# generated using pymatgen
data_Na3NbGaSi2PO12
_symmetry_space_group_name_H-M   'P 1'
_cell_length_a   15.57683259
_cell_length_b   26.88180747
_cell_length_c   8.96318947
_cell_angle_alpha   90.00000000
_cell_angle_beta   125.26716389
_cell_angle_gamma   90.00000000
_symmetry_Int_Tables_number   1
_chemical_formula_structural   Na3NbGaSi2PO12
_chemical_formula_sum   'Na36 Nb12 Ga12 Si24 P12 O144'
_cell_volume   3064.35937456
_cell_formula_units_Z   12
loop_
 _symmetry_equiv_pos_site_id
 _symmetry_equiv_pos_as_xyz
  1  'x, y, z'
loop_
 _atom_site_type_symbol
 _atom_site_label
 _atom_site_symmetry_multiplicity
 _atom_site_fract_x
 _atom_site_fract_y
 _atom_site_fract_z
 _atom_site_occupancy
  Na  Na0  1  0.25763934  0.25387493  0.00958912  1
  Na  Na1  1  0.25030071  0.58672513  0.01886437  1
  Na  Na2  1  0.25160964  0.91738190  0.02033459  1
  Na  Na3  1  0.75763934  0.24612507  0.50958912  1
  Na  Na4  1  0.75160964  0.58261810  0.52033459  1
  Na  Na5  1  0.75030071  0.91327487  0.51886437  1
  Na  Na6  1  0.75030071  0.08672513  0.01886437  1
  Na  Na7  1  0.75160964  0.41738190  0.02033459  1
  Na  Na8  1  0.75763934  0.75387493  0.00958912  1
  Na  Na9  1  0.25160964  0.08261810  0.52033459  1
  Na  Na10  1  0.25030071  0.41327487  0.51886437  1
  Na  Na11  1  0.25763934  0.74612507  0.50958912  1
  Na  Na12  1  0.49554718  0.03912544  0.75274745  1
  Na  Na13  1  0.49819442  0.37361545  0.75864912  1
  Na  Na14  1  0.49574854  0.70594881  0.74889355  1
  Na  Na15  1  0.49574854  0.29405119  0.24889355  1
  Na  Na16  1  0.49819442  0.62638455  0.25864912  1
  Na  Na17  1  0.49554718  0.96087456  0.25274745  1
  Na  Na18  1  0.99574854  0.20594881  0.74889355  1
  Na  Na19  1  0.99554718  0.53912544  0.75274745  1
  Na  Na20  1  0.99819442  0.87361545  0.75864912  1
  Na  Na21  1  0.99819442  0.12638455  0.25864912  1
  Na  Na22  1  0.99554718  0.46087456  0.25274745  1
  Na  Na23  1  0.99574854  0.79405119  0.24889355  1
  Na  Na24  1  0.81371773  0.64629924  0.21318161  1
  Na  Na25  1  0.81446526  0.98041691  0.22277278  1
  Na  Na26  1  0.19722474  0.30997916  0.28085527  1
  Na  Na27  1  0.19722474  0.69002084  0.78085527  1
  Na  Na28  1  0.81446526  0.01958309  0.72277278  1
  Na  Na29  1  0.81371773  0.35370076  0.71318161  1
  Na  Na30  1  0.31371773  0.14629924  0.21318161  1
  Na  Na31  1  0.31446526  0.48041691  0.22277278  1
  Na  Na32  1  0.69722474  0.80997916  0.28085527  1
  Na  Na33  1  0.69722474  0.19002084  0.78085527  1
  Na  Na34  1  0.31446526  0.51958309  0.72277278  1
  Na  Na35  1  0.31371773  0.85370076  0.71318161  1
  Nb  Nb0  1  0.10987555  0.24742114  0.57147097  1
  Nb  Nb1  1  0.10515901  0.58261840  0.56884313  1
  Nb  Nb2  1  0.10722719  0.91756059  0.56791265  1
  Nb  Nb3  1  0.10722719  0.08243941  0.06791265  1
  Nb  Nb4  1  0.10515901  0.41738160  0.06884313  1
  Nb  Nb5  1  0.10987555  0.75257886  0.07147097  1
  Nb  Nb6  1  0.60515901  0.08261840  0.56884313  1
  Nb  Nb7  1  0.60722719  0.41756059  0.56791265  1
  Nb  Nb8  1  0.60987555  0.74742114  0.57147097  1
  Nb  Nb9  1  0.60987555  0.25257886  0.07147097  1
  Nb  Nb10  1  0.60722719  0.58243941  0.06791265  1
  Nb  Nb11  1  0.60515901  0.91738160  0.06884313  1
  Ga  Ga0  1  0.89794131  0.24928874  0.94349433  1
  Ga  Ga1  1  0.89271424  0.58153254  0.93537687  1
  Ga  Ga2  1  0.89304546  0.91239825  0.93825322  1
  Ga  Ga3  1  0.89304546  0.08760175  0.43825322  1
  Ga  Ga4  1  0.89271424  0.41846746  0.43537687  1
  Ga  Ga5  1  0.89794131  0.75071126  0.44349433  1
  Ga  Ga6  1  0.39271424  0.08153254  0.93537687  1
  Ga  Ga7  1  0.39304546  0.41239825  0.93825322  1
  Ga  Ga8  1  0.39794131  0.74928874  0.94349433  1
  Ga  Ga9  1  0.39794131  0.25071126  0.44349433  1
  Ga  Ga10  1  0.39304546  0.58760175  0.43825322  1
  Ga  Ga11  1  0.39271424  0.91846746  0.43537687  1
  Si  Si0  1  0.35418181  0.29896467  0.74912992  1
  Si  Si1  1  0.35545655  0.63273858  0.75436361  1
  Si  Si2  1  0.35412517  0.96671255  0.74944333  1
  Si  Si3  1  0.64532429  0.29764970  0.73824092  1
  Si  Si4  1  0.64589274  0.62829630  0.73837137  1
  Si  Si5  1  0.64591782  0.96198736  0.73931562  1
  Si  Si6  1  0.64591782  0.03801264  0.23931562  1
  Si  Si7  1  0.64589274  0.37170370  0.23837137  1
  Si  Si8  1  0.64532429  0.70235030  0.23824092  1
  Si  Si9  1  0.35412517  0.03328745  0.24944333  1
  Si  Si10  1  0.35545655  0.36726142  0.25436361  1
  Si  Si11  1  0.35418181  0.70103533  0.24912992  1
  Si  Si12  1  0.85545655  0.13273858  0.75436361  1
  Si  Si13  1  0.85412517  0.46671255  0.74944333  1
  Si  Si14  1  0.85418181  0.79896467  0.74912992  1
  Si  Si15  1  0.14589274  0.12829630  0.73837137  1
  Si  Si16  1  0.14591782  0.46198736  0.73931562  1
  Si  Si17  1  0.14532429  0.79764970  0.73824092  1
  Si  Si18  1  0.14532429  0.20235030  0.23824092  1
  Si  Si19  1  0.14591782  0.53801264  0.23931562  1
  Si  Si20  1  0.14589274  0.87170370  0.23837137  1
  Si  Si21  1  0.85418181  0.20103533  0.24912992  1
  Si  Si22  1  0.85412517  0.53328745  0.24944333  1
  Si  Si23  1  0.85545655  0.86726142  0.25436361  1
  P  P0  1  0.00084546  0.32057234  0.74660365  1
  P  P1  1  0.99352222  0.65482524  0.74213054  1
  P  P2  1  0.99724202  0.98758420  0.73824933  1
  P  P3  1  0.99724202  0.01241580  0.23824933  1
  P  P4  1  0.99352222  0.34517476  0.24213054  1
  P  P5  1  0.00084546  0.67942766  0.24660365  1
  P  P6  1  0.49352222  0.15482524  0.74213054  1
  P  P7  1  0.49724202  0.48758420  0.73824933  1
  P  P8  1  0.50084546  0.82057234  0.74660365  1
  P  P9  1  0.50084546  0.17942766  0.24660365  1
  P  P10  1  0.49724202  0.51241580  0.23824933  1
  P  P11  1  0.49352222  0.84517476  0.24213054  1
  O  O0  1  0.14818912  0.19116123  0.74448102  1
  O  O1  1  0.15046872  0.52534748  0.74672931  1
  O  O2  1  0.14945730  0.85947029  0.74337832  1
  O  O3  1  0.84748517  0.19318876  0.75901847  1
  O  O4  1  0.85103447  0.52645355  0.75888681  1
  O  O5  1  0.84835402  0.85946512  0.75610187  1
  O  O6  1  0.84835402  0.14053488  0.25610187  1
  O  O7  1  0.85103447  0.47354645  0.25888681  1
  O  O8  1  0.84748517  0.80681124  0.25901847  1
  O  O9  1  0.14945730  0.14052971  0.24337832  1
  O  O10  1  0.15046872  0.47465252  0.24672931  1
  O  O11  1  0.14818912  0.80883877  0.24448102  1
  O  O12  1  0.65046872  0.02534748  0.74672931  1
  O  O13  1  0.64945730  0.35947029  0.74337832  1
  O  O14  1  0.64818912  0.69116123  0.74448102  1
  O  O15  1  0.35103447  0.02645355  0.75888681  1
  O  O16  1  0.34835402  0.35946512  0.75610187  1
  O  O17  1  0.34748517  0.69318876  0.75901847  1
  O  O18  1  0.34748517  0.30681124  0.25901847  1
  O  O19  1  0.34835402  0.64053488  0.25610187  1
  O  O20  1  0.35103447  0.97354645  0.25888681  1
  O  O21  1  0.64818912  0.30883877  0.24448102  1
  O  O22  1  0.64945730  0.64052971  0.24337832  1
  O  O23  1  0.65046872  0.97465252  0.24672931  1
  O  O24  1  0.43116373  0.18408049  0.56115386  1
  O  O25  1  0.43312670  0.51893285  0.56469175  1
  O  O26  1  0.43797516  0.85444749  0.58188502  1
  O  O27  1  0.55888872  0.18997742  0.90943186  1
  O  O28  1  0.55796479  0.52199642  0.91206633  1
  O  O29  1  0.56673492  0.85228811  0.92854035  1
  O  O30  1  0.56673492  0.14771189  0.42854035  1
  O  O31  1  0.55796479  0.47800358  0.41206633  1
  O  O32  1  0.55888872  0.81002258  0.40943186  1
  O  O33  1  0.43797516  0.14555251  0.08188502  1
  O  O34  1  0.43312670  0.48106715  0.06469175  1
  O  O35  1  0.43116373  0.81591951  0.06115386  1
  O  O36  1  0.93312670  0.01893285  0.56469175  1
  O  O37  1  0.93797516  0.35444749  0.58188502  1
  O  O38  1  0.93116373  0.68408049  0.56115386  1
  O  O39  1  0.05796479  0.02199642  0.91206633  1
  O  O40  1  0.06673492  0.35228811  0.92854035  1
  O  O41  1  0.05888872  0.68997742  0.90943186  1
  O  O42  1  0.05888872  0.31002258  0.40943186  1
  O  O43  1  0.06673492  0.64771189  0.42854035  1
  O  O44  1  0.05796479  0.97800358  0.41206633  1
  O  O45  1  0.93116373  0.31591951  0.06115386  1
  O  O46  1  0.93797516  0.64555251  0.08188502  1
  O  O47  1  0.93312670  0.98106715  0.06469175  1
  O  O48  1  0.25352485  0.27402288  0.73799583  1
  O  O49  1  0.25552051  0.60813551  0.75010700  1
  O  O50  1  0.25665200  0.93895200  0.74270552  1
  O  O51  1  0.74921839  0.27680659  0.75666476  1
  O  O52  1  0.75063287  0.60821474  0.76541344  1
  O  O53  1  0.75325700  0.94564054  0.76287175  1
  O  O54  1  0.75325700  0.05435946  0.26287175  1
  O  O55  1  0.75063287  0.39178526  0.26541344  1
  O  O56  1  0.74921839  0.72319341  0.25666476  1
  O  O57  1  0.25665200  0.06104800  0.24270552  1
  O  O58  1  0.25552051  0.39186449  0.25010700  1
  O  O59  1  0.25352485  0.72597712  0.23799583  1
  O  O60  1  0.75552051  0.10813551  0.75010700  1
  O  O61  1  0.75665200  0.43895200  0.74270552  1
  O  O62  1  0.75352485  0.77402288  0.73799583  1
  O  O63  1  0.25063287  0.10821474  0.76541344  1
  O  O64  1  0.25325700  0.44564054  0.76287175  1
  O  O65  1  0.24921839  0.77680659  0.75666476  1
  O  O66  1  0.24921839  0.22319341  0.25666476  1
  O  O67  1  0.25325700  0.55435946  0.26287175  1
  O  O68  1  0.25063287  0.89178526  0.26541344  1
  O  O69  1  0.75352485  0.22597712  0.23799583  1
  O  O70  1  0.75665200  0.56104800  0.24270552  1
  O  O71  1  0.75552051  0.89186449  0.25010700  1
  O  O72  1  0.35148967  0.28590312  0.56944858  1
  O  O73  1  0.35419446  0.61608540  0.58220133  1
  O  O74  1  0.35993852  0.94965084  0.58516585  1
  O  O75  1  0.64022201  0.28373812  0.91435078  1
  O  O76  1  0.64043665  0.61675229  0.91873817  1
  O  O77  1  0.64392689  0.94934699  0.92248290  1
  O  O78  1  0.64392689  0.05065301  0.42248290  1
  O  O79  1  0.64043665  0.38324771  0.41873817  1
  O  O80  1  0.64022201  0.71626188  0.41435078  1
  O  O81  1  0.35993852  0.05034916  0.08516585  1
  O  O82  1  0.35419446  0.38391460  0.08220133  1
  O  O83  1  0.35148967  0.71409688  0.06944858  1
  O  O84  1  0.85419446  0.11608540  0.58220133  1
  O  O85  1  0.85993852  0.44965084  0.58516585  1
  O  O86  1  0.85148967  0.78590312  0.56944858  1
  O  O87  1  0.14043665  0.11675229  0.91873817  1
  O  O88  1  0.14392689  0.44934699  0.92248290  1
  O  O89  1  0.14022201  0.78373812  0.91435078  1
  O  O90  1  0.14022201  0.21626188  0.41435078  1
  O  O91  1  0.14392689  0.55065301  0.42248290  1
  O  O92  1  0.14043665  0.88324771  0.41873817  1
  O  O93  1  0.85148967  0.21409688  0.06944858  1
  O  O94  1  0.85993852  0.55034916  0.08516585  1
  O  O95  1  0.85419446  0.88391460  0.08220133  1
  O  O96  1  0.46248345  0.27699802  0.93630377  1
  O  O97  1  0.46186646  0.60908591  0.94314430  1
  O  O98  1  0.46242597  0.94213789  0.94064410  1
  O  O99  1  0.54090452  0.27480327  0.55591785  1
  O  O100  1  0.53770178  0.60949729  0.55434561  1
  O  O101  1  0.53996478  0.94278147  0.55516311  1
  O  O102  1  0.53996478  0.05721853  0.05516311  1
  O  O103  1  0.53770178  0.39050271  0.05434561  1
  O  O104  1  0.54090452  0.72519673  0.05591785  1
  O  O105  1  0.46242597  0.05786211  0.44064410  1
  O  O106  1  0.46186646  0.39091409  0.44314430  1
  O  O107  1  0.46248345  0.72300198  0.43630377  1
  O  O108  1  0.96186646  0.10908591  0.94314430  1
  O  O109  1  0.96242597  0.44213789  0.94064410  1
  O  O110  1  0.96248345  0.77699802  0.93630377  1
  O  O111  1  0.03770178  0.10949729  0.55434561  1
  O  O112  1  0.03996478  0.44278147  0.55516311  1
  O  O113  1  0.04090452  0.77480327  0.55591785  1
  O  O114  1  0.04090452  0.22519673  0.05591785  1
  O  O115  1  0.03996478  0.55721853  0.05516311  1
  O  O116  1  0.03770178  0.89050271  0.05434561  1
  O  O117  1  0.96248345  0.22300198  0.43630377  1
  O  O118  1  0.96242597  0.55786211  0.44064410  1
  O  O119  1  0.96186646  0.89091409  0.44314430  1
  O  O120  1  0.08193273  0.28631664  0.74747956  1
  O  O121  1  0.08181571  0.62279691  0.74693274  1
  O  O122  1  0.08331871  0.95486978  0.74773961  1
  O  O123  1  0.92199846  0.28651941  0.75246194  1
  O  O124  1  0.92191394  0.61829793  0.75212606  1
  O  O125  1  0.92089844  0.95311862  0.74614313  1
  O  O126  1  0.92089844  0.04688138  0.24614313  1
  O  O127  1  0.92191394  0.38170207  0.25212606  1
  O  O128  1  0.92199846  0.71348059  0.25246194  1
  O  O129  1  0.08331871  0.04513022  0.24773961  1
  O  O130  1  0.08181571  0.37720309  0.24693274  1
  O  O131  1  0.08193273  0.71368336  0.24747956  1
  O  O132  1  0.58181571  0.12279691  0.74693274  1
  O  O133  1  0.58331871  0.45486978  0.74773961  1
  O  O134  1  0.58193273  0.78631664  0.74747956  1
  O  O135  1  0.42191394  0.11829793  0.75212606  1
  O  O136  1  0.42089844  0.45311862  0.74614313  1
  O  O137  1  0.42199846  0.78651941  0.75246194  1
  O  O138  1  0.42199846  0.21348059  0.25246194  1
  O  O139  1  0.42089844  0.54688138  0.24614313  1
  O  O140  1  0.42191394  0.88170207  0.25212606  1
  O  O141  1  0.58193273  0.21368336  0.24747956  1
  O  O142  1  0.58331871  0.54513022  0.24773961  1
  O  O143  1  0.58181571  0.87720309  0.24693274  1
loop_
_geom_bond_atom_site_label_1
_geom_bond_atom_site_label_2
_geom_bond_distance
_geom_bond_site_symmetry_2
Na0 O18 2.317058 1_555
Na0 O66 2.436658 1_555
Na0 O138 2.456972 1_555
Na0 O48 2.458314 1_554
Na0 O120 2.519043 1_554
Na0 O0 2.591705 1_554
Na1 O19 2.279544 1_555
Na1 O67 2.329407 1_555
Na1 O139 2.471323 1_555
Na1 O49 2.523284 1_554
Na1 O121 2.526257 1_554
Na1 O1 2.590370 1_554
Na2 O68 2.310352 1_555
Na2 O20 2.329355 1_555
Na2 O140 2.430883 1_555
Na2 O122 2.541834 1_554
Na2 O2 2.560551 1_554
Na2 O50 2.600084 1_554
Na3 O3 2.317058 1_555
Na3 O51 2.436658 1_555
Na3 O123 2.456972 1_555
Na3 O69 2.458314 1_555
Na3 O141 2.519043 1_555
Na3 O21 2.591705 1_555
Na4 O52 2.310352 1_555
Na4 O4 2.329355 1_555
Na4 O124 2.430883 1_555
Na4 O142 2.541834 1_555
Na4 O22 2.560551 1_555
Na4 O70 2.600084 1_555
Na5 O5 2.279544 1_555
Na5 O53 2.329407 1_555
Na5 O125 2.471323 1_555
Na5 O71 2.523284 1_555
Na5 O143 2.526257 1_555
Na5 O23 2.590370 1_555
Na6 O6 2.279544 1_555
Na6 O54 2.329407 1_555
Na6 O126 2.471323 1_555
Na6 O60 2.523284 1_554
Na6 O132 2.526257 1_554
Na6 O12 2.590370 1_554
Na7 O55 2.310352 1_555
Na7 O7 2.329355 1_555
Na7 O127 2.430883 1_555
Na7 O133 2.541834 1_554
Na7 O13 2.560551 1_554
Na7 O61 2.600084 1_554
Na8 O8 2.317058 1_555
Na8 O56 2.436658 1_555
Na8 O128 2.456972 1_555
Na8 O62 2.458314 1_554
Na8 O134 2.519043 1_554
Na8 O14 2.591705 1_554
Na9 O63 2.310352 1_555
Na9 O15 2.329355 1_555
Na9 O135 2.430883 1_555
Na9 O129 2.541834 1_555
Na9 O9 2.560551 1_555
Na9 O57 2.600084 1_555
Na10 O16 2.279544 1_555
Na10 O64 2.329407 1_555
Na10 O136 2.471323 1_555
Na10 O58 2.523284 1_555
Na10 O130 2.526257 1_555
Na10 O10 2.590370 1_555
Na11 O17 2.317058 1_555
Na11 O65 2.436658 1_555
Na11 O137 2.456972 1_555
Na11 O59 2.458314 1_555
Na11 O131 2.519043 1_555
Na11 O11 2.591705 1_555
Na12 O15 2.308536 1_555
Na12 O135 2.416166 1_555
Na12 O102 2.428365 1_556
Na12 O12 2.472626 1_555
Na12 O105 2.584355 1_555
Na12 O132 2.635991 1_555
Na13 O16 2.351896 1_555
Na13 O103 2.392871 1_556
Na13 O136 2.423627 1_555
Na13 O13 2.467267 1_555
Na13 O106 2.585672 1_555
Na13 O133 2.586210 1_555
Na14 O17 2.387800 1_555
Na14 O14 2.430325 1_555
Na14 O137 2.460534 1_555
Na14 O104 2.469870 1_556
Na14 O134 2.547454 1_555
Na14 O107 2.579192 1_555
Na15 O18 2.387800 1_555
Na15 O21 2.430325 1_555
Na15 O138 2.460534 1_555
Na15 O99 2.469870 1_555
Na15 O141 2.547454 1_555
Na15 O96 2.579192 1_554
Na16 O19 2.351896 1_555
Na16 O100 2.392871 1_555
Na16 O139 2.423627 1_555
Na16 O22 2.467267 1_555
Na16 O97 2.585672 1_554
Na16 O142 2.586210 1_555
Na17 O20 2.308536 1_555
Na17 O140 2.416166 1_555
Na17 O101 2.428365 1_555
Na17 O23 2.472626 1_555
Na17 O98 2.584355 1_554
Na17 O143 2.635991 1_555
Na18 O3 2.387800 1_555
Na18 O0 2.430325 1_655
Na18 O123 2.460534 1_555
Na18 O114 2.469870 1_656
Na18 O120 2.547454 1_655
Na18 O117 2.579192 1_555
Na19 O4 2.308536 1_555
Na19 O124 2.416166 1_555
Na19 O115 2.428365 1_656
Na19 O1 2.472626 1_655
Na19 O118 2.584355 1_555
Na19 O121 2.635991 1_655
Na20 O5 2.351896 1_555
Na20 O116 2.392871 1_656
Na20 O125 2.423627 1_555
Na20 O2 2.467267 1_655
Na20 O119 2.585672 1_555
Na20 O122 2.586210 1_655
Na21 O6 2.351896 1_555
Na21 O111 2.392871 1_655
Na21 O126 2.423627 1_555
Na21 O9 2.467267 1_655
Na21 O108 2.585672 1_554
Na21 O129 2.586210 1_655
Na22 O7 2.308536 1_555
Na22 O127 2.416166 1_555
Na22 O112 2.428365 1_655
Na22 O10 2.472626 1_655
Na22 O109 2.584355 1_554
Na22 O130 2.635991 1_655
Na23 O8 2.387800 1_555
Na23 O11 2.430325 1_655
Na23 O128 2.460534 1_555
Na23 O113 2.469870 1_655
Na23 O131 2.547454 1_655
Na23 O110 2.579192 1_554
Na24 O128 2.354685 1_555
Na24 O56 2.426152 1_555
Na24 O70 2.526606 1_555
Na24 O76 2.579810 1_554
Na24 O22 2.728324 1_555
Na24 O38 2.741728 1_555
Na24 O46 2.786040 1_555
Na25 O54 2.320542 1_565
Na25 O126 2.362984 1_565
Na25 O77 2.596560 1_554
Na25 O71 2.613308 1_555
Na25 O23 2.688728 1_555
Na25 O36 2.709119 1_565
Na25 O47 2.906673 1_555
Na26 O72 2.388795 1_555
Na26 O130 2.441026 1_555
Na26 O58 2.456610 1_555
Na26 O18 2.460265 1_555
Na26 O66 2.519608 1_555
Na26 O40 2.825769 1_554
Na27 O83 2.388795 1_556
Na27 O121 2.441026 1_555
Na27 O49 2.456610 1_555
Na27 O17 2.460265 1_555
Na27 O65 2.519608 1_555
Na27 O43 2.825769 1_555
Na28 O53 2.320542 1_545
Na28 O125 2.362984 1_545
Na28 O78 2.596560 1_555
Na28 O60 2.613308 1_555
Na28 O12 2.688728 1_555
Na28 O47 2.709119 1_546
Na28 O36 2.906673 1_555
Na29 O123 2.354685 1_555
Na29 O51 2.426152 1_555
Na29 O61 2.526606 1_555
Na29 O79 2.579810 1_555
Na29 O13 2.728324 1_555
Na29 O45 2.741728 1_556
Na29 O37 2.786040 1_555
Na30 O138 2.354685 1_555
Na30 O66 2.426152 1_555
Na30 O57 2.526606 1_555
Na30 O87 2.579810 1_554
Na30 O9 2.728324 1_555
Na30 O24 2.741728 1_555
Na30 O33 2.786040 1_555
Na31 O67 2.320542 1_555
Na31 O139 2.362984 1_555
Na31 O88 2.596560 1_554
Na31 O58 2.613308 1_555
Na31 O10 2.688728 1_555
Na31 O25 2.709119 1_555
Na31 O34 2.906673 1_555
Na32 O86 2.388795 1_555
Na32 O143 2.441026 1_555
Na32 O71 2.456610 1_555
Na32 O8 2.460265 1_555
Na32 O56 2.519608 1_555
Na32 O29 2.825769 1_554
Na33 O93 2.388795 1_556
Na33 O132 2.441026 1_555
Na33 O60 2.456610 1_555
Na33 O3 2.460265 1_555
Na33 O51 2.519608 1_555
Na33 O30 2.825769 1_555
Na34 O64 2.320542 1_555
Na34 O136 2.362984 1_555
Na34 O91 2.596560 1_555
Na34 O49 2.613308 1_555
Na34 O1 2.688728 1_555
Na34 O34 2.709119 1_556
Na34 O25 2.906673 1_555
Na35 O137 2.354685 1_555
Na35 O65 2.426152 1_555
Na35 O50 2.526606 1_555
Na35 O92 2.579810 1_555
Na35 O2 2.728324 1_555
Na35 O35 2.741728 1_556
Na35 O26 2.786040 1_555
Nb0 O90 1.917575 1_555
Nb0 O48 1.972131 1_555
Nb0 O117 1.989420 1_455
Nb0 O0 1.994855 1_555
Nb0 O42 2.059153 1_555
Nb0 O120 2.136459 1_555
Nb1 O91 1.933605 1_555
Nb1 O118 1.938104 1_455
Nb1 O1 2.027569 1_555
Nb1 O43 2.032835 1_555
Nb1 O49 2.049777 1_555
Nb1 O121 2.125334 1_555
Nb2 O92 1.924814 1_555
Nb2 O44 1.985529 1_555
Nb2 O119 1.991610 1_455
Nb2 O50 1.997940 1_555
Nb2 O2 2.037160 1_555
Nb2 O122 2.106119 1_555
Nb3 O87 1.924814 1_554
Nb3 O39 1.985529 1_554
Nb3 O108 1.991610 1_454
Nb3 O57 1.997940 1_555
Nb3 O9 2.037160 1_555
Nb3 O129 2.106119 1_555
Nb4 O88 1.933605 1_554
Nb4 O109 1.938104 1_454
Nb4 O10 2.027569 1_555
Nb4 O40 2.032835 1_554
Nb4 O58 2.049777 1_555
Nb4 O130 2.125334 1_555
Nb5 O89 1.917575 1_554
Nb5 O59 1.972131 1_555
Nb5 O110 1.989420 1_454
Nb5 O11 1.994855 1_555
Nb5 O41 2.059153 1_554
Nb5 O131 2.136459 1_555
Nb6 O78 1.933605 1_555
Nb6 O105 1.938104 1_555
Nb6 O12 2.027569 1_555
Nb6 O30 2.032835 1_555
Nb6 O60 2.049777 1_555
Nb6 O132 2.125334 1_555
Nb7 O79 1.924814 1_555
Nb7 O31 1.985529 1_555
Nb7 O106 1.991610 1_555
Nb7 O61 1.997940 1_555
Nb7 O13 2.037160 1_555
Nb7 O133 2.106119 1_555
Nb8 O80 1.917575 1_555
Nb8 O62 1.972131 1_555
Nb8 O107 1.989420 1_555
Nb8 O14 1.994855 1_555
Nb8 O32 2.059153 1_555
Nb8 O134 2.136459 1_555
Nb9 O75 1.917575 1_554
Nb9 O69 1.972131 1_555
Nb9 O96 1.989420 1_554
Nb9 O21 1.994855 1_555
Nb9 O27 2.059153 1_554
Nb9 O141 2.136459 1_555
Nb10 O76 1.924814 1_554
Nb10 O28 1.985529 1_554
Nb10 O97 1.991610 1_554
Nb10 O70 1.997940 1_555
Nb10 O22 2.037160 1_555
Nb10 O142 2.106119 1_555
Nb11 O77 1.933605 1_554
Nb11 O98 1.938104 1_554
Nb11 O23 2.027569 1_555
Nb11 O29 2.032835 1_554
Nb11 O71 2.049777 1_555
Nb11 O143 2.125334 1_555
Ga0 O93 1.906922 1_556
Ga0 O114 1.950040 1_656
Ga0 O45 1.989474 1_556
Ga0 O3 2.031088 1_555
Ga0 O51 2.058731 1_555
Ga0 O123 2.194281 1_555
Ga1 O94 1.886113 1_556
Ga1 O52 1.959586 1_555
Ga1 O4 1.982474 1_555
Ga1 O115 1.999292 1_656
Ga1 O46 2.028331 1_556
Ga1 O124 2.178121 1_555
Ga2 O95 1.875873 1_556
Ga2 O116 1.949082 1_656
Ga2 O5 1.965313 1_555
Ga2 O53 2.014517 1_555
Ga2 O47 2.065088 1_556
Ga2 O125 2.283457 1_555
Ga3 O84 1.875873 1_555
Ga3 O111 1.949082 1_655
Ga3 O6 1.965313 1_555
Ga3 O54 2.014517 1_555
Ga3 O36 2.065088 1_555
Ga3 O126 2.283457 1_555
Ga4 O85 1.886113 1_555
Ga4 O55 1.959586 1_555
Ga4 O7 1.982474 1_555
Ga4 O112 1.999292 1_655
Ga4 O37 2.028331 1_555
Ga4 O127 2.178121 1_555
Ga5 O86 1.906922 1_555
Ga5 O113 1.950040 1_655
Ga5 O38 1.989474 1_555
Ga5 O8 2.031088 1_555
Ga5 O56 2.058731 1_555
Ga5 O128 2.194281 1_555
Ga6 O81 1.886113 1_556
Ga6 O63 1.959586 1_555
Ga6 O15 1.982474 1_555
Ga6 O102 1.999292 1_556
Ga6 O33 2.028331 1_556
Ga6 O135 2.178121 1_555
Ga7 O82 1.875873 1_556
Ga7 O103 1.949082 1_556
Ga7 O16 1.965313 1_555
Ga7 O64 2.014517 1_555
Ga7 O34 2.065088 1_556
Ga7 O136 2.283457 1_555
Ga8 O83 1.906922 1_556
Ga8 O104 1.950040 1_556
Ga8 O35 1.989474 1_556
Ga8 O17 2.031088 1_555
Ga8 O65 2.058731 1_555
Ga8 O137 2.194281 1_555
Ga9 O72 1.906922 1_555
Ga9 O99 1.950040 1_555
Ga9 O24 1.989474 1_555
Ga9 O18 2.031088 1_555
Ga9 O66 2.058731 1_555
Ga9 O138 2.194281 1_555
Ga10 O73 1.875873 1_555
Ga10 O100 1.949082 1_555
Ga10 O19 1.965313 1_555
Ga10 O67 2.014517 1_555
Ga10 O25 2.065088 1_555
Ga10 O139 2.283457 1_555
Ga11 O74 1.886113 1_555
Ga11 O68 1.959586 1_555
Ga11 O20 1.982474 1_555
Ga11 O101 1.999292 1_555
Ga11 O26 2.028331 1_555
Ga11 O140 2.178121 1_555
O0 Si15 1.690519 1_555
O1 Si16 1.704409 1_555
O2 Si17 1.662704 1_555
O3 Si12 1.632115 1_555
O4 Si13 1.610357 1_555
O5 Si14 1.632099 1_555
O6 Si21 1.632099 1_555
O7 Si22 1.610357 1_555
O8 Si23 1.632115 1_555
O9 Si18 1.662704 1_555
O10 Si19 1.704409 1_555
O11 Si20 1.690519 1_555
O12 Si5 1.704409 1_545
O13 Si3 1.662704 1_555
O14 Si4 1.690519 1_555
O15 Si2 1.610357 1_545
O16 Si0 1.632099 1_555
O17 Si1 1.632115 1_555
O18 Si10 1.632115 1_555
O19 Si11 1.632099 1_555
O20 Si9 1.610357 1_565
O21 Si7 1.690519 1_555
O22 Si8 1.662704 1_555
O23 Si6 1.704409 1_565
O24 P6 1.540703 1_555
O25 P7 1.527570 1_555
O26 P8 1.516051 1_555
O27 P6 1.554079 1_555
O28 P7 1.573507 1_555
O29 P8 1.583292 1_555
O30 P9 1.583292 1_555
O31 P10 1.573507 1_555
O32 P11 1.554079 1_555
O33 P9 1.516051 1_555
O34 P10 1.527570 1_555
O35 P11 1.540703 1_555
O36 P2 1.527570 1_545
O37 P0 1.516051 1_655
O38 P1 1.540703 1_555
O39 P2 1.573507 1_445
O40 P0 1.583292 1_555
O41 P1 1.554079 1_455
O42 P4 1.554079 1_455
O43 P5 1.583292 1_555
O44 P3 1.573507 1_465
O45 P4 1.540703 1_555
O46 P5 1.516051 1_655
O47 P3 1.527570 1_565
O48 Si0 1.654441 1_555
O49 Si1 1.671395 1_555
O50 Si2 1.661313 1_555
O51 Si3 1.628380 1_555
O52 Si4 1.598549 1_555
O53 Si5 1.620375 1_555
O54 Si6 1.620375 1_555
O55 Si7 1.598549 1_555
O56 Si8 1.628380 1_555
O57 Si9 1.661313 1_555
O58 Si10 1.671395 1_555
O59 Si11 1.654441 1_555
O60 Si12 1.671395 1_555
O61 Si13 1.661313 1_555
O62 Si14 1.654441 1_555
O63 Si15 1.598549 1_555
O64 Si16 1.620375 1_555
O65 Si17 1.628380 1_555
O66 Si18 1.628380 1_555
O67 Si19 1.620375 1_555
O68 Si20 1.598549 1_555
O69 Si21 1.654441 1_555
O70 Si22 1.661313 1_555
O71 Si23 1.671395 1_555
O72 Si0 1.625060 1_555
O73 Si1 1.595929 1_555
O74 Si2 1.593939 1_555
O75 Si3 1.668150 1_555
O76 Si4 1.695814 1_555
O77 Si5 1.694286 1_555
O78 Si6 1.694286 1_555
O79 Si7 1.695814 1_555
O80 Si8 1.668150 1_555
O81 Si9 1.593939 1_555
O82 Si10 1.595929 1_555
O83 Si11 1.625060 1_555
O84 Si12 1.595929 1_555
O85 Si13 1.593939 1_555
O86 Si14 1.625060 1_555
O87 Si15 1.695814 1_555
O88 Si16 1.694286 1_555
O89 Si17 1.668150 1_555
O90 Si18 1.668150 1_555
O91 Si19 1.694286 1_555
O92 Si20 1.695814 1_555
O93 Si21 1.625060 1_555
O94 Si22 1.593939 1_555
O95 Si23 1.595929 1_555
O96 Si0 1.655582 1_555
O97 Si1 1.666143 1_555
O98 Si2 1.697275 1_555
O99 Si3 1.619845 1_555
O100 Si4 1.614371 1_555
O101 Si5 1.602832 1_555
O102 Si6 1.602832 1_555
O103 Si7 1.614371 1_555
O104 Si8 1.619845 1_555
O105 Si9 1.697275 1_555
O106 Si10 1.666143 1_555
O107 Si11 1.655582 1_555
O108 Si12 1.666143 1_555
O109 Si13 1.697275 1_555
O110 Si14 1.655582 1_555
O111 Si15 1.614371 1_555
O112 Si16 1.602832 1_555
O113 Si17 1.619845 1_555
O114 Si18 1.619845 1_555
O115 Si19 1.602832 1_555
O116 Si20 1.614371 1_555
O117 Si21 1.655582 1_555
O118 Si22 1.697275 1_555
O119 Si23 1.666143 1_555
O120 P0 1.559475 1_555
O121 P1 1.601973 1_455
O122 P2 1.564182 1_455
O123 P0 1.556803 1_655
O124 P1 1.527016 1_555
O125 P2 1.541020 1_555
O126 P3 1.541020 1_555
O127 P4 1.527016 1_555
O128 P5 1.556803 1_655
O129 P3 1.564182 1_455
O130 P4 1.601973 1_455
O131 P5 1.559475 1_555
O132 P6 1.601973 1_555
O133 P7 1.564182 1_555
O134 P8 1.559475 1_555
O135 P6 1.527016 1_555
O136 P7 1.541020 1_555
O137 P8 1.556803 1_555
O138 P9 1.556803 1_555
O139 P10 1.541020 1_555
O140 P11 1.527016 1_555
O141 P9 1.559475 1_555
O142 P10 1.564182 1_555
O143 P11 1.601973 1_555
