# generated using pymatgen
data_Sr2MgGaSbO6
_symmetry_space_group_name_H-M   'P 1'
_cell_length_a   6.11800974
_cell_length_b   6.95129639
_cell_length_c   7.24707160
_cell_angle_alpha   134.42435400
_cell_angle_beta   126.77125818
_cell_angle_gamma   68.30036381
_symmetry_Int_Tables_number   1
_chemical_formula_structural   Sr2MgGaSbO6
_chemical_formula_sum   'Sr2 Mg1 Ga1 Sb1 O6'
_cell_volume   175.66127953
_cell_formula_units_Z   1
loop_
 _symmetry_equiv_pos_site_id
 _symmetry_equiv_pos_as_xyz
  1  'x, y, z'
loop_
 _atom_site_type_symbol
 _atom_site_label
 _atom_site_symmetry_multiplicity
 _atom_site_fract_x
 _atom_site_fract_y
 _atom_site_fract_z
 _atom_site_occupancy
  Sr  Sr0  1  0.32676475  0.81918480  0.58199071  1
  Sr  Sr1  1  0.67323525  0.18081520  0.41800929  1
  Mg  Mg0  1  0.00000000  0.50000000  0.50000000  1
  Ga  Ga0  1  0.00000000  -0.00000000  -0.00000000  1
  Sb  Sb0  1  0.50000000  0.50000000  -0.00000000  1
  O  O0  1  0.81233997  0.67197636  0.74555227  1
  O  O1  1  0.31857443  0.78853693  0.91823201  1
  O  O2  1  0.68142557  0.21146307  0.08176799  1
  O  O3  1  0.18766003  0.32802364  0.25444773  1
  O  O4  1  0.18032501  0.19833599  0.55616690  1
  O  O5  1  0.81967499  0.80166401  0.44383310  1
loop_
_geom_bond_atom_site_label_1
_geom_bond_atom_site_label_2
_geom_bond_distance
_geom_bond_site_symmetry_2
Mg0 O2 2.077485 1_455
Mg0 O1 2.077485 1_555
Mg0 O0 2.089733 1_455
Mg0 O3 2.089733 1_555
Mg0 O4 2.174069 1_555
Mg0 O5 2.174069 1_455
Ga0 O0 1.852750 1_444
Ga0 O3 1.852750 1_555
Ga0 O2 2.086957 1_455
Ga0 O1 2.086957 1_544
O0 Sr1 2.529843 1_555
O0 Sr0 2.551799 1_555
O1 Sb0 2.199123 1_556
O1 Sr1 2.530232 1_566
O1 Sr0 2.620411 1_555
O2 Sb0 2.199123 1_555
O2 Sr0 2.530232 1_544
O2 Sr1 2.620411 1_555
O3 Sr0 2.529843 1_555
O3 Sr1 2.551799 1_555
O4 Sb0 2.151038 1_556
O4 Sr0 2.554934 1_545
O4 Sr1 2.651767 1_455
O5 Sb0 2.151038 1_555
O5 Sr1 2.554934 1_565
O5 Sr0 2.651767 1_655
