# generated using pymatgen
data_Na5TiIn3(PO4)6
_symmetry_space_group_name_H-M   'P 1'
_cell_length_a   8.99438768
_cell_length_b   8.99494837
_cell_length_c   22.52684589
_cell_angle_alpha   89.94379079
_cell_angle_beta   90.04794145
_cell_angle_gamma   120.01184305
_symmetry_Int_Tables_number   1
_chemical_formula_structural   Na5TiIn3(PO4)6
_chemical_formula_sum   'Na15 Ti3 In9 P18 O72'
_cell_volume   1578.15339396
_cell_formula_units_Z   3
loop_
 _symmetry_equiv_pos_site_id
 _symmetry_equiv_pos_as_xyz
  1  'x, y, z'
loop_
 _atom_site_type_symbol
 _atom_site_label
 _atom_site_symmetry_multiplicity
 _atom_site_fract_x
 _atom_site_fract_y
 _atom_site_fract_z
 _atom_site_occupancy
  Na  Na0  1  0.63697303  0.00079352  0.25384020  1
  Na  Na1  1  0.36419164  0.36384772  0.25464164  1
  Na  Na2  1  0.99917094  0.63623636  0.25396490  1
  Na  Na3  1  0.64260020  0.64002082  0.74933274  1
  Na  Na4  1  0.99867425  0.35963513  0.74957193  1
  Na  Na5  1  0.03391557  0.70068777  0.58001761  1
  Na  Na6  1  0.66366029  0.96527345  0.57992897  1
  Na  Na7  1  0.66340364  0.69962220  0.08000548  1
  Na  Na8  1  0.03521028  0.33361973  0.07998005  1
  Na  Na9  1  0.01150673  0.01253336  0.49593657  1
  Na  Na10  1  0.01115338  0.99901628  0.99437560  1
  Na  Na11  1  0.65464396  0.32105831  0.83437470  1
  Na  Na12  1  0.66675749  0.33354257  0.34061645  1
  Na  Na13  1  0.33261216  0.67922565  0.16550886  1
  Na  Na14  1  0.33334441  0.66538682  0.66492358  1
  Ti  Ti0  1  0.66535875  0.33265933  0.97706207  1
  Ti  Ti1  1  0.66356971  0.33235160  0.48010484  1
  Ti  Ti2  1  0.33364793  0.67344943  0.81969640  1
  In  In0  1  0.99922749  0.99873238  0.35451857  1
  In  In1  1  0.00175517  0.00053217  0.85205908  1
  In  In2  1  0.00939964  0.00699030  0.64952479  1
  In  In3  1  0.00653738  0.99929456  0.14662467  1
  In  In4  1  0.65762580  0.32748902  0.68267150  1
  In  In5  1  0.66380892  0.33003818  0.18049167  1
  In  In6  1  0.33327796  0.67248670  0.01333418  1
  In  In7  1  0.33288924  0.65947168  0.51386199  1
  In  In8  1  0.33332428  0.66548538  0.32498327  1
  P  P0  1  0.29544849  0.99754933  0.25029690  1
  P  P1  1  0.70261749  0.70431996  0.24804495  1
  P  P2  1  0.00165952  0.29741282  0.24823936  1
  P  P3  1  0.29731822  0.30365288  0.75287119  1
  P  P4  1  0.00658517  0.70388714  0.75011715  1
  P  P5  1  0.69803051  0.99511645  0.75056485  1
  P  P6  1  0.95714681  0.33364432  0.58327557  1
  P  P7  1  0.37403906  0.04078921  0.58069983  1
  P  P8  1  0.66562385  0.62533662  0.58350262  1
  P  P9  1  0.95730475  0.62311786  0.08111367  1
  P  P10  1  0.66512142  0.04073026  0.08153326  1
  P  P11  1  0.37488059  0.33254352  0.08042059  1
  P  P12  1  0.62740470  0.66202216  0.91781264  1
  P  P13  1  0.03467865  0.37278985  0.91820424  1
  P  P14  1  0.33808697  0.96600806  0.91764933  1
  P  P15  1  0.63582687  0.97487551  0.41889633  1
  P  P16  1  0.33889129  0.36394095  0.41699645  1
  P  P17  1  0.02515537  0.66048259  0.41905368  1
  O  O0  1  0.21442883  0.03414537  0.30349676  1
  O  O1  1  0.82317546  0.78970048  0.30039614  1
  O  O2  1  0.96740021  0.17664502  0.30041380  1
  O  O3  1  0.21758281  0.19058921  0.80672057  1
  O  O4  1  0.96429476  0.78684278  0.80139600  1
  O  O5  1  0.82127699  0.03340632  0.80246063  1
  O  O6  1  0.76682230  0.95347824  0.69298655  1
  O  O7  1  0.18308143  0.23262524  0.69679876  1
  O  O8  1  0.03870329  0.80427154  0.69119714  1
  O  O9  1  0.77439982  0.80809714  0.18945654  1
  O  O10  1  0.03357323  0.22614203  0.18956761  1
  O  O11  1  0.18582566  0.96051112  0.19353491  1
  O  O12  1  0.88724466  0.36221379  0.64248119  1
  O  O13  1  0.47836043  0.11031190  0.63805682  1
  O  O14  1  0.64402385  0.53409926  0.64353577  1
  O  O15  1  0.88757999  0.52589875  0.14054975  1
  O  O16  1  0.64321476  0.10905427  0.14171698  1
  O  O17  1  0.47199848  0.36188593  0.13984155  1
  O  O18  1  0.47900704  0.31836386  0.02802144  1
  O  O19  1  0.83473143  0.51943275  0.02902318  1
  O  O20  1  0.68317536  0.16262109  0.02961177  1
  O  O21  1  0.47379914  0.15671825  0.52756202  1
  O  O22  1  0.68340181  0.52211634  0.53178879  1
  O  O23  1  0.83482401  0.31370569  0.53142499  1
  O  O24  1  0.55462160  0.68894718  0.97576553  1
  O  O25  1  0.13555520  0.44533247  0.97607678  1
  O  O26  1  0.30665341  0.86282875  0.97418009  1
  O  O27  1  0.55099620  0.86397111  0.47385191  1
  O  O28  1  0.30867362  0.45131458  0.46934936  1
  O  O29  1  0.13728980  0.68800599  0.47382246  1
  O  O30  1  0.09944767  0.62919891  0.36080222  1
  O  O31  1  0.53024489  0.89940844  0.36073267  1
  O  O32  1  0.37121286  0.46611825  0.35778447  1
  O  O33  1  0.13382087  0.49472595  0.86420383  1
  O  O34  1  0.35976629  0.86395664  0.86402719  1
  O  O35  1  0.50658368  0.64111603  0.86376062  1
  O  O36  1  0.00262692  0.81722245  0.41450021  1
  O  O37  1  0.81507511  0.99711674  0.41441391  1
  O  O38  1  0.18297088  0.18384751  0.41323306  1
  O  O39  1  0.00883216  0.19351533  0.91095637  1
  O  O40  1  0.18433737  0.99116866  0.90972641  1
  O  O41  1  0.80695952  0.81599943  0.91067351  1
  O  O42  1  0.96225457  0.16389423  0.58493447  1
  O  O43  1  0.19359087  0.02191671  0.58315618  1
  O  O44  1  0.83541761  0.80345831  0.58395053  1
  O  O45  1  0.96165817  0.79725670  0.08185953  1
  O  O46  1  0.83504820  0.03300571  0.08158290  1
  O  O47  1  0.19401655  0.17185067  0.08119764  1
  O  O48  1  0.68144135  0.15696690  0.74535905  1
  O  O49  1  0.48234648  0.33624894  0.74667766  1
  O  O50  1  0.84771466  0.51940586  0.74610942  1
  O  O51  1  0.68109146  0.52171054  0.24459963  1
  O  O52  1  0.84038998  0.31874899  0.24504407  1
  O  O53  1  0.47728882  0.15938203  0.24525274  1
  O  O54  1  0.63672187  0.49287470  0.92272760  1
  O  O55  1  0.85614804  0.36337671  0.92345968  1
  O  O56  1  0.50751300  0.14287205  0.92239532  1
  O  O57  1  0.65073564  0.15418721  0.42647175  1
  O  O58  1  0.50444406  0.35172874  0.42656683  1
  O  O59  1  0.84619109  0.49618242  0.42743083  1
  O  O60  1  0.35524246  0.49439129  0.07625567  1
  O  O61  1  0.13510833  0.63873539  0.07663899  1
  O  O62  1  0.51285244  0.85583395  0.07738944  1
  O  O63  1  0.35195099  0.85821280  0.57601171  1
  O  O64  1  0.51312032  0.65778946  0.57840456  1
  O  O65  1  0.13526576  0.49575356  0.57765946  1
  O  O66  1  0.31596033  0.83660693  0.25665961  1
  O  O67  1  0.52288366  0.68712585  0.25498013  1
  O  O68  1  0.16353929  0.47797296  0.25509366  1
  O  O69  1  0.31379896  0.48588461  0.76135168  1
  O  O70  1  0.16642545  0.68136169  0.76134809  1
  O  O71  1  0.52015385  0.82952537  0.76161798  1
loop_
_geom_bond_atom_site_label_1
_geom_bond_atom_site_label_2
_geom_bond_distance
_geom_bond_site_symmetry_2
Na0 O67 2.473404 1_545
Na0 O53 2.486706 1_555
Na0 O66 2.501232 1_545
Na0 O52 2.516197 1_555
Na0 O31 2.583642 1_545
Na0 O16 2.696616 1_555
Na0 O2 2.780432 1_555
Na0 O9 2.964270 1_545
Na1 O51 2.478597 1_555
Na1 O68 2.482819 1_555
Na1 O32 2.488904 1_555
Na1 O53 2.516877 1_555
Na1 O67 2.518151 1_555
Na1 O17 2.765823 1_555
Na1 O0 2.796540 1_555
Na1 O10 2.972821 1_555
Na2 O52 2.481167 1_555
Na2 O66 2.496677 1_655
Na2 O68 2.513576 1_655
Na2 O51 2.518295 1_555
Na2 O30 2.581261 1_655
Na2 O15 2.742998 1_555
Na2 O1 2.774318 1_555
Na2 O11 2.876968 1_655
Na3 O49 2.368027 1_555
Na3 O71 2.464658 1_555
Na3 O50 2.566820 1_555
Na3 O14 2.569944 1_555
Na3 O69 2.576908 1_555
Na3 O6 2.766444 1_555
Na3 O4 2.768829 1_555
Na3 O35 2.856341 1_555
Na4 O50 2.422114 1_555
Na4 O69 2.484562 1_655
Na4 O48 2.504030 1_555
Na4 O70 2.520819 1_655
Na4 O12 2.616081 1_555
Na4 O7 2.714969 1_655
Na4 O5 2.808678 1_555
Na4 O33 2.854066 1_655
Na5 O44 2.387754 1_455
Na5 O65 2.431685 1_555
Na5 O63 2.478718 1_555
Na5 O43 2.503089 1_565
Na5 O29 2.590501 1_555
Na5 O8 2.665873 1_555
Na6 O42 2.370111 1_565
Na6 O64 2.395418 1_555
Na6 O63 2.468684 1_555
Na6 O27 2.577555 1_555
Na6 O44 2.600420 1_555
Na6 O6 2.729937 1_555
Na6 O13 2.894222 1_565
Na6 O23 2.925076 1_565
Na7 O45 2.369085 1_555
Na7 O62 2.390509 1_555
Na7 O60 2.445161 1_555
Na7 O24 2.526497 1_554
Na7 O46 2.597336 1_565
Na7 O9 2.655935 1_555
Na8 O46 2.384161 1_455
Na8 O61 2.424483 1_555
Na8 O60 2.494004 1_555
Na8 O47 2.497464 1_555
Na8 O25 2.528725 1_554
Na8 O10 2.647691 1_555
Na9 O38 2.417803 1_555
Na9 O37 2.502653 1_445
Na9 O36 2.514734 1_545
Na9 O43 2.531074 1_555
Na9 O42 2.584464 1_455
Na9 O44 2.644716 1_445
Na10 O40 2.486520 1_555
Na10 O47 2.527849 1_566
Na10 O45 2.561600 1_456
Na10 O41 2.571807 1_455
Na10 O39 2.573427 1_565
Na10 O46 2.636760 1_466
Na11 O56 2.475503 1_555
Na11 O49 2.555229 1_555
Na11 O48 2.572964 1_555
Na11 O54 2.575194 1_555
Na11 O55 2.600431 1_555
Na11 O50 2.655502 1_555
Na12 O57 2.475035 1_555
Na12 O58 2.480159 1_555
Na12 O59 2.491563 1_555
Na12 O53 2.702420 1_555
Na12 O52 2.702946 1_555
Na12 O51 2.708275 1_555
Na13 O66 2.541845 1_555
Na13 O62 2.552470 1_555
Na13 O61 2.577679 1_555
Na13 O67 2.620872 1_555
Na13 O68 2.627979 1_555
Na13 O60 2.682135 1_555
Na14 O64 2.556160 1_555
Na14 O65 2.578218 1_555
Na14 O63 2.598337 1_555
Na14 O69 2.658239 1_555
Na14 O70 2.686023 1_555
Na14 O71 2.695591 1_555
In0 O38 2.121576 1_665
In0 O36 2.130218 1_655
In0 O37 2.131613 1_555
In0 O1 2.133551 1_555
In0 O0 2.134310 1_665
In0 O2 2.140636 1_565
In1 O3 2.100989 1_555
In1 O5 2.108877 1_455
In1 O4 2.113388 1_445
In1 O40 2.127465 1_545
In1 O41 2.158396 1_445
In1 O39 2.161359 1_555
In2 O7 2.126829 1_555
In2 O8 2.180061 1_545
In2 O43 2.186122 1_555
In2 O42 2.209613 1_455
In2 O6 2.214207 1_445
In2 O44 2.262314 1_445
In3 O11 2.097147 1_555
In3 O9 2.157815 1_455
In3 O10 2.160003 1_565
In3 O47 2.192328 1_565
In3 O45 2.205565 1_455
In3 O46 2.254122 1_465
In4 O13 2.067906 1_555
In4 O14 2.114255 1_555
In4 O12 2.130700 1_555
In4 O49 2.167695 1_555
In4 O48 2.171782 1_555
In4 O50 2.234648 1_555
In5 O16 2.093605 1_555
In5 O17 2.094808 1_555
In5 O15 2.101678 1_555
In5 O53 2.173162 1_555
In5 O52 2.191936 1_555
In5 O51 2.195133 1_555
In6 O26 2.042910 1_554
In6 O25 2.099478 1_554
In6 O24 2.099842 1_554
In6 O62 2.178724 1_555
In6 O61 2.182864 1_555
In6 O60 2.219472 1_555
In7 O28 2.038138 1_555
In7 O29 2.103127 1_555
In7 O27 2.105766 1_555
In7 O64 2.182335 1_555
In7 O65 2.185214 1_555
In7 O63 2.209786 1_555
In8 O31 2.117967 1_555
In8 O32 2.118103 1_555
In8 O30 2.120877 1_555
In8 O66 2.235605 1_555
In8 O68 2.253921 1_555
In8 O67 2.259089 1_555
O0 P0 1.522439 1_545
O1 P1 1.524124 1_555
O2 P2 1.523035 1_655
O3 P3 1.513124 1_555
O4 P4 1.523878 1_655
O5 P5 1.526702 1_545
O6 P5 1.561919 1_555
O7 P3 1.549887 1_555
O8 P4 1.548484 1_555
O9 P1 1.557636 1_555
O10 P2 1.557761 1_555
O11 P0 1.545407 1_555
O12 P6 1.550432 1_555
O13 P7 1.534115 1_555
O14 P8 1.542365 1_555
O15 P9 1.549574 1_555
O16 P10 1.542010 1_555
O17 P11 1.546789 1_555
O18 P11 1.551888 1_555
O18 Ti0 1.982684 1_554
O19 P9 1.560005 1_555
O19 Ti0 1.988453 1_554
O20 P10 1.554411 1_555
O20 Ti0 2.001913 1_554
O21 P7 1.545548 1_555
O21 Ti1 1.963248 1_555
O22 P8 1.547794 1_555
O22 Ti1 1.999978 1_555
O23 P6 1.551712 1_555
O23 Ti1 1.998083 1_555
O24 P12 1.533682 1_555
O25 P13 1.534941 1_555
O26 P14 1.516174 1_555
O27 P15 1.532204 1_555
O28 P16 1.516059 1_555
O29 P17 1.532789 1_555
O30 P17 1.561381 1_555
O31 P15 1.560178 1_555
O32 P16 1.561845 1_555
O33 P13 1.580737 1_555
O33 Ti2 1.982279 1_555
O34 P14 1.587888 1_555
O34 Ti2 1.894506 1_555
O35 P12 1.578832 1_555
O35 Ti2 1.984621 1_555
O36 P17 1.524720 1_555
O37 P15 1.525476 1_555
O38 P16 1.524981 1_555
O39 P13 1.518719 1_555
O40 P14 1.519221 1_555
O41 P12 1.521423 1_555
O42 P6 1.550796 1_555
O43 P7 1.546153 1_555
O44 P8 1.565796 1_555
O45 P9 1.547264 1_555
O46 P10 1.564298 1_555
O47 P11 1.543925 1_555
O48 P5 1.540264 1_545
O49 P3 1.545067 1_555
O50 P4 1.559384 1_655
O51 P1 1.556795 1_555
O52 P2 1.557017 1_655
O53 P0 1.557311 1_545
O54 P12 1.568873 1_555
O54 Ti0 2.002167 1_555
O55 P13 1.569707 1_655
O55 Ti0 2.001912 1_555
O56 P14 1.561868 1_545
O56 Ti0 2.005767 1_555
O57 P15 1.559708 1_545
O57 Ti1 1.964638 1_555
O58 P16 1.561681 1_555
O58 Ti1 1.944121 1_555
O59 P17 1.559162 1_655
O59 Ti1 1.963679 1_555
O60 P11 1.554456 1_555
O61 P9 1.537188 1_455
O62 P10 1.540111 1_565
O63 P7 1.556143 1_565
O64 P8 1.542763 1_555
O65 P6 1.540110 1_455
O66 P0 1.554687 1_555
O67 P1 1.553052 1_555
O68 P2 1.554388 1_555
O69 P3 1.582034 1_555
O69 Ti2 2.075666 1_555
O70 P4 1.569277 1_555
O70 Ti2 2.024480 1_555
O71 P5 1.567254 1_555
O71 Ti2 2.034906 1_555
