# generated using pymatgen
data_MgCu2(IrS2)4
_symmetry_space_group_name_H-M   'P 1'
_cell_length_a   7.34448600
_cell_length_b   7.34448600
_cell_length_c   7.34829769
_cell_angle_alpha   119.98284245
_cell_angle_beta   119.98284245
_cell_angle_gamma   90.00000000
_symmetry_Int_Tables_number   1
_chemical_formula_structural   MgCu2(IrS2)4
_chemical_formula_sum   'Mg1 Cu2 Ir4 S8'
_cell_volume   280.42689256
_cell_formula_units_Z   1
loop_
 _symmetry_equiv_pos_site_id
 _symmetry_equiv_pos_as_xyz
  1  'x, y, z'
loop_
 _atom_site_type_symbol
 _atom_site_label
 _atom_site_symmetry_multiplicity
 _atom_site_fract_x
 _atom_site_fract_y
 _atom_site_fract_z
 _atom_site_occupancy
  Mg  Mg0  1  0.50000000  0.50000000  0.00000000  1
  Cu  Cu0  1  0.75000000  0.25000000  0.50000000  1
  Cu  Cu1  1  0.00000000  0.00000000  0.00000000  1
  Ir  Ir0  1  0.90109800  0.63369300  0.26738700  1
  Ir  Ir1  1  0.36628800  0.63369300  0.26738700  1
  Ir  Ir2  1  0.36630700  0.63371200  0.73261300  1
  Ir  Ir3  1  0.36630700  0.09890200  0.73261300  1
  S  S0  1  0.14043600  0.85905900  0.71812000  1
  S  S1  1  0.57768400  0.85905900  0.71812000  1
  S  S2  1  0.12758500  0.37608900  0.75217700  1
  S  S3  1  0.62459200  0.37608900  0.75217700  1
  S  S4  1  0.14094100  0.42231600  0.28188000  1
  S  S5  1  0.14094100  0.85956400  0.28188000  1
  S  S6  1  0.62391100  0.37540800  0.24782300  1
  S  S7  1  0.62391100  0.87241500  0.24782300  1
loop_
_geom_bond_atom_site_label_1
_geom_bond_atom_site_label_2
_geom_bond_distance
_geom_bond_site_symmetry_2
Mg0 S7 2.234051 1_555
Mg0 S3 2.234051 1_554
Mg0 S2 2.234051 1_554
Mg0 S6 2.234051 1_555
Cu0 S6 2.265070 1_555
Cu0 S2 2.265070 1_655
Cu0 S3 2.265070 1_555
Cu0 S7 2.265070 1_545
Cu1 S4 2.533402 1_555
Cu1 S0 2.533402 1_544
Cu1 S5 2.533402 1_545
Cu1 S1 2.533402 1_444
Ir0 S0 2.345483 1_655
Ir0 S4 2.345671 1_655
Ir0 S5 2.345676 1_655
Ir0 Mg0 2.406116 1_555
Ir0 S3 2.682030 1_554
Ir0 S6 2.683010 1_555
Ir0 S7 2.683015 1_555
Ir1 S1 2.345482 1_555
Ir1 S4 2.345655 1_555
Ir1 S5 2.345660 1_555
Ir1 Mg0 2.406122 1_555
Ir1 S2 2.682030 1_554
Ir1 S6 2.683010 1_555
Ir1 S7 2.683015 1_555
Ir2 S4 2.345482 1_555
Ir2 S1 2.345655 1_555
Ir2 S0 2.345660 1_555
Ir2 Mg0 2.406122 1_556
Ir2 S7 2.682030 1_556
Ir2 S3 2.683010 1_555
Ir2 S2 2.683015 1_555
Ir3 S5 2.345483 1_545
Ir3 S1 2.345671 1_545
Ir3 S0 2.345676 1_545
Ir3 Mg0 2.406116 1_556
Ir3 S6 2.682030 1_556
Ir3 S3 2.683010 1_555
Ir3 S2 2.683015 1_555
