# generated using pymatgen
data_Lu3Ni2Ge3
_symmetry_space_group_name_H-M   'P 1'
_cell_length_a   5.41224210
_cell_length_b   5.41224210
_cell_length_c   13.74571509
_cell_angle_alpha   90.00000000
_cell_angle_beta   90.00000000
_cell_angle_gamma   135.30005060
_symmetry_Int_Tables_number   1
_chemical_formula_structural   Lu3Ni2Ge3
_chemical_formula_sum   'Lu6 Ni4 Ge6'
_cell_volume   283.21775353
_cell_formula_units_Z   2
loop_
 _symmetry_equiv_pos_site_id
 _symmetry_equiv_pos_as_xyz
  1  'x, y, z'
loop_
 _atom_site_type_symbol
 _atom_site_label
 _atom_site_symmetry_multiplicity
 _atom_site_fract_x
 _atom_site_fract_y
 _atom_site_fract_z
 _atom_site_occupancy
  Lu  Lu0  1  0.58815048  0.41184952  0.60861954  1
  Lu  Lu1  1  0.41184952  0.58815048  0.39138046  1
  Lu  Lu2  1  0.41184952  0.58815048  0.10861954  1
  Lu  Lu3  1  0.58815048  0.41184952  0.89138046  1
  Lu  Lu4  1  0.13571487  0.86428513  0.25000000  1
  Lu  Lu5  1  0.86428513  0.13571487  0.75000000  1
  Ni  Ni0  1  0.29929361  0.70070639  0.60089591  1
  Ni  Ni1  1  0.70070639  0.29929361  0.39910409  1
  Ni  Ni2  1  0.70070639  0.29929361  0.10089591  1
  Ni  Ni3  1  0.29929361  0.70070639  0.89910409  1
  Ge  Ge0  1  0.87812286  0.12187714  0.53836127  1
  Ge  Ge1  1  0.12187714  0.87812286  0.46163873  1
  Ge  Ge2  1  0.16096950  0.83903050  0.75000000  1
  Ge  Ge3  1  0.83903050  0.16096950  0.25000000  1
  Ge  Ge4  1  0.87812286  0.12187714  0.96163873  1
  Ge  Ge5  1  0.12187714  0.87812286  0.03836127  1
loop_
_geom_bond_atom_site_label_1
_geom_bond_atom_site_label_2
_geom_bond_distance
_geom_bond_site_symmetry_2
Lu0 Ni0 2.893790 1_555
Lu0 Ni0 2.952151 1_655
Lu0 Ni0 2.952151 1_545
Lu0 Ni1 3.092541 1_555
Lu1 Ni1 2.893790 1_555
Lu1 Ni1 2.952151 1_565
Lu1 Ni1 2.952151 1_455
Lu1 Ni0 3.092541 1_555
Lu2 Ni2 2.893790 1_555
Lu2 Ni2 2.952151 1_565
Lu2 Ni2 2.952151 1_455
Lu2 Ni3 3.092541 1_554
Lu3 Ni3 2.893790 1_555
Lu3 Ni3 2.952151 1_655
Lu3 Ni3 2.952151 1_545
Lu3 Ni2 3.092541 1_556
Lu4 Ni1 2.976516 1_565
Lu4 Ni2 2.976516 1_455
Lu4 Ni2 2.976516 1_565
Lu4 Ni1 2.976516 1_455
Lu5 Ni3 2.976516 1_655
Lu5 Ni0 2.976516 1_655
Lu5 Ni0 2.976516 1_545
Lu5 Ni3 2.976516 1_545
Ge0 Ni0 2.365877 1_655
Ge0 Ni0 2.365877 1_545
Ge0 Ni1 2.611306 1_555
Ge0 Ge1 2.658436 1_645
Ge0 Lu1 2.903708 1_655
Ge0 Lu1 2.903708 1_545
Ge0 Lu5 2.912422 1_555
Ge0 Lu0 3.059434 1_555
Ge0 Lu0 3.096694 1_655
Ge0 Lu0 3.096694 1_545
Ge1 Ni1 2.365877 1_565
Ge1 Ni1 2.365877 1_455
Ge1 Ni0 2.611306 1_555
Ge1 Lu0 2.903708 1_565
Ge1 Lu0 2.903708 1_455
Ge1 Lu4 2.912422 1_555
Ge1 Lu1 3.059434 1_555
Ge1 Lu1 3.096694 1_565
Ge1 Lu1 3.096694 1_455
Ge2 Ni3 2.473523 1_555
Ge2 Ni0 2.473523 1_555
Ge2 Lu5 2.894611 1_455
Ge2 Lu5 2.894611 1_565
Ge2 Lu3 2.922986 1_565
Ge2 Lu0 2.922986 1_565
Ge2 Lu0 2.922986 1_455
Ge2 Lu3 2.922986 1_455
Ge2 Lu5 2.970206 1_465
Ge3 Ni2 2.473523 1_555
Ge3 Ni1 2.473523 1_555
Ge3 Lu4 2.894611 1_545
Ge3 Lu4 2.894611 1_655
Ge3 Lu2 2.922986 1_545
Ge3 Lu2 2.922986 1_655
Ge3 Lu1 2.922986 1_545
Ge3 Lu1 2.922986 1_655
Ge3 Lu4 2.970206 1_645
Ge4 Ni3 2.365877 1_655
Ge4 Ni3 2.365877 1_545
Ge4 Ni2 2.611306 1_556
Ge4 Ge5 2.658436 1_646
Ge4 Lu2 2.903708 1_546
Ge4 Lu2 2.903708 1_656
Ge4 Lu5 2.912422 1_555
Ge4 Lu3 3.059434 1_555
Ge4 Lu3 3.096694 1_655
Ge4 Lu3 3.096694 1_545
Ge5 Ni2 2.365877 1_565
Ge5 Ni2 2.365877 1_455
Ge5 Ni3 2.611306 1_554
Ge5 Lu3 2.903708 1_564
Ge5 Lu3 2.903708 1_454
Ge5 Lu4 2.912422 1_555
Ge5 Lu2 3.059434 1_555
Ge5 Lu2 3.096694 1_565
Ge5 Lu2 3.096694 1_455
