# generated using pymatgen
data_Sr2MgCuTeO6
_symmetry_space_group_name_H-M   'P 1'
_cell_length_a   5.98696063
_cell_length_b   6.06979866
_cell_length_c   5.71662867
_cell_angle_alpha   106.53684620
_cell_angle_beta   119.49837437
_cell_angle_gamma   100.46455986
_symmetry_Int_Tables_number   1
_chemical_formula_structural   Sr2MgCuTeO6
_chemical_formula_sum   'Sr2 Mg1 Cu1 Te1 O6'
_cell_volume   159.92337893
_cell_formula_units_Z   1
loop_
 _symmetry_equiv_pos_site_id
 _symmetry_equiv_pos_as_xyz
  1  'x, y, z'
loop_
 _atom_site_type_symbol
 _atom_site_label
 _atom_site_symmetry_multiplicity
 _atom_site_fract_x
 _atom_site_fract_y
 _atom_site_fract_z
 _atom_site_occupancy
  Sr  Sr0  1  0.25403992  0.76980660  0.56480855  1
  Sr  Sr1  1  0.69968171  0.10478828  0.39013588  1
  Mg  Mg0  1  0.89335794  0.63474783  0.85000382  1
  Cu  Cu0  1  0.02107210  0.16590940  0.10244578  1
  Te  Te0  1  0.47706135  0.45966499  0.99186715  1
  O  O0  1  0.73527141  0.83332955  0.00842706  1
  O  O1  1  0.29077411  0.69297719  0.11876738  1
  O  O2  1  0.73112498  0.31266244  0.87495068  1
  O  O3  1  0.27686360  0.14368624  0.96688074  1
  O  O4  1  0.17813493  0.34036738  0.54268771  1
  O  O5  1  0.77595096  0.57777412  0.44319225  1
loop_
_geom_bond_atom_site_label_1
_geom_bond_atom_site_label_2
_geom_bond_distance
_geom_bond_site_symmetry_2
Mg0 O0 1.950887 1_556
Mg0 O5 1.966238 1_555
Mg0 O1 1.982924 1_656
Mg0 O2 2.095492 1_555
Cu0 O4 2.032234 1_555
Cu0 O3 2.036739 1_554
Cu0 O2 2.120388 1_454
Cu0 O0 2.124555 1_445
O0 Te0 2.450081 1_554
O0 Sr1 2.461806 1_565
O0 Sr0 2.593298 1_554
O1 Te0 2.135730 1_554
O1 Sr1 2.545100 1_565
O1 Sr0 2.584605 1_555
O2 Te0 2.170536 1_555
O2 Sr1 2.591897 1_555
O3 Te0 1.993950 1_555
O3 Sr1 2.613162 1_556
O3 Sr0 2.657162 1_545
O4 Te0 2.065417 1_555
O4 Sr0 2.518411 1_555
O4 Sr1 2.520436 1_455
O5 Te0 2.075363 1_554
O5 Sr0 2.530173 1_655
O5 Sr1 2.726618 1_555
