# generated using pymatgen
data_Na6Mg4Sc4SiS11O48
_symmetry_space_group_name_H-M   'P 1'
_cell_length_a   17.64869581
_cell_length_b   8.82632263
_cell_length_c   22.85837510
_cell_angle_alpha   89.93378157
_cell_angle_beta   89.95242395
_cell_angle_gamma   120.04100067
_symmetry_Int_Tables_number   1
_chemical_formula_structural   Na6Mg4Sc4SiS11O48
_chemical_formula_sum   'Na18 Mg12 Sc12 Si3 S33 O144'
_cell_volume   3082.39264953
_cell_formula_units_Z   3
loop_
 _symmetry_equiv_pos_site_id
 _symmetry_equiv_pos_as_xyz
  1  'x, y, z'
loop_
 _atom_site_type_symbol
 _atom_site_label
 _atom_site_symmetry_multiplicity
 _atom_site_fract_x
 _atom_site_fract_y
 _atom_site_fract_z
 _atom_site_occupancy
  Na  Na0  1  0.81873484  0.99737950  0.24852507  1
  Na  Na1  1  0.99729537  0.63662063  0.25242037  1
  Na  Na2  1  0.31739728  0.64549572  0.74954005  1
  Na  Na3  1  0.81741194  0.64334798  0.74746615  1
  Na  Na4  1  0.99514388  0.35747713  0.75011204  1
  Na  Na5  1  0.68814683  0.00191431  0.74880356  1
  Na  Na6  1  0.99895089  0.99910880  0.49891395  1
  Na  Na7  1  0.50224639  0.00174142  0.49618867  1
  Na  Na8  1  0.00173253  0.00170396  0.00090682  1
  Na  Na9  1  0.50032587  0.00003554  0.00079237  1
  Na  Na10  1  0.33422512  0.31641816  0.83623901  1
  Na  Na11  1  0.83383513  0.32535358  0.83628706  1
  Na  Na12  1  0.33420818  0.33489254  0.33086511  1
  Na  Na13  1  0.82862811  0.34355155  0.33551424  1
  Na  Na14  1  0.17370588  0.66899247  0.16782570  1
  Na  Na15  1  0.66482819  0.65667703  0.16833797  1
  Na  Na16  1  0.17102780  0.68348685  0.66473710  1
  Na  Na17  1  0.66886962  0.66989444  0.66323450  1
  Mg  Mg0  1  0.49867655  -0.00020155  0.35191448  1
  Mg  Mg1  1  0.83349697  0.32589122  0.67918885  1
  Mg  Mg2  1  0.33399725  0.33651827  0.18429161  1
  Mg  Mg3  1  0.82904285  0.33942694  0.18374874  1
  Mg  Mg4  1  0.33283836  0.33246179  0.98315295  1
  Mg  Mg5  1  0.83273599  0.33246009  0.98279214  1
  Mg  Mg6  1  0.83278428  0.33354257  0.48208797  1
  Mg  Mg7  1  0.16549147  0.66494842  0.51606558  1
  Mg  Mg8  1  0.66840326  0.66893117  0.51679469  1
  Mg  Mg9  1  0.17291325  0.67136405  0.31857059  1
  Mg  Mg10  1  0.17133130  0.68351565  0.81716481  1
  Mg  Mg11  1  0.66706323  0.66726319  0.81754711  1
  Sc  Sc0  1  0.99703585  0.98667322  0.35273557  1
  Sc  Sc1  1  0.99621059  0.00346840  0.85271056  1
  Sc  Sc2  1  0.49487843  0.00689281  0.85294269  1
  Sc  Sc3  1  0.99172538  0.99440945  0.64601904  1
  Sc  Sc4  1  0.49482941  0.99867782  0.64671014  1
  Sc  Sc5  1  0.99579902  0.99341751  0.14875911  1
  Sc  Sc6  1  0.49762132  0.99776832  0.14934711  1
  Sc  Sc7  1  0.33396601  0.31634033  0.68474080  1
  Sc  Sc8  1  0.33271087  0.33187174  0.47855563  1
  Sc  Sc9  1  0.16741923  0.66768866  0.01906846  1
  Sc  Sc10  1  0.66602442  0.66720559  0.01921022  1
  Sc  Sc11  1  0.66609950  0.65514202  0.31554486  1
  Si  Si0  1  0.85063025  0.69788787  0.24971925  1
  Si  Si1  1  0.34959809  0.99659727  0.75027775  1
  Si  Si2  1  0.84940560  0.00013168  0.75048207  1
  S  S0  1  0.14938631  0.00272195  0.25013223  1
  S  S1  1  0.64495870  0.00110044  0.25102378  1
  S  S2  1  0.35316725  0.70546934  0.25147745  1
  S  S3  1  0.00264300  0.29659314  0.24986521  1
  S  S4  1  0.49666515  0.28802092  0.25075223  1
  S  S5  1  0.14592207  0.29180597  0.75038326  1
  S  S6  1  0.64611455  0.29466594  0.74987121  1
  S  S7  1  0.00115557  0.70799986  0.74971652  1
  S  S8  1  0.50081590  0.70760134  0.75056112  1
  S  S9  1  0.48236369  0.33896665  0.58155885  1
  S  S10  1  0.98123911  0.33948312  0.58248331  1
  S  S11  1  0.18602223  0.03594807  0.58192230  1
  S  S12  1  0.68717847  0.03849396  0.58283273  1
  S  S13  1  0.33128845  0.62428929  0.58312578  1
  S  S14  1  0.83105226  0.62028826  0.58291920  1
  S  S15  1  0.47735546  0.62199558  0.08319282  1
  S  S16  1  0.97833501  0.62186930  0.08289841  1
  S  S17  1  0.33342802  0.04582263  0.08337344  1
  S  S18  1  0.83345079  0.04563633  0.08322546  1
  S  S19  1  0.18916636  0.33302676  0.08306922  1
  S  S20  1  0.68780667  0.33203601  0.08246074  1
  S  S21  1  0.31220353  0.66056850  0.91626383  1
  S  S22  1  0.81210109  0.66084029  0.91640998  1
  S  S23  1  0.02008875  0.37764604  0.91590766  1
  S  S24  1  0.52025679  0.37875742  0.91667272  1
  S  S25  1  0.16810404  0.96228442  0.91693715  1
  S  S26  1  0.66798560  0.96224618  0.91597459  1
  S  S27  1  0.31289442  0.95544759  0.41704144  1
  S  S28  1  0.81228481  0.96242217  0.41774585  1
  S  S29  1  0.16622271  0.37748098  0.41703359  1
  S  S30  1  0.66601198  0.37005130  0.41881035  1
  S  S31  1  0.02090652  0.66238708  0.41694004  1
  S  S32  1  0.52156904  0.67091263  0.41761607  1
  O  O0  1  0.10864428  0.03071929  0.30272760  1
  O  O1  1  0.60462414  0.02780120  0.30262091  1
  O  O2  1  0.40774962  0.78953282  0.30279936  1
  O  O3  1  0.91547427  0.79749598  0.30561896  1
  O  O4  1  0.48600018  0.18266758  0.30272538  1
  O  O5  1  0.98782130  0.18574419  0.30205363  1
  O  O6  1  0.10834117  0.18223198  0.80301248  1
  O  O7  1  0.60799051  0.17983372  0.80207015  1
  O  O8  1  0.48573404  0.78861245  0.80267779  1
  O  O9  1  0.98660359  0.78935182  0.80223238  1
  O  O10  1  0.41269024  0.02861861  0.80708058  1
  O  O11  1  0.91639581  0.03734810  0.80599827  1
  O  O12  1  0.39841003  0.96403133  0.69410781  1
  O  O13  1  0.89748594  0.96284028  0.69504211  1
  O  O14  1  0.09219392  0.20987859  0.69789793  1
  O  O15  1  0.59298474  0.21149633  0.69735664  1
  O  O16  1  0.01719274  0.81778288  0.69731265  1
  O  O17  1  0.51818745  0.81926736  0.69793066  1
  O  O18  1  0.39469589  0.81514068  0.19751964  1
  O  O19  1  0.89702089  0.83257774  0.19382839  1
  O  O20  1  0.01794756  0.21828462  0.19710837  1
  O  O21  1  0.51190343  0.20863448  0.19722802  1
  O  O22  1  0.09237136  0.97107397  0.19790545  1
  O  O23  1  0.59220359  0.97589581  0.19720077  1
  O  O24  1  0.44105331  0.36248876  0.63517597  1
  O  O25  1  0.94308375  0.36192881  0.63783842  1
  O  O26  1  0.23976570  0.11932099  0.63533581  1
  O  O27  1  0.73717587  0.11540363  0.63803855  1
  O  O28  1  0.32070825  0.52332964  0.63794678  1
  O  O29  1  0.82079280  0.52268315  0.63845407  1
  O  O30  1  0.43873892  0.51755632  0.13603951  1
  O  O31  1  0.94075548  0.52022769  0.13701431  1
  O  O32  1  0.32019971  0.12353878  0.13607497  1
  O  O33  1  0.82102121  0.12056747  0.13775144  1
  O  O34  1  0.24147412  0.36000523  0.13590963  1
  O  O35  1  0.73980846  0.35896433  0.13535254  1
  O  O36  1  0.22920015  0.30929499  0.03006086  1
  O  O37  1  0.72745160  0.30688933  0.02970466  1
  O  O38  1  0.42559090  0.54414810  0.03013630  1
  O  O39  1  0.92483132  0.53985285  0.03091916  1
  O  O40  1  0.34659598  0.14947028  0.03017319  1
  O  O41  1  0.84423844  0.15169203  0.03123672  1
  O  O42  1  0.22895978  0.14832734  0.53040780  1
  O  O43  1  0.72971092  0.14982911  0.53184859  1
  O  O44  1  0.34361203  0.53564387  0.53211294  1
  O  O45  1  0.84388220  0.53587798  0.53202861  1
  O  O46  1  0.42589088  0.31046645  0.53035555  1
  O  O47  1  0.92516560  0.31054822  0.53181227  1
  O  O48  1  0.26998356  0.68916182  0.96816209  1
  O  O49  1  0.76977522  0.68895631  0.96823023  1
  O  O50  1  0.07541142  0.46363873  0.96792610  1
  O  O51  1  0.57475296  0.46202936  0.96944345  1
  O  O52  1  0.15463921  0.85175528  0.96971970  1
  O  O53  1  0.65525870  0.85023260  0.96814141  1
  O  O54  1  0.27187964  0.85071877  0.46986228  1
  O  O55  1  0.77039476  0.85010154  0.46867494  1
  O  O56  1  0.15465094  0.45772781  0.46983558  1
  O  O57  1  0.65310404  0.45507018  0.47012402  1
  O  O58  1  0.07570023  0.68823780  0.46839968  1
  O  O59  1  0.57435375  0.69265938  0.46980517  1
  O  O60  1  0.06011885  0.64167021  0.36203462  1
  O  O61  1  0.56048827  0.64069378  0.36428919  1
  O  O62  1  0.25937399  0.87981150  0.36422480  1
  O  O63  1  0.76101266  0.88272776  0.36283863  1
  O  O64  1  0.18007451  0.48229343  0.36391426  1
  O  O65  1  0.67961271  0.47948484  0.36490567  1
  O  O66  1  0.06028782  0.47860875  0.86183187  1
  O  O67  1  0.56174757  0.48245172  0.86390471  1
  O  O68  1  0.17963133  0.88016812  0.86447870  1
  O  O69  1  0.67926255  0.88176123  0.86230951  1
  O  O70  1  0.26083933  0.63786733  0.86265392  1
  O  O71  1  0.76122307  0.63845585  0.86256170  1
  O  O72  1  0.01341424  0.82541864  0.41272584  1
  O  O73  1  0.51077687  0.82530823  0.41049688  1
  O  O74  1  0.40147202  0.97794122  0.41056892  1
  O  O75  1  0.90139184  0.98151439  0.41149971  1
  O  O76  1  0.08832204  0.19905295  0.41110051  1
  O  O77  1  0.58715490  0.19588708  0.41075491  1
  O  O78  1  0.01346840  0.20148167  0.91288239  1
  O  O79  1  0.51392095  0.20277465  0.91330181  1
  O  O80  1  0.08798966  0.97813508  0.91180374  1
  O  O81  1  0.58811770  0.97827682  0.91150847  1
  O  O82  1  0.40109708  0.82079332  0.91216958  1
  O  O83  1  0.90097034  0.82113128  0.91202825  1
  O  O84  1  0.49013562  0.17898761  0.58751784  1
  O  O85  1  0.99109508  0.17944658  0.58845524  1
  O  O86  1  0.09914037  0.02158594  0.58857239  1
  O  O87  1  0.59832469  0.02053360  0.58924933  1
  O  O88  1  0.41287783  0.79930081  0.58688751  1
  O  O89  1  0.91263183  0.79873956  0.58728409  1
  O  O90  1  0.48893380  0.80203304  0.08940529  1
  O  O91  1  0.99012869  0.80181475  0.08801393  1
  O  O92  1  0.41201766  0.02270048  0.08934941  1
  O  O93  1  0.91310358  0.02689286  0.08718727  1
  O  O94  1  0.09954801  0.17695515  0.08883470  1
  O  O95  1  0.59816297  0.17485877  0.08900393  1
  O  O96  1  0.34261820  0.17423604  0.74452381  1
  O  O97  1  0.84226501  0.17716542  0.74446662  1
  O  O98  1  0.23683423  0.32388542  0.74340745  1
  O  O99  1  0.73564691  0.31768799  0.74313977  1
  O  O100  1  0.41876764  0.53628236  0.74301550  1
  O  O101  1  0.91923781  0.53441892  0.74303366  1
  O  O102  1  0.34436274  0.53057836  0.24333924  1
  O  O103  1  0.84762241  0.51315966  0.24408247  1
  O  O104  1  0.41888599  0.30754943  0.24291908  1
  O  O105  1  0.92116169  0.30700034  0.24257476  1
  O  O106  1  0.23665932  0.15721052  0.24238522  1
  O  O107  1  0.73543988  0.15188627  0.24323844  1
  O  O108  1  0.32171533  0.50497108  0.92365996  1
  O  O109  1  0.82168186  0.50515699  0.92373250  1
  O  O110  1  0.43211012  0.35690167  0.92339374  1
  O  O111  1  0.93204219  0.35648217  0.92296596  1
  O  O112  1  0.24664124  0.13717498  0.92390650  1
  O  O113  1  0.74676858  0.13669574  0.92315695  1
  O  O114  1  0.32235059  0.13527650  0.42352626  1
  O  O115  1  0.82162351  0.13753036  0.42335670  1
  O  O116  1  0.24593075  0.35720939  0.42306048  1
  O  O117  1  0.74574256  0.35498180  0.42385397  1
  O  O118  1  0.43222495  0.50980780  0.42351382  1
  O  O119  1  0.93211388  0.50781685  0.42309083  1
  O  O120  1  0.17869329  0.49217477  0.07658239  1
  O  O121  1  0.67726465  0.49047968  0.07617402  1
  O  O122  1  0.06791651  0.64284135  0.07650486  1
  O  O123  1  0.56759943  0.64476535  0.07673578  1
  O  O124  1  0.25469617  0.86528461  0.07700929  1
  O  O125  1  0.75467154  0.86566761  0.07699105  1
  O  O126  1  0.17818889  0.86274040  0.57602602  1
  O  O127  1  0.67744386  0.86201617  0.57690487  1
  O  O128  1  0.25372961  0.64420913  0.57665173  1
  O  O129  1  0.75371479  0.64319979  0.57739111  1
  O  O130  1  0.06955419  0.49530201  0.57649819  1
  O  O131  1  0.56926405  0.49508301  0.57576572  1
  O  O132  1  0.15364053  0.83855244  0.25675704  1
  O  O133  1  0.65408923  0.84142344  0.25616872  1
  O  O134  1  0.26523097  0.68929135  0.25621120  1
  O  O135  1  0.75673501  0.69387309  0.25623655  1
  O  O136  1  0.07824935  0.47648833  0.25681590  1
  O  O137  1  0.57643130  0.46587203  0.25542998  1
  O  O138  1  0.15136961  0.46457718  0.75751575  1
  O  O139  1  0.65481923  0.46870184  0.75773567  1
  O  O140  1  0.07555744  0.67703564  0.75735928  1
  O  O141  1  0.57768582  0.68579829  0.75798682  1
  O  O142  1  0.25628330  0.81737111  0.75507322  1
  O  O143  1  0.75368957  0.82355406  0.75642136  1
loop_
_geom_bond_atom_site_label_1
_geom_bond_atom_site_label_2
_geom_bond_distance
_geom_bond_site_symmetry_2
Na0 O135 2.338443 1_555
Na0 O105 2.409783 1_565
Na0 O107 2.458157 1_565
Na0 O133 2.522434 1_555
Na0 O33 2.746805 1_565
Na0 O19 2.757090 1_555
Na0 O63 2.801253 1_555
Na0 O5 2.865259 1_565
Na1 O103 2.306671 1_555
Na1 O132 2.424251 1_655
Na1 O136 2.463892 1_655
Na1 O105 2.531465 1_555
Na1 O60 2.732172 1_655
Na1 O3 2.763016 1_555
Na1 O31 2.827432 1_555
Na1 O22 2.848016 1_655
Na2 O142 2.262563 1_555
Na2 O100 2.424614 1_555
Na2 O98 2.461564 1_555
Na2 O138 2.546109 1_555
Na2 O12 2.741945 1_555
Na2 O70 2.759389 1_555
Na2 O28 2.782460 1_555
Na2 O8 2.854723 1_555
Na3 O143 2.372318 1_555
Na3 O101 2.427767 1_555
Na3 O99 2.490404 1_555
Na3 O139 2.496956 1_555
Na3 O13 2.717443 1_555
Na3 O29 2.723347 1_555
Na3 O71 2.803463 1_555
Na3 O9 2.881196 1_555
Na4 O97 2.351811 1_555
Na4 O138 2.432248 1_655
Na4 O140 2.447562 1_655
Na4 O101 2.520798 1_555
Na4 O25 2.733482 1_555
Na4 O11 2.757562 1_555
Na4 O66 2.786918 1_655
Na4 O14 2.879186 1_655
Na5 O97 2.363780 1_555
Na5 O143 2.381106 1_545
Na5 O99 2.479351 1_555
Na5 O141 2.486231 1_545
Na5 O27 2.699139 1_555
Na5 O69 2.776237 1_545
Na5 O17 2.849043 1_545
Na5 O7 2.859317 1_555
Na6 O72 2.587415 1_655
Na6 O75 2.592294 1_555
Na6 O89 2.611123 1_555
Na6 O76 2.613608 1_665
Na6 O85 2.640089 1_565
Na6 O86 2.649886 1_665
Na7 O77 2.532206 1_555
Na7 O73 2.554567 1_545
Na7 O74 2.582697 1_545
Na7 O88 2.672626 1_545
Na7 O87 2.674512 1_555
Na7 O84 2.681970 1_555
Na8 O93 2.594201 1_455
Na8 O91 2.597821 1_445
Na8 O94 2.598425 1_555
Na8 O80 2.611899 1_544
Na8 O78 2.612680 1_554
Na8 O83 2.646843 1_444
Na9 O95 2.602601 1_555
Na9 O79 2.611567 1_554
Na9 O90 2.614732 1_545
Na9 O92 2.621936 1_555
Na9 O81 2.626091 1_544
Na9 O82 2.629227 1_544
Na10 O96 2.486697 1_555
Na10 O112 2.539100 1_555
Na10 O110 2.543681 1_555
Na10 O108 2.680755 1_555
Na10 O98 2.753297 1_555
Na10 O100 2.760278 1_555
Na11 O97 2.517694 1_555
Na11 O113 2.549973 1_555
Na11 O111 2.556449 1_555
Na11 O109 2.628206 1_555
Na11 O101 2.724241 1_555
Na11 O99 2.725811 1_555
Na12 O104 2.586543 1_555
Na12 O102 2.588355 1_555
Na12 O106 2.612236 1_555
Na12 O118 2.683408 1_555
Na12 O116 2.685175 1_555
Na12 O114 2.693650 1_555
Na13 O103 2.492108 1_555
Na13 O117 2.524072 1_555
Na13 O119 2.608969 1_555
Na13 O115 2.668291 1_555
Na13 O107 2.691481 1_555
Na13 O105 2.794224 1_555
Na14 O134 2.537635 1_555
Na14 O124 2.619440 1_555
Na14 O120 2.634041 1_555
Na14 O136 2.642591 1_555
Na14 O132 2.652178 1_555
Na14 O122 2.733618 1_555
Na15 O135 2.499900 1_555
Na15 O137 2.567058 1_555
Na15 O121 2.639509 1_555
Na15 O133 2.653673 1_555
Na15 O123 2.676890 1_555
Na15 O125 2.708105 1_555
Na16 O142 2.480908 1_555
Na16 O126 2.534376 1_555
Na16 O128 2.609225 1_555
Na16 O130 2.658914 1_555
Na16 O140 2.687464 1_555
Na16 O138 2.769373 1_555
Na17 O129 2.549033 1_555
Na17 O127 2.554872 1_555
Na17 O143 2.568431 1_555
Na17 O131 2.601105 1_555
Na17 O139 2.725893 1_555
Na17 O141 2.742557 1_555
Mg0 O4 2.068152 1_555
Mg0 O2 2.075046 1_545
Mg0 O1 2.088091 1_555
Mg0 O74 2.107625 1_545
Mg0 O73 2.129726 1_545
Mg0 O77 2.132081 1_555
Mg1 O27 2.017597 1_555
Mg1 O25 2.028671 1_555
Mg1 O97 2.042759 1_555
Mg1 O29 2.078654 1_555
Mg1 O99 2.234902 1_555
Mg1 O101 2.242431 1_555
Mg2 O30 2.054761 1_555
Mg2 O34 2.067333 1_555
Mg2 O32 2.086791 1_555
Mg2 O102 2.116856 1_555
Mg2 O106 2.118595 1_555
Mg2 O104 2.119418 1_555
Mg3 O103 1.965478 1_555
Mg3 O35 2.002031 1_555
Mg3 O31 2.101747 1_555
Mg3 O107 2.138070 1_555
Mg3 O33 2.142013 1_555
Mg3 O105 2.236476 1_555
Mg4 O36 2.039315 1_556
Mg4 O40 2.052295 1_556
Mg4 O38 2.066217 1_556
Mg4 O108 2.121605 1_555
Mg4 O112 2.121969 1_555
Mg4 O110 2.144525 1_555
Mg5 O41 2.033157 1_556
Mg5 O37 2.056637 1_556
Mg5 O39 2.057063 1_556
Mg5 O109 2.115993 1_555
Mg5 O113 2.128329 1_555
Mg5 O111 2.147108 1_555
Mg6 O45 2.045910 1_555
Mg6 O43 2.066685 1_555
Mg6 O47 2.079707 1_555
Mg6 O117 2.112207 1_555
Mg6 O115 2.121049 1_555
Mg6 O119 2.132905 1_555
Mg7 O58 2.017221 1_555
Mg7 O56 2.037886 1_555
Mg7 O54 2.059025 1_555
Mg7 O130 2.114249 1_555
Mg7 O126 2.142622 1_555
Mg7 O128 2.159865 1_555
Mg8 O55 2.029206 1_555
Mg8 O57 2.066128 1_555
Mg8 O59 2.074408 1_555
Mg8 O131 2.129820 1_555
Mg8 O127 2.133381 1_555
Mg8 O129 2.140616 1_555
Mg9 O62 1.999656 1_555
Mg9 O64 2.020533 1_555
Mg9 O134 2.109259 1_555
Mg9 O60 2.119501 1_555
Mg9 O132 2.188205 1_555
Mg9 O136 2.207873 1_555
Mg10 O142 1.969063 1_555
Mg10 O68 1.988439 1_555
Mg10 O70 2.092368 1_555
Mg10 O66 2.144236 1_555
Mg10 O140 2.153230 1_555
Mg10 O138 2.245596 1_555
Mg11 O143 2.018157 1_555
Mg11 O67 2.048291 1_555
Mg11 O69 2.067443 1_555
Mg11 O71 2.076120 1_555
Mg11 O139 2.148080 1_555
Mg11 O141 2.151724 1_555
O0 S0 1.483455 1_555
O0 Sc0 2.136872 1_445
O1 S1 1.456207 1_555
O2 S2 1.463894 1_555
O3 Si0 1.647113 1_555
O3 Sc0 1.902695 1_555
O4 S4 1.460595 1_555
O5 S3 1.479635 1_655
O5 Sc0 2.176595 1_545
O6 S5 1.475210 1_555
O6 Sc1 2.135918 1_455
O7 S6 1.488874 1_555
O7 Sc2 2.146733 1_555
O8 S8 1.480986 1_555
O8 Sc2 2.179939 1_565
O9 S7 1.486163 1_655
O9 Sc1 2.148542 1_565
O10 Si1 1.641279 1_545
O10 Sc2 1.876252 1_555
O11 Si2 1.652485 1_555
O11 Sc1 1.907167 1_555
O12 Si1 1.649310 1_555
O12 Sc4 1.907406 1_555
O13 Si2 1.647171 1_565
O13 Sc3 1.905722 1_555
O14 S5 1.476061 1_555
O14 Sc3 2.190780 1_445
O15 S6 1.474376 1_555
O15 Sc4 2.149399 1_545
O16 S7 1.475153 1_555
O16 Sc3 2.169178 1_455
O17 S8 1.485539 1_555
O17 Sc4 2.167592 1_555
O18 S2 1.510242 1_555
O18 Sc6 2.042398 1_555
O19 Si0 1.654094 1_555
O19 Sc5 1.905652 1_555
O20 S3 1.480969 1_555
O20 Sc5 2.131306 1_445
O21 S4 1.500099 1_555
O21 Sc6 2.064181 1_545
O22 S0 1.495690 1_565
O22 Sc5 2.131909 1_455
O23 S1 1.491699 1_565
O23 Sc6 2.084562 1_555
O24 S9 1.492450 1_555
O24 Sc7 2.060596 1_555
O25 S10 1.492145 1_555
O26 S11 1.495672 1_555
O26 Sc7 2.043603 1_555
O27 S12 1.495308 1_555
O28 S13 1.493208 1_555
O28 Sc7 2.227225 1_555
O29 S14 1.492427 1_555
O30 S15 1.463045 1_555
O31 S16 1.474860 1_555
O32 S17 1.462206 1_555
O33 S18 1.478408 1_555
O34 S19 1.466371 1_555
O35 S20 1.464451 1_555
O36 S19 1.469219 1_555
O37 S20 1.465524 1_555
O38 S15 1.467260 1_555
O39 S16 1.465215 1_555
O40 S17 1.467597 1_555
O41 S18 1.464019 1_555
O42 S11 1.479168 1_555
O42 Sc8 2.098579 1_555
O43 S12 1.464466 1_555
O44 S13 1.480292 1_555
O44 Sc8 2.104661 1_555
O45 S14 1.459462 1_555
O46 S9 1.475845 1_555
O46 Sc8 2.110899 1_555
O47 S10 1.461395 1_555
O48 S21 1.487866 1_555
O48 Sc9 2.078227 1_556
O49 S22 1.485768 1_555
O49 Sc10 2.095616 1_556
O50 S23 1.485015 1_555
O50 Sc9 2.080130 1_556
O51 S24 1.488786 1_555
O51 Sc10 2.062879 1_556
O52 S25 1.492844 1_555
O52 Sc9 2.079864 1_556
O53 S26 1.491421 1_555
O53 Sc10 2.076495 1_556
O54 S27 1.470465 1_555
O55 S28 1.465171 1_555
O56 S29 1.465108 1_555
O57 S30 1.470904 1_555
O58 S31 1.467125 1_555
O59 S32 1.466689 1_555
O60 S31 1.487716 1_555
O61 S32 1.487147 1_555
O61 Sc11 2.118986 1_555
O62 S27 1.472363 1_555
O63 S28 1.501828 1_555
O63 Sc11 2.156085 1_555
O64 S29 1.469829 1_555
O65 S30 1.507795 1_555
O65 Sc11 2.024929 1_555
O66 S23 1.479305 1_555
O67 S24 1.467556 1_555
O68 S25 1.467589 1_555
O69 S26 1.480612 1_555
O70 S21 1.477888 1_555
O71 S22 1.478229 1_555
O72 S31 1.512483 1_555
O72 Sc0 2.097086 1_455
O73 S32 1.476230 1_555
O74 S27 1.481197 1_555
O75 S28 1.502052 1_555
O75 Sc0 2.138891 1_555
O76 S29 1.490541 1_555
O76 Sc0 2.207926 1_445
O77 S30 1.480846 1_555
O78 S23 1.501486 1_555
O78 Sc1 2.124242 1_455
O79 S24 1.502501 1_555
O79 Sc2 2.104809 1_555
O80 S25 1.493583 1_555
O80 Sc1 2.205413 1_465
O81 S26 1.489029 1_555
O81 Sc2 2.232222 1_565
O82 S21 1.499349 1_555
O82 Sc2 2.130596 1_565
O83 S22 1.499760 1_555
O83 Sc1 2.129916 1_565
O84 S9 1.491541 1_555
O84 Sc4 2.120748 1_545
O85 S10 1.513191 1_555
O85 Sc3 2.100494 1_545
O86 S11 1.481653 1_555
O86 Sc3 2.217098 1_445
O87 S12 1.502137 1_555
O87 Sc4 2.177462 1_545
O88 S13 1.496804 1_555
O88 Sc4 2.125808 1_555
O89 S14 1.514527 1_555
O89 Sc3 2.080495 1_555
O90 S15 1.504166 1_555
O90 Sc6 2.150853 1_555
O91 S16 1.499677 1_555
O91 Sc5 2.152728 1_555
O92 S17 1.505908 1_555
O92 Sc6 2.132467 1_545
O93 S18 1.498260 1_555
O93 Sc5 2.152304 1_545
O94 S19 1.494772 1_555
O94 Sc5 2.207730 1_445
O95 S20 1.500519 1_555
O95 Sc6 2.169868 1_545
O96 Si1 1.638203 1_545
O96 Sc7 1.911038 1_555
O97 Si2 1.634951 1_555
O98 S5 1.491498 1_555
O98 Sc7 2.202753 1_555
O99 S6 1.496602 1_555
O100 S8 1.490561 1_555
O100 Sc7 2.209793 1_555
O101 S7 1.497981 1_655
O102 S2 1.483961 1_555
O103 Si0 1.609873 1_555
O104 S4 1.477604 1_555
O105 S3 1.495589 1_655
O106 S0 1.469423 1_555
O107 S1 1.491316 1_555
O108 S21 1.474179 1_555
O109 S22 1.475445 1_555
O110 S24 1.476482 1_555
O111 S23 1.477984 1_655
O112 S25 1.479222 1_545
O113 S26 1.479343 1_545
O114 S27 1.518052 1_545
O114 Sc8 2.077119 1_555
O115 S28 1.475743 1_545
O116 S29 1.510693 1_555
O116 Sc8 2.085750 1_555
O117 S30 1.482786 1_555
O118 S32 1.510211 1_555
O118 Sc8 2.089051 1_555
O119 S31 1.481678 1_655
O120 S19 1.512889 1_555
O120 Sc9 2.114745 1_555
O121 S20 1.507014 1_555
O121 Sc10 2.115058 1_555
O122 S16 1.503899 1_455
O122 Sc9 2.113190 1_555
O123 S15 1.509267 1_555
O123 Sc10 2.106382 1_555
O124 S17 1.508333 1_565
O124 Sc9 2.118353 1_555
O125 S18 1.505388 1_565
O125 Sc10 2.127299 1_555
O126 S11 1.470837 1_565
O127 S12 1.485509 1_565
O128 S13 1.472310 1_555
O129 S14 1.482031 1_555
O130 S10 1.480710 1_455
O131 S9 1.466874 1_555
O132 S0 1.495543 1_565
O133 S1 1.501044 1_565
O133 Sc11 2.221401 1_555
O134 S2 1.489457 1_555
O135 Si0 1.646301 1_555
O135 Sc11 1.990302 1_555
O136 S3 1.485429 1_555
O137 S4 1.498483 1_555
O137 Sc11 2.131976 1_555
O138 S5 1.488307 1_555
O139 S6 1.476455 1_555
O140 S7 1.479533 1_555
O141 S8 1.472434 1_555
O142 Si1 1.617878 1_555
O143 Si2 1.632225 1_565
