# generated using pymatgen
data_Na12Mg2Ta4(SiO4)9
_symmetry_space_group_name_H-M   'P 1'
_cell_length_a   9.13401257
_cell_length_b   9.13401226
_cell_length_c   22.32974576
_cell_angle_alpha   90.00000000
_cell_angle_beta   90.00000000
_cell_angle_gamma   120.00000117
_symmetry_Int_Tables_number   1
_chemical_formula_structural   Na12Mg2Ta4(SiO4)9
_chemical_formula_sum   'Na24 Mg4 Ta8 Si18 O72'
_cell_volume   1613.38345842
_cell_formula_units_Z   2
loop_
 _symmetry_equiv_pos_site_id
 _symmetry_equiv_pos_as_xyz
  1  'x, y, z'
loop_
 _atom_site_type_symbol
 _atom_site_label
 _atom_site_symmetry_multiplicity
 _atom_site_fract_x
 _atom_site_fract_y
 _atom_site_fract_z
 _atom_site_occupancy
  Na  Na0  1  0.64177340  0.02163135  0.24599665  1
  Na  Na1  1  0.37985794  0.35822660  0.24599665  1
  Na  Na2  1  0.97836865  0.62014206  0.24599665  1
  Na  Na3  1  0.64177340  0.62014206  0.74599665  1
  Na  Na4  1  0.97836865  0.35822660  0.74599665  1
  Na  Na5  1  0.37985794  0.02163135  0.74599665  1
  Na  Na6  1  0.31080006  0.33459710  0.58800532  1
  Na  Na7  1  0.02379803  0.68919994  0.58800532  1
  Na  Na8  1  0.66540290  0.97620197  0.58800532  1
  Na  Na9  1  0.31080006  0.97620197  0.08800532  1
  Na  Na10  1  0.66540290  0.68919994  0.08800532  1
  Na  Na11  1  0.02379803  0.33459710  0.08800532  1
  Na  Na12  1  0.96484046  0.68427326  0.90744623  1
  Na  Na13  1  0.71943180  0.03515954  0.90744623  1
  Na  Na14  1  0.31572674  0.28056820  0.90744623  1
  Na  Na15  1  0.96484046  0.28056820  0.40744623  1
  Na  Na16  1  0.31572674  0.03515954  0.40744623  1
  Na  Na17  1  0.71943180  0.68427326  0.40744623  1
  Na  Na18  1  0.00000000  0.00000000  0.49326826  1
  Na  Na19  1  0.00000000  0.00000000  0.99326826  1
  Na  Na20  1  0.66666700  0.33333300  0.82218738  1
  Na  Na21  1  0.66666700  0.33333300  0.32218738  1
  Na  Na22  1  0.33333300  0.66666700  0.16797165  1
  Na  Na23  1  0.33333300  0.66666700  0.66797165  1
  Mg  Mg0  1  0.00000000  -0.00000000  0.35216085  1
  Mg  Mg1  1  0.00000000  -0.00000000  0.85216085  1
  Mg  Mg2  1  0.66666700  0.33333300  0.68526379  1
  Mg  Mg3  1  0.66666700  0.33333300  0.18526379  1
  Ta  Ta0  1  0.00000000  0.00000000  0.64933357  1
  Ta  Ta1  1  0.00000000  0.00000000  0.14933357  1
  Ta  Ta2  1  0.66666700  0.33333300  0.97983029  1
  Ta  Ta3  1  0.66666700  0.33333300  0.47983029  1
  Ta  Ta4  1  0.33333300  0.66666700  0.01939692  1
  Ta  Ta5  1  0.33333300  0.66666700  0.51939692  1
  Ta  Ta6  1  0.33333300  0.66666700  0.31069057  1
  Ta  Ta7  1  0.33333300  0.66666700  0.81069057  1
  Si  Si0  1  0.29262809  0.00164732  0.25397567  1
  Si  Si1  1  0.70901923  0.70737191  0.25397567  1
  Si  Si2  1  0.99835268  0.29098077  0.25397567  1
  Si  Si3  1  0.29262809  0.29098077  0.75397567  1
  Si  Si4  1  0.99835268  0.70737191  0.75397567  1
  Si  Si5  1  0.70901923  0.00164732  0.75397567  1
  Si  Si6  1  0.95846805  0.33287278  0.58533106  1
  Si  Si7  1  0.37440573  0.04153195  0.58533106  1
  Si  Si8  1  0.66712722  0.62559427  0.58533106  1
  Si  Si9  1  0.95846805  0.62559427  0.08533106  1
  Si  Si10  1  0.66712722  0.04153195  0.08533106  1
  Si  Si11  1  0.37440573  0.33287278  0.08533106  1
  Si  Si12  1  0.62397028  0.66440227  0.91648196  1
  Si  Si13  1  0.04043099  0.37602972  0.91648196  1
  Si  Si14  1  0.33559773  0.95956901  0.91648196  1
  Si  Si15  1  0.62397028  0.95956901  0.41648196  1
  Si  Si16  1  0.33559773  0.37602972  0.41648196  1
  Si  Si17  1  0.04043099  0.66440227  0.41648196  1
  O  O0  1  0.20720109  0.02743682  0.31214628  1
  O  O1  1  0.82023572  0.79279891  0.31214628  1
  O  O2  1  0.97256318  0.17976428  0.31214628  1
  O  O3  1  0.20720109  0.17976428  0.81214628  1
  O  O4  1  0.97256318  0.79279891  0.81214628  1
  O  O5  1  0.82023572  0.02743682  0.81214628  1
  O  O6  1  0.80311250  0.96962928  0.69296866  1
  O  O7  1  0.16651678  0.19688750  0.69296866  1
  O  O8  1  0.03037072  0.83348322  0.69296866  1
  O  O9  1  0.80311250  0.83348322  0.19296866  1
  O  O10  1  0.03037072  0.19688750  0.19296866  1
  O  O11  1  0.16651678  0.96962928  0.19296866  1
  O  O12  1  0.88525961  0.37753848  0.64255862  1
  O  O13  1  0.49227988  0.11474039  0.64255862  1
  O  O14  1  0.62246152  0.50772012  0.64255862  1
  O  O15  1  0.88525961  0.50772012  0.14255862  1
  O  O16  1  0.62246152  0.11474039  0.14255862  1
  O  O17  1  0.49227988  0.37753848  0.14255862  1
  O  O18  1  0.46902009  0.30333686  0.02563348  1
  O  O19  1  0.83431777  0.53097991  0.02563348  1
  O  O20  1  0.69666314  0.16568223  0.02563348  1
  O  O21  1  0.46902009  0.16568223  0.52563348  1
  O  O22  1  0.69666314  0.53097991  0.52563348  1
  O  O23  1  0.83431777  0.30333686  0.52563348  1
  O  O24  1  0.52021440  0.67872620  0.97466411  1
  O  O25  1  0.15851080  0.47978560  0.97466411  1
  O  O26  1  0.32127380  0.84148920  0.97466411  1
  O  O27  1  0.52021440  0.84148920  0.47466411  1
  O  O28  1  0.32127380  0.47978560  0.47466411  1
  O  O29  1  0.15851080  0.67872620  0.47466411  1
  O  O30  1  0.13546921  0.63233639  0.35873370  1
  O  O31  1  0.49686617  0.86453079  0.35873370  1
  O  O32  1  0.36766361  0.50313383  0.35873370  1
  O  O33  1  0.13546921  0.50313383  0.85873370  1
  O  O34  1  0.36766361  0.86453079  0.85873370  1
  O  O35  1  0.49686617  0.63233639  0.85873370  1
  O  O36  1  0.02215750  0.82904992  0.41672569  1
  O  O37  1  0.80689242  0.97784250  0.41672569  1
  O  O38  1  0.17095008  0.19310758  0.41672569  1
  O  O39  1  0.02215750  0.19310758  0.91672569  1
  O  O40  1  0.17095008  0.97784250  0.91672569  1
  O  O41  1  0.80689242  0.82904992  0.91672569  1
  O  O42  1  0.97576995  0.16083005  0.58835536  1
  O  O43  1  0.18506011  0.02423005  0.58835536  1
  O  O44  1  0.83916995  0.81493989  0.58835536  1
  O  O45  1  0.97576995  0.81493989  0.08835536  1
  O  O46  1  0.83916995  0.02423005  0.08835536  1
  O  O47  1  0.18506011  0.16083005  0.08835536  1
  O  O48  1  0.67962112  0.15983077  0.74493164  1
  O  O49  1  0.48021065  0.32037888  0.74493164  1
  O  O50  1  0.84016923  0.51978935  0.74493164  1
  O  O51  1  0.67962112  0.51978935  0.24493164  1
  O  O52  1  0.84016923  0.32037888  0.24493164  1
  O  O53  1  0.48021065  0.15983077  0.24493164  1
  O  O54  1  0.63155707  0.48720250  0.92274686  1
  O  O55  1  0.85564643  0.36844293  0.92274686  1
  O  O56  1  0.51279750  0.14435357  0.92274686  1
  O  O57  1  0.63155707  0.14435357  0.42274686  1
  O  O58  1  0.51279750  0.36844293  0.42274686  1
  O  O59  1  0.85564643  0.48720250  0.42274686  1
  O  O60  1  0.34317773  0.49568189  0.07494852  1
  O  O61  1  0.15250316  0.65682227  0.07494852  1
  O  O62  1  0.50431811  0.84749684  0.07494852  1
  O  O63  1  0.34317773  0.84749684  0.57494852  1
  O  O64  1  0.50431811  0.65682227  0.57494852  1
  O  O65  1  0.15250316  0.49568189  0.57494852  1
  O  O66  1  0.29803530  0.81991538  0.25498241  1
  O  O67  1  0.52187908  0.70196470  0.25498241  1
  O  O68  1  0.18008462  0.47812092  0.25498241  1
  O  O69  1  0.29803530  0.47812092  0.75498241  1
  O  O70  1  0.18008462  0.70196470  0.75498241  1
  O  O71  1  0.52187908  0.81991538  0.75498241  1
loop_
_geom_bond_atom_site_label_1
_geom_bond_atom_site_label_2
_geom_bond_distance
_geom_bond_site_symmetry_2
Na0 O53 2.373723 1_555
Na0 O52 2.405343 1_555
Na0 O16 2.497866 1_555
Na0 O67 2.562701 1_545
Na0 O66 2.740056 1_545
Na0 O31 2.872097 1_545
Na1 O51 2.373731 1_555
Na1 O53 2.405350 1_555
Na1 O17 2.497869 1_555
Na1 O68 2.562710 1_555
Na1 O67 2.740057 1_555
Na1 O32 2.872100 1_555
Na2 O52 2.373731 1_555
Na2 O51 2.405341 1_555
Na2 O15 2.497868 1_555
Na2 O66 2.562702 1_655
Na2 O68 2.740049 1_655
Na2 O30 2.872096 1_655
Na3 O49 2.373731 1_555
Na3 O50 2.405350 1_555
Na3 O14 2.497869 1_555
Na3 O71 2.562710 1_555
Na3 O69 2.740057 1_555
Na3 O35 2.872100 1_555
Na4 O50 2.373723 1_555
Na4 O48 2.405343 1_555
Na4 O12 2.497866 1_555
Na4 O69 2.562701 1_655
Na4 O70 2.740056 1_655
Na4 O33 2.872097 1_655
Na5 O48 2.373732 1_555
Na5 O49 2.405341 1_555
Na5 O13 2.497868 1_555
Na5 O70 2.562702 1_545
Na5 O71 2.740049 1_545
Na5 O34 2.872095 1_545
Na6 O43 2.469791 1_555
Na6 O65 2.543200 1_555
Na6 O64 2.582532 1_555
Na6 O42 2.650811 1_455
Na6 O7 2.674830 1_555
Na6 O14 2.754401 1_555
Na6 O28 2.836604 1_555
Na6 O21 2.939129 1_555
Na7 O44 2.469799 1_455
Na7 O63 2.543185 1_555
Na7 O65 2.582518 1_555
Na7 O43 2.650811 1_565
Na7 O8 2.674832 1_555
Na7 O12 2.754401 1_455
Na7 O29 2.836596 1_555
Na7 O22 2.939129 1_455
Na8 O42 2.469792 1_565
Na8 O64 2.543185 1_555
Na8 O63 2.582535 1_555
Na8 O44 2.650803 1_555
Na8 O6 2.674828 1_555
Na8 O13 2.754401 1_565
Na8 O27 2.836600 1_555
Na8 O23 2.939129 1_565
Na9 O47 2.469799 1_565
Na9 O61 2.543184 1_555
Na9 O62 2.582518 1_555
Na9 O45 2.650811 1_455
Na9 O11 2.674832 1_555
Na9 O16 2.754401 1_565
Na9 O26 2.836596 1_554
Na9 O18 2.939129 1_565
Na10 O45 2.469791 1_555
Na10 O62 2.543200 1_555
Na10 O60 2.582532 1_555
Na10 O46 2.650811 1_565
Na10 O9 2.674830 1_555
Na10 O17 2.754401 1_555
Na10 O24 2.836604 1_554
Na10 O19 2.939129 1_555
Na11 O46 2.469792 1_455
Na11 O60 2.543185 1_555
Na11 O61 2.582534 1_555
Na11 O47 2.650803 1_555
Na11 O10 2.674828 1_555
Na11 O15 2.754401 1_455
Na11 O25 2.836600 1_554
Na11 O20 2.939129 1_455
Na12 O4 2.333701 1_555
Na12 O40 2.393586 1_655
Na12 O41 2.404340 1_555
Na12 O55 2.560531 1_555
Na12 O54 2.672904 1_555
Na12 O19 2.945735 1_556
Na12 O33 2.988021 1_655
Na13 O5 2.333705 1_555
Na13 O41 2.393593 1_545
Na13 O39 2.404348 1_655
Na13 O56 2.560514 1_555
Na13 O55 2.672902 1_555
Na13 O20 2.945730 1_556
Na13 O34 2.988021 1_545
Na14 O3 2.333703 1_555
Na14 O39 2.393584 1_555
Na14 O40 2.404348 1_545
Na14 O54 2.560528 1_555
Na14 O56 2.672918 1_555
Na14 O18 2.945738 1_556
Na14 O35 2.988021 1_555
Na15 O2 2.333705 1_555
Na15 O38 2.393593 1_655
Na15 O37 2.404348 1_545
Na15 O59 2.560514 1_555
Na15 O57 2.672902 1_555
Na15 O23 2.945730 1_555
Na15 O30 2.988021 1_655
Na16 O0 2.333701 1_555
Na16 O36 2.393586 1_545
Na16 O38 2.404340 1_555
Na16 O57 2.560531 1_555
Na16 O58 2.672903 1_555
Na16 O21 2.945735 1_555
Na16 O31 2.988021 1_545
Na17 O1 2.333703 1_555
Na17 O37 2.393584 1_555
Na17 O36 2.404348 1_655
Na17 O58 2.560528 1_555
Na17 O59 2.672918 1_555
Na17 O22 2.945738 1_555
Na17 O32 2.988021 1_555
Na18 O38 2.390904 1_555
Na18 O36 2.390904 1_545
Na18 O37 2.390904 1_445
Na18 O42 2.653377 1_455
Na18 O44 2.653377 1_445
Na18 O43 2.653377 1_555
Na19 O39 2.390904 1_555
Na19 O41 2.390904 1_445
Na19 O40 2.390904 1_545
Na19 O46 2.653377 1_456
Na19 O47 2.653377 1_556
Na19 O45 2.653377 1_446
Na20 O50 2.385160 1_555
Na20 O48 2.385160 1_555
Na20 O49 2.385160 1_555
Na20 O56 2.751539 1_555
Na20 O54 2.751539 1_555
Na20 O55 2.751539 1_555
Na21 O51 2.385160 1_555
Na21 O53 2.385160 1_555
Na21 O52 2.385160 1_555
Na21 O57 2.751539 1_555
Na21 O59 2.751539 1_555
Na21 O58 2.751539 1_555
Na22 O68 2.507904 1_555
Na22 O66 2.507904 1_555
Na22 O67 2.507904 1_555
Na22 O62 2.627236 1_555
Na22 O60 2.627236 1_555
Na22 O61 2.627236 1_555
Na23 O69 2.507904 1_555
Na23 O71 2.507904 1_555
Na23 O70 2.507904 1_555
Na23 O63 2.627236 1_555
Na23 O65 2.627236 1_555
Na23 O64 2.627236 1_555
Mg0 O1 1.992166 1_445
Mg0 O0 1.992167 1_555
Mg0 O2 1.992167 1_455
Mg0 O38 2.207642 1_555
Mg0 O36 2.207642 1_545
Mg0 O37 2.207642 1_445
Mg1 O4 1.992166 1_445
Mg1 O3 1.992166 1_555
Mg1 O5 1.992167 1_455
Mg1 O39 2.207642 1_555
Mg1 O41 2.207642 1_445
Mg1 O40 2.207642 1_545
Mg2 O14 2.062211 1_555
Mg2 O13 2.062211 1_555
Mg2 O12 2.062211 1_555
Mg2 O50 2.118542 1_555
Mg2 O48 2.118542 1_555
Mg2 O49 2.118542 1_555
Mg3 O17 2.062211 1_555
Mg3 O15 2.062211 1_555
Mg3 O16 2.062211 1_555
Mg3 O51 2.118542 1_555
Mg3 O53 2.118542 1_555
Mg3 O52 2.118542 1_555
O0 Si0 1.592288 1_555
O1 Si1 1.592288 1_555
O2 Si2 1.592288 1_555
O3 Si3 1.592288 1_555
O4 Si4 1.592288 1_555
O5 Si5 1.592288 1_555
O6 Si5 1.712108 1_565
O6 Ta0 1.939484 1_665
O7 Si3 1.712108 1_555
O7 Ta0 1.939484 1_555
O8 Si4 1.712108 1_455
O8 Ta0 1.939484 1_565
O9 Si1 1.712108 1_555
O9 Ta1 1.939484 1_665
O10 Si2 1.712108 1_455
O10 Ta1 1.939484 1_555
O11 Si0 1.712108 1_565
O11 Ta1 1.939484 1_565
O12 Si6 1.587251 1_555
O13 Si7 1.587251 1_555
O14 Si8 1.587251 1_555
O15 Si9 1.587251 1_555
O16 Si10 1.587251 1_555
O17 Si11 1.587251 1_555
O18 Si11 1.682189 1_555
O18 Ta2 1.971205 1_554
O19 Si9 1.682189 1_555
O19 Ta2 1.971205 1_554
O20 Si10 1.682189 1_555
O20 Ta2 1.971205 1_554
O21 Si7 1.682189 1_555
O21 Ta3 1.971205 1_555
O22 Si8 1.682189 1_555
O22 Ta3 1.971205 1_555
O23 Si6 1.682189 1_555
O23 Ta3 1.971205 1_555
O24 Si12 1.651412 1_555
O24 Ta4 1.932777 1_556
O25 Si13 1.651412 1_555
O25 Ta4 1.932777 1_556
O26 Si14 1.651412 1_555
O26 Ta4 1.932777 1_556
O27 Si15 1.651412 1_555
O27 Ta5 1.932777 1_555
O28 Si16 1.651412 1_555
O28 Ta5 1.932777 1_555
O29 Si17 1.651412 1_555
O29 Ta5 1.932777 1_555
O30 Si17 1.660247 1_555
O30 Ta6 1.987155 1_555
O31 Si15 1.660247 1_555
O31 Ta6 1.987155 1_555
O32 Si16 1.660247 1_555
O32 Ta6 1.987155 1_555
O33 Si13 1.660247 1_555
O33 Ta7 1.987155 1_555
O34 Si14 1.660247 1_555
O34 Ta7 1.987155 1_555
O35 Si12 1.660247 1_555
O35 Ta7 1.987155 1_555
O36 Si17 1.593926 1_555
O37 Si15 1.593935 1_555
O38 Si16 1.593931 1_555
O39 Si13 1.593935 1_555
O40 Si14 1.593926 1_555
O41 Si12 1.593931 1_555
O42 Si6 1.657500 1_555
O42 Ta0 2.094317 1_655
O43 Si7 1.657509 1_555
O43 Ta0 2.094317 1_555
O44 Si8 1.657505 1_555
O44 Ta0 2.094317 1_665
O45 Si9 1.657508 1_555
O45 Ta1 2.094317 1_665
O46 Si10 1.657500 1_555
O46 Ta1 2.094317 1_655
O47 Si11 1.657505 1_555
O47 Ta1 2.094317 1_555
O48 Si5 1.608867 1_555
O49 Si3 1.608876 1_555
O50 Si4 1.608873 1_555
O51 Si1 1.608876 1_555
O52 Si2 1.608867 1_555
O53 Si0 1.608873 1_555
O54 Si12 1.660187 1_555
O54 Ta2 2.038037 1_555
O55 Si13 1.660169 1_655
O55 Ta2 2.038037 1_555
O56 Si14 1.660178 1_545
O56 Ta2 2.038037 1_555
O57 Si15 1.660169 1_545
O57 Ta3 2.038037 1_555
O58 Si16 1.660187 1_555
O58 Ta3 2.038037 1_555
O59 Si17 1.660178 1_655
O59 Ta3 2.038037 1_555
O60 Si11 1.664558 1_555
O60 Ta4 2.031355 1_555
O61 Si9 1.664540 1_455
O61 Ta4 2.031356 1_555
O62 Si10 1.664547 1_565
O62 Ta4 2.031355 1_555
O63 Si7 1.664540 1_565
O63 Ta5 2.031355 1_555
O64 Si8 1.664558 1_555
O64 Ta5 2.031356 1_555
O65 Si6 1.664547 1_455
O65 Ta5 2.031355 1_555
O66 Si0 1.685329 1_565
O66 Ta6 2.015446 1_555
O67 Si1 1.685339 1_555
O67 Ta6 2.015446 1_555
O68 Si2 1.685334 1_455
O68 Ta6 2.015446 1_555
O69 Si3 1.685338 1_555
O69 Ta7 2.015446 1_555
O70 Si4 1.685329 1_455
O70 Ta7 2.015446 1_555
O71 Si5 1.685334 1_565
O71 Ta7 2.015446 1_555
