# generated using pymatgen
data_LiNi4(PO4)3
_symmetry_space_group_name_H-M   'P 1'
_cell_length_a   10.32727682
_cell_length_b   10.32727682
_cell_length_c   10.32727682
_cell_angle_alpha   142.70452450
_cell_angle_beta   142.70452450
_cell_angle_gamma   53.76896628
_symmetry_Int_Tables_number   1
_chemical_formula_structural   LiNi4(PO4)3
_chemical_formula_sum   'Li2 Ni8 P6 O24'
_cell_volume   401.75507647
_cell_formula_units_Z   2
loop_
 _symmetry_equiv_pos_site_id
 _symmetry_equiv_pos_as_xyz
  1  'x, y, z'
loop_
 _atom_site_type_symbol
 _atom_site_label
 _atom_site_symmetry_multiplicity
 _atom_site_fract_x
 _atom_site_fract_y
 _atom_site_fract_z
 _atom_site_occupancy
  Li  Li0  1  0.75000000  0.25000000  0.50000000  1
  Li  Li1  1  0.00000000  0.00000000  0.00000000  1
  Ni  Ni0  1  0.72776600  0.72776600  0.00000000  1
  Ni  Ni1  1  0.12982800  0.62500000  0.00482800  1
  Ni  Ni2  1  0.02223400  0.52223400  0.50000000  1
  Ni  Ni3  1  0.27223400  0.27223400  0.00000000  1
  Ni  Ni4  1  0.37500000  0.37982800  0.50482800  1
  Ni  Ni5  1  0.62017200  0.12500000  0.99517200  1
  Ni  Ni6  1  0.47776600  0.97776600  0.50000000  1
  Ni  Ni7  1  0.87500000  0.87017200  0.49517200  1
  P  P0  1  0.37500000  0.97748900  0.10248900  1
  P  P1  1  0.87500000  0.27251100  0.89751100  1
  P  P2  1  0.02251100  0.12500000  0.39751100  1
  P  P3  1  0.50000000  0.50000000  0.00000000  1
  P  P4  1  0.72748900  0.62500000  0.60248900  1
  P  P5  1  0.25000000  0.75000000  0.50000000  1
  O  O0  1  0.01068000  0.75747000  0.35504600  1
  O  O1  1  0.16221400  0.83675500  0.79039100  1
  O  O2  1  0.58778600  0.87817800  0.17454100  1
  O  O3  1  0.62817800  0.83778600  0.67454100  1
  O  O4  1  0.97597200  0.19001900  0.78296100  1
  O  O5  1  0.77402800  0.05698900  0.71404700  1
  O  O6  1  0.40705800  0.19301100  0.21703900  1
  O  O7  1  0.34294200  0.05998100  0.28595300  1
  O  O8  1  0.24253000  0.59757700  0.25321000  1
  O  O9  1  0.80998100  0.59294200  0.78595300  1
  O  O10  1  0.94301100  0.65705800  0.71703900  1
  O  O11  1  0.40563300  0.65242300  0.14495400  1
  O  O12  1  0.58675500  0.41221400  0.29039100  1
  O  O13  1  0.73932000  0.59436700  0.24679000  1
  O  O14  1  0.34757700  0.49253000  0.75321000  1
  O  O15  1  0.40242300  0.65563300  0.64495400  1
  O  O16  1  0.12182200  0.29636300  0.70960900  1
  O  O17  1  0.50747000  0.26068000  0.85504600  1
  O  O18  1  0.94001900  0.22597200  0.28296100  1
  O  O19  1  0.70363700  0.41324500  0.82545900  1
  O  O20  1  0.04636300  0.37182200  0.20960900  1
  O  O21  1  0.80698900  0.02402800  0.21404700  1
  O  O22  1  0.34436700  0.98932000  0.74679000  1
  O  O23  1  0.16324500  0.95363700  0.32545900  1
loop_
_geom_bond_atom_site_label_1
_geom_bond_atom_site_label_2
_geom_bond_distance
_geom_bond_site_symmetry_2
Li0 O21 2.165685 1_555
Li0 O6 2.165685 1_555
Li0 O9 2.165685 1_555
Li0 O4 2.165685 1_555
Li1 O7 2.165685 1_555
Li1 O5 2.165685 1_454
Li1 O18 2.165685 1_455
Li1 O10 2.165685 1_444
Ni0 O21 2.058567 1_565
Ni0 O9 2.058567 1_554
Ni0 O0 2.073659 1_655
Ni0 O15 2.073662 1_554
Ni0 O19 2.188245 1_554
Ni0 O2 2.188245 1_555
Ni1 O11 2.007658 1_555
Ni1 O8 2.007663 1_555
Ni1 O16 2.070807 1_554
Ni1 O23 2.070808 1_555
Ni1 O10 2.086252 1_454
Ni1 O9 2.086252 1_454
Ni2 O18 2.058567 1_455
Ni2 O10 2.058567 1_455
Ni2 O14 2.073664 1_555
Ni2 O13 2.073664 1_455
Ni2 O20 2.188236 1_555
Ni2 O1 2.188249 1_555
Ni3 O6 2.058567 1_555
Ni3 O4 2.058567 1_454
Ni3 O22 2.073664 1_544
Ni3 O8 2.073664 1_555
Ni3 O16 2.188236 1_554
Ni3 O12 2.188249 1_555
Ni4 O15 2.007658 1_555
Ni4 O14 2.007663 1_555
Ni4 O20 2.070807 1_555
Ni4 O19 2.070808 1_555
Ni4 O6 2.086252 1_555
Ni4 O7 2.086252 1_555
Ni5 O22 2.007663 1_545
Ni5 O17 2.007672 1_555
Ni5 O12 2.070803 1_556
Ni5 O3 2.070808 1_545
Ni5 O18 2.086252 1_556
Ni5 O21 2.086252 1_556
Ni6 O5 2.058567 1_565
Ni6 O7 2.058567 1_565
Ni6 O17 2.073659 1_565
Ni6 O11 2.073662 1_555
Ni6 O23 2.188245 1_555
Ni6 O3 2.188245 1_555
Ni7 O13 2.007663 1_555
Ni7 O0 2.007672 1_655
Ni7 O1 2.070803 1_655
Ni7 O2 2.070808 1_555
Ni7 O4 2.086252 1_565
Ni7 O5 2.086252 1_565
O0 P5 1.557920 1_555
O1 P0 1.543704 1_556
O2 P0 1.543702 1_555
O3 P4 1.543702 1_555
O4 P1 1.587984 1_555
O5 P1 1.587984 1_555
O6 P0 1.587984 1_545
O7 P0 1.587984 1_545
O8 P5 1.557923 1_555
O9 P4 1.587984 1_555
O10 P4 1.587984 1_555
O11 P3 1.557929 1_555
O12 P4 1.543704 1_555
O13 P3 1.557923 1_555
O14 P3 1.557923 1_556
O15 P5 1.557929 1_555
O16 P2 1.543709 1_555
O17 P3 1.557920 1_556
O18 P2 1.587984 1_655
O19 P1 1.543702 1_555
O20 P1 1.543709 1_454
O21 P2 1.587984 1_655
O22 P5 1.557923 1_555
O23 P2 1.543702 1_565
