# generated using pymatgen
data_Na14Sc3Nb5(SiO4)12
_symmetry_space_group_name_H-M   'P 1'
_cell_length_a   18.32971913
_cell_length_b   9.16178357
_cell_length_c   22.60551767
_cell_angle_alpha   90.04501561
_cell_angle_beta   89.87804328
_cell_angle_gamma   120.02707502
_symmetry_Int_Tables_number   1
_chemical_formula_structural   Na14Sc3Nb5(SiO4)12
_chemical_formula_sum   'Na42 Sc9 Nb15 Si36 O144'
_cell_volume   3286.70987146
_cell_formula_units_Z   3
loop_
 _symmetry_equiv_pos_site_id
 _symmetry_equiv_pos_as_xyz
  1  'x, y, z'
loop_
 _atom_site_type_symbol
 _atom_site_label
 _atom_site_symmetry_multiplicity
 _atom_site_fract_x
 _atom_site_fract_y
 _atom_site_fract_z
 _atom_site_occupancy
  Na  Na0  1  0.31954124  0.01129361  0.24794809  1
  Na  Na1  1  0.81627487  0.00930351  0.24666794  1
  Na  Na2  1  0.18880791  0.36822501  0.24638757  1
  Na  Na3  1  0.68604598  0.36080786  0.24822633  1
  Na  Na4  1  0.99529076  0.62279758  0.24709979  1
  Na  Na5  1  0.49390602  0.62749285  0.24774492  1
  Na  Na6  1  0.31669257  0.62446768  0.74754576  1
  Na  Na7  1  0.81652755  0.62420156  0.74774450  1
  Na  Na8  1  0.99519486  0.36681761  0.74787322  1
  Na  Na9  1  0.49512008  0.36648497  0.74771760  1
  Na  Na10  1  0.18851762  0.00910009  0.74757069  1
  Na  Na11  1  0.68813652  0.00879877  0.74758011  1
  Na  Na12  1  0.15313086  0.34625964  0.58059740  1
  Na  Na13  1  0.65255572  0.34460217  0.58077830  1
  Na  Na14  1  0.01999598  0.69454956  0.58048829  1
  Na  Na15  1  0.51938176  0.69409679  0.58076974  1
  Na  Na16  1  0.32725571  0.95946819  0.58057576  1
  Na  Na17  1  0.82750338  0.96050152  0.58130065  1
  Na  Na18  1  0.15381863  0.96129039  0.08070361  1
  Na  Na19  1  0.65262152  0.96058772  0.08099322  1
  Na  Na20  1  0.32789050  0.69560705  0.08153222  1
  Na  Na21  1  0.82709717  0.69384377  0.08115351  1
  Na  Na22  1  0.01942499  0.34522511  0.08043191  1
  Na  Na23  1  0.51921048  0.34407492  0.08090394  1
  Na  Na24  1  0.34842246  0.03011943  0.91922102  1
  Na  Na25  1  0.84834073  0.03013389  0.91915667  1
  Na  Na26  1  0.48477056  0.29292130  0.41536128  1
  Na  Na27  1  0.66109354  0.03004293  0.41516176  1
  Na  Na28  1  0.35310964  0.67779003  0.41562441  1
  Na  Na29  1  0.84851984  0.66763125  0.41752864  1
  Na  Na30  1  0.00386007  0.00748385  0.49726782  1
  Na  Na31  1  0.49957660  0.99993975  0.49448718  1
  Na  Na32  1  0.00367080  0.99976747  0.99793873  1
  Na  Na33  1  0.50355583  0.99982397  0.99879927  1
  Na  Na34  1  0.33312307  0.33913972  0.83359879  1
  Na  Na35  1  0.83309989  0.33911005  0.83356750  1
  Na  Na36  1  0.33103874  0.32897684  0.33030710  1
  Na  Na37  1  0.83541148  0.33140347  0.33043779  1
  Na  Na38  1  0.16732412  0.66709614  0.16153917  1
  Na  Na39  1  0.66635282  0.66673094  0.16129371  1
  Na  Na40  1  0.16704141  0.66704895  0.66192388  1
  Na  Na41  1  0.66656415  0.66667583  0.66226488  1
  Sc  Sc0  1  0.49938890  0.99978064  0.35101867  1
  Sc  Sc1  1  0.33349961  0.33352945  0.68501359  1
  Sc  Sc2  1  0.83301745  0.33280123  0.68514918  1
  Sc  Sc3  1  0.33352272  0.33383565  0.18382908  1
  Sc  Sc4  1  0.83286333  0.33252549  0.18415729  1
  Sc  Sc5  1  0.16612276  0.66606202  0.01643957  1
  Sc  Sc6  1  0.66589257  0.66571086  0.01643865  1
  Sc  Sc7  1  0.16494422  0.66482091  0.51641523  1
  Sc  Sc8  1  0.66755884  0.66790603  0.51731451  1
  Nb  Nb0  1  0.00294670  0.00452837  0.35439071  1
  Nb  Nb1  1  0.00208357  0.00018148  0.85529567  1
  Nb  Nb2  1  0.50202920  0.00006799  0.85527197  1
  Nb  Nb3  1  0.99983166  0.99933474  0.64666456  1
  Nb  Nb4  1  0.49978064  0.99968123  0.64601369  1
  Nb  Nb5  1  0.99971369  0.00023663  0.14586703  1
  Nb  Nb6  1  0.49974532  0.00001867  0.14725249  1
  Nb  Nb7  1  0.33344306  0.33812387  0.97926072  1
  Nb  Nb8  1  0.83330466  0.33827478  0.97914767  1
  Nb  Nb9  1  0.32976439  0.32760987  0.47949176  1
  Nb  Nb10  1  0.83696535  0.33452393  0.47958727  1
  Nb  Nb11  1  0.16755808  0.66868299  0.31552385  1
  Nb  Nb12  1  0.66571519  0.66549526  0.31446040  1
  Nb  Nb13  1  0.16657713  0.66575846  0.81630980  1
  Nb  Nb14  1  0.66635047  0.66547595  0.81628777  1
  Si  Si0  1  0.14495744  0.99815413  0.25003018  1
  Si  Si1  1  0.64633236  0.00018535  0.25145396  1
  Si  Si2  1  0.35320782  0.70677080  0.25158589  1
  Si  Si3  1  0.85492307  0.71073208  0.25147463  1
  Si  Si4  1  0.00073084  0.29082261  0.25092031  1
  Si  Si5  1  0.49987015  0.29317026  0.25145383  1
  Si  Si6  1  0.14478552  0.29139229  0.75056777  1
  Si  Si7  1  0.64459615  0.29109508  0.75047743  1
  Si  Si8  1  0.00084608  0.71039670  0.75100206  1
  Si  Si9  1  0.50086210  0.71079966  0.75084522  1
  Si  Si10  1  0.35463585  0.99834539  0.75150693  1
  Si  Si11  1  0.85447601  0.99822607  0.75162403  1
  Si  Si12  1  0.47901592  0.33402359  0.58424914  1
  Si  Si13  1  0.98007217  0.33402228  0.58548123  1
  Si  Si14  1  0.18696217  0.03953268  0.58558186  1
  Si  Si15  1  0.68810776  0.04260968  0.58418264  1
  Si  Si16  1  0.33266874  0.62408421  0.58428706  1
  Si  Si17  1  0.83313894  0.62466757  0.58469603  1
  Si  Si18  1  0.47975359  0.62567896  0.08455255  1
  Si  Si19  1  0.97955606  0.62457003  0.08490226  1
  Si  Si20  1  0.33305033  0.04145927  0.08398961  1
  Si  Si21  1  0.83285461  0.04173328  0.08369684  1
  Si  Si22  1  0.18774868  0.33421393  0.08454221  1
  Si  Si23  1  0.68745461  0.33376367  0.08469312  1
  Si  Si24  1  0.31280561  0.66436093  0.91762368  1
  Si  Si25  1  0.81271919  0.66453494  0.91758553  1
  Si  Si26  1  0.02000644  0.37447129  0.91829326  1
  Si  Si27  1  0.51995239  0.37422781  0.91826291  1
  Si  Si28  1  0.16650580  0.95998704  0.91842170  1
  Si  Si29  1  0.66644191  0.95986385  0.91838879  1
  Si  Si30  1  0.31272332  0.96014478  0.41877323  1
  Si  Si31  1  0.81358743  0.96011472  0.41714209  1
  Si  Si32  1  0.16597822  0.37426913  0.41833166  1
  Si  Si33  1  0.66669024  0.37247491  0.41833784  1
  Si  Si34  1  0.02151414  0.66769153  0.41789845  1
  Si  Si35  1  0.51938196  0.66644368  0.41876649  1
  O  O0  1  0.09356073  0.02206500  0.30506837  1
  O  O1  1  0.60457293  0.03153196  0.30888277  1
  O  O2  1  0.41062301  0.79035643  0.30884279  1
  O  O3  1  0.91561438  0.80746907  0.30775504  1
  O  O4  1  0.48456811  0.17859671  0.30883799  1
  O  O5  1  0.98814731  0.16276556  0.30540227  1
  O  O6  1  0.09336305  0.16374957  0.80501862  1
  O  O7  1  0.59349642  0.16391235  0.80506000  1
  O  O8  1  0.48793966  0.81295514  0.80526200  1
  O  O9  1  0.98785143  0.81304181  0.80520209  1
  O  O10  1  0.41557409  0.02408055  0.80749951  1
  O  O11  1  0.91563029  0.02409609  0.80745197  1
  O  O12  1  0.40095612  0.96573188  0.69300202  1
  O  O13  1  0.90086974  0.96578777  0.69298784  1
  O  O14  1  0.08227794  0.19922922  0.69216229  1
  O  O15  1  0.58244043  0.19947744  0.69212511  1
  O  O16  1  0.01732392  0.83547488  0.69234871  1
  O  O17  1  0.51745611  0.83560488  0.69232091  1
  O  O18  1  0.40012845  0.83463134  0.19291098  1
  O  O19  1  0.90098606  0.83598761  0.19314581  1
  O  O20  1  0.01727873  0.19889445  0.19249324  1
  O  O21  1  0.51719335  0.19986324  0.19278958  1
  O  O22  1  0.08208644  0.96497184  0.19218858  1
  O  O23  1  0.58278261  0.96610631  0.19278177  1
  O  O24  1  0.43795439  0.36520967  0.64282138  1
  O  O25  1  0.93812034  0.36500548  0.64343815  1
  O  O26  1  0.24409502  0.12302243  0.64357149  1
  O  O27  1  0.74473376  0.12449478  0.64262930  1
  O  O28  1  0.31757952  0.51060321  0.64271456  1
  O  O29  1  0.81761465  0.51081034  0.64291310  1
  O  O30  1  0.43881130  0.51264279  0.14286318  1
  O  O31  1  0.93894509  0.51218274  0.14359866  1
  O  O32  1  0.31697033  0.12253056  0.14263005  1
  O  O33  1  0.81828268  0.12426391  0.14240212  1
  O  O34  1  0.24339081  0.36462399  0.14306204  1
  O  O35  1  0.74420710  0.36631817  0.14321747  1
  O  O36  1  0.23581999  0.29847591  0.02767127  1
  O  O37  1  0.73629641  0.29915866  0.02789224  1
  O  O38  1  0.41373880  0.52786566  0.02782218  1
  O  O39  1  0.91366912  0.52811788  0.02813382  1
  O  O40  1  0.35071697  0.16737021  0.02564864  1
  O  O41  1  0.85120540  0.16750288  0.02542491  1
  O  O42  1  0.23521560  0.17167813  0.52845488  1
  O  O43  1  0.73424057  0.16943585  0.52576989  1
  O  O44  1  0.35062557  0.53315461  0.52588872  1
  O  O45  1  0.85085001  0.53353162  0.52617313  1
  O  O46  1  0.41543649  0.29839515  0.52622177  1
  O  O47  1  0.91426396  0.29983931  0.52817645  1
  O  O48  1  0.27585922  0.70943600  0.97472527  1
  O  O49  1  0.77599585  0.70966407  0.97483290  1
  O  O50  1  0.07540853  0.45015170  0.97634881  1
  O  O51  1  0.57554364  0.45028223  0.97626872  1
  O  O52  1  0.15053065  0.84979152  0.97667994  1
  O  O53  1  0.65079318  0.84984360  0.97669168  1
  O  O54  1  0.27088942  0.84238268  0.47560482  1
  O  O55  1  0.77636999  0.84535546  0.47517139  1
  O  O56  1  0.15036795  0.44977744  0.47720153  1
  O  O57  1  0.65163766  0.45870790  0.47547459  1
  O  O58  1  0.07419476  0.69943452  0.47673121  1
  O  O59  1  0.57867611  0.69927156  0.47541234  1
  O  O60  1  0.06790612  0.63975145  0.35855462  1
  O  O61  1  0.56799710  0.63456869  0.35998858  1
  O  O62  1  0.25073645  0.86260853  0.35936018  1
  O  O63  1  0.75082464  0.86696648  0.35875839  1
  O  O64  1  0.18166886  0.49865508  0.35930487  1
  O  O65  1  0.68346913  0.50163477  0.35974686  1
  O  O66  1  0.06863759  0.49606861  0.85894203  1
  O  O67  1  0.56867093  0.49615680  0.85895545  1
  O  O68  1  0.18117097  0.86372788  0.85936613  1
  O  O69  1  0.68134366  0.86393703  0.85933740  1
  O  O70  1  0.25192655  0.64031022  0.85841536  1
  O  O71  1  0.75198656  0.64039936  0.85839583  1
  O  O72  1  0.00451020  0.82669571  0.40712774  1
  O  O73  1  0.50794922  0.82939917  0.41224749  1
  O  O74  1  0.40599076  0.98382666  0.41175497  1
  O  O75  1  0.90567448  0.97486268  0.40692419  1
  O  O76  1  0.08440166  0.18527337  0.40717126  1
  O  O77  1  0.58519874  0.18680660  0.41212701  1
  O  O78  1  0.00502391  0.18263087  0.90697108  1
  O  O79  1  0.50506105  0.18264493  0.90692164  1
  O  O80  1  0.08404821  0.98232445  0.90694466  1
  O  O81  1  0.58411219  0.98233036  0.90695623  1
  O  O82  1  0.40489841  0.83549363  0.90603057  1
  O  O83  1  0.90494063  0.83555273  0.90607103  1
  O  O84  1  0.48454586  0.15736663  0.58916320  1
  O  O85  1  0.98440165  0.15650376  0.58885991  1
  O  O86  1  0.09385947  0.03107988  0.58911358  1
  O  O87  1  0.59439709  0.03130549  0.58911907  1
  O  O88  1  0.42134309  0.81176653  0.58930777  1
  O  O89  1  0.92160668  0.81227899  0.58911560  1
  O  O90  1  0.48474442  0.81259069  0.08846941  1
  O  O91  1  0.98447488  0.81172011  0.08896869  1
  O  O92  1  0.42150567  0.03046526  0.08902602  1
  O  O93  1  0.92136673  0.03022474  0.08920869  1
  O  O94  1  0.09398695  0.15695481  0.08898765  1
  O  O95  1  0.59412705  0.15695355  0.08874294  1
  O  O96  1  0.34507906  0.16387508  0.74788556  1
  O  O97  1  0.84514889  0.16394247  0.74783264  1
  O  O98  1  0.23654004  0.30926050  0.74800703  1
  O  O99  1  0.73659872  0.30929642  0.74800951  1
  O  O100  1  0.41787968  0.52687260  0.74806847  1
  O  O101  1  0.91781376  0.52690389  0.74800128  1
  O  O102  1  0.34044840  0.51967364  0.24511693  1
  O  O103  1  0.84557220  0.52616740  0.24848668  1
  O  O104  1  0.41868828  0.31778493  0.24522323  1
  O  O105  1  0.91798728  0.30886345  0.24852074  1
  O  O106  1  0.23664217  0.16339571  0.24849649  1
  O  O107  1  0.74009454  0.16288848  0.24513984  1
  O  O108  1  0.32179007  0.49538739  0.92177674  1
  O  O109  1  0.82184043  0.49562087  0.92178996  1
  O  O110  1  0.42403982  0.34799703  0.92146972  1
  O  O111  1  0.92401946  0.34806346  0.92150101  1
  O  O112  1  0.25466305  0.14336185  0.92125337  1
  O  O113  1  0.75463490  0.14344969  0.92139883  1
  O  O114  1  0.32187203  0.14963167  0.42245915  1
  O  O115  1  0.81746667  0.14395840  0.42178701  1
  O  O116  1  0.25459222  0.36665129  0.42208268  1
  O  O117  1  0.75489907  0.36311334  0.42179987  1
  O  O118  1  0.42679575  0.49028888  0.42183400  1
  O  O119  1  0.92487215  0.49943350  0.42216967  1
  O  O120  1  0.17488891  0.49590031  0.07795517  1
  O  O121  1  0.67523199  0.49630596  0.07798751  1
  O  O122  1  0.07327884  0.65080238  0.07847604  1
  O  O123  1  0.57347826  0.65095640  0.07826649  1
  O  O124  1  0.25217911  0.85282264  0.07823325  1
  O  O125  1  0.75230675  0.85305115  0.07836393  1
  O  O126  1  0.17435747  0.85290347  0.57892236  1
  O  O127  1  0.67511763  0.85486281  0.57832670  1
  O  O128  1  0.25216907  0.65097719  0.57861760  1
  O  O129  1  0.75260525  0.65135548  0.57888055  1
  O  O130  1  0.07321832  0.49547121  0.57910302  1
  O  O131  1  0.57318859  0.49556948  0.57852339  1
  O  O132  1  0.14961279  0.82315052  0.25630403  1
  O  O133  1  0.65184606  0.82388222  0.25551760  1
  O  O134  1  0.25958341  0.69701619  0.25525794  1
  O  O135  1  0.76247021  0.69997595  0.25678118  1
  O  O136  1  0.08775695  0.47533645  0.25688725  1
  O  O137  1  0.58878347  0.48006625  0.25551185  1
  O  O138  1  0.14999329  0.47618608  0.75609720  1
  O  O139  1  0.65018823  0.47627656  0.75614158  1
  O  O140  1  0.08797258  0.69998329  0.75652888  1
  O  O141  1  0.58792932  0.69982044  0.75661821  1
  O  O142  1  0.26156337  0.82389393  0.75621027  1
  O  O143  1  0.76161824  0.82386505  0.75605842  1
loop_
_geom_bond_atom_site_label_1
_geom_bond_atom_site_label_2
_geom_bond_distance
_geom_bond_site_symmetry_2
Na0 O104 2.466564 1_555
Na0 O134 2.521646 1_545
Na0 O106 2.523908 1_555
Na0 O32 2.600242 1_555
Na0 O132 2.707983 1_545
Na0 O62 2.839305 1_545
Na0 O18 2.954876 1_545
Na0 O4 2.961104 1_555
Na1 O105 2.426749 1_555
Na1 O107 2.428522 1_555
Na1 O135 2.501846 1_545
Na1 O33 2.575030 1_555
Na1 O133 2.623631 1_545
Na1 O63 2.826090 1_545
Na2 O102 2.406601 1_555
Na2 O106 2.437153 1_555
Na2 O136 2.503404 1_555
Na2 O34 2.545713 1_555
Na2 O134 2.624179 1_555
Na2 O64 2.847964 1_555
Na3 O107 2.464098 1_555
Na3 O137 2.519380 1_555
Na3 O103 2.532176 1_555
Na3 O35 2.590261 1_555
Na3 O135 2.701720 1_555
Na3 O65 2.842116 1_555
Na3 O1 2.949582 1_555
Na3 O21 2.961421 1_555
Na4 O103 2.425711 1_555
Na4 O105 2.490477 1_555
Na4 O132 2.493887 1_655
Na4 O31 2.554786 1_555
Na4 O136 2.653398 1_655
Na4 O60 2.819634 1_655
Na5 O104 2.457679 1_555
Na5 O102 2.472070 1_555
Na5 O133 2.537278 1_555
Na5 O30 2.586699 1_555
Na5 O137 2.689262 1_555
Na5 O61 2.865811 1_555
Na5 O2 2.954965 1_555
Na5 O23 2.959953 1_555
Na6 O100 2.428895 1_555
Na6 O142 2.498834 1_555
Na6 O98 2.500411 1_555
Na6 O28 2.591764 1_555
Na6 O138 2.657595 1_555
Na6 O70 2.805521 1_555
Na7 O101 2.428540 1_555
Na7 O143 2.497163 1_555
Na7 O99 2.497978 1_555
Na7 O29 2.590770 1_555
Na7 O139 2.651662 1_555
Na7 O71 2.800131 1_555
Na8 O97 2.429559 1_555
Na8 O101 2.498981 1_555
Na8 O138 2.499200 1_655
Na8 O25 2.580933 1_555
Na8 O140 2.655701 1_655
Na8 O66 2.816510 1_655
Na9 O96 2.429004 1_555
Na9 O100 2.499168 1_555
Na9 O139 2.503524 1_555
Na9 O24 2.592126 1_555
Na9 O141 2.657445 1_555
Na9 O67 2.821150 1_555
Na10 O98 2.432036 1_555
Na10 O96 2.484668 1_555
Na10 O140 2.496747 1_545
Na10 O26 2.565868 1_555
Na10 O142 2.642989 1_545
Na10 O68 2.828968 1_545
Na11 O99 2.433335 1_555
Na11 O97 2.491823 1_555
Na11 O141 2.494874 1_545
Na11 O27 2.592551 1_555
Na11 O143 2.647104 1_545
Na11 O69 2.828045 1_545
Na12 O128 2.453382 1_555
Na12 O130 2.453538 1_555
Na12 O86 2.532964 1_555
Na12 O56 2.533210 1_555
Na12 O85 2.690598 1_455
Na12 O14 2.846426 1_555
Na12 O42 2.934194 1_555
Na12 O28 2.966012 1_555
Na13 O131 2.458911 1_555
Na13 O129 2.470836 1_555
Na13 O87 2.519627 1_555
Na13 O57 2.604107 1_555
Na13 O84 2.678302 1_555
Na13 O15 2.834856 1_555
Na13 O43 2.959278 1_555
Na13 O29 2.974743 1_555
Na14 O126 2.450100 1_555
Na14 O130 2.461685 1_555
Na14 O89 2.529594 1_455
Na14 O58 2.536923 1_555
Na14 O86 2.683224 1_565
Na14 O16 2.849768 1_555
Na14 O45 2.955019 1_455
Na14 O25 2.975858 1_455
Na15 O131 2.465472 1_555
Na15 O127 2.472383 1_555
Na15 O88 2.523063 1_555
Na15 O59 2.606410 1_555
Na15 O87 2.686928 1_565
Na15 O17 2.842742 1_555
Na15 O44 2.954694 1_555
Na15 O24 2.961644 1_555
Na16 O128 2.447712 1_555
Na16 O126 2.463938 1_555
Na16 O84 2.531289 1_565
Na16 O54 2.597336 1_555
Na16 O88 2.679905 1_555
Na16 O12 2.867757 1_555
Na16 O46 2.956144 1_565
Na16 O26 2.978284 1_565
Na17 O129 2.453228 1_555
Na17 O127 2.457287 1_555
Na17 O85 2.521447 1_565
Na17 O55 2.600597 1_555
Na17 O89 2.682633 1_555
Na17 O13 2.852055 1_555
Na17 O47 2.947247 1_565
Na17 O27 2.958083 1_565
Na18 O124 2.456382 1_555
Na18 O122 2.463943 1_555
Na18 O94 2.533287 1_565
Na18 O52 2.551854 1_554
Na18 O91 2.699739 1_455
Na18 O22 2.848043 1_555
Na18 O36 2.930992 1_565
Na18 O32 2.945908 1_565
Na19 O123 2.457041 1_555
Na19 O125 2.472650 1_555
Na19 O95 2.519149 1_565
Na19 O53 2.559743 1_554
Na19 O90 2.675490 1_555
Na19 O23 2.842184 1_555
Na19 O37 2.941380 1_565
Na19 O33 2.975515 1_565
Na20 O124 2.450979 1_555
Na20 O120 2.466695 1_555
Na20 O90 2.521331 1_555
Na20 O48 2.624177 1_554
Na20 O92 2.667758 1_565
Na20 O18 2.834788 1_555
Na20 O38 2.953179 1_555
Na20 O34 2.970839 1_555
Na21 O121 2.447011 1_555
Na21 O125 2.452070 1_555
Na21 O91 2.530401 1_555
Na21 O49 2.611677 1_554
Na21 O93 2.680966 1_565
Na21 O19 2.860713 1_555
Na21 O39 2.942840 1_555
Na21 O35 2.952250 1_555
Na22 O122 2.459364 1_555
Na22 O120 2.468103 1_555
Na22 O93 2.531145 1_455
Na22 O50 2.553244 1_554
Na22 O94 2.691006 1_555
Na22 O20 2.857996 1_555
Na22 O41 2.948443 1_455
Na22 O31 2.966609 1_455
Na23 O123 2.469616 1_555
Na23 O121 2.477022 1_555
Na23 O92 2.519129 1_555
Na23 O51 2.568167 1_554
Na23 O95 2.685840 1_555
Na23 O21 2.846052 1_555
Na23 O40 2.954448 1_555
Na23 O30 2.963824 1_555
Na24 O112 2.411666 1_555
Na24 O82 2.487019 1_545
Na24 O79 2.501055 1_555
Na24 O110 2.522993 1_555
Na24 O40 2.704413 1_556
Na24 O10 2.819764 1_555
Na24 O48 2.839560 1_545
Na24 O68 2.981639 1_545
Na25 O113 2.411371 1_555
Na25 O83 2.488122 1_545
Na25 O78 2.501490 1_655
Na25 O111 2.523426 1_555
Na25 O41 2.699470 1_556
Na25 O11 2.820547 1_555
Na25 O49 2.839916 1_545
Na25 O69 2.977673 1_545
Na26 O74 2.453323 1_545
Na26 O77 2.475795 1_555
Na26 O118 2.518418 1_555
Na26 O114 2.596134 1_555
Na26 O4 2.624464 1_555
Na26 O46 2.819219 1_555
Na26 O57 2.978883 1_555
Na26 O61 2.985071 1_555
Na27 O77 2.450083 1_555
Na27 O73 2.469719 1_545
Na27 O115 2.516923 1_555
Na27 O1 2.621117 1_555
Na27 O117 2.653288 1_555
Na27 O43 2.824173 1_555
Na27 O59 2.955804 1_545
Na27 O63 3.001764 1_545
Na28 O73 2.458483 1_555
Na28 O74 2.467541 1_555
Na28 O116 2.501159 1_555
Na28 O2 2.628044 1_555
Na28 O118 2.668000 1_555
Na28 O44 2.813414 1_555
Na28 O54 2.940444 1_555
Na28 O64 3.006923 1_555
Na29 O117 2.438439 1_555
Na29 O75 2.475227 1_555
Na29 O72 2.486330 1_655
Na29 O119 2.550215 1_555
Na29 O45 2.756942 1_555
Na29 O3 2.779702 1_555
Na29 O55 2.870996 1_555
Na29 O65 2.929267 1_555
Na30 O76 2.562517 1_555
Na30 O86 2.595337 1_555
Na30 O85 2.599597 1_455
Na30 O72 2.628693 1_545
Na30 O75 2.641119 1_445
Na30 O89 2.660146 1_445
Na31 O73 2.480961 1_555
Na31 O77 2.482720 1_565
Na31 O74 2.494362 1_555
Na31 O84 2.669636 1_565
Na31 O88 2.672354 1_555
Na31 O87 2.682262 1_565
Na32 O80 2.578658 1_555
Na32 O94 2.583517 1_566
Na32 O91 2.592733 1_456
Na32 O78 2.645695 1_565
Na32 O93 2.649102 1_466
Na32 O83 2.671600 1_455
Na33 O95 2.565225 1_566
Na33 O90 2.565321 1_556
Na33 O81 2.596088 1_555
Na33 O92 2.628563 1_566
Na33 O79 2.660626 1_565
Na33 O82 2.687193 1_555
Na34 O108 2.521311 1_555
Na34 O100 2.535405 1_555
Na34 O98 2.545859 1_555
Na34 O110 2.570581 1_555
Na34 O112 2.573629 1_555
Na34 O96 2.593486 1_555
Na35 O109 2.523081 1_555
Na35 O101 2.536019 1_555
Na35 O99 2.544458 1_555
Na35 O111 2.571451 1_555
Na35 O113 2.576273 1_555
Na35 O97 2.593933 1_555
Na36 O106 2.469322 1_555
Na36 O104 2.538186 1_555
Na36 O102 2.548148 1_555
Na36 O114 2.606751 1_555
Na36 O116 2.618642 1_555
Na36 O118 2.638230 1_555
Na37 O105 2.462310 1_555
Na37 O103 2.514313 1_555
Na37 O107 2.542465 1_555
Na37 O115 2.599803 1_555
Na37 O119 2.615693 1_555
Na37 O117 2.634935 1_555
Na38 O124 2.490926 1_555
Na38 O120 2.502247 1_555
Na38 O122 2.505065 1_555
Na38 O134 2.640761 1_555
Na38 O132 2.682417 1_555
Na38 O136 2.699542 1_555
Na39 O123 2.491692 1_555
Na39 O125 2.492264 1_555
Na39 O121 2.501843 1_555
Na39 O137 2.653645 1_555
Na39 O133 2.656395 1_555
Na39 O135 2.708161 1_555
Na40 O126 2.492642 1_555
Na40 O128 2.493952 1_555
Na40 O130 2.497449 1_555
Na40 O142 2.669968 1_555
Na40 O138 2.672731 1_555
Na40 O140 2.681155 1_555
Na41 O129 2.503692 1_555
Na41 O131 2.508836 1_555
Na41 O127 2.516131 1_555
Na41 O143 2.665487 1_555
Na41 O139 2.667495 1_555
Na41 O141 2.672628 1_555
Nb0 O0 1.937254 1_555
Nb0 O5 1.949119 1_455
Nb0 O76 1.981151 1_555
Nb0 O3 2.011258 1_445
Nb0 O72 2.031371 1_545
Nb0 O75 2.041967 1_445
Nb1 O6 1.955000 1_555
Nb1 O9 1.959734 1_445
Nb1 O80 1.975064 1_545
Nb1 O78 2.017085 1_555
Nb1 O83 2.017200 1_445
Nb1 O11 2.020898 1_455
Nb2 O7 1.956627 1_555
Nb2 O8 1.959239 1_545
Nb2 O81 1.976773 1_545
Nb2 O82 2.016720 1_545
Nb2 O79 2.017053 1_555
Nb2 O10 2.020512 1_555
Nb3 O16 1.977026 1_655
Nb3 O13 1.978851 1_555
Nb3 O14 1.982257 1_665
Nb3 O89 2.056807 1_555
Nb3 O86 2.058384 1_665
Nb3 O85 2.067133 1_565
Nb4 O12 1.983611 1_555
Nb4 O17 1.987914 1_555
Nb4 O15 1.990196 1_565
Nb4 O88 2.049729 1_555
Nb4 O84 2.055444 1_565
Nb4 O87 2.057680 1_565
Nb5 O20 1.984735 1_655
Nb5 O19 1.987568 1_545
Nb5 O22 1.994001 1_645
Nb5 O93 2.044869 1_555
Nb5 O94 2.052104 1_655
Nb5 O91 2.056848 1_545
Nb6 O18 1.980092 1_545
Nb6 O21 1.981574 1_555
Nb6 O23 1.988191 1_545
Nb6 O92 2.067837 1_555
Nb6 O95 2.076859 1_555
Nb6 O90 2.077375 1_545
Nb7 O38 1.958687 1_556
Nb7 O36 1.968062 1_556
Nb7 O108 2.030340 1_555
Nb7 O40 2.036409 1_556
Nb7 O110 2.076801 1_555
Nb7 O112 2.101009 1_555
Nb8 O37 1.964406 1_556
Nb8 O39 1.964953 1_556
Nb8 O109 2.027493 1_555
Nb8 O41 2.041504 1_556
Nb8 O111 2.076714 1_555
Nb8 O113 2.097122 1_555
Nb9 O42 1.945745 1_555
Nb9 O44 2.017539 1_555
Nb9 O46 2.020317 1_555
Nb9 O114 2.025674 1_555
Nb9 O116 2.052387 1_555
Nb9 O118 2.103249 1_555
Nb10 O47 1.942345 1_555
Nb10 O45 2.007935 1_555
Nb10 O43 2.016631 1_555
Nb10 O119 2.030130 1_555
Nb10 O115 2.063270 1_555
Nb10 O117 2.107385 1_555
Nb11 O62 1.937984 1_555
Nb11 O60 1.964991 1_555
Nb11 O64 1.969709 1_555
Nb11 O134 2.078749 1_555
Nb11 O132 2.091368 1_555
Nb11 O136 2.108502 1_555
Nb12 O61 1.957652 1_555
Nb12 O65 1.974957 1_555
Nb12 O63 1.991330 1_555
Nb12 O137 2.063296 1_555
Nb12 O133 2.078315 1_555
Nb12 O135 2.091706 1_555
Nb13 O66 1.941717 1_555
Nb13 O70 1.944093 1_555
Nb13 O68 1.954827 1_555
Nb13 O138 2.105066 1_555
Nb13 O142 2.108220 1_555
Nb13 O140 2.112238 1_555
Nb14 O67 1.938475 1_555
Nb14 O71 1.946892 1_555
Nb14 O69 1.956241 1_555
Nb14 O139 2.103600 1_555
Nb14 O141 2.108614 1_555
Nb14 O143 2.113226 1_555
O0 Si0 1.638475 1_545
O1 Si1 1.602782 1_555
O1 Sc0 2.034786 1_545
O2 Si2 1.602161 1_555
O2 Sc0 2.029050 1_555
O3 Si3 1.630694 1_555
O4 Si5 1.602869 1_555
O4 Sc0 2.028771 1_545
O5 Si4 1.636070 1_655
O6 Si6 1.632558 1_555
O7 Si7 1.631723 1_555
O8 Si9 1.632200 1_555
O9 Si8 1.631992 1_655
O10 Si10 1.627056 1_545
O11 Si11 1.626356 1_545
O12 Si10 1.675631 1_555
O13 Si11 1.678079 1_555
O14 Si6 1.674908 1_555
O15 Si7 1.670363 1_555
O16 Si8 1.678294 1_555
O17 Si9 1.674159 1_555
O18 Si2 1.691295 1_555
O19 Si3 1.672213 1_555
O20 Si4 1.672725 1_555
O21 Si5 1.690661 1_555
O22 Si0 1.668917 1_555
O23 Si1 1.689794 1_565
O24 Si12 1.616051 1_555
O24 Sc1 2.023912 1_555
O25 Si13 1.613057 1_555
O25 Sc2 2.027650 1_555
O26 Si14 1.613312 1_555
O26 Sc1 2.030593 1_555
O27 Si15 1.615772 1_555
O27 Sc2 2.024259 1_555
O28 Si16 1.617012 1_555
O28 Sc1 2.027010 1_555
O29 Si17 1.613853 1_555
O29 Sc2 2.028665 1_555
O30 Si18 1.610371 1_555
O30 Sc3 2.023964 1_555
O31 Si19 1.614229 1_555
O31 Sc4 2.030365 1_555
O32 Si20 1.616063 1_555
O32 Sc3 2.029230 1_555
O33 Si21 1.613446 1_555
O33 Sc4 2.022597 1_555
O34 Si22 1.608910 1_555
O34 Sc3 2.032618 1_555
O35 Si23 1.617427 1_555
O35 Sc4 2.025707 1_555
O36 Si22 1.679172 1_555
O37 Si23 1.682030 1_555
O38 Si18 1.682677 1_555
O39 Si19 1.680160 1_555
O40 Si20 1.673799 1_555
O41 Si21 1.669930 1_555
O42 Si14 1.685713 1_555
O43 Si15 1.680200 1_555
O44 Si16 1.678074 1_555
O45 Si17 1.679421 1_555
O46 Si12 1.676444 1_555
O47 Si13 1.690893 1_555
O48 Si24 1.603339 1_555
O48 Sc5 2.070156 1_556
O49 Si25 1.603982 1_555
O49 Sc6 2.073372 1_556
O50 Si26 1.591819 1_555
O50 Sc5 2.052034 1_556
O51 Si27 1.592753 1_555
O51 Sc6 2.048167 1_556
O52 Si28 1.594982 1_555
O52 Sc5 2.051319 1_556
O53 Si29 1.595762 1_555
O53 Sc6 2.049523 1_556
O54 Si30 1.603903 1_555
O54 Sc7 2.025260 1_555
O55 Si31 1.603781 1_555
O55 Sc8 2.068273 1_555
O56 Si32 1.589487 1_555
O56 Sc7 2.051884 1_555
O57 Si33 1.607354 1_555
O57 Sc8 2.022802 1_555
O58 Si34 1.584159 1_555
O58 Sc7 2.051095 1_555
O59 Si35 1.609212 1_555
O59 Sc8 2.027224 1_555
O60 Si34 1.673529 1_555
O61 Si35 1.702820 1_555
O62 Si30 1.697577 1_555
O63 Si31 1.678018 1_555
O64 Si32 1.683619 1_555
O65 Si33 1.698708 1_555
O66 Si26 1.684975 1_555
O67 Si27 1.685712 1_555
O68 Si28 1.692948 1_555
O69 Si29 1.692863 1_555
O70 Si24 1.686711 1_555
O71 Si25 1.684617 1_555
O72 Si34 1.653442 1_555
O73 Si35 1.614982 1_555
O73 Sc0 2.150941 1_555
O74 Si30 1.619424 1_555
O74 Sc0 2.139418 1_555
O75 Si31 1.640381 1_555
O76 Si32 1.645417 1_555
O77 Si33 1.613081 1_555
O77 Sc0 2.150913 1_545
O78 Si26 1.657287 1_555
O79 Si27 1.655657 1_555
O80 Si28 1.644663 1_555
O81 Si29 1.642894 1_555
O82 Si24 1.651167 1_555
O83 Si25 1.651719 1_555
O84 Si12 1.675307 1_555
O85 Si13 1.669328 1_555
O86 Si14 1.670878 1_555
O87 Si15 1.671765 1_555
O88 Si16 1.677729 1_555
O89 Si17 1.674771 1_555
O90 Si18 1.670835 1_555
O91 Si19 1.673798 1_555
O92 Si20 1.678145 1_555
O93 Si21 1.682533 1_555
O94 Si22 1.675516 1_555
O95 Si23 1.668839 1_555
O96 Si10 1.613516 1_545
O96 Sc1 2.194517 1_555
O97 Si11 1.612987 1_545
O97 Sc2 2.190832 1_555
O98 Si6 1.607099 1_555
O98 Sc1 2.197734 1_555
O99 Si7 1.610270 1_555
O99 Sc2 2.190417 1_555
O100 Si9 1.610003 1_555
O100 Sc1 2.196613 1_555
O101 Si8 1.608322 1_655
O101 Sc2 2.199110 1_555
O102 Si2 1.616446 1_555
O102 Sc3 2.148294 1_555
O103 Si3 1.613391 1_555
O103 Sc4 2.213636 1_555
O104 Si5 1.619182 1_555
O104 Sc3 2.150336 1_555
O105 Si4 1.606796 1_655
O105 Sc4 2.224219 1_555
O106 Si0 1.603412 1_545
O106 Sc3 2.223986 1_555
O107 Si1 1.622167 1_555
O107 Sc4 2.134422 1_555
O108 Si24 1.639510 1_555
O109 Si25 1.640474 1_555
O110 Si27 1.652390 1_555
O111 Si26 1.653116 1_655
O112 Si28 1.649556 1_545
O113 Si29 1.651052 1_545
O114 Si30 1.660531 1_545
O115 Si31 1.653166 1_545
O116 Si32 1.662638 1_555
O117 Si33 1.663430 1_555
O118 Si35 1.657729 1_555
O119 Si34 1.670377 1_655
O120 Si22 1.619273 1_555
O120 Sc5 2.155240 1_555
O121 Si23 1.620254 1_555
O121 Sc6 2.155069 1_555
O122 Si19 1.617364 1_455
O122 Sc5 2.152752 1_555
O123 Si18 1.620494 1_555
O123 Sc6 2.145261 1_555
O124 Si20 1.624079 1_565
O124 Sc5 2.161379 1_555
O125 Si21 1.621338 1_565
O125 Sc6 2.167765 1_555
O126 Si14 1.613699 1_565
O126 Sc7 2.166870 1_555
O127 Si15 1.619514 1_565
O127 Sc8 2.148230 1_555
O128 Si16 1.618347 1_555
O128 Sc7 2.182254 1_555
O129 Si17 1.618092 1_555
O129 Sc8 2.153171 1_555
O130 Si13 1.611059 1_455
O130 Sc7 2.150532 1_555
O131 Si12 1.621537 1_555
O131 Sc8 2.158576 1_555
O132 Si0 1.653919 1_555
O133 Si1 1.670730 1_565
O134 Si2 1.675058 1_555
O135 Si3 1.651638 1_555
O136 Si4 1.649914 1_555
O137 Si5 1.674505 1_555
O138 Si6 1.651998 1_555
O139 Si7 1.652573 1_555
O140 Si8 1.651814 1_555
O141 Si9 1.653987 1_555
O142 Si10 1.657357 1_555
O143 Si11 1.654465 1_555
