# generated using pymatgen
data_Na3Hf2Si2PO12
_symmetry_space_group_name_H-M   'P 1'
_cell_length_a   9.12726435
_cell_length_b   9.12726403
_cell_length_c   22.55261197
_cell_angle_alpha   89.65870876
_cell_angle_beta   90.34129123
_cell_angle_gamma   119.93756625
_symmetry_Int_Tables_number   1
_chemical_formula_structural   Na3Hf2Si2PO12
_chemical_formula_sum   'Na18 Hf12 Si12 P6 O72'
_cell_volume   1628.06344044
_cell_formula_units_Z   6
loop_
 _symmetry_equiv_pos_site_id
 _symmetry_equiv_pos_as_xyz
  1  'x, y, z'
loop_
 _atom_site_type_symbol
 _atom_site_label
 _atom_site_symmetry_multiplicity
 _atom_site_fract_x
 _atom_site_fract_y
 _atom_site_fract_z
 _atom_site_occupancy
  Na  Na0  1  0.99685192  0.98404083  0.50112602  1
  Na  Na1  1  0.01595917  0.00314808  0.00112602  1
  Na  Na2  1  0.66351892  0.31737383  0.83445902  1
  Na  Na3  1  0.68262617  0.33648108  0.33445902  1
  Na  Na4  1  0.33018492  0.65070783  0.16779302  1
  Na  Na5  1  0.34929217  0.66981508  0.66779302  1
  Na  Na6  1  0.64294539  0.00219010  0.25178244  1
  Na  Na7  1  0.99711143  0.63120249  0.25372055  1
  Na  Na8  1  0.99780990  0.35705461  0.75178244  1
  Na  Na9  1  0.36879751  0.00288857  0.75372055  1
  Na  Na10  1  0.30961239  0.33552310  0.58511544  1
  Na  Na11  1  0.66377843  0.96453549  0.58705355  1
  Na  Na12  1  0.66447690  0.69038761  0.08511544  1
  Na  Na13  1  0.03546451  0.33622157  0.08705355  1
  Na  Na14  1  0.97627839  0.66885710  0.91844944  1
  Na  Na15  1  0.33044443  0.29786949  0.92038755  1
  Na  Na16  1  0.33114290  0.02372161  0.41844944  1
  Na  Na17  1  0.70213051  0.66955557  0.42038755  1
  Hf  Hf0  1  0.99544949  0.00381664  0.35337001  1
  Hf  Hf1  1  0.99618336  0.00455051  0.85337001  1
  Hf  Hf2  1  0.99607071  0.99302940  0.64661266  1
  Hf  Hf3  1  0.00697060  0.00392929  0.14661266  1
  Hf  Hf4  1  0.66211649  0.33714964  0.68670301  1
  Hf  Hf5  1  0.66285036  0.33788351  0.18670301  1
  Hf  Hf6  1  0.66273771  0.32636240  0.97994566  1
  Hf  Hf7  1  0.67363760  0.33726229  0.47994566  1
  Hf  Hf8  1  0.32878249  0.67048364  0.02003701  1
  Hf  Hf9  1  0.32951636  0.67121751  0.52003701  1
  Hf  Hf10  1  0.32940371  0.65969640  0.31327966  1
  Hf  Hf11  1  0.34030360  0.67059629  0.81327966  1
  Si  Si0  1  0.70598459  0.70749282  0.24951797  1
  Si  Si1  1  0.00027300  0.29565123  0.24653644  1
  Si  Si2  1  0.29250718  0.29401541  0.74951797  1
  Si  Si3  1  0.70434877  0.99972700  0.74653644  1
  Si  Si4  1  0.37265159  0.04082582  0.58285097  1
  Si  Si5  1  0.66694000  0.62898423  0.57986944  1
  Si  Si6  1  0.95917418  0.62734841  0.08285097  1
  Si  Si7  1  0.37101577  0.33306000  0.07986944  1
  Si  Si8  1  0.03931759  0.37415982  0.91618497  1
  Si  Si9  1  0.33360600  0.96231823  0.91320344  1
  Si  Si10  1  0.62584018  0.96068241  0.41618497  1
  Si  Si11  1  0.03768177  0.66639400  0.41320344  1
  P  P0  1  0.29283528  0.00066999  0.25285693  1
  P  P1  1  0.99933001  0.70716472  0.75285693  1
  P  P2  1  0.95950228  0.33400299  0.58618993  1
  P  P3  1  0.66599701  0.04049772  0.08618993  1
  P  P4  1  0.62616828  0.66733699  0.91952393  1
  P  P5  1  0.33266301  0.37383172  0.41952393  1
  O  O0  1  0.21558295  0.02104424  0.31059599  1
  O  O1  1  0.82658868  0.79883841  0.30785424  1
  O  O2  1  0.98123027  0.17256205  0.30221504  1
  O  O3  1  0.20116159  0.17341132  0.80785424  1
  O  O4  1  0.97895576  0.78441705  0.81059599  1
  O  O5  1  0.82743795  0.01876973  0.80221504  1
  O  O6  1  0.79027425  0.98026627  0.68590087  1
  O  O7  1  0.17470900  0.19958213  0.69107956  1
  O  O8  1  0.02010165  0.82366383  0.69940950  1
  O  O9  1  0.80041787  0.82529100  0.19107956  1
  O  O10  1  0.01973373  0.20972575  0.18590087  1
  O  O11  1  0.17633617  0.97989835  0.19940950  1
  O  O12  1  0.88224995  0.35437724  0.64392899  1
  O  O13  1  0.49325568  0.13217141  0.64118724  1
  O  O14  1  0.64789727  0.50589505  0.63554804  1
  O  O15  1  0.86782859  0.50674432  0.14118724  1
  O  O16  1  0.64562276  0.11775005  0.14392899  1
  O  O17  1  0.49410495  0.35210273  0.13554804  1
  O  O18  1  0.45694125  0.31359927  0.01923387  1
  O  O19  1  0.84137600  0.53291513  0.02441256  1
  O  O20  1  0.68676865  0.15699683  0.03274250  1
  O  O21  1  0.46708487  0.15862400  0.52441256  1
  O  O22  1  0.68640073  0.54305875  0.51923387  1
  O  O23  1  0.84300317  0.31323135  0.53274250  1
  O  O24  1  0.54891595  0.68771124  0.97726299  1
  O  O25  1  0.15992168  0.46550541  0.97452124  1
  O  O26  1  0.31456327  0.83922905  0.96888204  1
  O  O27  1  0.53449459  0.84007832  0.47452124  1
  O  O28  1  0.31228876  0.45108405  0.47726299  1
  O  O29  1  0.16077095  0.68543673  0.46888204  1
  O  O30  1  0.12360725  0.64693327  0.35256787  1
  O  O31  1  0.50804200  0.86624913  0.35774656  1
  O  O32  1  0.35343465  0.49033083  0.36607650  1
  O  O33  1  0.13375087  0.49195800  0.85774656  1
  O  O34  1  0.35306673  0.87639275  0.85256787  1
  O  O35  1  0.50966917  0.64656535  0.86607650  1
  O  O36  1  0.02897033  0.84270847  0.41323563  1
  O  O37  1  0.81212927  0.97522181  0.41159917  1
  O  O38  1  0.18170394  0.19231792  0.41209219  1
  O  O39  1  0.02477819  0.18787073  0.91159917  1
  O  O40  1  0.15729153  0.97102967  0.91323563  1
  O  O41  1  0.80768208  0.81829606  0.91209219  1
  O  O42  1  0.97250752  0.16990943  0.58734750  1
  O  O43  1  0.18854024  0.03043589  0.58794336  1
  O  O44  1  0.82705273  0.82226870  0.58520394  1
  O  O45  1  0.96956411  0.81145976  0.08794336  1
  O  O46  1  0.83009057  0.02749248  0.08734750  1
  O  O47  1  0.17773130  0.17294727  0.08520394  1
  O  O48  1  0.69563733  0.17604147  0.74656863  1
  O  O49  1  0.47879627  0.30855481  0.74493217  1
  O  O50  1  0.84837094  0.52565092  0.74542519  1
  O  O51  1  0.69144519  0.52120373  0.24493217  1
  O  O52  1  0.82395853  0.30436267  0.24656863  1
  O  O53  1  0.47434908  0.15162906  0.24542519  1
  O  O54  1  0.63917452  0.50324243  0.92068050  1
  O  O55  1  0.85520724  0.36376889  0.92127636  1
  O  O56  1  0.49371973  0.15560170  0.91853694  1
  O  O57  1  0.63623111  0.14479276  0.42127636  1
  O  O58  1  0.49675757  0.36082548  0.42068050  1
  O  O59  1  0.84439830  0.50628027  0.41853694  1
  O  O60  1  0.36230333  0.50937547  0.07990263  1
  O  O61  1  0.14546227  0.64188881  0.07826617  1
  O  O62  1  0.51503694  0.85898492  0.07875919  1
  O  O63  1  0.35811119  0.85453773  0.57826617  1
  O  O64  1  0.49062453  0.63769667  0.57990263  1
  O  O65  1  0.14101508  0.48496306  0.57875919  1
  O  O66  1  0.30584052  0.83657643  0.25401450  1
  O  O67  1  0.52187324  0.69710289  0.25461036  1
  O  O68  1  0.16038573  0.48893570  0.25187094  1
  O  O69  1  0.30289711  0.47812676  0.75461036  1
  O  O70  1  0.16342357  0.69415948  0.75401450  1
  O  O71  1  0.51106430  0.83961427  0.75187094  1
loop_
_geom_bond_atom_site_label_1
_geom_bond_atom_site_label_2
_geom_bond_distance
_geom_bond_site_symmetry_2
Na0 O44 2.427997 1_555
Na0 O36 2.468555 1_655
Na0 O43 2.510690 1_665
Na0 O37 2.598396 1_555
Na0 O42 2.670062 1_565
Na0 O38 2.699232 1_665
Na1 O47 2.427997 1_555
Na1 O40 2.468555 1_544
Na1 O45 2.510690 1_445
Na1 O39 2.598396 1_554
Na1 O46 2.670062 1_455
Na1 O41 2.699232 1_444
Na2 O56 2.427997 1_555
Na2 O48 2.468555 1_555
Na2 O55 2.510690 1_555
Na2 O49 2.598396 1_555
Na2 O54 2.670062 1_555
Na2 O50 2.699232 1_555
Na3 O59 2.427997 1_555
Na3 O52 2.468555 1_555
Na3 O57 2.510690 1_555
Na3 O51 2.598396 1_555
Na3 O58 2.670062 1_555
Na3 O53 2.699232 1_555
Na4 O68 2.427997 1_555
Na4 O60 2.468555 1_555
Na4 O67 2.510690 1_555
Na4 O61 2.598396 1_555
Na4 O66 2.670062 1_555
Na4 O62 2.699232 1_555
Na5 O71 2.427997 1_555
Na5 O64 2.468555 1_555
Na5 O69 2.510690 1_555
Na5 O63 2.598396 1_555
Na5 O70 2.670062 1_555
Na5 O65 2.699232 1_555
Na6 O52 2.408412 1_555
Na6 O67 2.430362 1_545
Na6 O53 2.517723 1_555
Na6 O16 2.640826 1_555
Na6 O66 2.667059 1_545
Na6 O31 2.690995 1_545
Na6 O2 2.903808 1_555
Na6 O9 2.985464 1_545
Na7 O68 2.416925 1_655
Na7 O51 2.455778 1_555
Na7 O30 2.476074 1_655
Na7 O66 2.486347 1_655
Na7 O52 2.592278 1_555
Na7 O15 2.790092 1_555
Na7 O1 2.945463 1_555
Na7 O11 3.014367 1_655
Na8 O48 2.408413 1_555
Na8 O69 2.430362 1_655
Na8 O50 2.517723 1_555
Na8 O12 2.640826 1_555
Na8 O70 2.667059 1_655
Na8 O33 2.690995 1_655
Na8 O5 2.903808 1_555
Na8 O7 2.985464 1_655
Na9 O71 2.416925 1_545
Na9 O49 2.455778 1_555
Na9 O34 2.476074 1_545
Na9 O70 2.486347 1_545
Na9 O48 2.592278 1_555
Na9 O13 2.790092 1_555
Na9 O3 2.945463 1_555
Na9 O8 3.014367 1_545
Na10 O64 2.408418 1_555
Na10 O43 2.430362 1_555
Na10 O65 2.517738 1_555
Na10 O28 2.640811 1_555
Na10 O42 2.667059 1_455
Na10 O7 2.690995 1_555
Na10 O14 2.903808 1_555
Na10 O21 2.985464 1_555
Na11 O44 2.416925 1_555
Na11 O63 2.455787 1_555
Na11 O6 2.476074 1_555
Na11 O42 2.486347 1_565
Na11 O64 2.592269 1_555
Na11 O27 2.790071 1_555
Na11 O13 2.945463 1_565
Na11 O23 3.014367 1_565
Na12 O60 2.408418 1_555
Na12 O45 2.430362 1_555
Na12 O62 2.517738 1_555
Na12 O24 2.640811 1_554
Na12 O46 2.667059 1_565
Na12 O9 2.690995 1_555
Na12 O17 2.903808 1_555
Na12 O19 2.985464 1_555
Na13 O47 2.416925 1_555
Na13 O61 2.455786 1_555
Na13 O10 2.476074 1_555
Na13 O46 2.486347 1_455
Na13 O60 2.592270 1_555
Na13 O25 2.790071 1_554
Na13 O15 2.945463 1_455
Na13 O20 3.014367 1_455
Na14 O40 2.408412 1_655
Na14 O55 2.430371 1_555
Na14 O41 2.517723 1_555
Na14 O4 2.640826 1_555
Na14 O54 2.667051 1_555
Na14 O19 2.690974 1_556
Na14 O26 2.903808 1_655
Na14 O33 2.985464 1_655
Na15 O56 2.416941 1_555
Na15 O39 2.455778 1_555
Na15 O18 2.476059 1_556
Na15 O54 2.486352 1_555
Na15 O40 2.592278 1_545
Na15 O3 2.790092 1_555
Na15 O25 2.945463 1_555
Na15 O35 3.014367 1_555
Na16 O36 2.408413 1_545
Na16 O57 2.430371 1_555
Na16 O38 2.517723 1_555
Na16 O0 2.640826 1_555
Na16 O58 2.667051 1_555
Na16 O21 2.690974 1_555
Na16 O29 2.903808 1_545
Na16 O31 2.985464 1_545
Na17 O59 2.416941 1_555
Na17 O37 2.455778 1_555
Na17 O22 2.476059 1_555
Na17 O58 2.486352 1_555
Na17 O36 2.592278 1_655
Na17 O1 2.790092 1_555
Na17 O27 2.945463 1_555
Na17 O32 3.014367 1_555
Hf0 O2 1.973966 1_555
Hf0 O1 2.013786 1_545
Hf0 O37 2.044144 1_545
Hf0 O36 2.121138 1_645
Hf0 O38 2.164481 1_655
Hf0 O0 2.167534 1_655
Hf1 O5 1.973966 1_555
Hf1 O3 2.013786 1_655
Hf1 O39 2.044144 1_655
Hf1 O40 2.121138 1_645
Hf1 O41 2.164481 1_545
Hf1 O4 2.167534 1_545
Hf2 O6 2.031523 1_555
Hf2 O7 2.037974 1_665
Hf2 O8 2.041790 1_655
Hf2 O44 2.080253 1_555
Hf2 O43 2.092131 1_665
Hf2 O42 2.180945 1_565
Hf3 O10 2.031523 1_555
Hf3 O9 2.037974 1_445
Hf3 O11 2.041790 1_545
Hf3 O47 2.080253 1_555
Hf3 O45 2.092131 1_445
Hf3 O46 2.180945 1_455
Hf4 O14 1.973966 1_555
Hf4 O13 2.013786 1_555
Hf4 O49 2.044144 1_555
Hf4 O48 2.121138 1_555
Hf4 O50 2.164481 1_555
Hf4 O12 2.167534 1_555
Hf5 O17 1.973966 1_555
Hf5 O15 2.013786 1_555
Hf5 O51 2.044144 1_555
Hf5 O52 2.121138 1_555
Hf5 O53 2.164481 1_555
Hf5 O16 2.167534 1_555
Hf6 O18 2.031523 1_556
Hf6 O19 2.037974 1_556
Hf6 O20 2.041790 1_556
Hf6 O56 2.080253 1_555
Hf6 O55 2.092131 1_555
Hf6 O54 2.180945 1_555
Hf7 O22 2.031523 1_555
Hf7 O21 2.037974 1_555
Hf7 O23 2.041790 1_555
Hf7 O59 2.080253 1_555
Hf7 O57 2.092131 1_555
Hf7 O58 2.180945 1_555
Hf8 O26 1.973966 1_554
Hf8 O25 2.013786 1_554
Hf8 O61 2.044144 1_555
Hf8 O60 2.121138 1_555
Hf8 O62 2.164481 1_555
Hf8 O24 2.167534 1_554
Hf9 O29 1.973966 1_555
Hf9 O27 2.013786 1_555
Hf9 O63 2.044144 1_555
Hf9 O64 2.121138 1_555
Hf9 O65 2.164481 1_555
Hf9 O28 2.167534 1_555
Hf10 O30 2.031523 1_555
Hf10 O31 2.037974 1_555
Hf10 O32 2.041790 1_555
Hf10 O68 2.080253 1_555
Hf10 O67 2.092131 1_555
Hf10 O66 2.180945 1_555
Hf11 O34 2.031523 1_555
Hf11 O33 2.037974 1_555
Hf11 O35 2.041790 1_555
Hf11 O71 2.080253 1_555
Hf11 O69 2.092131 1_555
Hf11 O70 2.180945 1_555
O0 P0 1.540158 1_555
O1 Si0 1.648491 1_555
O2 Si1 1.630969 1_655
O3 Si2 1.648491 1_555
O4 P1 1.540158 1_555
O5 Si3 1.630969 1_545
O6 Si3 1.634430 1_555
O7 Si2 1.645465 1_555
O8 P1 1.551054 1_455
O9 Si0 1.645465 1_555
O10 Si1 1.634430 1_555
O11 P0 1.551054 1_565
O12 P2 1.540158 1_555
O13 Si4 1.648491 1_555
O14 Si5 1.630969 1_555
O15 Si6 1.648491 1_555
O16 P3 1.540158 1_555
O17 Si7 1.630969 1_555
O18 Si7 1.634430 1_555
O19 Si6 1.645465 1_555
O20 P3 1.551054 1_555
O21 Si4 1.645465 1_555
O22 Si5 1.634430 1_555
O23 P2 1.551054 1_555
O24 P4 1.540158 1_555
O25 Si8 1.648491 1_555
O26 Si9 1.630969 1_555
O27 Si10 1.648491 1_555
O28 P5 1.540158 1_555
O29 Si11 1.630969 1_555
O30 Si11 1.634430 1_555
O31 Si10 1.645465 1_555
O32 P5 1.551054 1_555
O33 Si8 1.645465 1_555
O34 Si9 1.634430 1_555
O35 P4 1.551054 1_555
O36 Si11 1.650393 1_555
O37 Si10 1.641974 1_555
O38 P5 1.547074 1_555
O39 Si8 1.641974 1_555
O40 Si9 1.650393 1_555
O41 P4 1.547074 1_555
O42 P2 1.560416 1_555
O43 Si4 1.639863 1_555
O44 Si5 1.639990 1_555
O45 Si6 1.639863 1_555
O46 P3 1.560416 1_555
O47 Si7 1.639990 1_555
O48 Si3 1.650393 1_545
O49 Si2 1.641974 1_555
O50 P1 1.547074 1_555
O51 Si0 1.641974 1_555
O52 Si1 1.650393 1_655
O53 P0 1.547074 1_555
O54 P4 1.560430 1_555
O55 Si8 1.639848 1_655
O56 Si9 1.639986 1_545
O57 Si10 1.639848 1_545
O58 P5 1.560430 1_555
O59 Si11 1.639986 1_655
O60 Si7 1.650407 1_555
O61 Si6 1.641959 1_455
O62 P3 1.547069 1_565
O63 Si4 1.641959 1_565
O64 Si5 1.650407 1_555
O65 P2 1.547070 1_455
O66 P0 1.560416 1_565
O67 Si0 1.639863 1_555
O68 Si1 1.639990 1_555
O69 Si2 1.639863 1_555
O70 P1 1.560416 1_455
O71 Si3 1.639990 1_555
