# generated using pymatgen
data_K3MgNbO8
_symmetry_space_group_name_H-M   'P 1'
_cell_length_a   5.95510960
_cell_length_b   6.74878309
_cell_length_c   6.74878294
_cell_angle_alpha   98.66795630
_cell_angle_beta   112.97222141
_cell_angle_gamma   112.97222903
_symmetry_Int_Tables_number   1
_chemical_formula_structural   K3MgNbO8
_chemical_formula_sum   'K3 Mg1 Nb1 O8'
_cell_volume   214.72420560
_cell_formula_units_Z   1
loop_
 _symmetry_equiv_pos_site_id
 _symmetry_equiv_pos_as_xyz
  1  'x, y, z'
loop_
 _atom_site_type_symbol
 _atom_site_label
 _atom_site_symmetry_multiplicity
 _atom_site_fract_x
 _atom_site_fract_y
 _atom_site_fract_z
 _atom_site_occupancy
  K  K0  1  0.50734400  0.35631400  0.76732700  1
  K  K1  1  0.50734400  0.76732700  0.35631400  1
  K  K2  1  0.94451500  0.45460800  0.45460800  1
  Mg  Mg0  1  0.36470100  0.91718600  0.91718600  1
  Nb  Nb0  1  0.92892600  0.98232400  0.98232400  1
  O  O0  1  0.52098000  0.76183300  0.76183300  1
  O  O1  1  0.00263500  0.15619900  0.76299900  1
  O  O2  1  0.00263500  0.76299900  0.15619900  1
  O  O3  1  0.40978700  0.17729300  0.17729300  1
  O  O4  1  0.26287100  0.26443700  0.26443700  1
  O  O5  1  0.03791900  0.68645400  0.95294500  1
  O  O6  1  0.03791900  0.95294500  0.68645400  1
  O  O7  1  0.76409000  0.11424800  0.11424800  1
loop_
_geom_bond_atom_site_label_1
_geom_bond_atom_site_label_2
_geom_bond_distance
_geom_bond_site_symmetry_2
K0 O5 2.662862 1_655
K0 O0 2.712432 1_555
K0 O1 2.758539 1_555
K0 O6 2.818564 1_545
K0 O2 2.930511 1_656
K0 O4 2.970987 1_555
K0 Mg0 3.183744 1_545
K0 O7 3.285803 1_556
K0 O3 3.341643 1_556
K1 O6 2.662863 1_655
K1 O0 2.712432 1_555
K1 O2 2.758539 1_555
K1 O5 2.818564 1_554
K1 O1 2.930511 1_665
K1 O4 2.970987 1_555
K1 Mg0 3.183745 1_554
K1 O7 3.285803 1_565
K1 O3 3.341643 1_565
K2 O7 2.502741 1_555
K2 O3 2.604970 1_555
K2 O0 2.824038 1_655
K2 O2 3.122884 1_655
K2 O1 3.122884 1_655
K2 O4 3.192273 1_655
K2 O5 3.216025 1_655
K2 O6 3.216026 1_655
Mg0 O7 1.929523 1_566
Mg0 O0 2.063138 1_555
Mg0 O5 2.093921 1_555
Mg0 O6 2.093921 1_555
Mg0 O3 2.137850 1_566
Nb0 O7 1.916867 1_566
Nb0 O0 2.004850 1_555
Nb0 O4 2.049668 1_666
Nb0 O1 2.095040 1_665
Nb0 O2 2.095040 1_656
Nb0 O3 2.293182 1_666
Nb0 O6 2.332471 1_655
Nb0 O5 2.332471 1_655
O1 O6 1.512858 1_545
O2 O5 1.512858 1_554
O3 O4 1.468411 1_555
