# generated using pymatgen
data_Na2Hf3ZnSi2(SO6)4
_symmetry_space_group_name_H-M   'P 1'
_cell_length_a   8.89686799
_cell_length_b   8.88184497
_cell_length_c   23.23482036
_cell_angle_alpha   89.81521990
_cell_angle_beta   89.97933455
_cell_angle_gamma   120.19217878
_symmetry_Int_Tables_number   1
_chemical_formula_structural   Na2Hf3ZnSi2(SO6)4
_chemical_formula_sum   'Na6 Hf9 Zn3 Si6 S12 O72'
_cell_volume   1586.94766094
_cell_formula_units_Z   3
loop_
 _symmetry_equiv_pos_site_id
 _symmetry_equiv_pos_as_xyz
  1  'x, y, z'
loop_
 _atom_site_type_symbol
 _atom_site_label
 _atom_site_symmetry_multiplicity
 _atom_site_fract_x
 _atom_site_fract_y
 _atom_site_fract_z
 _atom_site_occupancy
  Na  Na0  1  0.98080721  0.98750389  0.50943482  1
  Na  Na1  1  0.02963267  0.02343569  0.00162475  1
  Na  Na2  1  0.67278374  0.30936479  0.83593092  1
  Na  Na3  1  0.66395295  0.31375039  0.33559240  1
  Na  Na4  1  0.33595406  0.65687905  0.16634951  1
  Na  Na5  1  0.36231682  0.67781054  0.67162004  1
  Hf  Hf0  1  0.99142628  0.99851476  0.35307938  1
  Hf  Hf1  1  0.99956583  0.01352910  0.85456564  1
  Hf  Hf2  1  0.66512690  0.33322421  0.68855418  1
  Hf  Hf3  1  0.65794286  0.33467947  0.18457416  1
  Hf  Hf4  1  0.65357338  0.32132899  0.97789934  1
  Hf  Hf5  1  0.66861660  0.33527957  0.48172732  1
  Hf  Hf6  1  0.32224030  0.65626100  0.01900471  1
  Hf  Hf7  1  0.35286453  0.67434916  0.52111772  1
  Hf  Hf8  1  0.33305343  0.67647733  0.81546895  1
  Zn  Zn0  1  0.95902664  0.96569876  0.64887781  1
  Zn  Zn1  1  0.01900834  0.01748646  0.14520495  1
  Zn  Zn2  1  0.34343173  0.68282321  0.31826861  1
  Si  Si0  1  0.70554688  0.99629709  0.74806507  1
  Si  Si1  1  0.67528695  0.62960419  0.58360716  1
  Si  Si2  1  0.36699893  0.33347892  0.08316316  1
  Si  Si3  1  0.03893360  0.37717296  0.91623126  1
  Si  Si4  1  0.32479746  0.95350086  0.91787034  1
  Si  Si5  1  0.62223245  0.96166508  0.41328533  1
  S  S0  1  0.28884303  0.99508256  0.24923564  1
  S  S1  1  0.71163851  0.71146420  0.24735691  1
  S  S2  1  0.00524431  0.29778450  0.25026132  1
  S  S3  1  0.28738553  0.28857111  0.74738512  1
  S  S4  1  0.00222126  0.71162070  0.74875326  1
  S  S5  1  0.95931886  0.33541044  0.58270648  1
  S  S6  1  0.37312119  0.04323243  0.58353801  1
  S  S7  1  0.95493027  0.62486935  0.08410436  1
  S  S8  1  0.66801142  0.04260420  0.08462133  1
  S  S9  1  0.62200187  0.66701369  0.91693114  1
  S  S10  1  0.33281893  0.37606147  0.41518802  1
  S  S11  1  0.04448473  0.66637585  0.41499112  1
  O  O0  1  0.20918507  0.02325706  0.30218270  1
  O  O1  1  0.81914362  0.79559499  0.30098025  1
  O  O2  1  0.97947714  0.18362673  0.30271897  1
  O  O3  1  0.20937445  0.18209573  0.80060112  1
  O  O4  1  0.97775668  0.79080965  0.80073455  1
  O  O5  1  0.82335380  0.02178649  0.80562376  1
  O  O6  1  0.78327386  0.97081587  0.68981060  1
  O  O7  1  0.18878101  0.20914627  0.69561716  1
  O  O8  1  0.03566111  0.81460679  0.69643791  1
  O  O9  1  0.79729633  0.81618525  0.19671960  1
  O  O10  1  0.02485904  0.21596117  0.19862616  1
  O  O11  1  0.18743727  0.97926877  0.19796239  1
  O  O12  1  0.87408588  0.35657218  0.63429283  1
  O  O13  1  0.48609327  0.12030329  0.63469939  1
  O  O14  1  0.64756791  0.50643430  0.63945619  1
  O  O15  1  0.87144181  0.51157014  0.13705882  1
  O  O16  1  0.64864257  0.13386633  0.13688884  1
  O  O17  1  0.49024925  0.35507660  0.14128527  1
  O  O18  1  0.47486532  0.31944024  0.02869618  1
  O  O19  1  0.85332373  0.53597321  0.03265932  1
  O  O20  1  0.69203292  0.15066381  0.03271212  1
  O  O21  1  0.46558826  0.14656067  0.53078679  1
  O  O22  1  0.68109258  0.52492685  0.52605845  1
  O  O23  1  0.84868563  0.31240763  0.53051219  1
  O  O24  1  0.54260966  0.69376707  0.96909057  1
  O  O25  1  0.16032590  0.46314622  0.97353158  1
  O  O26  1  0.31128350  0.84265376  0.97560714  1
  O  O27  1  0.53369153  0.84061021  0.47133199  1
  O  O28  1  0.30084856  0.45347738  0.46734843  1
  O  O29  1  0.14877722  0.69096016  0.46717483  1
  O  O30  1  0.11374131  0.63174560  0.36296273  1
  O  O31  1  0.51164248  0.88387501  0.35625152  1
  O  O32  1  0.36034640  0.47815517  0.36303069  1
  O  O33  1  0.13404126  0.48799810  0.85892143  1
  O  O34  1  0.36285093  0.86930671  0.86126514  1
  O  O35  1  0.51558843  0.63833026  0.86505783  1
  O  O36  1  0.02847606  0.82677068  0.40804073  1
  O  O37  1  0.81849471  0.98035247  0.40741052  1
  O  O38  1  0.17755587  0.19590669  0.40949628  1
  O  O39  1  0.01491834  0.18248864  0.91167702  1
  O  O40  1  0.15057973  0.96510125  0.90902915  1
  O  O41  1  0.79637998  0.82133128  0.91022107  1
  O  O42  1  0.98632140  0.18778311  0.58549444  1
  O  O43  1  0.20709336  0.03432692  0.58823711  1
  O  O44  1  0.84840681  0.81643120  0.58311487  1
  O  O45  1  0.96657312  0.79324271  0.09089708  1
  O  O46  1  0.81933169  0.02169701  0.09094061  1
  O  O47  1  0.17871715  0.16001379  0.08668248  1
  O  O48  1  0.68389544  0.17180640  0.74359214  1
  O  O49  1  0.46724833  0.30882539  0.74420171  1
  O  O50  1  0.84142073  0.53311697  0.74333980  1
  O  O51  1  0.70351954  0.53566441  0.24506330  1
  O  O52  1  0.84183628  0.30922563  0.24726154  1
  O  O53  1  0.46979995  0.15785302  0.24523727  1
  O  O54  1  0.64148719  0.51151533  0.92368733  1
  O  O55  1  0.85241818  0.36587165  0.92507100  1
  O  O56  1  0.49638428  0.14958610  0.92279059  1
  O  O57  1  0.65386776  0.15783836  0.42405282  1
  O  O58  1  0.48642807  0.35329518  0.42414203  1
  O  O59  1  0.86335648  0.51606357  0.42312486  1
  O  O60  1  0.36196666  0.51554396  0.08107929  1
  O  O61  1  0.13076591  0.64172783  0.08128257  1
  O  O62  1  0.50455837  0.87364695  0.08105591  1
  O  O63  1  0.35209731  0.86480670  0.57628649  1
  O  O64  1  0.49342687  0.64098445  0.57746822  1
  O  O65  1  0.12756002  0.50232936  0.57454312  1
  O  O66  1  0.30854108  0.84099553  0.25440252  1
  O  O67  1  0.53406338  0.68073587  0.25422032  1
  O  O68  1  0.15819386  0.47153487  0.25891824  1
  O  O69  1  0.31244814  0.46570222  0.75546489  1
  O  O70  1  0.15176972  0.68032414  0.75567059  1
  O  O71  1  0.50994208  0.82437865  0.75591640  1
loop_
_geom_bond_atom_site_label_1
_geom_bond_atom_site_label_2
_geom_bond_distance
_geom_bond_site_symmetry_2
Na0 O44 2.192845 1_555
Na0 O42 2.494470 1_565
Na0 O43 2.596909 1_665
Na0 O37 2.760419 1_555
Na0 O36 2.897931 1_655
Na0 O38 2.931325 1_665
Na1 O47 2.352789 1_555
Na1 O39 2.558855 1_554
Na1 O40 2.573190 1_544
Na1 O45 2.759603 1_445
Na1 O46 2.788458 1_455
Na1 O41 2.884456 1_444
Na2 O48 2.498760 1_555
Na2 O56 2.507806 1_555
Na2 O55 2.509600 1_555
Na2 O50 2.792827 1_555
Na2 O49 2.807211 1_555
Na2 O54 2.825742 1_555
Na3 O57 2.450864 1_555
Na3 O52 2.603951 1_555
Na3 O53 2.631375 1_555
Na3 O59 2.707838 1_555
Na3 O58 2.722357 1_555
Na3 O51 2.776338 1_555
Na4 O60 2.421281 1_555
Na4 O67 2.636214 1_555
Na4 O62 2.636821 1_555
Na4 O61 2.648493 1_555
Na4 O68 2.682029 1_555
Na4 O66 2.709562 1_555
Na5 O71 2.356788 1_555
Na5 O64 2.576771 1_555
Na5 O69 2.583826 1_555
Na5 O70 2.713473 1_555
Na5 O63 2.793124 1_555
Na5 O65 2.937846 1_555
Hf0 O37 1.932460 1_555
Hf0 O2 2.060858 1_565
Hf0 O1 2.073618 1_555
Hf0 O36 2.135359 1_655
Hf0 O38 2.151869 1_665
Hf0 O0 2.183720 1_665
Hf1 O39 1.959168 1_655
Hf1 O5 1.967915 1_555
Hf1 O40 2.042173 1_645
Hf1 O3 2.115026 1_655
Hf1 O41 2.175872 1_545
Hf1 O4 2.268310 1_545
Hf2 O14 1.980676 1_555
Hf2 O48 1.986903 1_555
Hf2 O49 2.104968 1_555
Hf2 O50 2.108962 1_555
Hf2 O13 2.160146 1_555
Hf2 O12 2.167382 1_555
Hf3 O17 1.882059 1_555
Hf3 O16 2.068815 1_555
Hf3 O15 2.069040 1_555
Hf3 O53 2.143602 1_555
Hf3 O51 2.148235 1_555
Hf3 O52 2.284941 1_555
Hf4 O56 1.946893 1_555
Hf4 O18 1.973041 1_556
Hf4 O55 2.020944 1_555
Hf4 O20 2.132206 1_556
Hf4 O54 2.149570 1_555
Hf4 O19 2.240804 1_556
Hf5 O22 1.932294 1_555
Hf5 O57 2.025465 1_555
Hf5 O23 2.054224 1_555
Hf5 O21 2.076679 1_555
Hf5 O59 2.149451 1_555
Hf5 O58 2.168916 1_555
Hf6 O25 1.913384 1_554
Hf6 O26 1.979541 1_554
Hf6 O60 2.049448 1_555
Hf6 O24 2.153806 1_554
Hf6 O61 2.188230 1_555
Hf6 O62 2.303752 1_555
Hf7 O27 1.924867 1_555
Hf7 O64 1.933236 1_555
Hf7 O63 2.128451 1_555
Hf7 O28 2.174057 1_555
Hf7 O65 2.190635 1_555
Hf7 O29 2.271444 1_555
Hf8 O34 1.921217 1_555
Hf8 O33 1.990798 1_555
Hf8 O71 2.006070 1_555
Hf8 O70 2.142348 1_555
Hf8 O35 2.152194 1_555
Hf8 O69 2.270208 1_555
O0 S0 1.502681 1_545
O1 S1 1.521029 1_555
O2 S2 1.524542 1_655
O3 S3 1.495514 1_555
O4 S4 1.469713 1_655
O5 Si0 1.643972 1_545
O6 Si0 1.587512 1_555
O6 Zn0 1.849940 1_555
O7 S3 1.448380 1_555
O7 Zn0 2.367336 1_445
O8 S4 1.456567 1_555
O8 Zn0 2.097177 1_455
O9 S1 1.452415 1_555
O9 Zn1 2.226548 1_665
O10 S2 1.459795 1_555
O10 Zn1 2.138405 1_555
O11 S0 1.458539 1_555
O11 Zn1 2.091303 1_565
O12 S5 1.480253 1_555
O13 S6 1.485251 1_555
O14 Si1 1.631176 1_555
O15 S7 1.522426 1_555
O16 S8 1.519292 1_555
O17 Si2 1.689410 1_555
O18 Si2 1.630517 1_555
O19 S7 1.469131 1_555
O20 S8 1.485783 1_555
O21 S6 1.501309 1_555
O22 Si1 1.646590 1_555
O23 S5 1.510451 1_555
O24 S9 1.481275 1_555
O25 Si3 1.643213 1_555
O26 Si4 1.629628 1_555
O27 Si5 1.653349 1_555
O28 S10 1.491417 1_555
O29 S11 1.475628 1_555
O30 S11 1.458806 1_555
O30 Zn2 2.126777 1_555
O31 Si5 1.588904 1_555
O31 Zn2 1.878957 1_555
O32 S10 1.456084 1_555
O32 Zn2 2.161458 1_555
O33 Si3 1.615861 1_555
O34 Si4 1.632259 1_555
O35 S9 1.474486 1_555
O36 S11 1.509459 1_555
O37 Si5 1.674305 1_555
O38 S10 1.504767 1_555
O39 Si3 1.635979 1_555
O40 Si4 1.617409 1_555
O41 S9 1.472927 1_555
O42 S5 1.448260 1_555
O42 Zn0 2.370205 1_545
O43 S6 1.443051 1_555
O43 Zn0 2.422151 1_445
O44 Si1 1.598486 1_555
O44 Zn0 1.939796 1_555
O45 S7 1.455261 1_555
O45 Zn1 2.204272 1_665
O46 S8 1.455993 1_555
O46 Zn1 2.194344 1_655
O47 Si2 1.609256 1_555
O47 Zn1 1.910175 1_555
O48 Si0 1.667004 1_545
O49 S3 1.519477 1_555
O50 S4 1.515325 1_655
O51 S1 1.527484 1_555
O52 S2 1.509104 1_655
O53 S0 1.532525 1_545
O54 S9 1.483781 1_555
O55 Si3 1.624182 1_655
O56 Si4 1.644378 1_545
O57 Si5 1.639302 1_545
O58 S10 1.493237 1_555
O59 S11 1.499730 1_655
O60 Si2 1.640607 1_555
O61 S7 1.496090 1_455
O62 S8 1.476320 1_565
O63 S6 1.509440 1_565
O64 Si1 1.677201 1_555
O65 S5 1.496793 1_455
O66 S0 1.469122 1_555
O66 Zn2 2.167376 1_555
O67 S1 1.470284 1_555
O67 Zn2 2.263055 1_555
O68 S2 1.470964 1_555
O68 Zn2 2.246557 1_555
O69 S3 1.486331 1_555
O70 S4 1.498406 1_555
O71 Si0 1.648831 1_555
