# generated using pymatgen
data_ErMnGe
_symmetry_space_group_name_H-M   'P 1'
_cell_length_a   4.06901700
_cell_length_b   7.00165200
_cell_length_c   7.91513100
_cell_angle_alpha   90.00000000
_cell_angle_beta   90.00000000
_cell_angle_gamma   90.00000000
_symmetry_Int_Tables_number   1
_chemical_formula_structural   ErMnGe
_chemical_formula_sum   'Er4 Mn4 Ge4'
_cell_volume   225.50082381
_cell_formula_units_Z   4
loop_
 _symmetry_equiv_pos_site_id
 _symmetry_equiv_pos_as_xyz
  1  'x, y, z'
loop_
 _atom_site_type_symbol
 _atom_site_label
 _atom_site_symmetry_multiplicity
 _atom_site_fract_x
 _atom_site_fract_y
 _atom_site_fract_z
 _atom_site_occupancy
  Er  Er0  1  0.25000000  0.52574800  0.18013300  1
  Er  Er1  1  0.75000000  0.47425200  0.81986700  1
  Er  Er2  1  0.25000000  0.02574800  0.31986700  1
  Er  Er3  1  0.75000000  0.97425200  0.68013300  1
  Mn  Mn0  1  0.75000000  0.36755800  0.44639900  1
  Mn  Mn1  1  0.25000000  0.13244200  0.94639900  1
  Mn  Mn2  1  0.75000000  0.86755800  0.05360100  1
  Mn  Mn3  1  0.25000000  0.63244200  0.55360100  1
  Ge  Ge0  1  0.25000000  0.27420300  0.62148500  1
  Ge  Ge1  1  0.75000000  0.22579700  0.12148500  1
  Ge  Ge2  1  0.25000000  0.77420300  0.87851500  1
  Ge  Ge3  1  0.75000000  0.72579700  0.37851500  1
loop_
_geom_bond_atom_site_label_1
_geom_bond_atom_site_label_2
_geom_bond_distance
_geom_bond_site_symmetry_2
Er0 Ge3 2.926893 1_555
Er0 Ge3 2.926893 1_455
Er0 Ge2 2.953915 1_554
Er0 Ge1 2.960634 1_555
Er0 Ge1 2.960634 1_455
Er1 Ge0 2.926893 1_655
Er1 Ge0 2.926893 1_555
Er1 Ge1 2.953915 1_556
Er1 Ge2 2.960634 1_655
Er1 Ge2 2.960634 1_555
Er2 Ge1 2.926893 1_555
Er2 Ge1 2.926893 1_455
Er2 Ge0 2.953915 1_555
Er2 Ge3 2.960634 1_445
Er2 Ge3 2.960634 1_545
Er3 Ge2 2.926893 1_555
Er3 Ge2 2.926893 1_655
Er3 Ge3 2.953915 1_555
Er3 Ge0 2.960634 1_565
Er3 Ge0 2.960634 1_665
Ge0 Mn0 2.546957 1_555
Ge0 Mn0 2.546957 1_455
Ge0 Mn3 2.565170 1_555
Ge0 Mn1 2.756630 1_555
Ge1 Mn1 2.546957 1_654
Ge1 Mn1 2.546957 1_554
Ge1 Mn2 2.565170 1_545
Ge1 Mn0 2.756630 1_555
Ge2 Mn2 2.546957 1_556
Ge2 Mn2 2.546957 1_456
Ge2 Mn1 2.565170 1_565
Ge2 Mn3 2.756630 1_555
Ge3 Mn3 2.546957 1_555
Ge3 Mn3 2.546957 1_655
Ge3 Mn0 2.565170 1_555
Ge3 Mn2 2.756630 1_555
