# generated using pymatgen
data_Ba2MgFeMoO6
_symmetry_space_group_name_H-M   'P 1'
_cell_length_a   6.09299751
_cell_length_b   6.66953917
_cell_length_c   6.63914223
_cell_angle_alpha   125.48843103
_cell_angle_beta   117.30256846
_cell_angle_gamma   90.00154272
_symmetry_Int_Tables_number   1
_chemical_formula_structural   Ba2MgFeMoO6
_chemical_formula_sum   'Ba2 Mg1 Fe1 Mo1 O6'
_cell_volume   181.50104533
_cell_formula_units_Z   1
loop_
 _symmetry_equiv_pos_site_id
 _symmetry_equiv_pos_as_xyz
  1  'x, y, z'
loop_
 _atom_site_type_symbol
 _atom_site_label
 _atom_site_symmetry_multiplicity
 _atom_site_fract_x
 _atom_site_fract_y
 _atom_site_fract_z
 _atom_site_occupancy
  Ba  Ba0  1  0.80709600  0.19195055  0.61561320  1
  Ba  Ba1  1  0.22267098  0.77932171  0.44649825  1
  Mg  Mg0  1  0.60141218  0.40055796  0.20243999  1
  Fe  Fe0  1  0.00295253  -0.00226171  0.00537776  1
  Mo  Mo0  1  0.41832289  0.57955734  0.83708938  1
  O  O0  1  0.77935479  0.76127353  0.55813336  1
  O  O1  1  0.24147735  0.20769125  0.48236299  1
  O  O2  1  0.78965969  0.75753956  0.02968431  1
  O  O3  1  0.24002659  0.75811288  0.02988703  1
  O  O4  1  0.24165670  0.22061615  0.02111410  1
  O  O5  1  0.78037132  0.22063979  0.02180063  1
loop_
_geom_bond_atom_site_label_1
_geom_bond_atom_site_label_2
_geom_bond_distance
_geom_bond_site_symmetry_2
Ba0 O0 2.663279 1_545
Ba0 O5 2.671934 1_556
Ba0 O4 2.675466 1_656
Ba0 O1 3.159374 1_555
Ba0 O2 3.166352 1_556
Ba0 O3 3.168842 1_545
Ba0 O1 3.170867 1_655
Ba0 O3 3.172797 1_656
Ba0 O2 3.173796 1_545
Ba1 O1 2.723512 1_565
Ba1 O2 2.734079 1_455
Ba1 O3 2.737823 1_555
Ba1 O4 3.128593 1_566
Ba1 O0 3.130498 1_455
Ba1 O5 3.136674 1_566
Ba1 O0 3.141019 1_555
Ba1 O5 3.150719 1_455
Ba1 O4 3.155247 1_555
Ba1 Mo0 3.331146 1_555
Mg0 O0 1.895968 1_555
Mg0 O4 1.896297 1_555
Mg0 O5 1.896313 1_555
Fe0 O5 2.002203 1_455
Fe0 O0 2.002930 1_444
Fe0 O4 2.004019 1_555
Fe0 O1 2.174978 1_555
Fe0 O3 2.180296 1_545
Fe0 O2 2.184922 1_445
Mo0 O3 1.934595 1_556
Mo0 O2 1.935649 1_556
Mo0 O1 1.936164 1_555
