# generated using pymatgen
data_MgCo6O7F5
_symmetry_space_group_name_H-M   'P 1'
_cell_length_a   5.06918414
_cell_length_b   5.07262657
_cell_length_c   8.63123388
_cell_angle_alpha   89.00549230
_cell_angle_beta   89.60132759
_cell_angle_gamma   99.33799148
_symmetry_Int_Tables_number   1
_chemical_formula_structural   MgCo6O7F5
_chemical_formula_sum   'Mg1 Co6 O7 F5'
_cell_volume   218.95935794
_cell_formula_units_Z   1
loop_
 _symmetry_equiv_pos_site_id
 _symmetry_equiv_pos_as_xyz
  1  'x, y, z'
loop_
 _atom_site_type_symbol
 _atom_site_label
 _atom_site_symmetry_multiplicity
 _atom_site_fract_x
 _atom_site_fract_y
 _atom_site_fract_z
 _atom_site_occupancy
  Mg  Mg0  1  0.49081263  0.98738026  0.82905760  1
  Co  Co0  1  0.98622910  0.02546742  0.02005950  1
  Co  Co1  1  0.02975776  0.03021462  0.33015981  1
  Co  Co2  1  0.00532557  0.97051344  0.64054220  1
  Co  Co3  1  0.56245991  0.45447054  0.15685057  1
  Co  Co4  1  0.48724885  0.48769914  0.82871943  1
  Co  Co5  1  0.42839260  0.54794410  0.50082880  1
  O  O0  1  0.16342583  0.78675201  0.50240205  1
  O  O1  1  0.34968134  0.32202798  0.32947816  1
  O  O2  1  0.36255155  0.23977067  0.98256774  1
  O  O3  1  0.34077071  0.26229806  0.67293164  1
  O  O4  1  0.62469090  0.73458606  0.67182889  1
  O  O5  1  0.63651548  0.71410785  0.98908529  1
  O  O6  1  0.84235869  0.22538030  0.15450869  1
  F  F0  1  0.15578330  0.80664543  0.16311992  1
  F  F1  1  0.12779279  0.78548055  0.83702605  1
  F  F2  1  0.68720954  0.73829873  0.32617632  1
  F  F3  1  0.85303918  0.18726517  0.82182055  1
  F  F4  1  0.85206627  0.20758767  0.49997380  1
loop_
_geom_bond_atom_site_label_1
_geom_bond_atom_site_label_2
_geom_bond_distance
_geom_bond_site_symmetry_2
Mg0 O2 2.033337 1_565
Mg0 O4 2.067996 1_555
Mg0 O3 2.152310 1_565
Mg0 O5 2.157521 1_555
Co0 O6 1.782134 1_555
Co0 F0 1.942252 1_645
Co0 F3 2.050438 1_554
Co0 O2 2.057136 1_654
Co0 O5 2.195753 1_544
Co0 F1 2.197090 1_644
Co1 O1 2.010425 1_555
Co1 F0 2.012957 1_545
Co1 F4 2.014844 1_455
Co1 F2 2.092197 1_445
Co1 O0 2.101511 1_545
Co1 O6 2.110493 1_455
Co2 O0 1.789011 1_555
Co2 F4 1.946150 1_465
Co2 F1 2.071458 1_555
Co2 O3 2.089160 1_565
Co2 O4 2.111953 1_455
Co2 F3 2.138068 1_465
Co3 O1 1.882169 1_555
Co3 O5 1.933412 1_554
Co3 O6 1.974718 1_555
Co3 O2 2.048370 1_554
Co3 F2 2.097425 1_555
Co4 O2 1.848494 1_555
Co4 O3 1.859694 1_555
Co4 O4 1.879475 1_555
Co4 O5 1.896099 1_555
Co4 F1 2.549946 1_555
Co5 O1 1.891692 1_555
Co5 O0 1.949375 1_555
Co5 O4 1.956567 1_555
Co5 O3 2.051988 1_555
Co5 F2 2.106416 1_555
F1 Mg0 1.955559 1_555
F3 Mg0 1.948232 1_545
