# generated using pymatgen
data_MgNi2(BiO3)2
_symmetry_space_group_name_H-M   'P 1'
_cell_length_a   6.33819054
_cell_length_b   6.33480081
_cell_length_c   6.33397483
_cell_angle_alpha   52.55829081
_cell_angle_beta   52.47655884
_cell_angle_gamma   52.47127289
_symmetry_Int_Tables_number   1
_chemical_formula_structural   MgNi2(BiO3)2
_chemical_formula_sum   'Mg1 Ni2 Bi2 O6'
_cell_volume   148.17513518
_cell_formula_units_Z   1
loop_
 _symmetry_equiv_pos_site_id
 _symmetry_equiv_pos_as_xyz
  1  'x, y, z'
loop_
 _atom_site_type_symbol
 _atom_site_label
 _atom_site_symmetry_multiplicity
 _atom_site_fract_x
 _atom_site_fract_y
 _atom_site_fract_z
 _atom_site_occupancy
  Mg  Mg0  1  0.15075700  0.15241900  0.15250700  1
  Ni  Ni0  1  0.98271600  0.98237600  0.98005700  1
  Ni  Ni1  1  0.54989300  0.54918100  0.54876500  1
  Bi  Bi0  1  0.33578700  0.33603200  0.33510500  1
  Bi  Bi1  1  0.79460300  0.79536000  0.79492700  1
  O  O0  1  0.21363700  0.90153800  0.57435200  1
  O  O1  1  0.90135800  0.57625900  0.21143000  1
  O  O2  1  0.57854600  0.21257500  0.89966200  1
  O  O3  1  0.09089300  0.33796900  0.77755900  1
  O  O4  1  0.77680400  0.09150000  0.33821100  1
  O  O5  1  0.33825500  0.77804200  0.09025200  1
loop_
_geom_bond_atom_site_label_1
_geom_bond_atom_site_label_2
_geom_bond_distance
_geom_bond_site_symmetry_2
Mg0 O4 2.077626 1_455
Mg0 O5 2.079616 1_545
Mg0 O3 2.079880 1_554
Mg0 O1 2.275063 1_455
Mg0 O0 2.277324 1_545
Mg0 O2 2.299745 1_554
Ni0 O3 2.118213 1_665
Ni0 O5 2.122394 1_656
Ni0 O4 2.128011 1_566
Ni0 O2 2.254582 1_565
Ni0 O0 2.261230 1_655
Ni0 O1 2.267957 1_556
Ni1 O0 1.942716 1_555
Ni1 O2 1.943464 1_555
Ni1 O1 1.943943 1_555
Bi0 O4 2.228901 1_555
Bi0 O3 2.232257 1_555
Bi0 O5 2.233699 1_555
Bi0 O0 2.562641 1_545
Bi0 O2 2.563830 1_554
Bi0 O1 2.565977 1_455
Bi1 O5 2.328808 1_556
Bi1 O3 2.332559 1_655
Bi1 O4 2.332723 1_565
Bi1 O2 2.432371 1_565
Bi1 O1 2.433532 1_556
Bi1 O0 2.443740 1_655
