# generated using pymatgen
data_Ba2SmMgSbO6
_symmetry_space_group_name_H-M   'P 1'
_cell_length_a   6.67665661
_cell_length_b   6.67665651
_cell_length_c   6.33776700
_cell_angle_alpha   61.66530807
_cell_angle_beta   61.66530849
_cell_angle_gamma   55.68833393
_symmetry_Int_Tables_number   1
_chemical_formula_structural   Ba2SmMgSbO6
_chemical_formula_sum   'Ba2 Sm1 Mg1 Sb1 O6'
_cell_volume   196.89256418
_cell_formula_units_Z   1
loop_
 _symmetry_equiv_pos_site_id
 _symmetry_equiv_pos_as_xyz
  1  'x, y, z'
loop_
 _atom_site_type_symbol
 _atom_site_label
 _atom_site_symmetry_multiplicity
 _atom_site_fract_x
 _atom_site_fract_y
 _atom_site_fract_z
 _atom_site_occupancy
  Ba  Ba0  1  0.80762800  0.80762800  0.69237200  1
  Ba  Ba1  1  0.19237200  0.19237200  0.30762800  1
  Sm  Sm0  1  0.00000000  0.00000000  0.00000000  1
  Mg  Mg0  1  0.50000000  0.50000000  0.00000000  1
  Sb  Sb0  1  0.50000000  0.50000000  0.50000000  1
  O  O0  1  0.27144000  0.72856000  0.76646200  1
  O  O1  1  0.27144000  0.72856000  0.23353800  1
  O  O2  1  0.72856000  0.27144000  0.76646200  1
  O  O3  1  0.24620900  0.24620900  0.75379100  1
  O  O4  1  0.72856000  0.27144000  0.23353800  1
  O  O5  1  0.75379100  0.75379100  0.24620900  1
loop_
_geom_bond_atom_site_label_1
_geom_bond_atom_site_label_2
_geom_bond_distance
_geom_bond_site_symmetry_2
Ba0 O2 3.064437 1_565
Ba0 O0 3.064437 1_655
Ba0 O4 3.064437 1_565
Ba0 O1 3.064437 1_655
Ba0 Mg0 3.064640 1_556
Ba0 O3 3.177915 1_655
Ba0 O3 3.177915 1_565
Ba0 O5 3.213950 1_555
Ba0 O5 3.213950 1_556
Ba1 O1 3.064437 1_545
Ba1 O4 3.064437 1_455
Ba1 O0 3.064437 1_545
Ba1 O2 3.064437 1_455
Ba1 Mg0 3.064640 1_555
Ba1 O5 3.177915 1_455
Ba1 O5 3.177915 1_545
Ba1 O3 3.213950 1_555
Ba1 O3 3.213950 1_554
Mg0 O1 2.054945 1_555
Mg0 O0 2.054945 1_554
Mg0 O4 2.054945 1_555
Mg0 O2 2.054945 1_554
O0 Sb0 2.209985 1_555
O0 Sm0 2.248732 1_566
O1 Sb0 2.209985 1_555
O1 Sm0 2.248732 1_565
O2 Sb0 2.209985 1_555
O2 Sm0 2.248732 1_656
O3 Sm0 2.452774 1_556
O3 Sb0 2.528307 1_555
O4 Sb0 2.209985 1_555
O4 Sm0 2.248732 1_655
O5 Sm0 2.452774 1_665
O5 Sb0 2.528307 1_555
