# generated using pymatgen
data_Sr4MgMn2Cu2(SO3)2
_symmetry_space_group_name_H-M   'P 1'
_cell_length_a   3.94772637
_cell_length_b   3.94768519
_cell_length_c   18.87978566
_cell_angle_alpha   90.00000000
_cell_angle_beta   90.00000000
_cell_angle_gamma   90.00000000
_symmetry_Int_Tables_number   1
_chemical_formula_structural   Sr4MgMn2Cu2(SO3)2
_chemical_formula_sum   'Sr4 Mg1 Mn2 Cu2 S2 O6'
_cell_volume   294.22977151
_cell_formula_units_Z   1
loop_
 _symmetry_equiv_pos_site_id
 _symmetry_equiv_pos_as_xyz
  1  'x, y, z'
loop_
 _atom_site_type_symbol
 _atom_site_label
 _atom_site_symmetry_multiplicity
 _atom_site_fract_x
 _atom_site_fract_y
 _atom_site_fract_z
 _atom_site_occupancy
  Sr  Sr0  1  0.75000000  0.75000000  0.25491507  1
  Sr  Sr1  1  0.25000000  0.25000000  0.78373999  1
  Sr  Sr2  1  0.75000000  0.75000000  0.44917241  1
  Sr  Sr3  1  0.25000000  0.25000000  0.58997090  1
  Mg  Mg0  1  0.75000000  0.75000000  0.06007423  1
  Mn  Mn0  1  0.25000000  0.25000000  0.35090072  1
  Mn  Mn1  1  0.75000000  0.75000000  0.68509117  1
  Cu  Cu0  1  0.75000000  0.25000000  0.94691125  1
  Cu  Cu1  1  0.25000000  0.75000000  0.94691129  1
  S  S0  1  0.25000000  0.25000000  0.03099863  1
  S  S1  1  0.75000000  0.75000000  0.87569784  1
  O  O0  1  0.75000000  0.25000000  0.32677829  1
  O  O1  1  0.25000000  0.75000000  0.32677748  1
  O  O2  1  0.25000000  0.75000000  0.70391264  1
  O  O3  1  0.75000000  0.25000000  0.70391181  1
  O  O4  1  0.25000000  0.25000000  0.45943007  1
  O  O5  1  0.75000000  0.75000000  0.57563920  1
loop_
_geom_bond_atom_site_label_1
_geom_bond_atom_site_label_2
_geom_bond_distance
_geom_bond_site_symmetry_2
Mg0 S0 2.844912 1_565
Mg0 S0 2.844912 1_655
Mg0 S0 2.844912 1_665
Mg0 S0 2.844912 1_555
Mg0 Sr0 3.678553 1_555
Mn0 O1 2.025705 1_545
Mn0 O1 2.025705 1_555
Mn0 O0 2.025722 1_455
Mn0 O0 2.025722 1_555
Mn0 O4 2.049011 1_555
Mn1 O3 2.005571 1_555
Mn1 O3 2.005571 1_565
Mn1 O2 2.005594 1_655
Mn1 O2 2.005594 1_555
Mn1 O5 2.066430 1_555
Cu0 S1 2.388246 1_545
Cu0 S1 2.388246 1_555
Cu0 S0 2.533073 1_556
Cu0 S0 2.533073 1_656
Cu0 Mg0 2.908721 1_556
Cu0 Mg0 2.908721 1_546
Cu1 S1 2.388263 1_455
Cu1 S1 2.388263 1_555
Cu1 S0 2.533056 1_556
Cu1 S0 2.533056 1_566
Cu1 Mg0 2.908734 1_456
Cu1 Mg0 2.908734 1_556
S1 Sr1 3.287307 1_665
S1 Sr1 3.287307 1_655
S1 Sr1 3.287307 1_555
S1 Sr1 3.287307 1_565
O0 Sr0 2.395174 1_555
O0 Sr0 2.395174 1_545
O0 Sr2 3.039035 1_545
O0 Sr2 3.039035 1_555
O1 Sr0 2.395182 1_455
O1 Sr0 2.395182 1_555
O1 Sr2 3.039060 1_455
O1 Sr2 3.039060 1_555
O2 Sr1 2.483440 1_565
O2 Sr1 2.483440 1_555
O2 Sr3 2.919537 1_565
O2 Sr3 2.919537 1_555
O3 Sr1 2.483466 1_555
O3 Sr1 2.483466 1_655
O3 Sr3 2.919540 1_655
O3 Sr3 2.919540 1_555
O4 Sr3 2.464583 1_555
O4 Sr2 2.798159 1_555
O4 Sr2 2.798159 1_545
O4 Sr2 2.798159 1_445
O4 Sr2 2.798159 1_455
O5 Sr2 2.387666 1_555
O5 Sr3 2.804533 1_655
O5 Sr3 2.804533 1_665
O5 Sr3 2.804533 1_555
O5 Sr3 2.804533 1_565
