# generated using pymatgen
data_SrEu2Fe2O7
_symmetry_space_group_name_H-M   'P 1'
_cell_length_a   5.43258033
_cell_length_b   5.42326789
_cell_length_c   10.34771982
_cell_angle_alpha   90.00000000
_cell_angle_beta   74.78146613
_cell_angle_gamma   90.00000000
_symmetry_Int_Tables_number   1
_chemical_formula_structural   SrEu2Fe2O7
_chemical_formula_sum   'Sr2 Eu4 Fe4 O14'
_cell_volume   294.17679952
_cell_formula_units_Z   2
loop_
 _symmetry_equiv_pos_site_id
 _symmetry_equiv_pos_as_xyz
  1  'x, y, z'
loop_
 _atom_site_type_symbol
 _atom_site_label
 _atom_site_symmetry_multiplicity
 _atom_site_fract_x
 _atom_site_fract_y
 _atom_site_fract_z
 _atom_site_occupancy
  Sr  Sr0  1  0.24845034  0.25000000  0.00000000  1
  Sr  Sr1  1  0.75154966  0.75000000  0.00000000  1
  Eu  Eu0  1  0.06136356  0.25000000  0.36599189  1
  Eu  Eu1  1  0.57264355  0.75000000  0.36599189  1
  Eu  Eu2  1  0.42735645  0.25000000  0.63400811  1
  Eu  Eu3  1  0.93863644  0.75000000  0.63400811  1
  Fe  Fe0  1  0.84687260  0.25000000  0.80464254  1
  Fe  Fe1  1  0.34848486  0.75000000  0.80464254  1
  Fe  Fe2  1  0.65151514  0.25000000  0.19535746  1
  Fe  Fe3  1  0.15312740  0.75000000  0.19535746  1
  O  O0  1  0.73821796  0.25000000  0.00000000  1
  O  O1  1  0.26178204  0.75000000  0.00000000  1
  O  O2  1  0.60271145  -0.00000000  0.79457810  1
  O  O3  1  0.60271145  0.50000000  0.79457810  1
  O  O4  1  0.39728855  0.50000000  0.20542190  1
  O  O5  1  0.39728855  0.00000000  0.20542190  1
  O  O6  1  0.90224623  -0.00000000  0.19550753  1
  O  O7  1  0.90224623  0.50000000  0.19550753  1
  O  O8  1  0.09775377  0.50000000  0.80449247  1
  O  O9  1  0.09775377  0.00000000  0.80449247  1
  O  O10  1  0.96603855  0.25000000  0.59997849  1
  O  O11  1  0.43398296  0.75000000  0.59997849  1
  O  O12  1  0.56601704  0.25000000  0.40002151  1
  O  O13  1  0.03396145  0.75000000  0.40002151  1
loop_
_geom_bond_atom_site_label_1
_geom_bond_atom_site_label_2
_geom_bond_distance
_geom_bond_site_symmetry_2
Eu0 O10 2.339283 1_455
Eu0 O4 2.517424 1_555
Eu0 O5 2.517424 1_555
Eu0 O6 2.549155 1_455
Eu0 O7 2.549155 1_455
Eu0 O12 2.620696 1_455
Eu0 O13 2.733422 1_555
Eu0 O13 2.733422 1_545
Eu0 O12 2.854301 1_555
Eu1 O11 2.339283 1_555
Eu1 O5 2.517424 1_565
Eu1 O4 2.517424 1_555
Eu1 O6 2.549158 1_565
Eu1 O7 2.549158 1_555
Eu1 O13 2.620701 1_655
Eu1 O12 2.733422 1_565
Eu1 O12 2.733422 1_555
Eu1 O13 2.854296 1_555
Eu2 O12 2.339283 1_555
Eu2 O2 2.517424 1_555
Eu2 O3 2.517424 1_555
Eu2 O9 2.549158 1_555
Eu2 O8 2.549158 1_555
Eu2 O10 2.620701 1_455
Eu2 O11 2.733422 1_555
Eu2 O11 2.733422 1_545
Eu2 O10 2.854296 1_555
Eu3 O13 2.339283 1_655
Eu3 O2 2.517424 1_565
Eu3 O3 2.517424 1_555
Eu3 O9 2.549155 1_665
Eu3 O8 2.549155 1_655
Eu3 O11 2.620696 1_655
Eu3 O10 2.733422 1_565
Eu3 O10 2.733422 1_555
Eu3 O11 2.854301 1_555
Fe0 O2 1.918597 1_555
Fe0 O3 1.918597 1_555
Fe0 O8 1.922164 1_655
Fe0 O9 1.922164 1_655
Fe0 O0 1.951525 1_556
Fe0 O10 2.045584 1_555
Fe1 O2 1.918600 1_565
Fe1 O3 1.918600 1_555
Fe1 O8 1.922164 1_555
Fe1 O9 1.922164 1_565
Fe1 O1 1.951525 1_556
Fe1 O11 2.045584 1_555
Fe2 O4 1.918600 1_555
Fe2 O5 1.918600 1_555
Fe2 O6 1.922164 1_555
Fe2 O7 1.922164 1_555
Fe2 O0 1.951525 1_555
Fe2 O12 2.045584 1_555
Fe3 O5 1.918597 1_565
Fe3 O4 1.918597 1_555
Fe3 O6 1.922164 1_465
Fe3 O7 1.922164 1_455
Fe3 O1 1.951525 1_555
Fe3 O13 2.045584 1_555
O0 Sr0 2.660702 1_555
O0 Sr1 2.712601 1_555
O0 Sr1 2.712601 1_545
O0 Sr0 2.771878 1_655
O1 Sr1 2.660702 1_555
O1 Sr0 2.712601 1_565
O1 Sr0 2.712601 1_555
O1 Sr1 2.771878 1_455
O2 Sr1 2.812963 1_546
O2 Sr0 2.812966 1_556
O3 Sr1 2.812963 1_556
O3 Sr0 2.812966 1_556
O4 Sr0 2.812963 1_555
O4 Sr1 2.812966 1_555
O5 Sr0 2.812963 1_555
O5 Sr1 2.812966 1_545
O6 Sr1 2.733266 1_545
O6 Sr0 2.733266 1_655
O7 Sr1 2.733266 1_555
O7 Sr0 2.733266 1_655
O8 Sr0 2.733266 1_556
O8 Sr1 2.733266 1_456
O9 Sr0 2.733266 1_556
O9 Sr1 2.733266 1_446
