# generated using pymatgen
data_Na14Sc4Si9Ge4(SO16)3
_symmetry_space_group_name_H-M   'P 1'
_cell_length_a   18.00157910
_cell_length_b   8.96796130
_cell_length_c   21.98960215
_cell_angle_alpha   89.98900269
_cell_angle_beta   89.07305354
_cell_angle_gamma   119.99594888
_symmetry_Int_Tables_number   1
_chemical_formula_structural   Na14Sc4Si9Ge4(SO16)3
_chemical_formula_sum   'Na42 Sc12 Si27 Ge12 S9 O144'
_cell_volume   3073.92572113
_cell_formula_units_Z   3
loop_
 _symmetry_equiv_pos_site_id
 _symmetry_equiv_pos_as_xyz
  1  'x, y, z'
loop_
 _atom_site_type_symbol
 _atom_site_label
 _atom_site_symmetry_multiplicity
 _atom_site_fract_x
 _atom_site_fract_y
 _atom_site_fract_z
 _atom_site_occupancy
  Na  Na0  1  0.82044417  0.01176902  0.25392105  1
  Na  Na1  1  0.17742414  0.35683357  0.25609514  1
  Na  Na2  1  0.69094164  0.37173424  0.25432832  1
  Na  Na3  1  0.00012903  0.63041433  0.24748034  1
  Na  Na4  1  0.49913749  0.63762044  0.25029806  1
  Na  Na5  1  0.31948937  0.62645269  0.74981394  1
  Na  Na6  1  0.99696065  0.35877857  0.74151995  1
  Na  Na7  1  0.50163564  0.37208733  0.74376760  1
  Na  Na8  1  0.18925800  0.00857990  0.74967728  1
  Na  Na9  1  0.68154943  0.00182509  0.74920246  1
  Na  Na10  1  0.14789206  0.32479406  0.58080988  1
  Na  Na11  1  0.65607170  0.33194495  0.58182788  1
  Na  Na12  1  0.33605904  0.98400912  0.58687976  1
  Na  Na13  1  0.83383328  0.97218346  0.58313862  1
  Na  Na14  1  0.15088186  0.97368957  0.07906451  1
  Na  Na15  1  0.65188024  0.97309120  0.07856315  1
  Na  Na16  1  0.33257195  0.69362573  0.08104923  1
  Na  Na17  1  0.83618777  0.68981500  0.08737254  1
  Na  Na18  1  0.47803627  0.67324603  0.91608882  1
  Na  Na19  1  0.97747321  0.67587541  0.92312328  1
  Na  Na20  1  0.34677438  0.02854860  0.90768134  1
  Na  Na21  1  0.84760297  0.02885368  0.91060376  1
  Na  Na22  1  0.17107931  0.29182768  0.90917146  1
  Na  Na23  1  0.66785588  0.28318356  0.90988637  1
  Na  Na24  1  0.48071921  0.28719607  0.42718281  1
  Na  Na25  1  0.97638535  0.28014692  0.42082290  1
  Na  Na26  1  0.16737579  0.05374351  0.41388884  1
  Na  Na27  1  0.67300361  0.04966671  0.41638976  1
  Na  Na28  1  0.34905622  0.66752557  0.41436202  1
  Na  Na29  1  0.84760393  0.66449726  0.41863423  1
  Na  Na30  1  0.99782402  0.99402336  0.50313009  1
  Na  Na31  1  0.50441498  0.00629482  0.50587058  1
  Na  Na32  1  0.00148872  0.99763520  0.00396072  1
  Na  Na33  1  0.50249412  0.00037419  0.00012151  1
  Na  Na34  1  0.32899880  0.33404915  0.82687998  1
  Na  Na35  1  0.82320058  0.33405114  0.82684767  1
  Na  Na36  1  0.32393777  0.31170609  0.33249350  1
  Na  Na37  1  0.82906500  0.32320774  0.33201460  1
  Na  Na38  1  0.15913681  0.65627699  0.16650635  1
  Na  Na39  1  0.66494224  0.65954223  0.16643758  1
  Na  Na40  1  0.16280663  0.66898609  0.66450360  1
  Na  Na41  1  0.66375709  0.66418582  0.66543715  1
  Sc  Sc0  1  0.00280024  0.01223934  0.35236535  1
  Sc  Sc1  1  0.50004440  0.00242842  0.35383190  1
  Sc  Sc2  1  0.99791929  0.99786390  0.85094715  1
  Sc  Sc3  1  0.50319564  0.99410847  0.85138316  1
  Sc  Sc4  1  0.33659438  0.32313717  0.68332403  1
  Sc  Sc5  1  0.83709153  0.34948481  0.18441785  1
  Sc  Sc6  1  0.32582636  0.33513560  0.98358163  1
  Sc  Sc7  1  0.82259334  0.33913890  0.98329629  1
  Sc  Sc8  1  0.32539698  0.30951585  0.48318504  1
  Sc  Sc9  1  0.82764812  0.32933772  0.48660764  1
  Sc  Sc10  1  0.67645973  0.67917701  0.31299011  1
  Sc  Sc11  1  0.17577414  0.67245359  0.81002466  1
  Si  Si0  1  0.15689056  0.00452075  0.24954975  1
  Si  Si1  1  0.64629996  0.99668051  0.24928187  1
  Si  Si2  1  0.35703105  0.71439478  0.24774985  1
  Si  Si3  1  0.85990667  0.71948025  0.24829447  1
  Si  Si4  1  0.00373859  0.29658453  0.25153630  1
  Si  Si5  1  0.14234470  0.28757938  0.74695724  1
  Si  Si6  1  0.65564073  0.30911917  0.75150649  1
  Si  Si7  1  0.50366238  0.71113645  0.75213423  1
  Si  Si8  1  0.35987236  0.00041789  0.74861507  1
  Si  Si9  1  0.85644074  0.00974341  0.74775905  1
  Si  Si10  1  0.48721927  0.33440323  0.58218530  1
  Si  Si11  1  0.98060881  0.34142229  0.58338986  1
  Si  Si12  1  0.17647048  0.01920097  0.58444059  1
  Si  Si13  1  0.67851019  0.02192697  0.58418218  1
  Si  Si14  1  0.84045889  0.62950341  0.58500321  1
  Si  Si15  1  0.48026475  0.62137259  0.08436097  1
  Si  Si16  1  0.98674775  0.63832648  0.08187116  1
  Si  Si17  1  0.17805819  0.33478427  0.08428947  1
  Si  Si18  1  0.67372356  0.33076831  0.08543242  1
  Si  Si19  1  0.31110116  0.67001080  0.92031921  1
  Si  Si20  1  0.80308907  0.66521007  0.91594351  1
  Si  Si21  1  0.16616980  0.95451591  0.91717897  1
  Si  Si22  1  0.66803752  0.94540717  0.91738624  1
  Si  Si23  1  0.30328650  0.94199074  0.41553669  1
  Si  Si24  1  0.81278054  0.95723489  0.42047845  1
  Si  Si25  1  0.16810715  0.39063099  0.41676082  1
  Si  Si26  1  0.66698018  0.37725223  0.41749396  1
  Ge  Ge0  1  0.99655385  0.00996171  0.64307317  1
  Ge  Ge1  1  0.51570722  0.02772533  0.65584979  1
  Ge  Ge2  1  0.01534128  0.00482417  0.15599172  1
  Ge  Ge3  1  0.50457187  0.98295537  0.14879038  1
  Ge  Ge4  1  0.82468516  0.31267086  0.67796895  1
  Ge  Ge5  1  0.32635361  0.35549378  0.18214192  1
  Ge  Ge6  1  0.16147714  0.66066542  0.01905084  1
  Ge  Ge7  1  0.66080647  0.65726950  0.02001895  1
  Ge  Ge8  1  0.16048109  0.66393196  0.51953402  1
  Ge  Ge9  1  0.67734232  0.66019679  0.52796684  1
  Ge  Ge10  1  0.17970733  0.67651282  0.30569186  1
  Ge  Ge11  1  0.68057603  0.68618853  0.80486298  1
  S  S0  1  0.49430295  0.28449223  0.24747345  1
  S  S1  1  0.99565065  0.70285225  0.74918496  1
  S  S2  1  0.33367791  0.63260589  0.58129654  1
  S  S3  1  0.33588002  0.04519756  0.08484284  1
  S  S4  1  0.83395344  0.03490519  0.08120651  1
  S  S5  1  0.02144086  0.37772265  0.91893030  1
  S  S6  1  0.52381791  0.38128778  0.91777183  1
  S  S7  1  0.02578624  0.66567162  0.41506045  1
  S  S8  1  0.52160998  0.66529914  0.41831839  1
  O  O0  1  0.12170513  0.05854990  0.30897703  1
  O  O1  1  0.60437271  0.03433034  0.30919229  1
  O  O2  1  0.41424236  0.78657422  0.30736589  1
  O  O3  1  0.91611162  0.80138640  0.30852105  1
  O  O4  1  0.48465867  0.19161119  0.30565174  1
  O  O5  1  0.98501752  0.18853668  0.31440974  1
  O  O6  1  0.10433487  0.17663548  0.81045463  1
  O  O7  1  0.61625158  0.18746494  0.81186196  1
  O  O8  1  0.48442086  0.77863620  0.81597973  1
  O  O9  1  0.98688569  0.77863526  0.80793296  1
  O  O10  1  0.41320328  0.02662974  0.81043021  1
  O  O11  1  0.91144141  0.04799873  0.80969204  1
  O  O12  1  0.41105193  0.97403758  0.68952355  1
  O  O13  1  0.90331884  0.98141722  0.68885953  1
  O  O14  1  0.07885669  0.18420065  0.68992121  1
  O  O15  1  0.59152519  0.22747074  0.69243695  1
  O  O16  1  0.00854708  0.81595112  0.69742008  1
  O  O17  1  0.52725894  0.85871476  0.69849287  1
  O  O18  1  0.40322234  0.83465112  0.18654280  1
  O  O19  1  0.91061718  0.84703364  0.18795920  1
  O  O20  1  0.02832769  0.19865606  0.19707876  1
  O  O21  1  0.50604071  0.19386325  0.19508748  1
  O  O22  1  0.09362996  0.95986590  0.19005498  1
  O  O23  1  0.58430463  0.96541686  0.18934263  1
  O  O24  1  0.44449101  0.36280389  0.64257443  1
  O  O25  1  0.93237736  0.36493338  0.64421209  1
  O  O26  1  0.24140920  0.10043247  0.64118141  1
  O  O27  1  0.74538168  0.11076802  0.64202837  1
  O  O28  1  0.32304811  0.52734945  0.63585333  1
  O  O29  1  0.81650106  0.48313160  0.63867221  1
  O  O30  1  0.43044685  0.49736237  0.14493371  1
  O  O31  1  0.94585376  0.52580544  0.14251584  1
  O  O32  1  0.32416093  0.13769766  0.13666895  1
  O  O33  1  0.82304616  0.11822493  0.13566431  1
  O  O34  1  0.24713158  0.38566174  0.14138346  1
  O  O35  1  0.73803952  0.37555498  0.14184232  1
  O  O36  1  0.21705366  0.28585157  0.02562704  1
  O  O37  1  0.71138040  0.28009111  0.02496381  1
  O  O38  1  0.42169883  0.54193355  0.02580354  1
  O  O39  1  0.92479657  0.55332073  0.02290273  1
  O  O40  1  0.34509063  0.13613653  0.02689822  1
  O  O41  1  0.83932495  0.13392689  0.02573465  1
  O  O42  1  0.21626490  0.14418231  0.52391262  1
  O  O43  1  0.71595043  0.14815998  0.52501114  1
  O  O44  1  0.33957187  0.54541169  0.52575978  1
  O  O45  1  0.85519114  0.56347912  0.52029531  1
  O  O46  1  0.42387547  0.29202599  0.52358775  1
  O  O47  1  0.92331220  0.30260545  0.52410531  1
  O  O48  1  0.25859142  0.68986677  0.98060496  1
  O  O49  1  0.75794055  0.69063629  0.97844907  1
  O  O50  1  0.07646181  0.46021431  0.97309474  1
  O  O51  1  0.57667053  0.46265285  0.97308478  1
  O  O52  1  0.15281865  0.82990395  0.97774540  1
  O  O53  1  0.65041592  0.82418838  0.97981183  1
  O  O54  1  0.25761812  0.82417869  0.47728912  1
  O  O55  1  0.76109441  0.83090096  0.47987486  1
  O  O56  1  0.15091566  0.47781461  0.47838692  1
  O  O57  1  0.65592555  0.47581242  0.47789503  1
  O  O58  1  0.07753357  0.69037817  0.47065059  1
  O  O59  1  0.57501090  0.68663470  0.46976504  1
  O  O60  1  0.06508354  0.64389055  0.35925785  1
  O  O61  1  0.55723964  0.64333494  0.35968670  1
  O  O62  1  0.24292075  0.85583591  0.35599584  1
  O  O63  1  0.75668490  0.87913192  0.35867301  1
  O  O64  1  0.18115531  0.50650294  0.35426574  1
  O  O65  1  0.67358742  0.47939620  0.35434108  1
  O  O66  1  0.05974195  0.47724674  0.86301555  1
  O  O67  1  0.56092917  0.48309459  0.86219955  1
  O  O68  1  0.17614404  0.86723918  0.85518839  1
  O  O69  1  0.68065585  0.85361729  0.85611225  1
  O  O70  1  0.25397395  0.63256762  0.85959104  1
  O  O71  1  0.74211879  0.63101989  0.85709158  1
  O  O72  1  0.01903023  0.82465145  0.41333317  1
  O  O73  1  0.51161417  0.82227654  0.41592348  1
  O  O74  1  0.39844772  0.96120702  0.41320776  1
  O  O75  1  0.90553607  0.96371382  0.41997618  1
  O  O76  1  0.08490203  0.19682703  0.41745510  1
  O  O77  1  0.57951954  0.18496043  0.41949581  1
  O  O78  1  0.01362143  0.20449425  0.91743592  1
  O  O79  1  0.51752620  0.21005769  0.91612440  1
  O  O80  1  0.08056686  0.97616993  0.91910686  1
  O  O81  1  0.58487983  0.97239441  0.91820760  1
  O  O82  1  0.40382190  0.84690977  0.92182418  1
  O  O83  1  0.89868001  0.83645273  0.91373644  1
  O  O84  1  0.49596247  0.15767054  0.59043081  1
  O  O85  1  0.99236645  0.16813653  0.58913811  1
  O  O86  1  0.08329454  0.00903001  0.59371209  1
  O  O87  1  0.58596588  0.01542114  0.59558035  1
  O  O88  1  0.40797456  0.80641182  0.58302501  1
  O  O89  1  0.91923905  0.82699171  0.59475128  1
  O  O90  1  0.48894000  0.81716838  0.09029135  1
  O  O91  1  0.99710649  0.83369254  0.08923843  1
  O  O92  1  0.41053488  0.01840682  0.08926570  1
  O  O93  1  0.90823440  0.01015426  0.08246553  1
  O  O94  1  0.08606093  0.15713015  0.09493980  1
  O  O95  1  0.57717874  0.15380696  0.09485999  1
  O  O96  1  0.34626854  0.16672687  0.74645927  1
  O  O97  1  0.84465715  0.18230397  0.74016354  1
  O  O98  1  0.23921340  0.31849455  0.74043962  1
  O  O99  1  0.74708513  0.31204748  0.73931963  1
  O  O100  1  0.41901556  0.52448435  0.74266822  1
  O  O101  1  0.92024031  0.52923609  0.74631944  1
  O  O102  1  0.34587585  0.51659161  0.24144636  1
  O  O103  1  0.84629488  0.52588707  0.24531474  1
  O  O104  1  0.41829859  0.30683229  0.24332088  1
  O  O105  1  0.91941493  0.31366634  0.24187020  1
  O  O106  1  0.25138252  0.18283908  0.23419671  1
  O  O107  1  0.74195614  0.16047929  0.24164393  1
  O  O108  1  0.32391581  0.50153366  0.92307943  1
  O  O109  1  0.81518815  0.49453115  0.91840980  1
  O  O110  1  0.43669105  0.35841241  0.92539054  1
  O  O111  1  0.93549736  0.35839745  0.92637536  1
  O  O112  1  0.25491911  0.14167977  0.92092254  1
  O  O113  1  0.75613723  0.13465316  0.91995012  1
  O  O114  1  0.31547805  0.13659533  0.41771549  1
  O  O115  1  0.82520488  0.15009637  0.42316126  1
  O  O116  1  0.25595423  0.37774943  0.41904544  1
  O  O117  1  0.75417681  0.36369134  0.41862171  1
  O  O118  1  0.43330697  0.51096279  0.42351229  1
  O  O119  1  0.93953121  0.51171902  0.42025760  1
  O  O120  1  0.17440547  0.51370860  0.07673476  1
  O  O121  1  0.66992956  0.51007117  0.07485403  1
  O  O122  1  0.08561360  0.66408555  0.07572466  1
  O  O123  1  0.57911771  0.65486122  0.08054367  1
  O  O124  1  0.25551891  0.86995326  0.08529778  1
  O  O125  1  0.75233933  0.85816273  0.08089301  1
  O  O126  1  0.17265400  0.83206047  0.57406689  1
  O  O127  1  0.67498039  0.83640246  0.57766684  1
  O  O128  1  0.25220187  0.64500425  0.58088651  1
  O  O129  1  0.75103514  0.64504866  0.58382374  1
  O  O130  1  0.08014289  0.50775959  0.57884917  1
  O  O131  1  0.58475474  0.50314428  0.57620290  1
  O  O132  1  0.15778147  0.82246444  0.25498207  1
  O  O133  1  0.64712785  0.81592680  0.24962981  1
  O  O134  1  0.25973616  0.68521420  0.24931854  1
  O  O135  1  0.76464290  0.70188663  0.24644124  1
  O  O136  1  0.09096417  0.49262650  0.25546673  1
  O  O137  1  0.57311410  0.45883964  0.24843007  1
  O  O138  1  0.14429497  0.47229385  0.74810854  1
  O  O139  1  0.65679126  0.49431179  0.75662894  1
  O  O140  1  0.07479488  0.68599215  0.75136772  1
  O  O141  1  0.59102289  0.69081342  0.75615783  1
  O  O142  1  0.26453328  0.82590569  0.74601979  1
  O  O143  1  0.75929527  0.83994329  0.75058325  1
loop_
_geom_bond_atom_site_label_1
_geom_bond_atom_site_label_2
_geom_bond_distance
_geom_bond_site_symmetry_2
Na0 O105 2.394976 1_555
Na0 O107 2.396669 1_555
Na0 O135 2.444038 1_545
Na0 O63 2.566411 1_545
Na0 O133 2.712629 1_545
Na0 O33 2.761558 1_555
Na0 O5 2.914031 1_555
Na1 O136 2.408622 1_555
Na1 O64 2.526238 1_555
Na1 O106 2.548709 1_555
Na1 O134 2.553402 1_555
Na1 O0 2.606184 1_555
Na1 O102 2.641223 1_555
Na1 O20 2.684521 1_555
Na1 O34 2.752682 1_555
Na2 O103 2.426461 1_555
Na2 O65 2.479242 1_555
Na2 O107 2.498380 1_555
Na2 O135 2.573180 1_555
Na2 O35 2.596417 1_555
Na2 O137 2.606065 1_555
Na2 O1 2.874477 1_555
Na3 O103 2.440999 1_455
Na3 O105 2.464633 1_455
Na3 O132 2.485098 1_555
Na3 O136 2.502208 1_555
Na3 O31 2.513855 1_455
Na3 O60 2.715718 1_555
Na3 O22 2.848546 1_555
Na3 O3 2.948540 1_455
Na4 O133 2.322428 1_555
Na4 O102 2.418897 1_555
Na4 O137 2.545343 1_555
Na4 O104 2.575330 1_555
Na4 O61 2.628776 1_555
Na4 O30 2.649138 1_555
Na4 O2 2.770288 1_555
Na4 O23 2.866080 1_555
Na5 O100 2.387454 1_555
Na5 O98 2.403630 1_555
Na5 O142 2.440698 1_555
Na5 O28 2.669523 1_555
Na5 O70 2.682113 1_555
Na5 O138 2.739216 1_555
Na5 O8 2.980539 1_555
Na5 O12 2.996898 1_555
Na6 O138 2.324774 1_655
Na6 O97 2.384666 1_555
Na6 O25 2.465334 1_555
Na6 O101 2.522226 1_555
Na6 O140 2.553433 1_655
Na6 O11 2.831708 1_555
Na6 O14 2.857683 1_655
Na6 O66 2.905492 1_655
Na7 O24 2.450540 1_555
Na7 O139 2.459089 1_555
Na7 O96 2.462110 1_555
Na7 O100 2.472657 1_555
Na7 O141 2.499834 1_555
Na7 O15 2.759400 1_555
Na7 O67 2.817986 1_555
Na8 O96 2.447565 1_555
Na8 O98 2.463595 1_555
Na8 O26 2.530886 1_555
Na8 O140 2.579443 1_545
Na8 O68 2.593727 1_545
Na8 O142 2.596651 1_545
Na9 O99 2.426653 1_555
Na9 O141 2.430113 1_545
Na9 O143 2.469845 1_545
Na9 O97 2.551401 1_555
Na9 O27 2.572548 1_555
Na9 O17 2.672352 1_545
Na9 O69 2.696251 1_545
Na9 O7 2.820810 1_555
Na10 O85 2.428194 1_455
Na10 O86 2.479533 1_555
Na10 O130 2.486795 1_555
Na10 O128 2.526019 1_555
Na10 O56 2.622760 1_555
Na10 O14 2.688214 1_555
Na10 O42 2.765514 1_555
Na11 O131 2.448784 1_555
Na11 O129 2.451852 1_555
Na11 O87 2.479329 1_555
Na11 O84 2.502759 1_555
Na11 O57 2.624942 1_555
Na11 O15 2.638737 1_555
Na11 O43 2.678229 1_555
Na11 O29 2.818420 1_555
Na12 O84 2.498460 1_565
Na12 O88 2.505580 1_555
Na12 O126 2.570614 1_555
Na12 O128 2.637549 1_555
Na12 O26 2.670653 1_565
Na12 O12 2.672858 1_555
Na12 O46 2.761778 1_565
Na12 O54 2.818423 1_555
Na13 O89 2.477602 1_555
Na13 O127 2.490800 1_555
Na13 O85 2.499554 1_565
Na13 O129 2.540800 1_555
Na13 O55 2.629556 1_555
Na13 O13 2.639429 1_555
Na13 O27 2.769371 1_565
Na13 O47 2.866830 1_565
Na14 O91 2.407087 1_455
Na14 O122 2.415772 1_555
Na14 O94 2.469051 1_565
Na14 O124 2.488526 1_555
Na14 O52 2.582888 1_554
Na14 O22 2.612472 1_555
Na14 O36 2.693668 1_565
Na15 O123 2.474393 1_555
Na15 O125 2.490371 1_555
Na15 O53 2.543041 1_554
Na15 O90 2.549456 1_555
Na15 O95 2.593646 1_565
Na15 O37 2.669398 1_565
Na15 O23 2.690531 1_555
Na16 O90 2.468322 1_555
Na16 O120 2.476796 1_555
Na16 O92 2.531182 1_565
Na16 O124 2.573362 1_555
Na16 O48 2.589119 1_554
Na16 O18 2.662068 1_555
Na16 O34 2.727395 1_555
Na16 O38 2.832051 1_555
Na17 O93 2.493309 1_565
Na17 O91 2.514867 1_555
Na17 O121 2.614319 1_555
Na17 O125 2.619791 1_555
Na17 O19 2.623670 1_555
Na17 O35 2.729547 1_555
Na17 O49 2.800101 1_554
Na17 O39 2.816426 1_555
Na18 O8 2.373789 1_555
Na18 O81 2.396312 1_555
Na18 O108 2.409689 1_555
Na18 O82 2.510238 1_555
Na18 O110 2.541882 1_555
Na18 O38 2.638455 1_556
Na19 O80 2.387833 1_655
Na19 O39 2.410591 1_556
Na19 O83 2.485940 1_555
Na19 O109 2.539584 1_555
Na19 O111 2.555249 1_555
Na19 O9 2.668910 1_555
Na20 O82 2.342542 1_545
Na20 O112 2.347389 1_555
Na20 O10 2.437495 1_555
Na20 O110 2.599188 1_555
Na20 O79 2.673596 1_555
Na20 O40 2.798556 1_556
Na20 O68 2.921024 1_545
Na21 O113 2.281380 1_555
Na21 O83 2.327149 1_545
Na21 O11 2.448302 1_555
Na21 O111 2.588521 1_555
Na21 O78 2.596743 1_655
Na21 O41 2.729221 1_556
Na21 O69 2.886568 1_545
Na22 O108 2.460458 1_555
Na22 O6 2.463151 1_555
Na22 O80 2.468283 1_545
Na22 O112 2.490420 1_555
Na22 O78 2.538570 1_555
Na22 O36 2.712644 1_556
Na22 O70 2.853022 1_555
Na23 O7 2.348244 1_555
Na23 O109 2.377328 1_555
Na23 O81 2.420973 1_545
Na23 O79 2.446576 1_555
Na23 O113 2.544927 1_555
Na23 O37 2.665328 1_556
Na23 O71 2.940110 1_555
Na24 O46 2.348859 1_555
Na24 O77 2.377658 1_555
Na24 O118 2.544923 1_555
Na24 O74 2.553500 1_545
Na24 O114 2.592076 1_555
Na24 O4 2.817300 1_555
Na25 O115 2.364564 1_555
Na25 O76 2.415507 1_655
Na25 O75 2.462078 1_545
Na25 O119 2.476078 1_555
Na25 O47 2.496758 1_555
Na25 O5 2.508235 1_555
Na26 O114 2.386148 1_555
Na26 O76 2.399579 1_555
Na26 O72 2.422337 1_545
Na26 O0 2.469139 1_555
Na26 O116 2.524220 1_555
Na26 O42 2.577147 1_555
Na27 O115 2.426126 1_555
Na27 O117 2.440529 1_555
Na27 O77 2.519265 1_555
Na27 O43 2.541807 1_555
Na27 O73 2.583857 1_545
Na27 O1 2.650712 1_555
Na28 O116 2.283033 1_555
Na28 O74 2.320670 1_555
Na28 O73 2.536345 1_555
Na28 O118 2.539883 1_555
Na28 O2 2.590279 1_555
Na28 O44 2.650927 1_555
Na29 O75 2.343470 1_555
Na29 O117 2.359942 1_555
Na29 O45 2.443272 1_555
Na29 O119 2.624096 1_555
Na29 O72 2.675090 1_655
Na29 O3 2.698023 1_555
Na30 O75 2.413368 1_555
Na30 O89 2.468187 1_555
Na30 O85 2.484593 1_565
Na30 O86 2.499030 1_665
Na30 O76 2.523257 1_665
Na30 O72 2.628388 1_655
Na31 O84 2.349879 1_555
Na31 O77 2.398422 1_555
Na31 O88 2.428484 1_545
Na31 O87 2.454986 1_555
Na31 O73 2.618984 1_545
Na31 O74 2.703533 1_545
Na32 O91 2.358485 1_455
Na32 O80 2.394428 1_554
Na32 O93 2.430135 1_465
Na32 O94 2.507663 1_565
Na32 O78 2.586359 1_564
Na32 O83 2.625998 1_454
Na33 O82 2.380986 1_544
Na33 O81 2.406826 1_544
Na33 O90 2.504532 1_545
Na33 O95 2.506560 1_555
Na33 O79 2.548452 1_554
Na33 O92 2.602288 1_555
Na34 O96 2.434182 1_555
Na34 O100 2.471071 1_555
Na34 O98 2.473638 1_555
Na34 O112 2.576837 1_555
Na34 O108 2.621374 1_555
Na34 O110 2.865488 1_555
Na35 O99 2.331524 1_555
Na35 O101 2.468304 1_555
Na35 O97 2.477355 1_555
Na35 O109 2.518958 1_555
Na35 O113 2.570323 1_555
Na35 O111 2.937019 1_555
Na36 O114 2.398268 1_555
Na36 O116 2.473994 1_555
Na36 O106 2.509316 1_555
Na36 O104 2.588207 1_555
Na36 O102 2.605351 1_555
Na36 O118 2.772434 1_555
Na37 O117 2.445961 1_555
Na37 O115 2.513666 1_555
Na37 O107 2.520210 1_555
Na37 O103 2.539786 1_555
Na37 O105 2.572316 1_555
Na37 O119 2.709683 1_555
Na38 O136 2.367919 1_555
Na38 O122 2.433059 1_555
Na38 O120 2.437594 1_555
Na38 O132 2.458223 1_555
Na38 O134 2.509965 1_555
Na38 O124 2.538760 1_555
Na39 O133 2.418259 1_555
Na39 O135 2.425140 1_555
Na39 O121 2.444611 1_555
Na39 O123 2.446585 1_555
Na39 O137 2.479982 1_555
Na39 O125 2.507471 1_555
Na40 O130 2.406854 1_555
Na40 O126 2.419345 1_555
Na40 O138 2.448172 1_555
Na40 O142 2.465230 1_555
Na40 O128 2.503452 1_555
Na40 O140 2.515101 1_555
Na41 O127 2.413580 1_555
Na41 O129 2.428414 1_555
Na41 O141 2.445268 1_555
Na41 O131 2.448747 1_555
Na41 O139 2.481399 1_555
Na41 O143 2.518469 1_555
Ge0 O13 1.847109 1_545
Ge0 O14 1.852880 1_655
Ge0 O89 1.877140 1_545
Ge0 O85 1.879793 1_555
Ge0 O86 1.890668 1_655
Ge0 O16 2.210230 1_645
Ge1 O15 1.819448 1_555
Ge1 O12 1.837713 1_545
Ge1 O87 1.858386 1_555
Ge1 O17 1.881682 1_545
Ge1 O84 1.995947 1_555
Ge2 O22 1.819885 1_545
Ge2 O19 1.827542 1_445
Ge2 O20 1.869135 1_555
Ge2 O94 1.869224 1_555
Ge2 O91 2.032356 1_445
Ge3 O23 1.774016 1_555
Ge3 O18 1.819623 1_555
Ge3 O95 1.846375 1_565
Ge3 O90 1.881102 1_555
Ge3 O21 2.136863 1_565
Ge3 O92 2.299921 1_565
Ge4 O29 1.825948 1_555
Ge4 O27 1.842169 1_555
Ge4 O25 1.890441 1_555
Ge4 O99 1.924227 1_555
Ge4 O97 1.949901 1_555
Ge4 O101 2.394629 1_555
Ge5 O34 1.826841 1_555
Ge5 O30 1.834571 1_555
Ge5 O106 1.840929 1_555
Ge5 O102 1.849118 1_555
Ge5 O32 2.177454 1_555
Ge5 O104 2.352412 1_555
Ge6 O48 1.825890 1_554
Ge6 O52 1.842107 1_554
Ge6 O122 1.845510 1_555
Ge6 O120 1.927583 1_555
Ge6 O50 1.973533 1_554
Ge6 O124 2.326921 1_555
Ge7 O53 1.828186 1_554
Ge7 O49 1.845977 1_554
Ge7 O121 1.856361 1_555
Ge7 O51 1.952794 1_554
Ge7 O123 1.959377 1_555
Ge7 O125 2.203800 1_555
Ge8 O56 1.830970 1_555
Ge8 O54 1.849366 1_555
Ge8 O126 1.854239 1_555
Ge8 O130 1.915029 1_555
Ge8 O58 1.961441 1_555
Ge8 O128 2.219761 1_555
Ge9 O55 1.837121 1_555
Ge9 O57 1.863387 1_555
Ge9 O131 1.865950 1_555
Ge9 O129 1.876109 1_555
Ge9 O127 1.938966 1_555
Ge9 O59 2.366536 1_555
Ge10 O62 1.821081 1_555
Ge10 O134 1.856879 1_555
Ge10 O64 1.872460 1_555
Ge10 O132 1.908569 1_555
Ge10 O136 1.978630 1_555
Ge10 O60 2.246848 1_555
Ge11 O143 1.823444 1_555
Ge11 O71 1.838523 1_555
Ge11 O69 1.876979 1_555
Ge11 O139 1.883608 1_555
Ge11 O141 1.967317 1_555
Ge11 O67 2.352612 1_555
O0 Si0 1.619865 1_555
O0 Sc0 2.170099 1_555
O1 Si1 1.625431 1_545
O1 Sc1 1.993883 1_555
O2 Si2 1.604888 1_555
O2 Sc1 2.058926 1_565
O3 Si3 1.617959 1_555
O3 Sc0 2.009792 1_665
O4 S0 1.486075 1_555
O4 Sc1 2.134529 1_555
O5 Si4 1.619214 1_655
O5 Sc0 1.952670 1_655
O6 Si5 1.641814 1_555
O6 Sc2 1.976434 1_445
O7 Si6 1.627877 1_555
O7 Sc3 2.077890 1_545
O8 Si7 1.628401 1_555
O8 Sc3 1.952012 1_555
O9 S1 1.502199 1_555
O9 Sc2 2.101367 1_555
O10 Si8 1.625209 1_555
O10 Sc3 2.009966 1_545
O11 Si9 1.629997 1_555
O11 Sc2 2.047910 1_545
O12 Si8 1.665096 1_565
O13 Si9 1.622730 1_565
O14 Si5 1.651090 1_555
O15 Si6 1.661121 1_555
O16 S1 1.460788 1_455
O17 Si7 1.656637 1_555
O18 Si2 1.653049 1_555
O19 Si3 1.678755 1_555
O20 Si4 1.665277 1_555
O21 S0 1.482025 1_555
O22 Si0 1.661684 1_565
O23 Si1 1.672184 1_555
O24 Si10 1.607132 1_555
O24 Sc4 1.988658 1_555
O25 Si11 1.653079 1_555
O26 Si12 1.627904 1_555
O26 Sc4 2.100942 1_555
O27 Si13 1.671187 1_555
O28 S2 1.475941 1_555
O28 Sc4 2.226444 1_555
O29 Si14 1.648858 1_555
O30 Si15 1.666962 1_555
O31 Si16 1.601095 1_555
O31 Sc5 2.007039 1_555
O32 S3 1.482892 1_555
O33 S4 1.473202 1_555
O33 Sc5 2.236016 1_555
O34 Si17 1.677491 1_555
O35 Si18 1.619308 1_555
O35 Sc5 2.140407 1_555
O36 Si17 1.621197 1_555
O36 Sc6 1.990021 1_554
O37 Si18 1.647188 1_555
O37 Sc7 2.002104 1_554
O38 Si15 1.603239 1_555
O38 Sc6 2.032772 1_554
O39 Si16 1.644195 1_555
O39 Sc7 2.086114 1_554
O40 S3 1.474343 1_555
O40 Sc6 2.200282 1_554
O41 S4 1.481812 1_555
O41 Sc7 2.216096 1_554
O42 Si12 1.645208 1_555
O42 Sc8 1.972311 1_555
O43 Si13 1.623869 1_555
O43 Sc9 2.018429 1_555
O44 S2 1.480961 1_555
O44 Sc8 2.210359 1_555
O45 Si14 1.609562 1_555
O45 Sc9 2.043314 1_555
O46 Si10 1.649073 1_555
O46 Sc8 2.070160 1_555
O47 Si11 1.602868 1_555
O47 Sc9 2.040019 1_555
O48 Si19 1.676437 1_555
O49 Si20 1.658614 1_555
O50 S5 1.500925 1_555
O51 S6 1.503559 1_555
O52 Si21 1.673589 1_555
O53 Si22 1.675489 1_555
O54 Si23 1.652543 1_555
O55 Si24 1.661717 1_555
O56 Si25 1.665004 1_555
O57 Si26 1.659134 1_555
O58 S7 1.497229 1_555
O59 S8 1.446337 1_555
O60 S7 1.467813 1_555
O61 S8 1.487315 1_555
O61 Sc10 2.236625 1_555
O62 Si23 1.642853 1_555
O63 Si24 1.641634 1_555
O63 Sc10 1.941278 1_555
O64 Si25 1.663873 1_555
O65 Si26 1.633089 1_555
O65 Sc10 1.986111 1_555
O66 S5 1.463082 1_555
O66 Sc11 2.247147 1_555
O67 S6 1.461671 1_555
O68 Si21 1.623586 1_555
O68 Sc11 2.006744 1_555
O69 Si22 1.649893 1_555
O70 Si19 1.628776 1_555
O70 Sc11 1.962287 1_555
O71 Si20 1.638001 1_555
O72 S7 1.490781 1_555
O72 Sc0 2.283866 1_565
O73 S8 1.506825 1_555
O73 Sc1 2.205121 1_565
O74 Si23 1.633662 1_555
O74 Sc1 2.105423 1_565
O75 Si24 1.641325 1_555
O75 Sc0 2.149211 1_665
O76 Si25 1.631182 1_555
O76 Sc0 2.143904 1_555
O77 Si26 1.654557 1_555
O77 Sc1 2.130123 1_555
O78 S5 1.488555 1_555
O78 Sc2 2.267601 1_445
O79 S6 1.482705 1_555
O79 Sc3 2.314563 1_545
O80 Si21 1.646588 1_555
O80 Sc2 2.204365 1_455
O81 Si22 1.631318 1_555
O81 Sc3 2.171519 1_555
O82 Si19 1.630336 1_555
O82 Sc3 2.211425 1_555
O83 Si20 1.636098 1_555
O83 Sc2 2.127661 1_555
O84 Si10 1.679254 1_555
O85 Si11 1.674939 1_555
O86 Si12 1.642931 1_555
O87 Si13 1.652541 1_555
O88 S2 1.461842 1_555
O89 Si14 1.640867 1_555
O90 Si15 1.688522 1_555
O91 Si16 1.674832 1_555
O92 S3 1.483351 1_555
O93 S4 1.461519 1_555
O94 Si17 1.638572 1_555
O95 Si18 1.677032 1_555
O96 Si8 1.628556 1_555
O96 Sc4 2.043672 1_555
O97 Si9 1.672415 1_555
O98 Si5 1.626870 1_555
O98 Sc4 2.123195 1_555
O99 Si6 1.650695 1_555
O100 Si7 1.620865 1_555
O100 Sc4 2.132966 1_555
O101 S1 1.469843 1_555
O102 Si2 1.688505 1_555
O103 Si3 1.629020 1_555
O103 Sc5 2.017223 1_555
O104 S0 1.482753 1_555
O105 Si4 1.617337 1_655
O105 Sc5 2.105188 1_555
O106 Si0 1.681090 1_555
O107 Si1 1.616338 1_545
O107 Sc5 2.101538 1_555
O108 Si19 1.639702 1_555
O108 Sc6 2.012473 1_555
O109 Si20 1.651342 1_555
O109 Sc7 2.046150 1_555
O110 S6 1.483195 1_555
O110 Sc6 2.272585 1_555
O111 S5 1.474488 1_655
O111 Sc7 2.300866 1_555
O112 Si21 1.643026 1_545
O112 Sc6 2.093144 1_555
O113 Si22 1.646322 1_545
O113 Sc7 2.143767 1_555
O114 Si23 1.647304 1_545
O114 Sc8 2.059513 1_555
O115 Si24 1.630525 1_545
O115 Sc9 2.112911 1_555
O116 Si25 1.643740 1_555
O116 Sc8 2.178978 1_555
O117 Si26 1.634448 1_555
O117 Sc9 2.133161 1_555
O118 S8 1.499914 1_555
O118 Sc8 2.273039 1_555
O119 S7 1.476785 1_655
O119 Sc9 2.338924 1_555
O120 Si17 1.646926 1_555
O121 Si18 1.659686 1_555
O122 Si16 1.679356 1_455
O123 Si15 1.650663 1_555
O124 S3 1.512949 1_565
O125 S4 1.530610 1_565
O126 Si12 1.660936 1_565
O127 Si13 1.639328 1_565
O128 S2 1.525494 1_555
O129 Si14 1.684399 1_555
O130 Si11 1.663516 1_455
O131 Si10 1.651023 1_555
O132 Si0 1.645089 1_565
O133 Si1 1.628512 1_555
O133 Sc10 2.096328 1_555
O134 Si2 1.636168 1_555
O135 Si3 1.642910 1_555
O135 Sc10 2.074702 1_555
O136 Si4 1.675746 1_555
O137 S0 1.496963 1_555
O137 Sc10 2.406621 1_555
O138 Si5 1.639452 1_555
O138 Sc11 2.098994 1_555
O139 Si6 1.654427 1_555
O140 S1 1.507514 1_455
O140 Sc11 2.297664 1_555
O141 Si7 1.674898 1_555
O142 Si8 1.647917 1_565
O142 Sc11 2.038531 1_555
O143 Si9 1.647627 1_565
