# generated using pymatgen
data_Na5CaHf3SiP5O24
_symmetry_space_group_name_H-M   'P 1'
_cell_length_a   9.10337366
_cell_length_b   9.05832094
_cell_length_c   22.95641160
_cell_angle_alpha   89.93268165
_cell_angle_beta   90.19067299
_cell_angle_gamma   119.90100337
_symmetry_Int_Tables_number   1
_chemical_formula_structural   Na5CaHf3SiP5O24
_chemical_formula_sum   'Na15 Ca3 Hf9 Si3 P15 O72'
_cell_volume   1641.02275805
_cell_formula_units_Z   3
loop_
 _symmetry_equiv_pos_site_id
 _symmetry_equiv_pos_as_xyz
  1  'x, y, z'
loop_
 _atom_site_type_symbol
 _atom_site_label
 _atom_site_symmetry_multiplicity
 _atom_site_fract_x
 _atom_site_fract_y
 _atom_site_fract_z
 _atom_site_occupancy
  Na  Na0  1  0.64533566  0.01343587  0.24403744  1
  Na  Na1  1  0.36908017  0.35565621  0.24399059  1
  Na  Na2  1  0.98695969  0.63277525  0.24443454  1
  Na  Na3  1  0.63440006  0.62592712  0.74782405  1
  Na  Na4  1  0.99073457  0.36561528  0.74811824  1
  Na  Na5  1  0.37801917  0.01093019  0.74392606  1
  Na  Na6  1  0.65923199  0.97575835  0.58388232  1
  Na  Na7  1  0.33301487  0.30643975  0.92234994  1
  Na  Na8  1  0.32457308  0.03205237  0.41463881  1
  Na  Na9  1  0.00055892  0.00057088  0.49471292  1
  Na  Na10  1  0.98520786  0.99041304  0.00282493  1
  Na  Na11  1  0.67919503  0.33714802  0.83939832  1
  Na  Na12  1  0.67840610  0.34416211  0.33137208  1
  Na  Na13  1  0.33361061  0.66768411  0.15858389  1
  Na  Na14  1  0.32354731  0.66375614  0.66101295  1
  Ca  Ca0  1  0.99124701  0.99906307  0.35538502  1
  Ca  Ca1  1  0.66505443  0.33270555  0.67924360  1
  Ca  Ca2  1  0.66747380  0.33392853  0.17478317  1
  Hf  Hf0  1  0.99249873  0.99464493  0.85817906  1
  Hf  Hf1  1  0.00939393  0.00078633  0.64362736  1
  Hf  Hf2  1  0.99951487  0.00112161  0.14500990  1
  Hf  Hf3  1  0.67655700  0.33747440  0.98342719  1
  Hf  Hf4  1  0.66719607  0.33760789  0.48302279  1
  Hf  Hf5  1  0.33478877  0.66490023  0.01694143  1
  Hf  Hf6  1  0.32819968  0.66077509  0.51846360  1
  Hf  Hf7  1  0.33304790  0.66417498  0.31628171  1
  Hf  Hf8  1  0.33172603  0.66469524  0.81929904  1
  Si  Si0  1  0.36830767  0.03312875  0.58309574  1
  Si  Si1  1  0.62518953  0.66264613  0.91720531  1
  Si  Si2  1  0.03700302  0.37504152  0.91612814  1
  P  P0  1  0.29226976  0.99596043  0.25225504  1
  P  P1  1  0.70351153  0.70760859  0.25027109  1
  P  P2  1  0.00426994  0.29715648  0.25019945  1
  P  P3  1  0.28385531  0.29073304  0.75240177  1
  P  P4  1  0.00735296  0.71681519  0.75148493  1
  P  P5  1  0.70972418  0.99435592  0.75065536  1
  P  P6  1  0.96535590  0.33376182  0.58434397  1
  P  P7  1  0.66673407  0.63403381  0.58409833  1
  P  P8  1  0.97118575  0.63686650  0.08385374  1
  P  P9  1  0.66534511  0.03016118  0.08400039  1
  P  P10  1  0.36355806  0.33237158  0.08260695  1
  P  P11  1  0.33608376  0.96051240  0.91657366  1
  P  P12  1  0.61965277  0.96015013  0.41953865  1
  P  P13  1  0.34311281  0.37879595  0.41777939  1
  P  P14  1  0.03986191  0.65797576  0.41741197  1
  O  O0  1  0.22134948  0.02363552  0.30840132  1
  O  O1  1  0.81034385  0.78208841  0.30414886  1
  O  O2  1  0.97414878  0.19090654  0.30401447  1
  O  O3  1  0.19595874  0.18255881  0.80639114  1
  O  O4  1  0.98998782  0.81034765  0.80423858  1
  O  O5  1  0.82410141  0.01024860  0.80273820  1
  O  O6  1  0.79064516  0.97053264  0.69441388  1
  O  O7  1  0.17159805  0.20048017  0.69801493  1
  O  O8  1  0.02748789  0.82602965  0.69650327  1
  O  O9  1  0.79206725  0.82544447  0.19654999  1
  O  O10  1  0.03209220  0.20789825  0.19637535  1
  O  O11  1  0.17199625  0.96923842  0.19949645  1
  O  O12  1  0.90841147  0.36946240  0.64221316  1
  O  O13  1  0.47382996  0.09030335  0.64318289  1
  O  O14  1  0.63446060  0.54235937  0.64197856  1
  O  O15  1  0.91126405  0.54515770  0.14167432  1
  O  O16  1  0.63685163  0.09094521  0.14222055  1
  O  O17  1  0.45704410  0.36168177  0.14003040  1
  O  O18  1  0.45744052  0.30900827  0.02961446  1
  O  O19  1  0.84624158  0.53606942  0.03288478  1
  O  O20  1  0.68859563  0.15433066  0.03317101  1
  O  O21  1  0.46968140  0.15886813  0.52741382  1
  O  O22  1  0.69304960  0.53795734  0.53305086  1
  O  O23  1  0.83986773  0.30628881  0.53365358  1
  O  O24  1  0.53006713  0.69275242  0.97045495  1
  O  O25  1  0.16724221  0.46920650  0.96879097  1
  O  O26  1  0.30698683  0.84490876  0.96817345  1
  O  O27  1  0.52126885  0.85157793  0.47231153  1
  O  O28  1  0.33004983  0.47731030  0.46936335  1
  O  O29  1  0.15450006  0.67164608  0.46886911  1
  O  O30  1  0.12612420  0.63911070  0.36085446  1
  O  O31  1  0.50853218  0.87159119  0.36370405  1
  O  O32  1  0.35814804  0.48218000  0.36116305  1
  O  O33  1  0.12264417  0.48751070  0.85607920  1
  O  O34  1  0.36033273  0.87805007  0.85997699  1
  O  O35  1  0.50845696  0.63307270  0.85762592  1
  O  O36  1  0.03495040  0.82339104  0.41724960  1
  O  O37  1  0.79392390  0.97970994  0.41936838  1
  O  O38  1  0.19245264  0.19863392  0.41772153  1
  O  O39  1  0.03241333  0.19224199  0.90877374  1
  O  O40  1  0.18007640  0.98534900  0.90831070  1
  O  O41  1  0.81373886  0.82718693  0.90984077  1
  O  O42  1  0.96767361  0.16224694  0.58839256  1
  O  O43  1  0.18141247  0.01835119  0.58777279  1
  O  O44  1  0.82501586  0.81709388  0.58803920  1
  O  O45  1  0.98205803  0.81453252  0.08783691  1
  O  O46  1  0.83032639  0.01685905  0.08763361  1
  O  O47  1  0.18504541  0.16769901  0.08755139  1
  O  O48  1  0.69259222  0.15479046  0.75076595  1
  O  O49  1  0.46263315  0.31385874  0.74921481  1
  O  O50  1  0.85062629  0.53832691  0.74927474  1
  O  O51  1  0.67028808  0.52473129  0.24340583  1
  O  O52  1  0.85512807  0.33019807  0.24359146  1
  O  O53  1  0.47292622  0.14645727  0.24455124  1
  O  O54  1  0.63034609  0.48564116  0.92473471  1
  O  O55  1  0.84900884  0.35017372  0.92446189  1
  O  O56  1  0.49108513  0.14068244  0.92397273  1
  O  O57  1  0.62481625  0.13570468  0.42340547  1
  O  O58  1  0.50866624  0.36700574  0.42257977  1
  O  O59  1  0.86375575  0.49707612  0.42375892  1
  O  O60  1  0.33967899  0.48829218  0.07277698  1
  O  O61  1  0.14798715  0.66185074  0.07111720  1
  O  O62  1  0.51057372  0.85346921  0.07221902  1
  O  O63  1  0.34842298  0.84548737  0.57176788  1
  O  O64  1  0.51522056  0.66310037  0.57208906  1
  O  O65  1  0.14479281  0.48033954  0.57172790  1
  O  O66  1  0.30295453  0.82615118  0.25616558  1
  O  O67  1  0.52486770  0.69848916  0.25623725  1
  O  O68  1  0.17387361  0.47611922  0.25563017  1
  O  O69  1  0.29708837  0.47055045  0.75505417  1
  O  O70  1  0.17303192  0.70481085  0.75499296  1
  O  O71  1  0.53006530  0.83172809  0.75626342  1
loop_
_geom_bond_atom_site_label_1
_geom_bond_atom_site_label_2
_geom_bond_distance
_geom_bond_site_symmetry_2
Na0 O53 2.408541 1_555
Na0 O16 2.451760 1_555
Na0 O67 2.510170 1_545
Na0 O52 2.533209 1_555
Na0 O66 2.720849 1_545
Na0 O9 2.855581 1_545
Na0 O2 2.936008 1_555
Na0 O31 3.027808 1_545
Na1 O51 2.382788 1_555
Na1 O53 2.504150 1_555
Na1 O17 2.511709 1_555
Na1 O68 2.521328 1_555
Na1 O67 2.709757 1_555
Na1 O10 2.878303 1_555
Na1 O32 2.946442 1_555
Na1 O0 3.001757 1_555
Na2 O52 2.381881 1_555
Na2 O15 2.473453 1_555
Na2 O66 2.527441 1_655
Na2 O51 2.540769 1_555
Na2 O68 2.716351 1_655
Na2 O11 2.841890 1_655
Na2 O1 2.912151 1_555
Na2 O30 2.942157 1_655
Na3 O49 2.455629 1_555
Na3 O50 2.462130 1_555
Na3 O71 2.486429 1_555
Na3 O14 2.545949 1_555
Na3 O69 2.670481 1_555
Na3 O35 2.786752 1_555
Na4 O48 2.418727 1_555
Na4 O69 2.461911 1_655
Na4 O50 2.462694 1_555
Na4 O12 2.547016 1_555
Na4 O70 2.671170 1_655
Na4 O33 2.732818 1_655
Na5 O13 2.451645 1_555
Na5 O49 2.455722 1_555
Na5 O70 2.465443 1_545
Na5 O48 2.490053 1_555
Na5 O71 2.620582 1_545
Na5 O34 2.893846 1_545
Na5 O8 2.970789 1_545
Na6 O42 2.453136 1_565
Na6 O64 2.471989 1_555
Na6 O63 2.478329 1_555
Na6 O44 2.552194 1_555
Na6 O13 2.746452 1_565
Na6 O6 2.812080 1_555
Na6 O27 2.824818 1_555
Na6 O23 2.844960 1_565
Na7 O54 2.362829 1_555
Na7 O39 2.414206 1_555
Na7 O40 2.542396 1_545
Na7 O56 2.545607 1_555
Na7 O18 2.702274 1_556
Na7 O25 2.796522 1_555
Na7 O3 2.913962 1_555
Na7 O35 2.967626 1_555
Na8 O38 2.353462 1_555
Na8 O36 2.357930 1_545
Na8 O57 2.414702 1_555
Na8 O0 2.598167 1_555
Na8 O58 2.641465 1_555
Na8 O21 2.870251 1_555
Na8 O31 2.954353 1_545
Na9 O37 2.488077 1_445
Na9 O38 2.506529 1_555
Na9 O36 2.519435 1_545
Na9 O43 2.648281 1_555
Na9 O44 2.696742 1_445
Na9 O42 2.703346 1_455
Na10 O46 2.488348 1_565
Na10 O45 2.509023 1_555
Na10 O47 2.596648 1_665
Na10 O41 2.619795 1_554
Na10 O39 2.720721 1_664
Na10 O40 2.821995 1_654
Na11 O55 2.452653 1_555
Na11 O54 2.540303 1_555
Na11 O56 2.616238 1_555
Na11 O48 2.663424 1_555
Na11 O50 2.685891 1_555
Na11 O49 2.788620 1_555
Na12 O51 2.621167 1_555
Na12 O52 2.624868 1_555
Na12 O59 2.629951 1_555
Na12 O58 2.675036 1_555
Na12 O53 2.705978 1_555
Na12 O57 2.710418 1_555
Na13 O60 2.573242 1_555
Na13 O62 2.582365 1_555
Na13 O61 2.603576 1_555
Na13 O66 2.750938 1_555
Na13 O68 2.754200 1_555
Na13 O67 2.761501 1_555
Na14 O63 2.565550 1_555
Na14 O65 2.626749 1_555
Na14 O70 2.683263 1_555
Na14 O64 2.691820 1_555
Na14 O69 2.712169 1_555
Na14 O71 2.785552 1_555
Ca0 O2 2.167592 1_565
Ca0 O1 2.173453 1_555
Ca0 O37 2.262277 1_555
Ca0 O0 2.269426 1_665
Ca0 O36 2.308584 1_655
Ca0 O38 2.314769 1_665
Ca1 O13 2.172731 1_555
Ca1 O14 2.222150 1_555
Ca1 O12 2.240051 1_555
Ca1 O49 2.389627 1_555
Ca1 O48 2.397875 1_555
Ca1 O50 2.399896 1_555
Ca2 O17 2.199723 1_555
Ca2 O16 2.207202 1_555
Ca2 O15 2.222207 1_555
Ca2 O51 2.330559 1_555
Ca2 O52 2.335372 1_555
Ca2 O53 2.366334 1_555
Hf0 O41 1.975647 1_555
Hf0 O39 2.009585 1_665
Hf0 O5 2.047550 1_565
Hf0 O4 2.070618 1_555
Hf0 O40 2.092234 1_655
Hf0 O3 2.146619 1_665
Hf1 O43 1.971313 1_555
Hf1 O8 2.064112 1_545
Hf1 O7 2.083585 1_555
Hf1 O44 2.102527 1_445
Hf1 O42 2.106511 1_455
Hf1 O6 2.206912 1_445
Hf2 O46 2.081429 1_555
Hf2 O47 2.082918 1_655
Hf2 O45 2.083417 1_545
Hf2 O10 2.106121 1_655
Hf2 O9 2.124345 1_545
Hf2 O11 2.133438 1_645
Hf3 O19 2.033216 1_556
Hf3 O55 2.035643 1_555
Hf3 O20 2.060149 1_556
Hf3 O54 2.085332 1_555
Hf3 O18 2.161057 1_556
Hf3 O56 2.209274 1_555
Hf4 O21 1.999684 1_555
Hf4 O22 2.060393 1_555
Hf4 O23 2.081815 1_555
Hf4 O58 2.109000 1_555
Hf4 O59 2.138671 1_555
Hf4 O57 2.160020 1_555
Hf5 O24 1.981795 1_554
Hf5 O25 1.997059 1_554
Hf5 O60 2.066405 1_555
Hf5 O62 2.086886 1_555
Hf5 O26 2.093196 1_554
Hf5 O61 2.099155 1_555
Hf6 O29 1.987275 1_555
Hf6 O63 2.006743 1_555
Hf6 O28 2.016203 1_555
Hf6 O27 2.044082 1_555
Hf6 O65 2.059693 1_555
Hf6 O64 2.089224 1_555
Hf7 O32 2.049767 1_555
Hf7 O30 2.057371 1_555
Hf7 O31 2.065907 1_555
Hf7 O68 2.114536 1_555
Hf7 O67 2.125964 1_555
Hf7 O66 2.127400 1_555
Hf8 O33 1.968109 1_555
Hf8 O35 1.973330 1_555
Hf8 O34 2.043467 1_555
Hf8 O69 2.194869 1_555
Hf8 O70 2.215010 1_555
Hf8 O71 2.220784 1_555
O0 P0 1.519418 1_545
O1 P1 1.506836 1_555
O2 P2 1.504675 1_655
O3 P3 1.535762 1_555
O4 P4 1.531875 1_655
O5 P5 1.541777 1_545
O6 P5 1.556166 1_555
O7 P3 1.559634 1_555
O8 P4 1.556672 1_555
O9 P1 1.567075 1_555
O10 P2 1.566268 1_555
O11 P0 1.565853 1_555
O12 P6 1.520153 1_555
O13 Si0 1.609517 1_555
O14 P7 1.515973 1_555
O15 P8 1.516564 1_555
O16 P9 1.517621 1_555
O17 P10 1.516768 1_555
O18 P10 1.563003 1_555
O19 P8 1.566738 1_555
O20 P9 1.559702 1_555
O21 Si0 1.655096 1_555
O22 P7 1.549257 1_555
O23 P6 1.558670 1_555
O24 Si1 1.600562 1_555
O25 Si2 1.606058 1_555
O26 P11 1.514105 1_555
O27 P12 1.537297 1_555
O28 P13 1.523806 1_555
O29 P14 1.537245 1_555
O30 P14 1.572480 1_555
O31 P12 1.579382 1_555
O32 P13 1.567007 1_555
O33 Si2 1.660716 1_555
O34 P11 1.569506 1_555
O35 Si1 1.667051 1_555
O36 P14 1.521167 1_555
O37 P12 1.506002 1_555
O38 P13 1.520788 1_555
O39 Si2 1.644307 1_555
O40 P11 1.555702 1_555
O41 Si1 1.626938 1_555
O42 P6 1.566908 1_555
O43 Si0 1.642634 1_555
O44 P7 1.565686 1_555
O45 P8 1.565139 1_555
O46 P9 1.567389 1_555
O47 P10 1.569335 1_555
O48 P5 1.536977 1_545
O49 P3 1.535833 1_555
O50 P4 1.533648 1_655
O51 P1 1.536647 1_555
O52 P2 1.536096 1_655
O53 P0 1.536387 1_545
O54 Si1 1.636216 1_555
O55 Si2 1.622928 1_655
O56 P11 1.544833 1_545
O57 P12 1.569936 1_545
O58 P13 1.566597 1_555
O59 P14 1.545017 1_655
O60 P10 1.548554 1_555
O61 P8 1.538499 1_455
O62 P9 1.539527 1_565
O63 Si0 1.638107 1_565
O64 P7 1.551490 1_555
O65 P6 1.534582 1_455
O66 P0 1.591327 1_555
O67 P1 1.593056 1_555
O68 P2 1.590945 1_555
O69 P3 1.573501 1_555
O70 P4 1.567091 1_555
O71 P5 1.568573 1_555
