# generated using pymatgen
data_Na15Ca10Ta2P9(SO8)9
_symmetry_space_group_name_H-M   'P 1'
_cell_length_a   9.29727178
_cell_length_b   9.28858107
_cell_length_c   23.29379393
_cell_angle_alpha   90.05407529
_cell_angle_beta   89.79748075
_cell_angle_gamma   119.84980393
_symmetry_Int_Tables_number   1
_chemical_formula_structural   Na15Ca10Ta2P9(SO8)9
_chemical_formula_sum   'Na15 Ca10 Ta2 P9 S9 O72'
_cell_volume   1744.72974319
_cell_formula_units_Z   1
loop_
 _symmetry_equiv_pos_site_id
 _symmetry_equiv_pos_as_xyz
  1  'x, y, z'
loop_
 _atom_site_type_symbol
 _atom_site_label
 _atom_site_symmetry_multiplicity
 _atom_site_fract_x
 _atom_site_fract_y
 _atom_site_fract_z
 _atom_site_occupancy
  Na  Na0  1  0.98698554  0.33705634  0.75100797  1
  Na  Na1  1  0.30186569  0.33365116  0.58548132  1
  Na  Na2  1  0.66716797  0.96844883  0.58857357  1
  Na  Na3  1  0.30191652  0.96887559  0.08704206  1
  Na  Na4  1  0.66862967  0.69770114  0.09136973  1
  Na  Na5  1  0.97515913  0.67419260  0.90882322  1
  Na  Na6  1  0.32240682  0.28587275  0.90854549  1
  Na  Na7  1  0.33396177  0.04475147  0.40603383  1
  Na  Na8  1  0.69841730  0.67011888  0.40923099  1
  Na  Na9  1  0.99975232  0.01255314  0.49501493  1
  Na  Na10  1  0.99483998  0.02673701  0.99541621  1
  Na  Na11  1  0.65288732  0.30991474  0.82600010  1
  Na  Na12  1  0.65954990  0.32569052  0.32509628  1
  Na  Na13  1  0.31805537  0.65621729  0.17043307  1
  Na  Na14  1  0.33474789  0.68022864  0.66991241  1
  Ca  Ca0  1  0.00019422  0.00846741  0.34521402  1
  Ca  Ca1  1  0.99645853  0.99846414  0.84508793  1
  Ca  Ca2  1  0.99732818  0.98921162  0.66204354  1
  Ca  Ca3  1  0.00209404  0.00107022  0.16234004  1
  Ca  Ca4  1  0.66344734  0.34046259  0.68749922  1
  Ca  Ca5  1  0.66494022  0.33003175  0.18823991  1
  Ca  Ca6  1  0.67422623  0.31809693  0.97689765  1
  Ca  Ca7  1  0.67338240  0.33178909  0.47778466  1
  Ca  Ca8  1  0.32622921  0.66366027  0.01563629  1
  Ca  Ca9  1  0.32488029  0.66168320  0.51491739  1
  Ta  Ta0  1  0.34453190  0.66870634  0.31538958  1
  Ta  Ta1  1  0.33298089  0.67561355  0.81489868  1
  P  P0  1  0.30800733  0.99048655  0.25383920  1
  P  P1  1  0.69028725  0.69153143  0.25340654  1
  P  P2  1  0.30644473  0.31863951  0.75391848  1
  P  P3  1  0.00437109  0.69072953  0.75610811  1
  P  P4  1  0.68807959  0.99392383  0.74937649  1
  P  P5  1  0.04606242  0.37757110  0.91347489  1
  P  P6  1  0.33066051  0.96113464  0.91672822  1
  P  P7  1  0.62289609  0.95584506  0.41701962  1
  P  P8  1  0.33398824  0.37289710  0.41671598  1
  S  S0  1  0.01350971  0.32056913  0.25313959  1
  S  S1  1  0.96742871  0.32774242  0.58559852  1
  S  S2  1  0.36684709  0.03713348  0.58150164  1
  S  S3  1  0.66766059  0.63823598  0.58019092  1
  S  S4  1  0.96486044  0.63830719  0.08210968  1
  S  S5  1  0.66821885  0.02801270  0.08407302  1
  S  S6  1  0.36994239  0.33075824  0.08132919  1
  S  S7  1  0.62345468  0.66518602  0.91624573  1
  S  S8  1  0.04224667  0.66892310  0.41293141  1
  O  O0  1  0.22049266  0.00959189  0.30645226  1
  O  O1  1  0.79047592  0.78034125  0.30654031  1
  O  O2  1  0.99033369  0.21779381  0.30357925  1
  O  O3  1  0.22059119  0.21460129  0.80691780  1
  O  O4  1  0.98034093  0.76276340  0.81137989  1
  O  O5  1  0.81020814  0.02075245  0.79687570  1
  O  O6  1  0.73845059  0.95159183  0.69131343  1
  O  O7  1  0.19564853  0.25357075  0.69946208  1
  O  O8  1  0.03727880  0.79750945  0.70280025  1
  O  O9  1  0.75236065  0.79204036  0.19744662  1
  O  O10  1  0.04670102  0.25347161  0.20077132  1
  O  O11  1  0.20936656  0.95699296  0.19750464  1
  O  O12  1  0.88754467  0.33838325  0.63880565  1
  O  O13  1  0.47409816  0.12676772  0.63059887  1
  O  O14  1  0.65473140  0.53424186  0.62956932  1
  O  O15  1  0.87529970  0.53610723  0.13194883  1
  O  O16  1  0.65280533  0.11446116  0.13446975  1
  O  O17  1  0.47525878  0.34520351  0.13072555  1
  O  O18  1  0.44632930  0.31485947  0.02715683  1
  O  O19  1  0.87576478  0.56059260  0.02801228  1
  O  O20  1  0.68124211  0.11995169  0.03097354  1
  O  O21  1  0.44368623  0.12894457  0.52715072  1
  O  O22  1  0.67952238  0.56111592  0.52588492  1
  O  O23  1  0.86773318  0.31737512  0.53478215  1
  O  O24  1  0.55451407  0.68143105  0.97120155  1
  O  O25  1  0.14603928  0.45797248  0.96731408  1
  O  O26  1  0.32213808  0.87491116  0.97350610  1
  O  O27  1  0.54645181  0.86604931  0.47326345  1
  O  O28  1  0.31924939  0.44465889  0.47395227  1
  O  O29  1  0.13179503  0.68410634  0.46609959  1
  O  O30  1  0.13808271  0.65819475  0.36293980  1
  O  O31  1  0.50030102  0.83911277  0.36638411  1
  O  O32  1  0.33292407  0.49116425  0.36630653  1
  O  O33  1  0.15561889  0.49274214  0.86052252  1
  O  O34  1  0.33650916  0.84554417  0.86646615  1
  O  O35  1  0.51485095  0.65925187  0.86763994  1
  O  O36  1  0.02561753  0.81995793  0.40863472  1
  O  O37  1  0.79113010  0.96625378  0.40949414  1
  O  O38  1  0.19091606  0.19334563  0.41069056  1
  O  O39  1  0.02613657  0.20400263  0.90857421  1
  O  O40  1  0.17008271  0.97096223  0.91120902  1
  O  O41  1  0.79394292  0.80472062  0.91048409  1
  O  O42  1  0.98109935  0.17252475  0.58580251  1
  O  O43  1  0.20222814  0.02702405  0.58675297  1
  O  O44  1  0.81184742  0.80951684  0.58408047  1
  O  O45  1  0.97698065  0.80627127  0.08601399  1
  O  O46  1  0.81359771  0.00152891  0.08729654  1
  O  O47  1  0.20338691  0.17886204  0.08687366  1
  O  O48  1  0.66696507  0.14732551  0.74628455  1
  O  O49  1  0.48170386  0.34784778  0.74767681  1
  O  O50  1  0.87043425  0.50759472  0.74935772  1
  O  O51  1  0.65802223  0.51458587  0.24955978  1
  O  O52  1  0.87379388  0.35043507  0.24760088  1
  O  O53  1  0.48632068  0.13347182  0.24981691  1
  O  O54  1  0.62573992  0.50534140  0.91437076  1
  O  O55  1  0.88277353  0.38310822  0.91040704  1
  O  O56  1  0.48330958  0.13593995  0.91030685  1
  O  O57  1  0.62130482  0.12006751  0.41107550  1
  O  O58  1  0.50376974  0.37802287  0.41084862  1
  O  O59  1  0.87431630  0.52090470  0.41261038  1
  O  O60  1  0.35824738  0.48540625  0.08072377  1
  O  O61  1  0.13804153  0.66721613  0.08206498  1
  O  O62  1  0.51362418  0.85901982  0.08274623  1
  O  O63  1  0.35155539  0.86956628  0.58036388  1
  O  O64  1  0.51155655  0.65070585  0.58103889  1
  O  O65  1  0.13883171  0.47270226  0.58270584  1
  O  O66  1  0.32010656  0.82356961  0.26560220  1
  O  O67  1  0.50693224  0.67376803  0.26448649  1
  O  O68  1  0.16936404  0.49059880  0.26228472  1
  O  O69  1  0.32317661  0.49948038  0.76425990  1
  O  O70  1  0.17432310  0.68050505  0.76335176  1
  O  O71  1  0.51147860  0.83678687  0.76619327  1
loop_
_geom_bond_atom_site_label_1
_geom_bond_atom_site_label_2
_geom_bond_distance
_geom_bond_site_symmetry_2
Na0 O50 2.322508 1_555
Na0 O48 2.598597 1_555
Na0 O7 2.699249 1_655
Na0 O69 2.730000 1_655
Na0 O5 2.767926 1_555
Na0 O12 2.777479 1_555
Na0 O70 2.786402 1_655
Na0 O33 2.970070 1_655
Na1 O65 2.433032 1_555
Na1 O43 2.518815 1_555
Na1 O42 2.586619 1_455
Na1 O64 2.601586 1_555
Na1 O28 2.770336 1_555
Na1 O7 2.798524 1_555
Na2 O44 2.444395 1_555
Na2 O6 2.511247 1_555
Na2 O64 2.566096 1_555
Na2 O42 2.570530 1_565
Na2 O63 2.609839 1_555
Na2 O27 2.886658 1_555
Na3 O61 2.436567 1_555
Na3 O47 2.534206 1_565
Na3 O45 2.620431 1_455
Na3 O62 2.631200 1_555
Na3 O11 2.695130 1_555
Na3 O26 2.819032 1_554
Na4 O46 2.450142 1_565
Na4 O45 2.524083 1_555
Na4 O62 2.552389 1_555
Na4 O60 2.572330 1_555
Na4 O9 2.609568 1_555
Na5 O55 2.395332 1_555
Na5 O4 2.407188 1_555
Na5 O40 2.431779 1_655
Na5 O41 2.518519 1_555
Na5 O54 2.820579 1_555
Na5 O19 2.948271 1_556
Na6 O39 2.465850 1_555
Na6 O56 2.500704 1_555
Na6 O3 2.515447 1_555
Na6 O54 2.531148 1_555
Na6 O40 2.538026 1_545
Na6 O18 2.957344 1_556
Na7 O38 2.347658 1_555
Na7 O57 2.404532 1_555
Na7 O0 2.504632 1_555
Na7 O36 2.573356 1_545
Na7 O58 2.687653 1_555
Na7 O21 2.972181 1_555
Na8 O58 2.397847 1_555
Na8 O37 2.439059 1_555
Na8 O1 2.573039 1_555
Na8 O59 2.618982 1_555
Na8 O36 2.641309 1_655
Na8 O22 2.874810 1_555
Na9 O38 2.616785 1_655
Na9 O42 2.637863 1_555
Na9 O37 2.666624 1_545
Na9 O44 2.759531 1_545
Na9 O36 2.779350 1_645
Na9 O43 2.811448 1_655
Na10 O39 2.532395 1_655
Na10 O46 2.656609 1_556
Na10 O40 2.754302 1_645
Na10 O47 2.755147 1_656
Na10 O41 2.799920 1_545
Na10 O45 2.888245 1_546
Na11 O48 2.436320 1_555
Na11 O56 2.530139 1_555
Na11 O49 2.562364 1_555
Na11 O50 2.633130 1_555
Na11 O55 2.734375 1_555
Na11 O54 2.835756 1_555
Na12 O53 2.451157 1_555
Na12 O51 2.491080 1_555
Na12 O52 2.607425 1_555
Na12 O58 2.646221 1_555
Na12 O57 2.666760 1_555
Na12 O59 2.801456 1_555
Na13 O68 2.593014 1_555
Na13 O61 2.691391 1_555
Na13 O66 2.701006 1_555
Na13 O62 2.756455 1_555
Na13 O60 2.757178 1_555
Na13 O67 2.766166 1_555
Na14 O70 2.634933 1_555
Na14 O63 2.683189 1_555
Na14 O69 2.735999 1_555
Na14 O71 2.736014 1_555
Na14 O64 2.736191 1_555
Na14 O65 2.771931 1_555
Ca0 O2 2.216097 1_455
Ca0 O0 2.230700 1_555
Ca0 O1 2.235918 1_445
Ca0 O37 2.322856 1_445
Ca0 O38 2.324305 1_555
Ca0 O36 2.392406 1_545
Ca1 O5 2.161863 1_565
Ca1 O3 2.233637 1_665
Ca1 O4 2.259011 1_555
Ca1 O39 2.319731 1_665
Ca1 O40 2.339242 1_655
Ca1 O41 2.390839 1_555
Ca2 O8 2.207720 1_655
Ca2 O6 2.351925 1_555
Ca2 O7 2.385237 1_665
Ca2 O43 2.477852 1_665
Ca2 O44 2.491774 1_555
Ca2 O42 2.517804 1_565
Ca3 O9 2.308993 1_445
Ca3 O11 2.312865 1_545
Ca3 O10 2.345342 1_555
Ca3 O45 2.462882 1_445
Ca3 O46 2.481140 1_455
Ca3 O47 2.495097 1_555
Ca4 O49 2.218841 1_555
Ca4 O48 2.271085 1_555
Ca4 O14 2.284246 1_555
Ca4 O50 2.287156 1_555
Ca4 O13 2.308435 1_555
Ca4 O12 2.377219 1_555
Ca5 O51 2.255551 1_555
Ca5 O53 2.262416 1_555
Ca5 O17 2.277978 1_555
Ca5 O16 2.315660 1_555
Ca5 O52 2.317438 1_555
Ca5 O15 2.338443 1_555
Ca6 O20 2.258935 1_556
Ca6 O55 2.310393 1_555
Ca6 O56 2.333323 1_555
Ca6 O18 2.404165 1_556
Ca6 O19 2.410700 1_556
Ca6 O54 2.477782 1_555
Ca7 O23 2.302998 1_555
Ca7 O21 2.326845 1_555
Ca7 O57 2.359713 1_555
Ca7 O59 2.366164 1_555
Ca7 O22 2.381377 1_555
Ca7 O58 2.407283 1_555
Ca8 O25 2.132335 1_554
Ca8 O26 2.212023 1_554
Ca8 O24 2.288957 1_554
Ca8 O61 2.344135 1_555
Ca8 O60 2.372188 1_555
Ca8 O62 2.374609 1_555
Ca9 O28 2.206493 1_555
Ca9 O27 2.210243 1_555
Ca9 O29 2.224003 1_555
Ca9 O65 2.351618 1_555
Ca9 O64 2.364375 1_555
Ca9 O63 2.373717 1_555
O0 P0 1.527017 1_545
O1 P1 1.523593 1_555
O2 S0 1.460749 1_655
O3 P2 1.523993 1_555
O4 P3 1.516699 1_655
O5 P4 1.517322 1_545
O6 P4 1.543059 1_555
O7 P2 1.556765 1_555
O8 P3 1.522113 1_555
O9 P1 1.537675 1_555
O10 S0 1.469374 1_555
O11 P0 1.543875 1_555
O12 S1 1.470991 1_555
O13 S2 1.474881 1_555
O14 S3 1.468346 1_555
O15 S4 1.466518 1_555
O16 S5 1.467996 1_555
O17 S6 1.475664 1_555
O18 S6 1.488702 1_555
O19 S4 1.485128 1_555
O20 S5 1.473718 1_555
O21 S2 1.493203 1_555
O22 S3 1.483728 1_555
O23 S1 1.479277 1_555
O24 S7 1.470524 1_555
O25 P5 1.519866 1_555
O26 P6 1.528069 1_555
O27 P7 1.524018 1_555
O28 P8 1.525975 1_555
O29 S8 1.461838 1_555
O30 S8 1.496902 1_555
O30 Ta0 2.172357 1_555
O31 P7 1.625685 1_555
O31 Ta0 1.934025 1_555
O32 P8 1.612148 1_555
O32 Ta0 1.990869 1_555
O33 P5 1.616248 1_555
O33 Ta1 1.984097 1_555
O34 P6 1.606792 1_555
O34 Ta1 1.969902 1_555
O35 S7 1.502344 1_555
O35 Ta1 2.159257 1_555
O36 S8 1.489406 1_555
O37 P7 1.527775 1_555
O38 P8 1.537230 1_555
O39 P5 1.532659 1_555
O40 P6 1.546208 1_555
O41 S7 1.471079 1_555
O42 S1 1.509058 1_555
O43 S2 1.490592 1_555
O44 S3 1.487931 1_555
O45 S4 1.509910 1_555
O46 S5 1.491571 1_555
O47 S6 1.493074 1_555
O48 P4 1.533870 1_545
O49 P2 1.519253 1_555
O50 P3 1.536633 1_655
O51 P1 1.519364 1_555
O52 S0 1.463184 1_655
O53 P0 1.525920 1_545
O54 S7 1.496013 1_555
O55 P5 1.546287 1_655
O56 P6 1.542073 1_545
O57 P7 1.539186 1_545
O58 P8 1.560864 1_555
O59 S8 1.480276 1_655
O60 S6 1.493643 1_555
O61 S4 1.494713 1_455
O62 S5 1.511657 1_565
O63 S2 1.491026 1_565
O64 S3 1.512393 1_555
O65 S1 1.490126 1_455
O66 P0 1.632842 1_555
O66 Ta0 1.948310 1_555
O67 P1 1.648278 1_555
O67 Ta0 1.898599 1_555
O68 S0 1.537138 1_555
O68 Ta0 2.061010 1_555
O69 P2 1.625789 1_555
O69 Ta1 1.981147 1_555
O70 P3 1.638740 1_555
O70 Ta1 1.923282 1_555
O71 P4 1.609537 1_555
O71 Ta1 1.949154 1_555
