# generated using pymatgen
data_GeS2
_symmetry_space_group_name_H-M   'P 1'
_cell_length_a   22.67124828
_cell_length_b   6.87162078
_cell_length_c   6.87121384
_cell_angle_alpha   63.35831944
_cell_angle_beta   90.00000000
_cell_angle_gamma   90.00000000
_symmetry_Int_Tables_number   1
_chemical_formula_structural   GeS2
_chemical_formula_sum   'Ge12 S24'
_cell_volume   956.80220807
_cell_formula_units_Z   12
loop_
 _symmetry_equiv_pos_site_id
 _symmetry_equiv_pos_as_xyz
  1  'x, y, z'
loop_
 _atom_site_type_symbol
 _atom_site_label
 _atom_site_symmetry_multiplicity
 _atom_site_fract_x
 _atom_site_fract_y
 _atom_site_fract_z
 _atom_site_occupancy
  Ge  Ge0  1  0.01197739  0.00959124  0.00274599  1
  Ge  Ge1  1  0.98802261  0.50959124  0.00274599  1
  Ge  Ge2  1  0.26194339  0.24728955  0.74800030  1
  Ge  Ge3  1  0.73805661  0.74728955  0.74800030  1
  Ge  Ge4  1  0.48784952  0.00272276  0.50890948  1
  Ge  Ge5  1  0.51215048  0.50272276  0.50890948  1
  Ge  Ge6  1  0.23765918  0.24758759  0.24762576  1
  Ge  Ge7  1  0.76234082  0.74758759  0.24762576  1
  Ge  Ge8  1  0.12503955  0.38777691  0.86619962  1
  Ge  Ge9  1  0.87496045  0.88777691  0.86619962  1
  Ge  Ge10  1  0.37504928  0.38228025  0.37033900  1
  Ge  Ge11  1  0.62495072  0.88228025  0.37033900  1
  S  S0  1  0.05171942  0.62731512  0.72558132  1
  S  S1  1  0.94828058  0.12731512  0.72558132  1
  S  S2  1  0.10219788  0.07387568  0.86261462  1
  S  S3  1  0.89780212  0.57387568  0.86261462  1
  S  S4  1  0.19891012  0.52623434  0.62895781  1
  S  S5  1  0.80108988  0.02623434  0.62895781  1
  S  S6  1  0.30173339  0.52358871  0.13073944  1
  S  S7  1  0.69826661  0.02358871  0.13073944  1
  S  S8  1  0.44875056  0.62051912  0.23091464  1
  S  S9  1  0.55124944  0.12051912  0.23091464  1
  S  S10  1  0.99630383  0.15571508  0.22883322  1
  S  S11  1  0.00369617  0.65571508  0.22883322  1
  S  S12  1  0.14744963  0.38822534  0.18188517  1
  S  S13  1  0.85255037  0.88822534  0.18188517  1
  S  S14  1  0.24571977  0.02173670  0.60162741  1
  S  S15  1  0.75428023  0.52173670  0.60162741  1
  S  S16  1  0.25320007  0.02134668  0.10158274  1
  S  S17  1  0.74679993  0.52134668  0.10158274  1
  S  S18  1  0.35251889  0.38390618  0.68550090  1
  S  S19  1  0.64748111  0.88390618  0.68550090  1
  S  S20  1  0.39740036  0.06630033  0.37035669  1
  S  S21  1  0.60259964  0.56630033  0.37035669  1
  S  S22  1  0.49634814  0.64899042  0.73488389  1
  S  S23  1  0.50365186  0.14899042  0.73488389  1
loop_
_geom_bond_atom_site_label_1
_geom_bond_atom_site_label_2
_geom_bond_distance
_geom_bond_site_symmetry_2
Ge0 S2 2.219124 1_554
Ge0 S10 2.224133 1_455
Ge0 S11 2.230228 1_545
Ge0 S1 2.232733 1_454
Ge1 S3 2.219124 1_554
Ge1 S11 2.224133 1_655
Ge1 S10 2.230228 1_555
Ge1 S0 2.232733 1_654
Ge2 S18 2.218303 1_555
Ge2 S14 2.224200 1_555
Ge2 S16 2.229266 1_556
Ge2 S4 2.231426 1_555
Ge3 S19 2.218303 1_555
Ge3 S15 2.224200 1_555
Ge3 S17 2.229266 1_556
Ge3 S5 2.231426 1_565
Ge4 S20 2.220170 1_555
Ge4 S23 2.224658 1_555
Ge4 S22 2.229718 1_545
Ge4 S9 2.232325 1_555
Ge5 S21 2.220170 1_555
Ge5 S22 2.224658 1_555
Ge5 S23 2.229718 1_555
Ge5 S8 2.232325 1_555
Ge6 S12 2.220177 1_555
Ge6 S16 2.224219 1_555
Ge6 S14 2.230054 1_555
Ge6 S6 2.232969 1_555
Ge7 S13 2.220177 1_555
Ge7 S17 2.224219 1_555
Ge7 S15 2.230054 1_555
Ge7 S7 2.232969 1_565
Ge8 S2 2.229152 1_555
Ge8 S12 2.229196 1_556
Ge8 S4 2.230781 1_555
Ge8 S0 2.231533 1_555
Ge9 S3 2.229152 1_555
Ge9 S13 2.229196 1_556
Ge9 S5 2.230781 1_565
Ge9 S1 2.231533 1_565
Ge10 S20 2.229586 1_555
Ge10 S18 2.229869 1_555
Ge10 S6 2.232133 1_555
Ge10 S8 2.232314 1_555
Ge11 S21 2.229586 1_555
Ge11 S19 2.229869 1_555
Ge11 S7 2.232133 1_565
Ge11 S9 2.232314 1_565
