# generated using pymatgen
data_Rb2LiFeF6
_symmetry_space_group_name_H-M   'P 1'
_cell_length_a   10.35339760
_cell_length_b   10.35339760
_cell_length_c   10.35339790
_cell_angle_alpha   33.65900677
_cell_angle_beta   33.65900677
_cell_angle_gamma   33.65901300
_symmetry_Int_Tables_number   1
_chemical_formula_structural   Rb2LiFeF6
_chemical_formula_sum   'Rb4 Li2 Fe2 F12'
_cell_volume   303.72064715
_cell_formula_units_Z   2
loop_
 _symmetry_equiv_pos_site_id
 _symmetry_equiv_pos_as_xyz
  1  'x, y, z'
loop_
 _atom_site_type_symbol
 _atom_site_label
 _atom_site_symmetry_multiplicity
 _atom_site_fract_x
 _atom_site_fract_y
 _atom_site_fract_z
 _atom_site_occupancy
  Rb  Rb0  1  0.87237800  0.87237800  0.87237800  1
  Rb  Rb1  1  0.12762200  0.12762200  0.12762200  1
  Rb  Rb2  1  0.28297000  0.28297000  0.28297000  1
  Rb  Rb3  1  0.71703000  0.71703000  0.71703000  1
  Li  Li0  1  0.40386300  0.40386300  0.40386300  1
  Li  Li1  1  0.59613700  0.59613700  0.59613700  1
  Fe  Fe0  1  0.00000000  0.00000000  0.00000000  1
  Fe  Fe1  1  0.50000000  0.50000000  0.50000000  1
  F  F0  1  0.80448300  0.80448300  0.27617900  1
  F  F1  1  0.27617900  0.80448300  0.80448300  1
  F  F2  1  0.80448300  0.27617900  0.80448300  1
  F  F3  1  0.19551700  0.72382100  0.19551700  1
  F  F4  1  0.19551700  0.19551700  0.72382100  1
  F  F5  1  0.72382100  0.19551700  0.19551700  1
  F  F6  1  0.16139600  0.60774100  0.60774100  1
  F  F7  1  0.60774100  0.60774100  0.16139600  1
  F  F8  1  0.60774100  0.16139600  0.60774100  1
  F  F9  1  0.39225900  0.83860400  0.39225900  1
  F  F10  1  0.83860400  0.39225900  0.39225900  1
  F  F11  1  0.39225900  0.39225900  0.83860400  1
loop_
_geom_bond_atom_site_label_1
_geom_bond_atom_site_label_2
_geom_bond_distance
_geom_bond_site_symmetry_2
F0 Fe0 1.980313 1_665
F0 Li1 2.057856 1_555
F0 Rb2 3.019935 1_565
F0 Rb2 3.019935 1_655
F0 Rb0 3.082973 1_554
F0 Rb3 3.174568 1_555
F1 Fe0 1.980314 1_566
F1 Li1 2.057856 1_555
F1 Rb2 3.019934 1_556
F1 Rb2 3.019934 1_565
F1 Rb0 3.082973 1_455
F1 Rb3 3.174568 1_555
F2 Fe0 1.980314 1_656
F2 Li1 2.057856 1_555
F2 Rb2 3.019934 1_556
F2 Rb2 3.019934 1_655
F2 Rb0 3.082973 1_545
F2 Rb3 3.174568 1_555
F3 Fe0 1.980314 1_565
F3 Li0 2.057856 1_555
F3 Rb3 3.019934 1_554
F3 Rb3 3.019934 1_455
F3 Rb1 3.082973 1_565
F3 Rb2 3.174568 1_555
F4 Fe0 1.980313 1_556
F4 Li0 2.057856 1_555
F4 Rb3 3.019935 1_455
F4 Rb3 3.019935 1_545
F4 Rb1 3.082973 1_556
F4 Rb2 3.174568 1_555
F5 Fe0 1.980314 1_655
F5 Li0 2.057856 1_555
F5 Rb3 3.019934 1_554
F5 Rb3 3.019934 1_545
F5 Rb1 3.082973 1_655
F5 Rb2 3.174568 1_555
F6 Fe1 1.957072 1_555
F6 Li0 2.233394 1_555
F6 Rb3 2.919997 1_455
F6 Rb1 3.003880 1_556
F6 Rb1 3.003880 1_565
F6 Rb0 3.027932 1_455
F7 Fe1 1.957072 1_555
F7 Li0 2.233394 1_555
F7 Rb3 2.919997 1_554
F7 Rb1 3.003881 1_565
F7 Rb1 3.003881 1_655
F7 Rb0 3.027932 1_554
F8 Fe1 1.957072 1_555
F8 Li0 2.233394 1_555
F8 Rb3 2.919997 1_545
F8 Rb1 3.003880 1_556
F8 Rb1 3.003880 1_655
F8 Rb0 3.027932 1_545
F9 Fe1 1.957072 1_555
F9 Li1 2.233394 1_555
F9 Rb2 2.919997 1_565
F9 Rb0 3.003880 1_554
F9 Rb0 3.003880 1_455
F9 Rb1 3.027932 1_565
F10 Fe1 1.957072 1_555
F10 Li1 2.233394 1_555
F10 Rb2 2.919997 1_655
F10 Rb0 3.003880 1_554
F10 Rb0 3.003880 1_545
F10 Rb1 3.027932 1_655
F11 Fe1 1.957072 1_555
F11 Li1 2.233394 1_555
F11 Rb2 2.919997 1_556
F11 Rb0 3.003881 1_455
F11 Rb0 3.003881 1_545
F11 Rb1 3.027932 1_556
