# generated using pymatgen
data_Sr2MgCu(OF)2
_symmetry_space_group_name_H-M   'P 1'
_cell_length_a   4.04286828
_cell_length_b   4.04286828
_cell_length_c   8.61037165
_cell_angle_alpha   103.82134043
_cell_angle_beta   103.82134043
_cell_angle_gamma   90.02181917
_symmetry_Int_Tables_number   1
_chemical_formula_structural   Sr2MgCu(OF)2
_chemical_formula_sum   'Sr2 Mg1 Cu1 O2 F2'
_cell_volume   132.45626311
_cell_formula_units_Z   1
loop_
 _symmetry_equiv_pos_site_id
 _symmetry_equiv_pos_as_xyz
  1  'x, y, z'
loop_
 _atom_site_type_symbol
 _atom_site_label
 _atom_site_symmetry_multiplicity
 _atom_site_fract_x
 _atom_site_fract_y
 _atom_site_fract_z
 _atom_site_occupancy
  Sr  Sr0  1  0.39948300  0.39948300  0.80409200  1
  Sr  Sr1  1  0.59354600  0.59354600  0.18506500  1
  Mg  Mg0  1  0.20587600  0.20587600  0.40731700  1
  Cu  Cu0  1  0.01846900  0.01846900  0.03698100  1
  O  O0  1  0.98855600  0.48855500  0.97824900  1
  O  O1  1  0.48855500  0.98855600  0.97824900  1
  F  F0  1  0.24389300  0.74495600  0.48557900  1
  F  F1  1  0.74495600  0.24389300  0.48557900  1
loop_
_geom_bond_atom_site_label_1
_geom_bond_atom_site_label_2
_geom_bond_distance
_geom_bond_site_symmetry_2
Cu0 O1 2.076632 1_544
Cu0 O0 2.076632 1_454
Cu0 O1 2.076792 1_444
Cu0 O0 2.076792 1_444
O0 Sr0 2.463957 1_655
O0 Sr0 2.466805 1_555
O0 Sr1 2.625015 1_656
O0 Sr1 2.626734 1_556
O1 Sr0 2.463957 1_565
O1 Sr0 2.466805 1_555
O1 Sr1 2.625015 1_566
O1 Sr1 2.626734 1_556
F0 Mg0 2.115700 1_555
F0 Mg0 2.121513 1_565
F1 Mg0 2.115700 1_555
F1 Mg0 2.121513 1_655
