# generated using pymatgen
data_Na2Ca3Zr(SO4)6
_symmetry_space_group_name_H-M   'P 1'
_cell_length_a   9.14248034
_cell_length_b   9.14248002
_cell_length_c   24.12755585
_cell_angle_alpha   90.00000000
_cell_angle_beta   90.00000000
_cell_angle_gamma   120.00000115
_symmetry_Int_Tables_number   1
_chemical_formula_structural   Na2Ca3Zr(SO4)6
_chemical_formula_sum   'Na6 Ca9 Zr3 S18 O72'
_cell_volume   1746.51375883
_cell_formula_units_Z   3
loop_
 _symmetry_equiv_pos_site_id
 _symmetry_equiv_pos_as_xyz
  1  'x, y, z'
loop_
 _atom_site_type_symbol
 _atom_site_label
 _atom_site_symmetry_multiplicity
 _atom_site_fract_x
 _atom_site_fract_y
 _atom_site_fract_z
 _atom_site_occupancy
  Na  Na0  1  0.00000000  -0.00000000  0.50681230  1
  Na  Na1  1  0.00000000  -0.00000000  0.00356664  1
  Na  Na2  1  0.66666700  0.33333300  0.82814532  1
  Na  Na3  1  0.66666700  0.33333300  0.33665341  1
  Na  Na4  1  0.33333300  0.66666700  0.17501974  1
  Na  Na5  1  0.33333300  0.66666700  0.65734329  1
  Ca  Ca0  1  0.00000000  -0.00000000  0.64492078  1
  Ca  Ca1  1  0.00000000  -0.00000000  0.15036140  1
  Ca  Ca2  1  0.66666700  0.33333300  0.68070522  1
  Ca  Ca3  1  0.66666700  0.33333300  0.18692851  1
  Ca  Ca4  1  0.66666700  0.33333300  0.98269371  1
  Ca  Ca5  1  0.66666700  0.33333300  0.48469348  1
  Ca  Ca6  1  0.33333300  0.66666700  0.51668884  1
  Ca  Ca7  1  0.33333300  0.66666700  0.31766062  1
  Ca  Ca8  1  0.33333300  0.66666700  0.81370925  1
  Zr  Zr0  1  0.00000000  -0.00000000  0.35274487  1
  Zr  Zr1  1  0.00000000  -0.00000000  0.84779921  1
  Zr  Zr2  1  0.33333300  0.66666700  0.01858418  1
  S  S0  1  0.29063752  0.99920656  0.25095838  1
  S  S1  1  0.70856904  0.70936248  0.25095838  1
  S  S2  1  0.00079344  0.29143096  0.25095838  1
  S  S3  1  0.29229551  0.29045465  0.75093206  1
  S  S4  1  0.99815914  0.70770449  0.75093206  1
  S  S5  1  0.70954535  0.00184086  0.75093206  1
  S  S6  1  0.96547685  0.33516038  0.58345176  1
  S  S7  1  0.36968453  0.03452315  0.58345176  1
  S  S8  1  0.66483962  0.63031547  0.58345176  1
  S  S9  1  0.96683036  0.63048282  0.08099413  1
  S  S10  1  0.66365346  0.03316964  0.08099413  1
  S  S11  1  0.36951718  0.33634654  0.08099413  1
  S  S12  1  0.62825817  0.67153241  0.91639876  1
  S  S13  1  0.04327324  0.37174183  0.91639876  1
  S  S14  1  0.32846759  0.95672676  0.91639876  1
  S  S15  1  0.63402884  0.96513454  0.41437083  1
  S  S16  1  0.33110470  0.36597116  0.41437083  1
  S  S17  1  0.03486546  0.66889530  0.41437083  1
  O  O0  1  0.19745755  0.01460406  0.30063377  1
  O  O1  1  0.81714652  0.80254245  0.30063377  1
  O  O2  1  0.98539594  0.18285348  0.30063377  1
  O  O3  1  0.19468374  0.17899554  0.80285222  1
  O  O4  1  0.98431180  0.80531626  0.80285222  1
  O  O5  1  0.82100446  0.01568820  0.80285222  1
  O  O6  1  0.79002627  0.98214134  0.70207834  1
  O  O7  1  0.19211507  0.20997373  0.70207834  1
  O  O8  1  0.01785866  0.80788493  0.70207834  1
  O  O9  1  0.78619917  0.80582312  0.20013848  1
  O  O10  1  0.01962395  0.21380083  0.20013848  1
  O  O11  1  0.19417688  0.98037605  0.20013848  1
  O  O12  1  0.88510335  0.35342636  0.63433060  1
  O  O13  1  0.46832401  0.11489665  0.63433060  1
  O  O14  1  0.64657364  0.53167599  0.63433060  1
  O  O15  1  0.89921415  0.52961385  0.13141079  1
  O  O16  1  0.63040070  0.10078585  0.13141079  1
  O  O17  1  0.47038615  0.36959930  0.13141079  1
  O  O18  1  0.44966037  0.31519461  0.03160823  1
  O  O19  1  0.86553524  0.55033963  0.03160823  1
  O  O20  1  0.68480539  0.13446476  0.03160823  1
  O  O21  1  0.45098418  0.13516612  0.53346024  1
  O  O22  1  0.68418294  0.54901582  0.53346024  1
  O  O23  1  0.86483388  0.31581706  0.53346024  1
  O  O24  1  0.54219130  0.69418860  0.96707875  1
  O  O25  1  0.15199630  0.45780870  0.96707875  1
  O  O26  1  0.30581140  0.84800370  0.96707875  1
  O  O27  1  0.56631667  0.86366278  0.46459074  1
  O  O28  1  0.29734511  0.43368333  0.46459074  1
  O  O29  1  0.13633722  0.70265489  0.46459074  1
  O  O30  1  0.11533270  0.64809024  0.36490933  1
  O  O31  1  0.53275654  0.88466730  0.36490933  1
  O  O32  1  0.35190976  0.46724346  0.36490933  1
  O  O33  1  0.12132713  0.47208775  0.86717849  1
  O  O34  1  0.35075962  0.87867287  0.86717849  1
  O  O35  1  0.52791225  0.64924038  0.86717849  1
  O  O36  1  0.01763247  0.82756989  0.40489697  1
  O  O37  1  0.80993741  0.98236753  0.40489697  1
  O  O38  1  0.17243011  0.19006259  0.40489697  1
  O  O39  1  0.03014480  0.20016876  0.91153572  1
  O  O40  1  0.17002396  0.96985520  0.91153572  1
  O  O41  1  0.79983124  0.82997604  0.91153572  1
  O  O42  1  0.98245547  0.18182926  0.58722368  1
  O  O43  1  0.19937378  0.01754453  0.58722368  1
  O  O44  1  0.81817074  0.80062622  0.58722368  1
  O  O45  1  0.99383789  0.80291001  0.08611984  1
  O  O46  1  0.80907213  0.00616211  0.08611984  1
  O  O47  1  0.19708999  0.19092787  0.08611984  1
  O  O48  1  0.69977044  0.15727599  0.75201192  1
  O  O49  1  0.45750655  0.30022956  0.75201192  1
  O  O50  1  0.84272401  0.54249346  0.75201192  1
  O  O51  1  0.69703627  0.54189424  0.24931058  1
  O  O52  1  0.84485897  0.30296373  0.24931058  1
  O  O53  1  0.45810576  0.15514103  0.24931058  1
  O  O54  1  0.65092684  0.52479276  0.92404053  1
  O  O55  1  0.87386692  0.34907316  0.92404053  1
  O  O56  1  0.47520724  0.12613308  0.92404053  1
  O  O57  1  0.66031821  0.13696411  0.41951514  1
  O  O58  1  0.47664691  0.33968179  0.41951514  1
  O  O59  1  0.86303589  0.52335309  0.41951514  1
  O  O60  1  0.35200166  0.49530993  0.07119404  1
  O  O61  1  0.14330727  0.64799834  0.07119404  1
  O  O62  1  0.50469007  0.85669273  0.07119404  1
  O  O63  1  0.35221720  0.86401667  0.57963237  1
  O  O64  1  0.51179847  0.64778280  0.57963237  1
  O  O65  1  0.13598333  0.48820153  0.57963237  1
  O  O66  1  0.30861400  0.84832396  0.25651855  1
  O  O67  1  0.53970895  0.69138600  0.25651855  1
  O  O68  1  0.15167604  0.46029104  0.25651855  1
  O  O69  1  0.30747026  0.45648161  0.75894783  1
  O  O70  1  0.14901035  0.69252974  0.75894783  1
  O  O71  1  0.54351839  0.85098965  0.75894783  1
loop_
_geom_bond_atom_site_label_1
_geom_bond_atom_site_label_2
_geom_bond_distance
_geom_bond_site_symmetry_2
Na0 O44 2.611504 1_445
Na0 O43 2.611504 1_555
Na0 O42 2.611504 1_455
Na0 O36 2.968467 1_545
Na0 O38 2.968467 1_555
Na0 O37 2.968467 1_445
Na1 O47 2.667540 1_555
Na1 O46 2.667540 1_455
Na1 O45 2.667540 1_445
Na1 O39 2.801995 1_554
Na1 O41 2.801995 1_444
Na1 O40 2.801995 1_544
Na2 O48 2.558083 1_555
Na2 O50 2.558083 1_555
Na2 O49 2.558083 1_555
Na2 O56 2.947855 1_555
Na2 O54 2.947855 1_555
Na2 O55 2.947855 1_555
Na3 O59 2.668195 1_555
Na3 O58 2.668195 1_555
Na3 O57 2.668195 1_555
Na3 O51 2.761239 1_555
Na3 O53 2.761239 1_555
Na3 O52 2.761239 1_555
Na4 O67 2.655417 1_555
Na4 O68 2.655417 1_555
Na4 O66 2.655417 1_555
Na4 O62 3.004359 1_555
Na4 O60 3.004359 1_555
Na4 O61 3.004359 1_555
Na5 O63 2.547392 1_555
Na5 O65 2.547392 1_555
Na5 O64 2.547392 1_555
Ca0 O44 2.234673 1_445
Ca0 O43 2.234673 1_555
Ca0 O42 2.234673 1_455
Ca0 O7 2.302225 1_555
Ca0 O8 2.302225 1_545
Ca0 O6 2.302225 1_445
Ca1 O10 2.223653 1_555
Ca1 O9 2.223653 1_445
Ca1 O11 2.223653 1_545
Ca1 O47 2.356045 1_555
Ca1 O46 2.356045 1_455
Ca1 O45 2.356045 1_445
Ca2 O13 2.215184 1_555
Ca2 O14 2.215184 1_555
Ca2 O12 2.215185 1_555
Ca2 O48 2.475785 1_555
Ca2 O50 2.475785 1_555
Ca2 O49 2.475785 1_555
Ca3 O51 2.334276 1_555
Ca3 O53 2.334276 1_555
Ca3 O52 2.334276 1_555
Ca3 O16 2.391529 1_555
Ca3 O15 2.391529 1_555
Ca3 O17 2.391529 1_555
Ca4 O19 2.242211 1_556
Ca4 O20 2.242211 1_556
Ca4 O18 2.242211 1_556
Ca4 O56 2.310678 1_555
Ca4 O54 2.310678 1_555
Ca4 O55 2.310678 1_555
Ca5 O22 2.232175 1_555
Ca5 O21 2.232175 1_555
Ca5 O23 2.232175 1_555
Ca5 O59 2.365441 1_555
Ca5 O58 2.365441 1_555
Ca5 O57 2.365441 1_555
Ca6 O63 2.297835 1_555
Ca6 O65 2.297835 1_555
Ca6 O64 2.297835 1_555
Ca6 O28 2.350443 1_555
Ca6 O27 2.350443 1_555
Ca6 O29 2.350443 1_555
Ca7 O31 2.227609 1_555
Ca7 O32 2.227609 1_555
Ca7 O30 2.227609 1_555
Ca7 O67 2.315358 1_555
Ca7 O68 2.315358 1_555
Ca7 O66 2.315358 1_555
Ca8 O69 2.244967 1_555
Ca8 O71 2.244967 1_555
Ca8 O70 2.244967 1_555
Ca8 O34 2.266658 1_555
Ca8 O33 2.266658 1_555
Ca8 O35 2.266658 1_555
O0 S0 1.517227 1_545
O0 Zr0 2.148619 1_555
O1 S1 1.517227 1_555
O1 Zr0 2.148619 1_665
O2 S2 1.517227 1_655
O2 Zr0 2.148619 1_655
O3 S3 1.579456 1_555
O3 Zr1 2.027155 1_555
O4 S4 1.579456 1_555
O4 Zr1 2.027155 1_665
O5 S5 1.579456 1_555
O5 Zr1 2.027155 1_655
O6 S5 1.447665 1_565
O7 S3 1.447665 1_555
O8 S4 1.447665 1_455
O9 S1 1.469358 1_555
O10 S2 1.469358 1_555
O11 S0 1.469358 1_555
O12 S6 1.482399 1_555
O13 S7 1.482399 1_555
O14 S8 1.482399 1_555
O15 S9 1.463629 1_555
O16 S10 1.463629 1_555
O17 S11 1.463629 1_555
O18 S11 1.461426 1_555
O19 S9 1.461426 1_555
O20 S10 1.461426 1_555
O21 S7 1.473106 1_555
O22 S8 1.473106 1_555
O23 S6 1.473106 1_555
O24 S12 1.523236 1_555
O24 Zr2 2.184784 1_556
O25 S13 1.523236 1_555
O25 Zr2 2.184784 1_556
O26 S14 1.523236 1_555
O26 Zr2 2.184784 1_556
O27 S15 1.462102 1_555
O28 S16 1.462102 1_555
O29 S17 1.462102 1_555
O30 S17 1.463383 1_555
O31 S15 1.463383 1_555
O32 S16 1.463383 1_555
O33 S13 1.451384 1_555
O34 S14 1.451384 1_555
O35 S12 1.451384 1_555
O36 S17 1.552450 1_555
O36 Zr0 2.085330 1_565
O37 S15 1.552459 1_555
O37 Zr0 2.085330 1_665
O38 S16 1.552455 1_555
O38 Zr0 2.085330 1_555
O39 S13 1.516712 1_555
O39 Zr1 2.299019 1_555
O40 S14 1.516703 1_555
O40 Zr1 2.299019 1_565
O41 S12 1.516708 1_555
O41 Zr1 2.299019 1_665
O42 S6 1.488320 1_555
O43 S7 1.488329 1_555
O44 S8 1.488325 1_555
O45 S9 1.473803 1_555
O46 S10 1.473794 1_555
O47 S11 1.473800 1_555
O48 S5 1.468019 1_555
O49 S3 1.468028 1_555
O50 S4 1.468024 1_555
O51 S1 1.481707 1_555
O52 S2 1.481698 1_655
O53 S0 1.481703 1_545
O54 S12 1.467916 1_555
O55 S13 1.467898 1_655
O56 S14 1.467905 1_545
O57 S15 1.470876 1_545
O58 S16 1.470894 1_555
O59 S17 1.470882 1_655
O60 S11 1.557697 1_555
O60 Zr2 2.088561 1_555
O61 S9 1.557679 1_455
O61 Zr2 2.088561 1_555
O62 S10 1.557686 1_565
O62 Zr2 2.088561 1_555
O63 S7 1.488312 1_565
O64 S8 1.488331 1_555
O65 S6 1.488320 1_455
O66 S0 1.474645 1_555
O67 S1 1.474654 1_555
O68 S2 1.474650 1_555
O69 S3 1.466315 1_555
O70 S4 1.466306 1_455
O71 S5 1.466312 1_565
