# generated using pymatgen
data_Rb2Mg(FeS2)2
_symmetry_space_group_name_H-M   'P 1'
_cell_length_a   5.34592903
_cell_length_b   6.87439539
_cell_length_c   6.87439512
_cell_angle_alpha   116.53640011
_cell_angle_beta   102.19130494
_cell_angle_gamma   102.19128643
_symmetry_Int_Tables_number   1
_chemical_formula_structural   Rb2Mg(FeS2)2
_chemical_formula_sum   'Rb2 Mg1 Fe2 S4'
_cell_volume   207.00003686
_cell_formula_units_Z   1
loop_
 _symmetry_equiv_pos_site_id
 _symmetry_equiv_pos_as_xyz
  1  'x, y, z'
loop_
 _atom_site_type_symbol
 _atom_site_label
 _atom_site_symmetry_multiplicity
 _atom_site_fract_x
 _atom_site_fract_y
 _atom_site_fract_z
 _atom_site_occupancy
  Rb  Rb0  1  0.75000000  0.58874700  0.41125300  1
  Rb  Rb1  1  0.25000000  0.35554200  0.64445800  1
  Mg  Mg0  1  0.25000000  0.74917500  0.25082500  1
  Fe  Fe0  1  0.25000000  0.01100600  0.98899400  1
  Fe  Fe1  1  0.75000000  0.01174900  0.98825100  1
  S  S0  1  0.39647600  0.92189500  0.69482600  1
  S  S1  1  0.10352400  0.30517400  0.07810500  1
  S  S2  1  0.90637400  0.72947400  0.94128100  1
  S  S3  1  0.59362600  0.05871900  0.27052600  1
loop_
_geom_bond_atom_site_label_1
_geom_bond_atom_site_label_2
_geom_bond_distance
_geom_bond_site_symmetry_2
Rb0 S2 3.183249 1_555
Rb0 S3 3.183250 1_555
Rb0 S1 3.288107 1_555
Rb0 S0 3.288107 1_655
Rb0 S0 3.465805 1_555
Rb0 S1 3.465805 1_655
Rb1 S0 3.378383 1_545
Rb1 S1 3.378383 1_556
Rb1 S3 3.400528 1_455
Rb1 S2 3.400528 1_555
Rb1 S2 3.610635 1_455
Rb1 S3 3.610635 1_555
Rb1 S1 3.644782 1_555
Rb1 S0 3.644783 1_555
Mg0 S2 2.430519 1_454
Mg0 S3 2.430520 1_565
Mg0 S0 2.588198 1_555
Mg0 S1 2.588198 1_555
Mg0 Rb0 3.265586 1_555
Mg0 Rb0 3.265586 1_455
Fe0 S1 2.200529 1_556
Fe0 S0 2.200529 1_545
Fe0 S3 2.214614 1_556
Fe0 S2 2.214614 1_445
Fe1 S0 2.192180 1_545
Fe1 S1 2.192180 1_656
Fe1 S2 2.192669 1_545
Fe1 S3 2.192669 1_556
