# generated using pymatgen
data_Co5Ge7
_symmetry_space_group_name_H-M   'P 1'
_cell_length_a   6.36360138
_cell_length_b   6.36360138
_cell_length_c   6.36360138
_cell_angle_alpha   102.21292403
_cell_angle_beta   102.21292403
_cell_angle_gamma   125.23346368
_symmetry_Int_Tables_number   1
_chemical_formula_structural   Co5Ge7
_chemical_formula_sum   'Co5 Ge7'
_cell_volume   186.90344930
_cell_formula_units_Z   1
loop_
 _symmetry_equiv_pos_site_id
 _symmetry_equiv_pos_as_xyz
  1  'x, y, z'
loop_
 _atom_site_type_symbol
 _atom_site_label
 _atom_site_symmetry_multiplicity
 _atom_site_fract_x
 _atom_site_fract_y
 _atom_site_fract_z
 _atom_site_occupancy
  Co  Co0  1  0.54024700  0.54024700  0.00000000  1
  Co  Co1  1  0.72167700  0.25296100  0.00000000  1
  Co  Co2  1  0.25296100  0.25296100  0.53128500  1
  Co  Co3  1  0.72167700  0.72167700  0.46871600  1
  Co  Co4  1  0.25296100  0.72167700  0.00000000  1
  Ge  Ge0  1  0.15975700  0.15975700  0.00000000  1
  Ge  Ge1  1  0.01985000  0.51985000  0.50000000  1
  Ge  Ge2  1  0.51985000  0.01985000  0.50000000  1
  Ge  Ge3  1  0.01830200  0.77775500  0.24054700  1
  Ge  Ge4  1  0.77775500  0.53720700  0.75945300  1
  Ge  Ge5  1  0.77775500  0.01830200  0.24054700  1
  Ge  Ge6  1  0.53720700  0.77775500  0.75945300  1
loop_
_geom_bond_atom_site_label_1
_geom_bond_atom_site_label_2
_geom_bond_distance
_geom_bond_site_symmetry_2
Co0 Ge0 2.227296 1_555
Co0 Ge5 2.372332 1_565
Co0 Ge3 2.372332 1_655
Co0 Ge6 2.372333 1_554
Co0 Ge4 2.372333 1_554
Co1 Ge6 2.459927 1_544
Co1 Ge5 2.459929 1_555
Co1 Ge4 2.529861 1_554
Co1 Ge3 2.529866 1_655
Co1 Ge1 2.837202 1_655
Co1 Ge2 2.837202 1_554
Co2 Ge5 2.459932 1_455
Co2 Ge3 2.459932 1_545
Co2 Ge6 2.529866 1_555
Co2 Ge4 2.529866 1_555
Co2 Ge1 2.837202 1_555
Co2 Ge2 2.837202 1_555
Co3 Ge4 2.459934 1_555
Co3 Ge6 2.459934 1_555
Co3 Ge5 2.529866 1_565
Co3 Ge3 2.529866 1_655
Co3 Ge1 2.837202 1_655
Co3 Ge2 2.837202 1_565
Co4 Ge4 2.459927 1_454
Co4 Ge3 2.459929 1_555
Co4 Ge6 2.529861 1_554
Co4 Ge5 2.529866 1_565
Co4 Ge2 2.837202 1_565
Co4 Ge1 2.837202 1_554
Ge0 Ge5 2.948785 1_455
Ge0 Ge3 2.948785 1_545
Ge0 Ge4 2.948790 1_444
Ge0 Ge6 2.948790 1_444
Ge1 Ge4 2.511370 1_455
Ge1 Ge5 2.511372 1_455
Ge1 Ge6 2.564730 1_555
Ge1 Ge3 2.564735 1_555
Ge1 Ge2 2.926878 1_565
Ge1 Ge2 2.926878 1_455
Ge2 Ge6 2.511370 1_545
Ge2 Ge3 2.511372 1_545
Ge2 Ge4 2.564730 1_555
Ge2 Ge5 2.564735 1_555
Ge3 Ge5 2.718450 1_465
Ge3 Ge4 2.718450 1_454
Ge4 Ge6 2.718461 1_555
Ge5 Ge6 2.718450 1_544
