# generated using pymatgen
data_Zr3ZnP2(SO6)4
_symmetry_space_group_name_H-M   'P 1'
_cell_length_a   8.92513141
_cell_length_b   8.94753704
_cell_length_c   22.99660451
_cell_angle_alpha   90.00972061
_cell_angle_beta   89.92547741
_cell_angle_gamma   119.97906141
_symmetry_Int_Tables_number   1
_chemical_formula_structural   Zr3ZnP2(SO6)4
_chemical_formula_sum   'Zr9 Zn3 P6 S12 O72'
_cell_volume   1590.75622797
_cell_formula_units_Z   3
loop_
 _symmetry_equiv_pos_site_id
 _symmetry_equiv_pos_as_xyz
  1  'x, y, z'
loop_
 _atom_site_type_symbol
 _atom_site_label
 _atom_site_symmetry_multiplicity
 _atom_site_fract_x
 _atom_site_fract_y
 _atom_site_fract_z
 _atom_site_occupancy
  Zr  Zr0  1  0.00074993  0.00018275  0.85884542  1
  Zr  Zr1  1  0.99894562  0.00511170  0.64370506  1
  Zr  Zr2  1  0.00581958  0.00619213  0.14452324  1
  Zr  Zr3  1  0.65868530  0.33126739  0.97676128  1
  Zr  Zr4  1  0.67289425  0.32605688  0.47606685  1
  Zr  Zr5  1  0.33326886  0.66091869  0.02213819  1
  Zr  Zr6  1  0.33528492  0.66637993  0.52080603  1
  Zr  Zr7  1  0.34045766  0.67449151  0.30861876  1
  Zr  Zr8  1  0.33210334  0.66657805  0.81397026  1
  Zn  Zn0  1  0.99100058  0.99943974  0.35284771  1
  Zn  Zn1  1  0.67570907  0.33590885  0.68590698  1
  Zn  Zn2  1  0.66028471  0.33524343  0.18588174  1
  P  P0  1  0.95376991  0.33670212  0.58529034  1
  P  P1  1  0.38308696  0.33477635  0.08567212  1
  P  P2  1  0.62076412  0.66599405  0.91667342  1
  P  P3  1  0.04316120  0.37886004  0.91700186  1
  P  P4  1  0.33410982  0.95344884  0.91729665  1
  P  P5  1  0.62870615  0.95287089  0.41548177  1
  S  S0  1  0.29165148  0.00718297  0.25135254  1
  S  S1  1  0.71594526  0.70753906  0.25050722  1
  S  S2  1  0.99346908  0.28793604  0.25096316  1
  S  S3  1  0.29587262  0.29015455  0.74934956  1
  S  S4  1  0.99520786  0.70643969  0.74927907  1
  S  S5  1  0.70970301  0.00455912  0.74973731  1
  S  S6  1  0.38034829  0.04612271  0.58472108  1
  S  S7  1  0.66614888  0.61865717  0.58452397  1
  S  S8  1  0.95329690  0.61981333  0.08495287  1
  S  S9  1  0.66581655  0.04614764  0.08491340  1
  S  S10  1  0.32919954  0.37241377  0.41578595  1
  S  S11  1  0.04541774  0.67312508  0.41566645  1
  O  O0  1  0.20877521  0.02840371  0.30311618  1
  O  O1  1  0.81872642  0.78869222  0.30259985  1
  O  O2  1  0.97065289  0.18235817  0.30241100  1
  O  O3  1  0.20901614  0.18073799  0.80118469  1
  O  O4  1  0.97283496  0.79282487  0.80144367  1
  O  O5  1  0.81976876  0.02775028  0.80133123  1
  O  O6  1  0.79298011  0.97206100  0.69773812  1
  O  O7  1  0.17960355  0.20648015  0.69751464  1
  O  O8  1  0.02740245  0.82096131  0.69752171  1
  O  O9  1  0.79150326  0.82103647  0.19803774  1
  O  O10  1  0.02931134  0.20850457  0.19807984  1
  O  O11  1  0.17825322  0.97020617  0.19837665  1
  O  O12  1  0.87343670  0.36570129  0.63849574  1
  O  O13  1  0.48453647  0.12124730  0.63636436  1
  O  O14  1  0.63461902  0.51429745  0.63639366  1
  O  O15  1  0.87912001  0.51439857  0.13650312  1
  O  O16  1  0.63750559  0.12199724  0.13656993  1
  O  O17  1  0.49234618  0.36509314  0.13881626  1
  O  O18  1  0.46182293  0.30313247  0.02982767  1
  O  O19  1  0.84798543  0.54367587  0.03158252  1
  O  O20  1  0.69769914  0.15260214  0.03158719  1
  O  O21  1  0.45578529  0.15353020  0.53148672  1
  O  O22  1  0.69513385  0.54261522  0.53127232  1
  O  O23  1  0.84062431  0.30396246  0.52971119  1
  O  O24  1  0.53918162  0.69848832  0.97046002  1
  O  O25  1  0.15893229  0.46162653  0.97040722  1
  O  O26  1  0.30273526  0.84050460  0.97088782  1
  O  O27  1  0.53402874  0.84131642  0.47009487  1
  O  O28  1  0.30518052  0.45821490  0.46872040  1
  O  O29  1  0.15211891  0.69343846  0.46865469  1
  O  O30  1  0.12380868  0.63556517  0.36457610  1
  O  O31  1  0.50417394  0.86700975  0.36304044  1
  O  O32  1  0.36221672  0.48749591  0.36471250  1
  O  O33  1  0.12861950  0.49139557  0.86235569  1
  O  O34  1  0.36275382  0.87071097  0.86222650  1
  O  O35  1  0.50803548  0.63686224  0.86218767  1
  O  O36  1  0.02630781  0.82310649  0.40842740  1
  O  O37  1  0.80631696  0.97619924  0.40748328  1
  O  O38  1  0.17903930  0.20283925  0.40852234  1
  O  O39  1  0.02532829  0.20027983  0.90646466  1
  O  O40  1  0.17538400  0.97527561  0.90661401  1
  O  O41  1  0.80040877  0.82555922  0.90660535  1
  O  O42  1  0.97587184  0.17475699  0.59317565  1
  O  O43  1  0.20335926  0.02367508  0.59198767  1
  O  O44  1  0.82078091  0.79518907  0.59211514  1
  O  O45  1  0.97399112  0.79583091  0.09233078  1
  O  O46  1  0.82061629  0.02353545  0.09215911  1
  O  O47  1  0.19794040  0.17377406  0.09329155  1
  O  O48  1  0.69049932  0.15475305  0.74147120  1
  O  O49  1  0.46516268  0.30812895  0.74032193  1
  O  O50  1  0.84349328  0.53704870  0.74180544  1
  O  O51  1  0.69074378  0.53564147  0.24154948  1
  O  O52  1  0.84516185  0.31045086  0.24026370  1
  O  O53  1  0.46430474  0.15249696  0.24157380  1
  O  O54  1  0.64349663  0.50860477  0.92530584  1
  O  O55  1  0.86418598  0.35772619  0.92648519  1
  O  O56  1  0.49336411  0.13339161  0.92502157  1
  O  O57  1  0.63792182  0.13049976  0.42594660  1
  O  O58  1  0.48864849  0.36128343  0.42622815  1
  O  O59  1  0.87202348  0.51464454  0.42532111  1
  O  O60  1  0.35580357  0.49025718  0.07411611  1
  O  O61  1  0.12938308  0.64456210  0.07514562  1
  O  O62  1  0.51373085  0.87165320  0.07513676  1
  O  O63  1  0.35664094  0.87091832  0.57461801  1
  O  O64  1  0.51399511  0.64325763  0.57488209  1
  O  O65  1  0.13591021  0.49151738  0.57239338  1
  O  O66  1  0.30469372  0.84461366  0.25832354  1
  O  O67  1  0.53852066  0.69174407  0.25848294  1
  O  O68  1  0.15469413  0.46221914  0.25911747  1
  O  O69  1  0.30730134  0.46079966  0.75717352  1
  O  O70  1  0.15416194  0.69310096  0.75734870  1
  O  O71  1  0.53870539  0.84525167  0.75726070  1
loop_
_geom_bond_atom_site_label_1
_geom_bond_atom_site_label_2
_geom_bond_distance
_geom_bond_site_symmetry_2
O0 S0 1.462256 1_555
O0 Zn0 2.154966 1_445
O1 S1 1.463126 1_555
O1 Zn0 2.088419 1_555
O2 S2 1.463266 1_555
O2 Zn0 2.086913 1_545
O3 S3 1.489927 1_555
O3 Zr0 2.194680 1_555
O4 S4 1.493207 1_555
O4 Zr0 2.187454 1_665
O5 S5 1.488306 1_555
O5 Zr0 2.196172 1_655
O6 S5 1.510130 1_565
O6 Zr1 2.112248 1_565
O7 S3 1.511554 1_555
O7 Zr1 2.116251 1_455
O8 S4 1.501500 1_455
O8 Zr1 2.175035 1_465
O9 S1 1.501960 1_555
O9 Zr2 2.178437 1_665
O10 S2 1.520640 1_455
O10 Zr2 2.111464 1_555
O11 S0 1.512084 1_565
O11 Zr2 2.122789 1_565
O12 P0 1.503988 1_555
O12 Zn1 1.974613 1_555
O13 S6 1.450831 1_555
O13 Zn1 2.151179 1_555
O14 S7 1.452873 1_555
O14 Zn1 2.136666 1_555
O15 S8 1.451753 1_555
O15 Zn2 2.130668 1_555
O16 S9 1.451180 1_555
O16 Zn2 2.140109 1_555
O17 P1 1.502249 1_555
O17 Zn2 1.973275 1_555
O18 P1 1.555512 1_555
O18 Zr3 2.047497 1_554
O19 S8 1.488860 1_555
O19 Zr3 2.202648 1_554
O20 S9 1.490209 1_555
O20 Zr3 2.196490 1_554
O21 S6 1.492381 1_555
O21 Zr4 2.183328 1_555
O22 S7 1.484691 1_555
O22 Zr4 2.240786 1_555
O23 P0 1.564227 1_555
O23 Zr4 2.025496 1_555
O24 P2 1.534196 1_555
O24 Zr5 2.068794 1_556
O25 P3 1.537104 1_555
O25 Zr5 2.060894 1_556
O26 P4 1.528148 1_555
O26 Zr5 2.117639 1_556
O27 P5 1.562820 1_555
O27 Zr6 2.043758 1_555
O28 S10 1.510185 1_555
O28 Zr6 2.115655 1_555
O29 S11 1.501592 1_555
O29 Zr6 2.137801 1_555
O30 S11 1.488476 1_555
O30 Zr7 2.199264 1_555
O31 P5 1.558770 1_555
O31 Zr7 2.038925 1_555
O32 S10 1.490932 1_555
O32 Zr7 2.197104 1_555
O33 P3 1.550899 1_555
O33 Zr8 2.035622 1_555
O34 P4 1.550876 1_555
O34 Zr8 2.035474 1_555
O35 P2 1.546375 1_555
O35 Zr8 2.046376 1_555
O36 S11 1.444493 1_555
O36 Zn0 2.172750 1_455
O37 P5 1.502945 1_555
O37 Zn0 1.997748 1_555
O38 S10 1.447236 1_555
O38 Zn0 2.172639 1_445
O39 P3 1.543697 1_555
O39 Zr0 2.015002 1_555
O40 P4 1.543631 1_555
O40 Zr0 2.009330 1_565
O41 P2 1.540838 1_555
O41 Zr0 2.012018 1_665
O42 P0 1.567566 1_555
O42 Zr1 2.002579 1_555
O43 S6 1.498603 1_555
O43 Zr1 2.112385 1_455
O44 S7 1.500692 1_555
O44 Zr1 2.117392 1_565
O45 S8 1.500858 1_555
O45 Zr2 2.128333 1_665
O46 S9 1.502500 1_555
O46 Zr2 2.113775 1_655
O47 P1 1.567458 1_555
O47 Zr2 2.000615 1_555
O48 S5 1.449774 1_555
O48 Zn1 2.119541 1_555
O49 S3 1.451979 1_555
O49 Zn1 2.164741 1_555
O50 S4 1.452492 1_555
O50 Zn1 2.108260 1_555
O51 S1 1.453595 1_555
O51 Zn2 2.107325 1_555
O52 S2 1.456212 1_555
O52 Zn2 2.169597 1_555
O53 S0 1.453461 1_555
O53 Zn2 2.123686 1_555
O54 P2 1.532798 1_555
O54 Zr3 2.037723 1_555
O55 P3 1.527146 1_655
O55 Zr3 2.077844 1_555
O56 P4 1.535457 1_545
O56 Zr3 2.029935 1_555
O57 P5 1.568427 1_545
O57 Zr4 1.985443 1_555
O58 S10 1.495105 1_555
O58 Zr4 2.154078 1_555
O59 S11 1.503711 1_655
O59 Zr4 2.089502 1_555
O60 P1 1.550521 1_555
O60 Zr5 2.027099 1_555
O61 S8 1.490337 1_455
O61 Zr5 2.132331 1_555
O62 S9 1.487758 1_565
O62 Zr5 2.145747 1_555
O63 S6 1.491571 1_565
O63 Zr6 2.137352 1_555
O64 S7 1.497091 1_555
O64 Zr6 2.113847 1_555
O65 P0 1.548520 1_455
O65 Zr6 2.057803 1_555
O66 S0 1.524610 1_565
O66 Zr7 2.060047 1_555
O67 S1 1.528661 1_555
O67 Zr7 2.049410 1_555
O68 S2 1.515126 1_455
O68 Zr7 2.123507 1_555
O69 S3 1.489419 1_555
O69 Zr8 2.176616 1_555
O70 S4 1.493739 1_455
O70 Zr8 2.157812 1_555
O71 S5 1.488720 1_565
O71 Zr8 2.169129 1_555
