# generated using pymatgen
data_Na2SbF5
_symmetry_space_group_name_H-M   'P 1'
_cell_length_a   5.40115960
_cell_length_b   7.99905011
_cell_length_c   11.08374660
_cell_angle_alpha   90.00000000
_cell_angle_beta   90.00000000
_cell_angle_gamma   90.00000000
_symmetry_Int_Tables_number   1
_chemical_formula_structural   Na2SbF5
_chemical_formula_sum   'Na8 Sb4 F20'
_cell_volume   478.86380958
_cell_formula_units_Z   4
loop_
 _symmetry_equiv_pos_site_id
 _symmetry_equiv_pos_as_xyz
  1  'x, y, z'
loop_
 _atom_site_type_symbol
 _atom_site_label
 _atom_site_symmetry_multiplicity
 _atom_site_fract_x
 _atom_site_fract_y
 _atom_site_fract_z
 _atom_site_occupancy
  Na  Na0  1  0.42673307  0.85318066  0.43693194  1
  Na  Na1  1  0.92673307  0.64681934  0.56306806  1
  Na  Na2  1  0.57326693  0.35318066  0.06306806  1
  Na  Na3  1  0.07326693  0.14681934  0.93693194  1
  Na  Na4  1  0.00747693  0.60203802  0.24072251  1
  Na  Na5  1  0.50747693  0.89796198  0.75927749  1
  Na  Na6  1  0.99252307  0.10203802  0.25927749  1
  Na  Na7  1  0.49252307  0.39796198  0.74072251  1
  Sb  Sb0  1  0.49326165  0.41876250  0.38312991  1
  Sb  Sb1  1  0.99326165  0.08123750  0.61687009  1
  Sb  Sb2  1  0.50673835  0.91876250  0.11687009  1
  Sb  Sb3  1  0.00673835  0.58123750  0.88312991  1
  F  F0  1  0.27618027  0.40021274  0.92682035  1
  F  F1  1  0.77618027  0.09978726  0.07317965  1
  F  F2  1  0.72381973  0.90021274  0.57317965  1
  F  F3  1  0.22381973  0.59978726  0.42682035  1
  F  F4  1  0.10679806  0.50425091  0.71209371  1
  F  F5  1  0.60679806  0.99574909  0.28790629  1
  F  F6  1  0.89320194  0.00425091  0.78790629  1
  F  F7  1  0.39320194  0.49574909  0.21209371  1
  F  F8  1  0.86065587  0.55138264  0.05633455  1
  F  F9  1  0.36065587  0.94861736  0.94366545  1
  F  F10  1  0.13934413  0.05138264  0.44366545  1
  F  F11  1  0.63934413  0.44861736  0.55633455  1
  F  F12  1  0.82737939  0.35360465  0.30085535  1
  F  F13  1  0.32737939  0.14639535  0.69914465  1
  F  F14  1  0.17262061  0.85360465  0.19914465  1
  F  F15  1  0.67262061  0.64639535  0.80085535  1
  F  F16  1  0.67981001  0.63524411  0.37397254  1
  F  F17  1  0.17981001  0.86475589  0.62602746  1
  F  F18  1  0.32018999  0.13524411  0.12602746  1
  F  F19  1  0.82018999  0.36475589  0.87397254  1
loop_
_geom_bond_atom_site_label_1
_geom_bond_atom_site_label_2
_geom_bond_distance
_geom_bond_site_symmetry_2
F0 Sb3 2.109307 1_555
F0 Na2 2.235358 1_556
F0 Na3 2.306958 1_555
F0 Na7 2.370716 1_555
F1 Sb2 2.109307 1_545
F1 Na3 2.235358 1_654
F1 Na2 2.306958 1_555
F1 Na6 2.370716 1_555
F2 Sb1 2.109307 1_565
F2 Na0 2.235358 1_555
F2 Na1 2.306958 1_555
F2 Na5 2.370716 1_555
F3 Sb0 2.109307 1_555
F3 Na1 2.235358 1_455
F3 Na0 2.306958 1_555
F3 Na4 2.370716 1_555
F4 Sb3 2.065204 1_555
F4 Na1 2.230411 1_455
F4 Na7 2.272431 1_555
F5 Sb2 2.065204 1_555
F5 Na0 2.230411 1_555
F5 Na6 2.272431 1_565
F6 Sb1 2.065204 1_555
F6 Na3 2.230411 1_655
F6 Na5 2.272431 1_545
F7 Sb0 2.065204 1_555
F7 Na2 2.230411 1_555
F7 Na4 2.272431 1_555
F8 Sb3 2.089268 1_654
F8 Na2 2.220040 1_555
F8 Na4 2.229302 1_655
F9 Sb2 2.089268 1_556
F9 Na3 2.220040 1_565
F9 Na5 2.229302 1_555
F10 Sb1 2.089268 1_455
F10 Na0 2.220040 1_545
F10 Na6 2.229302 1_455
F11 Sb0 2.089268 1_555
F11 Na1 2.220040 1_555
F11 Na7 2.229302 1_555
F12 Sb0 2.088036 1_555
F12 Na6 2.248845 1_555
F12 Na4 2.310740 1_655
F13 Sb1 2.088036 1_455
F13 Na7 2.248845 1_555
F13 Na5 2.310740 1_545
F14 Sb2 2.088036 1_555
F14 Na4 2.248845 1_555
F14 Na6 2.310740 1_465
F15 Sb3 2.088036 1_655
F15 Na5 2.248845 1_555
F15 Na7 2.310740 1_555
F16 Sb0 2.006020 1_555
F16 Na4 2.320332 1_655
F16 Na0 2.322594 1_555
F16 Na1 2.485959 1_555
F17 Sb1 2.006020 1_465
F17 Na5 2.320332 1_555
F17 Na1 2.322594 1_455
F17 Na0 2.485959 1_555
F18 Sb2 2.006020 1_545
F18 Na6 2.320332 1_455
F18 Na2 2.322594 1_555
F18 Na3 2.485959 1_554
F19 Sb3 2.006020 1_655
F19 Na7 2.320332 1_555
F19 Na3 2.322594 1_655
F19 Na2 2.485959 1_556
