# generated using pymatgen
data_Na3NbO4
_symmetry_space_group_name_H-M   'P 1'
_cell_length_a   8.53442467
_cell_length_b   8.53442467
_cell_length_c   5.71340387
_cell_angle_alpha   77.59455688
_cell_angle_beta   77.59455688
_cell_angle_gamma   98.89216295
_symmetry_Int_Tables_number   1
_chemical_formula_structural   Na3NbO4
_chemical_formula_sum   'Na12 Nb4 O16'
_cell_volume   388.04970811
_cell_formula_units_Z   4
loop_
 _symmetry_equiv_pos_site_id
 _symmetry_equiv_pos_as_xyz
  1  'x, y, z'
loop_
 _atom_site_type_symbol
 _atom_site_label
 _atom_site_symmetry_multiplicity
 _atom_site_fract_x
 _atom_site_fract_y
 _atom_site_fract_z
 _atom_site_occupancy
  Na  Na0  1  0.50000000  0.00000000  -0.00000000  1
  Na  Na1  1  0.26004638  0.73995362  0.50000000  1
  Na  Na2  1  0.73995362  0.26004638  0.50000000  1
  Na  Na3  1  0.00000000  0.00000000  0.50000000  1
  Na  Na4  1  0.37372968  0.11929890  0.47986449  1
  Na  Na5  1  0.88070110  0.62627032  0.52013551  1
  Na  Na6  1  0.62627032  0.88070110  0.52013551  1
  Na  Na7  1  0.11929890  0.37372968  0.47986449  1
  Na  Na8  1  0.62394449  0.37605551  -0.00000000  1
  Na  Na9  1  0.00000000  0.50000000  -0.00000000  1
  Na  Na10  1  0.37605551  0.62394449  -0.00000000  1
  Na  Na11  1  0.50000000  0.50000000  0.50000000  1
  Nb  Nb0  1  0.73796645  0.73796645  0.02885423  1
  Nb  Nb1  1  0.26203355  0.26203355  0.97114577  1
  Nb  Nb2  1  0.13446736  0.86553264  -0.00000000  1
  Nb  Nb3  1  0.86553264  0.13446736  -0.00000000  1
  O  O0  1  0.53448782  0.75342004  0.23328844  1
  O  O1  1  0.24657996  0.46551218  0.76671156  1
  O  O2  1  0.46551218  0.24657996  0.76671156  1
  O  O3  1  0.75342004  0.53448782  0.23328844  1
  O  O4  1  0.23319360  0.00806599  0.19445386  1
  O  O5  1  0.99193401  0.76680640  0.80554614  1
  O  O6  1  0.76680640  0.99193401  0.80554614  1
  O  O7  1  0.00806599  0.23319360  0.19445386  1
  O  O8  1  0.34766510  0.34766510  0.21050484  1
  O  O9  1  0.65233490  0.65233490  0.78949516  1
  O  O10  1  0.33651701  0.87501123  0.77250826  1
  O  O11  1  0.12498877  0.66348299  0.22749174  1
  O  O12  1  0.66348299  0.12498877  0.22749174  1
  O  O13  1  0.11314883  0.11314883  0.79945577  1
  O  O14  1  0.88685117  0.88685117  0.20054423  1
  O  O15  1  0.87501123  0.33651701  0.77250826  1
loop_
_geom_bond_atom_site_label_1
_geom_bond_atom_site_label_2
_geom_bond_distance
_geom_bond_site_symmetry_2
Na0 O4 2.327732 1_555
Na0 O6 2.327732 1_544
Na0 O0 2.333806 1_545
Na0 O2 2.333806 1_554
Na0 O12 2.385089 1_555
Na0 O10 2.385089 1_544
Na1 O10 2.270172 1_555
Na1 O11 2.270172 1_555
Na1 O0 2.475724 1_555
Na1 O1 2.475724 1_555
Na1 O4 2.636959 1_565
Na1 O5 2.636959 1_455
Na2 O12 2.270172 1_555
Na2 O15 2.270172 1_555
Na2 O3 2.475724 1_555
Na2 O2 2.475724 1_555
Na2 O7 2.636959 1_655
Na2 O6 2.636959 1_545
Na3 O6 2.329442 1_445
Na3 O4 2.329442 1_555
Na3 O7 2.329442 1_555
Na3 O5 2.329442 1_445
Na3 O14 2.433856 1_445
Na3 O13 2.433856 1_555
Na4 O8 2.282277 1_555
Na4 O10 2.304880 1_545
Na4 O2 2.352208 1_555
Na4 O4 2.480372 1_555
Na4 O13 2.541778 1_555
Na4 O12 2.568533 1_555
Na5 O9 2.282277 1_555
Na5 O11 2.304880 1_655
Na5 O3 2.352208 1_555
Na5 O5 2.480372 1_555
Na5 O14 2.541778 1_555
Na5 O15 2.568533 1_555
Na6 O9 2.282277 1_555
Na6 O12 2.304880 1_565
Na6 O0 2.352208 1_555
Na6 O6 2.480372 1_555
Na6 O14 2.541778 1_555
Na6 O10 2.568533 1_555
Na7 O8 2.282277 1_555
Na7 O15 2.304880 1_455
Na7 O1 2.352208 1_555
Na7 O7 2.480372 1_555
Na7 O13 2.541778 1_555
Na7 O11 2.568533 1_555
Na8 O8 2.354689 1_555
Na8 O9 2.354689 1_554
Na8 O12 2.368503 1_555
Na8 O15 2.368503 1_554
Na8 O2 2.402303 1_554
Na8 O3 2.402303 1_555
Na9 O5 2.327732 1_454
Na9 O7 2.327732 1_555
Na9 O3 2.333806 1_455
Na9 O1 2.333806 1_554
Na9 O11 2.385089 1_555
Na9 O15 2.385089 1_454
Na10 O8 2.354689 1_555
Na10 O9 2.354689 1_554
Na10 O11 2.368503 1_555
Na10 O10 2.368503 1_554
Na10 O0 2.402303 1_555
Na10 O1 2.402303 1_554
Na11 O2 2.298006 1_555
Na11 O1 2.298006 1_555
Na11 O0 2.298006 1_555
Na11 O3 2.298006 1_555
Na11 O8 2.727909 1_555
Na11 O9 2.727909 1_555
Nb0 O9 1.905807 1_554
Nb0 O0 1.913855 1_555
Nb0 O3 1.913855 1_555
Nb0 O14 2.182485 1_555
Nb0 O6 2.213206 1_554
Nb0 O5 2.213206 1_554
Nb1 O8 1.905807 1_556
Nb1 O1 1.913855 1_555
Nb1 O2 1.913855 1_555
Nb1 O13 2.182485 1_555
Nb1 O4 2.213206 1_556
Nb1 O7 2.213206 1_556
Nb2 O11 1.902132 1_555
Nb2 O10 1.902132 1_554
Nb2 O5 2.022365 1_454
Nb2 O4 2.022365 1_565
Nb2 O14 2.231568 1_455
Nb2 O13 2.231568 1_564
Nb3 O12 1.902132 1_555
Nb3 O15 1.902132 1_554
Nb3 O6 2.022365 1_544
Nb3 O7 2.022365 1_655
Nb3 O14 2.231568 1_545
Nb3 O13 2.231568 1_654
