# generated using pymatgen
data_NaTaGa3P3(SO8)3
_symmetry_space_group_name_H-M   'P 1'
_cell_length_a   8.54895108
_cell_length_b   8.53112644
_cell_length_c   22.27623086
_cell_angle_alpha   90.53589867
_cell_angle_beta   90.00276176
_cell_angle_gamma   120.18569157
_symmetry_Int_Tables_number   1
_chemical_formula_structural   NaTaGa3P3(SO8)3
_chemical_formula_sum   'Na3 Ta3 Ga9 P9 S9 O72'
_cell_volume   1404.26903532
_cell_formula_units_Z   3
loop_
 _symmetry_equiv_pos_site_id
 _symmetry_equiv_pos_as_xyz
  1  'x, y, z'
loop_
 _atom_site_type_symbol
 _atom_site_label
 _atom_site_symmetry_multiplicity
 _atom_site_fract_x
 _atom_site_fract_y
 _atom_site_fract_z
 _atom_site_occupancy
  Na  Na0  1  0.00094488  0.01108252  0.99937396  1
  Na  Na1  1  0.67737948  0.33961761  0.83428448  1
  Na  Na2  1  0.66407019  0.33952455  0.33803181  1
  Ta  Ta0  1  0.00273148  0.99596052  0.64394144  1
  Ta  Ta1  1  0.65890855  0.33329135  0.18492468  1
  Ta  Ta2  1  0.32883086  0.65740485  0.52403528  1
  Ga  Ga0  1  0.99957685  0.99749690  0.35582393  1
  Ga  Ga1  1  0.99722779  0.00071402  0.85364038  1
  Ga  Ga2  1  0.98949318  0.00174526  0.14560091  1
  Ga  Ga3  1  0.67528772  0.34249044  0.68512878  1
  Ga  Ga4  1  0.66781736  0.32177456  0.98073778  1
  Ga  Ga5  1  0.65804941  0.33273363  0.48289151  1
  Ga  Ga6  1  0.33567795  0.65528914  0.02130628  1
  Ga  Ga7  1  0.34698038  0.66029845  0.31266858  1
  Ga  Ga8  1  0.31335700  0.65924892  0.81413511  1
  P  P0  1  0.71767608  0.72284586  0.25140593  1
  P  P1  1  0.99818735  0.70805097  0.75347958  1
  P  P2  1  0.94048435  0.32812551  0.58287269  1
  P  P3  1  0.39087642  0.05545064  0.58406193  1
  P  P4  1  0.66632482  0.61170072  0.58341927  1
  P  P5  1  0.66349815  0.03600985  0.07991322  1
  P  P6  1  0.36912063  0.32813239  0.07921383  1
  P  P7  1  0.04120903  0.37493379  0.91712625  1
  P  P8  1  0.33378046  0.36996717  0.41369669  1
  S  S0  1  0.28289657  0.99104391  0.25114470  1
  S  S1  1  0.00436706  0.29183883  0.25147033  1
  S  S2  1  0.29557419  0.29397850  0.75234794  1
  S  S3  1  0.70467425  0.99844837  0.75219823  1
  S  S4  1  0.96012513  0.62720001  0.08137124  1
  S  S5  1  0.62243182  0.66560044  0.91570687  1
  S  S6  1  0.33237736  0.95503746  0.91689585  1
  S  S7  1  0.62410003  0.95948374  0.41520517  1
  S  S8  1  0.04330411  0.66554449  0.41388988  1
  O  O0  1  0.21404291  0.03803294  0.30493235  1
  O  O1  1  0.83562399  0.79772390  0.30799084  1
  O  O2  1  0.96424451  0.17793293  0.30479737  1
  O  O3  1  0.21269017  0.17948167  0.80511060  1
  O  O4  1  0.96367126  0.79667550  0.80791896  1
  O  O5  1  0.82287404  0.03770355  0.80529033  1
  O  O6  1  0.79442281  0.97461098  0.69703693  1
  O  O7  1  0.17948636  0.20706427  0.69716002  1
  O  O8  1  0.02222210  0.82695547  0.69658220  1
  O  O9  1  0.80139045  0.83096835  0.19482365  1
  O  O10  1  0.03618228  0.21507716  0.19668004  1
  O  O11  1  0.17994044  0.96809265  0.19618118  1
  O  O12  1  0.87487211  0.37336389  0.63970548  1
  O  O13  1  0.50133837  0.12868989  0.64089763  1
  O  O14  1  0.62312287  0.50111235  0.63972069  1
  O  O15  1  0.87087736  0.51186188  0.13695484  1
  O  O16  1  0.64089168  0.13412980  0.13765281  1
  O  O17  1  0.49307152  0.35943805  0.13750784  1
  O  O18  1  0.45976649  0.29498399  0.02549374  1
  O  O19  1  0.84239812  0.54703502  0.02850974  1
  O  O20  1  0.70819726  0.16214953  0.02663898  1
  O  O21  1  0.45692784  0.16324319  0.52688029  1
  O  O22  1  0.70974339  0.54501531  0.52613084  1
  O  O23  1  0.83247506  0.29280120  0.52541314  1
  O  O24  1  0.54719072  0.70165808  0.97051729  1
  O  O25  1  0.15870524  0.45886923  0.97358458  1
  O  O26  1  0.30399107  0.84669568  0.97094493  1
  O  O27  1  0.53595569  0.84674710  0.46926271  1
  O  O28  1  0.30712489  0.46515881  0.47019488  1
  O  O29  1  0.15619904  0.69271724  0.46910313  1
  O  O30  1  0.12694973  0.63650726  0.36027113  1
  O  O31  1  0.50852486  0.88088105  0.36120544  1
  O  O32  1  0.37045869  0.49143739  0.35934557  1
  O  O33  1  0.12050907  0.48778846  0.86003359  1
  O  O34  1  0.36739026  0.87842521  0.86174069  1
  O  O35  1  0.51306824  0.63777456  0.86081395  1
  O  O36  1  0.03045429  0.83026898  0.41039902  1
  O  O37  1  0.79976364  0.96984360  0.41004430  1
  O  O38  1  0.16083323  0.18713234  0.40713754  1
  O  O39  1  0.02336991  0.18555355  0.90988054  1
  O  O40  1  0.16801480  0.97224858  0.91082372  1
  O  O41  1  0.80648544  0.83006973  0.91082736  1
  O  O42  1  0.97311184  0.16766732  0.59405282  1
  O  O43  1  0.19772567  0.02777202  0.59395959  1
  O  O44  1  0.82987873  0.80646525  0.59327908  1
  O  O45  1  0.97685836  0.80599164  0.09066234  1
  O  O46  1  0.83332973  0.02059053  0.08916269  1
  O  O47  1  0.18739682  0.15642072  0.09160125  1
  O  O48  1  0.68683867  0.16069353  0.74471590  1
  O  O49  1  0.47221948  0.30585646  0.74444272  1
  O  O50  1  0.82748709  0.52049268  0.74517698  1
  O  O51  1  0.69592649  0.52808672  0.24278723  1
  O  O52  1  0.83769104  0.30948628  0.24346303  1
  O  O53  1  0.47280158  0.16034002  0.24421817  1
  O  O54  1  0.63889330  0.50122600  0.92177782  1
  O  O55  1  0.85297136  0.35805870  0.92308871  1
  O  O56  1  0.49531175  0.14008160  0.92133408  1
  O  O57  1  0.64507263  0.14160761  0.42196772  1
  O  O58  1  0.50392134  0.35442562  0.42213247  1
  O  O59  1  0.86384870  0.50105804  0.42075727  1
  O  O60  1  0.35888508  0.49967649  0.07654509  1
  O  O61  1  0.13457116  0.63857186  0.07720062  1
  O  O62  1  0.49033212  0.85589746  0.07343006  1
  O  O63  1  0.35981052  0.86154097  0.57220772  1
  O  O64  1  0.50305566  0.64264700  0.57300778  1
  O  O65  1  0.13450752  0.49627340  0.57284625  1
  O  O66  1  0.30578510  0.83438203  0.25939863  1
  O  O67  1  0.52908166  0.69706008  0.25805592  1
  O  O68  1  0.15999909  0.47488583  0.25889711  1
  O  O69  1  0.31147809  0.47245533  0.75712464  1
  O  O70  1  0.17133427  0.69896743  0.75714354  1
  O  O71  1  0.53040602  0.83200168  0.75814345  1
loop_
_geom_bond_atom_site_label_1
_geom_bond_atom_site_label_2
_geom_bond_distance
_geom_bond_site_symmetry_2
Na0 O39 2.448496 1_555
Na0 O46 2.484878 1_456
Na0 O47 2.502708 1_556
Na0 O41 2.529853 1_445
Na0 O40 2.550415 1_545
Na0 O45 2.635027 1_446
Na1 O55 2.438833 1_555
Na1 O50 2.456469 1_555
Na1 O54 2.492732 1_555
Na1 O48 2.526798 1_555
Na1 O56 2.545239 1_555
Na1 O49 2.577860 1_555
Na2 O58 2.360343 1_555
Na2 O59 2.407764 1_555
Na2 O57 2.481258 1_555
Na2 O51 2.605155 1_555
Na2 O53 2.608471 1_555
Na2 O52 2.660706 1_555
Ga0 O38 1.883310 1_665
Ga0 O1 1.888980 1_555
Ga0 O36 1.998524 1_655
Ga0 O37 2.008160 1_555
Ga0 O0 2.033793 1_665
Ga0 O2 2.062294 1_565
Ga1 O4 1.901120 1_545
Ga1 O39 1.927358 1_655
Ga1 O5 1.990112 1_555
Ga1 O41 2.012182 1_545
Ga1 O3 2.023257 1_655
Ga1 O40 2.043408 1_645
Ga2 O9 1.893387 1_545
Ga2 O46 1.899539 1_555
Ga2 O47 1.958441 1_655
Ga2 O10 1.999250 1_655
Ga2 O45 2.019572 1_545
Ga2 O11 2.116287 1_645
Ga3 O12 1.886190 1_555
Ga3 O14 1.919814 1_555
Ga3 O13 1.935903 1_555
Ga3 O50 1.939894 1_555
Ga3 O49 2.078364 1_555
Ga3 O48 2.090354 1_555
Ga4 O20 1.875601 1_556
Ga4 O55 1.940463 1_555
Ga4 O18 1.950732 1_556
Ga4 O56 1.997826 1_555
Ga4 O19 2.032332 1_556
Ga4 O54 2.132641 1_555
Ga5 O21 1.879848 1_555
Ga5 O22 1.888202 1_555
Ga5 O23 1.937413 1_555
Ga5 O58 1.962661 1_555
Ga5 O57 2.071100 1_555
Ga5 O59 2.137765 1_555
Ga6 O60 1.900344 1_555
Ga6 O25 1.908948 1_554
Ga6 O62 1.926772 1_555
Ga6 O24 1.998854 1_554
Ga6 O61 2.069647 1_555
Ga6 O26 2.115991 1_554
Ga7 O32 1.874958 1_555
Ga7 O67 1.875708 1_555
Ga7 O68 1.978313 1_555
Ga7 O31 1.991455 1_555
Ga7 O66 2.072841 1_555
Ga7 O30 2.079477 1_555
Ga8 O33 1.872465 1_555
Ga8 O70 1.903247 1_555
Ga8 O34 1.982045 1_555
Ga8 O69 2.022112 1_555
Ga8 O35 2.085110 1_555
Ga8 O71 2.110778 1_555
O0 S0 1.473498 1_545
O1 P0 1.533210 1_555
O2 S1 1.469544 1_655
O3 S2 1.470780 1_555
O4 P1 1.528591 1_555
O5 S3 1.477893 1_545
O6 S3 1.514025 1_555
O6 Ta0 2.069178 1_655
O7 S2 1.512916 1_555
O7 Ta0 2.038493 1_545
O8 P1 1.578650 1_455
O8 Ta0 1.937740 1_555
O9 P0 1.519777 1_555
O10 S1 1.468567 1_555
O11 S0 1.460906 1_555
O12 P2 1.508310 1_555
O13 P3 1.508932 1_555
O14 P4 1.507066 1_555
O15 S4 1.533418 1_555
O15 Ta1 2.000242 1_555
O16 P5 1.592159 1_555
O16 Ta1 1.929458 1_555
O17 P6 1.609118 1_555
O17 Ta1 1.870214 1_555
O18 P6 1.525340 1_555
O19 S4 1.469672 1_555
O20 P5 1.524083 1_555
O21 P3 1.512233 1_555
O22 P4 1.512895 1_555
O23 P2 1.514801 1_555
O24 S5 1.480259 1_555
O25 P7 1.537269 1_555
O26 S6 1.469050 1_555
O27 S7 1.495284 1_555
O27 Ta2 2.096213 1_555
O28 P8 1.569208 1_555
O28 Ta2 1.954453 1_555
O29 S8 1.505837 1_555
O29 Ta2 2.054266 1_555
O30 S8 1.473783 1_555
O31 S7 1.480344 1_555
O32 P8 1.528014 1_555
O33 P7 1.539695 1_555
O34 S6 1.485967 1_555
O35 S5 1.482229 1_555
O36 S8 1.466365 1_555
O37 S7 1.463894 1_555
O38 P8 1.522139 1_555
O39 P7 1.551420 1_555
O40 S6 1.490659 1_555
O41 S5 1.496351 1_555
O42 P2 1.550491 1_555
O42 Ta0 1.961733 1_645
O43 P3 1.562007 1_555
O43 Ta0 1.908689 1_545
O44 P4 1.555932 1_555
O44 Ta0 1.906344 1_655
O45 S4 1.471222 1_555
O46 P5 1.536312 1_555
O47 P6 1.534480 1_555
O48 S3 1.477633 1_545
O49 S2 1.472499 1_555
O50 P1 1.539605 1_555
O51 P0 1.586009 1_555
O51 Ta1 1.988532 1_555
O52 S1 1.516918 1_655
O52 Ta1 2.096332 1_555
O53 S0 1.546527 1_545
O53 Ta1 2.031982 1_555
O54 S5 1.485440 1_555
O55 P7 1.547712 1_655
O56 S6 1.492618 1_545
O57 S7 1.477963 1_545
O58 P8 1.537176 1_555
O59 S8 1.478281 1_655
O60 P6 1.511067 1_555
O61 S4 1.448033 1_455
O62 P5 1.510560 1_565
O63 P3 1.557846 1_565
O63 Ta2 1.937975 1_555
O64 P4 1.563128 1_555
O64 Ta2 1.901415 1_555
O65 P2 1.572330 1_455
O65 Ta2 1.887692 1_555
O66 S0 1.458050 1_555
O67 P0 1.521108 1_555
O68 S1 1.463545 1_555
O69 S2 1.461826 1_555
O70 P1 1.522888 1_455
O71 S3 1.459310 1_555
