# generated using pymatgen
data_V2CoP2(H4O7)2
_symmetry_space_group_name_H-M   'P 1'
_cell_length_a   6.34976258
_cell_length_b   6.34978922
_cell_length_c   8.09282312
_cell_angle_alpha   66.90019056
_cell_angle_beta   113.09967929
_cell_angle_gamma   89.99964115
_symmetry_Int_Tables_number   1
_chemical_formula_structural   V2CoP2(H4O7)2
_chemical_formula_sum   'V2 Co1 P2 H8 O14'
_cell_volume   271.46649193
_cell_formula_units_Z   1
loop_
 _symmetry_equiv_pos_site_id
 _symmetry_equiv_pos_as_xyz
  1  'x, y, z'
loop_
 _atom_site_type_symbol
 _atom_site_label
 _atom_site_symmetry_multiplicity
 _atom_site_fract_x
 _atom_site_fract_y
 _atom_site_fract_z
 _atom_site_occupancy
  V  V0  1  0.27780500  0.72219900  0.55560000  1
  V  V1  1  0.72235200  0.27763000  0.44475900  1
  Co  Co0  1  0.00005700  0.99994300  0.00011300  1
  P  P0  1  0.24999800  0.24998400  0.50001500  1
  P  P1  1  0.75001600  0.75000300  0.50000900  1
  H  H0  1  0.11282000  0.41956000  0.87964400  1
  H  H1  1  0.58043800  0.23317200  0.87964200  1
  H  H2  1  0.29920200  0.88717200  0.87965300  1
  H  H3  1  0.76682800  0.70080100  0.87964800  1
  H  H4  1  0.88710100  0.58061000  0.12019100  1
  H  H5  1  0.23309100  0.29918900  0.12018800  1
  H  H6  1  0.41939300  0.76691100  0.12019500  1
  H  H7  1  0.70080800  0.11290500  0.12018400  1
  O  O0  1  0.84411400  0.15588800  0.68825400  1
  O  O1  1  0.15608100  0.84391800  0.31212800  1
  O  O2  1  0.18224700  0.27032500  0.99998300  1
  O  O3  1  0.72967300  0.18226700  0.99998100  1
  O  O4  1  0.27031700  0.81774500  0.99999300  1
  O  O5  1  0.81774100  0.72968600  0.99999000  1
  O  O6  1  0.29753800  0.98579700  0.63744400  1
  O  O7  1  0.33986600  0.37673700  0.63744100  1
  O  O8  1  0.62326000  0.70246500  0.63743300  1
  O  O9  1  0.37676500  0.29755900  0.36252600  1
  O  O10  1  0.70243600  0.01427600  0.36251100  1
  O  O11  1  0.98572300  0.33989100  0.36251000  1
  O  O12  1  0.01420400  0.66013100  0.63744400  1
  O  O13  1  0.66011600  0.62323800  0.36251800  1
loop_
_geom_bond_atom_site_label_1
_geom_bond_atom_site_label_2
_geom_bond_distance
_geom_bond_site_symmetry_2
Co0 O2 2.070153 1_564
Co0 O3 2.070154 1_464
Co0 O5 2.070159 1_454
Co0 O4 2.070164 1_554
Co0 O0 2.099702 1_464
Co0 O1 2.100753 1_555
H0 O2 0.989814 1_555
H1 O3 0.989819 1_555
H2 O4 0.989809 1_555
H3 O5 0.989829 1_555
H4 O5 0.988728 1_554
H5 O2 0.988749 1_554
H6 O4 0.988736 1_554
H7 O3 0.988735 1_554
O0 V1 1.639417 1_555
O1 V0 1.639262 1_555
O6 P0 1.553955 1_565
O6 V0 2.015137 1_555
O7 P0 1.553941 1_555
O7 V0 2.015206 1_555
O8 P1 1.553953 1_555
O8 V0 2.015187 1_555
O9 P0 1.554432 1_555
O9 V1 2.015513 1_555
O10 P1 1.554490 1_545
O10 V1 2.015635 1_555
O11 P0 1.554492 1_655
O11 V1 2.015704 1_555
O12 P1 1.553948 1_455
O12 V0 2.015128 1_555
O13 P1 1.554427 1_555
O13 V1 2.015604 1_555
