# generated using pymatgen
data_Gd(NiP)2
_symmetry_space_group_name_H-M   'P 1'
_cell_length_a   3.88154386
_cell_length_b   3.88154430
_cell_length_c   5.42899134
_cell_angle_alpha   110.94568176
_cell_angle_beta   110.94569282
_cell_angle_gamma   90.00000338
_symmetry_Int_Tables_number   1
_chemical_formula_structural   Gd(NiP)2
_chemical_formula_sum   'Gd1 Ni2 P2'
_cell_volume   70.57240097
_cell_formula_units_Z   1
loop_
 _symmetry_equiv_pos_site_id
 _symmetry_equiv_pos_as_xyz
  1  'x, y, z'
loop_
 _atom_site_type_symbol
 _atom_site_label
 _atom_site_symmetry_multiplicity
 _atom_site_fract_x
 _atom_site_fract_y
 _atom_site_fract_z
 _atom_site_occupancy
  Gd  Gd0  1  -0.00000000  -0.00000000  -0.00000000  1
  Ni  Ni0  1  0.75000000  0.25000000  0.50000000  1
  Ni  Ni1  1  0.25000000  0.75000000  0.50000000  1
  P  P0  1  0.62500742  0.62500742  0.25001283  1
  P  P1  1  0.37499258  0.37499258  0.74998717  1
loop_
_geom_bond_atom_site_label_1
_geom_bond_atom_site_label_2
_geom_bond_distance
_geom_bond_site_symmetry_2
Gd0 P1 2.984057 1_554
Gd0 P0 2.984057 1_445
Gd0 P1 2.984063 1_454
Gd0 P0 2.984063 1_545
Gd0 P1 2.984063 1_544
Gd0 P0 2.984063 1_455
Gd0 P1 2.984068 1_444
Gd0 P0 2.984068 1_555
Gd0 Ni0 3.041675 1_454
Gd0 Ni1 3.041675 1_545
Gd0 Ni0 3.041675 1_455
Gd0 Ni1 3.041675 1_544
Gd0 Ni0 3.041675 1_555
Gd0 Ni1 3.041675 1_444
Gd0 Ni1 3.041675 1_555
Gd0 Ni0 3.041675 1_444
Ni0 P1 2.266658 1_655
Ni0 P0 2.266658 1_545
Ni0 P0 2.266664 1_555
Ni0 P1 2.266664 1_555
Ni1 P0 2.266658 1_455
Ni1 P1 2.266658 1_565
Ni1 P1 2.266664 1_555
Ni1 P0 2.266664 1_555
P0 P1 2.342169 1_554
