# generated using pymatgen
data_Na5Ta3InSi5PO24
_symmetry_space_group_name_H-M   'P 1'
_cell_length_a   9.03937687
_cell_length_b   9.05197144
_cell_length_c   22.56808325
_cell_angle_alpha   90.05840012
_cell_angle_beta   89.91786385
_cell_angle_gamma   119.95928738
_symmetry_Int_Tables_number   1
_chemical_formula_structural   Na5Ta3InSi5PO24
_chemical_formula_sum   'Na15 Ta9 In3 Si15 P3 O72'
_cell_volume   1599.86937311
_cell_formula_units_Z   3
loop_
 _symmetry_equiv_pos_site_id
 _symmetry_equiv_pos_as_xyz
  1  'x, y, z'
loop_
 _atom_site_type_symbol
 _atom_site_label
 _atom_site_symmetry_multiplicity
 _atom_site_fract_x
 _atom_site_fract_y
 _atom_site_fract_z
 _atom_site_occupancy
  Na  Na0  1  0.99248363  0.63192472  0.24308138  1
  Na  Na1  1  0.63196596  0.62133253  0.74653300  1
  Na  Na2  1  0.98903890  0.36691983  0.74627517  1
  Na  Na3  1  0.37554218  0.00943765  0.74858582  1
  Na  Na4  1  0.31790583  0.97461846  0.08388748  1
  Na  Na5  1  0.66205086  0.68665113  0.08379786  1
  Na  Na6  1  0.96688493  0.29077726  0.41415958  1
  Na  Na7  1  0.32174381  0.03295096  0.41189914  1
  Na  Na8  1  0.70791029  0.67650259  0.41485668  1
  Na  Na9  1  0.99940873  0.99974104  0.50108405  1
  Na  Na10  1  0.99937877  0.01009298  0.99550848  1
  Na  Na11  1  0.66660965  0.33435960  0.83383036  1
  Na  Na12  1  0.64886442  0.31753053  0.32385910  1
  Na  Na13  1  0.33378167  0.65678149  0.16457061  1
  Na  Na14  1  0.33188521  0.66171960  0.66386987  1
  Ta  Ta0  1  0.00005228  0.99982334  0.85713137  1
  Ta  Ta1  1  0.99656983  0.99922844  0.64419515  1
  Ta  Ta2  1  0.00380737  0.00376746  0.14597160  1
  Ta  Ta3  1  0.66675742  0.33160481  0.97781792  1
  Ta  Ta4  1  0.67071047  0.33569544  0.48237853  1
  Ta  Ta5  1  0.32916833  0.66336770  0.01732475  1
  Ta  Ta6  1  0.33410746  0.66438718  0.52181039  1
  Ta  Ta7  1  0.33664226  0.66951684  0.31112481  1
  Ta  Ta8  1  0.33297368  0.66578847  0.81400128  1
  In  In0  1  0.00302208  0.00333227  0.35178513  1
  In  In1  1  0.66850690  0.33702650  0.68439864  1
  In  In2  1  0.65935121  0.32519051  0.18150731  1
  Si  Si0  1  0.29955085  0.00346692  0.25231104  1
  Si  Si1  1  0.28414954  0.28666227  0.75034792  1
  Si  Si2  1  0.00382356  0.71607270  0.75048681  1
  Si  Si3  1  0.71146310  0.99677924  0.75090445  1
  Si  Si4  1  0.96268846  0.33267949  0.58548479  1
  Si  Si5  1  0.66790067  0.62964885  0.58553223  1
  Si  Si6  1  0.95881273  0.62136988  0.08530222  1
  Si  Si7  1  0.66768401  0.04125516  0.08201465  1
  Si  Si8  1  0.37624995  0.33680136  0.08278352  1
  Si  Si9  1  0.62437773  0.66479256  0.91659952  1
  Si  Si10  1  0.03944314  0.37495690  0.91547888  1
  Si  Si11  1  0.33540064  0.96033720  0.91632277  1
  Si  Si12  1  0.61874891  0.95693158  0.41696827  1
  Si  Si13  1  0.33726048  0.38066895  0.41683480  1
  Si  Si14  1  0.04371922  0.66269373  0.41670276  1
  P  P0  1  0.70566345  0.70832353  0.25079813  1
  P  P1  1  0.00235280  0.29480436  0.25179972  1
  P  P2  1  0.37155398  0.03903192  0.58356746  1
  O  O0  1  0.21736063  0.01726842  0.31438798  1
  O  O1  1  0.80503890  0.78611315  0.30859435  1
  O  O2  1  0.97738328  0.20011333  0.31077496  1
  O  O3  1  0.18807247  0.16726817  0.80777387  1
  O  O4  1  0.98007209  0.81341768  0.80758530  1
  O  O5  1  0.83329547  0.02304981  0.80762745  1
  O  O6  1  0.80405737  0.96527305  0.69235559  1
  O  O7  1  0.16110785  0.19548597  0.69217172  1
  O  O8  1  0.03620102  0.83948664  0.69227399  1
  O  O9  1  0.79933149  0.82484057  0.19586086  1
  O  O10  1  0.01808359  0.19150567  0.19856956  1
  O  O11  1  0.16730941  0.97480766  0.19526588  1
  O  O12  1  0.89259888  0.36744362  0.64615433  1
  O  O13  1  0.47376150  0.10665930  0.64115156  1
  O  O14  1  0.62627182  0.52311381  0.64604734  1
  O  O15  1  0.89451271  0.52353570  0.14738037  1
  O  O16  1  0.60411091  0.10075112  0.13881745  1
  O  O17  1  0.49826058  0.39701301  0.13979494  1
  O  O18  1  0.46475582  0.29260318  0.02696317  1
  O  O19  1  0.82440100  0.52642844  0.03056081  1
  O  O20  1  0.69880150  0.16694541  0.02542470  1
  O  O21  1  0.46953048  0.15802715  0.52898546  1
  O  O22  1  0.68846582  0.52451704  0.52734288  1
  O  O23  1  0.83580109  0.30731676  0.52718313  1
  O  O24  1  0.52944737  0.69021109  0.97416533  1
  O  O25  1  0.16358722  0.47576615  0.97148701  1
  O  O26  1  0.31116675  0.84220777  0.97439676  1
  O  O27  1  0.52379052  0.83399780  0.47282002  1
  O  O28  1  0.31335765  0.47921788  0.47318369  1
  O  O29  1  0.16955096  0.69039206  0.47173626  1
  O  O30  1  0.13153651  0.62832413  0.35690137  1
  O  O31  1  0.49349932  0.86297843  0.35841043  1
  O  O32  1  0.36977397  0.50579284  0.35891874  1
  O  O33  1  0.13391639  0.49380132  0.85622435  1
  O  O34  1  0.35896322  0.86294151  0.85754891  1
  O  O35  1  0.50352517  0.63999765  0.85775722  1
  O  O36  1  0.01478339  0.82461564  0.41534387  1
  O  O37  1  0.80717927  0.97961888  0.41349584  1
  O  O38  1  0.16842676  0.19442602  0.41619233  1
  O  O39  1  0.02338469  0.18815180  0.91073418  1
  O  O40  1  0.16404180  0.97638898  0.91057985  1
  O  O41  1  0.81141336  0.83594061  0.91036940  1
  O  O42  1  0.97974227  0.16039954  0.58747786  1
  O  O43  1  0.19579414  0.02719805  0.58624725  1
  O  O44  1  0.84486103  0.81504329  0.58770173  1
  O  O45  1  0.97487303  0.81560011  0.09187280  1
  O  O46  1  0.83593932  0.01634210  0.09169086  1
  O  O47  1  0.18786288  0.16005720  0.09274432  1
  O  O48  1  0.68702853  0.16155301  0.74788176  1
  O  O49  1  0.47154890  0.30509909  0.74837950  1
  O  O50  1  0.83653937  0.52806713  0.74987024  1
  O  O51  1  0.69320693  0.53475533  0.24576637  1
  O  O52  1  0.85657029  0.33151210  0.24579906  1
  O  O53  1  0.48652381  0.16407073  0.24725964  1
  O  O54  1  0.63995524  0.49411766  0.92417692  1
  O  O55  1  0.85470651  0.36258365  0.92343654  1
  O  O56  1  0.50685782  0.14678583  0.92259905  1
  O  O57  1  0.62855945  0.14319775  0.42379444  1
  O  O58  1  0.51061950  0.36485183  0.42412906  1
  O  O59  1  0.85565136  0.48536850  0.42415394  1
  O  O60  1  0.34668241  0.49900817  0.07150846  1
  O  O61  1  0.15613949  0.66426628  0.07417391  1
  O  O62  1  0.50521536  0.84562972  0.07168489  1
  O  O63  1  0.34876630  0.86004966  0.57281181  1
  O  O64  1  0.50521877  0.65916845  0.57367421  1
  O  O65  1  0.15093770  0.50116841  0.57365270  1
  O  O66  1  0.29680021  0.81478297  0.25425317  1
  O  O67  1  0.52587961  0.69495416  0.25434418  1
  O  O68  1  0.17509550  0.47173434  0.25369200  1
  O  O69  1  0.29901788  0.47651891  0.75574382  1
  O  O70  1  0.17993910  0.70252391  0.75563506  1
  O  O71  1  0.52360296  0.81985798  0.75571284  1
loop_
_geom_bond_atom_site_label_1
_geom_bond_atom_site_label_2
_geom_bond_distance
_geom_bond_site_symmetry_2
Na0 O15 2.354769 1_555
Na0 O52 2.360346 1_555
Na0 O51 2.391425 1_555
Na0 O66 2.413279 1_655
Na0 O68 2.697633 1_655
Na0 O30 2.868719 1_655
Na0 O11 2.897978 1_655
Na1 O50 2.387004 1_555
Na1 O14 2.426189 1_555
Na1 O71 2.447150 1_555
Na1 O49 2.480495 1_555
Na1 O69 2.622578 1_555
Na1 O35 2.804267 1_555
Na2 O48 2.416826 1_555
Na2 O12 2.423898 1_555
Na2 O50 2.458137 1_555
Na2 O69 2.471044 1_655
Na2 O70 2.648595 1_655
Na2 O33 2.773532 1_655
Na3 O49 2.365609 1_555
Na3 O48 2.439626 1_555
Na3 O70 2.442092 1_545
Na3 O13 2.580534 1_555
Na3 O71 2.656524 1_545
Na3 O34 2.763180 1_545
Na4 O61 2.444426 1_555
Na4 O47 2.491751 1_565
Na4 O62 2.505682 1_555
Na4 O16 2.567028 1_565
Na4 O45 2.694521 1_455
Na4 O26 2.732689 1_554
Na4 O18 2.807858 1_565
Na4 O11 2.857239 1_555
Na5 O45 2.469033 1_555
Na5 O62 2.488991 1_555
Na5 O60 2.500765 1_555
Na5 O46 2.592941 1_565
Na5 O17 2.605258 1_555
Na5 O24 2.758024 1_554
Na5 O19 2.796041 1_555
Na5 O9 2.820089 1_555
Na6 O38 2.380982 1_655
Na6 O59 2.435564 1_555
Na6 O37 2.440567 1_545
Na6 O2 2.489893 1_555
Na6 O57 2.665148 1_555
Na6 O23 2.846116 1_555
Na6 O30 2.946419 1_655
Na6 O28 3.027280 1_655
Na7 O0 2.371668 1_555
Na7 O57 2.448898 1_555
Na7 O36 2.456623 1_545
Na7 O38 2.467609 1_555
Na7 O58 2.625616 1_555
Na7 O21 2.922708 1_555
Na7 O31 2.934541 1_545
Na7 O29 3.012301 1_545
Na8 O36 2.403739 1_655
Na8 O37 2.423966 1_555
Na8 O58 2.481511 1_555
Na8 O1 2.575872 1_555
Na8 O59 2.670246 1_555
Na8 O22 2.851743 1_555
Na8 O32 2.934912 1_555
Na8 O27 2.978825 1_555
Na9 O42 2.489871 1_565
Na9 O44 2.496822 1_555
Na9 O38 2.533709 1_665
Na9 O43 2.544646 1_665
Na9 O36 2.547445 1_655
Na9 O37 2.579319 1_555
Na10 O39 2.441519 1_655
Na10 O41 2.528219 1_545
Na10 O40 2.535033 1_645
Na10 O46 2.640386 1_556
Na10 O47 2.693652 1_656
Na10 O45 2.737713 1_546
Na11 O50 2.516488 1_555
Na11 O49 2.537786 1_555
Na11 O48 2.554307 1_555
Na11 O56 2.555651 1_555
Na11 O55 2.573056 1_555
Na11 O54 2.578221 1_555
Na12 O53 2.244528 1_555
Na12 O51 2.520113 1_555
Na12 O52 2.529476 1_555
Na12 O57 2.706904 1_555
Na12 O58 2.718524 1_555
Na12 O59 2.845030 1_555
Na13 O68 2.550979 1_555
Na13 O60 2.573664 1_555
Na13 O67 2.578522 1_555
Na13 O66 2.592952 1_555
Na13 O61 2.619802 1_555
Na13 O62 2.658969 1_555
Na14 O65 2.561681 1_555
Na14 O64 2.574066 1_555
Na14 O69 2.589521 1_555
Na14 O70 2.609366 1_555
Na14 O71 2.622049 1_555
Na14 O63 2.683723 1_555
In0 O0 2.057545 1_555
In0 O2 2.121194 1_455
In0 O1 2.122648 1_445
In0 O37 2.175690 1_445
In0 O38 2.181380 1_555
In0 O36 2.205181 1_545
In1 O12 2.088646 1_555
In1 O14 2.092483 1_555
In1 O13 2.175848 1_555
In1 O49 2.194940 1_555
In1 O50 2.204216 1_555
In1 O48 2.207833 1_555
In2 O16 2.071034 1_555
In2 O17 2.092836 1_555
In2 O53 2.119383 1_555
In2 O15 2.126414 1_555
In2 O52 2.278600 1_555
In2 O51 2.282784 1_555
O0 Si0 1.618525 1_555
O1 P0 1.540720 1_555
O2 P1 1.537960 1_655
O3 Si1 1.632192 1_555
O3 Ta0 1.962613 1_545
O4 Si2 1.633673 1_655
O4 Ta0 1.955089 1_655
O5 Si3 1.627874 1_545
O5 Ta0 1.971391 1_645
O6 Si3 1.662015 1_555
O6 Ta1 1.940391 1_555
O7 Si1 1.651403 1_555
O7 Ta1 1.975388 1_445
O8 Si2 1.653765 1_555
O8 Ta1 1.979445 1_455
O9 P0 1.572966 1_555
O9 Ta2 2.077267 1_665
O10 P1 1.570891 1_555
O10 Ta2 2.022613 1_555
O11 Si0 1.687494 1_565
O11 Ta2 1.970520 1_565
O12 Si4 1.603399 1_555
O13 P2 1.534317 1_555
O14 Si5 1.604841 1_555
O15 Si6 1.603420 1_555
O16 Si7 1.602875 1_555
O17 Si8 1.603481 1_555
O18 Si8 1.644045 1_555
O18 Ta3 2.009994 1_554
O19 Si6 1.643254 1_555
O19 Ta3 2.012003 1_554
O20 Si7 1.639187 1_555
O20 Ta3 1.973613 1_554
O21 P2 1.583902 1_555
O21 Ta4 2.019108 1_555
O22 Si5 1.684693 1_555
O22 Ta4 1.923495 1_555
O23 Si4 1.685290 1_555
O23 Ta4 1.924361 1_555
O24 Si9 1.634160 1_555
O24 Ta5 1.959943 1_556
O25 Si10 1.633597 1_555
O25 Ta5 1.912174 1_556
O26 Si11 1.636215 1_555
O26 Ta5 1.962778 1_556
O27 Si12 1.615434 1_555
O27 Ta6 1.971872 1_555
O28 Si13 1.627591 1_555
O28 Ta6 1.931787 1_555
O29 Si14 1.617956 1_555
O29 Ta6 1.974889 1_555
O30 Si14 1.670656 1_555
O30 Ta7 1.987097 1_555
O31 Si12 1.670894 1_555
O31 Ta7 1.933005 1_555
O32 Si13 1.657420 1_555
O32 Ta7 1.974082 1_555
O33 Si10 1.660404 1_555
O33 Ta8 1.941561 1_555
O34 Si11 1.663235 1_555
O34 Ta8 1.945324 1_555
O35 Si9 1.663105 1_555
O35 Ta8 1.941834 1_555
O36 Si14 1.612664 1_555
O37 Si12 1.612392 1_555
O38 Si13 1.613005 1_555
O39 Si10 1.626771 1_555
O39 Ta0 2.012824 1_545
O40 Si11 1.631761 1_555
O40 Ta0 2.004270 1_555
O41 Si9 1.631570 1_555
O41 Ta0 2.005780 1_655
O42 Si4 1.642563 1_555
O42 Ta1 2.003992 1_545
O43 P2 1.539171 1_555
O43 Ta1 2.134484 1_445
O44 Si5 1.642065 1_555
O44 Ta1 2.000727 1_555
O45 Si6 1.696707 1_555
O45 Ta2 2.002981 1_665
O46 Si7 1.659930 1_555
O46 Ta2 1.998576 1_655
O47 Si8 1.669904 1_555
O47 Ta2 1.964527 1_555
O48 Si3 1.614737 1_545
O49 Si1 1.617656 1_555
O50 Si2 1.616400 1_655
O51 P0 1.522176 1_555
O52 P1 1.517641 1_655
O53 Si0 1.590197 1_555
O54 Si9 1.629052 1_555
O54 Ta3 2.012124 1_555
O55 Si10 1.626578 1_655
O55 Ta3 1.997538 1_555
O56 Si11 1.630393 1_545
O56 Ta3 2.006681 1_555
O57 Si12 1.650642 1_545
O57 Ta4 2.064728 1_555
O58 Si13 1.651709 1_555
O58 Ta4 2.068709 1_555
O59 Si14 1.664072 1_655
O59 Ta4 2.022905 1_555
O60 Si8 1.638588 1_555
O60 Ta5 1.993328 1_555
O61 Si6 1.643968 1_455
O61 Ta5 2.024685 1_555
O62 Si7 1.658197 1_565
O62 Ta5 2.034364 1_555
O63 P2 1.546686 1_565
O63 Ta6 2.059407 1_555
O64 Si5 1.642939 1_555
O64 Ta6 1.960334 1_555
O65 Si4 1.643311 1_455
O65 Ta6 1.961607 1_555
O66 Si0 1.696292 1_565
O66 Ta7 1.995964 1_555
O67 P0 1.570136 1_555
O67 Ta7 2.054779 1_555
O68 P1 1.583472 1_555
O68 Ta7 2.099337 1_555
O69 Si1 1.659918 1_555
O69 Ta8 2.056555 1_555
O70 Si2 1.660870 1_555
O70 Ta8 2.055431 1_555
O71 Si3 1.656453 1_555
O71 Ta8 2.059552 1_555
