# generated using pymatgen
data_Cs2HgI4
_symmetry_space_group_name_H-M   'P 1'
_cell_length_a   8.06544032
_cell_length_b   8.47942739
_cell_length_c   11.24419898
_cell_angle_alpha   90.00000000
_cell_angle_beta   112.42429750
_cell_angle_gamma   90.00000000
_symmetry_Int_Tables_number   1
_chemical_formula_structural   Cs2HgI4
_chemical_formula_sum   'Cs4 Hg2 I8'
_cell_volume   710.84631116
_cell_formula_units_Z   2
loop_
 _symmetry_equiv_pos_site_id
 _symmetry_equiv_pos_as_xyz
  1  'x, y, z'
loop_
 _atom_site_type_symbol
 _atom_site_label
 _atom_site_symmetry_multiplicity
 _atom_site_fract_x
 _atom_site_fract_y
 _atom_site_fract_z
 _atom_site_occupancy
  Cs  Cs0  1  0.33984207  0.75000000  0.54141106  1
  Cs  Cs1  1  0.20274119  0.25000000  0.91554024  1
  Cs  Cs2  1  0.66015793  0.25000000  0.45858894  1
  Cs  Cs3  1  0.79725881  0.75000000  0.08445976  1
  Hg  Hg0  1  0.91274218  0.75000000  0.71648441  1
  Hg  Hg1  1  0.08725782  0.25000000  0.28351559  1
  I  I0  1  0.25677289  0.98704222  0.22306866  1
  I  I1  1  0.28137429  0.75000000  0.86701118  1
  I  I2  1  0.18577138  0.25000000  0.55523904  1
  I  I3  1  0.81422862  0.75000000  0.44476096  1
  I  I4  1  0.25677289  0.51295778  0.22306866  1
  I  I5  1  0.71862571  0.25000000  0.13298882  1
  I  I6  1  0.74322711  0.48704222  0.77693134  1
  I  I7  1  0.74322711  0.01295778  0.77693134  1
loop_
_geom_bond_atom_site_label_1
_geom_bond_atom_site_label_2
_geom_bond_distance
_geom_bond_site_symmetry_2
Cs0 I1 3.865655 1_555
Cs0 I4 3.933459 1_555
Cs0 I0 3.933459 1_555
Cs0 I3 3.954476 1_455
Cs0 I6 3.999579 1_555
Cs0 I7 3.999579 1_565
Cs0 I3 4.358055 1_555
Cs0 I2 4.437446 1_565
Cs0 I2 4.437446 1_555
Cs1 I5 3.940713 1_556
Cs1 I7 3.974675 1_455
Cs1 I6 3.974675 1_455
Cs1 I4 3.996135 1_556
Cs1 I0 3.996135 1_546
Cs1 I2 4.001089 1_555
Cs1 I1 4.351916 1_545
Cs1 I1 4.351916 1_555
Cs2 I5 3.865655 1_555
Cs2 I6 3.933459 1_555
Cs2 I7 3.933459 1_555
Cs2 I2 3.954476 1_655
Cs2 I0 3.999579 1_545
Cs2 I4 3.999579 1_555
Cs2 I2 4.358055 1_555
Cs2 I3 4.437446 1_545
Cs2 I3 4.437446 1_555
Cs3 I1 3.940713 1_554
Cs3 I0 3.974675 1_655
Cs3 I4 3.974675 1_655
Cs3 I6 3.996135 1_554
Cs3 I7 3.996135 1_564
Cs3 I3 4.001089 1_555
Cs3 I5 4.351916 1_555
Cs3 I5 4.351916 1_565
Hg0 I1 2.804514 1_655
Hg0 I6 2.830529 1_555
Hg0 I7 2.830529 1_565
Hg0 I3 2.848537 1_555
Hg1 I5 2.804514 1_455
Hg1 I0 2.830529 1_545
Hg1 I4 2.830529 1_555
Hg1 I2 2.848537 1_555
