# generated using pymatgen
data_Na4TiAlSi2PO12
_symmetry_space_group_name_H-M   'P 1'
_cell_length_a   8.86377585
_cell_length_b   8.86377556
_cell_length_c   21.81244086
_cell_angle_alpha   90.08945103
_cell_angle_beta   89.91054898
_cell_angle_gamma   119.72280310
_symmetry_Int_Tables_number   1
_chemical_formula_structural   Na4TiAlSi2PO12
_chemical_formula_sum   'Na24 Ti6 Al6 Si12 P6 O72'
_cell_volume   1488.25730255
_cell_formula_units_Z   6
loop_
 _symmetry_equiv_pos_site_id
 _symmetry_equiv_pos_as_xyz
  1  'x, y, z'
loop_
 _atom_site_type_symbol
 _atom_site_label
 _atom_site_symmetry_multiplicity
 _atom_site_fract_x
 _atom_site_fract_y
 _atom_site_fract_z
 _atom_site_occupancy
  Na  Na0  1  0.63671651  0.00156714  0.25044375  1
  Na  Na1  1  0.36893894  0.36870612  0.24778142  1
  Na  Na2  1  0.99456368  0.62851861  0.24960731  1
  Na  Na3  1  0.63129388  0.63106106  0.74778142  1
  Na  Na4  1  0.99843286  0.36328349  0.75044375  1
  Na  Na5  1  0.37148139  0.00543632  0.74960731  1
  Na  Na6  1  0.30338351  0.33490014  0.58377675  1
  Na  Na7  1  0.03560594  0.70203912  0.58111442  1
  Na  Na8  1  0.66123068  0.96185161  0.58294031  1
  Na  Na9  1  0.29796088  0.96439406  0.08111442  1
  Na  Na10  1  0.66509986  0.69661649  0.08377675  1
  Na  Na11  1  0.03814839  0.33876932  0.08294031  1
  Na  Na12  1  0.97004951  0.66823414  0.91711075  1
  Na  Na13  1  0.70227194  0.03537312  0.91444842  1
  Na  Na14  1  0.32789668  0.29518561  0.91627431  1
  Na  Na15  1  0.96462688  0.29772806  0.41444842  1
  Na  Na16  1  0.33176586  0.02995049  0.41711075  1
  Na  Na17  1  0.70481439  0.67210332  0.41627431  1
  Na  Na18  1  0.99791205  0.99550875  0.49865220  1
  Na  Na19  1  0.00449125  0.00208795  0.99865220  1
  Na  Na20  1  0.66457905  0.32884175  0.83198520  1
  Na  Na21  1  0.67115825  0.33542095  0.33198520  1
  Na  Na22  1  0.33124505  0.66217575  0.16531920  1
  Na  Na23  1  0.33782425  0.66875495  0.66531920  1
  Ti  Ti0  1  0.99824258  0.00045971  0.64824388  1
  Ti  Ti1  1  0.99954029  0.00175742  0.14824388  1
  Ti  Ti2  1  0.66490958  0.33379271  0.98157688  1
  Ti  Ti3  1  0.66620729  0.33509042  0.48157688  1
  Ti  Ti4  1  0.33157558  0.66712671  0.31491088  1
  Ti  Ti5  1  0.33287329  0.66842442  0.81491088  1
  Al  Al0  1  0.98896523  0.99219896  0.35217190  1
  Al  Al1  1  0.00780104  0.01103477  0.85217190  1
  Al  Al2  1  0.65563223  0.32553196  0.68550490  1
  Al  Al3  1  0.67446804  0.34436777  0.18550490  1
  Al  Al4  1  0.32229823  0.65886596  0.01883890  1
  Al  Al5  1  0.34113404  0.67770177  0.51883890  1
  Si  Si0  1  0.71011727  0.70661972  0.25113574  1
  Si  Si1  1  0.99507980  0.28779803  0.25172126  1
  Si  Si2  1  0.29338028  0.28988273  0.75113574  1
  Si  Si3  1  0.71220197  0.00492020  0.75172126  1
  Si  Si4  1  0.37678427  0.03995272  0.58446874  1
  Si  Si5  1  0.66174680  0.62113103  0.58505426  1
  Si  Si6  1  0.96004728  0.62321573  0.08446874  1
  Si  Si7  1  0.37886897  0.33825320  0.08505426  1
  Si  Si8  1  0.04345027  0.37328672  0.91780274  1
  Si  Si9  1  0.32841280  0.95446503  0.91838826  1
  Si  Si10  1  0.62671328  0.95654973  0.41780274  1
  Si  Si11  1  0.04553497  0.67158720  0.41838826  1
  P  P0  1  0.28972178  0.00341865  0.25127670  1
  P  P1  1  0.99658135  0.71027822  0.75127670  1
  P  P2  1  0.95638878  0.33675165  0.58460970  1
  P  P3  1  0.66324835  0.04361122  0.08460970  1
  P  P4  1  0.62305478  0.67008565  0.91794370  1
  P  P5  1  0.32991435  0.37694522  0.41794370  1
  O  O0  1  0.20545394  0.03552808  0.30791163  1
  O  O1  1  0.83617249  0.79591757  0.30971168  1
  O  O2  1  0.96742830  0.16441453  0.31047081  1
  O  O3  1  0.20408243  0.16382751  0.80971168  1
  O  O4  1  0.96447192  0.79454606  0.80791163  1
  O  O5  1  0.83558547  0.03257170  0.81047081  1
  O  O6  1  0.79933994  0.96426880  0.69067222  1
  O  O7  1  0.16475752  0.19996808  0.69076714  1
  O  O8  1  0.03319298  0.82763561  0.69333727  1
  O  O9  1  0.80003192  0.83524248  0.19076714  1
  O  O10  1  0.03573120  0.20066006  0.19067222  1
  O  O11  1  0.17236439  0.96680702  0.19333727  1
  O  O12  1  0.87212094  0.36886108  0.64124463  1
  O  O13  1  0.50283949  0.12925057  0.64304468  1
  O  O14  1  0.63409530  0.49774753  0.64380381  1
  O  O15  1  0.87074943  0.49716051  0.14304468  1
  O  O16  1  0.63113892  0.12787906  0.14124463  1
  O  O17  1  0.50225247  0.36590470  0.14380381  1
  O  O18  1  0.46600694  0.29760180  0.02400522  1
  O  O19  1  0.83142452  0.53330108  0.02410014  1
  O  O20  1  0.69985998  0.16096861  0.02667027  1
  O  O21  1  0.46669892  0.16857548  0.52410014  1
  O  O22  1  0.70239820  0.53399306  0.52400522  1
  O  O23  1  0.83903139  0.30014002  0.52667027  1
  O  O24  1  0.53878694  0.70219508  0.97457863  1
  O  O25  1  0.16950549  0.46258457  0.97637868  1
  O  O26  1  0.30076130  0.83108153  0.97713781  1
  O  O27  1  0.53741543  0.83049451  0.47637868  1
  O  O28  1  0.29780492  0.46121306  0.47457863  1
  O  O29  1  0.16891847  0.69923870  0.47713781  1
  O  O30  1  0.13267294  0.63093580  0.35733922  1
  O  O31  1  0.49809052  0.86663508  0.35743414  1
  O  O32  1  0.36652598  0.49430261  0.36000427  1
  O  O33  1  0.13336492  0.50190948  0.85743414  1
  O  O34  1  0.36906420  0.86732706  0.85733922  1
  O  O35  1  0.50569739  0.63347402  0.86000427  1
  O  O36  1  0.03011403  0.84694167  0.40958712  1
  O  O37  1  0.82068059  0.97938270  0.41055425  1
  O  O38  1  0.17006175  0.19396737  0.41023361  1
  O  O39  1  0.02061730  0.17931941  0.91055425  1
  O  O40  1  0.15305833  0.96988597  0.90958712  1
  O  O41  1  0.80603263  0.82993825  0.91023361  1
  O  O42  1  0.97294386  0.16943807  0.58826465  1
  O  O43  1  0.18341239  0.02408613  0.58884985  1
  O  O44  1  0.83774366  0.81521499  0.58860560  1
  O  O45  1  0.97591387  0.81658761  0.08884985  1
  O  O46  1  0.83056193  0.02705614  0.08826465  1
  O  O47  1  0.18478501  0.16225634  0.08860560  1
  O  O48  1  0.69678103  0.18027467  0.74292012  1
  O  O49  1  0.48734759  0.31271570  0.74388725  1
  O  O50  1  0.83672875  0.52730037  0.74356661  1
  O  O51  1  0.68728430  0.51265241  0.24388725  1
  O  O52  1  0.81972533  0.30321897  0.24292012  1
  O  O53  1  0.47269963  0.16327125  0.24356661  1
  O  O54  1  0.63961086  0.50277107  0.92159765  1
  O  O55  1  0.85007939  0.35741913  0.92218285  1
  O  O56  1  0.50441066  0.14854799  0.92193860  1
  O  O57  1  0.64258087  0.14992061  0.42218285  1
  O  O58  1  0.49722893  0.36038914  0.42159765  1
  O  O59  1  0.85145201  0.49558934  0.42193860  1
  O  O60  1  0.36344703  0.51360867  0.07625412  1
  O  O61  1  0.15401359  0.64604970  0.07722125  1
  O  O62  1  0.50339475  0.86063437  0.07690061  1
  O  O63  1  0.35395030  0.84598641  0.57722125  1
  O  O64  1  0.48639133  0.63655297  0.57625412  1
  O  O65  1  0.13936563  0.49660525  0.57690061  1
  O  O66  1  0.30627686  0.83610507  0.25493165  1
  O  O67  1  0.51674539  0.69075313  0.25551685  1
  O  O68  1  0.17107666  0.48188199  0.25527260  1
  O  O69  1  0.30924687  0.48325461  0.75551685  1
  O  O70  1  0.16389493  0.69372314  0.75493165  1
  O  O71  1  0.51811801  0.82892334  0.75527260  1
loop_
_geom_bond_atom_site_label_1
_geom_bond_atom_site_label_2
_geom_bond_distance
_geom_bond_site_symmetry_2
Na0 O52 2.346709 1_555
Na0 O67 2.414235 1_545
Na0 O53 2.501612 1_555
Na0 O66 2.545431 1_545
Na0 O31 2.632302 1_545
Na0 O16 2.644423 1_555
Na0 O9 2.840375 1_545
Na0 O2 2.863752 1_555
Na1 O53 2.414537 1_555
Na1 O68 2.419105 1_555
Na1 O51 2.454975 1_555
Na1 O67 2.486788 1_555
Na1 O17 2.561511 1_555
Na1 O32 2.691975 1_555
Na1 O10 2.852507 1_555
Na1 O0 2.881700 1_555
Na2 O51 2.390717 1_555
Na2 O66 2.447891 1_655
Na2 O68 2.483971 1_655
Na2 O52 2.511028 1_555
Na2 O15 2.587529 1_555
Na2 O30 2.646484 1_655
Na2 O1 2.818744 1_555
Na2 O11 2.881107 1_655
Na3 O50 2.414538 1_555
Na3 O71 2.419105 1_555
Na3 O49 2.454975 1_555
Na3 O69 2.486788 1_555
Na3 O14 2.561511 1_555
Na3 O35 2.691975 1_555
Na3 O6 2.852507 1_555
Na3 O4 2.881701 1_555
Na4 O48 2.346709 1_555
Na4 O69 2.414235 1_655
Na4 O50 2.501612 1_555
Na4 O70 2.545431 1_655
Na4 O33 2.632302 1_655
Na4 O12 2.644423 1_555
Na4 O7 2.840375 1_655
Na4 O5 2.863752 1_555
Na5 O49 2.390717 1_555
Na5 O70 2.447891 1_545
Na5 O71 2.483971 1_545
Na5 O48 2.511028 1_555
Na5 O13 2.587529 1_555
Na5 O34 2.646484 1_545
Na5 O3 2.818744 1_555
Na5 O8 2.881108 1_545
Na6 O64 2.346713 1_555
Na6 O43 2.414235 1_555
Na6 O65 2.501626 1_555
Na6 O42 2.545431 1_455
Na6 O7 2.632302 1_555
Na6 O28 2.644410 1_555
Na6 O21 2.840375 1_555
Na6 O14 2.863752 1_555
Na7 O65 2.414522 1_555
Na7 O44 2.419105 1_455
Na7 O63 2.454966 1_555
Na7 O43 2.486788 1_565
Na7 O29 2.561486 1_555
Na7 O8 2.691975 1_555
Na7 O22 2.852507 1_455
Na7 O12 2.881700 1_455
Na8 O63 2.390725 1_555
Na8 O42 2.447891 1_565
Na8 O44 2.483971 1_555
Na8 O64 2.511019 1_555
Na8 O27 2.587509 1_555
Na8 O6 2.646484 1_555
Na8 O13 2.818744 1_565
Na8 O23 2.881107 1_565
Na9 O62 2.414522 1_555
Na9 O47 2.419105 1_565
Na9 O61 2.454966 1_555
Na9 O45 2.486788 1_455
Na9 O26 2.561486 1_554
Na9 O11 2.691975 1_555
Na9 O18 2.852507 1_565
Na9 O16 2.881701 1_565
Na10 O60 2.346713 1_555
Na10 O45 2.414235 1_555
Na10 O62 2.501626 1_555
Na10 O46 2.545431 1_565
Na10 O9 2.632302 1_555
Na10 O24 2.644410 1_554
Na10 O19 2.840375 1_555
Na10 O17 2.863752 1_555
Na11 O61 2.390725 1_555
Na11 O46 2.447891 1_455
Na11 O47 2.483971 1_555
Na11 O60 2.511020 1_555
Na11 O25 2.587510 1_554
Na11 O10 2.646484 1_555
Na11 O15 2.818744 1_455
Na11 O20 2.881108 1_455
Na12 O40 2.346709 1_655
Na12 O55 2.414243 1_555
Na12 O41 2.501612 1_555
Na12 O54 2.545422 1_555
Na12 O19 2.632283 1_556
Na12 O4 2.644423 1_555
Na12 O33 2.840375 1_655
Na12 O26 2.863752 1_655
Na13 O41 2.414537 1_545
Na13 O56 2.419088 1_555
Na13 O39 2.454975 1_655
Na13 O55 2.486778 1_555
Na13 O5 2.561511 1_555
Na13 O20 2.691950 1_556
Na13 O34 2.852507 1_545
Na13 O24 2.881700 1_545
Na14 O39 2.390717 1_555
Na14 O54 2.447895 1_555
Na14 O56 2.483986 1_555
Na14 O40 2.511028 1_545
Na14 O3 2.587529 1_555
Na14 O18 2.646471 1_556
Na14 O25 2.818744 1_555
Na14 O35 2.881107 1_555
Na15 O38 2.414538 1_655
Na15 O59 2.419088 1_555
Na15 O37 2.454975 1_545
Na15 O57 2.486778 1_555
Na15 O2 2.561511 1_555
Na15 O23 2.691950 1_555
Na15 O30 2.852507 1_655
Na15 O28 2.881701 1_655
Na16 O36 2.346709 1_545
Na16 O57 2.414243 1_555
Na16 O38 2.501612 1_555
Na16 O58 2.545422 1_555
Na16 O21 2.632283 1_555
Na16 O0 2.644423 1_555
Na16 O31 2.840375 1_545
Na16 O29 2.863752 1_545
Na17 O37 2.390717 1_555
Na17 O58 2.447894 1_555
Na17 O59 2.483986 1_555
Na17 O36 2.511028 1_655
Na17 O1 2.587529 1_555
Na17 O22 2.646471 1_555
Na17 O27 2.818744 1_555
Na17 O32 2.881108 1_555
Na18 O36 2.439835 1_655
Na18 O37 2.442715 1_555
Na18 O44 2.484068 1_555
Na18 O43 2.496798 1_665
Na18 O38 2.545996 1_665
Na18 O42 2.563984 1_565
Na19 O40 2.439835 1_545
Na19 O39 2.442715 1_555
Na19 O47 2.484068 1_556
Na19 O45 2.496798 1_446
Na19 O41 2.545996 1_445
Na19 O46 2.563984 1_456
Na20 O48 2.439835 1_555
Na20 O49 2.442715 1_555
Na20 O56 2.484068 1_555
Na20 O55 2.496798 1_555
Na20 O50 2.545996 1_555
Na20 O54 2.563984 1_555
Na21 O52 2.439835 1_555
Na21 O51 2.442715 1_555
Na21 O59 2.484068 1_555
Na21 O57 2.496798 1_555
Na21 O53 2.545996 1_555
Na21 O58 2.563984 1_555
Na22 O60 2.439835 1_555
Na22 O61 2.442715 1_555
Na22 O68 2.484068 1_555
Na22 O67 2.496798 1_555
Na22 O62 2.545996 1_555
Na22 O66 2.563984 1_555
Na23 O64 2.439835 1_555
Na23 O63 2.442715 1_555
Na23 O71 2.484068 1_555
Na23 O69 2.496798 1_555
Na23 O65 2.545996 1_555
Na23 O70 2.563984 1_555
Al0 O1 1.838820 1_555
Al0 O2 1.867564 1_565
Al0 O37 1.919917 1_555
Al0 O36 1.957372 1_655
Al0 O0 2.006573 1_665
Al0 O38 2.128771 1_665
Al1 O3 1.838820 1_555
Al1 O5 1.867564 1_455
Al1 O39 1.919917 1_555
Al1 O40 1.957372 1_545
Al1 O4 2.006573 1_445
Al1 O41 2.128771 1_445
Al2 O13 1.838820 1_555
Al2 O14 1.867564 1_555
Al2 O49 1.919917 1_555
Al2 O48 1.957372 1_555
Al2 O12 2.006573 1_555
Al2 O50 2.128771 1_555
Al3 O15 1.838820 1_555
Al3 O17 1.867564 1_555
Al3 O51 1.919917 1_555
Al3 O52 1.957372 1_555
Al3 O16 2.006573 1_555
Al3 O53 2.128771 1_555
Al4 O25 1.838820 1_554
Al4 O26 1.867564 1_554
Al4 O61 1.919917 1_555
Al4 O60 1.957372 1_555
Al4 O24 2.006573 1_554
Al4 O62 2.128771 1_555
Al5 O27 1.838820 1_555
Al5 O29 1.867564 1_555
Al5 O63 1.919917 1_555
Al5 O64 1.957372 1_555
Al5 O28 2.006573 1_555
Al5 O65 2.128771 1_555
O0 P0 1.540069 1_555
O1 Si0 1.622261 1_555
O2 Si1 1.623543 1_555
O3 Si2 1.622261 1_555
O4 P1 1.540069 1_555
O5 Si3 1.623543 1_555
O6 Si3 1.664598 1_565
O6 Ti0 1.871545 1_565
O7 Si2 1.664123 1_555
O7 Ti0 1.891288 1_455
O8 P1 1.566099 1_455
O8 Ti0 1.971372 1_465
O9 Si0 1.664123 1_555
O9 Ti1 1.891288 1_565
O10 Si1 1.664598 1_455
O10 Ti1 1.871545 1_455
O11 P0 1.566099 1_565
O11 Ti1 1.971372 1_465
O12 P2 1.540069 1_555
O13 Si4 1.622261 1_555
O14 Si5 1.623543 1_555
O15 Si6 1.622261 1_555
O16 P3 1.540069 1_555
O17 Si7 1.623543 1_555
O18 Si7 1.664598 1_555
O18 Ti2 1.871545 1_554
O19 Si6 1.664123 1_555
O19 Ti2 1.891288 1_554
O20 P3 1.566099 1_555
O20 Ti2 1.971372 1_554
O21 Si4 1.664123 1_555
O21 Ti3 1.891288 1_555
O22 Si5 1.664598 1_555
O22 Ti3 1.871545 1_555
O23 P2 1.566099 1_555
O23 Ti3 1.971372 1_555
O24 P4 1.540069 1_555
O25 Si8 1.622261 1_555
O26 Si9 1.623543 1_555
O27 Si10 1.622261 1_555
O28 P5 1.540069 1_555
O29 Si11 1.623543 1_555
O30 Si11 1.664598 1_555
O30 Ti4 1.871545 1_555
O31 Si10 1.664123 1_555
O31 Ti4 1.891288 1_555
O32 P5 1.566099 1_555
O32 Ti4 1.971372 1_555
O33 Si8 1.664123 1_555
O33 Ti5 1.891288 1_555
O34 Si9 1.664598 1_555
O34 Ti5 1.871545 1_555
O35 P4 1.566099 1_555
O35 Ti5 1.971372 1_555
O36 Si11 1.638011 1_555
O37 Si10 1.635880 1_555
O38 P5 1.545155 1_555
O39 Si8 1.635880 1_555
O40 Si9 1.638011 1_555
O41 P4 1.545155 1_555
O42 P2 1.563159 1_555
O42 Ti0 2.084553 1_555
O43 Si4 1.651431 1_555
O43 Ti0 2.017300 1_455
O44 Si5 1.654652 1_555
O44 Ti0 2.023600 1_565
O45 Si6 1.651431 1_555
O45 Ti1 2.017300 1_565
O46 P3 1.563159 1_555
O46 Ti1 2.084553 1_555
O47 Si7 1.654652 1_555
O47 Ti1 2.023600 1_455
O48 Si3 1.638011 1_555
O49 Si2 1.635880 1_555
O50 P1 1.545155 1_555
O51 Si0 1.635880 1_555
O52 Si1 1.638011 1_555
O53 P0 1.545155 1_555
O54 P4 1.563172 1_555
O54 Ti2 2.084553 1_555
O55 Si8 1.651417 1_655
O55 Ti2 2.017300 1_555
O56 Si9 1.654649 1_545
O56 Ti2 2.023600 1_555
O57 Si10 1.651417 1_545
O57 Ti3 2.017300 1_555
O58 P5 1.563172 1_555
O58 Ti3 2.084553 1_555
O59 Si11 1.654649 1_655
O59 Ti3 2.023600 1_555
O60 Si7 1.638022 1_555
O61 Si6 1.635866 1_455
O62 P3 1.545151 1_565
O63 Si4 1.635865 1_565
O64 Si5 1.638022 1_555
O65 P2 1.545151 1_455
O66 P0 1.563159 1_565
O66 Ti4 2.084553 1_555
O67 Si0 1.651431 1_555
O67 Ti4 2.017300 1_555
O68 Si1 1.654652 1_455
O68 Ti4 2.023600 1_555
O69 Si2 1.651431 1_555
O69 Ti5 2.017300 1_555
O70 P1 1.563159 1_455
O70 Ti5 2.084553 1_555
O71 Si3 1.654652 1_565
O71 Ti5 2.023600 1_555
