# generated using pymatgen
data_Na4NbGa(SiO4)3
_symmetry_space_group_name_H-M   'P 1'
_cell_length_a   9.06108768
_cell_length_b   9.06108737
_cell_length_c   22.20135702
_cell_angle_alpha   90.00000000
_cell_angle_beta   90.00000000
_cell_angle_gamma   120.00000113
_symmetry_Int_Tables_number   1
_chemical_formula_structural   Na4NbGa(SiO4)3
_chemical_formula_sum   'Na24 Nb6 Ga6 Si18 O72'
_cell_volume   1578.59527483
_cell_formula_units_Z   6
loop_
 _symmetry_equiv_pos_site_id
 _symmetry_equiv_pos_as_xyz
  1  'x, y, z'
loop_
 _atom_site_type_symbol
 _atom_site_label
 _atom_site_symmetry_multiplicity
 _atom_site_fract_x
 _atom_site_fract_y
 _atom_site_fract_z
 _atom_site_occupancy
  Na  Na0  1  0.63678287  0.01002752  0.24797662  1
  Na  Na1  1  0.37324466  0.36321713  0.24797662  1
  Na  Na2  1  0.98997248  0.62675534  0.24797662  1
  Na  Na3  1  0.63678287  0.62675534  0.74797662  1
  Na  Na4  1  0.98997248  0.36321713  0.74797662  1
  Na  Na5  1  0.37324466  0.01002752  0.74797662  1
  Na  Na6  1  0.30344987  0.34336052  0.58130962  1
  Na  Na7  1  0.03991166  0.69655013  0.58130962  1
  Na  Na8  1  0.65663948  0.96008834  0.58130962  1
  Na  Na9  1  0.30344987  0.96008834  0.08130962  1
  Na  Na10  1  0.65663948  0.69655013  0.08130962  1
  Na  Na11  1  0.03991166  0.34336052  0.08130962  1
  Na  Na12  1  0.97011587  0.67669452  0.91464362  1
  Na  Na13  1  0.70657766  0.02988413  0.91464362  1
  Na  Na14  1  0.32330548  0.29342234  0.91464362  1
  Na  Na15  1  0.97011587  0.29342234  0.41464362  1
  Na  Na16  1  0.32330548  0.02988413  0.41464362  1
  Na  Na17  1  0.70657766  0.67669452  0.41464362  1
  Na  Na18  1  0.00000000  0.00000000  0.49526392  1
  Na  Na19  1  0.00000000  0.00000000  0.99526392  1
  Na  Na20  1  0.66666700  0.33333300  0.82859692  1
  Na  Na21  1  0.66666700  0.33333300  0.32859692  1
  Na  Na22  1  0.33333300  0.66666700  0.16193092  1
  Na  Na23  1  0.33333300  0.66666700  0.66193092  1
  Nb  Nb0  1  0.00000000  0.00000000  0.64669347  1
  Nb  Nb1  1  0.00000000  0.00000000  0.14669347  1
  Nb  Nb2  1  0.66666700  0.33333300  0.98002647  1
  Nb  Nb3  1  0.66666700  0.33333300  0.48002647  1
  Nb  Nb4  1  0.33333300  0.66666700  0.31336047  1
  Nb  Nb5  1  0.33333300  0.66666700  0.81336047  1
  Ga  Ga0  1  0.00000000  0.00000000  0.35097104  1
  Ga  Ga1  1  0.00000000  0.00000000  0.85097104  1
  Ga  Ga2  1  0.66666700  0.33333300  0.68430404  1
  Ga  Ga3  1  0.66666700  0.33333300  0.18430404  1
  Ga  Ga4  1  0.33333300  0.66666700  0.01763804  1
  Ga  Ga5  1  0.33333300  0.66666700  0.51763804  1
  Si  Si0  1  0.29327198  0.00448650  0.25192791  1
  Si  Si1  1  0.71121451  0.70672802  0.25192791  1
  Si  Si2  1  0.99551350  0.28878549  0.25192791  1
  Si  Si3  1  0.29327198  0.28878549  0.75192791  1
  Si  Si4  1  0.99551350  0.70672802  0.75192791  1
  Si  Si5  1  0.71121451  0.00448650  0.75192791  1
  Si  Si6  1  0.95993898  0.33781950  0.58526091  1
  Si  Si7  1  0.37788151  0.04006102  0.58526091  1
  Si  Si8  1  0.66218050  0.62211849  0.58526091  1
  Si  Si9  1  0.95993898  0.62211849  0.08526091  1
  Si  Si10  1  0.66218050  0.04006102  0.08526091  1
  Si  Si11  1  0.37788151  0.33781950  0.08526091  1
  Si  Si12  1  0.62660498  0.67115350  0.91859491  1
  Si  Si13  1  0.04454751  0.37339502  0.91859491  1
  Si  Si14  1  0.32884650  0.95545249  0.91859491  1
  Si  Si15  1  0.62660498  0.95545249  0.41859491  1
  Si  Si16  1  0.32884650  0.37339502  0.41859491  1
  Si  Si17  1  0.04454751  0.67115350  0.41859491  1
  O  O0  1  0.20618263  0.03662706  0.31026804  1
  O  O1  1  0.83044442  0.79381737  0.31026804  1
  O  O2  1  0.96337294  0.16955558  0.31026804  1
  O  O3  1  0.20618263  0.16955558  0.81026804  1
  O  O4  1  0.96337294  0.79381737  0.81026804  1
  O  O5  1  0.83044442  0.03662706  0.81026804  1
  O  O6  1  0.79979636  0.96558393  0.69218787  1
  O  O7  1  0.16578758  0.20020364  0.69218787  1
  O  O8  1  0.03441607  0.83421242  0.69218787  1
  O  O9  1  0.79979636  0.83421242  0.19218787  1
  O  O10  1  0.03441607  0.20020364  0.19218787  1
  O  O11  1  0.16578758  0.96558393  0.19218787  1
  O  O12  1  0.87284963  0.36996006  0.64360104  1
  O  O13  1  0.49711142  0.12715037  0.64360104  1
  O  O14  1  0.63003994  0.50288858  0.64360104  1
  O  O15  1  0.87284963  0.50288858  0.14360104  1
  O  O16  1  0.63003994  0.12715037  0.14360104  1
  O  O17  1  0.49711142  0.36996006  0.14360104  1
  O  O18  1  0.46646336  0.29891693  0.02552087  1
  O  O19  1  0.83245458  0.53353664  0.02552087  1
  O  O20  1  0.70108307  0.16754542  0.02552087  1
  O  O21  1  0.46646336  0.16754542  0.52552087  1
  O  O22  1  0.70108307  0.53353664  0.52552087  1
  O  O23  1  0.83245458  0.29891693  0.52552087  1
  O  O24  1  0.53951563  0.70329406  0.97693504  1
  O  O25  1  0.16377742  0.46048437  0.97693504  1
  O  O26  1  0.29670594  0.83622258  0.97693504  1
  O  O27  1  0.53951563  0.83622258  0.47693504  1
  O  O28  1  0.29670594  0.46048437  0.47693504  1
  O  O29  1  0.16377742  0.70329406  0.47693504  1
  O  O30  1  0.13312936  0.63225093  0.35885487  1
  O  O31  1  0.49912058  0.86687064  0.35885487  1
  O  O32  1  0.36774907  0.50087942  0.35885487  1
  O  O33  1  0.13312936  0.50087942  0.85885487  1
  O  O34  1  0.36774907  0.86687064  0.85885487  1
  O  O35  1  0.49912058  0.63225093  0.85885487  1
  O  O36  1  0.02111160  0.83661669  0.41134636  1
  O  O37  1  0.81550509  0.97888840  0.41134636  1
  O  O38  1  0.16338331  0.18449491  0.41134636  1
  O  O39  1  0.02111160  0.18449491  0.91134636  1
  O  O40  1  0.16338331  0.97888840  0.91134636  1
  O  O41  1  0.81550509  0.83661669  0.91134636  1
  O  O42  1  0.97257253  0.16110118  0.58865040  1
  O  O43  1  0.18852865  0.02742747  0.58865040  1
  O  O44  1  0.83889882  0.81147135  0.58865040  1
  O  O45  1  0.97257253  0.81147135  0.08865040  1
  O  O46  1  0.83889882  0.02742747  0.08865040  1
  O  O47  1  0.18852865  0.16110118  0.08865040  1
  O  O48  1  0.68777860  0.16994969  0.74467936  1
  O  O49  1  0.48217209  0.31222140  0.74467936  1
  O  O50  1  0.83005031  0.51782791  0.74467936  1
  O  O51  1  0.68777860  0.51782791  0.24467936  1
  O  O52  1  0.83005031  0.31222140  0.24467936  1
  O  O53  1  0.48217209  0.16994969  0.24467936  1
  O  O54  1  0.63923953  0.49443418  0.92198340  1
  O  O55  1  0.85519565  0.36076047  0.92198340  1
  O  O56  1  0.50556582  0.14480435  0.92198340  1
  O  O57  1  0.63923953  0.14480435  0.42198340  1
  O  O58  1  0.50556582  0.36076047  0.42198340  1
  O  O59  1  0.85519565  0.49443418  0.42198340  1
  O  O60  1  0.35444460  0.50328369  0.07801336  1
  O  O61  1  0.14883809  0.64555540  0.07801336  1
  O  O62  1  0.49671631  0.85116191  0.07801336  1
  O  O63  1  0.35444460  0.85116191  0.57801336  1
  O  O64  1  0.49671631  0.64555540  0.57801336  1
  O  O65  1  0.14883809  0.50328369  0.57801336  1
  O  O66  1  0.30590553  0.82776818  0.25531740  1
  O  O67  1  0.52186165  0.69409447  0.25531740  1
  O  O68  1  0.17223182  0.47813835  0.25531740  1
  O  O69  1  0.30590553  0.47813835  0.75531740  1
  O  O70  1  0.17223182  0.69409447  0.75531740  1
  O  O71  1  0.52186165  0.82776818  0.75531740  1
loop_
_geom_bond_atom_site_label_1
_geom_bond_atom_site_label_2
_geom_bond_distance
_geom_bond_site_symmetry_2
Na0 O52 2.403059 1_555
Na0 O53 2.469384 1_555
Na0 O67 2.514948 1_545
Na0 O16 2.562154 1_555
Na0 O66 2.606009 1_545
Na0 O31 2.771321 1_545
Na0 O2 2.912327 1_555
Na0 O9 2.933743 1_545
Na1 O53 2.403066 1_555
Na1 O51 2.469392 1_555
Na1 O68 2.514957 1_555
Na1 O17 2.562158 1_555
Na1 O67 2.606009 1_555
Na1 O32 2.771324 1_555
Na1 O0 2.912327 1_555
Na1 O10 2.933743 1_555
Na2 O51 2.403058 1_555
Na2 O52 2.469392 1_555
Na2 O66 2.514950 1_655
Na2 O15 2.562156 1_555
Na2 O68 2.606001 1_655
Na2 O30 2.771319 1_655
Na2 O1 2.912327 1_555
Na2 O11 2.933743 1_655
Na3 O50 2.403066 1_555
Na3 O49 2.469392 1_555
Na3 O71 2.514957 1_555
Na3 O14 2.562158 1_555
Na3 O69 2.606009 1_555
Na3 O35 2.771324 1_555
Na3 O4 2.912327 1_555
Na3 O6 2.933743 1_555
Na4 O48 2.403059 1_555
Na4 O50 2.469384 1_555
Na4 O69 2.514948 1_655
Na4 O12 2.562154 1_555
Na4 O70 2.606009 1_655
Na4 O33 2.771321 1_655
Na4 O5 2.912327 1_555
Na4 O7 2.933743 1_655
Na5 O49 2.403058 1_555
Na5 O48 2.469392 1_555
Na5 O70 2.514950 1_545
Na5 O13 2.562156 1_555
Na5 O71 2.606001 1_545
Na5 O34 2.771319 1_545
Na5 O3 2.912327 1_555
Na5 O8 2.933743 1_545
Na6 O64 2.403064 1_555
Na6 O65 2.469399 1_555
Na6 O43 2.514948 1_555
Na6 O28 2.562140 1_555
Na6 O42 2.606009 1_455
Na6 O7 2.771321 1_555
Na6 O14 2.912327 1_555
Na6 O21 2.933743 1_555
Na7 O65 2.403050 1_555
Na7 O63 2.469383 1_555
Na7 O44 2.514957 1_455
Na7 O29 2.562132 1_555
Na7 O43 2.606009 1_565
Na7 O8 2.771324 1_555
Na7 O12 2.912327 1_455
Na7 O22 2.933743 1_455
Na8 O63 2.403067 1_555
Na8 O64 2.469383 1_555
Na8 O42 2.514950 1_565
Na8 O27 2.562135 1_555
Na8 O44 2.606001 1_555
Na8 O6 2.771319 1_555
Na8 O13 2.912327 1_565
Na8 O23 2.933743 1_565
Na9 O62 2.403050 1_555
Na9 O61 2.469383 1_555
Na9 O47 2.514957 1_565
Na9 O26 2.562132 1_554
Na9 O45 2.606009 1_455
Na9 O11 2.771324 1_555
Na9 O16 2.912327 1_565
Na9 O18 2.933743 1_565
Na10 O60 2.403064 1_555
Na10 O62 2.469399 1_555
Na10 O45 2.514948 1_555
Na10 O24 2.562140 1_554
Na10 O46 2.606009 1_565
Na10 O9 2.771321 1_555
Na10 O17 2.912327 1_555
Na10 O19 2.933743 1_555
Na11 O61 2.403067 1_555
Na11 O60 2.469384 1_555
Na11 O46 2.514950 1_455
Na11 O25 2.562135 1_554
Na11 O47 2.606001 1_555
Na11 O10 2.771319 1_555
Na11 O15 2.912327 1_455
Na11 O20 2.933743 1_455
Na12 O40 2.403059 1_655
Na12 O41 2.469384 1_555
Na12 O55 2.514957 1_555
Na12 O4 2.562154 1_555
Na12 O54 2.606000 1_555
Na12 O19 2.771302 1_556
Na12 O26 2.912327 1_655
Na12 O33 2.933743 1_655
Na13 O41 2.403066 1_545
Na13 O39 2.469392 1_655
Na13 O56 2.514940 1_555
Na13 O5 2.562158 1_555
Na13 O55 2.605999 1_555
Na13 O20 2.771298 1_556
Na13 O24 2.912327 1_545
Na13 O34 2.933743 1_545
Na14 O39 2.403058 1_555
Na14 O40 2.469392 1_545
Na14 O54 2.514954 1_555
Na14 O3 2.562156 1_555
Na14 O56 2.606015 1_555
Na14 O18 2.771306 1_556
Na14 O25 2.912327 1_555
Na14 O35 2.933743 1_555
Na15 O38 2.403066 1_655
Na15 O37 2.469392 1_545
Na15 O59 2.514940 1_555
Na15 O2 2.562158 1_555
Na15 O57 2.605999 1_555
Na15 O23 2.771298 1_555
Na15 O28 2.912327 1_655
Na15 O30 2.933743 1_655
Na16 O36 2.403059 1_545
Na16 O38 2.469384 1_555
Na16 O57 2.514957 1_555
Na16 O0 2.562154 1_555
Na16 O58 2.606000 1_555
Na16 O21 2.771302 1_555
Na16 O29 2.912327 1_545
Na16 O31 2.933743 1_545
Na17 O37 2.403058 1_555
Na17 O36 2.469392 1_655
Na17 O58 2.514954 1_555
Na17 O1 2.562156 1_555
Na17 O59 2.606015 1_555
Na17 O22 2.771306 1_555
Na17 O27 2.912327 1_555
Na17 O32 2.933743 1_555
Na18 O38 2.445924 1_555
Na18 O36 2.445924 1_545
Na18 O37 2.445924 1_445
Na18 O44 2.618018 1_445
Na18 O42 2.618018 1_455
Na18 O43 2.618019 1_555
Na19 O39 2.445924 1_555
Na19 O41 2.445924 1_445
Na19 O40 2.445924 1_545
Na19 O45 2.618018 1_446
Na19 O47 2.618018 1_556
Na19 O46 2.618019 1_456
Na20 O50 2.445924 1_555
Na20 O48 2.445924 1_555
Na20 O49 2.445924 1_555
Na20 O56 2.618018 1_555
Na20 O54 2.618018 1_555
Na20 O55 2.618019 1_555
Na21 O51 2.445924 1_555
Na21 O53 2.445924 1_555
Na21 O52 2.445924 1_555
Na21 O57 2.618018 1_555
Na21 O59 2.618018 1_555
Na21 O58 2.618019 1_555
Na22 O62 2.445924 1_555
Na22 O60 2.445924 1_555
Na22 O61 2.445924 1_555
Na22 O68 2.618018 1_555
Na22 O66 2.618018 1_555
Na22 O67 2.618019 1_555
Na23 O63 2.445924 1_555
Na23 O65 2.445924 1_555
Na23 O64 2.445924 1_555
Na23 O69 2.618018 1_555
Na23 O71 2.618018 1_555
Na23 O70 2.618019 1_555
Nb0 O7 1.960239 1_555
Nb0 O6 1.960239 1_445
Nb0 O8 1.960239 1_545
Nb0 O44 2.053290 1_445
Nb0 O42 2.053290 1_455
Nb0 O43 2.053290 1_555
Nb1 O10 1.960239 1_555
Nb1 O9 1.960239 1_445
Nb1 O11 1.960239 1_545
Nb1 O45 2.053290 1_445
Nb1 O47 2.053290 1_555
Nb1 O46 2.053290 1_455
Nb2 O19 1.960239 1_556
Nb2 O18 1.960239 1_556
Nb2 O20 1.960239 1_556
Nb2 O56 2.053290 1_555
Nb2 O54 2.053290 1_555
Nb2 O55 2.053290 1_555
Nb3 O22 1.960239 1_555
Nb3 O21 1.960239 1_555
Nb3 O23 1.960239 1_555
Nb3 O57 2.053290 1_555
Nb3 O59 2.053290 1_555
Nb3 O58 2.053290 1_555
Nb4 O31 1.960239 1_555
Nb4 O30 1.960239 1_555
Nb4 O32 1.960239 1_555
Nb4 O68 2.053290 1_555
Nb4 O66 2.053290 1_555
Nb4 O67 2.053290 1_555
Nb5 O34 1.960239 1_555
Nb5 O33 1.960239 1_555
Nb5 O35 1.960239 1_555
Nb5 O69 2.053290 1_555
Nb5 O71 2.053290 1_555
Nb5 O70 2.053290 1_555
Ga0 O1 1.948598 1_445
Ga0 O0 1.948598 1_555
Ga0 O2 1.948598 1_455
Ga0 O38 2.075614 1_555
Ga0 O36 2.075614 1_545
Ga0 O37 2.075614 1_445
Ga1 O4 1.948598 1_445
Ga1 O3 1.948598 1_555
Ga1 O5 1.948598 1_455
Ga1 O39 2.075614 1_555
Ga1 O41 2.075614 1_445
Ga1 O40 2.075614 1_545
Ga2 O13 1.948598 1_555
Ga2 O12 1.948598 1_555
Ga2 O14 1.948598 1_555
Ga2 O50 2.075614 1_555
Ga2 O48 2.075614 1_555
Ga2 O49 2.075614 1_555
Ga3 O16 1.948598 1_555
Ga3 O15 1.948598 1_555
Ga3 O17 1.948598 1_555
Ga3 O51 2.075614 1_555
Ga3 O53 2.075614 1_555
Ga3 O52 2.075614 1_555
Ga4 O25 1.948598 1_554
Ga4 O24 1.948598 1_554
Ga4 O26 1.948598 1_554
Ga4 O62 2.075614 1_555
Ga4 O60 2.075614 1_555
Ga4 O61 2.075614 1_555
Ga5 O28 1.948598 1_555
Ga5 O27 1.948598 1_555
Ga5 O29 1.948598 1_555
Ga5 O63 2.075614 1_555
Ga5 O65 2.075614 1_555
Ga5 O64 2.075614 1_555
O0 Si0 1.617086 1_555
O1 Si1 1.617086 1_555
O2 Si2 1.617086 1_555
O3 Si3 1.617086 1_555
O4 Si4 1.617086 1_555
O5 Si5 1.617086 1_555
O6 Si5 1.676464 1_565
O7 Si3 1.676464 1_555
O8 Si4 1.676464 1_455
O9 Si1 1.676464 1_555
O10 Si2 1.676464 1_455
O11 Si0 1.676464 1_565
O12 Si6 1.617086 1_555
O13 Si7 1.617086 1_555
O14 Si8 1.617086 1_555
O15 Si9 1.617086 1_555
O16 Si10 1.617086 1_555
O17 Si11 1.617086 1_555
O18 Si11 1.676464 1_555
O19 Si9 1.676464 1_555
O20 Si10 1.676464 1_555
O21 Si7 1.676464 1_555
O22 Si8 1.676464 1_555
O23 Si6 1.676464 1_555
O24 Si12 1.617086 1_555
O25 Si13 1.617086 1_555
O26 Si14 1.617086 1_555
O27 Si15 1.617086 1_555
O28 Si16 1.617086 1_555
O29 Si17 1.617086 1_555
O30 Si17 1.676464 1_555
O31 Si15 1.676464 1_555
O32 Si16 1.676464 1_555
O33 Si13 1.676464 1_555
O34 Si14 1.676464 1_555
O35 Si12 1.676464 1_555
O36 Si17 1.623946 1_555
O37 Si15 1.623955 1_555
O38 Si16 1.623951 1_555
O39 Si13 1.623955 1_555
O40 Si14 1.623946 1_555
O41 Si12 1.623951 1_555
O42 Si6 1.663161 1_555
O43 Si7 1.663170 1_555
O44 Si8 1.663166 1_555
O45 Si9 1.663170 1_555
O46 Si10 1.663161 1_555
O47 Si11 1.663166 1_555
O48 Si5 1.623946 1_555
O49 Si3 1.623955 1_555
O50 Si4 1.623951 1_555
O51 Si1 1.623955 1_555
O52 Si2 1.623946 1_555
O53 Si0 1.623951 1_555
O54 Si12 1.663174 1_555
O55 Si13 1.663156 1_655
O56 Si14 1.663164 1_545
O57 Si15 1.663155 1_545
O58 Si16 1.663174 1_555
O59 Si17 1.663164 1_655
O60 Si11 1.623958 1_555
O61 Si9 1.623940 1_455
O62 Si10 1.623947 1_565
O63 Si7 1.623940 1_565
O64 Si8 1.623958 1_555
O65 Si6 1.623947 1_455
O66 Si0 1.663161 1_565
O67 Si1 1.663170 1_555
O68 Si2 1.663166 1_455
O69 Si3 1.663170 1_555
O70 Si4 1.663161 1_455
O71 Si5 1.663166 1_565
