# generated using pymatgen
data_PdS
_symmetry_space_group_name_H-M   'P 1'
_cell_length_a   6.47221786
_cell_length_b   6.47221786
_cell_length_c   6.63553180
_cell_angle_alpha   90.00000000
_cell_angle_beta   90.00000000
_cell_angle_gamma   90.00000000
_symmetry_Int_Tables_number   1
_chemical_formula_structural   PdS
_chemical_formula_sum   'Pd8 S8'
_cell_volume   277.95979962
_cell_formula_units_Z   8
loop_
 _symmetry_equiv_pos_site_id
 _symmetry_equiv_pos_as_xyz
  1  'x, y, z'
loop_
 _atom_site_type_symbol
 _atom_site_label
 _atom_site_symmetry_multiplicity
 _atom_site_fract_x
 _atom_site_fract_y
 _atom_site_fract_z
 _atom_site_occupancy
  Pd  Pd0  1  0.53090766  0.74255767  0.00000000  1
  Pd  Pd1  1  0.25744233  0.53090766  0.50000000  1
  Pd  Pd2  1  0.74255767  0.46909234  0.50000000  1
  Pd  Pd3  1  0.46909234  0.25744233  0.00000000  1
  Pd  Pd4  1  0.00000000  0.00000000  0.75000000  1
  Pd  Pd5  1  0.00000000  0.00000000  0.25000000  1
  Pd  Pd6  1  0.50000000  0.00000000  0.50000000  1
  Pd  Pd7  1  0.00000000  0.50000000  0.00000000  1
  S  S0  1  0.19352726  0.30752983  0.77156310  1
  S  S1  1  0.69247017  0.19352726  0.27156310  1
  S  S2  1  0.30752983  0.80647274  0.27156310  1
  S  S3  1  0.80647274  0.69247017  0.77156310  1
  S  S4  1  0.80647274  0.69247017  0.22843690  1
  S  S5  1  0.30752983  0.80647274  0.72843690  1
  S  S6  1  0.69247017  0.19352726  0.72843690  1
  S  S7  1  0.19352726  0.30752983  0.22843690  1
loop_
_geom_bond_atom_site_label_1
_geom_bond_atom_site_label_2
_geom_bond_distance
_geom_bond_site_symmetry_2
Pd0 S2 2.346998 1_555
Pd0 S5 2.346998 1_554
Pd0 S4 2.362980 1_555
Pd0 S3 2.362980 1_554
Pd1 S0 2.346998 1_555
Pd1 S7 2.346998 1_555
Pd1 S5 2.362980 1_555
Pd1 S2 2.362980 1_555
Pd2 S3 2.346998 1_555
Pd2 S4 2.346998 1_555
Pd2 S6 2.362980 1_555
Pd2 S1 2.362980 1_555
Pd3 S1 2.346998 1_555
Pd3 S6 2.346998 1_554
Pd3 S7 2.362980 1_555
Pd3 S0 2.362980 1_554
Pd4 S3 2.356066 1_445
Pd4 S0 2.356066 1_555
Pd4 S6 2.356066 1_455
Pd4 S5 2.356066 1_545
Pd5 S2 2.356066 1_545
Pd5 S7 2.356066 1_555
Pd5 S1 2.356066 1_455
Pd5 S4 2.356066 1_445
Pd6 S6 2.327729 1_555
Pd6 S5 2.327729 1_545
Pd6 S2 2.327729 1_545
Pd6 S1 2.327729 1_555
Pd7 S4 2.327729 1_455
Pd7 S7 2.327729 1_555
Pd7 S3 2.327729 1_454
Pd7 S0 2.327729 1_554
