# generated using pymatgen
data_LiFe(PO3)4
_symmetry_space_group_name_H-M   'P 1'
_cell_length_a   9.09949700
_cell_length_b   9.49402000
_cell_length_c   10.50089900
_cell_angle_alpha   90.00000000
_cell_angle_beta   90.00000000
_cell_angle_gamma   90.00000000
_symmetry_Int_Tables_number   1
_chemical_formula_structural   LiFe(PO3)4
_chemical_formula_sum   'Li4 Fe4 P16 O48'
_cell_volume   907.18113367
_cell_formula_units_Z   4
loop_
 _symmetry_equiv_pos_site_id
 _symmetry_equiv_pos_as_xyz
  1  'x, y, z'
loop_
 _atom_site_type_symbol
 _atom_site_label
 _atom_site_symmetry_multiplicity
 _atom_site_fract_x
 _atom_site_fract_y
 _atom_site_fract_z
 _atom_site_occupancy
  Li  Li0  1  0.85304400  0.75220600  0.30993600  1
  Li  Li1  1  0.35304400  0.74779400  0.69006400  1
  Li  Li2  1  0.14695600  0.25220600  0.19006400  1
  Li  Li3  1  0.64695600  0.24779400  0.80993600  1
  Fe  Fe0  1  0.49879900  0.73739800  0.28621000  1
  Fe  Fe1  1  0.00120100  0.26260200  0.78621000  1
  Fe  Fe2  1  0.50120100  0.23739800  0.21379000  1
  Fe  Fe3  1  0.99879900  0.76260200  0.71379000  1
  P  P0  1  0.50045500  0.51575800  0.01764600  1
  P  P1  1  0.79695800  0.53068800  0.89428800  1
  P  P2  1  0.99954500  0.48424200  0.51764600  1
  P  P3  1  0.19712100  0.54386200  0.88868100  1
  P  P4  1  0.50516300  0.95098700  0.88730200  1
  P  P5  1  0.69712100  0.95613800  0.11131900  1
  P  P6  1  0.29695800  0.96931200  0.10571200  1
  P  P7  1  0.00045500  0.98424200  0.98235400  1
  P  P8  1  0.49954500  0.01575800  0.48235400  1
  P  P9  1  0.20304200  0.03068800  0.60571200  1
  P  P10  1  0.80287900  0.04386200  0.61131900  1
  P  P11  1  0.99483700  0.04901300  0.38730200  1
  P  P12  1  0.49483700  0.45098700  0.61269800  1
  P  P13  1  0.30287900  0.45613800  0.38868100  1
  P  P14  1  0.70304200  0.46931200  0.39428800  1
  P  P15  1  0.00516300  0.54901300  0.11269800  1
  O  O0  1  0.87459100  0.11372400  0.48916900  1
  O  O1  1  0.99201700  0.63714400  0.55591800  1
  O  O2  1  0.85029300  0.63421900  0.79606100  1
  O  O3  1  0.99576900  0.64995100  0.21938800  1
  O  O4  1  0.49576900  0.85004900  0.78061200  1
  O  O5  1  0.67819300  0.85251800  0.22054200  1
  O  O6  1  0.35029300  0.86578100  0.20393900  1
  O  O7  1  0.49201700  0.86285600  0.44408200  1
  O  O8  1  0.00076500  0.87657200  0.87795100  1
  O  O9  1  0.17484000  0.87643700  0.63747500  1
  O  O10  1  0.62540900  0.88627600  0.98916900  1
  O  O11  1  0.85544100  0.89591900  0.63601500  1
  O  O12  1  0.96649500  0.89687300  0.37307400  1
  O  O13  1  0.35252000  0.92794300  0.96826200  1
  O  O14  1  0.12488900  0.94820000  0.08622900  1
  O  O15  1  0.86639400  0.95709500  0.07731500  1
  O  O16  1  0.63360600  0.04290500  0.57731500  1
  O  O17  1  0.37511100  0.05180000  0.58622900  1
  O  O18  1  0.14748000  0.07205700  0.46826200  1
  O  O19  1  0.53350500  0.10312700  0.87307400  1
  O  O20  1  0.64455900  0.10408100  0.13601500  1
  O  O21  1  0.17819300  0.64748200  0.77945800  1
  O  O22  1  0.32516000  0.12356300  0.13747500  1
  O  O23  1  0.49923500  0.12342800  0.37795100  1
  O  O24  1  0.00798300  0.13714400  0.94408200  1
  O  O25  1  0.14970700  0.13421900  0.70393900  1
  O  O26  1  0.82180700  0.14748200  0.72054200  1
  O  O27  1  0.00423100  0.14995100  0.28061200  1
  O  O28  1  0.50423100  0.35004900  0.71938800  1
  O  O29  1  0.32180700  0.35251800  0.27945800  1
  O  O30  1  0.64970700  0.36578100  0.29606100  1
  O  O31  1  0.50798300  0.36285600  0.05591800  1
  O  O32  1  0.99923500  0.37657200  0.62204900  1
  O  O33  1  0.82516000  0.37643700  0.86252500  1
  O  O34  1  0.37459100  0.38627600  0.51083100  1
  O  O35  1  0.14455900  0.39591900  0.86398500  1
  O  O36  1  0.03350500  0.39687300  0.12692600  1
  O  O37  1  0.64748000  0.42794300  0.53173800  1
  O  O38  1  0.87511100  0.44820000  0.41377100  1
  O  O39  1  0.13360600  0.45709500  0.42268500  1
  O  O40  1  0.36639400  0.54290500  0.92268500  1
  O  O41  1  0.62488900  0.55180000  0.91377100  1
  O  O42  1  0.85252000  0.57205700  0.03173800  1
  O  O43  1  0.46649500  0.60312700  0.62692600  1
  O  O44  1  0.35544100  0.60408100  0.36398500  1
  O  O45  1  0.50076500  0.62342800  0.12204900  1
  O  O46  1  0.67484000  0.62356300  0.36252500  1
  O  O47  1  0.12540900  0.61372400  0.01083100  1
loop_
_geom_bond_atom_site_label_1
_geom_bond_atom_site_label_2
_geom_bond_distance
_geom_bond_site_symmetry_2
Li0 O12 1.841668 1_555
Li0 O3 1.879694 1_555
Li0 O5 2.078376 1_555
Li0 O46 2.103832 1_555
Li1 O43 1.841668 1_555
Li1 O4 1.879694 1_555
Li1 O21 2.078376 1_555
Li1 O9 2.103832 1_555
Li2 O36 1.841668 1_555
Li2 O27 1.879694 1_555
Li2 O29 2.078376 1_555
Li2 O22 2.103832 1_555
Li3 O19 1.841668 1_555
Li3 O28 1.879694 1_555
Li3 O26 2.078376 1_555
Li3 O33 2.103832 1_555
Fe0 O44 1.992668 1_555
Fe0 O6 2.014471 1_555
Fe0 O45 2.035371 1_555
Fe0 O7 2.042259 1_555
Fe0 O5 2.082011 1_555
Fe0 O46 2.091952 1_555
Fe1 O35 1.992668 1_555
Fe1 O25 2.014471 1_555
Fe1 O32 2.035371 1_455
Fe1 O24 2.042259 1_555
Fe1 O26 2.082011 1_455
Fe1 O33 2.091952 1_455
Fe2 O20 1.992668 1_555
Fe2 O30 2.014471 1_555
Fe2 O23 2.035371 1_555
Fe2 O31 2.042259 1_555
Fe2 O29 2.082011 1_555
Fe2 O22 2.091952 1_555
Fe3 O11 1.992668 1_555
Fe3 O2 2.014471 1_555
Fe3 O8 2.035371 1_655
Fe3 O1 2.042259 1_555
Fe3 O21 2.082011 1_655
Fe3 O9 2.091952 1_655
O0 P10 1.584620 1_555
O0 P11 1.648915 1_555
O1 P2 1.507816 1_555
O2 P1 1.505196 1_555
O3 P15 1.476761 1_655
O4 P4 1.476761 1_555
O5 P5 1.520835 1_555
O6 P6 1.505196 1_555
O7 P8 1.507816 1_565
O8 P7 1.498957 1_555
O9 P9 1.523730 1_565
O10 P5 1.584620 1_556
O10 P4 1.648915 1_555
O11 P10 1.506267 1_565
O12 P11 1.474850 1_565
O13 P6 1.578965 1_556
O13 P4 1.643130 1_555
O14 P6 1.591722 1_555
O14 P7 1.609026 1_554
O15 P5 1.581172 1_555
O15 P7 1.596531 1_654
O16 P10 1.581172 1_555
O16 P8 1.596531 1_555
O17 P9 1.591722 1_555
O17 P8 1.609026 1_555
O18 P9 1.578965 1_555
O18 P11 1.643130 1_455
O19 P4 1.474850 1_545
O20 P5 1.506267 1_545
O21 P3 1.520835 1_555
O22 P6 1.523730 1_545
O23 P8 1.498957 1_555
O24 P7 1.507816 1_545
O25 P9 1.505196 1_555
O26 P10 1.520835 1_555
O27 P11 1.476761 1_455
O28 P12 1.476761 1_555
O29 P13 1.520835 1_555
O30 P14 1.505196 1_555
O31 P0 1.507816 1_555
O32 P2 1.498957 1_555
O33 P1 1.523730 1_555
O34 P13 1.584620 1_555
O34 P12 1.648915 1_555
O35 P3 1.506267 1_555
O36 P15 1.474850 1_555
O37 P14 1.578965 1_555
O37 P12 1.643130 1_555
O38 P14 1.591722 1_555
O38 P2 1.609026 1_555
O39 P13 1.581172 1_555
O39 P2 1.596531 1_455
O40 P3 1.581172 1_555
O40 P0 1.596531 1_556
O41 P1 1.591722 1_555
O41 P0 1.609026 1_556
O42 P1 1.578965 1_554
O42 P15 1.643130 1_655
O43 P12 1.474850 1_555
O44 P13 1.506267 1_555
O45 P0 1.498957 1_555
O46 P14 1.523730 1_555
O47 P3 1.584620 1_554
O47 P15 1.648915 1_555
