# generated using pymatgen
data_Ba2LuMgSbO6
_symmetry_space_group_name_H-M   'P 1'
_cell_length_a   6.55539637
_cell_length_b   6.21998843
_cell_length_c   6.55539637
_cell_angle_alpha   61.67856806
_cell_angle_beta   55.19093885
_cell_angle_gamma   61.67856806
_symmetry_Int_Tables_number   1
_chemical_formula_structural   Ba2LuMgSbO6
_chemical_formula_sum   'Ba2 Lu1 Mg1 Sb1 O6'
_cell_volume   185.37021543
_cell_formula_units_Z   1
loop_
 _symmetry_equiv_pos_site_id
 _symmetry_equiv_pos_as_xyz
  1  'x, y, z'
loop_
 _atom_site_type_symbol
 _atom_site_label
 _atom_site_symmetry_multiplicity
 _atom_site_fract_x
 _atom_site_fract_y
 _atom_site_fract_z
 _atom_site_occupancy
  Ba  Ba0  1  0.30672400  0.19327600  0.30672400  1
  Ba  Ba1  1  0.69327600  0.80672400  0.69327600  1
  Lu  Lu0  1  0.50000000  0.50000000  0.50000000  1
  Mg  Mg0  1  0.00000000  0.50000000  0.00000000  1
  Sb  Sb0  1  0.00000000  0.00000000  0.00000000  1
  O  O0  1  0.76212800  0.26949400  0.23787200  1
  O  O1  1  0.73898300  0.26101700  0.73898300  1
  O  O2  1  0.76212800  0.73050600  0.23787200  1
  O  O3  1  0.23787200  0.73050600  0.76212800  1
  O  O4  1  0.26101700  0.73898300  0.26101700  1
  O  O5  1  0.23787200  0.26949400  0.76212800  1
loop_
_geom_bond_atom_site_label_1
_geom_bond_atom_site_label_2
_geom_bond_distance
_geom_bond_site_symmetry_2
Ba0 O2 2.990365 1_545
Ba0 O3 2.990365 1_545
Ba0 O0 2.990365 1_555
Ba0 O5 2.990365 1_555
Ba0 Mg0 3.010276 1_555
Ba0 O1 3.108556 1_455
Ba0 O1 3.108556 1_554
Ba0 O4 3.142179 1_555
Ba0 O4 3.142179 1_545
Ba1 O5 2.990365 1_565
Ba1 O0 2.990365 1_565
Ba1 O2 2.990365 1_555
Ba1 O3 2.990365 1_555
Ba1 Mg0 3.010276 1_656
Ba1 O4 3.108556 1_556
Ba1 O4 3.108556 1_655
Ba1 O1 3.142179 1_555
Ba1 O1 3.142179 1_565
Lu0 O2 2.142428 1_555
Lu0 O5 2.142428 1_555
Lu0 O0 2.142428 1_555
Lu0 O3 2.142428 1_555
Lu0 O1 2.345447 1_555
Lu0 O4 2.345447 1_555
Mg0 O5 2.035353 1_554
Mg0 O2 2.035353 1_455
Mg0 O3 2.035353 1_554
Mg0 O0 2.035353 1_455
O0 Sb0 2.212883 1_655
O1 Sb0 2.561694 1_656
O2 Sb0 2.212883 1_665
O3 Sb0 2.212883 1_566
O4 Sb0 2.561694 1_565
O5 Sb0 2.212883 1_556
