# generated using pymatgen
data_MgV(CO3)2
_symmetry_space_group_name_H-M   'P 1'
_cell_length_a   4.74904895
_cell_length_b   5.79576893
_cell_length_c   4.74934860
_cell_angle_alpha   65.81455072
_cell_angle_beta   119.99797697
_cell_angle_gamma   114.18367531
_symmetry_Int_Tables_number   1
_chemical_formula_structural   MgV(CO3)2
_chemical_formula_sum   'Mg1 V1 C2 O6'
_cell_volume   99.74294996
_cell_formula_units_Z   1
loop_
 _symmetry_equiv_pos_site_id
 _symmetry_equiv_pos_as_xyz
  1  'x, y, z'
loop_
 _atom_site_type_symbol
 _atom_site_label
 _atom_site_symmetry_multiplicity
 _atom_site_fract_x
 _atom_site_fract_y
 _atom_site_fract_z
 _atom_site_occupancy
  Mg  Mg0  1  0.00000000  0.00000000  0.00000000  1
  V  V0  1  0.50000000  0.50000000  0.50000000  1
  C  C0  1  0.25199300  0.75588500  0.74812700  1
  C  C1  1  0.74800700  0.24411500  0.25187300  1
  O  O0  1  0.01694900  0.24498300  0.24265500  1
  O  O1  1  0.52918100  0.75502800  0.01690100  1
  O  O2  1  0.24271400  0.75501600  0.47084400  1
  O  O3  1  0.75728600  0.24498400  0.52915600  1
  O  O4  1  0.47081900  0.24497200  0.98309900  1
  O  O5  1  0.98305100  0.75501700  0.75734500  1
loop_
_geom_bond_atom_site_label_1
_geom_bond_atom_site_label_2
_geom_bond_distance
_geom_bond_site_symmetry_2
Mg0 O0 2.122505 1_555
Mg0 O5 2.122505 1_444
Mg0 O4 2.122916 1_554
Mg0 O1 2.122916 1_445
Mg0 O3 2.123001 1_454
Mg0 O2 2.123001 1_545
C0 O1 1.297012 1_556
C0 O2 1.297480 1_555
C0 O5 1.297574 1_455
C1 O4 1.297012 1_554
C1 O3 1.297480 1_555
C1 O0 1.297574 1_655
O0 V0 2.199879 1_555
O1 V0 2.199899 1_555
O2 V0 2.199867 1_555
O3 V0 2.199867 1_555
O4 V0 2.199899 1_555
O5 V0 2.199879 1_555
