# generated using pymatgen
data_Eu2CuO4
_symmetry_space_group_name_H-M   'P 1'
_cell_length_a   3.88889723
_cell_length_b   3.88890524
_cell_length_c   6.60426711
_cell_angle_alpha   107.11700552
_cell_angle_beta   107.11665700
_cell_angle_gamma   89.99770968
_symmetry_Int_Tables_number   1
_chemical_formula_structural   Eu2CuO4
_chemical_formula_sum   'Eu2 Cu1 O4'
_cell_volume   90.81705795
_cell_formula_units_Z   1
loop_
 _symmetry_equiv_pos_site_id
 _symmetry_equiv_pos_as_xyz
  1  'x, y, z'
loop_
 _atom_site_type_symbol
 _atom_site_label
 _atom_site_symmetry_multiplicity
 _atom_site_fract_x
 _atom_site_fract_y
 _atom_site_fract_z
 _atom_site_occupancy
  Eu  Eu0  1  0.64774752  0.64774881  0.29550891  1
  Eu  Eu1  1  0.35224860  0.35224732  0.70448174  1
  Cu  Cu0  1  0.00000234  0.00000247  0.00000932  1
  O  O0  1  0.24998628  0.75000462  0.49998974  1
  O  O1  1  0.75000366  0.24998531  0.49998850  1
  O  O2  1  0.00000581  0.50000564  0.00001090  1
  O  O3  1  0.50000579  0.00000582  0.00001089  1
loop_
_geom_bond_atom_site_label_1
_geom_bond_atom_site_label_2
_geom_bond_distance
_geom_bond_site_symmetry_2
Eu0 O0 2.299577 1_555
Eu0 O1 2.299588 1_555
Eu0 O1 2.299820 1_565
Eu0 O0 2.299832 1_655
Eu0 O2 2.632269 1_655
Eu0 O3 2.632276 1_565
Eu0 O3 2.632563 1_555
Eu0 O2 2.632564 1_555
Eu1 O1 2.299617 1_555
Eu1 O0 2.299627 1_555
Eu1 O0 2.299860 1_545
Eu1 O1 2.299872 1_455
Eu1 O2 2.632396 1_556
Eu1 O3 2.632402 1_556
Eu1 O3 2.632689 1_566
Eu1 O2 2.632690 1_656
Cu0 O3 1.944438 1_455
Cu0 O2 1.944443 1_545
Cu0 O3 1.944459 1_555
Cu0 O2 1.944462 1_555
