# generated using pymatgen
data_KTh6F25
_symmetry_space_group_name_H-M   'P 1'
_cell_length_a   9.70641796
_cell_length_b   9.70641796
_cell_length_c   9.70641854
_cell_angle_alpha   50.59545690
_cell_angle_beta   50.59545690
_cell_angle_gamma   50.59546466
_symmetry_Int_Tables_number   1
_chemical_formula_structural   KTh6F25
_chemical_formula_sum   'K1 Th6 F25'
_cell_volume   503.14209579
_cell_formula_units_Z   1
loop_
 _symmetry_equiv_pos_site_id
 _symmetry_equiv_pos_as_xyz
  1  'x, y, z'
loop_
 _atom_site_type_symbol
 _atom_site_label
 _atom_site_symmetry_multiplicity
 _atom_site_fract_x
 _atom_site_fract_y
 _atom_site_fract_z
 _atom_site_occupancy
  K  K0  1  -0.00000000  0.00000000  -0.00000000  1
  Th  Th0  1  0.90924971  0.40821262  0.40821262  1
  Th  Th1  1  0.40821262  0.90924971  0.40821262  1
  Th  Th2  1  0.59178738  0.09075029  0.59178738  1
  Th  Th3  1  0.59178738  0.59178738  0.09075029  1
  Th  Th4  1  0.09075029  0.59178738  0.59178738  1
  Th  Th5  1  0.40821262  0.40821262  0.90924971  1
  F  F0  1  0.25193787  0.25193787  0.68892965  1
  F  F1  1  0.68892965  0.25193787  0.25193787  1
  F  F2  1  0.25193787  0.68892965  0.25193787  1
  F  F3  1  0.74806213  0.31107035  0.74806213  1
  F  F4  1  0.74806213  0.74806213  0.31107035  1
  F  F5  1  0.31107035  0.74806213  0.74806213  1
  F  F6  1  0.54959057  0.54959057  0.54959057  1
  F  F7  1  0.50000000  0.50000000  -0.00000000  1
  F  F8  1  0.50000000  0.00000000  0.50000000  1
  F  F9  1  -0.00000000  0.50000000  0.50000000  1
  F  F10  1  0.55420765  0.12662825  0.12662825  1
  F  F11  1  0.12662825  0.12662825  0.55420765  1
  F  F12  1  0.12662825  0.55420765  0.12662825  1
  F  F13  1  0.87337175  0.44579235  0.87337175  1
  F  F14  1  0.44579235  0.87337175  0.87337175  1
  F  F15  1  0.87337175  0.87337175  0.44579235  1
  F  F16  1  0.17624055  0.82375945  0.50000000  1
  F  F17  1  0.82375945  0.50000000  0.17624055  1
  F  F18  1  0.50000000  0.17624055  0.82375945  1
  F  F19  1  0.82375945  0.17624055  0.50000000  1
  F  F20  1  0.17624055  0.50000000  0.82375945  1
  F  F21  1  0.50000000  0.82375945  0.17624055  1
  F  F22  1  0.21040246  0.21040246  0.21040246  1
  F  F23  1  0.78959754  0.78959754  0.78959754  1
  F  F24  1  0.45040943  0.45040943  0.45040943  1
loop_
_geom_bond_atom_site_label_1
_geom_bond_atom_site_label_2
_geom_bond_distance
_geom_bond_site_symmetry_2
F0 Th4 2.364348 1_555
F0 Th2 2.364348 1_555
F0 K0 3.149706 1_556
F1 Th2 2.364348 1_555
F1 Th3 2.364348 1_555
F1 K0 3.149707 1_655
F2 Th4 2.364348 1_555
F2 Th3 2.364348 1_555
F2 K0 3.149707 1_565
F3 Th0 2.364348 1_555
F3 Th5 2.364348 1_555
F3 K0 3.149707 1_656
F4 Th1 2.364348 1_555
F4 Th0 2.364348 1_555
F4 K0 3.149706 1_665
F5 Th1 2.364348 1_555
F5 Th5 2.364348 1_555
F5 K0 3.149707 1_566
F6 Th5 2.485961 1_555
F6 Th1 2.485961 1_555
F6 Th0 2.485961 1_555
F7 Th5 2.315997 1_554
F7 Th3 2.315997 1_555
F8 Th2 2.315997 1_555
F8 Th1 2.315997 1_545
F9 Th4 2.315997 1_555
F9 Th0 2.315997 1_455
F10 Th1 2.342553 1_545
F10 Th5 2.342553 1_554
F10 K0 3.187224 1_655
F11 Th0 2.342553 1_455
F11 Th1 2.342553 1_545
F11 K0 3.187224 1_556
F12 Th0 2.342553 1_455
F12 Th5 2.342553 1_554
F12 K0 3.187224 1_565
F13 Th4 2.342553 1_655
F13 Th3 2.342553 1_556
F13 K0 3.187224 1_656
F14 Th2 2.342553 1_565
F14 Th3 2.342553 1_556
F14 K0 3.187224 1_566
F15 Th4 2.342553 1_655
F15 Th2 2.342553 1_565
F15 K0 3.187224 1_665
F16 Th1 2.332120 1_555
F16 Th4 2.332120 1_555
F17 Th3 2.332121 1_555
F17 Th0 2.332121 1_555
F18 Th5 2.332121 1_555
F18 Th2 2.332121 1_555
F19 Th0 2.332120 1_555
F19 Th2 2.332120 1_555
F20 Th5 2.332121 1_555
F20 Th4 2.332121 1_555
F21 Th3 2.332121 1_555
F21 Th1 2.332121 1_555
F22 Th5 2.519318 1_554
F22 Th0 2.519319 1_455
F22 Th1 2.519319 1_545
F23 Th3 2.519318 1_556
F23 Th2 2.519319 1_565
F23 Th4 2.519319 1_655
F24 Th3 2.485961 1_555
F24 Th2 2.485961 1_555
F24 Th4 2.485961 1_555
