# generated using pymatgen
data_RbSr2MgNb3O10
_symmetry_space_group_name_H-M   'P 1'
_cell_length_a   4.06634019
_cell_length_b   4.06634019
_cell_length_c   16.10127119
_cell_angle_alpha   90.00000000
_cell_angle_beta   90.00000000
_cell_angle_gamma   90.00000000
_symmetry_Int_Tables_number   1
_chemical_formula_structural   RbSr2MgNb3O10
_chemical_formula_sum   'Rb1 Sr2 Mg1 Nb3 O10'
_cell_volume   266.23649219
_cell_formula_units_Z   1
loop_
 _symmetry_equiv_pos_site_id
 _symmetry_equiv_pos_as_xyz
  1  'x, y, z'
loop_
 _atom_site_type_symbol
 _atom_site_label
 _atom_site_symmetry_multiplicity
 _atom_site_fract_x
 _atom_site_fract_y
 _atom_site_fract_z
 _atom_site_occupancy
  Rb  Rb0  1  0.50000000  0.50000000  0.43307855  1
  Sr  Sr0  1  0.50000000  0.50000000  0.14761989  1
  Sr  Sr1  1  0.50000000  0.50000000  0.88859029  1
  Mg  Mg0  1  0.50000000  0.50000000  0.67246304  1
  Nb  Nb0  1  -0.00000000  -0.00000000  0.00444114  1
  Nb  Nb1  1  -0.00000000  0.00000000  0.27137923  1
  Nb  Nb2  1  0.00000000  -0.00000000  0.73854127  1
  O  O0  1  0.00000000  -0.00000000  0.62181571  1
  O  O1  1  -0.00000000  0.00000000  0.38466705  1
  O  O2  1  0.50000000  -0.00000000  0.74378618  1
  O  O3  1  0.00000000  0.50000000  0.74378618  1
  O  O4  1  0.50000000  0.00000000  0.24991780  1
  O  O5  1  -0.00000000  0.50000000  0.24991780  1
  O  O6  1  -0.00000000  0.50000000  0.99799329  1
  O  O7  1  0.50000000  0.00000000  0.99799329  1
  O  O8  1  -0.00000000  -0.00000000  0.12581917  1
  O  O9  1  0.00000000  0.00000000  0.87402312  1
loop_
_geom_bond_atom_site_label_1
_geom_bond_atom_site_label_2
_geom_bond_distance
_geom_bond_site_symmetry_2
Mg0 O3 2.335078 1_655
Mg0 O2 2.335078 1_565
Mg0 O2 2.335078 1_555
Mg0 O3 2.335078 1_555
Nb0 O8 1.954341 1_555
Nb0 O7 2.035819 1_454
Nb0 O6 2.035819 1_554
Nb0 O6 2.035819 1_544
Nb0 O7 2.035819 1_554
Nb0 O9 2.099896 1_554
Nb1 O1 1.824078 1_555
Nb1 O4 2.062326 1_455
Nb1 O4 2.062326 1_555
Nb1 O5 2.062326 1_555
Nb1 O5 2.062326 1_545
Nb1 O8 2.343702 1_555
Nb2 O0 1.879430 1_555
Nb2 O2 2.034923 1_455
Nb2 O2 2.034923 1_555
Nb2 O3 2.034923 1_555
Nb2 O3 2.034923 1_545
Nb2 O9 2.181430 1_555
O1 Rb0 2.979121 1_455
O1 Rb0 2.979121 1_555
O1 Rb0 2.979121 1_545
O1 Rb0 2.979121 1_445
O2 Sr1 3.093512 1_545
O2 Sr1 3.093512 1_555
O3 Sr1 3.093512 1_455
O3 Sr1 3.093512 1_555
O4 Sr0 2.616640 1_555
O4 Sr0 2.616640 1_545
O5 Sr0 2.616640 1_555
O5 Sr0 2.616640 1_455
O6 Sr1 2.690123 1_555
O6 Sr1 2.690123 1_455
O6 Sr0 3.152447 1_556
O6 Sr0 3.152447 1_456
O7 Sr1 2.690123 1_555
O7 Sr1 2.690123 1_545
O7 Sr0 3.152447 1_556
O7 Sr0 3.152447 1_546
O8 Sr0 2.896684 1_445
O8 Sr0 2.896684 1_545
O8 Sr0 2.896684 1_455
O8 Sr0 2.896684 1_555
O9 Sr1 2.884887 1_455
O9 Sr1 2.884887 1_555
O9 Sr1 2.884887 1_445
O9 Sr1 2.884887 1_545
