# generated using pymatgen
data_FeBPbO4
_symmetry_space_group_name_H-M   'P 1'
_cell_length_a   5.97344817
_cell_length_b   7.00442633
_cell_length_c   8.41793253
_cell_angle_alpha   90.00000000
_cell_angle_beta   90.00000000
_cell_angle_gamma   90.00000000
_symmetry_Int_Tables_number   1
_chemical_formula_structural   FeBPbO4
_chemical_formula_sum   'Fe4 B4 Pb4 O16'
_cell_volume   352.21115961
_cell_formula_units_Z   4
loop_
 _symmetry_equiv_pos_site_id
 _symmetry_equiv_pos_as_xyz
  1  'x, y, z'
loop_
 _atom_site_type_symbol
 _atom_site_label
 _atom_site_symmetry_multiplicity
 _atom_site_fract_x
 _atom_site_fract_y
 _atom_site_fract_z
 _atom_site_occupancy
  Fe  Fe0  1  0.00000000  0.50000000  0.50000000  1
  Fe  Fe1  1  0.50000000  0.50000000  0.50000000  1
  Fe  Fe2  1  0.50000000  -0.00000000  0.00000000  1
  Fe  Fe3  1  0.00000000  -0.00000000  0.00000000  1
  B  B0  1  0.25000000  0.77919529  0.73384658  1
  B  B1  1  0.25000000  0.27919529  0.76615342  1
  B  B2  1  0.75000000  0.72080471  0.23384658  1
  B  B3  1  0.75000000  0.22080471  0.26615342  1
  Pb  Pb0  1  0.25000000  0.55954583  0.14432073  1
  Pb  Pb1  1  0.75000000  0.44045417  0.85567927  1
  Pb  Pb2  1  0.25000000  0.05954583  0.35567927  1
  Pb  Pb3  1  0.75000000  0.94045417  0.64432073  1
  O  O0  1  0.04994681  0.33000858  0.69514386  1
  O  O1  1  0.54994681  0.66999142  0.30485614  1
  O  O2  1  0.45005319  0.83000858  0.80485614  1
  O  O3  1  0.95005319  0.16999142  0.19514386  1
  O  O4  1  0.25000000  0.18216615  0.90927284  1
  O  O5  1  0.75000000  0.31783385  0.40927284  1
  O  O6  1  0.75000000  0.81783385  0.09072716  1
  O  O7  1  0.25000000  0.68216615  0.59072716  1
  O  O8  1  0.25000000  0.89312161  0.11598683  1
  O  O9  1  0.75000000  0.10687839  0.88401317  1
  O  O10  1  0.25000000  0.39312161  0.38401317  1
  O  O11  1  0.75000000  0.60687839  0.61598683  1
  O  O12  1  0.04994681  0.83000858  0.80485614  1
  O  O13  1  0.54994681  0.16999142  0.19514386  1
  O  O14  1  0.45005319  0.33000858  0.69514386  1
  O  O15  1  0.95005319  0.66999142  0.30485614  1
loop_
_geom_bond_atom_site_label_1
_geom_bond_atom_site_label_2
_geom_bond_distance
_geom_bond_site_symmetry_2
Fe0 O11 1.934906 1_455
Fe0 O10 1.934906 1_555
Fe0 O0 2.050671 1_555
Fe0 O15 2.050671 1_455
Fe0 O5 2.107491 1_455
Fe0 O7 2.107491 1_555
Fe1 O11 1.934906 1_555
Fe1 O10 1.934906 1_555
Fe1 O14 2.050671 1_555
Fe1 O1 2.050671 1_555
Fe1 O5 2.107491 1_555
Fe1 O7 2.107491 1_555
Fe2 O8 1.934906 1_545
Fe2 O9 1.934906 1_554
Fe2 O2 2.050671 1_544
Fe2 O13 2.050671 1_555
Fe2 O4 2.107491 1_554
Fe2 O6 2.107491 1_545
Fe3 O8 1.934906 1_545
Fe3 O9 1.934906 1_454
Fe3 O12 2.050671 1_544
Fe3 O3 2.050671 1_455
Fe3 O4 2.107491 1_554
Fe3 O6 2.107491 1_445
B0 O12 1.382762 1_555
B0 O2 1.382762 1_555
B0 O7 1.383247 1_555
B1 O14 1.382762 1_555
B1 O0 1.382762 1_555
B1 O4 1.383247 1_555
B2 O15 1.382762 1_555
B2 O1 1.382762 1_555
B2 O6 1.383247 1_555
B3 O3 1.382762 1_555
B3 O13 1.382762 1_555
B3 O5 1.383247 1_555
O0 Pb1 2.373802 1_455
O1 Pb0 2.373802 1_555
O2 Pb3 2.373802 1_555
O3 Pb2 2.373802 1_655
O8 Pb2 2.330245 1_565
O8 Pb0 2.348649 1_555
O9 Pb3 2.330245 1_545
O9 Pb1 2.348649 1_555
O10 Pb0 2.330245 1_555
O10 Pb2 2.348649 1_555
O11 Pb1 2.330245 1_555
O11 Pb3 2.348649 1_555
O12 Pb3 2.373802 1_455
O13 Pb2 2.373802 1_555
O14 Pb1 2.373802 1_555
O15 Pb0 2.373802 1_655
