# generated using pymatgen
data_Na2La2Nb2Si3(SO8)3
_symmetry_space_group_name_H-M   'P 1'
_cell_length_a   9.30355356
_cell_length_b   9.32284258
_cell_length_c   23.81455179
_cell_angle_alpha   92.54607270
_cell_angle_beta   89.99737381
_cell_angle_gamma   119.62586104
_symmetry_Int_Tables_number   1
_chemical_formula_structural   Na2La2Nb2Si3(SO8)3
_chemical_formula_sum   'Na6 La6 Nb6 Si9 S9 O72'
_cell_volume   1793.19702606
_cell_formula_units_Z   3
loop_
 _symmetry_equiv_pos_site_id
 _symmetry_equiv_pos_as_xyz
  1  'x, y, z'
loop_
 _atom_site_type_symbol
 _atom_site_label
 _atom_site_symmetry_multiplicity
 _atom_site_fract_x
 _atom_site_fract_y
 _atom_site_fract_z
 _atom_site_occupancy
  Na  Na0  1  0.97772278  0.97085570  0.49298093  1
  Na  Na1  1  0.02319430  0.99319708  0.00291046  1
  Na  Na2  1  0.63752226  0.30669013  0.82565648  1
  Na  Na3  1  0.66245663  0.29843937  0.32652343  1
  Na  Na4  1  0.30369728  0.65426118  0.17377203  1
  Na  Na5  1  0.35843962  0.65951755  0.65972375  1
  La  La0  1  0.99695418  0.00467325  0.35519771  1
  La  La1  1  0.01056201  0.00715199  0.85436834  1
  La  La2  1  0.65503310  0.33578855  0.68771001  1
  La  La3  1  0.68289458  0.33464381  0.18773784  1
  La  La4  1  0.32359273  0.67181012  0.02203938  1
  La  La5  1  0.34635767  0.67853756  0.52000942  1
  Nb  Nb0  1  0.98786023  0.01552246  0.64633926  1
  Nb  Nb1  1  0.00640956  0.98893307  0.15677683  1
  Nb  Nb2  1  0.66440540  0.33559756  0.98109442  1
  Nb  Nb3  1  0.68030493  0.35261667  0.47357904  1
  Nb  Nb4  1  0.30877165  0.68480927  0.31466626  1
  Nb  Nb5  1  0.35540701  0.69266055  0.80574619  1
  Si  Si0  1  0.29648432  0.99339808  0.25399001  1
  Si  Si1  1  0.02885243  0.31014231  0.25331092  1
  Si  Si2  1  0.28225970  0.30423842  0.75254335  1
  Si  Si3  1  0.70663093  0.99782803  0.75189188  1
  Si  Si4  1  0.68763024  0.63869006  0.58609839  1
  Si  Si5  1  0.94951926  0.64353556  0.08529698  1
  Si  Si6  1  0.35093642  0.96850336  0.91893433  1
  Si  Si7  1  0.61684263  0.96965349  0.41831359  1
  Si  Si8  1  0.02973360  0.66005126  0.41990558  1
  S  S0  1  0.68939658  0.72132876  0.24502473  1
  S  S1  1  0.02972986  0.71567880  0.74832950  1
  S  S2  1  0.95139977  0.31302244  0.58263437  1
  S  S3  1  0.34595441  0.04586577  0.58234854  1
  S  S4  1  0.69948626  0.05574089  0.07620418  1
  S  S5  1  0.36098150  0.30731852  0.08107028  1
  S  S6  1  0.61403264  0.63936465  0.91559513  1
  S  S7  1  0.01233706  0.37761980  0.91778983  1
  S  S8  1  0.36108314  0.38032954  0.41716970  1
  O  O0  1  0.21065319  0.00727749  0.30866996  1
  O  O1  1  0.77780938  0.78700043  0.29820542  1
  O  O2  1  0.99657637  0.20253629  0.30582307  1
  O  O3  1  0.20347447  0.19846086  0.80594822  1
  O  O4  1  0.00524825  0.77914887  0.80252252  1
  O  O5  1  0.79588366  0.99472254  0.80767562  1
  O  O6  1  0.80903593  0.97928237  0.69420053  1
  O  O7  1  0.15936886  0.19500037  0.69486477  1
  O  O8  1  0.04219237  0.81781725  0.70092257  1
  O  O9  1  0.80377821  0.82805539  0.19699963  1
  O  O10  1  0.03140337  0.18685075  0.19512856  1
  O  O11  1  0.16610659  0.96661425  0.19595971  1
  O  O12  1  0.88047641  0.33414575  0.63448539  1
  O  O13  1  0.44205630  0.11879810  0.63548780  1
  O  O14  1  0.68382171  0.54101454  0.63944670  1
  O  O15  1  0.85879447  0.54217316  0.13814990  1
  O  O16  1  0.66821836  0.11912161  0.12948747  1
  O  O17  1  0.45561051  0.33116959  0.13247816  1
  O  O18  1  0.45896396  0.29584079  0.02999374  1
  O  O19  1  0.82356589  0.52318023  0.02823955  1
  O  O20  1  0.69542098  0.16038253  0.02863043  1
  O  O21  1  0.43584367  0.13936665  0.53350924  1
  O  O22  1  0.69545163  0.52296581  0.52818802  1
  O  O23  1  0.84855671  0.29370505  0.53187053  1
  O  O24  1  0.53896465  0.65806027  0.96710578  1
  O  O25  1  0.10831592  0.45203120  0.97015395  1
  O  O26  1  0.34614867  0.86647833  0.97129768  1
  O  O27  1  0.54114855  0.86331697  0.47165638  1
  O  O28  1  0.34613532  0.45273044  0.47073059  1
  O  O29  1  0.12932865  0.65905291  0.47312622  1
  O  O30  1  0.12905457  0.64241964  0.36036436  1
  O  O31  1  0.48889193  0.85544899  0.36099041  1
  O  O32  1  0.37189107  0.47647968  0.36823708  1
  O  O33  1  0.09220969  0.47167583  0.86845174  1
  O  O34  1  0.36334174  0.85880511  0.86056057  1
  O  O35  1  0.51075894  0.62418445  0.86447400  1
  O  O36  1  0.98364631  0.80182490  0.41632582  1
  O  O37  1  0.80743033  0.02505170  0.41158061  1
  O  O38  1  0.23074436  0.20657867  0.41318547  1
  O  O39  1  0.97034361  0.20317719  0.91381592  1
  O  O40  1  0.20204318  0.00831915  0.91746525  1
  O  O41  1  0.78559131  0.77529466  0.91180471  1
  O  O42  1  0.95208497  0.14614183  0.58591315  1
  O  O43  1  0.18434532  0.04804315  0.58707316  1
  O  O44  1  0.86622873  0.82410985  0.59497560  1
  O  O45  1  0.95434731  0.82812995  0.09191999  1
  O  O46  1  0.86265925  0.06425505  0.07737618  1
  O  O47  1  0.19970581  0.14822635  0.08153725  1
  O  O48  1  0.66249127  0.14111268  0.74697903  1
  O  O49  1  0.47387967  0.35795312  0.74625593  1
  O  O50  1  0.90343738  0.54054480  0.74065522  1
  O  O51  1  0.65398239  0.55034831  0.23565147  1
  O  O52  1  0.88912431  0.36176470  0.24428942  1
  O  O53  1  0.48056758  0.13831056  0.24435534  1
  O  O54  1  0.61839108  0.47627427  0.91900688  1
  O  O55  1  0.84572527  0.37519708  0.92463467  1
  O  O56  1  0.52762965  0.15342799  0.92821179  1
  O  O57  1  0.61173795  0.14821874  0.42981995  1
  O  O58  1  0.52757113  0.37966542  0.41966588  1
  O  O59  1  0.84835898  0.47423778  0.42402357  1
  O  O60  1  0.33169306  0.44715631  0.07429899  1
  O  O61  1  0.13795600  0.68131715  0.08086933  1
  O  O62  1  0.56699230  0.88250311  0.06869488  1
  O  O63  1  0.30589337  0.87127505  0.57913980  1
  O  O64  1  0.53811169  0.67822268  0.58391051  1
  O  O65  1  0.12544116  0.44353315  0.57890631  1
  O  O66  1  0.29143682  0.80895754  0.25546205  1
  O  O67  1  0.53749490  0.73282231  0.24099582  1
  O  O68  1  0.21346062  0.48745824  0.26206523  1
  O  O69  1  0.28123537  0.48554015  0.76415464  1
  O  O70  1  0.19801755  0.71930203  0.75221241  1
  O  O71  1  0.52082239  0.81237424  0.75544846  1
loop_
_geom_bond_atom_site_label_1
_geom_bond_atom_site_label_2
_geom_bond_distance
_geom_bond_site_symmetry_2
Na0 O36 2.376779 1_555
Na0 O37 2.720649 1_565
Na0 O42 2.772972 1_565
Na0 O43 2.779151 1_665
Na0 O44 2.781987 1_555
Na1 O47 2.388530 1_565
Na1 O45 2.566486 1_455
Na1 O46 2.586109 1_465
Na1 O40 2.592752 1_564
Na1 O41 2.981581 1_454
Na2 O48 2.458654 1_555
Na2 O49 2.630904 1_555
Na2 O54 2.727514 1_555
Na2 O56 2.813764 1_555
Na2 O55 2.891289 1_555
Na3 O53 2.482825 1_555
Na3 O52 2.739033 1_555
Na3 O58 2.803294 1_555
Na3 O57 2.808566 1_555
Na3 O59 2.815769 1_555
Na4 O66 2.406440 1_555
Na4 O67 2.480259 1_555
Na4 O68 2.558099 1_555
Na4 O61 2.787587 1_555
Na5 O64 2.413255 1_555
Na5 O71 2.663283 1_555
Na5 O65 2.792557 1_555
Na5 O70 2.846506 1_555
Na5 O69 2.922009 1_555
Na5 O63 3.018291 1_555
La0 O2 2.232585 1_555
La0 O0 2.266182 1_655
La0 O37 2.292678 1_555
La0 O36 2.392475 1_545
La0 O1 2.404597 1_545
La0 O38 2.429542 1_655
La1 O3 2.179364 1_555
La1 O5 2.235828 1_445
La1 O40 2.326201 1_555
La1 O4 2.389176 1_545
La1 O39 2.435202 1_455
La1 O41 2.591051 1_445
La2 O14 2.177653 1_555
La2 O49 2.268390 1_555
La2 O13 2.319246 1_555
La2 O48 2.375530 1_555
La2 O50 2.449384 1_555
La2 O12 2.456791 1_555
La3 O15 2.210983 1_555
La3 O52 2.247068 1_555
La3 O16 2.336949 1_555
La3 O53 2.350359 1_555
La3 O51 2.397763 1_555
La3 O17 2.476477 1_555
La4 O26 2.148547 1_554
La4 O61 2.256896 1_555
La4 O25 2.335475 1_554
La4 O62 2.372633 1_555
La4 O24 2.445727 1_554
La4 O60 2.515703 1_555
La5 O27 2.160397 1_555
La5 O29 2.230710 1_555
La5 O64 2.346118 1_555
La5 O28 2.363292 1_555
La5 O63 2.407756 1_555
La5 O65 2.610069 1_555
Nb0 O6 1.912980 1_545
Nb0 O44 1.941892 1_545
Nb0 O7 1.967229 1_655
Nb0 O42 2.054486 1_555
Nb0 O43 2.217073 1_655
Nb0 O8 2.544906 1_645
Nb1 O11 1.855933 1_555
Nb1 O10 1.928455 1_565
Nb1 O45 1.985970 1_455
Nb1 O9 2.013217 1_455
Nb1 O47 2.499143 1_565
Nb1 O46 2.627523 1_465
Nb2 O56 1.939874 1_555
Nb2 O19 1.943451 1_556
Nb2 O55 2.053781 1_555
Nb2 O18 2.117645 1_556
Nb2 O20 2.159506 1_556
Nb2 O54 2.194760 1_555
Nb3 O59 1.867863 1_555
Nb3 O57 1.935439 1_555
Nb3 O22 1.956673 1_555
Nb3 O58 2.028394 1_555
Nb3 O23 2.365779 1_555
Nb3 O21 2.635062 1_555
Nb4 O30 1.876408 1_555
Nb4 O66 1.919127 1_555
Nb4 O31 1.940249 1_555
Nb4 O68 1.980645 1_555
Nb4 O67 2.633292 1_555
Nb5 O71 1.862590 1_555
Nb5 O69 1.923169 1_555
Nb5 O34 1.953458 1_555
Nb5 O70 2.054023 1_555
Nb5 O35 2.333295 1_555
Nb5 O33 2.784922 1_555
O0 Si0 1.561141 1_545
O1 S0 1.445235 1_555
O2 Si1 1.572911 1_655
O3 Si2 1.588699 1_555
O4 S1 1.460475 1_555
O5 Si3 1.575580 1_555
O6 Si3 1.722442 1_555
O7 Si2 1.719237 1_555
O8 S1 1.476854 1_555
O9 S0 1.576276 1_555
O10 Si1 1.768352 1_555
O11 Si0 1.764521 1_555
O12 S2 1.451107 1_555
O13 S3 1.478442 1_555
O14 Si4 1.586013 1_555
O15 Si5 1.583248 1_555
O16 S4 1.465339 1_555
O17 S5 1.451101 1_555
O18 S5 1.551372 1_555
O19 Si5 1.744486 1_555
O20 S4 1.539933 1_555
O21 S3 1.476909 1_555
O22 Si4 1.736846 1_555
O23 S2 1.489898 1_555
O24 S6 1.457469 1_555
O25 S7 1.464407 1_555
O26 Si6 1.589093 1_555
O27 Si7 1.585576 1_555
O28 S8 1.455407 1_555
O29 Si8 1.573118 1_555
O30 Si8 1.738040 1_555
O31 Si7 1.741313 1_555
O32 S8 1.474875 1_555
O33 S7 1.465905 1_555
O34 Si6 1.726878 1_555
O35 S6 1.508536 1_555
O36 Si8 1.583798 1_655
O37 Si7 1.593242 1_545
O38 S8 1.465508 1_555
O39 S7 1.471258 1_655
O40 Si6 1.602316 1_545
O41 S6 1.473782 1_555
O42 S2 1.564370 1_555
O43 S3 1.517780 1_555
O44 Si4 1.709271 1_555
O45 Si5 1.699413 1_555
O46 S4 1.480657 1_555
O47 S5 1.500846 1_555
O48 Si3 1.588389 1_545
O49 Si2 1.604799 1_555
O50 S1 1.468549 1_655
O51 S0 1.465757 1_555
O52 Si1 1.611039 1_655
O53 Si0 1.597154 1_545
O54 S6 1.546607 1_555
O55 S7 1.547748 1_655
O56 Si6 1.699300 1_545
O57 Si7 1.698918 1_545
O58 S8 1.553151 1_555
O59 Si8 1.727131 1_655
O60 S5 1.473004 1_555
O61 Si5 1.612894 1_455
O62 S4 1.471723 1_565
O63 S3 1.477590 1_565
O64 Si4 1.606911 1_555
O65 S2 1.473740 1_455
O66 Si0 1.698727 1_555
O67 S0 1.472594 1_555
O68 Si1 1.699529 1_555
O69 Si2 1.705254 1_555
O70 S1 1.551926 1_555
O71 Si3 1.744377 1_555
