# generated using pymatgen
data_Si2Ni
_symmetry_space_group_name_H-M   'P 1'
_cell_length_a   3.80869593
_cell_length_b   3.80869651
_cell_length_c   3.80869654
_cell_angle_alpha   59.99999972
_cell_angle_beta   59.99999474
_cell_angle_gamma   60.00001145
_symmetry_Int_Tables_number   1
_chemical_formula_structural   Si2Ni
_chemical_formula_sum   'Si2 Ni1'
_cell_volume   39.06735987
_cell_formula_units_Z   1
loop_
 _symmetry_equiv_pos_site_id
 _symmetry_equiv_pos_as_xyz
  1  'x, y, z'
loop_
 _atom_site_type_symbol
 _atom_site_label
 _atom_site_symmetry_multiplicity
 _atom_site_fract_x
 _atom_site_fract_y
 _atom_site_fract_z
 _atom_site_occupancy
  Si  Si0  1  0.75000000  0.75000000  0.75000000  1
  Si  Si1  1  0.25000000  0.25000000  0.25000000  1
  Ni  Ni0  1  0.00000000  0.00000000  -0.00000000  1
loop_
_geom_bond_atom_site_label_1
_geom_bond_atom_site_label_2
_geom_bond_distance
_geom_bond_site_symmetry_2
Si0 Si1 2.693155 1_556
Si0 Si1 2.693155 1_665
Si0 Si1 2.693155 1_566
Si0 Si1 2.693155 1_655
Si0 Si1 2.693155 1_656
Si0 Si1 2.693155 1_565
Ni0 Si1 2.332341 1_455
Ni0 Si0 2.332341 1_544
Ni0 Si0 2.332341 1_445
Ni0 Si1 2.332341 1_555
Ni0 Si0 2.332341 1_444
Ni0 Si1 2.332341 1_554
Ni0 Si1 2.332341 1_545
Ni0 Si0 2.332341 1_454
