# generated using pymatgen
data_UNiAs2
_symmetry_space_group_name_H-M   'P 1'
_cell_length_a   4.00554653
_cell_length_b   4.00554653
_cell_length_c   9.06189384
_cell_angle_alpha   90.00000000
_cell_angle_beta   90.00000000
_cell_angle_gamma   90.00000000
_symmetry_Int_Tables_number   1
_chemical_formula_structural   UNiAs2
_chemical_formula_sum   'U2 Ni2 As4'
_cell_volume   145.39267675
_cell_formula_units_Z   2
loop_
 _symmetry_equiv_pos_site_id
 _symmetry_equiv_pos_as_xyz
  1  'x, y, z'
loop_
 _atom_site_type_symbol
 _atom_site_label
 _atom_site_symmetry_multiplicity
 _atom_site_fract_x
 _atom_site_fract_y
 _atom_site_fract_z
 _atom_site_occupancy
  U  U0  1  0.50000000  0.00000000  0.75039290  1
  U  U1  1  -0.00000000  0.50000000  0.24960710  1
  Ni  Ni0  1  0.50000000  0.50000000  0.50000000  1
  Ni  Ni1  1  -0.00000000  0.00000000  0.50000000  1
  As  As0  1  0.50000000  0.50000000  -0.00000000  1
  As  As1  1  0.00000000  0.50000000  0.65015036  1
  As  As2  1  0.00000000  0.00000000  -0.00000000  1
  As  As3  1  0.50000000  0.00000000  0.34984964  1
loop_
_geom_bond_atom_site_label_1
_geom_bond_atom_site_label_2
_geom_bond_distance
_geom_bond_site_symmetry_2
Ni0 U0 3.026486 1_555
Ni0 U1 3.026486 1_555
Ni0 U0 3.026486 1_565
Ni0 U1 3.026486 1_655
Ni1 U0 3.026486 1_555
Ni1 U1 3.026486 1_545
Ni1 U1 3.026486 1_555
Ni1 U0 3.026486 1_455
As0 As2 2.832349 1_555
As0 As2 2.832349 1_565
As0 As2 2.832349 1_655
As0 As2 2.832349 1_665
As0 U0 3.021151 1_564
As0 U0 3.021151 1_554
As0 U1 3.021151 1_555
As0 U1 3.021151 1_655
As1 Ni1 2.421252 1_555
As1 Ni1 2.421252 1_565
As1 Ni0 2.421252 1_455
As1 Ni0 2.421252 1_555
As1 U0 2.974453 1_455
As1 U0 2.974453 1_465
As1 U0 2.974453 1_555
As1 U0 2.974453 1_565
As2 U0 3.021151 1_454
As2 U0 3.021151 1_554
As2 U1 3.021151 1_555
As2 U1 3.021151 1_545
As3 Ni0 2.421252 1_545
As3 Ni1 2.421252 1_555
As3 Ni1 2.421252 1_655
As3 Ni0 2.421252 1_555
As3 U1 2.974453 1_545
As3 U1 2.974453 1_645
As3 U1 2.974453 1_555
As3 U1 2.974453 1_655
