# generated using pymatgen
data_MgV2(OF3)2
_symmetry_space_group_name_H-M   'P 1'
_cell_length_a   5.78541656
_cell_length_b   5.78541682
_cell_length_c   5.13990604
_cell_angle_alpha   90.01550931
_cell_angle_beta   89.98449857
_cell_angle_gamma   114.98273804
_symmetry_Int_Tables_number   1
_chemical_formula_structural   MgV2(OF3)2
_chemical_formula_sum   'Mg1 V2 O2 F6'
_cell_volume   155.94129875
_cell_formula_units_Z   1
loop_
 _symmetry_equiv_pos_site_id
 _symmetry_equiv_pos_as_xyz
  1  'x, y, z'
loop_
 _atom_site_type_symbol
 _atom_site_label
 _atom_site_symmetry_multiplicity
 _atom_site_fract_x
 _atom_site_fract_y
 _atom_site_fract_z
 _atom_site_occupancy
  Mg  Mg0  1  0.10661900  0.10661900  0.75000000  1
  V  V0  1  0.36944700  0.36944700  0.25000000  1
  V  V1  1  0.61374300  0.61374300  0.75000000  1
  O  O0  1  0.30422900  0.49044100  0.93631800  1
  O  O1  1  0.49044100  0.30422900  0.56368200  1
  F  F0  1  0.25484000  0.04715200  0.07994600  1
  F  F1  1  0.49150000  0.71264500  0.43017500  1
  F  F2  1  0.74272000  0.96059500  0.86607900  1
  F  F3  1  0.71264500  0.49150000  0.06982500  1
  F  F4  1  0.96059500  0.74272000  0.63392100  1
  F  F5  1  0.04715200  0.25484000  0.42005400  1
loop_
_geom_bond_atom_site_label_1
_geom_bond_atom_site_label_2
_geom_bond_distance
_geom_bond_site_symmetry_2
Mg0 O0 2.238329 1_555
Mg0 O1 2.238329 1_555
O0 V0 1.859006 1_556
O0 V1 1.884920 1_555
O1 V0 1.859006 1_555
O1 V1 1.884920 1_555
F0 V0 1.906701 1_555
F0 Mg0 1.995008 1_554
F1 V1 1.967953 1_555
F1 V0 2.028224 1_555
F2 V1 1.916855 1_555
F2 Mg0 1.999809 1_665
F3 V1 1.967953 1_554
F3 V0 2.028224 1_555
F4 V1 1.916855 1_555
F4 Mg0 1.999809 1_665
F5 V0 1.906701 1_555
F5 Mg0 1.995008 1_555
