# generated using pymatgen
data_PbF3
_symmetry_space_group_name_H-M   'P 1'
_cell_length_a   5.34222739
_cell_length_b   5.34222739
_cell_length_c   8.87795725
_cell_angle_alpha   90.00000000
_cell_angle_beta   90.00000000
_cell_angle_gamma   90.00000000
_symmetry_Int_Tables_number   1
_chemical_formula_structural   PbF3
_chemical_formula_sum   'Pb4 F12'
_cell_volume   253.37151531
_cell_formula_units_Z   4
loop_
 _symmetry_equiv_pos_site_id
 _symmetry_equiv_pos_as_xyz
  1  'x, y, z'
loop_
 _atom_site_type_symbol
 _atom_site_label
 _atom_site_symmetry_multiplicity
 _atom_site_fract_x
 _atom_site_fract_y
 _atom_site_fract_z
 _atom_site_occupancy
  Pb  Pb0  1  0.50000000  0.50000000  0.50000000  1
  Pb  Pb1  1  0.50000000  0.50000000  0.00000000  1
  Pb  Pb2  1  -0.00000000  0.00000000  0.75000000  1
  Pb  Pb3  1  -0.00000000  0.00000000  0.25000000  1
  F  F0  1  0.20328131  0.79705109  0.59249262  1
  F  F1  1  0.79671869  0.20294891  0.59249262  1
  F  F2  1  0.79705109  0.79671869  0.40750738  1
  F  F3  1  0.20294891  0.20328131  0.40750738  1
  F  F4  1  0.28052603  0.71947497  0.25000000  1
  F  F5  1  0.71947497  0.71947497  0.75000000  1
  F  F6  1  0.28052603  0.28052603  0.75000000  1
  F  F7  1  0.71947497  0.28052603  0.25000000  1
  F  F8  1  0.20328131  0.20294891  0.09249262  1
  F  F9  1  0.20294891  0.79671869  0.90750738  1
  F  F10  1  0.79705109  0.20328131  0.90750738  1
  F  F11  1  0.79671869  0.79705109  0.09249262  1
loop_
_geom_bond_atom_site_label_1
_geom_bond_atom_site_label_2
_geom_bond_distance
_geom_bond_site_symmetry_2
F0 Pb2 2.076101 1_565
F0 Pb0 2.388565 1_555
F1 Pb2 2.076101 1_655
F1 Pb0 2.388565 1_555
F2 Pb3 2.076101 1_665
F2 Pb0 2.388565 1_555
F3 Pb3 2.076101 1_555
F3 Pb0 2.388565 1_555
F4 Pb3 2.119385 1_565
F5 Pb2 2.119381 1_665
F6 Pb2 2.119388 1_555
F7 Pb3 2.119385 1_655
F8 Pb3 2.076101 1_555
F8 Pb1 2.388565 1_555
F9 Pb2 2.076101 1_565
F9 Pb1 2.388565 1_556
F10 Pb2 2.076101 1_655
F10 Pb1 2.388565 1_556
F11 Pb3 2.076101 1_665
F11 Pb1 2.388565 1_555
