# generated using pymatgen
data_Al3Si2H3O10
_symmetry_space_group_name_H-M   'P 1'
_cell_length_a   6.18862400
_cell_length_b   7.33893245
_cell_length_c   7.81306718
_cell_angle_alpha   64.60296324
_cell_angle_beta   88.01590175
_cell_angle_gamma   86.63710515
_symmetry_Int_Tables_number   1
_chemical_formula_structural   Al3Si2H3O10
_chemical_formula_sum   'Al6 Si4 H6 O20'
_cell_volume   319.98954270
_cell_formula_units_Z   2
loop_
 _symmetry_equiv_pos_site_id
 _symmetry_equiv_pos_as_xyz
  1  'x, y, z'
loop_
 _atom_site_type_symbol
 _atom_site_label
 _atom_site_symmetry_multiplicity
 _atom_site_fract_x
 _atom_site_fract_y
 _atom_site_fract_z
 _atom_site_occupancy
  Al  Al0  1  0.15435600  0.14907500  0.39636200  1
  Al  Al1  1  0.84564400  0.85092500  0.60363800  1
  Al  Al2  1  0.65598900  0.64872700  0.39416000  1
  Al  Al3  1  0.34401100  0.35127300  0.60584000  1
  Al  Al4  1  0.71609800  0.74523900  0.98991800  1
  Al  Al5  1  0.28390200  0.25476100  0.01008200  1
  Si  Si0  1  0.86429600  0.22100400  0.70435000  1
  Si  Si1  1  0.13570400  0.77899600  0.29565000  1
  Si  Si2  1  0.37262400  0.72543400  0.70872300  1
  Si  Si3  1  0.62737600  0.27456600  0.29127700  1
  H  H0  1  0.79765200  0.23568800  0.98395700  1
  H  H1  1  0.20234800  0.76431200  0.01604300  1
  H  H2  1  0.12052400  0.49927400  0.13191700  1
  H  H3  1  0.87947600  0.50072600  0.86808300  1
  H  H4  1  0.63007900  0.99978200  0.13337900  1
  H  H5  1  0.36992100  0.00021800  0.86662100  1
  O  O0  1  0.84876800  0.11101700  0.39937700  1
  O  O1  1  0.15123200  0.88898300  0.60062300  1
  O  O2  1  0.34986900  0.60919500  0.40340600  1
  O  O3  1  0.65013100  0.39080500  0.59659400  1
  O  O4  1  0.30833300  0.48823400  0.77614500  1
  O  O5  1  0.69166700  0.51176600  0.22385500  1
  O  O6  1  0.79665500  0.98696400  0.76959000  1
  O  O7  1  0.20334500  0.01303600  0.23041000  1
  O  O8  1  0.36601100  0.13872100  0.84733800  1
  O  O9  1  0.63398900  0.86127900  0.15266200  1
  O  O10  1  0.86577100  0.63818100  0.84639300  1
  O  O11  1  0.13422900  0.36181900  0.15360700  1
  O  O12  1  0.57690700  0.23820800  0.10461100  1
  O  O13  1  0.42309300  0.76179200  0.89538900  1
  O  O14  1  0.08711300  0.74545100  0.10422900  1
  O  O15  1  0.91288700  0.25454900  0.89577100  1
  O  O16  1  0.43181500  0.21481300  0.44059600  1
  O  O17  1  0.56818500  0.78518700  0.55940400  1
  O  O18  1  0.93455800  0.71658500  0.43591500  1
  O  O19  1  0.06544200  0.28341500  0.56408500  1
loop_
_geom_bond_atom_site_label_1
_geom_bond_atom_site_label_2
_geom_bond_distance
_geom_bond_site_symmetry_2
Al0 O11 1.871887 1_555
Al0 O1 1.892083 1_545
Al0 O16 1.892589 1_555
Al0 O0 1.925702 1_455
Al0 O7 1.953841 1_555
Al0 O19 1.996667 1_555
Al1 O10 1.871887 1_555
Al1 O0 1.892083 1_565
Al1 O17 1.892589 1_555
Al1 O1 1.925702 1_655
Al1 O6 1.953841 1_555
Al1 O18 1.996667 1_555
Al2 O9 1.865527 1_555
Al2 O3 1.876668 1_555
Al2 O18 1.898815 1_555
Al2 O2 1.927538 1_555
Al2 O5 1.982533 1_555
Al2 O17 1.990403 1_555
Al3 O8 1.865527 1_555
Al3 O2 1.876668 1_555
Al3 O19 1.898815 1_555
Al3 O3 1.927538 1_555
Al3 O4 1.982533 1_555
Al3 O16 1.990403 1_555
Al4 O10 1.825157 1_555
Al4 O9 1.852989 1_556
Al4 O5 1.903778 1_556
Al4 O6 1.945199 1_555
Al4 O13 1.959135 1_555
Al5 O11 1.825157 1_555
Al5 O8 1.852989 1_554
Al5 O4 1.903778 1_554
Al5 O7 1.945199 1_555
Al5 O12 1.959135 1_555
H0 O15 0.947741 1_555
H0 O12 1.636475 1_556
H1 O14 0.947741 1_555
H1 O13 1.636475 1_554
H2 O11 0.947551 1_555
H3 O10 0.947551 1_555
H4 O9 0.960464 1_555
H4 O12 1.679519 1_565
H5 O8 0.960464 1_555
H5 O13 1.679519 1_545
O0 Si3 1.746091 1_555
O1 Si2 1.746091 1_555
O2 Si1 1.732607 1_555
O3 Si0 1.732607 1_555
O4 Si2 1.657202 1_555
O5 Si3 1.657202 1_555
O6 Si0 1.644324 1_565
O7 Si1 1.644324 1_545
O12 Si3 1.634290 1_555
O13 Si2 1.634290 1_555
O14 Si1 1.656340 1_555
O15 Si0 1.656340 1_555
O16 Si3 1.594905 1_555
O17 Si2 1.594905 1_555
O18 Si1 1.581841 1_655
O19 Si0 1.581841 1_455
