# generated using pymatgen
data_RbHCO2
_symmetry_space_group_name_H-M   'P 1'
_cell_length_a   4.72613800
_cell_length_b   7.50851200
_cell_length_c   9.38712000
_cell_angle_alpha   90.00000000
_cell_angle_beta   90.00000000
_cell_angle_gamma   90.00000000
_symmetry_Int_Tables_number   1
_chemical_formula_structural   RbHCO2
_chemical_formula_sum   'Rb4 H4 C4 O8'
_cell_volume   333.11381746
_cell_formula_units_Z   4
loop_
 _symmetry_equiv_pos_site_id
 _symmetry_equiv_pos_as_xyz
  1  'x, y, z'
loop_
 _atom_site_type_symbol
 _atom_site_label
 _atom_site_symmetry_multiplicity
 _atom_site_fract_x
 _atom_site_fract_y
 _atom_site_fract_z
 _atom_site_occupancy
  Rb  Rb0  1  0.93868000  0.50000000  0.25000000  1
  Rb  Rb1  1  0.06132000  0.00000000  0.75000000  1
  Rb  Rb2  1  0.06132000  0.50000000  0.75000000  1
  Rb  Rb3  1  0.93868000  0.00000000  0.25000000  1
  H  H0  1  0.43798400  0.75000000  0.02796700  1
  H  H1  1  0.43798400  0.25000000  0.47203300  1
  H  H2  1  0.56201600  0.75000000  0.52796700  1
  H  H3  1  0.56201600  0.25000000  0.97203300  1
  C  C0  1  0.38333700  0.25000000  0.05010500  1
  C  C1  1  0.38333700  0.75000000  0.44989500  1
  C  C2  1  0.61666300  0.75000000  0.94989500  1
  C  C3  1  0.61666300  0.25000000  0.55010500  1
  O  O0  1  0.13380800  0.25000000  0.99940100  1
  O  O1  1  0.13380800  0.75000000  0.50059900  1
  O  O2  1  0.86619200  0.25000000  0.49940100  1
  O  O3  1  0.86619200  0.75000000  0.00059900  1
  O  O4  1  0.44854700  0.25000000  0.18155400  1
  O  O5  1  0.44854700  0.75000000  0.31844600  1
  O  O6  1  0.55145300  0.75000000  0.81844600  1
  O  O7  1  0.55145300  0.25000000  0.68155400  1
loop_
_geom_bond_atom_site_label_1
_geom_bond_atom_site_label_2
_geom_bond_distance
_geom_bond_site_symmetry_2
C0 H3 1.118130 1_554
C0 O0 1.271735 1_554
C0 O4 1.271833 1_555
C1 H2 1.118130 1_555
C1 O1 1.271735 1_555
C1 O5 1.271833 1_555
C2 H0 1.118130 1_556
C2 O3 1.271735 1_556
C2 O6 1.271833 1_555
C3 H1 1.118130 1_555
C3 O2 1.271735 1_555
C3 O7 1.271833 1_555
O0 Rb1 3.020264 1_555
O0 Rb2 3.020264 1_555
O0 Rb3 3.147676 1_456
O0 Rb0 3.147676 1_456
O1 Rb1 3.020264 1_565
O1 Rb2 3.020264 1_555
O1 Rb3 3.147676 1_465
O1 Rb0 3.147676 1_455
O2 Rb3 3.020264 1_555
O2 Rb0 3.020264 1_555
O2 Rb1 3.147676 1_655
O2 Rb2 3.147676 1_655
O3 Rb0 3.020264 1_555
O3 Rb3 3.020264 1_565
O3 Rb2 3.147676 1_654
O3 Rb1 3.147676 1_664
O4 Rb0 3.049968 1_555
O4 Rb3 3.049968 1_555
O4 Rb3 3.121393 1_455
O4 Rb0 3.121393 1_455
O5 Rb3 3.049968 1_565
O5 Rb0 3.049968 1_555
O5 Rb3 3.121393 1_465
O5 Rb0 3.121393 1_455
O6 Rb2 3.049968 1_555
O6 Rb1 3.049968 1_565
O6 Rb1 3.121393 1_665
O6 Rb2 3.121393 1_655
O7 Rb1 3.049968 1_555
O7 Rb2 3.049968 1_555
O7 Rb1 3.121393 1_655
O7 Rb2 3.121393 1_655
