# generated using pymatgen
data_Na6La4Sc4Si3(S3O16)3
_symmetry_space_group_name_H-M   'P 1'
_cell_length_a   18.51582243
_cell_length_b   9.25566074
_cell_length_c   24.22065390
_cell_angle_alpha   90.10264525
_cell_angle_beta   90.03792100
_cell_angle_gamma   119.98327815
_symmetry_Int_Tables_number   1
_chemical_formula_structural   Na6La4Sc4Si3(S3O16)3
_chemical_formula_sum   'Na18 La12 Sc12 Si9 S27 O144'
_cell_volume   3595.32939655
_cell_formula_units_Z   3
loop_
 _symmetry_equiv_pos_site_id
 _symmetry_equiv_pos_as_xyz
  1  'x, y, z'
loop_
 _atom_site_type_symbol
 _atom_site_label
 _atom_site_symmetry_multiplicity
 _atom_site_fract_x
 _atom_site_fract_y
 _atom_site_fract_z
 _atom_site_occupancy
  Na  Na0  1  0.00498260  0.64462234  0.25368770  1
  Na  Na1  1  0.50353583  0.36570102  0.74390649  1
  Na  Na2  1  0.16100533  0.30605163  0.91355403  1
  Na  Na3  1  0.66098203  0.30354782  0.91139859  1
  Na  Na4  1  0.16340916  0.02298301  0.41615475  1
  Na  Na5  1  0.65933936  0.00965746  0.41851124  1
  Na  Na6  1  0.99365026  0.98744138  0.49696479  1
  Na  Na7  1  0.49279206  0.00020042  0.50040525  1
  Na  Na8  1  0.99419907  0.00333865  0.99209551  1
  Na  Na9  1  0.49385179  0.00108288  0.99414220  1
  Na  Na10  1  0.33120184  0.33303793  0.82549392  1
  Na  Na11  1  0.83824238  0.33542878  0.83271141  1
  Na  Na12  1  0.34135667  0.34802578  0.33931607  1
  Na  Na13  1  0.83207073  0.33084809  0.33471630  1
  Na  Na14  1  0.17343421  0.68092616  0.17383294  1
  Na  Na15  1  0.66571988  0.68293405  0.17370806  1
  Na  Na16  1  0.16913701  0.65145033  0.67122816  1
  Na  Na17  1  0.66183894  0.65002009  0.66495877  1
  La  La0  1  0.00189826  0.01199267  0.64913473  1
  La  La1  1  0.50716590  0.01949846  0.64610555  1
  La  La2  1  0.00854186  0.00533301  0.14983576  1
  La  La3  1  0.50100627  0.99147550  0.14958439  1
  La  La4  1  0.82665408  0.33182132  0.69107710  1
  La  La5  1  0.32791411  0.32388546  0.19232146  1
  La  La6  1  0.15827503  0.65605203  0.01337025  1
  La  La7  1  0.66484425  0.65846027  0.01432555  1
  La  La8  1  0.16660031  0.67185620  0.51500639  1
  La  La9  1  0.64729354  0.64358446  0.51806182  1
  La  La10  1  0.66016364  0.67211876  0.31931742  1
  La  La11  1  0.16018342  0.64688355  0.81677443  1
  Sc  Sc0  1  0.00236885  0.99317314  0.35078499  1
  Sc  Sc1  1  0.50742172  0.99368555  0.34788193  1
  Sc  Sc2  1  0.00806080  0.02309445  0.84565173  1
  Sc  Sc3  1  0.50192328  0.01141822  0.84784076  1
  Sc  Sc4  1  0.33047101  0.33458660  0.68349015  1
  Sc  Sc5  1  0.82334778  0.31584947  0.18833944  1
  Sc  Sc6  1  0.34487602  0.33436057  0.97756003  1
  Sc  Sc7  1  0.83884078  0.33164181  0.97998719  1
  Sc  Sc8  1  0.34657193  0.34633005  0.48407097  1
  Sc  Sc9  1  0.84387949  0.35316624  0.47867299  1
  Sc  Sc10  1  0.16121024  0.67004969  0.32024173  1
  Sc  Sc11  1  0.65937569  0.65186622  0.81801577  1
  Si  Si0  1  0.14645169  0.98850036  0.25693844  1
  Si  Si1  1  0.65198018  0.00547991  0.25075648  1
  Si  Si2  1  0.15608621  0.29751929  0.75039838  1
  Si  Si3  1  0.64751060  0.30411981  0.75754465  1
  Si  Si4  1  0.47353974  0.33147284  0.58781772  1
  Si  Si5  1  0.00934455  0.34741301  0.91680157  1
  Si  Si6  1  0.51618476  0.36028731  0.91333278  1
  Si  Si7  1  0.01588495  0.66947709  0.41355345  1
  Si  Si8  1  0.50802015  0.66940559  0.41585819  1
  S  S0  1  0.34817672  0.70998858  0.25614213  1
  S  S1  1  0.85441627  0.69878945  0.24976444  1
  S  S2  1  -0.00007227  0.30173758  0.25276111  1
  S  S3  1  0.50066949  0.28927253  0.25316124  1
  S  S4  1  0.99968760  0.71201823  0.75332262  1
  S  S5  1  0.50056144  0.70231409  0.75358673  1
  S  S6  1  0.35430794  0.00843829  0.75142341  1
  S  S7  1  0.84837361  0.98752986  0.75640674  1
  S  S8  1  0.97650550  0.33242876  0.57993449  1
  S  S9  1  0.19301323  0.05291646  0.58138159  1
  S  S10  1  0.69140268  0.04648393  0.57718098  1
  S  S11  1  0.33204007  0.61211094  0.58343654  1
  S  S12  1  0.83486644  0.62542823  0.57865534  1
  S  S13  1  0.47637870  0.62079884  0.07993363  1
  S  S14  1  0.97148233  0.61138809  0.08474724  1
  S  S15  1  0.33378457  0.04372037  0.07890270  1
  S  S16  1  0.83313236  0.05422740  0.08380489  1
  S  S17  1  0.18946849  0.33465200  0.07802576  1
  S  S18  1  0.69438534  0.33429154  0.08223660  1
  S  S19  1  0.32323243  0.66478072  0.91862811  1
  S  S20  1  0.81785431  0.66539448  0.91400353  1
  S  S21  1  0.16745833  0.98227369  0.91699669  1
  S  S22  1  0.66616437  0.96977507  0.91437770  1
  S  S23  1  0.31747637  0.96844998  0.41263393  1
  S  S24  1  0.82276249  0.97970937  0.41888209  1
  S  S25  1  0.16489641  0.36296411  0.41280400  1
  S  S26  1  0.66809005  0.35217267  0.41610407  1
  O  O0  1  0.09432436  0.00917899  0.30820036  1
  O  O1  1  0.60656807  0.02342593  0.30690342  1
  O  O2  1  0.40495806  0.80602579  0.30158798  1
  O  O3  1  0.90685920  0.78482950  0.29885520  1
  O  O4  1  0.49585996  0.18793352  0.30104703  1
  O  O5  1  0.98574744  0.19198121  0.30006359  1
  O  O6  1  0.10777689  0.19108827  0.80778054  1
  O  O7  1  0.59743757  0.18259931  0.81030580  1
  O  O8  1  0.48887593  0.78785443  0.80166900  1
  O  O9  1  0.99535261  0.80501000  0.80169864  1
  O  O10  1  0.40693236  0.02293047  0.80052440  1
  O  O11  1  0.90599149  0.00656271  0.80223906  1
  O  O12  1  0.38983172  0.98020150  0.70089988  1
  O  O13  1  0.88033045  0.96330266  0.70304071  1
  O  O14  1  0.09526903  0.20572138  0.69735692  1
  O  O15  1  0.59197486  0.22981795  0.70149705  1
  O  O16  1  0.00101765  0.79423703  0.70077459  1
  O  O17  1  0.51285495  0.79605720  0.70213437  1
  O  O18  1  0.37987246  0.79681818  0.20231136  1
  O  O19  1  0.89111424  0.79978833  0.19926976  1
  O  O20  1  0.01256889  0.23126281  0.20091580  1
  O  O21  1  0.50185994  0.20932956  0.20015089  1
  O  O22  1  0.09074115  0.95298742  0.19997628  1
  O  O23  1  0.59541407  0.98238939  0.19605976  1
  O  O24  1  0.42562135  0.33839371  0.64449227  1
  O  O25  1  0.93797403  0.34147903  0.63209261  1
  O  O26  1  0.24082268  0.14343140  0.63116213  1
  O  O27  1  0.73476898  0.12940132  0.62937909  1
  O  O28  1  0.32583439  0.51669331  0.63434759  1
  O  O29  1  0.82954305  0.53679136  0.63079648  1
  O  O30  1  0.43769776  0.53440334  0.13203875  1
  O  O31  1  0.93045605  0.52010782  0.13606026  1
  O  O32  1  0.32826004  0.12139382  0.13108317  1
  O  O33  1  0.82892128  0.14148567  0.13456757  1
  O  O34  1  0.23332823  0.34131461  0.13010270  1
  O  O35  1  0.74304825  0.34088210  0.13225503  1
  O  O36  1  0.23470656  0.32820743  0.02874386  1
  O  O37  1  0.73601255  0.32608025  0.03075201  1
  O  O38  1  0.42673231  0.52388231  0.03125767  1
  O  O39  1  0.92394215  0.52177382  0.03430440  1
  O  O40  1  0.33680020  0.14618127  0.03064205  1
  O  O41  1  0.83694232  0.14994713  0.03348511  1
  O  O42  1  0.23275421  0.14151697  0.52914070  1
  O  O43  1  0.73738177  0.14635959  0.52816126  1
  O  O44  1  0.33381891  0.52328112  0.53287200  1
  O  O45  1  0.83814342  0.52764165  0.53042900  1
  O  O46  1  0.42328300  0.32969535  0.53108696  1
  O  O47  1  0.92683622  0.32976121  0.53120160  1
  O  O48  1  0.28536643  0.69874591  0.96746903  1
  O  O49  1  0.78579112  0.70050115  0.96593716  1
  O  O50  1  0.07435918  0.42830790  0.96947116  1
  O  O51  1  0.57803635  0.43793299  0.96750418  1
  O  O52  1  0.15471803  0.88016149  0.96698286  1
  O  O53  1  0.65420751  0.87360903  0.96587147  1
  O  O54  1  0.28566809  0.87003281  0.46439295  1
  O  O55  1  0.78506498  0.87109249  0.46707157  1
  O  O56  1  0.15271141  0.43440162  0.46441362  1
  O  O57  1  0.65583720  0.42904162  0.46580865  1
  O  O58  1  0.07900321  0.71707387  0.46654691  1
  O  O59  1  0.57554138  0.72544857  0.46685017  1
  O  O60  1  0.06169360  0.64000298  0.35952077  1
  O  O61  1  0.54875445  0.63023054  0.36208692  1
  O  O62  1  0.25764133  0.87481487  0.36657213  1
  O  O63  1  0.76888041  0.90873665  0.36897967  1
  O  O64  1  0.17705103  0.47387621  0.36537197  1
  O  O65  1  0.68566014  0.45797698  0.36708220  1
  O  O66  1  0.04914926  0.46961666  0.86421403  1
  O  O67  1  0.56330256  0.48557326  0.86113833  1
  O  O68  1  0.18490683  0.91038617  0.86839531  1
  O  O69  1  0.68075209  0.88846933  0.86687620  1
  O  O70  1  0.26814614  0.62798366  0.86978594  1
  O  O71  1  0.75870716  0.63615793  0.86795643  1
  O  O72  1  0.00716333  0.83830298  0.40516940  1
  O  O73  1  0.50388190  0.84235763  0.40552876  1
  O  O74  1  0.40159139  0.99831597  0.40190893  1
  O  O75  1  0.90714590  0.00491601  0.40848013  1
  O  O76  1  0.08823095  0.19398903  0.40540938  1
  O  O77  1  0.59193021  0.18483432  0.40885000  1
  O  O78  1  0.00521208  0.16650355  0.90749162  1
  O  O79  1  0.50688033  0.17394322  0.90549535  1
  O  O80  1  0.09131326  0.99759893  0.91006975  1
  O  O81  1  0.59088468  0.98830616  0.90710810  1
  O  O82  1  0.40713819  0.80852944  0.90945581  1
  O  O83  1  0.90245554  0.80441318  0.90414388  1
  O  O84  1  0.48221029  0.16326788  0.58301140  1
  O  O85  1  0.98218647  0.17774293  0.57719688  1
  O  O86  1  0.10742113  0.03070438  0.58289229  1
  O  O87  1  0.60675816  0.02704507  0.57668354  1
  O  O88  1  0.40828753  0.77816765  0.58475037  1
  O  O89  1  0.91239857  0.79094614  0.57793634  1
  O  O90  1  0.48213228  0.78684223  0.07746279  1
  O  O91  1  0.97915683  0.77970990  0.08383706  1
  O  O92  1  0.41033512  0.03007678  0.07809849  1
  O  O93  1  0.90910312  0.03843771  0.08516831  1
  O  O94  1  0.10469981  0.18227303  0.07807403  1
  O  O95  1  0.60955554  0.18492276  0.08352016  1
  O  O96  1  0.35443834  0.17041952  0.74810272  1
  O  O97  1  0.84386094  0.14416905  0.75433388  1
  O  O98  1  0.24693927  0.30769237  0.74406421  1
  O  O99  1  0.73959624  0.32064547  0.75587428  1
  O  O100  1  0.42653387  0.52914360  0.74883848  1
  O  O101  1  0.92537492  0.54114097  0.75467249  1
  O  O102  1  0.34321567  0.54387519  0.25379710  1
  O  O103  1  0.85528814  0.53666460  0.24375321  1
  O  O104  1  0.42611873  0.31146644  0.25387885  1
  O  O105  1  0.92644204  0.32911715  0.24538106  1
  O  O106  1  0.23785268  0.15601508  0.25389163  1
  O  O107  1  0.74450138  0.18035964  0.24313743  1
  O  O108  1  0.32602130  0.50696756  0.92805660  1
  O  O109  1  0.81772172  0.50228736  0.92199589  1
  O  O110  1  0.42428667  0.34421068  0.92449737  1
  O  O111  1  0.91816518  0.33131168  0.93017271  1
  O  O112  1  0.23983765  0.15630369  0.92614660  1
  O  O113  1  0.73960543  0.14431267  0.92196789  1
  O  O114  1  0.31591451  0.12908681  0.41916967  1
  O  O115  1  0.82677106  0.14545974  0.42738084  1
  O  O116  1  0.23722419  0.33485382  0.41834461  1
  O  O117  1  0.74059531  0.32225774  0.42453305  1
  O  O118  1  0.41688915  0.50385171  0.42664465  1
  O  O119  1  0.92377484  0.50241583  0.42377098  1
  O  O120  1  0.18076034  0.48633954  0.07858624  1
  O  O121  1  0.68770056  0.48836085  0.08299300  1
  O  O122  1  0.05690503  0.63227280  0.08310610  1
  O  O123  1  0.56169028  0.64286403  0.07807718  1
  O  O124  1  0.25854678  0.87498096  0.07628785  1
  O  O125  1  0.75747144  0.88622552  0.08207354  1
  O  O126  1  0.18594646  0.88461843  0.58233894  1
  O  O127  1  0.68572046  0.88109049  0.57750579  1
  O  O128  1  0.25664150  0.63168736  0.58204807  1
  O  O129  1  0.76069492  0.64507763  0.57553413  1
  O  O130  1  0.06168579  0.48092562  0.57788544  1
  O  O131  1  0.56748189  0.49898703  0.58907720  1
  O  O132  1  0.15289493  0.81663978  0.26272604  1
  O  O133  1  0.66689083  0.84569302  0.25166976  1
  O  O134  1  0.26321362  0.68564281  0.26401134  1
  O  O135  1  0.76870500  0.66622017  0.25540306  1
  O  O136  1  0.07557540  0.47130074  0.26001478  1
  O  O137  1  0.57738930  0.45571959  0.25334794  1
  O  O138  1  0.16686173  0.48514106  0.75218718  1
  O  O139  1  0.65405683  0.48887949  0.76438065  1
  O  O140  1  0.07645167  0.69927234  0.75400973  1
  O  O141  1  0.57623531  0.68285527  0.76146583  1
  O  O142  1  0.26857607  0.86826903  0.75770155  1
  O  O143  1  0.76426159  0.84260335  0.76559273  1
loop_
_geom_bond_atom_site_label_1
_geom_bond_atom_site_label_2
_geom_bond_distance
_geom_bond_site_symmetry_2
Na0 O132 2.392310 1_555
Na0 O103 2.443123 1_455
Na0 O136 2.530181 1_555
Na0 O105 2.536904 1_455
Na0 O60 2.777927 1_555
Na0 O22 2.801092 1_555
Na0 O3 2.921614 1_455
Na1 O96 2.431515 1_555
Na1 O139 2.476589 1_555
Na1 O100 2.547713 1_555
Na1 O141 2.579766 1_555
Na1 O15 2.715586 1_555
Na1 O24 2.751686 1_555
Na2 O80 2.477851 1_545
Na2 O112 2.483470 1_555
Na2 O78 2.507146 1_555
Na2 O108 2.689663 1_555
Na2 O50 2.738689 1_555
Na2 O6 2.757832 1_555
Na2 O70 2.836160 1_555
Na3 O79 2.485691 1_555
Na3 O81 2.534245 1_545
Na3 O113 2.549965 1_555
Na3 O109 2.556103 1_555
Na3 O7 2.702358 1_555
Na3 O51 2.767393 1_555
Na3 O71 2.881850 1_555
Na4 O114 2.484185 1_555
Na4 O116 2.501847 1_555
Na4 O72 2.533160 1_545
Na4 O76 2.591065 1_555
Na4 O58 2.746102 1_545
Na4 O0 2.884510 1_555
Na4 O62 2.958998 1_545
Na4 O42 2.986275 1_555
Na5 O77 2.503021 1_555
Na5 O117 2.510678 1_555
Na5 O73 2.514779 1_545
Na5 O59 2.575254 1_545
Na5 O115 2.709304 1_555
Na5 O63 2.884154 1_545
Na5 O1 2.898367 1_555
Na5 O43 2.982901 1_555
Na6 O89 2.588278 1_555
Na6 O72 2.691884 1_655
Na6 O85 2.699212 1_565
Na6 O75 2.727699 1_565
Na6 O86 2.842100 1_665
Na6 O76 2.883251 1_665
Na7 O84 2.569968 1_555
Na7 O87 2.719747 1_555
Na7 O88 2.765916 1_545
Na7 O73 2.783093 1_545
Na7 O77 2.844460 1_555
Na7 O74 2.916890 1_545
Na8 O78 2.495033 1_655
Na8 O80 2.698710 1_645
Na8 O83 2.769228 1_545
Na8 O94 2.803719 1_656
Na8 O93 2.860699 1_556
Na8 O91 2.956407 1_546
Na9 O79 2.618242 1_555
Na9 O92 2.648643 1_556
Na9 O82 2.661562 1_545
Na9 O90 2.763444 1_546
Na9 O81 2.811077 1_545
Na9 O95 2.916927 1_556
Na10 O98 2.451034 1_555
Na10 O96 2.569511 1_555
Na10 O100 2.582936 1_555
Na10 O110 2.923499 1_555
Na10 O112 2.955459 1_555
Na10 O108 2.985301 1_555
Na11 O99 2.561867 1_555
Na11 O101 2.597584 1_555
Na11 O97 2.630703 1_555
Na11 O109 2.789561 1_555
Na11 O111 2.795666 1_555
Na11 O113 2.815686 1_555
Na12 O118 2.545398 1_555
Na12 O114 2.670244 1_555
Na12 O116 2.677138 1_555
Na12 O104 2.718901 1_555
Na12 O102 2.743847 1_555
Na12 O106 2.772997 1_555
Na13 O107 2.686250 1_555
Na13 O119 2.710198 1_555
Na13 O117 2.734673 1_555
Na13 O105 2.787156 1_555
Na13 O115 2.799469 1_555
Na13 O103 2.804552 1_555
Na14 O132 2.612842 1_555
Na14 O134 2.730978 1_555
Na14 O136 2.812555 1_555
Na14 O124 2.912470 1_555
Na14 O122 2.950604 1_555
Na14 O120 2.968800 1_555
Na15 O133 2.406774 1_555
Na15 O137 2.720165 1_555
Na15 O135 2.804682 1_555
Na15 O125 2.859628 1_555
Na15 O123 2.913718 1_555
Na15 O121 2.992670 1_555
Na16 O138 2.482415 1_555
Na16 O128 2.761087 1_555
Na16 O140 2.814567 1_555
Na16 O142 2.844421 1_555
Na16 O130 2.898864 1_555
Na16 O126 2.955633 1_555
Na17 O131 2.435134 1_555
Na17 O139 2.800450 1_555
Na17 O129 2.851712 1_555
Na17 O127 2.885911 1_555
Na17 O141 2.924417 1_555
Na17 O143 3.051951 1_555
La0 O14 2.111785 1_555
La0 O16 2.367063 1_545
La0 O13 2.442657 1_445
La0 O86 2.467517 1_555
La0 O85 2.468002 1_455
La0 O89 2.549642 1_445
La1 O84 2.222718 1_555
La1 O15 2.233339 1_555
La1 O12 2.414396 1_545
La1 O87 2.471515 1_555
La1 O17 2.521373 1_545
La1 O88 2.539035 1_545
La2 O22 2.182365 1_545
La2 O19 2.378573 1_445
La2 O20 2.396621 1_555
La2 O94 2.443976 1_555
La2 O91 2.462426 1_445
La2 O93 2.549292 1_455
La3 O23 2.115300 1_555
La3 O21 2.350605 1_565
La3 O18 2.425007 1_555
La3 O90 2.467108 1_555
La3 O95 2.494696 1_565
La3 O92 2.557722 1_565
La4 O99 2.215730 1_555
La4 O27 2.332057 1_555
La4 O29 2.375348 1_555
La4 O101 2.431729 1_555
La4 O97 2.455096 1_555
La4 O25 2.473394 1_555
La5 O106 2.200163 1_555
La5 O34 2.375698 1_555
La5 O32 2.390538 1_555
La5 O104 2.397595 1_555
La5 O102 2.419758 1_555
La5 O30 2.473019 1_555
La6 O50 2.168936 1_554
La6 O52 2.390419 1_554
La6 O120 2.407794 1_555
La6 O48 2.450578 1_554
La6 O122 2.452936 1_555
La6 O124 2.469879 1_555
La7 O51 2.178517 1_554
La7 O49 2.382056 1_554
La7 O53 2.404498 1_554
La7 O123 2.404632 1_555
La7 O121 2.469477 1_555
La7 O125 2.539354 1_555
La8 O58 2.204801 1_555
La8 O54 2.386952 1_555
La8 O130 2.407987 1_555
La8 O56 2.413101 1_555
La8 O126 2.438972 1_555
La8 O128 2.484462 1_555
La9 O59 2.210211 1_555
La9 O131 2.228983 1_555
La9 O127 2.415700 1_555
La9 O57 2.423873 1_555
La9 O129 2.512724 1_555
La9 O55 2.666706 1_555
La10 O61 2.164162 1_555
La10 O133 2.256275 1_555
La10 O137 2.414703 1_555
La10 O63 2.424115 1_555
La10 O65 2.536218 1_555
La10 O135 2.559676 1_555
La11 O66 2.208469 1_555
La11 O138 2.209177 1_555
La11 O140 2.387605 1_555
La11 O70 2.454014 1_555
La11 O142 2.485505 1_555
La11 O68 2.567761 1_555
O0 Si0 1.641688 1_545
O0 Sc0 1.932746 1_545
O1 Si1 1.650538 1_555
O1 Sc1 1.982239 1_545
O2 S0 1.472402 1_555
O2 Sc1 2.137775 1_555
O3 S1 1.487618 1_555
O3 Sc0 2.237821 1_655
O4 S3 1.467461 1_555
O4 Sc1 2.226370 1_545
O5 S2 1.466807 1_655
O5 Sc0 2.358714 1_645
O6 Si2 1.681663 1_555
O6 Sc2 1.950885 1_555
O7 Si3 1.649895 1_555
O7 Sc3 1.916025 1_555
O8 S5 1.482619 1_555
O8 Sc3 2.254420 1_565
O9 S4 1.478407 1_555
O9 Sc2 2.186398 1_665
O10 S6 1.499671 1_555
O10 Sc3 2.145537 1_555
O11 S7 1.487069 1_545
O11 Sc2 2.099644 1_655
O12 S6 1.473143 1_565
O13 S7 1.484487 1_555
O14 Si2 1.636550 1_555
O15 Si3 1.631306 1_555
O16 S4 1.477964 1_455
O17 S5 1.471233 1_555
O18 S0 1.491171 1_555
O19 S1 1.483801 1_555
O20 S2 1.485655 1_555
O21 S3 1.486414 1_555
O22 Si0 1.653226 1_555
O23 Si1 1.634364 1_565
O24 Si4 1.653392 1_555
O24 Sc4 1.984336 1_555
O25 S8 1.473940 1_555
O26 S9 1.480869 1_555
O26 Sc4 2.132089 1_555
O27 S10 1.487069 1_555
O28 S11 1.488744 1_555
O28 Sc4 2.101608 1_555
O29 S12 1.483480 1_555
O30 S13 1.475626 1_555
O31 S14 1.482910 1_555
O31 Sc5 2.318418 1_555
O32 S15 1.481563 1_555
O33 S16 1.493166 1_555
O33 Sc5 2.114355 1_555
O34 S17 1.484113 1_555
O35 S18 1.492186 1_555
O35 Sc5 2.110050 1_555
O36 S17 1.476803 1_555
O36 Sc6 2.364044 1_554
O37 S18 1.488058 1_555
O37 Sc7 2.246075 1_554
O38 S13 1.486683 1_555
O38 Sc6 2.097055 1_554
O39 S14 1.490201 1_555
O39 Sc7 2.127909 1_554
O40 S15 1.489947 1_555
O40 Sc6 2.111139 1_554
O41 S16 1.488898 1_555
O41 Sc7 2.111191 1_554
O42 S9 1.488886 1_555
O42 Sc8 2.289969 1_555
O43 S10 1.485819 1_555
O43 Sc9 2.286436 1_555
O44 S11 1.483401 1_555
O44 Sc8 2.124906 1_555
O45 S12 1.496142 1_555
O45 Sc9 2.086842 1_555
O46 Si4 1.654430 1_555
O46 Sc8 1.885467 1_555
O47 S8 1.488412 1_555
O47 Sc9 2.087086 1_555
O48 S19 1.486558 1_555
O49 S20 1.494187 1_555
O50 Si5 1.652514 1_555
O51 Si6 1.649717 1_555
O52 S21 1.481999 1_555
O53 S22 1.484649 1_555
O54 S23 1.488991 1_555
O55 S24 1.471091 1_555
O56 S25 1.482279 1_555
O57 S26 1.471601 1_555
O58 Si7 1.639745 1_555
O59 Si8 1.644673 1_555
O60 Si7 1.654694 1_555
O60 Sc10 1.966931 1_555
O61 Si8 1.633849 1_555
O62 S23 1.502801 1_555
O62 Sc10 2.155610 1_555
O63 S24 1.492738 1_555
O64 S25 1.482551 1_555
O64 Sc10 2.262003 1_555
O65 S26 1.469991 1_555
O66 Si5 1.618040 1_555
O67 Si6 1.643023 1_555
O67 Sc11 1.973807 1_555
O68 S21 1.464697 1_555
O69 S22 1.470860 1_555
O69 Sc11 2.340229 1_555
O70 S19 1.485108 1_555
O71 S20 1.489151 1_555
O71 Sc11 2.265366 1_555
O72 Si7 1.662024 1_555
O72 Sc0 1.982794 1_555
O73 Si8 1.659814 1_555
O73 Sc1 1.957283 1_555
O74 S23 1.462892 1_555
O74 Sc1 2.375100 1_555
O75 S24 1.481716 1_545
O75 Sc0 2.295095 1_645
O76 S25 1.507590 1_555
O76 Sc0 2.183477 1_545
O77 S26 1.494656 1_555
O77 Sc1 2.231535 1_545
O78 Si5 1.652576 1_555
O78 Sc2 2.017672 1_555
O79 Si6 1.655969 1_555
O79 Sc3 2.018811 1_555
O80 S21 1.495230 1_555
O80 Sc2 2.286471 1_565
O81 S22 1.497336 1_555
O81 Sc3 2.273720 1_565
O82 S19 1.472655 1_555
O82 Sc3 2.356502 1_565
O83 S20 1.467476 1_555
O83 Sc2 2.446526 1_665
O84 Si4 1.646903 1_555
O85 S8 1.488447 1_555
O86 S9 1.493209 1_555
O87 S10 1.485583 1_555
O88 S11 1.478989 1_555
O89 S12 1.486641 1_555
O90 S13 1.487787 1_555
O91 S14 1.492207 1_555
O92 S15 1.484677 1_555
O93 S16 1.485453 1_555
O94 S17 1.496707 1_555
O95 S18 1.486335 1_555
O96 S6 1.500340 1_555
O96 Sc4 2.374110 1_555
O97 S7 1.494240 1_545
O98 Si2 1.644488 1_555
O98 Sc4 2.055756 1_555
O99 Si3 1.634518 1_555
O100 S5 1.504755 1_555
O100 Sc4 2.386698 1_555
O101 S4 1.490264 1_555
O102 S0 1.494677 1_555
O103 S1 1.515457 1_555
O103 Sc5 2.260365 1_555
O104 S3 1.493769 1_555
O105 S2 1.513939 1_655
O105 Sc5 2.308521 1_555
O106 Si0 1.628320 1_545
O107 Si1 1.678914 1_555
O107 Sc5 1.908978 1_555
O108 S19 1.504967 1_555
O108 Sc6 2.162303 1_555
O109 S20 1.521154 1_555
O109 Sc7 2.290180 1_555
O110 Si6 1.654778 1_555
O110 Sc6 1.921187 1_555
O111 Si5 1.651285 1_655
O111 Sc7 1.902580 1_555
O112 S21 1.510113 1_545
O112 Sc6 2.198881 1_555
O113 S22 1.515125 1_545
O113 Sc7 2.271737 1_555
O114 S23 1.509506 1_545
O114 Sc8 2.383899 1_555
O115 S24 1.512109 1_545
O115 Sc9 2.172976 1_555
O116 S25 1.492423 1_555
O116 Sc8 2.534754 1_555
O117 S26 1.513935 1_555
O117 Sc9 2.215202 1_555
O118 Si8 1.637434 1_555
O118 Sc8 1.966675 1_555
O119 Si7 1.651364 1_655
O119 Sc9 1.957454 1_555
O120 S17 1.491142 1_555
O121 S18 1.491809 1_555
O122 S14 1.495044 1_455
O123 S13 1.488825 1_555
O124 S15 1.486210 1_565
O125 S16 1.484813 1_565
O126 S9 1.496841 1_565
O127 S10 1.481089 1_565
O128 S11 1.495243 1_555
O129 S12 1.474593 1_555
O130 S8 1.487532 1_455
O131 Si4 1.653677 1_555
O132 Si0 1.659701 1_555
O132 Sc10 2.005118 1_555
O133 Si1 1.634676 1_565
O134 S0 1.485995 1_555
O134 Sc10 2.274745 1_555
O135 S1 1.466428 1_555
O136 S2 1.502461 1_555
O136 Sc10 2.257874 1_555
O137 S3 1.484568 1_555
O138 Si2 1.646437 1_555
O139 Si3 1.660796 1_555
O139 Sc11 1.953802 1_555
O140 S4 1.483914 1_455
O141 S5 1.511329 1_555
O141 Sc11 2.183577 1_555
O142 S6 1.472662 1_565
O143 S7 1.479133 1_555
O143 Sc11 2.254975 1_555
