# generated using pymatgen
data_La2MgTi2(AgO4)2
_symmetry_space_group_name_H-M   'P 1'
_cell_length_a   3.74340700
_cell_length_b   3.74340700
_cell_length_c   15.51822500
_cell_angle_alpha   90.00000000
_cell_angle_beta   90.00000000
_cell_angle_gamma   90.00000000
_symmetry_Int_Tables_number   1
_chemical_formula_structural   La2MgTi2(AgO4)2
_chemical_formula_sum   'La2 Mg1 Ti2 Ag2 O8'
_cell_volume   217.45837617
_cell_formula_units_Z   1
loop_
 _symmetry_equiv_pos_site_id
 _symmetry_equiv_pos_as_xyz
  1  'x, y, z'
loop_
 _atom_site_type_symbol
 _atom_site_label
 _atom_site_symmetry_multiplicity
 _atom_site_fract_x
 _atom_site_fract_y
 _atom_site_fract_z
 _atom_site_occupancy
  La  La0  1  0.75000000  0.75000000  0.09414900  1
  La  La1  1  0.25000000  0.25000000  0.90585100  1
  Mg  Mg0  1  0.75000000  0.25000000  0.50000000  1
  Ti  Ti0  1  0.75000000  0.75000000  0.75978100  1
  Ti  Ti1  1  0.25000000  0.25000000  0.24021900  1
  Ag  Ag0  1  0.75000000  0.75000000  0.37190100  1
  Ag  Ag1  1  0.25000000  0.25000000  0.62809900  1
  O  O0  1  0.75000000  0.75000000  0.64384200  1
  O  O1  1  0.25000000  0.25000000  0.35615800  1
  O  O2  1  0.75000000  0.75000000  0.94083300  1
  O  O3  1  0.25000000  0.25000000  0.05916700  1
  O  O4  1  0.25000000  0.75000000  0.79409400  1
  O  O5  1  0.75000000  0.25000000  0.79462200  1
  O  O6  1  0.25000000  0.75000000  0.20590600  1
  O  O7  1  0.75000000  0.25000000  0.20537800  1
loop_
_geom_bond_atom_site_label_1
_geom_bond_atom_site_label_2
_geom_bond_distance
_geom_bond_site_symmetry_2
La0 O2 2.379192 1_554
La0 O7 2.546098 1_565
La0 O7 2.546098 1_555
La0 O6 2.551660 1_555
La0 O6 2.551660 1_655
La0 O3 2.702081 1_555
La0 O3 2.702081 1_655
La0 O3 2.702081 1_665
La0 O3 2.702081 1_565
La1 O3 2.379192 1_556
La1 O5 2.546098 1_455
La1 O5 2.546098 1_555
La1 O4 2.551660 1_555
La1 O4 2.551660 1_545
La1 O2 2.702081 1_445
La1 O2 2.702081 1_545
La1 O2 2.702081 1_455
La1 O2 2.702081 1_555
Ag0 O1 2.658239 1_555
Ag0 O1 2.658239 1_655
Ag0 O1 2.658239 1_565
Ag0 O1 2.658239 1_665
Ag0 Mg0 2.730366 1_565
Ag0 Mg0 2.730366 1_555
Ag1 O0 2.658239 1_445
Ag1 O0 2.658239 1_545
Ag1 O0 2.658239 1_555
Ag1 O0 2.658239 1_455
Ag1 Mg0 2.730366 1_455
Ag1 Mg0 2.730366 1_555
O0 Ti0 1.799167 1_555
O1 Ti1 1.799167 1_555
O2 Ti0 2.809606 1_555
O3 Ti1 2.809606 1_555
O4 Ti0 1.945972 1_455
O4 Ti0 1.945972 1_555
O5 Ti0 1.948230 1_555
O5 Ti0 1.948230 1_545
O6 Ti1 1.945972 1_565
O6 Ti1 1.945972 1_555
O7 Ti1 1.948230 1_555
O7 Ti1 1.948230 1_655
