# generated using pymatgen
data_Mg(H2N)2
_symmetry_space_group_name_H-M   'P 1'
_cell_length_a   12.74655052
_cell_length_b   12.74655052
_cell_length_c   12.74655052
_cell_angle_alpha   131.33875310
_cell_angle_beta   131.33875310
_cell_angle_gamma   71.27542111
_symmetry_Int_Tables_number   1
_chemical_formula_structural   Mg(H2N)2
_chemical_formula_sum   'Mg16 H64 N32'
_cell_volume   1142.81262432
_cell_formula_units_Z   16
loop_
 _symmetry_equiv_pos_site_id
 _symmetry_equiv_pos_as_xyz
  1  'x, y, z'
loop_
 _atom_site_type_symbol
 _atom_site_label
 _atom_site_symmetry_multiplicity
 _atom_site_fract_x
 _atom_site_fract_y
 _atom_site_fract_z
 _atom_site_occupancy
  Mg  Mg0  1  0.16922800  0.93241200  0.98016200  1
  Mg  Mg1  1  0.31093300  0.54774900  0.98016200  1
  Mg  Mg2  1  0.56758800  0.33077200  0.01983800  1
  Mg  Mg3  1  0.08077200  0.56093300  0.26318400  1
  Mg  Mg4  1  0.29774900  0.81758800  0.73681600  1
  Mg  Mg5  1  0.68241200  0.20225100  0.26318400  1
  Mg  Mg6  1  0.93906700  0.41922800  0.73681600  1
  Mg  Mg7  1  0.95225100  0.18906700  0.01983800  1
  Mg  Mg8  1  0.58077200  0.31758800  0.51983800  1
  Mg  Mg9  1  0.43906700  0.70225100  0.51983800  1
  Mg  Mg10  1  0.18241200  0.91922800  0.48016200  1
  Mg  Mg11  1  0.66922800  0.68906700  0.23681600  1
  Mg  Mg12  1  0.45225100  0.43241200  0.76318400  1
  Mg  Mg13  1  0.06758800  0.04774900  0.23681600  1
  Mg  Mg14  1  0.81093300  0.83077200  0.76318400  1
  Mg  Mg15  1  0.79774900  0.06093300  0.48016200  1
  H  H0  1  0.00562500  0.67941700  0.73924500  1
  H  H1  1  0.23362000  0.55982800  0.73924500  1
  H  H2  1  0.82058300  0.49437500  0.26075500  1
  H  H3  1  0.24437500  0.48362000  0.17379100  1
  H  H4  1  0.30982800  0.07058300  0.82620900  1
  H  H5  1  0.42941700  0.19017200  0.17379100  1
  H  H6  1  0.01638000  0.25562500  0.82620900  1
  H  H7  1  0.94017200  0.26638000  0.26075500  1
  H  H8  1  0.74437500  0.57058300  0.76075500  1
  H  H9  1  0.51638000  0.69017200  0.76075500  1
  H  H10  1  0.92941700  0.75562500  0.23924500  1
  H  H11  1  0.50562500  0.76638000  0.32620900  1
  H  H12  1  0.44017200  0.17941700  0.67379100  1
  H  H13  1  0.32058300  0.05982800  0.32620900  1
  H  H14  1  0.73362000  0.99437500  0.67379100  1
  H  H15  1  0.80982800  0.98362000  0.23924500  1
  H  H16  1  0.95061000  0.74400500  0.64090100  1
  H  H17  1  0.19029200  0.39689700  0.64090100  1
  H  H18  1  0.75599500  0.54939000  0.35909900  1
  H  H19  1  0.29939000  0.44029200  0.29339500  1
  H  H20  1  0.14689700  0.00599500  0.70660500  1
  H  H21  1  0.49400500  0.35310300  0.29339500  1
  H  H22  1  0.05970800  0.20061000  0.70660500  1
  H  H23  1  0.10310300  0.30970800  0.35909900  1
  H  H24  1  0.79939000  0.50599500  0.85909900  1
  H  H25  1  0.55970800  0.85310300  0.85909900  1
  H  H26  1  0.99400500  0.70061000  0.14090100  1
  H  H27  1  0.65662600  0.58006100  0.53806500  1
  H  H28  1  0.45061000  0.80970800  0.20660500  1
  H  H29  1  0.25599500  0.89689700  0.20660500  1
  H  H30  1  0.69029200  0.04939000  0.79339500  1
  H  H31  1  0.64689700  0.94029200  0.14090100  1
  H  H32  1  0.84600000  0.45380600  0.50791400  1
  H  H33  1  0.16191400  0.55410800  0.50791400  1
  H  H34  1  0.04619400  0.65400000  0.49208600  1
  H  H35  1  0.40400000  0.41191400  0.10780600  1
  H  H36  1  0.30410800  0.29619400  0.89219400  1
  H  H37  1  0.20380600  0.19589200  0.10780600  1
  H  H38  1  0.08808600  0.09600000  0.89219400  1
  H  H39  1  0.94589200  0.33808600  0.49208600  1
  H  H40  1  0.90400000  0.79619400  0.99208600  1
  H  H41  1  0.58808600  0.69589200  0.99208600  1
  H  H42  1  0.70380600  0.59600000  0.00791400  1
  H  H43  1  0.34600000  0.83808600  0.39219400  1
  H  H44  1  0.44589200  0.95380600  0.60780600  1
  H  H45  1  0.54619400  0.05410800  0.39219400  1
  H  H46  1  0.66191400  0.15400000  0.60780600  1
  H  H47  1  0.80410800  0.91191400  0.00791400  1
  H  H48  1  0.70800300  0.13143900  0.03806500  1
  H  H49  1  0.88143900  0.34337400  0.92343500  1
  H  H50  1  0.41993900  0.95800300  0.07656500  1
  H  H51  1  0.54199700  0.08006100  0.92343500  1
  H  H52  1  0.15662600  0.61856100  0.07656500  1
  H  H53  1  0.83006100  0.40662600  0.03806500  1
  H  H54  1  0.36856100  0.79199700  0.96193500  1
  H  H55  1  0.09337400  0.66993900  0.96193500  1
  H  H56  1  0.04199700  0.11856100  0.46193500  1
  H  H57  1  0.86856100  0.90662600  0.57656500  1
  H  H58  1  0.33006100  0.29199700  0.42343500  1
  H  H59  1  0.20800300  0.16993900  0.57656500  1
  H  H60  1  0.59337400  0.63143900  0.42343500  1
  H  H61  1  0.91993900  0.84337400  0.46193500  1
  H  H62  1  0.38143900  0.45800300  0.53806500  1
  H  H63  1  0.60310300  0.24400500  0.79339500  1
  N  N0  1  0.52197200  0.26629500  0.28974900  1
  N  N1  1  0.26777700  0.52345400  0.28974900  1
  N  N2  1  0.23370500  0.97802800  0.71025100  1
  N  N3  1  0.72802800  0.51777700  0.24432300  1
  N  N4  1  0.27345400  0.48370500  0.75567700  1
  N  N5  1  0.01629500  0.22654600  0.24432300  1
  N  N6  1  0.98222300  0.77197200  0.75567700  1
  N  N7  1  0.97654600  0.23222300  0.71025100  1
  N  N8  1  0.22802800  0.98370500  0.21025100  1
  N  N9  1  0.48222300  0.72654600  0.21025100  1
  N  N10  1  0.51629500  0.27197200  0.78974900  1
  N  N11  1  0.02197200  0.73222300  0.25567700  1
  N  N12  1  0.47654600  0.76629500  0.74432300  1
  N  N13  1  0.73370500  0.02345400  0.25567700  1
  N  N14  1  0.76777700  0.47802800  0.74432300  1
  N  N15  1  0.77345400  0.01777700  0.78974900  1
  N  N16  1  0.13490600  0.63490600  0.50000000  1
  N  N17  1  0.38490600  0.38490600  0.00000000  1
  N  N18  1  0.11509400  0.11509400  0.00000000  1
  N  N19  1  0.86509400  0.36509400  0.50000000  1
  N  N20  1  0.61509400  0.61509400  0.00000000  1
  N  N21  1  0.36509400  0.86509400  0.50000000  1
  N  N22  1  0.63490600  0.13490600  0.50000000  1
  N  N23  1  0.88490600  0.88490600  0.00000000  1
  N  N24  1  0.62500000  0.66667100  0.54167100  1
  N  N25  1  0.41667100  0.37500000  0.54167100  1
  N  N26  1  0.83332900  0.87500000  0.45832900  1
  N  N27  1  0.12500000  0.08332900  0.45832900  1
  N  N28  1  0.12500000  0.58332900  0.95832900  1
  N  N29  1  0.33332900  0.87500000  0.95832900  1
  N  N30  1  0.91667100  0.37500000  0.04167100  1
  N  N31  1  0.62500000  0.16667100  0.04167100  1
loop_
_geom_bond_atom_site_label_1
_geom_bond_atom_site_label_2
_geom_bond_distance
_geom_bond_site_symmetry_2
Mg0 N18 2.093644 1_566
Mg0 N6 2.107388 1_455
Mg0 N8 2.113883 1_556
Mg0 N29 2.122604 1_555
Mg1 N17 2.093633 1_556
Mg1 N4 2.107401 1_555
Mg1 N9 2.113895 1_556
Mg1 N28 2.122591 1_555
Mg2 N17 2.093644 1_555
Mg2 N3 2.107388 1_555
Mg2 N10 2.113883 1_554
Mg2 N31 2.122604 1_555
Mg3 N16 2.093639 1_555
Mg3 N1 2.107389 1_555
Mg3 N11 2.113895 1_555
Mg3 N30 2.122597 1_455
Mg4 N16 2.093639 1_555
Mg4 N2 2.107389 1_555
Mg4 N12 2.113895 1_555
Mg4 N29 2.122597 1_555
Mg5 N19 2.093639 1_555
Mg5 N0 2.107389 1_555
Mg5 N13 2.113895 1_555
Mg5 N31 2.122597 1_555
Mg6 N19 2.093639 1_555
Mg6 N7 2.107389 1_555
Mg6 N14 2.113895 1_555
Mg6 N28 2.122597 1_655
Mg7 N18 2.093633 1_655
Mg7 N5 2.107401 1_655
Mg7 N15 2.113895 1_554
Mg7 N30 2.122591 1_555
Mg8 N22 2.093644 1_555
Mg8 N14 2.107388 1_555
Mg8 N0 2.113883 1_555
Mg8 N25 2.122604 1_555
Mg9 N21 2.093633 1_555
Mg9 N12 2.107401 1_555
Mg9 N1 2.113895 1_555
Mg9 N24 2.122591 1_555
Mg10 N21 2.093644 1_555
Mg10 N11 2.107388 1_555
Mg10 N2 2.113883 1_555
Mg10 N27 2.122604 1_565
Mg11 N20 2.093639 1_555
Mg11 N9 2.107389 1_555
Mg11 N3 2.113895 1_555
Mg11 N26 2.122597 1_555
Mg12 N20 2.093639 1_556
Mg12 N10 2.107389 1_555
Mg12 N4 2.113895 1_555
Mg12 N25 2.122597 1_555
Mg13 N23 2.093639 1_445
Mg13 N8 2.107389 1_545
Mg13 N5 2.113895 1_555
Mg13 N27 2.122597 1_555
Mg14 N23 2.093639 1_556
Mg14 N15 2.107389 1_565
Mg14 N6 2.113895 1_555
Mg14 N24 2.122597 1_555
Mg15 N22 2.093633 1_555
Mg15 N13 2.107401 1_555
Mg15 N7 2.113895 1_555
Mg15 N26 2.122591 1_545
H0 N6 1.027055 1_455
H1 N4 1.027055 1_555
H2 N3 1.027055 1_555
H3 N1 1.027067 1_555
H4 N2 1.027056 1_545
H5 N0 1.027056 1_555
H6 N7 1.027067 1_455
H7 N5 1.027055 1_655
H8 N14 1.027055 1_555
H9 N12 1.027055 1_555
H10 N11 1.027055 1_655
H11 N9 1.027067 1_555
H12 N10 1.027056 1_555
H13 N8 1.027056 1_545
H14 N15 1.027067 1_565
H15 N13 1.027055 1_565
H16 N6 1.026798 1_555
H17 N4 1.026787 1_555
H18 N3 1.026798 1_555
H19 N1 1.026786 1_555
H20 N2 1.026786 1_545
H21 N0 1.026786 1_555
H22 N7 1.026786 1_455
H23 N5 1.026787 1_555
H24 N14 1.026798 1_555
H25 N12 1.026787 1_555
H26 N11 1.026798 1_655
H27 N24 1.027182 1_555
H28 N9 1.026786 1_555
H29 N8 1.026786 1_555
H30 N15 1.026786 1_555
H31 N13 1.026787 1_565
H32 N19 1.026210 1_555
H33 N16 1.026210 1_555
H34 N16 1.026210 1_555
H35 N17 1.026210 1_555
H36 N17 1.026210 1_556
H37 N18 1.026210 1_555
H38 N18 1.026210 1_556
H39 N19 1.026210 1_555
H40 N23 1.026210 1_556
H41 N20 1.026210 1_556
H42 N20 1.026210 1_555
H43 N21 1.026210 1_555
H44 N21 1.026210 1_555
H45 N22 1.026210 1_555
H46 N22 1.026210 1_555
H47 N23 1.026210 1_555
H48 N31 1.027170 1_555
H49 N30 1.027182 1_556
H50 N29 1.027176 1_554
H51 N31 1.027176 1_556
H52 N28 1.027182 1_554
H53 N30 1.027182 1_555
H54 N29 1.027170 1_555
H55 N28 1.027182 1_555
H56 N27 1.027170 1_555
H57 N26 1.027182 1_555
H58 N25 1.027176 1_555
H59 N27 1.027176 1_555
H60 N24 1.027182 1_555
H61 N26 1.027182 1_555
H62 N25 1.027170 1_555
H63 N10 1.026786 1_555
