# generated using pymatgen
data_Re2PbO8
_symmetry_space_group_name_H-M   'P 1'
_cell_length_a   11.36747226
_cell_length_b   11.36763367
_cell_length_c   4.61962450
_cell_angle_alpha   89.99968117
_cell_angle_beta   90.00083400
_cell_angle_gamma   119.99954299
_symmetry_Int_Tables_number   1
_chemical_formula_structural   Re2PbO8
_chemical_formula_sum   'Re6 Pb3 O24'
_cell_volume   516.97945034
_cell_formula_units_Z   3
loop_
 _symmetry_equiv_pos_site_id
 _symmetry_equiv_pos_as_xyz
  1  'x, y, z'
loop_
 _atom_site_type_symbol
 _atom_site_label
 _atom_site_symmetry_multiplicity
 _atom_site_fract_x
 _atom_site_fract_y
 _atom_site_fract_z
 _atom_site_occupancy
  Re  Re0  1  0.37910754  0.00001192  0.98662520  1
  Re  Re1  1  0.99998330  0.37909328  0.98659796  1
  Re  Re2  1  0.62090416  0.62089037  0.98662517  1
  Re  Re3  1  0.28855176  0.28854648  0.49139771  1
  Re  Re4  1  0.00000940  0.71145857  0.49141348  1
  Re  Re5  1  0.71144414  0.99999729  0.49138439  1
  Pb  Pb0  1  0.00000369  0.00000457  0.00865995  1
  Pb  Pb1  1  0.33333205  0.66666144  0.45886357  1
  Pb  Pb2  1  0.66667662  0.33333569  0.45892060  1
  O  O0  1  0.61615903  0.61614955  0.61349604  1
  O  O1  1  0.99997431  0.38383288  0.61346997  1
  O  O2  1  0.38385394  0.00001258  0.61349856  1
  O  O3  1  0.14152181  0.14150692  0.60409847  1
  O  O4  1  0.00001544  0.85849762  0.60409345  1
  O  O5  1  0.85848252  0.00000212  0.60410545  1
  O  O6  1  0.28888461  0.43465733  0.60795534  1
  O  O7  1  0.56532925  0.85422548  0.60794163  1
  O  O8  1  0.14578523  0.71111830  0.60797494  1
  O  O9  1  0.23187898  0.00000823  0.09222243  1
  O  O10  1  0.99998705  0.23187036  0.09219443  1
  O  O11  1  0.76812115  0.76812023  0.09223014  1
  O  O12  1  0.52503504  0.14838561  0.10127855  1
  O  O13  1  0.85161295  0.37665736  0.10125207  1
  O  O14  1  0.62334723  0.47495879  0.10127374  1
  O  O15  1  0.14835460  0.52502923  0.10125343  1
  O  O16  1  0.37667572  0.85164363  0.10128083  1
  O  O17  1  0.47496323  0.62331994  0.10126632  1
  O  O18  1  0.71245261  0.00000454  0.11826247  1
  O  O19  1  0.00000648  0.71245507  0.11829551  1
  O  O20  1  0.28754066  0.28753438  0.11827890  1
  O  O21  1  0.71108983  0.14576241  0.60794550  1
  O  O22  1  0.85424255  0.56534636  0.60799320  1
  O  O23  1  0.43467315  0.28889946  0.60795559  1
loop_
_geom_bond_atom_site_label_1
_geom_bond_atom_site_label_2
_geom_bond_distance
_geom_bond_site_symmetry_2
O0 Re2 1.724559 1_555
O1 Re1 1.724554 1_555
O2 Re0 1.724550 1_555
O3 Re3 1.750651 1_555
O3 Pb0 2.465894 1_556
O4 Re4 1.750635 1_555
O4 Pb0 2.465927 1_566
O5 Re5 1.750658 1_545
O5 Pb0 2.465898 1_656
O6 Re3 1.744240 1_555
O6 Pb1 2.520454 1_555
O7 Re5 1.744230 1_555
O7 Pb1 2.520395 1_555
O8 Re4 1.744230 1_555
O8 Pb1 2.520413 1_555
O9 Re0 1.743248 1_554
O9 Pb0 2.663927 1_555
O10 Re1 1.743240 1_554
O10 Pb0 2.663961 1_655
O11 Re2 1.743234 1_554
O11 Pb0 2.664090 1_665
O12 Re0 1.754767 1_554
O12 Pb2 2.521356 1_555
O13 Re1 1.754775 1_554
O13 Pb2 2.521291 1_555
O14 Re2 1.754788 1_554
O14 Pb2 2.521326 1_555
O15 Re1 1.754800 1_454
O15 Pb1 2.521379 1_555
O16 Re0 1.754789 1_564
O16 Pb1 2.521362 1_555
O17 Re2 1.754792 1_554
O17 Pb1 2.521328 1_555
O18 Re5 1.723721 1_545
O19 Re4 1.723702 1_555
O20 Re3 1.723707 1_555
O21 Re5 1.744223 1_545
O21 Pb2 2.520289 1_555
O22 Re4 1.744221 1_655
O22 Pb2 2.520507 1_555
O23 Re3 1.744214 1_555
O23 Pb2 2.520390 1_555
