# generated using pymatgen
data_Na42Ca20Ta4Si15(S7O48)3
_symmetry_space_group_name_H-M   'P 1'
_cell_length_a   18.93334703
_cell_length_b   9.48615344
_cell_length_c   22.84947694
_cell_angle_alpha   90.03569622
_cell_angle_beta   90.07379403
_cell_angle_gamma   120.00796477
_symmetry_Int_Tables_number   1
_chemical_formula_structural   Na42Ca20Ta4Si15(S7O48)3
_chemical_formula_sum   'Na42 Ca20 Ta4 Si15 S21 O144'
_cell_volume   3553.76534957
_cell_formula_units_Z   1
loop_
 _symmetry_equiv_pos_site_id
 _symmetry_equiv_pos_as_xyz
  1  'x, y, z'
loop_
 _atom_site_type_symbol
 _atom_site_label
 _atom_site_symmetry_multiplicity
 _atom_site_fract_x
 _atom_site_fract_y
 _atom_site_fract_z
 _atom_site_occupancy
  Na  Na0  1  0.30520862  0.99238802  0.22824578  1
  Na  Na1  1  0.80058273  0.98529159  0.22884488  1
  Na  Na2  1  0.19634904  0.37371480  0.24390133  1
  Na  Na3  1  0.69505737  0.36861078  0.23149588  1
  Na  Na4  1  0.99819772  0.64702013  0.24731379  1
  Na  Na5  1  0.49742537  0.65415828  0.24420463  1
  Na  Na6  1  0.29931517  0.61440815  0.73297550  1
  Na  Na7  1  0.80860837  0.61902749  0.73105491  1
  Na  Na8  1  0.99981602  0.34087432  0.75278850  1
  Na  Na9  1  0.49521630  0.34414488  0.75421100  1
  Na  Na10  1  0.19257438  0.01811352  0.74909591  1
  Na  Na11  1  0.69703477  0.02119848  0.74886825  1
  Na  Na12  1  0.17251142  0.34267323  0.59464010  1
  Na  Na13  1  0.67365920  0.36706913  0.59799651  1
  Na  Na14  1  0.30817339  0.96101904  0.59568989  1
  Na  Na15  1  0.17103424  0.97209555  0.07050358  1
  Na  Na16  1  0.67361006  0.00326877  0.08819326  1
  Na  Na17  1  0.81202656  0.66197102  0.08903600  1
  Na  Na18  1  0.48069355  0.66360936  0.92220316  1
  Na  Na19  1  0.00355243  0.69436247  0.92269446  1
  Na  Na20  1  0.33331736  0.02325411  0.91694150  1
  Na  Na21  1  0.85423485  0.03783222  0.91746126  1
  Na  Na22  1  0.16510777  0.28139532  0.90337629  1
  Na  Na23  1  0.66803654  0.29445085  0.92245652  1
  Na  Na24  1  0.48132527  0.29956128  0.41722933  1
  Na  Na25  1  0.98357991  0.29872529  0.42150823  1
  Na  Na26  1  0.16760336  0.04458892  0.42166523  1
  Na  Na27  1  0.66755964  0.03706516  0.40304068  1
  Na  Na28  1  0.35218221  0.66417994  0.41739807  1
  Na  Na29  1  0.85224441  0.67145201  0.41943924  1
  Na  Na30  1  0.99619497  0.95332803  0.51450568  1
  Na  Na31  1  0.49136711  0.94777733  0.50647659  1
  Na  Na32  1  0.00955097  0.02670833  0.99610846  1
  Na  Na33  1  0.48811806  0.03636645  0.01188372  1
  Na  Na34  1  0.30815504  0.28616717  0.82915847  1
  Na  Na35  1  0.82827972  0.31946360  0.82255352  1
  Na  Na36  1  0.32379490  0.33383734  0.31959007  1
  Na  Na37  1  0.82250579  0.33187660  0.31961189  1
  Na  Na38  1  0.18577736  0.68565258  0.16299900  1
  Na  Na39  1  0.67224031  0.66230335  0.16062373  1
  Na  Na40  1  0.17008119  0.67885757  0.66480959  1
  Na  Na41  1  0.68668950  0.68520252  0.66584288  1
  Ca  Ca0  1  0.00048114  0.99223979  0.34684122  1
  Ca  Ca1  1  0.49728965  0.98845507  0.34424592  1
  Ca  Ca2  1  0.00024533  0.00436730  0.84728967  1
  Ca  Ca3  1  0.49954737  0.00826582  0.84842550  1
  Ca  Ca4  1  0.33046145  0.33299831  0.68038257  1
  Ca  Ca5  1  0.83381295  0.33158290  0.67878443  1
  Ca  Ca6  1  0.33205605  0.33205142  0.17702068  1
  Ca  Ca7  1  0.83136060  0.32734081  0.17842150  1
  Ca  Ca8  1  0.33131638  0.31057937  0.99010951  1
  Ca  Ca9  1  0.82966000  0.31581503  0.99438389  1
  Ca  Ca10  1  0.32722906  0.34276684  0.49687649  1
  Ca  Ca11  1  0.83652850  0.35570330  0.49484739  1
  Ca  Ca12  1  0.17153256  0.67192391  0.01596712  1
  Ca  Ca13  1  0.66672966  0.66256807  0.01993223  1
  Ca  Ca14  1  0.16718177  0.67104964  0.52055823  1
  Ca  Ca15  1  0.67149016  0.67804767  0.51959409  1
  Ca  Ca16  1  0.17289668  0.68131238  0.30948180  1
  Ca  Ca17  1  0.67198872  0.67525223  0.30913565  1
  Ca  Ca18  1  0.17227000  0.67765031  0.81364762  1
  Ca  Ca19  1  0.67246555  0.66403448  0.81010040  1
  Ta  Ta0  1  0.99755270  0.99913413  0.65228301  1
  Ta  Ta1  1  0.49596969  0.00213710  0.65395336  1
  Ta  Ta2  1  0.99623796  0.98976603  0.15406503  1
  Ta  Ta3  1  0.49786827  0.99427828  0.15209664  1
  Si  Si0  1  0.15072407  0.00258835  0.25226618  1
  Si  Si1  1  0.64919671  0.99821127  0.25250338  1
  Si  Si2  1  0.35062117  0.69751197  0.25441056  1
  Si  Si3  1  0.84960887  0.69428936  0.25517299  1
  Si  Si4  1  0.14853479  0.30317159  0.75078111  1
  Si  Si5  1  0.65075295  0.29937823  0.75074223  1
  Si  Si6  1  0.34870672  0.00361463  0.75437426  1
  Si  Si7  1  0.85096453  0.00189988  0.75463933  1
  Si  Si8  1  0.17262461  0.02446716  0.58250307  1
  Si  Si9  1  0.33912931  0.65575532  0.58247637  1
  Si  Si10  1  0.83413143  0.65119247  0.58318350  1
  Si  Si11  1  0.33446898  0.01676032  0.08535742  1
  Si  Si12  1  0.83832498  0.02158268  0.08351273  1
  Si  Si13  1  0.67310631  0.32170592  0.08420709  1
  Si  Si14  1  0.16470078  0.97475554  0.91753802  1
  S  S0  1  0.00199816  0.29142142  0.24941816  1
  S  S1  1  0.50109271  0.29274500  0.25005695  1
  S  S2  1  0.00012515  0.70812766  0.74802295  1
  S  S3  1  0.50327155  0.71495213  0.74829917  1
  S  S4  1  0.48844482  0.32025616  0.58533711  1
  S  S5  1  0.98805642  0.31699886  0.58439353  1
  S  S6  1  0.67167602  0.02810355  0.58426315  1
  S  S7  1  0.48886997  0.65839376  0.08552859  1
  S  S8  1  0.98846501  0.65413628  0.08831236  1
  S  S9  1  0.16998188  0.31719471  0.08755876  1
  S  S10  1  0.32173959  0.66274176  0.91576360  1
  S  S11  1  0.81787244  0.65583643  0.91756672  1
  S  S12  1  0.01264296  0.36966825  0.91509531  1
  S  S13  1  0.51529821  0.37005048  0.91329113  1
  S  S14  1  0.66627562  0.96685713  0.91536909  1
  S  S15  1  0.32069962  0.98033336  0.41775129  1
  S  S16  1  0.81890517  0.98040717  0.41577587  1
  S  S17  1  0.16611888  0.36619336  0.41532040  1
  S  S18  1  0.66480291  0.36221408  0.41792942  1
  S  S19  1  0.01313560  0.65656691  0.41341652  1
  S  S20  1  0.51503349  0.65923584  0.41595341  1
  O  O0  1  0.11391134  0.02031564  0.31395843  1
  O  O1  1  0.61166306  0.01359082  0.31434926  1
  O  O2  1  0.38879622  0.76368457  0.31892073  1
  O  O3  1  0.89040168  0.77490900  0.31715006  1
  O  O4  1  0.49071759  0.21059252  0.30695060  1
  O  O5  1  0.99147750  0.20667224  0.30538403  1
  O  O6  1  0.10908098  0.21047947  0.81132938  1
  O  O7  1  0.61144923  0.20112557  0.81044085  1
  O  O8  1  0.49218646  0.77868798  0.80423943  1
  O  O9  1  0.98928595  0.77244264  0.80374083  1
  O  O10  1  0.39375849  0.00905296  0.81436056  1
  O  O11  1  0.89005734  0.01144568  0.81820417  1
  O  O12  1  0.41519575  0.00418130  0.69862596  1
  O  O13  1  0.91666411  0.99946072  0.70349379  1
  O  O14  1  0.08622644  0.17586947  0.69603262  1
  O  O15  1  0.58933182  0.17440776  0.69391583  1
  O  O16  1  0.00105340  0.81563109  0.69869770  1
  O  O17  1  0.50299412  0.82474188  0.69905138  1
  O  O18  1  0.41788359  0.83251808  0.20490826  1
  O  O19  1  0.91538767  0.82759356  0.20108146  1
  O  O20  1  0.00153881  0.18249816  0.20018191  1
  O  O21  1  0.50187606  0.18573348  0.20201410  1
  O  O22  1  0.08656391  0.00479604  0.19843136  1
  O  O23  1  0.58644788  0.99962746  0.19942257  1
  O  O24  1  0.44960928  0.33768788  0.63787591  1
  O  O25  1  0.94763908  0.33764995  0.63466044  1
  O  O26  1  0.23763146  0.11967378  0.63468544  1
  O  O27  1  0.72002837  0.10554318  0.63723740  1
  O  O28  1  0.32727516  0.53658342  0.63633796  1
  O  O29  1  0.81962845  0.51945708  0.63404221  1
  O  O30  1  0.44961195  0.55901263  0.13722576  1
  O  O31  1  0.94818635  0.56322109  0.14170394  1
  O  O32  1  0.32398613  0.11660187  0.13901667  1
  O  O33  1  0.82543887  0.11231475  0.13882489  1
  O  O34  1  0.21762626  0.34020814  0.14157350  1
  O  O35  1  0.73501305  0.35587250  0.13865828  1
  O  O36  1  0.21136726  0.29318600  0.03648807  1
  O  O37  1  0.70679446  0.27388554  0.02537961  1
  O  O38  1  0.44304228  0.58158517  0.03114910  1
  O  O39  1  0.93679047  0.58003804  0.03593071  1
  O  O40  1  0.35232690  0.11264961  0.02294571  1
  O  O41  1  0.85217731  0.11770344  0.02199726  1
  O  O42  1  0.20336730  0.13421346  0.52195330  1
  O  O43  1  0.71260159  0.12775154  0.53162888  1
  O  O44  1  0.35536565  0.59588953  0.51937163  1
  O  O45  1  0.85040966  0.59344529  0.51912337  1
  O  O46  1  0.43845085  0.29330741  0.53218014  1
  O  O47  1  0.94366246  0.30380454  0.52896491  1
  O  O48  1  0.27557862  0.67434594  0.96526336  1
  O  O49  1  0.77461961  0.66613395  0.96990473  1
  O  O50  1  0.06399166  0.46319266  0.96498406  1
  O  O51  1  0.56885184  0.46939062  0.96142313  1
  O  O52  1  0.15802527  0.86769337  0.97559441  1
  O  O53  1  0.66490670  0.87585680  0.96818291  1
  O  O54  1  0.27767924  0.88299224  0.46965064  1
  O  O55  1  0.77457700  0.87552320  0.46557644  1
  O  O56  1  0.16464138  0.45436877  0.46811700  1
  O  O57  1  0.66237293  0.45025129  0.47039292  1
  O  O58  1  0.06412401  0.65902935  0.46244594  1
  O  O59  1  0.56547778  0.66517530  0.46588922  1
  O  O60  1  0.04990044  0.65008088  0.35696315  1
  O  O61  1  0.55415547  0.65398559  0.36027257  1
  O  O62  1  0.27457964  0.89934919  0.36382238  1
  O  O63  1  0.77441106  0.90542284  0.36064216  1
  O  O64  1  0.16737753  0.45607857  0.36181451  1
  O  O65  1  0.67100545  0.45605412  0.36437937  1
  O  O66  1  0.05117465  0.45100762  0.85907293  1
  O  O67  1  0.55159222  0.44790262  0.85626250  1
  O  O68  1  0.17252023  0.88529581  0.85808306  1
  O  O69  1  0.66745744  0.87938529  0.86177969  1
  O  O70  1  0.27844491  0.64806954  0.86008168  1
  O  O71  1  0.76990197  0.64097214  0.86412768  1
  O  O72  1  0.00448845  0.80462355  0.41805572  1
  O  O73  1  0.50632659  0.80791208  0.41901726  1
  O  O74  1  0.40450749  0.00050504  0.41723046  1
  O  O75  1  0.90321205  0.00446837  0.41579043  1
  O  O76  1  0.09096355  0.20147790  0.41655390  1
  O  O77  1  0.58886694  0.19895463  0.41733292  1
  O  O78  1  0.00129209  0.20231334  0.91801523  1
  O  O79  1  0.50598451  0.20429235  0.91795255  1
  O  O80  1  0.08143785  0.99170713  0.91930227  1
  O  O81  1  0.59134268  0.98191673  0.91676425  1
  O  O82  1  0.40537885  0.81141269  0.91700506  1
  O  O83  1  0.90003396  0.80427097  0.91646262  1
  O  O84  1  0.49533245  0.16549229  0.59148471  1
  O  O85  1  0.99093747  0.15973076  0.58979412  1
  O  O86  1  0.08171773  0.01187973  0.59754971  1
  O  O87  1  0.59058904  0.02571395  0.58838843  1
  O  O88  1  0.42389441  0.84340163  0.59651495  1
  O  O89  1  0.91589715  0.83255271  0.59992852  1
  O  O90  1  0.49266031  0.82212219  0.09153766  1
  O  O91  1  0.99735750  0.82521593  0.09345348  1
  O  O92  1  0.41688589  0.99747591  0.10181954  1
  O  O93  1  0.92203647  0.00072515  0.09809162  1
  O  O94  1  0.08868889  0.15736563  0.09241396  1
  O  O95  1  0.58212153  0.15199188  0.09874747  1
  O  O96  1  0.34684350  0.17135587  0.74758885  1
  O  O97  1  0.84473861  0.16617259  0.74529181  1
  O  O98  1  0.23998542  0.32751299  0.74630831  1
  O  O99  1  0.74228842  0.32611178  0.74457990  1
  O  O100  1  0.43625680  0.54912181  0.73956896  1
  O  O101  1  0.93019924  0.54225735  0.74015582  1
  O  O102  1  0.34499970  0.52162922  0.24491461  1
  O  O103  1  0.84872818  0.52372841  0.24767778  1
  O  O104  1  0.43274547  0.32350640  0.24208027  1
  O  O105  1  0.93412827  0.32233937  0.24152078  1
  O  O106  1  0.24161647  0.15960283  0.24508016  1
  O  O107  1  0.74111941  0.15426828  0.24702416  1
  O  O108  1  0.33220022  0.51735313  0.92144550  1
  O  O109  1  0.82691546  0.50820842  0.92057872  1
  O  O110  1  0.43432238  0.35965199  0.91766755  1
  O  O111  1  0.93113924  0.36007381  0.91810492  1
  O  O112  1  0.24751179  0.15896727  0.91875328  1
  O  O113  1  0.74074743  0.13242805  0.91450051  1
  O  O114  1  0.32959593  0.14638618  0.42060724  1
  O  O115  1  0.82537289  0.14446662  0.42122478  1
  O  O116  1  0.24081708  0.34978089  0.41461837  1
  O  O117  1  0.73770379  0.33860661  0.41967530  1
  O  O118  1  0.43282621  0.50863931  0.41854033  1
  O  O119  1  0.93025544  0.50628491  0.41676918  1
  O  O120  1  0.15353246  0.45035365  0.08032180  1
  O  O121  1  0.66156859  0.47922006  0.08035522  1
  O  O122  1  0.07029380  0.67779698  0.08307012  1
  O  O123  1  0.57471498  0.69682461  0.08178873  1
  O  O124  1  0.25273369  0.83794500  0.08476405  1
  O  O125  1  0.76070620  0.83585879  0.08329702  1
  O  O126  1  0.16094468  0.84360816  0.57941239  1
  O  O127  1  0.65505042  0.86081556  0.57925657  1
  O  O128  1  0.26177979  0.68690493  0.58298575  1
  O  O129  1  0.75125516  0.66436881  0.58441222  1
  O  O130  1  0.07421283  0.44984047  0.58108622  1
  O  O131  1  0.57237014  0.45603687  0.57896082  1
  O  O132  1  0.14740346  0.82769941  0.24305570  1
  O  O133  1  0.64706053  0.82371786  0.24391765  1
  O  O134  1  0.26302485  0.68929022  0.24372858  1
  O  O135  1  0.76265303  0.68449579  0.24168444  1
  O  O136  1  0.08124314  0.44375213  0.24597518  1
  O  O137  1  0.58007605  0.44726132  0.24728001  1
  O  O138  1  0.14706686  0.47315186  0.74169489  1
  O  O139  1  0.64715992  0.46727755  0.74162071  1
  O  O140  1  0.07751464  0.70752393  0.74479487  1
  O  O141  1  0.58305286  0.72339206  0.74497615  1
  O  O142  1  0.26366683  0.83797576  0.74051384  1
  O  O143  1  0.76309124  0.83570780  0.74382538  1
loop_
_geom_bond_atom_site_label_1
_geom_bond_atom_site_label_2
_geom_bond_distance
_geom_bond_site_symmetry_2
Na0 O32 2.292928 1_565
Na0 O106 2.454474 1_565
Na0 O134 2.595199 1_555
Na0 O132 2.610833 1_555
Na0 O104 2.864810 1_565
Na1 O33 2.311420 1_565
Na1 O107 2.411418 1_565
Na1 O133 2.542383 1_555
Na1 O135 2.587590 1_555
Na2 O34 2.420698 1_555
Na2 O102 2.437265 1_555
Na2 O106 2.569408 1_555
Na2 O136 2.577144 1_555
Na2 O134 2.602940 1_555
Na2 O64 2.932610 1_555
Na3 O35 2.276403 1_555
Na3 O103 2.545863 1_555
Na3 O107 2.606625 1_555
Na3 O135 2.614148 1_555
Na3 O137 2.655613 1_555
Na4 O103 2.462940 1_555
Na4 O132 2.466864 1_655
Na4 O31 2.567203 1_555
Na4 O60 2.683551 1_655
Na4 O105 2.690215 1_555
Na5 O133 2.460825 1_555
Na5 O102 2.506089 1_555
Na5 O30 2.604529 1_555
Na5 O104 2.738244 1_555
Na5 O61 2.860366 1_555
Na6 O98 2.388603 1_555
Na6 O28 2.468387 1_555
Na6 O138 2.506541 1_555
Na6 O142 2.532706 1_555
Na6 O100 2.955319 1_555
Na6 O70 2.970038 1_555
Na7 O99 2.430071 1_555
Na7 O29 2.458680 1_555
Na7 O143 2.612368 1_555
Na7 O139 2.659942 1_555
Na7 O101 2.747590 1_555
Na8 O138 2.431975 1_655
Na8 O97 2.554990 1_555
Na8 O66 2.628586 1_655
Na8 O101 2.826375 1_555
Na8 O25 2.867951 1_555
Na9 O96 2.448276 1_555
Na9 O139 2.522812 1_555
Na9 O67 2.546639 1_555
Na9 O100 2.703677 1_555
Na9 O24 2.785024 1_555
Na10 O96 2.529618 1_555
Na10 O98 2.605620 1_555
Na10 O140 2.648620 1_545
Na10 O142 2.659168 1_545
Na10 O68 2.731487 1_545
Na10 O26 2.770717 1_555
Na11 O97 2.423311 1_555
Na11 O141 2.558728 1_545
Na11 O99 2.575211 1_555
Na11 O143 2.622011 1_545
Na11 O27 2.644390 1_555
Na11 O69 2.834445 1_545
Na12 O130 2.546480 1_555
Na12 O86 2.722366 1_555
Na12 O28 2.734372 1_555
Na12 O14 2.822893 1_555
Na12 O128 2.841201 1_555
Na12 O42 2.857290 1_555
Na13 O129 2.463001 1_555
Na13 O131 2.489254 1_555
Na13 O29 2.530333 1_555
Na13 O15 2.790738 1_555
Na13 O87 2.812746 1_555
Na14 O128 2.308922 1_555
Na14 O126 2.457752 1_555
Na14 O26 2.618171 1_565
Na15 O52 2.344440 1_554
Na15 O124 2.467085 1_555
Na15 O122 2.488098 1_555
Na15 O36 2.853554 1_565
Na15 O91 2.907189 1_455
Na15 O94 2.917499 1_565
Na15 O32 2.954833 1_565
Na16 O123 2.555827 1_545
Na16 O37 2.727346 1_555
Na16 O95 2.737522 1_555
Na16 O33 2.772650 1_555
Na16 O125 2.805964 1_545
Na16 O53 2.966984 1_544
Na16 O90 2.967881 1_545
Na16 O23 3.022891 1_545
Na17 O125 2.298996 1_555
Na17 O121 2.493616 1_555
Na17 O35 2.759814 1_555
Na17 O49 2.817102 1_554
Na17 O93 2.830329 1_565
Na18 O108 2.434715 1_555
Na18 O82 2.452117 1_555
Na18 O110 2.561787 1_555
Na18 O38 2.600516 1_556
Na18 O81 2.682464 1_555
Na18 O8 2.876085 1_555
Na19 O80 2.444747 1_555
Na19 O83 2.644265 1_455
Na19 O111 2.756295 1_455
Na19 O52 2.810114 1_555
Na19 O39 2.847673 1_456
Na19 O9 2.865306 1_455
Na19 O109 2.897858 1_455
Na20 O112 2.527940 1_555
Na20 O40 2.530879 1_556
Na20 O10 2.642417 1_555
Na20 O110 2.781450 1_555
Na20 O79 2.832204 1_555
Na20 O82 2.939772 1_545
Na20 O68 2.965133 1_545
Na21 O11 2.416490 1_555
Na21 O78 2.416911 1_655
Na21 O41 2.511666 1_556
Na21 O111 2.648101 1_555
Na21 O113 2.712013 1_555
Na21 O83 2.753720 1_545
Na22 O6 2.297838 1_555
Na22 O112 2.391212 1_555
Na22 O80 2.417023 1_545
Na22 O78 2.823141 1_555
Na22 O108 2.846336 1_555
Na23 O37 2.499308 1_556
Na23 O113 2.531250 1_555
Na23 O81 2.570627 1_545
Na23 O109 2.657367 1_555
Na23 O7 2.743000 1_555
Na23 O79 2.744118 1_555
Na24 O74 2.456883 1_555
Na24 O114 2.489063 1_555
Na24 O118 2.568927 1_555
Na24 O77 2.645808 1_555
Na24 O4 2.691093 1_555
Na24 O46 2.742049 1_555
Na25 O75 2.423786 1_555
Na25 O47 2.577442 1_555
Na25 O115 2.594103 1_555
Na25 O76 2.621820 1_655
Na25 O119 2.626043 1_555
Na25 O5 2.820290 1_555
Na26 O42 2.418716 1_555
Na26 O116 2.513180 1_555
Na26 O76 2.548331 1_555
Na26 O0 2.627145 1_555
Na26 O114 2.716195 1_555
Na26 O72 2.773729 1_545
Na27 O1 2.243816 1_555
Na27 O117 2.507598 1_555
Na27 O77 2.640862 1_555
Na27 O115 2.662658 1_555
Na27 O73 2.746608 1_545
Na28 O2 2.405598 1_555
Na28 O44 2.427543 1_555
Na28 O73 2.529296 1_555
Na28 O118 2.600457 1_555
Na28 O116 2.655973 1_555
Na28 O74 2.828227 1_565
Na29 O45 2.390278 1_555
Na29 O3 2.499174 1_555
Na29 O72 2.502725 1_655
Na29 O119 2.637232 1_555
Na29 O117 2.797040 1_555
Na29 O75 2.805187 1_565
Na30 O86 2.371108 1_665
Na30 O89 2.387873 1_555
Na30 O85 2.644650 1_565
Na30 O72 2.662703 1_655
Na31 O88 2.364117 1_555
Na31 O87 2.485716 1_565
Na31 O73 2.491628 1_555
Na31 O84 2.807744 1_565
Na31 O74 2.815769 1_565
Na31 O77 2.974913 1_565
Na31 O44 3.043950 1_555
Na32 O80 2.345235 1_545
Na32 O78 2.499394 1_555
Na32 O94 2.598871 1_556
Na32 O83 2.770014 1_445
Na32 O93 2.799730 1_456
Na32 O91 2.866946 1_446
Na33 O92 2.385032 1_545
Na33 O95 2.519068 1_555
Na33 O79 2.593383 1_554
Na33 O90 2.762150 1_545
Na33 O82 2.889541 1_544
Na34 O112 2.364034 1_555
Na34 O98 2.429901 1_555
Na34 O96 2.448578 1_555
Na34 O108 2.908019 1_555
Na34 O110 2.932987 1_555
Na35 O97 2.404102 1_555
Na35 O99 2.434002 1_555
Na35 O113 2.716793 1_555
Na35 O101 2.769499 1_555
Na35 O111 2.818767 1_555
Na35 O109 2.874830 1_555
Na36 O106 2.338509 1_555
Na36 O102 2.352928 1_555
Na36 O116 2.729809 1_555
Na36 O104 2.759129 1_555
Na36 O118 2.946597 1_555
Na36 O114 2.949843 1_555
Na37 O107 2.314543 1_555
Na37 O103 2.315668 1_555
Na37 O105 2.803431 1_555
Na37 O117 2.814497 1_555
Na37 O119 2.904343 1_555
Na37 O115 2.942045 1_555
Na38 O124 2.250991 1_555
Na38 O134 2.342093 1_555
Na38 O132 2.582504 1_555
Na38 O120 2.748176 1_555
Na38 O122 2.819283 1_555
Na38 O136 2.872257 1_555
Na39 O125 2.427107 1_555
Na39 O135 2.456857 1_555
Na39 O121 2.462747 1_555
Na39 O133 2.631156 1_555
Na39 O123 2.712663 1_555
Na39 O137 2.753232 1_555
Na40 O142 2.392455 1_555
Na40 O138 2.497944 1_555
Na40 O128 2.528157 1_555
Na40 O126 2.559935 1_555
Na40 O140 2.640090 1_555
Na40 O130 2.777708 1_555
Na41 O143 2.286989 1_555
Na41 O129 2.289649 1_555
Na41 O139 2.508388 1_555
Na41 O141 2.823152 1_555
Na41 O127 2.836817 1_555
Na41 O131 2.937493 1_555
Ca0 O0 2.163331 1_565
Ca0 O3 2.179714 1_455
Ca0 O5 2.326572 1_465
Ca0 O72 2.441203 1_555
Ca0 O76 2.449432 1_565
Ca0 O75 2.471445 1_465
Ca1 O1 2.168024 1_565
Ca1 O2 2.171441 1_555
Ca1 O4 2.333740 1_565
Ca1 O74 2.467433 1_565
Ca1 O73 2.485437 1_555
Ca1 O77 2.511541 1_565
Ca2 O6 2.172696 1_555
Ca2 O11 2.221516 1_455
Ca2 O80 2.294221 1_545
Ca2 O9 2.326727 1_445
Ca2 O78 2.469176 1_555
Ca2 O83 2.471883 1_445
Ca3 O10 2.151423 1_555
Ca3 O7 2.172285 1_555
Ca3 O8 2.339860 1_545
Ca3 O79 2.401186 1_555
Ca3 O82 2.408751 1_545
Ca3 O81 2.439140 1_545
Ca4 O26 2.170143 1_555
Ca4 O28 2.205665 1_555
Ca4 O98 2.263594 1_555
Ca4 O96 2.298475 1_555
Ca4 O100 2.434412 1_555
Ca4 O24 2.437124 1_555
Ca5 O29 2.184915 1_555
Ca5 O97 2.267394 1_555
Ca5 O99 2.276523 1_555
Ca5 O27 2.347724 1_555
Ca5 O25 2.354974 1_555
Ca5 O101 2.373331 1_555
Ca6 O32 2.153969 1_555
Ca6 O106 2.287959 1_555
Ca6 O102 2.292498 1_555
Ca6 O34 2.349283 1_555
Ca6 O30 2.372882 1_555
Ca6 O104 2.449125 1_555
Ca7 O35 2.171698 1_555
Ca7 O33 2.181861 1_555
Ca7 O107 2.296991 1_555
Ca7 O103 2.337780 1_555
Ca7 O31 2.379037 1_555
Ca7 O105 2.439689 1_555
Ca8 O112 2.225378 1_555
Ca8 O40 2.234861 1_556
Ca8 O110 2.421003 1_555
Ca8 O36 2.437103 1_556
Ca8 O108 2.506062 1_555
Ca8 O38 2.552547 1_556
Ca9 O41 2.216725 1_556
Ca9 O37 2.269444 1_556
Ca9 O111 2.471502 1_555
Ca9 O39 2.490906 1_556
Ca9 O113 2.500161 1_555
Ca9 O109 2.505202 1_555
Ca10 O44 2.243182 1_555
Ca10 O42 2.259666 1_555
Ca10 O46 2.507903 1_555
Ca10 O116 2.512965 1_555
Ca10 O118 2.557942 1_555
Ca10 O114 2.566924 1_555
Ca11 O45 2.206387 1_555
Ca11 O43 2.412471 1_555
Ca11 O119 2.418306 1_555
Ca11 O47 2.441270 1_555
Ca11 O117 2.483021 1_555
Ca11 O115 2.541927 1_555
Ca12 O52 2.200407 1_554
Ca12 O124 2.209951 1_555
Ca12 O48 2.276858 1_554
Ca12 O50 2.319887 1_554
Ca12 O120 2.446397 1_555
Ca12 O122 2.478381 1_555
Ca13 O121 2.184970 1_555
Ca13 O125 2.242592 1_555
Ca13 O51 2.274513 1_554
Ca13 O49 2.327546 1_554
Ca13 O53 2.359194 1_554
Ca13 O123 2.389640 1_555
Ca14 O126 2.166312 1_555
Ca14 O128 2.233591 1_555
Ca14 O58 2.313878 1_555
Ca14 O56 2.358171 1_555
Ca14 O54 2.360946 1_555
Ca14 O130 2.393708 1_555
Ca15 O129 2.163707 1_555
Ca15 O55 2.279043 1_555
Ca15 O59 2.301695 1_555
Ca15 O127 2.345041 1_555
Ca15 O57 2.363594 1_555
Ca15 O131 2.419543 1_555
Ca16 O134 2.247773 1_555
Ca16 O132 2.266320 1_555
Ca16 O62 2.352408 1_555
Ca16 O64 2.405422 1_555
Ca16 O60 2.450436 1_555
Ca16 O136 2.504656 1_555
Ca17 O133 2.256684 1_555
Ca17 O135 2.277308 1_555
Ca17 O63 2.380913 1_555
Ca17 O65 2.425287 1_555
Ca17 O137 2.434905 1_555
Ca17 O61 2.437225 1_555
Ca18 O68 2.213372 1_555
Ca18 O142 2.340548 1_555
Ca18 O138 2.400423 1_555
Ca18 O70 2.409283 1_555
Ca18 O66 2.456574 1_555
Ca18 O140 2.505154 1_555
Ca19 O143 2.259262 1_555
Ca19 O139 2.293811 1_555
Ca19 O71 2.318033 1_555
Ca19 O69 2.401595 1_555
Ca19 O67 2.422646 1_555
Ca19 O141 2.518971 1_555
O0 Si0 1.618832 1_555
O1 Si1 1.621513 1_545
O2 Si2 1.622184 1_555
O3 Si3 1.609931 1_555
O4 S1 1.478068 1_555
O5 S0 1.470737 1_655
O6 Si4 1.610096 1_555
O7 Si5 1.610476 1_555
O8 S3 1.473113 1_555
O9 S2 1.469737 1_655
O10 Si6 1.600569 1_555
O11 Si7 1.611085 1_555
O12 Si6 1.790180 1_555
O12 Ta1 1.847912 1_555
O13 Si7 1.716419 1_565
O13 Ta0 1.929783 1_555
O14 Si4 1.727516 1_555
O14 Ta0 1.951141 1_445
O15 Si5 1.748990 1_555
O15 Ta1 1.932246 1_555
O16 S2 1.514629 1_555
O16 Ta0 2.068056 1_455
O17 S3 1.535545 1_555
O17 Ta1 2.033968 1_565
O18 Si2 1.707491 1_555
O18 Ta3 1.945973 1_555
O19 Si3 1.763061 1_555
O19 Ta2 1.874788 1_555
O20 S0 1.524113 1_555
O20 Ta2 2.068061 1_445
O21 S1 1.499827 1_555
O21 Ta3 2.112944 1_545
O22 Si0 1.735185 1_555
O22 Ta2 1.929810 1_445
O23 Si1 1.701457 1_555
O23 Ta3 1.973518 1_555
O24 S4 1.460409 1_555
O25 S5 1.447449 1_555
O26 Si8 1.623339 1_555
O27 S6 1.471818 1_555
O28 Si9 1.609866 1_555
O29 Si10 1.626937 1_555
O30 S7 1.462653 1_555
O31 S8 1.469538 1_555
O32 Si11 1.620773 1_555
O33 Si12 1.614662 1_555
O34 S9 1.477997 1_555
O35 Si13 1.625613 1_555
O36 S9 1.485972 1_555
O37 Si13 1.646292 1_555
O38 S7 1.480335 1_555
O39 S8 1.480510 1_555
O40 Si11 1.634212 1_555
O41 Si12 1.624574 1_555
O42 Si8 1.653643 1_555
O43 S6 1.487125 1_555
O44 Si9 1.634274 1_555
O45 Si10 1.645188 1_555
O46 S4 1.480272 1_555
O47 S5 1.489309 1_555
O48 S10 1.467597 1_555
O49 S11 1.480788 1_555
O50 S12 1.471352 1_555
O51 S13 1.471657 1_555
O52 Si14 1.637348 1_555
O53 S14 1.476871 1_555
O54 S15 1.474429 1_555
O55 S16 1.468943 1_555
O56 S17 1.475804 1_555
O57 S18 1.474424 1_555
O58 S19 1.470441 1_555
O59 S20 1.469876 1_555
O60 S19 1.482325 1_555
O61 S20 1.486295 1_555
O62 S15 1.481945 1_555
O63 S16 1.483057 1_555
O64 S17 1.484372 1_555
O65 S18 1.483425 1_555
O66 S12 1.485526 1_555
O67 S13 1.487114 1_555
O68 Si14 1.646937 1_555
O69 S14 1.485184 1_555
O70 S10 1.480889 1_555
O71 S11 1.484786 1_555
O72 S19 1.496825 1_555
O73 S20 1.501223 1_555
O74 S15 1.500308 1_545
O75 S16 1.495181 1_545
O76 S17 1.497754 1_555
O77 S18 1.496160 1_555
O78 S12 1.493276 1_555
O79 S13 1.495933 1_555
O80 Si14 1.663245 1_555
O81 S14 1.495680 1_555
O82 S10 1.504478 1_555
O83 S11 1.487415 1_555
O84 S4 1.543957 1_555
O84 Ta1 2.111932 1_555
O85 S5 1.524955 1_555
O85 Ta0 2.137381 1_545
O86 Si8 1.700265 1_555
O86 Ta0 1.982579 1_445
O87 S6 1.527073 1_555
O87 Ta1 2.260597 1_555
O88 Si9 1.728472 1_555
O88 Ta1 1.946712 1_565
O89 Si10 1.684181 1_555
O89 Ta0 1.966613 1_555
O90 S7 1.524634 1_555
O90 Ta3 2.104100 1_555
O91 S8 1.549942 1_555
O91 Ta2 2.094170 1_555
O92 Si11 1.701173 1_565
O92 Ta3 1.927073 1_555
O93 Si12 1.724685 1_555
O93 Ta2 1.939555 1_545
O94 S9 1.531837 1_555
O94 Ta2 2.191253 1_445
O95 Si13 1.702324 1_555
O95 Ta3 1.972069 1_545
O96 Si6 1.616695 1_555
O97 Si7 1.634609 1_555
O98 Si4 1.631662 1_555
O99 Si5 1.627496 1_555
O100 S3 1.458360 1_555
O101 S2 1.475224 1_655
O102 Si2 1.632177 1_555
O103 Si3 1.618669 1_555
O104 S1 1.473118 1_555
O105 S0 1.465012 1_655
O106 Si0 1.626085 1_555
O107 Si1 1.630926 1_545
O108 S10 1.493851 1_555
O109 S11 1.495043 1_555
O110 S13 1.489764 1_555
O111 S12 1.501362 1_655
O112 Si14 1.664935 1_545
O113 S14 1.496785 1_545
O114 S15 1.499450 1_545
O115 S16 1.503876 1_545
O116 S17 1.498334 1_555
O117 S18 1.505290 1_555
O118 S20 1.497726 1_555
O119 S19 1.504475 1_655
O120 S9 1.453807 1_555
O121 Si13 1.617006 1_555
O122 S8 1.455240 1_455
O123 S7 1.479742 1_555
O124 Si11 1.626841 1_565
O125 Si12 1.635202 1_565
O126 Si8 1.617926 1_565
O127 S6 1.459630 1_565
O128 Si9 1.632499 1_555
O129 Si10 1.635497 1_555
O130 S5 1.482886 1_455
O131 S4 1.469289 1_555
O132 Si0 1.641891 1_565
O133 Si1 1.647014 1_555
O134 Si2 1.638842 1_555
O135 Si3 1.630892 1_555
O136 S0 1.475555 1_555
O137 S1 1.482117 1_555
O138 Si4 1.639856 1_555
O139 Si5 1.641211 1_555
O140 S2 1.470061 1_555
O141 S3 1.474179 1_555
O142 Si6 1.621468 1_565
O143 Si7 1.639940 1_565
