# generated using pymatgen
data_Li3V3(PO4)4
_symmetry_space_group_name_H-M   'P 1'
_cell_length_a   10.10947049
_cell_length_b   10.10947049
_cell_length_c   10.60131014
_cell_angle_alpha   88.47151811
_cell_angle_beta   88.47151811
_cell_angle_gamma   37.27185309
_symmetry_Int_Tables_number   1
_chemical_formula_structural   Li3V3(PO4)4
_chemical_formula_sum   'Li6 V6 P8 O32'
_cell_volume   655.88594637
_cell_formula_units_Z   2
loop_
 _symmetry_equiv_pos_site_id
 _symmetry_equiv_pos_as_xyz
  1  'x, y, z'
loop_
 _atom_site_type_symbol
 _atom_site_label
 _atom_site_symmetry_multiplicity
 _atom_site_fract_x
 _atom_site_fract_y
 _atom_site_fract_z
 _atom_site_occupancy
  Li  Li0  1  0.97366900  0.16211800  0.94893800  1
  Li  Li1  1  0.16211800  0.97366900  0.44893800  1
  Li  Li2  1  0.83788200  0.02633100  0.55106200  1
  Li  Li3  1  0.02633100  0.83788200  0.05106200  1
  Li  Li4  1  0.47454600  0.52545400  0.75000000  1
  Li  Li5  1  0.52545400  0.47454600  0.25000000  1
  V  V0  1  0.67119600  0.64067600  0.75676900  1
  V  V1  1  0.64067600  0.67119600  0.25676900  1
  V  V2  1  0.00000000  0.50000000  0.50000000  1
  V  V3  1  0.50000000  0.00000000  0.00000000  1
  V  V4  1  0.35932400  0.32880400  0.74323100  1
  V  V5  1  0.32880400  0.35932400  0.24323100  1
  P  P0  1  0.41878000  0.74470300  0.00333200  1
  P  P1  1  0.74470300  0.41878000  0.50333200  1
  P  P2  1  0.21723500  0.18110500  0.74829800  1
  P  P3  1  0.18110500  0.21723500  0.24829800  1
  P  P4  1  0.81889500  0.78276500  0.75170200  1
  P  P5  1  0.78276500  0.81889500  0.25170200  1
  P  P6  1  0.25529700  0.58122000  0.49666800  1
  P  P7  1  0.58122000  0.25529700  0.99666800  1
  O  O0  1  0.21488400  0.82539300  0.98372600  1
  O  O1  1  0.82539300  0.21488400  0.48372600  1
  O  O2  1  0.62347300  0.53375800  0.63152400  1
  O  O3  1  0.58716500  0.58403300  0.89303700  1
  O  O4  1  0.53375800  0.62347300  0.13152400  1
  O  O5  1  0.58403300  0.58716500  0.39303700  1
  O  O6  1  0.35087500  0.94737700  0.99760600  1
  O  O7  1  0.94737700  0.35087500  0.49760600  1
  O  O8  1  0.98776300  0.31700600  0.78683100  1
  O  O9  1  0.36598200  0.94541800  0.72160800  1
  O  O10  1  0.31700600  0.98776300  0.28683100  1
  O  O11  1  0.94541800  0.36598200  0.22160800  1
  O  O12  1  0.71999300  0.77328600  0.86434900  1
  O  O13  1  0.79971600  0.68700700  0.64719700  1
  O  O14  1  0.77328600  0.71999300  0.36434900  1
  O  O15  1  0.68700700  0.79971600  0.14719700  1
  O  O16  1  0.31299300  0.20028400  0.85280300  1
  O  O17  1  0.22671400  0.28000700  0.63565100  1
  O  O18  1  0.20028400  0.31299300  0.35280300  1
  O  O19  1  0.28000700  0.22671400  0.13565100  1
  O  O20  1  0.05458200  0.63401800  0.77839200  1
  O  O21  1  0.68299400  0.01223700  0.71316900  1
  O  O22  1  0.63401800  0.05458200  0.27839200  1
  O  O23  1  0.01223700  0.68299400  0.21316900  1
  O  O24  1  0.05262300  0.64912500  0.50239400  1
  O  O25  1  0.64912500  0.05262300  0.00239400  1
  O  O26  1  0.41596700  0.41283500  0.60696300  1
  O  O27  1  0.46624200  0.37652700  0.86847600  1
  O  O28  1  0.41283500  0.41596700  0.10696300  1
  O  O29  1  0.37652700  0.46624200  0.36847600  1
  O  O30  1  0.17460700  0.78511600  0.51627400  1
  O  O31  1  0.78511600  0.17460700  0.01627400  1
loop_
_geom_bond_atom_site_label_1
_geom_bond_atom_site_label_2
_geom_bond_distance
_geom_bond_site_symmetry_2
Li0 O31 1.925667 1_556
Li0 O0 2.107123 1_645
Li0 O8 2.371499 1_555
Li0 O6 2.527926 1_645
Li1 O30 1.925667 1_555
Li1 O1 2.107123 1_465
Li1 O10 2.371499 1_555
Li1 O7 2.527926 1_465
Li2 O1 1.925667 1_555
Li2 O30 2.107123 1_645
Li2 O21 2.371499 1_555
Li2 O24 2.527926 1_645
Li3 O0 1.925667 1_554
Li3 O31 2.107123 1_465
Li3 O23 2.371499 1_555
Li3 O25 2.527926 1_465
Li4 O27 1.986451 1_555
Li4 O2 1.986451 1_555
Li4 O3 2.271434 1_555
Li4 O26 2.271434 1_555
Li5 O29 1.986451 1_555
Li5 O4 1.986451 1_555
Li5 O5 2.271434 1_555
Li5 O28 2.271434 1_555
O0 P0 1.514993 1_556
O1 P1 1.514993 1_555
O2 P1 1.558261 1_555
O2 V0 2.026009 1_555
O3 P0 1.580443 1_556
O3 V0 1.949643 1_555
O4 P0 1.558261 1_555
O4 V1 2.026009 1_555
O5 P1 1.580443 1_555
O5 V1 1.949643 1_555
O6 P0 1.558859 1_556
O6 V3 1.958480 1_566
O7 P1 1.558859 1_555
O7 V2 1.958480 1_655
O8 P2 1.530661 1_655
O8 V0 2.093520 1_555
O9 P2 1.526207 1_565
O9 V0 2.005449 1_555
O10 P3 1.530661 1_565
O10 V1 2.093520 1_555
O11 P3 1.526207 1_655
O11 V1 2.005449 1_555
O12 P4 1.586723 1_555
O12 V3 2.039595 1_566
O12 V0 2.122607 1_555
O13 P4 1.602985 1_555
O13 V2 2.001370 1_655
O13 V0 2.028746 1_555
O14 P5 1.586723 1_555
O14 V2 2.039595 1_655
O14 V1 2.122607 1_555
O15 P5 1.602985 1_555
O15 V3 2.001370 1_565
O15 V1 2.028746 1_555
O16 P2 1.602985 1_555
O16 V3 2.001370 1_556
O16 V4 2.028746 1_555
O17 P2 1.586723 1_555
O17 V2 2.039595 1_555
O17 V4 2.122607 1_555
O18 P3 1.602985 1_555
O18 V2 2.001370 1_555
O18 V5 2.028746 1_555
O19 P3 1.586723 1_555
O19 V3 2.039595 1_555
O19 V5 2.122607 1_555
O20 P4 1.526207 1_455
O20 V4 2.005449 1_555
O21 P4 1.530661 1_545
O21 V4 2.093520 1_555
O22 P5 1.526207 1_545
O22 V5 2.005449 1_555
O23 P5 1.530661 1_455
O23 V5 2.093520 1_555
O24 P6 1.558859 1_555
O24 V2 1.958480 1_555
O25 P7 1.558859 1_554
O25 V3 1.958480 1_555
O26 P6 1.580443 1_555
O26 V4 1.949643 1_555
O27 P7 1.558261 1_555
O27 V4 2.026009 1_555
O28 P7 1.580443 1_554
O28 V5 1.949643 1_555
O29 P6 1.558261 1_555
O29 V5 2.026009 1_555
O30 P6 1.514993 1_555
O31 P7 1.514993 1_554
