# generated using pymatgen
data_K2Na2MgTi2O6
_symmetry_space_group_name_H-M   'P 1'
_cell_length_a   5.72441300
_cell_length_b   6.63913170
_cell_length_c   6.26545602
_cell_angle_alpha   61.98350872
_cell_angle_beta   94.70859297
_cell_angle_gamma   94.69118294
_symmetry_Int_Tables_number   1
_chemical_formula_structural   K2Na2MgTi2O6
_chemical_formula_sum   'K2 Na2 Mg1 Ti2 O6'
_cell_volume   209.25237997
_cell_formula_units_Z   1
loop_
 _symmetry_equiv_pos_site_id
 _symmetry_equiv_pos_as_xyz
  1  'x, y, z'
loop_
 _atom_site_type_symbol
 _atom_site_label
 _atom_site_symmetry_multiplicity
 _atom_site_fract_x
 _atom_site_fract_y
 _atom_site_fract_z
 _atom_site_occupancy
  K  K0  1  0.21344901  0.36836859  0.51482935  1
  K  K1  1  0.78655099  0.63163141  0.48517065  1
  Na  Na0  1  0.21360616  0.62505550  0.86546828  1
  Na  Na1  1  0.78639384  0.37494450  0.13453172  1
  Mg  Mg0  1  0.50000000  0.00000000  0.50000000  1
  Ti  Ti0  1  0.75930393  0.03508754  0.90852691  1
  Ti  Ti1  1  0.24069607  0.96491246  0.09147209  1
  O  O0  1  0.40641919  0.95913239  0.83117715  1
  O  O1  1  0.95754983  0.77538989  0.04844721  1
  O  O2  1  0.04245117  0.22461011  0.95155279  1
  O  O3  1  0.59358081  0.04086761  0.16882285  1
  O  O4  1  0.23893682  0.81198328  0.43533529  1
  O  O5  1  0.76106318  0.18801672  0.56466471  1
loop_
_geom_bond_atom_site_label_1
_geom_bond_atom_site_label_2
_geom_bond_distance
_geom_bond_site_symmetry_2
K0 O2 2.681372 1_555
K0 O4 2.739928 1_555
K0 O5 2.740764 1_455
K0 O0 2.757366 1_545
K1 O1 2.681374 1_555
K1 O5 2.739928 1_555
K1 O4 2.740764 1_655
K1 O3 2.757366 1_565
Na0 O0 2.318332 1_555
Na0 O4 2.390978 1_555
Na0 O1 2.459506 1_456
Na0 O2 2.575386 1_555
Na1 O3 2.318332 1_555
Na1 O5 2.390978 1_555
Na1 O2 2.459510 1_654
Na1 O1 2.575388 1_555
Mg0 O5 2.006548 1_555
Mg0 O4 2.006548 1_545
Mg0 O0 2.072661 1_545
Mg0 O3 2.072661 1_555
O0 Ti1 1.969752 1_556
O0 Ti0 2.114719 1_565
O1 Ti0 1.940587 1_564
O1 Ti1 2.048504 1_655
O2 Ti1 1.940583 1_546
O2 Ti0 2.048510 1_455
O3 Ti0 1.969757 1_554
O3 Ti1 2.114721 1_545
O4 Ti1 1.902510 1_555
O5 Ti0 1.902505 1_555
