# generated using pymatgen
data_NaZnSnP(SO6)2
_symmetry_space_group_name_H-M   'P 1'
_cell_length_a   8.71291974
_cell_length_b   8.72000612
_cell_length_c   22.86082087
_cell_angle_alpha   89.86457168
_cell_angle_beta   90.00000000
_cell_angle_gamma   119.97312115
_symmetry_Int_Tables_number   1
_chemical_formula_structural   NaZnSnP(SO6)2
_chemical_formula_sum   'Na6 Zn6 Sn6 P6 S12 O72'
_cell_volume   1504.59253702
_cell_formula_units_Z   6
loop_
 _symmetry_equiv_pos_site_id
 _symmetry_equiv_pos_as_xyz
  1  'x, y, z'
loop_
 _atom_site_type_symbol
 _atom_site_label
 _atom_site_symmetry_multiplicity
 _atom_site_fract_x
 _atom_site_fract_y
 _atom_site_fract_z
 _atom_site_occupancy
  Na  Na0  1  0.98820265  0.99134722  0.50396672  1
  Na  Na1  1  0.00314457  0.99134722  0.00396672  1
  Na  Na2  1  0.66094171  0.32136389  0.83740364  1
  Na  Na3  1  0.66042319  0.32136389  0.33740364  1
  Na  Na4  1  0.32617580  0.67194069  0.17076965  1
  Na  Na5  1  0.34576389  0.67194069  0.67076965  1
  Zn  Zn0  1  0.98165795  0.98701001  0.64790377  1
  Zn  Zn1  1  0.00535206  0.98701001  0.14790377  1
  Zn  Zn2  1  0.66586764  0.33246004  0.98192093  1
  Zn  Zn3  1  0.66659340  0.33246004  0.48192093  1
  Zn  Zn4  1  0.34049662  0.68628565  0.31533632  1
  Zn  Zn5  1  0.34578803  0.68628565  0.81533632  1
  Sn  Sn0  1  0.00120443  0.00048013  0.35025741  1
  Sn  Sn1  1  0.99927570  0.00048013  0.85025741  1
  Sn  Sn2  1  0.66652179  0.33172367  0.68370187  1
  Sn  Sn3  1  0.66520287  0.33172367  0.18370187  1
  Sn  Sn4  1  0.32400879  0.67087492  0.01708363  1
  Sn  Sn5  1  0.34686513  0.67087492  0.51708363  1
  P  P0  1  0.29300025  0.99946893  0.24844711  1
  P  P1  1  0.70646868  0.99946893  0.74844711  1
  P  P2  1  0.66948649  0.62341148  0.58132167  1
  P  P3  1  0.95392599  0.62341148  0.08132167  1
  P  P4  1  0.33606144  0.96634368  0.91487910  1
  P  P5  1  0.63028124  0.96634368  0.41487910  1
  S  S0  1  0.70454465  0.70589586  0.24861969  1
  S  S1  1  0.00228051  0.29424553  0.24812539  1
  S  S2  1  0.29196502  0.29424553  0.74812539  1
  S  S3  1  0.00135122  0.70589586  0.74861969  1
  S  S4  1  0.96356488  0.33477271  0.58136571  1
  S  S5  1  0.36947373  0.03890436  0.58227610  1
  S  S6  1  0.66943163  0.03890436  0.08227610  1
  S  S7  1  0.37120883  0.33477271  0.08136571  1
  S  S8  1  0.62352658  0.66480556  0.91592205  1
  S  S9  1  0.04144077  0.37469223  0.91447192  1
  S  S10  1  0.33325046  0.37469223  0.41447192  1
  S  S11  1  0.04127798  0.66480556  0.41592205  1
  O  O0  1  0.21734629  0.03864803  0.30612619  1
  O  O1  1  0.81459328  0.78017975  0.30345238  1
  O  O2  1  0.96398354  0.18347163  0.30328085  1
  O  O3  1  0.21948809  0.18347163  0.80328085  1
  O  O4  1  0.96558647  0.78017975  0.80345238  1
  O  O5  1  0.82130174  0.03864803  0.80612619  1
  O  O6  1  0.79423289  0.97836906  0.69477467  1
  O  O7  1  0.18735244  0.20848678  0.69636163  1
  O  O8  1  0.02841903  0.81484492  0.69710450  1
  O  O9  1  0.78642589  0.81484492  0.19710450  1
  O  O10  1  0.02113433  0.20848678  0.19636163  1
  O  O11  1  0.18413616  0.97836906  0.19477467  1
  O  O12  1  0.88940126  0.36961106  0.63649816  1
  O  O13  1  0.48227326  0.11099752  0.63674466  1
  O  O14  1  0.63141022  0.50979534  0.63933376  1
  O  O15  1  0.87838612  0.50979534  0.13933376  1
  O  O16  1  0.62872527  0.11099752  0.13674466  1
  O  O17  1  0.48021080  0.36961106  0.13649816  1
  O  O18  1  0.45379873  0.30812452  0.03016257  1
  O  O19  1  0.84480481  0.53420450  0.02761118  1
  O  O20  1  0.69056159  0.14362348  0.03018650  1
  O  O21  1  0.45306289  0.14362348  0.53018650  1
  O  O22  1  0.68940069  0.53420450  0.52761118  1
  O  O23  1  0.85432679  0.30812452  0.53016257  1
  O  O24  1  0.54669616  0.69771943  0.97082566  1
  O  O25  1  0.15157777  0.44639649  0.96967490  1
  O  O26  1  0.29382458  0.85041406  0.97232899  1
  O  O27  1  0.55658848  0.85041406  0.47232899  1
  O  O28  1  0.29481772  0.44639649  0.46967490  1
  O  O29  1  0.15102227  0.69771943  0.47082566  1
  O  O30  1  0.12312689  0.64021140  0.36404358  1
  O  O31  1  0.51974585  0.87968288  0.36138058  1
  O  O32  1  0.35226381  0.48048466  0.36282821  1
  O  O33  1  0.12821984  0.48048466  0.86282821  1
  O  O34  1  0.35993603  0.87968288  0.86138058  1
  O  O35  1  0.51708351  0.64021140  0.86404358  1
  O  O36  1  0.02829083  0.83200507  0.41198333  1
  O  O37  1  0.81918515  0.97984331  0.41006693  1
  O  O38  1  0.16881017  0.19279324  0.41157031  1
  O  O39  1  0.02398307  0.19279324  0.91157031  1
  O  O40  1  0.16065816  0.97984331  0.91006693  1
  O  O41  1  0.80371424  0.83200507  0.91198333  1
  O  O42  1  0.98942667  0.18248544  0.58894913  1
  O  O43  1  0.19541906  0.02213772  0.59080641  1
  O  O44  1  0.83156128  0.80752442  0.58755395  1
  O  O45  1  0.97596313  0.80752442  0.08755395  1
  O  O46  1  0.82671866  0.02213772  0.09080641  1
  O  O47  1  0.19305877  0.18248544  0.08894913  1
  O  O48  1  0.69023107  0.17346116  0.74418729  1
  O  O49  1  0.47433202  0.31126912  0.74493370  1
  O  O50  1  0.83386205  0.52705318  0.74457341  1
  O  O51  1  0.69319214  0.52705318  0.24457341  1
  O  O52  1  0.83693810  0.31126912  0.24493370  1
  O  O53  1  0.48323109  0.17346116  0.24418729  1
  O  O54  1  0.64759008  0.51139152  0.92281009  1
  O  O55  1  0.86583916  0.35552477  0.92169318  1
  O  O56  1  0.49783323  0.14951779  0.92344761  1
  O  O57  1  0.65168556  0.14951779  0.42344761  1
  O  O58  1  0.48968661  0.35552477  0.42169318  1
  O  O59  1  0.86380244  0.51139152  0.42281009  1
  O  O60  1  0.36091217  0.50305345  0.07637931  1
  O  O61  1  0.14395511  0.63864197  0.07902095  1
  O  O62  1  0.50571284  0.85622527  0.07816764  1
  O  O63  1  0.35051142  0.85622527  0.57816764  1
  O  O64  1  0.49468586  0.63864197  0.57902095  1
  O  O65  1  0.14214028  0.50305345  0.57637931  1
  O  O66  1  0.31347331  0.83664553  0.25504032  1
  O  O67  1  0.52636147  0.68005893  0.25603701  1
  O  O68  1  0.15889746  0.46907608  0.25628777  1
  O  O69  1  0.31017761  0.46907608  0.75628777  1
  O  O70  1  0.15369646  0.68005893  0.75603701  1
  O  O71  1  0.52317122  0.83664553  0.75504032  1
loop_
_geom_bond_atom_site_label_1
_geom_bond_atom_site_label_2
_geom_bond_distance
_geom_bond_site_symmetry_2
Na0 O44 2.425517 1_555
Na0 O42 2.559294 1_565
Na0 O37 2.576846 1_555
Na0 O43 2.605966 1_665
Na0 O36 2.640679 1_655
Na0 O38 2.691479 1_665
Na1 O45 2.425517 1_455
Na1 O47 2.559294 1_565
Na1 O40 2.576846 1_554
Na1 O46 2.605966 1_465
Na1 O41 2.640679 1_454
Na1 O39 2.691479 1_564
Na2 O56 2.447979 1_555
Na2 O55 2.541706 1_555
Na2 O48 2.571285 1_555
Na2 O54 2.603715 1_555
Na2 O49 2.641583 1_555
Na2 O50 2.696759 1_555
Na3 O57 2.447979 1_555
Na3 O58 2.541706 1_555
Na3 O53 2.571285 1_555
Na3 O59 2.603715 1_555
Na3 O52 2.641583 1_555
Na3 O51 2.696759 1_555
Na4 O66 2.440962 1_555
Na4 O68 2.546197 1_555
Na4 O61 2.558626 1_555
Na4 O67 2.593112 1_555
Na4 O62 2.642546 1_555
Na4 O60 2.716081 1_555
Na5 O71 2.440962 1_555
Na5 O69 2.546197 1_555
Na5 O64 2.558626 1_555
Na5 O70 2.593112 1_555
Na5 O63 2.642546 1_555
Na5 O65 2.716081 1_555
O0 P0 1.586521 1_545
O0 Sn0 2.011786 1_555
O1 S0 1.514441 1_555
O1 Sn0 2.089899 1_665
O2 S1 1.518701 1_655
O2 Sn0 2.076936 1_655
O3 S2 1.518701 1_555
O3 Sn1 2.076936 1_455
O4 S3 1.514441 1_655
O4 Sn1 2.089899 1_565
O5 P1 1.586521 1_545
O5 Sn1 2.011786 1_555
O6 P1 1.505244 1_555
O6 Zn0 1.922818 1_555
O7 S2 1.453785 1_555
O7 Zn0 2.172717 1_445
O8 S3 1.454632 1_555
O8 Zn0 2.070779 1_455
O9 S0 1.454632 1_555
O9 Zn1 2.070779 1_655
O10 S1 1.453785 1_555
O10 Zn1 2.172717 1_545
O11 P0 1.505244 1_555
O11 Zn1 1.922818 1_555
O12 S4 1.515366 1_555
O12 Sn2 2.098094 1_555
O13 S5 1.515913 1_555
O13 Sn2 2.087224 1_555
O14 P2 1.586129 1_555
O14 Sn2 2.000181 1_555
O15 P3 1.586129 1_555
O15 Sn3 2.000181 1_555
O16 S6 1.515913 1_555
O16 Sn3 2.087224 1_555
O17 S7 1.515366 1_555
O17 Sn3 2.098094 1_555
O18 S7 1.452709 1_555
O18 Zn2 2.069432 1_554
O19 P3 1.510710 1_555
O19 Zn2 1.970969 1_554
O20 S6 1.453497 1_555
O20 Zn2 2.078617 1_554
O21 S5 1.453497 1_555
O21 Zn3 2.078617 1_555
O22 P2 1.510710 1_555
O22 Zn3 1.970969 1_555
O23 S4 1.452709 1_555
O23 Zn3 2.069432 1_555
O24 S8 1.516427 1_555
O24 Sn4 2.117240 1_556
O25 S9 1.519417 1_555
O25 Sn4 2.082060 1_556
O26 P4 1.582485 1_555
O26 Sn4 1.992695 1_556
O27 P5 1.582485 1_555
O27 Sn5 1.992695 1_555
O28 S10 1.519417 1_555
O28 Sn5 2.082060 1_555
O29 S11 1.516427 1_555
O29 Sn5 2.117240 1_555
O30 S11 1.454354 1_555
O30 Zn4 2.055678 1_555
O31 P5 1.507164 1_555
O31 Zn4 1.941104 1_555
O32 S10 1.454125 1_555
O32 Zn4 2.141129 1_555
O33 S9 1.454125 1_555
O33 Zn5 2.141129 1_555
O34 P4 1.507164 1_555
O34 Zn5 1.941104 1_555
O35 S8 1.454354 1_555
O35 Zn5 2.055678 1_555
O36 S11 1.520146 1_555
O36 Sn0 2.131152 1_565
O37 P5 1.594148 1_555
O37 Sn0 2.032411 1_665
O38 S10 1.517517 1_555
O38 Sn0 2.115097 1_555
O39 S9 1.517520 1_555
O39 Sn1 2.115097 1_455
O40 P4 1.594139 1_555
O40 Sn1 2.032411 1_465
O41 S8 1.520151 1_555
O41 Sn1 2.131152 1_565
O42 S4 1.463614 1_555
O42 Zn0 2.144843 1_545
O43 S5 1.462044 1_555
O43 Zn0 2.166686 1_445
O44 P2 1.525695 1_555
O44 Zn0 2.007073 1_555
O45 P3 1.525699 1_555
O45 Zn1 2.007073 1_655
O46 S6 1.462035 1_555
O46 Zn1 2.166686 1_645
O47 S7 1.463619 1_555
O47 Zn1 2.144843 1_545
O48 P1 1.595372 1_545
O48 Sn2 2.033478 1_555
O49 S2 1.521968 1_555
O49 Sn2 2.120314 1_555
O50 S3 1.515569 1_655
O50 Sn2 2.119731 1_555
O51 S0 1.515573 1_555
O51 Sn3 2.119731 1_555
O52 S1 1.521959 1_655
O52 Sn3 2.120314 1_555
O53 P0 1.595377 1_545
O53 Sn3 2.033478 1_555
O54 S8 1.462069 1_555
O54 Zn2 2.127023 1_555
O55 S9 1.463027 1_655
O55 Zn2 2.149527 1_555
O56 P4 1.525880 1_545
O56 Zn2 2.037561 1_555
O57 P5 1.525873 1_545
O57 Zn3 2.037561 1_555
O58 S10 1.463045 1_555
O58 Zn3 2.149527 1_555
O59 S11 1.462058 1_655
O59 Zn3 2.127023 1_555
O60 S7 1.518250 1_555
O60 Sn4 2.131484 1_555
O61 P3 1.594373 1_455
O61 Sn4 2.025470 1_555
O62 S6 1.520331 1_565
O62 Sn4 2.126658 1_555
O63 S5 1.520324 1_565
O63 Sn5 2.126658 1_555
O64 P2 1.594391 1_555
O64 Sn5 2.025470 1_555
O65 S4 1.518240 1_455
O65 Sn5 2.131484 1_555
O66 P0 1.523969 1_555
O66 Zn4 1.993607 1_555
O67 S0 1.462903 1_555
O67 Zn4 2.133408 1_555
O68 S1 1.464167 1_555
O68 Zn4 2.220559 1_555
O69 S2 1.464170 1_555
O69 Zn5 2.220559 1_555
O70 S3 1.462894 1_555
O70 Zn5 2.133408 1_555
O71 P1 1.523974 1_555
O71 Zn5 1.993607 1_555
