# generated using pymatgen
data_Na10Hf5Mg3(PO4)12
_symmetry_space_group_name_H-M   'P 1'
_cell_length_a   17.90239761
_cell_length_b   8.95717321
_cell_length_c   22.60713244
_cell_angle_alpha   89.98967512
_cell_angle_beta   89.98705429
_cell_angle_gamma   120.04854151
_symmetry_Int_Tables_number   1
_chemical_formula_structural   Na10Hf5Mg3(PO4)12
_chemical_formula_sum   'Na30 Hf15 Mg9 P36 O144'
_cell_volume   3137.94702758
_cell_formula_units_Z   3
loop_
 _symmetry_equiv_pos_site_id
 _symmetry_equiv_pos_as_xyz
  1  'x, y, z'
loop_
 _atom_site_type_symbol
 _atom_site_label
 _atom_site_symmetry_multiplicity
 _atom_site_fract_x
 _atom_site_fract_y
 _atom_site_fract_z
 _atom_site_occupancy
  Na  Na0  1  0.32108714  0.00933772  0.24906068  1
  Na  Na1  1  0.68475001  0.35824783  0.24893454  1
  Na  Na2  1  0.31802191  0.62731425  0.74883702  1
  Na  Na3  1  0.81792929  0.62697324  0.74873846  1
  Na  Na4  1  0.15401296  0.34532606  0.57917900  1
  Na  Na5  1  0.65398641  0.34458044  0.57840593  1
  Na  Na6  1  0.01800655  0.69159011  0.57939570  1
  Na  Na7  1  0.51817096  0.69236936  0.57950544  1
  Na  Na8  1  0.32762830  0.96327935  0.57950397  1
  Na  Na9  1  0.82759070  0.96472754  0.57934360  1
  Na  Na10  1  0.15398910  0.96329211  0.07924329  1
  Na  Na11  1  0.65445955  0.96433251  0.07983510  1
  Na  Na12  1  0.32758989  0.69069323  0.07999149  1
  Na  Na13  1  0.82775563  0.69181638  0.07935162  1
  Na  Na14  1  0.01764488  0.34475990  0.07951813  1
  Na  Na15  1  0.51785514  0.34426609  0.08017319  1
  Na  Na16  1  0.66123526  0.02834170  0.41178484  1
  Na  Na17  1  0.35216054  0.67642397  0.41101221  1
  Na  Na18  1  0.00014997  0.99915727  0.49420691  1
  Na  Na19  1  0.49956807  0.01340820  0.48974379  1
  Na  Na20  1  0.99998602  0.99974817  0.99555797  1
  Na  Na21  1  0.49998052  0.99955610  0.99584854  1
  Na  Na22  1  0.33370821  0.32109943  0.82933251  1
  Na  Na23  1  0.83364183  0.32123436  0.82932010  1
  Na  Na24  1  0.33503088  0.33834103  0.32498558  1
  Na  Na25  1  0.84286874  0.34028325  0.32554876  1
  Na  Na26  1  0.16259463  0.65512710  0.16526497  1
  Na  Na27  1  0.66564862  0.67699956  0.16523446  1
  Na  Na28  1  0.16182423  0.66739699  0.66602604  1
  Na  Na29  1  0.66198575  0.66765903  0.66605112  1
  Hf  Hf0  1  0.00015158  0.99951961  0.35203044  1
  Hf  Hf1  1  0.00084462  0.00226361  0.85400513  1
  Hf  Hf2  1  0.50085109  0.00241145  0.85395558  1
  Hf  Hf3  1  0.00131142  0.00307154  0.65014130  1
  Hf  Hf4  1  0.50143910  0.00234277  0.64961421  1
  Hf  Hf5  1  0.99988441  -0.00002183  0.15013578  1
  Hf  Hf6  1  0.50006519  0.99731903  0.15102515  1
  Hf  Hf7  1  0.33316339  0.33419007  0.97849444  1
  Hf  Hf8  1  0.83347955  0.33428211  0.97853294  1
  Hf  Hf9  1  0.33275449  0.32509792  0.47895105  1
  Hf  Hf10  1  0.83587149  0.33975575  0.47870671  1
  Hf  Hf11  1  0.16422090  0.66158318  0.31423542  1
  Hf  Hf12  1  0.66490026  0.66770479  0.31512047  1
  Hf  Hf13  1  0.16419633  0.66753640  0.81630220  1
  Hf  Hf14  1  0.66413186  0.66733323  0.81634921  1
  Mg  Mg0  1  0.49934858  0.00517455  0.35039204  1
  Mg  Mg1  1  0.33362703  0.32741279  0.68669960  1
  Mg  Mg2  1  0.83361658  0.32707346  0.68656943  1
  Mg  Mg3  1  0.33405538  0.34166958  0.18591834  1
  Mg  Mg4  1  0.83580618  0.33049154  0.18614502  1
  Mg  Mg5  1  0.16665590  0.66680704  0.01491918  1
  Mg  Mg6  1  0.66665250  0.66680875  0.01488027  1
  Mg  Mg7  1  0.16555976  0.66645459  0.51487748  1
  Mg  Mg8  1  0.66693123  0.66443444  0.51464606  1
  P  P0  1  0.14882059  0.00241724  0.24986141  1
  P  P1  1  0.64860352  0.00214575  0.25236780  1
  P  P2  1  0.35314581  0.70218211  0.25329308  1
  P  P3  1  0.85226647  0.70219723  0.25010189  1
  P  P4  1  0.99803175  0.29331942  0.25004603  1
  P  P5  1  0.49866443  0.29329644  0.25085788  1
  P  P6  1  0.14885265  0.29592473  0.75026257  1
  P  P7  1  0.64872997  0.29565503  0.75015768  1
  P  P8  1  0.99954029  0.70416634  0.74966912  1
  P  P9  1  0.49952123  0.70414108  0.74967218  1
  P  P10  1  0.35285598  0.00267918  0.75034187  1
  P  P11  1  0.85268209  0.00251233  0.75047329  1
  P  P12  1  0.47978988  0.33628685  0.58516629  1
  P  P13  1  0.97958276  0.33626896  0.58481902  1
  P  P14  1  0.18801118  0.04031016  0.58502187  1
  P  P15  1  0.68833863  0.04094798  0.58370228  1
  P  P16  1  0.33241934  0.62457263  0.58482675  1
  P  P17  1  0.83246223  0.62557747  0.58632051  1
  P  P18  1  0.47954890  0.62304815  0.08445691  1
  P  P19  1  0.97937342  0.62315900  0.08483866  1
  P  P20  1  0.33222406  0.04025526  0.08582116  1
  P  P21  1  0.83216755  0.04109859  0.08443814  1
  P  P22  1  0.18810802  0.33529087  0.08453527  1
  P  P23  1  0.68788456  0.33548015  0.08583454  1
  P  P24  1  0.31266032  0.66708341  0.91809000  1
  P  P25  1  0.81264056  0.66693672  0.91807974  1
  P  P26  1  0.02058987  0.37429791  0.91962269  1
  P  P27  1  0.52061000  0.37425079  0.91967981  1
  P  P28  1  0.16644958  0.95882755  0.91953545  1
  P  P29  1  0.66642646  0.95894793  0.91952051  1
  P  P30  1  0.31368497  0.95718832  0.41771889  1
  P  P31  1  0.81328628  0.95806312  0.41968456  1
  P  P32  1  0.16560139  0.37343020  0.41982846  1
  P  P33  1  0.66466871  0.37052924  0.41837109  1
  P  P34  1  0.02156411  0.66945702  0.41915610  1
  P  P35  1  0.51999709  0.66858011  0.41942963  1
  O  O0  1  0.09972393  0.01940575  0.30308998  1
  O  O1  1  0.60497103  0.02587158  0.30662389  1
  O  O2  1  0.40536495  0.79068738  0.30825273  1
  O  O3  1  0.91005941  0.80073067  0.30329741  1
  O  O4  1  0.48599827  0.17696466  0.30276390  1
  O  O5  1  0.99069699  0.17830543  0.30343550  1
  O  O6  1  0.09966237  0.18009040  0.80290507  1
  O  O7  1  0.59962383  0.18014032  0.80291427  1
  O  O8  1  0.48863311  0.80206247  0.80215825  1
  O  O9  1  0.98869498  0.80219889  0.80213784  1
  O  O10  1  0.41042494  0.01777974  0.80329881  1
  O  O11  1  0.91043401  0.01794695  0.80331023  1
  O  O12  1  0.39489062  0.97033152  0.69357248  1
  O  O13  1  0.89466260  0.97027520  0.69366166  1
  O  O14  1  0.09363270  0.21253337  0.69296072  1
  O  O15  1  0.59346553  0.21211642  0.69292266  1
  O  O16  1  0.01301994  0.81592810  0.69248051  1
  O  O17  1  0.51306118  0.81577552  0.69245429  1
  O  O18  1  0.39604850  0.82169481  0.19648210  1
  O  O19  1  0.89442783  0.81328370  0.19325429  1
  O  O20  1  0.01181146  0.20894457  0.19301798  1
  O  O21  1  0.51582348  0.21244086  0.19305161  1
  O  O22  1  0.09339838  0.97625588  0.19305896  1
  O  O23  1  0.59142988  0.97456818  0.19511811  1
  O  O24  1  0.43769987  0.36586058  0.63852088  1
  O  O25  1  0.93757522  0.36555980  0.63832513  1
  O  O26  1  0.24463116  0.12529211  0.63840198  1
  O  O27  1  0.74591547  0.12872157  0.63645264  1
  O  O28  1  0.31927541  0.51573971  0.63990982  1
  O  O29  1  0.81911206  0.51861416  0.64189963  1
  O  O30  1  0.43767304  0.51013194  0.13782355  1
  O  O31  1  0.93713048  0.51062753  0.13828686  1
  O  O32  1  0.31864029  0.11933768  0.14155342  1
  O  O33  1  0.81737234  0.12412173  0.13790527  1
  O  O34  1  0.24429859  0.36307584  0.13792184  1
  O  O35  1  0.74117212  0.36281562  0.14148803  1
  O  O36  1  0.22891490  0.30054346  0.02875008  1
  O  O37  1  0.73146828  0.30261308  0.03136446  1
  O  O38  1  0.42108200  0.54199245  0.02875815  1
  O  O39  1  0.92110625  0.54197008  0.02903524  1
  O  O40  1  0.34884808  0.16069174  0.03144072  1
  O  O41  1  0.85001626  0.15847643  0.02885227  1
  O  O42  1  0.22874953  0.15657465  0.52922987  1
  O  O43  1  0.72741147  0.15317499  0.52664666  1
  O  O44  1  0.34846983  0.54060044  0.52917235  1
  O  O45  1  0.84905044  0.53839748  0.53191680  1
  O  O46  1  0.42108528  0.30008722  0.52952083  1
  O  O47  1  0.92121763  0.30095056  0.52917538  1
  O  O48  1  0.27338836  0.69222215  0.97381944  1
  O  O49  1  0.77338021  0.69202954  0.97384000  1
  O  O50  1  0.07108436  0.44946231  0.97607297  1
  O  O51  1  0.57116862  0.44947749  0.97612753  1
  O  O52  1  0.15328210  0.85763542  0.97599752  1
  O  O53  1  0.65328192  0.85768192  0.97595880  1
  O  O54  1  0.27181850  0.84933801  0.47336947  1
  O  O55  1  0.77559026  0.85850835  0.47666878  1
  O  O56  1  0.15312371  0.44879223  0.47662984  1
  O  O57  1  0.65552095  0.45352086  0.47470030  1
  O  O58  1  0.07082492  0.69426313  0.47639396  1
  O  O59  1  0.57323948  0.69460976  0.47531212  1
  O  O60  1  0.06680941  0.64479025  0.36484642  1
  O  O61  1  0.56514289  0.64264995  0.36484319  1
  O  O62  1  0.25712863  0.86969621  0.36173972  1
  O  O63  1  0.75349239  0.86818345  0.36583564  1
  O  O64  1  0.18067515  0.49231293  0.36574654  1
  O  O65  1  0.67771627  0.48355821  0.36236203  1
  O  O66  1  0.06639056  0.48866698  0.86468085  1
  O  O67  1  0.56624863  0.48881359  0.86474541  1
  O  O68  1  0.17799930  0.86765007  0.86454528  1
  O  O69  1  0.67812911  0.86790708  0.86452663  1
  O  O70  1  0.25778070  0.64445693  0.86147283  1
  O  O71  1  0.75774408  0.64425333  0.86148611  1
  O  O72  1  0.00981840  0.82863136  0.40983168  1
  O  O73  1  0.50891630  0.82743129  0.41188596  1
  O  O74  1  0.40275893  0.97397421  0.41108135  1
  O  O75  1  0.90448250  0.98308779  0.40994131  1
  O  O76  1  0.08729343  0.19078139  0.41011595  1
  O  O77  1  0.58813640  0.18679216  0.41164792  1
  O  O78  1  0.00959885  0.19200471  0.90999244  1
  O  O79  1  0.50959101  0.19199087  0.91003746  1
  O  O80  1  0.08641645  0.98116083  0.90972491  1
  O  O81  1  0.58636329  0.98114444  0.90968627  1
  O  O82  1  0.40433718  0.82754395  0.90946640  1
  O  O83  1  0.90436641  0.82733457  0.90946227  1
  O  O84  1  0.48759956  0.16824309  0.58986372  1
  O  O85  1  0.98753455  0.16805206  0.58968325  1
  O  O86  1  0.09602506  0.02472362  0.58943100  1
  O  O87  1  0.59647145  0.02569866  0.58906831  1
  O  O88  1  0.41638378  0.80892114  0.58912518  1
  O  O89  1  0.91652815  0.80961285  0.58948106  1
  O  O90  1  0.48729379  0.80724417  0.08953321  1
  O  O91  1  0.98756808  0.80781285  0.08949575  1
  O  O92  1  0.41624607  0.02372210  0.08958120  1
  O  O93  1  0.91632479  0.02455022  0.08936836  1
  O  O94  1  0.09567107  0.16694441  0.08930667  1
  O  O95  1  0.59588079  0.16663352  0.08931838  1
  O  O96  1  0.34324254  0.15995778  0.74559402  1
  O  O97  1  0.84308613  0.15983604  0.74550046  1
  O  O98  1  0.23924739  0.32041950  0.74583695  1
  O  O99  1  0.73913124  0.31988914  0.74586968  1
  O  O100  1  0.41703902  0.52981439  0.74505297  1
  O  O101  1  0.91711121  0.52967373  0.74511573  1
  O  O102  1  0.34080082  0.52364140  0.24500084  1
  O  O103  1  0.84038494  0.52222178  0.24611950  1
  O  O104  1  0.41887714  0.31115477  0.24297609  1
  O  O105  1  0.91858134  0.31043875  0.24631113  1
  O  O106  1  0.23939035  0.15769542  0.24612353  1
  O  O107  1  0.73657825  0.16495642  0.24434684  1
  O  O108  1  0.32196394  0.50323063  0.92154694  1
  O  O109  1  0.82185900  0.50309655  0.92161546  1
  O  O110  1  0.42930535  0.35494011  0.92227093  1
  O  O111  1  0.92938323  0.35557143  0.92204801  1
  O  O112  1  0.24853292  0.14084879  0.92215281  1
  O  O113  1  0.74825342  0.14136147  0.92228481  1
  O  O114  1  0.32144964  0.13907855  0.42213599  1
  O  O115  1  0.81895689  0.13857391  0.42271831  1
  O  O116  1  0.25054902  0.36326439  0.42311046  1
  O  O117  1  0.74856634  0.35289323  0.42213243  1
  O  O118  1  0.42750250  0.50558759  0.42318052  1
  O  O119  1  0.92996513  0.50482404  0.42204229  1
  O  O120  1  0.17449146  0.49110243  0.07706233  1
  O  O121  1  0.67479140  0.49147524  0.07737648  1
  O  O122  1  0.07105292  0.65085955  0.07733553  1
  O  O123  1  0.57139816  0.65178283  0.07693117  1
  O  O124  1  0.25426337  0.85759774  0.07739898  1
  O  O125  1  0.75447718  0.85754920  0.07679759  1
  O  O126  1  0.17433798  0.85743014  0.57750830  1
  O  O127  1  0.67415038  0.85721054  0.57723796  1
  O  O128  1  0.25421276  0.65109862  0.57751821  1
  O  O129  1  0.75417779  0.65073167  0.57798778  1
  O  O130  1  0.07128165  0.49161778  0.57727314  1
  O  O131  1  0.57133142  0.49146416  0.57720145  1
  O  O132  1  0.15632821  0.83657764  0.25565291  1
  O  O133  1  0.65637301  0.83659797  0.25628034  1
  O  O134  1  0.26340409  0.69722076  0.25586188  1
  O  O135  1  0.76149173  0.68548890  0.25638926  1
  O  O136  1  0.08203529  0.47146319  0.25618336  1
  O  O137  1  0.58409052  0.47216414  0.25580951  1
  O  O138  1  0.15707252  0.47734043  0.75579200  1
  O  O139  1  0.65708154  0.47724990  0.75581118  1
  O  O140  1  0.08164341  0.69001094  0.75566407  1
  O  O141  1  0.58160149  0.68985798  0.75570964  1
  O  O142  1  0.26465604  0.83040763  0.75589184  1
  O  O143  1  0.76455005  0.83031729  0.75595633  1
loop_
_geom_bond_atom_site_label_1
_geom_bond_atom_site_label_2
_geom_bond_distance
_geom_bond_site_symmetry_2
Na0 O104 2.377456 1_555
Na0 O106 2.419880 1_555
Na0 O134 2.452433 1_545
Na0 O132 2.558423 1_545
Na0 O32 2.630991 1_555
Na0 O62 2.815632 1_545
Na0 O4 2.829748 1_555
Na0 O18 2.880555 1_545
Na1 O107 2.340517 1_555
Na1 O103 2.413710 1_555
Na1 O137 2.480737 1_555
Na1 O135 2.544591 1_555
Na1 O35 2.622927 1_555
Na1 O65 2.827298 1_555
Na1 O1 2.888538 1_555
Na1 O21 2.914507 1_555
Na2 O100 2.337220 1_555
Na2 O98 2.380689 1_555
Na2 O142 2.447042 1_555
Na2 O138 2.501000 1_555
Na2 O28 2.662081 1_555
Na2 O70 2.799181 1_555
Na2 O8 2.906313 1_555
Na2 O12 2.942487 1_555
Na3 O101 2.338528 1_555
Na3 O99 2.382067 1_555
Na3 O143 2.449576 1_555
Na3 O139 2.499651 1_555
Na3 O29 2.607234 1_555
Na3 O71 2.801373 1_555
Na3 O9 2.909262 1_555
Na3 O13 2.942892 1_555
Na4 O128 2.408370 1_555
Na4 O130 2.419946 1_555
Na4 O56 2.499575 1_555
Na4 O86 2.528268 1_555
Na4 O85 2.592385 1_455
Na4 O14 2.812450 1_555
Na4 O42 2.861650 1_555
Na4 O28 2.906568 1_555
Na5 O129 2.410674 1_555
Na5 O131 2.423008 1_555
Na5 O87 2.516141 1_555
Na5 O57 2.534138 1_555
Na5 O84 2.592762 1_555
Na5 O15 2.827414 1_555
Na5 O43 2.879821 1_555
Na5 O29 2.935470 1_555
Na6 O130 2.414780 1_555
Na6 O126 2.424383 1_555
Na6 O58 2.508636 1_555
Na6 O89 2.528482 1_455
Na6 O86 2.594747 1_565
Na6 O16 2.807960 1_555
Na6 O45 2.833613 1_455
Na6 O25 2.857088 1_455
Na7 O127 2.418901 1_555
Na7 O131 2.421146 1_555
Na7 O88 2.522455 1_555
Na7 O59 2.549486 1_555
Na7 O87 2.595190 1_565
Na7 O17 2.802230 1_555
Na7 O24 2.861288 1_555
Na7 O44 2.870308 1_555
Na8 O126 2.413778 1_555
Na8 O128 2.422398 1_555
Na8 O84 2.522318 1_565
Na8 O88 2.585305 1_555
Na8 O54 2.603409 1_555
Na8 O12 2.833599 1_555
Na8 O46 2.849649 1_565
Na8 O26 2.871547 1_565
Na9 O127 2.413754 1_555
Na9 O129 2.436537 1_555
Na9 O55 2.504894 1_555
Na9 O85 2.519598 1_565
Na9 O89 2.594895 1_555
Na9 O13 2.839912 1_555
Na9 O47 2.847486 1_565
Na9 O27 2.848402 1_565
Na10 O124 2.413000 1_555
Na10 O122 2.424232 1_555
Na10 O52 2.516466 1_554
Na10 O94 2.525191 1_565
Na10 O91 2.591128 1_455
Na10 O22 2.817029 1_555
Na10 O36 2.857927 1_565
Na10 O32 2.916011 1_565
Na11 O125 2.416766 1_555
Na11 O123 2.425712 1_555
Na11 O95 2.516418 1_565
Na11 O53 2.531483 1_554
Na11 O90 2.601249 1_555
Na11 O37 2.845554 1_565
Na11 O33 2.846061 1_565
Na11 O23 2.859438 1_555
Na12 O120 2.409484 1_555
Na12 O124 2.434556 1_555
Na12 O90 2.514348 1_555
Na12 O48 2.591770 1_554
Na12 O92 2.592932 1_565
Na12 O38 2.854684 1_555
Na12 O34 2.857554 1_555
Na12 O18 2.894252 1_555
Na13 O121 2.408311 1_555
Na13 O125 2.424532 1_555
Na13 O91 2.518134 1_555
Na13 O49 2.576868 1_554
Na13 O93 2.591475 1_565
Na13 O19 2.817972 1_555
Na13 O39 2.852087 1_555
Na13 O35 2.912591 1_555
Na14 O122 2.410103 1_555
Na14 O120 2.433026 1_555
Na14 O93 2.521031 1_455
Na14 O50 2.522599 1_554
Na14 O94 2.600967 1_555
Na14 O20 2.818906 1_555
Na14 O41 2.844189 1_455
Na14 O31 2.862621 1_455
Na15 O123 2.422203 1_555
Na15 O121 2.434337 1_555
Na15 O92 2.523277 1_555
Na15 O51 2.535586 1_554
Na15 O95 2.598317 1_555
Na15 O21 2.804177 1_555
Na15 O40 2.844597 1_555
Na15 O30 2.846406 1_555
Na16 O77 2.363668 1_555
Na16 O73 2.399982 1_545
Na16 O115 2.493405 1_555
Na16 O117 2.529587 1_555
Na16 O1 2.577950 1_555
Na16 O43 2.841205 1_555
Na16 O63 2.870105 1_545
Na16 O59 2.959988 1_545
Na17 O74 2.346508 1_555
Na17 O73 2.429798 1_555
Na17 O116 2.478201 1_555
Na17 O118 2.510674 1_555
Na17 O2 2.524556 1_555
Na17 O64 2.850174 1_555
Na17 O44 2.922047 1_555
Na17 O54 2.947157 1_555
Na18 O72 2.503429 1_555
Na18 O76 2.511920 1_565
Na18 O75 2.517481 1_455
Na18 O89 2.686002 1_455
Na18 O86 2.690905 1_565
Na18 O85 2.709547 1_465
Na19 O77 2.361087 1_555
Na19 O74 2.383164 1_545
Na19 O73 2.486204 1_545
Na19 O84 2.718631 1_555
Na19 O87 2.806111 1_555
Na19 O88 2.808149 1_545
Na20 O78 2.537496 1_665
Na20 O80 2.538493 1_655
Na20 O83 2.541412 1_555
Na20 O94 2.665072 1_666
Na20 O93 2.668754 1_566
Na20 O91 2.670342 1_556
Na21 O79 2.542769 1_565
Na21 O81 2.543057 1_555
Na21 O82 2.545565 1_555
Na21 O95 2.661203 1_566
Na21 O92 2.666076 1_566
Na21 O90 2.666678 1_556
Na22 O96 2.437992 1_555
Na22 O98 2.532572 1_555
Na22 O100 2.560307 1_555
Na22 O112 2.620489 1_555
Na22 O110 2.630145 1_555
Na22 O108 2.719582 1_555
Na23 O97 2.440269 1_555
Na23 O99 2.530433 1_555
Na23 O101 2.558502 1_555
Na23 O113 2.623055 1_555
Na23 O111 2.626944 1_555
Na23 O109 2.719708 1_555
Na24 O102 2.421221 1_555
Na24 O106 2.440534 1_555
Na24 O104 2.472797 1_555
Na24 O118 2.726162 1_555
Na24 O116 2.755907 1_555
Na24 O114 2.762640 1_555
Na25 O105 2.340833 1_555
Na25 O103 2.440026 1_555
Na25 O107 2.543028 1_555
Na25 O119 2.657695 1_555
Na25 O115 2.738021 1_555
Na25 O117 2.796405 1_555
Na26 O120 2.548374 1_555
Na26 O122 2.564648 1_555
Na26 O136 2.575345 1_555
Na26 O134 2.629557 1_555
Na26 O124 2.635263 1_555
Na26 O132 2.648274 1_555
Na27 O123 2.550136 1_555
Na27 O133 2.558588 1_555
Na27 O125 2.561901 1_555
Na27 O137 2.646783 1_555
Na27 O121 2.647032 1_555
Na27 O135 2.658477 1_555
Na28 O140 2.549125 1_555
Na28 O126 2.562957 1_555
Na28 O130 2.564953 1_555
Na28 O138 2.622444 1_555
Na28 O142 2.638039 1_555
Na28 O128 2.645942 1_555
Na29 O141 2.550346 1_555
Na29 O127 2.567040 1_555
Na29 O131 2.568423 1_555
Na29 O139 2.623541 1_555
Na29 O143 2.636068 1_555
Na29 O129 2.638136 1_555
Hf0 O5 2.017669 1_465
Hf0 O3 2.027572 1_455
Hf0 O0 2.028426 1_565
Hf0 O72 2.084491 1_555
Hf0 O75 2.101307 1_455
Hf0 O76 2.101960 1_565
Hf1 O6 2.043946 1_555
Hf1 O11 2.044859 1_455
Hf1 O9 2.060114 1_445
Hf1 O78 2.061349 1_555
Hf1 O80 2.064003 1_545
Hf1 O83 2.073201 1_445
Hf2 O7 2.042510 1_555
Hf2 O10 2.043295 1_555
Hf2 O8 2.060892 1_545
Hf2 O79 2.061610 1_555
Hf2 O81 2.063993 1_545
Hf2 O82 2.074039 1_545
Hf3 O14 2.021069 1_555
Hf3 O16 2.030124 1_545
Hf3 O13 2.033952 1_445
Hf3 O86 2.113272 1_555
Hf3 O85 2.115923 1_455
Hf3 O89 2.134229 1_445
Hf4 O15 2.025991 1_555
Hf4 O17 2.030174 1_545
Hf4 O12 2.039499 1_545
Hf4 O87 2.110484 1_555
Hf4 O84 2.112426 1_555
Hf4 O88 2.133083 1_545
Hf5 O20 2.022215 1_655
Hf5 O22 2.036263 1_645
Hf5 O19 2.036606 1_545
Hf5 O94 2.120892 1_655
Hf5 O93 2.122268 1_555
Hf5 O91 2.124056 1_545
Hf6 O23 2.011214 1_555
Hf6 O18 2.015741 1_555
Hf6 O21 2.037533 1_565
Hf6 O90 2.120045 1_555
Hf6 O95 2.140405 1_565
Hf6 O92 2.143213 1_565
Hf7 O112 2.071464 1_555
Hf7 O110 2.071499 1_555
Hf7 O108 2.072115 1_555
Hf7 O36 2.073724 1_556
Hf7 O38 2.073815 1_556
Hf7 O40 2.088814 1_556
Hf8 O111 2.070218 1_555
Hf8 O113 2.071772 1_555
Hf8 O109 2.073615 1_555
Hf8 O39 2.074636 1_556
Hf8 O37 2.079002 1_556
Hf8 O41 2.080349 1_556
Hf9 O114 2.032274 1_555
Hf9 O46 2.052632 1_555
Hf9 O42 2.054531 1_555
Hf9 O118 2.081462 1_555
Hf9 O116 2.093054 1_555
Hf9 O44 2.133376 1_555
Hf10 O119 2.041747 1_555
Hf10 O45 2.061307 1_555
Hf10 O117 2.068227 1_555
Hf10 O47 2.071127 1_555
Hf10 O115 2.096565 1_555
Hf10 O43 2.118113 1_555
Hf11 O60 2.027134 1_555
Hf11 O64 2.046578 1_555
Hf11 O136 2.068715 1_555
Hf11 O62 2.071512 1_555
Hf11 O134 2.104132 1_555
Hf11 O132 2.109979 1_555
Hf12 O61 2.025089 1_555
Hf12 O63 2.050346 1_555
Hf12 O65 2.071801 1_555
Hf12 O133 2.076531 1_555
Hf12 O137 2.103011 1_555
Hf12 O135 2.121675 1_555
Hf13 O66 2.004504 1_555
Hf13 O68 2.005166 1_555
Hf13 O70 2.059128 1_555
Hf13 O140 2.098263 1_555
Hf13 O138 2.138512 1_555
Hf13 O142 2.144418 1_555
Hf14 O67 2.004247 1_555
Hf14 O69 2.006665 1_555
Hf14 O71 2.059182 1_555
Hf14 O141 2.098182 1_555
Hf14 O139 2.138587 1_555
Hf14 O143 2.144060 1_555
Mg0 O4 1.987981 1_555
Mg0 O2 2.047834 1_545
Mg0 O1 2.058382 1_555
Mg0 O74 2.113157 1_545
Mg0 O77 2.122008 1_555
Mg0 O73 2.183831 1_545
Mg1 O26 2.030042 1_555
Mg1 O24 2.032886 1_555
Mg1 O96 2.076073 1_555
Mg1 O28 2.112816 1_555
Mg1 O98 2.130510 1_555
Mg1 O100 2.132485 1_555
Mg2 O27 2.028125 1_555
Mg2 O25 2.031882 1_555
Mg2 O97 2.073956 1_555
Mg2 O29 2.115746 1_555
Mg2 O99 2.133665 1_555
Mg2 O101 2.136481 1_555
Mg3 O30 2.023719 1_555
Mg3 O34 2.026177 1_555
Mg3 O102 2.063764 1_555
Mg3 O104 2.112079 1_555
Mg3 O32 2.120964 1_555
Mg3 O106 2.154409 1_555
Mg4 O33 2.026110 1_555
Mg4 O31 2.032676 1_555
Mg4 O105 2.084632 1_555
Mg4 O107 2.108516 1_555
Mg4 O35 2.113101 1_555
Mg4 O103 2.157380 1_555
Mg5 O48 2.032159 1_554
Mg5 O50 2.038173 1_554
Mg5 O52 2.040246 1_554
Mg5 O120 2.165789 1_555
Mg5 O124 2.166357 1_555
Mg5 O122 2.166745 1_555
Mg6 O49 2.032095 1_554
Mg6 O51 2.036632 1_554
Mg6 O53 2.040573 1_554
Mg6 O125 2.159180 1_555
Mg6 O123 2.159381 1_555
Mg6 O121 2.170786 1_555
Mg7 O54 2.015087 1_555
Mg7 O58 2.029520 1_555
Mg7 O56 2.040665 1_555
Mg7 O130 2.154532 1_555
Mg7 O126 2.165038 1_555
Mg7 O128 2.182382 1_555
Mg8 O57 2.010101 1_555
Mg8 O59 2.032669 1_555
Mg8 O55 2.038436 1_555
Mg8 O131 2.161501 1_555
Mg8 O129 2.167523 1_555
Mg8 O127 2.185877 1_555
O0 P0 1.541842 1_555
O1 P1 1.525029 1_555
O2 P2 1.518172 1_555
O3 P3 1.543410 1_555
O4 P5 1.508966 1_555
O5 P4 1.548990 1_555
O6 P6 1.533748 1_555
O7 P7 1.534286 1_555
O8 P9 1.544898 1_555
O9 P8 1.544911 1_555
O10 P10 1.541034 1_555
O11 P11 1.540240 1_555
O12 P10 1.585999 1_565
O13 P11 1.585808 1_565
O14 P6 1.573142 1_555
O15 P7 1.572422 1_555
O16 P8 1.577768 1_455
O17 P9 1.577497 1_555
O18 P2 1.600324 1_555
O19 P3 1.567922 1_555
O20 P4 1.575148 1_455
O21 P5 1.596766 1_555
O22 P0 1.567231 1_565
O23 P1 1.590993 1_565
O24 P12 1.514086 1_555
O25 P13 1.514883 1_555
O26 P14 1.513720 1_555
O27 P15 1.513949 1_555
O28 P16 1.525149 1_555
O29 P17 1.524441 1_555
O30 P18 1.510078 1_555
O31 P19 1.511184 1_555
O32 P20 1.523504 1_555
O33 P21 1.510518 1_555
O34 P22 1.510116 1_555
O35 P23 1.523067 1_555
O36 P22 1.564760 1_555
O37 P23 1.562555 1_555
O38 P18 1.564650 1_555
O39 P19 1.565155 1_555
O40 P20 1.562543 1_555
O41 P21 1.565096 1_555
O42 P14 1.563897 1_555
O43 P15 1.567954 1_555
O44 P16 1.564594 1_555
O45 P17 1.563035 1_555
O46 P12 1.565771 1_555
O47 P13 1.563320 1_555
O48 P24 1.513456 1_555
O49 P25 1.513767 1_555
O50 P26 1.513409 1_555
O51 P27 1.513872 1_555
O52 P28 1.513903 1_555
O53 P29 1.513854 1_555
O54 P30 1.533566 1_555
O55 P31 1.518788 1_555
O56 P32 1.518457 1_555
O57 P33 1.524217 1_555
O58 P34 1.518509 1_555
O59 P35 1.528729 1_555
O60 P34 1.546367 1_555
O61 P35 1.554885 1_555
O62 P30 1.564341 1_555
O63 P31 1.553668 1_555
O64 P32 1.553441 1_555
O65 P33 1.563778 1_555
O66 P26 1.556402 1_555
O67 P27 1.556385 1_555
O68 P28 1.557104 1_555
O69 P29 1.557532 1_555
O70 P24 1.563926 1_555
O71 P25 1.563566 1_555
O72 P34 1.556141 1_555
O73 P35 1.541284 1_555
O74 P30 1.532241 1_555
O75 P31 1.548410 1_555
O76 P32 1.547081 1_555
O77 P33 1.533246 1_555
O78 P26 1.559053 1_555
O79 P27 1.558599 1_555
O80 P28 1.558604 1_555
O81 P29 1.558489 1_555
O82 P24 1.560386 1_555
O83 P25 1.560666 1_555
O84 P12 1.583397 1_555
O85 P13 1.586633 1_555
O86 P14 1.584601 1_555
O87 P15 1.585293 1_555
O88 P16 1.584279 1_555
O89 P17 1.582088 1_555
O90 P18 1.589171 1_555
O91 P19 1.589124 1_555
O92 P20 1.585843 1_555
O93 P21 1.589970 1_555
O94 P22 1.588955 1_555
O95 P23 1.584812 1_555
O96 P10 1.506168 1_555
O97 P11 1.506757 1_555
O98 P6 1.523590 1_555
O99 P7 1.524413 1_555
O100 P9 1.523341 1_555
O101 P8 1.523609 1_555
O102 P2 1.512502 1_555
O103 P3 1.519468 1_555
O104 P5 1.525301 1_555
O105 P4 1.507383 1_555
O106 P0 1.520539 1_555
O107 P1 1.529604 1_555
O108 P24 1.559692 1_555
O109 P25 1.558789 1_555
O110 P27 1.556272 1_555
O111 P26 1.556569 1_655
O112 P28 1.556213 1_545
O113 P29 1.556454 1_545
O114 P30 1.567457 1_545
O115 P31 1.570009 1_545
O116 P32 1.570113 1_555
O117 P33 1.589264 1_555
O118 P35 1.568254 1_555
O119 P34 1.564002 1_655
O120 P22 1.541556 1_555
O121 P23 1.540067 1_555
O122 P19 1.541484 1_455
O123 P18 1.541105 1_555
O124 P20 1.540910 1_565
O125 P21 1.541910 1_565
O126 P14 1.539694 1_565
O127 P15 1.541391 1_565
O128 P16 1.541826 1_555
O129 P17 1.538418 1_555
O130 P13 1.540265 1_455
O131 P12 1.539045 1_555
O132 P0 1.562582 1_565
O133 P1 1.559647 1_565
O134 P2 1.585856 1_555
O135 P3 1.561994 1_555
O136 P4 1.556919 1_455
O137 P5 1.569904 1_555
O138 P6 1.561545 1_555
O139 P7 1.562361 1_555
O140 P8 1.543245 1_455
O141 P9 1.543563 1_555
O142 P10 1.565179 1_565
O143 P11 1.564104 1_565
