# generated using pymatgen
data_Mg3P2
_symmetry_space_group_name_H-M   'P 1'
_cell_length_a   10.40148717
_cell_length_b   10.40148740
_cell_length_c   10.40148748
_cell_angle_alpha   109.47122468
_cell_angle_beta   109.47122513
_cell_angle_gamma   109.47121845
_symmetry_Int_Tables_number   1
_chemical_formula_structural   Mg3P2
_chemical_formula_sum   'Mg24 P16'
_cell_volume   866.29221397
_cell_formula_units_Z   8
loop_
 _symmetry_equiv_pos_site_id
 _symmetry_equiv_pos_as_xyz
  1  'x, y, z'
loop_
 _atom_site_type_symbol
 _atom_site_label
 _atom_site_symmetry_multiplicity
 _atom_site_fract_x
 _atom_site_fract_y
 _atom_site_fract_z
 _atom_site_occupancy
  Mg  Mg0  1  0.52673318  0.76606347  0.53250217  1
  Mg  Mg1  1  0.99423101  0.96749783  0.73356030  1
  Mg  Mg2  1  0.26067071  0.76643970  0.73393653  1
  Mg  Mg3  1  0.50576899  0.23932929  0.97326682  1
  Mg  Mg4  1  0.96749783  0.73356030  0.99423101  1
  Mg  Mg5  1  0.73393653  0.26067071  0.76643970  1
  Mg  Mg6  1  0.23932929  0.97326682  0.50576899  1
  Mg  Mg7  1  0.53250217  0.52673318  0.76606347  1
  Mg  Mg8  1  0.76606347  0.53250217  0.52673318  1
  Mg  Mg9  1  0.73356030  0.99423101  0.96749783  1
  Mg  Mg10  1  0.76643970  0.73393653  0.26067071  1
  Mg  Mg11  1  0.97326682  0.50576899  0.23932929  1
  Mg  Mg12  1  0.47326582  0.23393653  0.46749783  1
  Mg  Mg13  1  0.00576899  0.03250217  0.26643970  1
  Mg  Mg14  1  0.73932929  0.23356030  0.26606347  1
  Mg  Mg15  1  0.49423101  0.76067071  0.02673418  1
  Mg  Mg16  1  0.03250217  0.26643970  0.00576899  1
  Mg  Mg17  1  0.26606347  0.73932929  0.23356030  1
  Mg  Mg18  1  0.76067071  0.02673418  0.49423101  1
  Mg  Mg19  1  0.46749783  0.47326582  0.23393653  1
  Mg  Mg20  1  0.23393653  0.46749783  0.47326582  1
  Mg  Mg21  1  0.26643970  0.00576899  0.03250217  1
  Mg  Mg22  1  0.23356030  0.26606347  0.73932929  1
  Mg  Mg23  1  0.02673418  0.49423101  0.76067071  1
  P  P0  1  0.50000000  0.50000000  0.50000000  1
  P  P1  1  0.00000000  0.00000000  0.50000000  1
  P  P2  1  0.50000000  0.00000000  0.00000000  1
  P  P3  1  0.00000000  0.50000000  0.00000000  1
  P  P4  1  0.25000000  0.22617632  0.97617632  1
  P  P5  1  0.27382368  0.52382368  0.75000000  1
  P  P6  1  0.52382368  0.75000000  0.27382368  1
  P  P7  1  0.22617632  0.97617632  0.25000000  1
  P  P8  1  0.97617632  0.25000000  0.22617632  1
  P  P9  1  0.75000000  0.27382368  0.52382368  1
  P  P10  1  0.75000000  0.77382368  0.02382368  1
  P  P11  1  0.72617632  0.47617632  0.25000000  1
  P  P12  1  0.47617632  0.25000000  0.72617632  1
  P  P13  1  0.77382368  0.02382368  0.75000000  1
  P  P14  1  0.02382368  0.75000000  0.77382368  1
  P  P15  1  0.25000000  0.72617632  0.47617632  1
loop_
_geom_bond_atom_site_label_1
_geom_bond_atom_site_label_2
_geom_bond_distance
_geom_bond_site_symmetry_2
Mg0 P13 2.529437 1_565
Mg0 P0 2.578953 1_555
Mg0 P15 2.591971 1_555
Mg0 P6 2.628881 1_555
Mg1 P14 2.529441 1_655
Mg1 P1 2.578943 1_665
Mg1 P13 2.591974 1_565
Mg1 P4 2.628884 1_665
Mg2 P15 2.529431 1_555
Mg2 P2 2.578947 1_566
Mg2 P14 2.591979 1_555
Mg2 P5 2.628888 1_555
Mg3 P12 2.529441 1_555
Mg3 P2 2.578943 1_556
Mg3 P11 2.591974 1_556
Mg3 P4 2.628884 1_555
Mg4 P10 2.529441 1_556
Mg4 P3 2.578943 1_656
Mg4 P14 2.591974 1_655
Mg4 P7 2.628884 1_656
Mg5 P12 2.529431 1_555
Mg5 P3 2.578947 1_656
Mg5 P13 2.591979 1_555
Mg5 P9 2.628888 1_555
Mg6 P15 2.529441 1_555
Mg6 P1 2.578943 1_565
Mg6 P12 2.591974 1_565
Mg6 P7 2.628884 1_555
Mg7 P10 2.529437 1_556
Mg7 P0 2.578953 1_555
Mg7 P12 2.591971 1_555
Mg7 P5 2.628881 1_555
Mg8 P14 2.529437 1_655
Mg8 P0 2.578953 1_555
Mg8 P11 2.591971 1_555
Mg8 P9 2.628881 1_555
Mg9 P13 2.529441 1_565
Mg9 P2 2.578943 1_566
Mg9 P10 2.591974 1_556
Mg9 P8 2.628884 1_566
Mg10 P11 2.529431 1_555
Mg10 P1 2.578947 1_665
Mg10 P10 2.591979 1_555
Mg10 P6 2.628888 1_555
Mg11 P11 2.529441 1_555
Mg11 P3 2.578943 1_655
Mg11 P15 2.591974 1_655
Mg11 P8 2.628884 1_555
Mg12 P7 2.529433 1_545
Mg12 P0 2.578950 1_555
Mg12 P9 2.591981 1_555
Mg12 P12 2.628878 1_555
Mg13 P8 2.529441 1_455
Mg13 P1 2.578943 1_555
Mg13 P7 2.591974 1_545
Mg13 P10 2.628884 1_445
Mg14 P9 2.529431 1_555
Mg14 P2 2.578947 1_555
Mg14 P8 2.591979 1_555
Mg14 P11 2.628888 1_555
Mg15 P6 2.529431 1_555
Mg15 P2 2.578948 1_565
Mg15 P5 2.591979 1_554
Mg15 P10 2.628888 1_555
Mg16 P4 2.529441 1_554
Mg16 P3 2.578943 1_555
Mg16 P8 2.591974 1_455
Mg16 P13 2.628884 1_454
Mg17 P6 2.529431 1_555
Mg17 P3 2.578947 1_555
Mg17 P7 2.591979 1_555
Mg17 P15 2.628888 1_555
Mg18 P9 2.529431 1_555
Mg18 P1 2.578948 1_655
Mg18 P6 2.591979 1_545
Mg18 P13 2.628888 1_555
Mg19 P4 2.529433 1_554
Mg19 P0 2.578950 1_555
Mg19 P6 2.591981 1_555
Mg19 P11 2.628878 1_555
Mg20 P8 2.529433 1_455
Mg20 P0 2.578950 1_555
Mg20 P5 2.591981 1_555
Mg20 P15 2.628878 1_555
Mg21 P7 2.529441 1_545
Mg21 P2 2.578943 1_555
Mg21 P4 2.591974 1_554
Mg21 P14 2.628884 1_544
Mg22 P5 2.529431 1_555
Mg22 P1 2.578947 1_555
Mg22 P4 2.591979 1_555
Mg22 P12 2.628888 1_555
Mg23 P5 2.529431 1_555
Mg23 P3 2.578948 1_556
Mg23 P9 2.591979 1_455
Mg23 P14 2.628888 1_555
