# generated using pymatgen
data_Sr4MgTi3O10
_symmetry_space_group_name_H-M   'P 1'
_cell_length_a   3.86644496
_cell_length_b   3.86644440
_cell_length_c   18.55324594
_cell_angle_alpha   95.64556641
_cell_angle_beta   95.64556053
_cell_angle_gamma   89.85352602
_symmetry_Int_Tables_number   1
_chemical_formula_structural   Sr4MgTi3O10
_chemical_formula_sum   'Sr4 Mg1 Ti3 O10'
_cell_volume   274.66854012
_cell_formula_units_Z   1
loop_
 _symmetry_equiv_pos_site_id
 _symmetry_equiv_pos_as_xyz
  1  'x, y, z'
loop_
 _atom_site_type_symbol
 _atom_site_label
 _atom_site_symmetry_multiplicity
 _atom_site_fract_x
 _atom_site_fract_y
 _atom_site_fract_z
 _atom_site_occupancy
  Sr  Sr0  1  0.57435667  0.57435667  0.15138077  1
  Sr  Sr1  1  0.46916866  0.46916866  0.92869877  1
  Sr  Sr2  1  0.22199836  0.22199836  0.51030537  1
  Sr  Sr3  1  0.67259690  0.67259690  0.36116088  1
  Mg  Mg0  1  0.36932699  0.36932699  0.72060562  1
  Ti  Ti0  1  0.01999958  0.01999958  0.03639470  1
  Ti  Ti1  1  0.90603106  0.90603106  0.79815852  1
  Ti  Ti2  1  0.12674616  0.12674616  0.26229322  1
  O  O0  1  0.11992063  0.62052346  0.24917583  1
  O  O1  1  0.75951329  0.75951329  0.48771507  1
  O  O2  1  0.17601094  0.17601094  0.36360660  1
  O  O3  1  0.51171086  0.01164139  0.01873466  1
  O  O4  1  0.01164139  0.51171086  0.01873466  1
  O  O5  1  0.06694358  0.06694358  0.13523945  1
  O  O6  1  0.95331322  0.95331322  0.89637894  1
  O  O7  1  0.62052346  0.11992063  0.24917583  1
  O  O8  1  0.39376609  0.89309915  0.77186106  1
  O  O9  1  0.89309915  0.39376609  0.77186106  1
loop_
_geom_bond_atom_site_label_1
_geom_bond_atom_site_label_2
_geom_bond_distance
_geom_bond_site_symmetry_2
Mg0 O8 2.149143 1_555
Mg0 O9 2.149144 1_555
Mg0 O8 2.151650 1_545
Mg0 O9 2.151650 1_455
O0 Ti2 1.948005 1_555
O0 Ti2 1.948373 1_565
O0 Sr0 2.637933 1_455
O0 Sr0 2.640665 1_555
O0 Sr3 2.823119 1_555
O0 Sr3 2.823401 1_455
O1 Sr3 2.330025 1_555
O1 Sr2 2.508431 1_665
O1 Sr2 2.774412 1_655
O1 Sr2 2.774412 1_565
O1 Sr2 3.029675 1_555
O2 Ti2 1.861479 1_555
O2 Sr2 2.698300 1_555
O2 Sr3 2.725465 1_555
O2 Sr3 2.730890 1_545
O2 Sr3 2.730890 1_455
O2 Sr3 2.750236 1_445
O3 Ti0 1.960163 1_655
O3 Ti0 1.960364 1_555
O3 Sr1 2.544153 1_554
O3 Sr1 2.544622 1_544
O3 Sr0 3.110168 1_545
O3 Sr0 3.111415 1_555
O4 Ti0 1.960162 1_565
O4 Ti0 1.960363 1_555
O4 Sr1 2.544153 1_554
O4 Sr1 2.544622 1_454
O4 Sr0 3.110168 1_455
O4 Sr0 3.111415 1_555
O5 Ti0 1.816104 1_555
O5 Ti2 2.334395 1_555
O5 Sr0 2.746551 1_455
O5 Sr0 2.746551 1_545
O5 Sr0 2.752481 1_555
O5 Sr0 2.754517 1_445
O6 Ti1 1.804640 1_555
O6 Sr1 2.794320 1_565
O6 Sr1 2.794320 1_655
O6 Sr1 2.797736 1_555
O6 Sr1 2.804560 1_665
O7 Ti2 1.948005 1_555
O7 Ti2 1.948374 1_655
O7 Sr0 2.637933 1_545
O7 Sr0 2.640665 1_555
O7 Sr3 2.823118 1_555
O7 Sr3 2.823401 1_545
O8 Ti1 1.992254 1_555
O8 Ti1 1.993123 1_455
O9 Ti1 1.992254 1_555
O9 Ti1 1.993122 1_545
