# generated using pymatgen
data_MgCo4(PO3)12
_symmetry_space_group_name_H-M   'P 1'
_cell_length_a   8.58765629
_cell_length_b   8.62400698
_cell_length_c   8.87122864
_cell_angle_alpha   90.55663515
_cell_angle_beta   89.64369207
_cell_angle_gamma   90.76817762
_symmetry_Int_Tables_number   1
_chemical_formula_structural   MgCo4(PO3)12
_chemical_formula_sum   'Mg1 Co4 P12 O36'
_cell_volume   656.90103280
_cell_formula_units_Z   1
loop_
 _symmetry_equiv_pos_site_id
 _symmetry_equiv_pos_as_xyz
  1  'x, y, z'
loop_
 _atom_site_type_symbol
 _atom_site_label
 _atom_site_symmetry_multiplicity
 _atom_site_fract_x
 _atom_site_fract_y
 _atom_site_fract_z
 _atom_site_occupancy
  Mg  Mg0  1  0.28913400  0.97460100  0.34901300  1
  Co  Co0  1  0.88103400  0.36235600  0.36224800  1
  Co  Co1  1  0.63145700  0.64519200  0.85466800  1
  Co  Co2  1  0.37277600  0.14469100  0.66761700  1
  Co  Co3  1  0.11359100  0.83325800  0.12024300  1
  P  P0  1  0.68071600  0.01081900  0.80519400  1
  P  P1  1  0.71426300  0.69103600  0.45188300  1
  P  P2  1  0.79222800  0.31148700  0.94453500  1
  P  P3  1  0.82532100  0.99043900  0.30704100  1
  P  P4  1  0.03931300  0.32136100  0.69293600  1
  P  P5  1  0.18286300  0.47871900  0.17898300  1
  P  P6  1  0.18085000  0.78526300  0.55007700  1
  P  P7  1  0.31431300  0.18662800  0.06027800  1
  P  P8  1  0.32077300  0.51048100  0.69511000  1
  P  P9  1  0.46675000  0.67438300  0.20427000  1
  P  P10  1  0.55541300  0.19278800  0.30311700  1
  P  P11  1  0.96054100  0.82364500  0.81156500  1
  O  O0  1  0.65697900  0.32381900  0.35976500  1
  O  O1  1  0.94655000  0.28370200  0.84453700  1
  O  O2  1  0.92732600  0.38645100  0.57916900  1
  O  O3  1  0.90565000  0.12733100  0.38177500  1
  O  O4  1  0.03061800  0.76489400  0.65194100  1
  O  O5  1  0.09445900  0.88415100  0.90307700  1
  O  O6  1  0.10685200  0.60640900  0.09653100  1
  O  O7  1  0.09532800  0.40103300  0.30778000  1
  O  O8  1  0.13612100  0.18593000  0.64771700  1
  O  O9  1  0.15101600  0.46065000  0.75809200  1
  O  O10  1  0.12731800  0.80533400  0.38877400  1
  O  O11  1  0.21940200  0.07846700  0.16026200  1
  O  O12  1  0.22838900  0.35035700  0.05558100  1
  O  O13  1  0.26806300  0.62434000  0.56019100  1
  O  O14  1  0.29291300  0.91679800  0.58856300  1
  O  O15  1  0.35278900  0.14127300  0.90343900  1
  O  O16  1  0.35043900  0.52997300  0.24456800  1
  O  O17  1  0.36709800  0.81794600  0.18737500  1
  O  O18  1  0.40319800  0.60392700  0.81617600  1
  O  O19  1  0.40333200  0.37631800  0.62558800  1
  O  O20  1  0.42958400  0.13947100  0.41101300  1
  O  O21  1  0.47497600  0.23615900  0.14757000  1
  O  O22  1  0.54870000  0.69634500  0.36420000  1
  O  O23  1  0.85981700  0.69655500  0.87556500  1
  O  O24  1  0.60292700  0.87016300  0.87724200  1
  O  O25  1  0.60028300  0.08126000  0.67400300  1
  O  O26  1  0.90158400  0.91301400  0.17526500  1
  O  O27  1  0.65516400  0.04597700  0.25102300  1
  O  O28  1  0.67517700  0.66753900  0.61433700  1
  O  O29  1  0.68625200  0.42471100  0.86525300  1
  O  O30  1  0.71277300  0.13913100  0.93414100  1
  O  O31  1  0.77645100  0.86858200  0.43553500  1
  O  O32  1  0.82427700  0.58787100  0.36596000  1
  O  O33  1  0.83894500  0.33770900  0.10376800  1
  O  O34  1  0.85467000  0.96415000  0.75391800  1
  O  O35  1  0.57950200  0.63135900  0.08308700  1
loop_
_geom_bond_atom_site_label_1
_geom_bond_atom_site_label_2
_geom_bond_distance
_geom_bond_site_symmetry_2
Mg0 O20 1.930281 1_565
Mg0 O11 2.005180 1_565
Mg0 O10 2.033686 1_555
Mg0 O17 2.074674 1_555
Mg0 O14 2.188032 1_555
Co0 O7 1.925355 1_655
Co0 O0 1.948426 1_555
Co0 O2 1.975827 1_555
Co0 O32 2.011229 1_555
Co0 O3 2.049783 1_555
Co0 O33 2.330796 1_555
Co1 O24 1.966953 1_555
Co1 O29 1.968169 1_555
Co1 O23 2.013960 1_555
Co1 O18 2.018150 1_555
Co1 O35 2.076403 1_556
Co1 O28 2.172499 1_555
Co2 O25 2.037212 1_555
Co2 O19 2.048729 1_555
Co2 O8 2.076777 1_555
Co2 O15 2.098456 1_555
Co2 O14 2.183544 1_545
Co2 O20 2.325247 1_555
Co3 O6 1.965709 1_555
Co3 O5 1.988327 1_554
Co3 O26 2.010495 1_455
Co3 O17 2.266481 1_555
Co3 O11 2.315493 1_565
Co3 O10 2.400451 1_555
O0 P10 1.502737 1_555
O1 P4 1.592803 1_655
O1 P2 1.609491 1_555
O2 P4 1.515296 1_655
O3 P3 1.509232 1_545
O4 P6 1.579376 1_555
O4 P11 1.614849 1_455
O5 P11 1.497072 1_455
O6 P5 1.488158 1_555
O7 P5 1.519911 1_555
O8 P4 1.492977 1_555
O9 P8 1.612394 1_555
O9 P4 1.630875 1_555
O10 P6 1.517913 1_555
O11 P7 1.519158 1_555
O12 P5 1.599829 1_555
O12 P7 1.602941 1_555
O13 P6 1.589371 1_555
O13 P8 1.625767 1_555
O14 P6 1.515507 1_555
O15 P7 1.478245 1_556
O16 P5 1.610347 1_555
O16 P9 1.627064 1_555
O17 P9 1.523579 1_555
O18 P8 1.510398 1_555
O19 P8 1.491453 1_555
O20 P10 1.509174 1_555
O21 P10 1.596863 1_555
O21 P7 1.636099 1_555
O22 P9 1.596150 1_555
O22 P1 1.626302 1_555
O23 P11 1.500793 1_555
O24 P0 1.521254 1_565
O25 P0 1.495200 1_555
O26 P3 1.492781 1_555
O27 P10 1.600993 1_555
O27 P3 1.626049 1_545
O28 P1 1.492824 1_555
O29 P2 1.523648 1_555
O30 P0 1.606229 1_555
O30 P2 1.629229 1_555
O31 P3 1.607913 1_555
O31 P1 1.622378 1_555
O32 P1 1.505175 1_555
O33 P2 1.485233 1_554
O34 P11 1.613618 1_555
O34 P0 1.613885 1_565
O35 P9 1.489926 1_555
