# generated using pymatgen
data_MgV4(O2F)4
_symmetry_space_group_name_H-M   'P 1'
_cell_length_a   5.03141448
_cell_length_b   9.33193430
_cell_length_c   5.20111472
_cell_angle_alpha   102.72178619
_cell_angle_beta   116.76415967
_cell_angle_gamma   73.98716481
_symmetry_Int_Tables_number   1
_chemical_formula_structural   MgV4(O2F)4
_chemical_formula_sum   'Mg1 V4 O8 F4'
_cell_volume   208.26923496
_cell_formula_units_Z   1
loop_
 _symmetry_equiv_pos_site_id
 _symmetry_equiv_pos_as_xyz
  1  'x, y, z'
loop_
 _atom_site_type_symbol
 _atom_site_label
 _atom_site_symmetry_multiplicity
 _atom_site_fract_x
 _atom_site_fract_y
 _atom_site_fract_z
 _atom_site_occupancy
  Mg  Mg0  1  0.35518100  0.94487900  0.63130200  1
  V  V0  1  0.00819400  0.00430200  0.99632100  1
  V  V1  1  0.68662900  0.73911500  0.17042900  1
  V  V2  1  0.52037700  0.50349300  0.50402000  1
  V  V3  1  0.32141600  0.27532200  0.81294600  1
  O  O0  1  0.37797700  0.86521600  0.24207900  1
  O  O1  1  0.48886900  0.36731800  0.14086100  1
  O  O2  1  0.74816900  0.86282600  0.99440300  1
  O  O3  1  0.30344600  0.37834500  0.56666800  1
  O  O4  1  0.70427500  0.62038800  0.46183300  1
  O  O5  1  0.19887400  0.11148500  0.93761800  1
  O  O6  1  0.51916900  0.62323200  0.87930400  1
  O  O7  1  0.59998000  0.11487100  0.77410500  1
  F  F0  1  0.11016400  0.62541900  0.28127300  1
  F  F1  1  0.02391800  0.10088900  0.36850200  1
  F  F2  1  0.01587700  0.86999200  0.62946000  1
  F  F3  1  0.89248600  0.36433800  0.73387700  1
loop_
_geom_bond_atom_site_label_1
_geom_bond_atom_site_label_2
_geom_bond_distance
_geom_bond_site_symmetry_2
Mg0 O0 2.040399 1_555
Mg0 O7 2.078542 1_565
Mg0 O2 2.121554 1_555
Mg0 O5 2.221916 1_565
O0 V1 1.804212 1_555
O0 V0 2.009132 1_564
O1 V3 1.678001 1_554
O1 V2 1.997995 1_555
O2 V1 1.784628 1_556
O2 V0 2.095272 1_665
O3 V3 1.721439 1_555
O3 V2 1.962797 1_555
O4 V2 1.714455 1_555
O4 V1 2.024029 1_555
O5 V0 1.715179 1_555
O5 V3 2.110685 1_555
O6 V1 1.674684 1_556
O6 V2 2.026040 1_555
O7 V3 1.791968 1_555
O7 V0 1.958831 1_655
F0 V1 1.978564 1_455
F0 V2 2.007011 1_555
F1 V0 1.923222 1_554
F1 Mg0 2.061973 1_545
F2 Mg0 2.010836 1_555
F2 V0 2.049295 1_565
F2 V1 2.491156 1_455
F3 V3 1.969451 1_655
F3 V2 1.986802 1_555
