# generated using pymatgen
data_MgTi3Nb3O12
_symmetry_space_group_name_H-M   'P 1'
_cell_length_a   7.46215910
_cell_length_b   5.72217235
_cell_length_c   5.81979418
_cell_angle_alpha   75.02451379
_cell_angle_beta   68.43402279
_cell_angle_gamma   70.50131194
_symmetry_Int_Tables_number   1
_chemical_formula_structural   MgTi3Nb3O12
_chemical_formula_sum   'Mg1 Ti3 Nb3 O12'
_cell_volume   215.22670722
_cell_formula_units_Z   1
loop_
 _symmetry_equiv_pos_site_id
 _symmetry_equiv_pos_as_xyz
  1  'x, y, z'
loop_
 _atom_site_type_symbol
 _atom_site_label
 _atom_site_symmetry_multiplicity
 _atom_site_fract_x
 _atom_site_fract_y
 _atom_site_fract_z
 _atom_site_occupancy
  Mg  Mg0  1  0.50045900  0.00295300  0.48841000  1
  Ti  Ti0  1  0.69540900  0.35811500  0.31856800  1
  Ti  Ti1  1  0.14185700  0.34920100  0.35002300  1
  Ti  Ti2  1  0.00625900  0.00336900  0.00382200  1
  Nb  Nb0  1  0.84828200  0.65796900  0.65842000  1
  Nb  Nb1  1  0.31201000  0.61689100  0.68226100  1
  Nb  Nb2  1  0.51973900  0.97681000  0.98652300  1
  O  O0  1  0.68471400  0.06584400  0.62016900  1
  O  O1  1  0.33834200  0.35576200  0.96163900  1
  O  O2  1  0.62161400  0.61000200  0.54955900  1
  O  O3  1  0.98127200  0.23874000  0.21423900  1
  O  O4  1  0.31893100  0.90309300  0.85475400  1
  O  O5  1  0.70171300  0.08043200  0.12951600  1
  O  O6  1  0.01568200  0.77531400  0.78624100  1
  O  O7  1  0.38175000  0.38194300  0.43514400  1
  O  O8  1  0.32295500  0.94635100  0.34948700  1
  O  O9  1  0.66581000  0.61165200  0.04334500  1
  O  O10  1  0.00264400  0.27500200  0.70596100  1
  O  O11  1  0.02091500  0.70722600  0.27858700  1
loop_
_geom_bond_atom_site_label_1
_geom_bond_atom_site_label_2
_geom_bond_distance
_geom_bond_site_symmetry_2
Mg0 O8 1.929262 1_545
Mg0 O0 1.963664 1_555
Mg0 O7 2.038581 1_555
Mg0 O2 2.113246 1_545
Mg0 O4 2.114478 1_545
Mg0 O5 2.115295 1_555
Nb0 O6 2.016402 1_655
Nb0 O10 2.107476 1_655
Nb0 O11 2.110074 1_655
Nb0 O2 2.127262 1_555
Nb0 O9 2.152758 1_556
Nb0 O0 2.239663 1_565
Nb1 O1 1.923075 1_555
Nb1 O6 2.009780 1_555
Nb1 O7 2.031892 1_555
Nb1 O2 2.139814 1_555
Nb1 O4 2.153304 1_555
Nb1 O8 2.326167 1_555
Nb2 O9 2.012688 1_556
Nb2 O0 2.061235 1_565
Nb2 O8 2.085438 1_556
Nb2 O4 2.108392 1_555
Nb2 O5 2.123990 1_566
Nb2 O1 2.139551 1_565
O0 Ti0 2.086457 1_555
O1 Ti1 2.194708 1_556
O2 Ti0 2.028600 1_555
O3 Ti0 1.917048 1_555
O3 Ti2 1.966014 1_655
O3 Ti1 1.979864 1_655
O4 Ti2 2.097907 1_566
O5 Ti2 2.041995 1_655
O5 Ti0 2.133792 1_555
O6 Ti2 2.009637 1_566
O7 Ti1 2.099721 1_555
O7 Ti0 2.150477 1_555
O8 Ti1 2.249690 1_565
O9 Ti0 1.887946 1_555
O10 Ti1 1.951516 1_555
O10 Ti2 2.008865 1_556
O11 Ti1 1.945711 1_555
O11 Ti2 2.011223 1_565
