# generated using pymatgen
data_LiCu(PO3)4
_symmetry_space_group_name_H-M   'P 1'
_cell_length_a   8.03803172
_cell_length_b   8.03803172
_cell_length_c   7.81247977
_cell_angle_alpha   86.78809374
_cell_angle_beta   86.78809374
_cell_angle_gamma   108.79929691
_symmetry_Int_Tables_number   1
_chemical_formula_structural   LiCu(PO3)4
_chemical_formula_sum   'Li2 Cu2 P8 O24'
_cell_volume   475.61798647
_cell_formula_units_Z   2
loop_
 _symmetry_equiv_pos_site_id
 _symmetry_equiv_pos_as_xyz
  1  'x, y, z'
loop_
 _atom_site_type_symbol
 _atom_site_label
 _atom_site_symmetry_multiplicity
 _atom_site_fract_x
 _atom_site_fract_y
 _atom_site_fract_z
 _atom_site_occupancy
  Li  Li0  1  0.49182400  0.18468100  0.18373700  1
  Li  Li1  1  0.18468100  0.49182400  0.68373700  1
  Cu  Cu0  1  0.13557300  0.86407900  0.25908600  1
  Cu  Cu1  1  0.86407900  0.13557300  0.75908600  1
  P  P0  1  0.43914100  0.74191100  0.36005500  1
  P  P1  1  0.23253300  0.55334400  0.10328100  1
  P  P2  1  0.95162800  0.78891900  0.69616600  1
  P  P3  1  0.74191100  0.43914100  0.86005500  1
  P  P4  1  0.55334400  0.23253300  0.60328100  1
  P  P5  1  0.07013600  0.22064500  0.34121500  1
  P  P6  1  0.22064500  0.07013600  0.84121500  1
  P  P7  1  0.78891900  0.95162800  0.19616600  1
  O  O0  1  0.41285500  0.62081100  0.19818400  1
  O  O1  1  0.12721000  0.87146000  0.79470700  1
  O  O2  1  0.87146000  0.12721000  0.29470700  1
  O  O3  1  0.89551700  0.36814200  0.81265700  1
  O  O4  1  0.98940800  0.70329100  0.54234600  1
  O  O5  1  0.83130800  0.64875600  0.84640000  1
  O  O6  1  0.63949400  0.10315500  0.68170200  1
  O  O7  1  0.92892300  0.86312300  0.16193100  1
  O  O8  1  0.86312300  0.92892300  0.66193100  1
  O  O9  1  0.63960600  0.37813900  0.02688400  1
  O  O10  1  0.62081100  0.41285500  0.69818400  1
  O  O11  1  0.56257100  0.26780500  0.41505600  1
  O  O12  1  0.64875600  0.83130800  0.34640000  1
  O  O13  1  0.70329100  0.98940800  0.04234600  1
  O  O14  1  0.07286300  0.31580800  0.49878400  1
  O  O15  1  0.34757400  0.15467100  0.67209000  1
  O  O16  1  0.31580800  0.07286300  0.99878400  1
  O  O17  1  0.37813900  0.63960600  0.52688400  1
  O  O18  1  0.16371100  0.08120700  0.35209600  1
  O  O19  1  0.26780500  0.56257100  0.91505600  1
  O  O20  1  0.08120700  0.16371100  0.85209600  1
  O  O21  1  0.36814200  0.89551700  0.31265700  1
  O  O22  1  0.15467100  0.34757400  0.17209000  1
  O  O23  1  0.10315500  0.63949400  0.18170200  1
loop_
_geom_bond_atom_site_label_1
_geom_bond_atom_site_label_2
_geom_bond_distance
_geom_bond_site_symmetry_2
Li0 O9 1.940002 1_555
Li0 O11 2.010292 1_555
Li0 O16 2.110082 1_554
Li0 O21 2.354011 1_545
Li1 O17 1.940002 1_555
Li1 O19 2.010292 1_555
Li1 O14 2.110082 1_555
Li1 O3 2.354011 1_455
Cu0 O7 1.862525 1_455
Cu0 O21 1.878490 1_555
Cu0 O23 1.878561 1_555
Cu0 O18 1.879171 1_565
Cu0 O4 2.521390 1_455
Cu0 O16 2.602157 1_564
Cu1 O8 1.862525 1_545
Cu1 O3 1.878490 1_555
Cu1 O6 1.878561 1_555
Cu1 O20 1.879171 1_655
Cu1 O13 2.521390 1_546
Cu1 O14 2.602157 1_655
O0 P1 1.613549 1_555
O0 P0 1.620721 1_555
O1 P6 1.602797 1_565
O1 P2 1.612516 1_455
O2 P5 1.602797 1_655
O2 P7 1.612516 1_545
O3 P3 1.553658 1_555
O4 P2 1.482084 1_555
O5 P3 1.599231 1_555
O5 P2 1.613874 1_555
O6 P4 1.541636 1_555
O7 P7 1.532200 1_555
O8 P2 1.532200 1_555
O9 P3 1.470979 1_554
O10 P4 1.613549 1_555
O10 P3 1.620721 1_555
O11 P4 1.475050 1_555
O12 P0 1.599231 1_555
O12 P7 1.613874 1_555
O13 P7 1.482084 1_555
O14 P5 1.482799 1_555
O15 P6 1.596859 1_555
O15 P4 1.616120 1_555
O16 P6 1.482799 1_555
O17 P0 1.470979 1_555
O18 P5 1.539156 1_555
O19 P1 1.475050 1_556
O20 P6 1.539156 1_555
O21 P0 1.553658 1_555
O22 P5 1.596859 1_555
O22 P1 1.616120 1_555
O23 P1 1.541636 1_555
