# generated using pymatgen
data_Na8Mg(CoO4)2
_symmetry_space_group_name_H-M   'P 1'
_cell_length_a   5.58928276
_cell_length_b   5.95962564
_cell_length_c   9.08298646
_cell_angle_alpha   68.58900164
_cell_angle_beta   79.78235365
_cell_angle_gamma   70.74019500
_symmetry_Int_Tables_number   1
_chemical_formula_structural   Na8Mg(CoO4)2
_chemical_formula_sum   'Na8 Mg1 Co2 O8'
_cell_volume   265.35013536
_cell_formula_units_Z   1
loop_
 _symmetry_equiv_pos_site_id
 _symmetry_equiv_pos_as_xyz
  1  'x, y, z'
loop_
 _atom_site_type_symbol
 _atom_site_label
 _atom_site_symmetry_multiplicity
 _atom_site_fract_x
 _atom_site_fract_y
 _atom_site_fract_z
 _atom_site_occupancy
  Na  Na0  1  0.96710287  0.82345090  0.33113332  1
  Na  Na1  1  0.47853943  0.50832530  0.97186065  1
  Na  Na2  1  0.46976401  0.31090573  0.33053690  1
  Na  Na3  1  0.29650337  0.96356776  0.69610488  1
  Na  Na4  1  0.95199155  0.29116092  0.53827609  1
  Na  Na5  1  0.48904775  0.92265782  0.14095853  1
  Na  Na6  1  0.99391344  0.40517380  0.15997448  1
  Na  Na7  1  0.97009417  0.60613718  0.75271475  1
  Mg  Mg0  1  0.52002603  0.26432239  0.76967147  1
  Co  Co0  1  0.00607427  0.02957069  0.99541463  1
  Co  Co1  1  0.45508300  0.66968484  0.48795261  1
  O  O0  1  0.75524308  0.17715540  0.12402438  1
  O  O1  1  0.70362840  0.57814850  0.34556561  1
  O  O2  1  0.22626169  0.98193403  0.42771355  1
  O  O3  1  0.31880245  0.37661421  0.57794253  1
  O  O4  1  0.58526837  0.59811073  0.69608623  1
  O  O5  1  0.23870808  0.23781734  0.93810860  1
  O  O6  1  0.86664620  0.01158084  0.81616824  1
  O  O7  1  0.20098583  0.71531761  0.11200254  1
loop_
_geom_bond_atom_site_label_1
_geom_bond_atom_site_label_2
_geom_bond_distance
_geom_bond_site_symmetry_2
Na0 O1 2.352628 1_555
Na0 O7 2.354432 1_655
Na0 O0 2.373360 1_565
Na0 O2 2.391257 1_655
Na1 O7 2.175332 1_556
Na1 O0 2.224964 1_556
Na1 O4 2.370307 1_555
Na1 O5 2.534189 1_555
Na2 O3 2.380534 1_555
Na2 O1 2.420588 1_555
Na2 O0 2.427047 1_555
Na2 O2 2.558480 1_545
Na2 O7 2.679945 1_555
Na3 O4 2.242708 1_555
Na3 O3 2.335154 1_565
Na3 O6 2.426590 1_465
Na3 O2 2.495064 1_555
Na4 O1 2.241898 1_555
Na4 O3 2.382720 1_655
Na4 O2 2.386633 1_645
Na4 O6 2.530095 1_555
Na4 O4 2.828566 1_555
Na5 O1 2.342669 1_555
Na5 O5 2.352566 1_564
Na5 O0 2.403108 1_565
Na5 O7 2.426590 1_555
Na5 O2 2.835186 1_555
Na6 O0 2.325338 1_555
Na6 O7 2.364341 1_655
Na6 O1 2.394122 1_555
Na6 O5 2.552815 1_654
Na6 O2 2.905806 1_645
Na7 O4 2.317663 1_555
Na7 O5 2.435583 1_655
Na7 O6 2.545944 1_565
Na7 O3 2.630346 1_655
Mg0 O4 1.989517 1_555
Mg0 O5 1.992958 1_555
Mg0 O3 2.023107 1_555
Mg0 O6 2.025146 1_555
Co0 O7 1.852303 1_546
Co0 O0 1.859938 1_456
Co0 O5 1.963332 1_555
Co0 O6 1.975395 1_455
Co1 O1 1.810477 1_555
Co1 O2 1.825590 1_555
Co1 O3 1.978219 1_555
Co1 O4 1.994949 1_555
