# generated using pymatgen
data_MgTiZn(BiO3)2
_symmetry_space_group_name_H-M   'P 1'
_cell_length_a   6.32099681
_cell_length_b   5.34035645
_cell_length_c   5.25305886
_cell_angle_alpha   90.00000000
_cell_angle_beta   90.00000000
_cell_angle_gamma   90.00016670
_symmetry_Int_Tables_number   1
_chemical_formula_structural   MgTiZn(BiO3)2
_chemical_formula_sum   'Mg1 Ti1 Zn1 Bi2 O6'
_cell_volume   177.32423047
_cell_formula_units_Z   1
loop_
 _symmetry_equiv_pos_site_id
 _symmetry_equiv_pos_as_xyz
  1  'x, y, z'
loop_
 _atom_site_type_symbol
 _atom_site_label
 _atom_site_symmetry_multiplicity
 _atom_site_fract_x
 _atom_site_fract_y
 _atom_site_fract_z
 _atom_site_occupancy
  Mg  Mg0  1  0.74399280  1.00000000  0.50000000  1
  Ti  Ti0  1  0.53514780  0.50000100  0.50000000  1
  Zn  Zn0  1  0.50451616  0.00000000  -0.00000000  1
  Bi  Bi0  1  0.20344536  1.00000000  0.50000000  1
  Bi  Bi1  1  0.85607964  0.49999900  -0.00000000  1
  O  O0  1  0.65682604  0.73788761  0.74899000  1
  O  O1  1  0.65682604  0.73788761  0.25101000  1
  O  O2  1  0.19974252  0.00000000  -0.00000000  1
  O  O3  1  0.25177054  0.50000100  0.50000000  1
  O  O4  1  0.65682705  0.26211139  0.25101000  1
  O  O5  1  0.65682705  0.26211139  0.74899000  1
loop_
_geom_bond_atom_site_label_1
_geom_bond_atom_site_label_2
_geom_bond_distance
_geom_bond_site_symmetry_2
Mg0 O5 1.993411 1_565
Mg0 O4 1.993411 1_565
Mg0 O1 1.993414 1_555
Mg0 O0 1.993414 1_555
Bi0 O2 2.626634 1_566
Bi0 O2 2.626634 1_565
Bi0 O3 2.687589 1_555
Bi0 O3 2.687598 1_565
Bi0 Mg0 2.904198 1_455
Bi1 O4 2.222346 1_555
Bi1 O5 2.222346 1_554
Bi1 O0 2.222357 1_554
Bi1 O1 2.222357 1_555
O0 Ti0 1.978945 1_555
O0 Zn0 2.150556 1_566
O1 Ti0 1.978945 1_555
O1 Zn0 2.150556 1_565
O2 Zn0 1.926473 1_555
O3 Ti0 1.791227 1_555
O4 Ti0 1.978961 1_555
O4 Zn0 2.150551 1_555
O5 Ti0 1.978961 1_555
O5 Zn0 2.150551 1_556
