# generated using pymatgen
data_Na7Y3ZnSi3(SO8)3
_symmetry_space_group_name_H-M   'P 1'
_cell_length_a   9.43246407
_cell_length_b   9.36874754
_cell_length_c   23.09969171
_cell_angle_alpha   89.75636592
_cell_angle_beta   89.96473227
_cell_angle_gamma   119.45625938
_symmetry_Int_Tables_number   1
_chemical_formula_structural   Na7Y3ZnSi3(SO8)3
_chemical_formula_sum   'Na21 Y9 Zn3 Si9 S9 O72'
_cell_volume   1777.42402099
_cell_formula_units_Z   3
loop_
 _symmetry_equiv_pos_site_id
 _symmetry_equiv_pos_as_xyz
  1  'x, y, z'
loop_
 _atom_site_type_symbol
 _atom_site_label
 _atom_site_symmetry_multiplicity
 _atom_site_fract_x
 _atom_site_fract_y
 _atom_site_fract_z
 _atom_site_occupancy
  Na  Na0  1  0.64149015  0.00172404  0.23791319  1
  Na  Na1  1  0.39587344  0.37376441  0.23578171  1
  Na  Na2  1  0.97190306  0.62639069  0.25502682  1
  Na  Na3  1  0.62553890  0.62375393  0.73401746  1
  Na  Na4  1  0.98767929  0.33908310  0.74515478  1
  Na  Na5  1  0.39090781  0.02945558  0.75589194  1
  Na  Na6  1  0.00894363  0.69153827  0.57252267  1
  Na  Na7  1  0.67062630  0.95204791  0.58667340  1
  Na  Na8  1  0.32777091  0.99469550  0.07857037  1
  Na  Na9  1  0.65266482  0.69401900  0.09781533  1
  Na  Na10  1  0.68038395  0.03260988  0.91608940  1
  Na  Na11  1  0.33749343  0.28886617  0.91960837  1
  Na  Na12  1  0.95816924  0.29394346  0.40543593  1
  Na  Na13  1  0.32407825  0.01043838  0.41049636  1
  Na  Na14  1  0.71886069  0.68518166  0.41652218  1
  Na  Na15  1  0.97935228  0.97657403  0.49144823  1
  Na  Na16  1  0.02124177  0.01852891  0.00673627  1
  Na  Na17  1  0.64672910  0.30992886  0.82525529  1
  Na  Na18  1  0.68328114  0.34986326  0.32771958  1
  Na  Na19  1  0.35289413  0.65526282  0.16194179  1
  Na  Na20  1  0.36076893  0.64512219  0.66791937  1
  Y  Y0  1  0.00811168  0.00579445  0.84789331  1
  Y  Y1  1  0.00043845  0.00634690  0.65148549  1
  Y  Y2  1  0.99039126  0.00744235  0.14898372  1
  Y  Y3  1  0.66205528  0.32467087  0.98662051  1
  Y  Y4  1  0.67088685  0.34352873  0.48322004  1
  Y  Y5  1  0.33105238  0.67418744  0.02065212  1
  Y  Y6  1  0.34801246  0.66927616  0.51604215  1
  Y  Y7  1  0.34332910  0.67622579  0.31831894  1
  Y  Y8  1  0.34074540  0.67989391  0.81554119  1
  Zn  Zn0  1  0.95581682  0.94941940  0.35235347  1
  Zn  Zn1  1  0.63751262  0.33036374  0.68471321  1
  Zn  Zn2  1  0.65391372  0.33353484  0.17075123  1
  Si  Si0  1  0.69531493  0.68303786  0.24908649  1
  Si  Si1  1  0.30584119  0.30650124  0.75166400  1
  Si  Si2  1  0.69729251  0.01075654  0.74806889  1
  Si  Si3  1  0.66925484  0.63470057  0.58771915  1
  Si  Si4  1  0.66450802  0.03370016  0.08682641  1
  Si  Si5  1  0.36471341  0.33372931  0.08465021  1
  Si  Si6  1  0.33160289  0.97703321  0.91734629  1
  Si  Si7  1  0.64392861  0.97561746  0.41564508  1
  Si  Si8  1  0.03531158  0.67075950  0.41724254  1
  S  S0  1  0.29422156  0.00013038  0.25255741  1
  S  S1  1  0.00341905  0.30075869  0.25561184  1
  S  S2  1  0.99839560  0.69565766  0.74837597  1
  S  S3  1  0.96514746  0.33674980  0.58502233  1
  S  S4  1  0.36778316  0.03089915  0.58444760  1
  S  S5  1  0.96327593  0.62990232  0.08753660  1
  S  S6  1  0.63416864  0.66894194  0.91703228  1
  S  S7  1  0.03304037  0.36796143  0.91465134  1
  S  S8  1  0.32799295  0.36019608  0.41492925  1
  O  O0  1  0.21248292  0.01511969  0.30551637  1
  O  O1  1  0.80159468  0.75989059  0.30888804  1
  O  O2  1  0.99460923  0.20748664  0.30903459  1
  O  O3  1  0.22388613  0.19954577  0.81111908  1
  O  O4  1  0.97836111  0.78450377  0.79819212  1
  O  O5  1  0.80791739  0.03375669  0.80665564  1
  O  O6  1  0.78260946  0.97406238  0.69203376  1
  O  O7  1  0.18411210  0.20699174  0.69828692  1
  O  O8  1  0.02413970  0.79392936  0.69462455  1
  O  O9  1  0.78590516  0.80570953  0.19399270  1
  O  O10  1  0.02401617  0.21728643  0.20419577  1
  O  O11  1  0.19913705  0.98954153  0.19996839  1
  O  O12  1  0.88394794  0.35040749  0.63758012  1
  O  O13  1  0.46561688  0.11215366  0.63639351  1
  O  O14  1  0.66431824  0.53031875  0.64554618  1
  O  O15  1  0.88764564  0.53710940  0.14145502  1
  O  O16  1  0.65480989  0.13260374  0.14451846  1
  O  O17  1  0.47925747  0.36744918  0.14226286  1
  O  O18  1  0.45607265  0.31717294  0.02621401  1
  O  O19  1  0.86264172  0.54715939  0.03598055  1
  O  O20  1  0.68031415  0.13177265  0.02616593  1
  O  O21  1  0.44698351  0.12487575  0.53080289  1
  O  O22  1  0.68205314  0.54751057  0.52791151  1
  O  O23  1  0.86528739  0.31963682  0.53232053  1
  O  O24  1  0.54676990  0.68245152  0.96869992  1
  O  O25  1  0.13913328  0.45624426  0.96428195  1
  O  O26  1  0.32611932  0.87290913  0.97507965  1
  O  O27  1  0.55820291  0.85701104  0.47273502  1
  O  O28  1  0.30820973  0.44598502  0.46578496  1
  O  O29  1  0.14360604  0.68631110  0.47558371  1
  O  O30  1  0.11979549  0.63773378  0.36032928  1
  O  O31  1  0.53023906  0.88770431  0.35876507  1
  O  O32  1  0.35715724  0.46244274  0.36221438  1
  O  O33  1  0.11131176  0.45402200  0.85961658  1
  O  O34  1  0.34660370  0.88574365  0.85866857  1
  O  O35  1  0.53204991  0.64536695  0.86440460  1
  O  O36  1  0.02914846  0.84435673  0.41415201  1
  O  O37  1  0.82955801  0.00020348  0.41164611  1
  O  O38  1  0.18136229  0.19746153  0.41050138  1
  O  O39  1  0.01253137  0.19826330  0.91540268  1
  O  O40  1  0.17189031  0.00492687  0.91825861  1
  O  O41  1  0.79156963  0.82386912  0.91262112  1
  O  O42  1  0.98147328  0.18570282  0.58539383  1
  O  O43  1  0.19897349  0.00523258  0.58711527  1
  O  O44  1  0.83935234  0.81869777  0.58553512  1
  O  O45  1  0.98059485  0.79766422  0.08926975  1
  O  O46  1  0.81341899  0.98955000  0.08637236  1
  O  O47  1  0.19325143  0.15764717  0.08844444  1
  O  O48  1  0.68499435  0.18000459  0.74049907  1
  O  O49  1  0.48873007  0.32593642  0.74839415  1
  O  O50  1  0.85372863  0.53077562  0.74610558  1
  O  O51  1  0.68228366  0.49986450  0.24288527  1
  O  O52  1  0.85302310  0.31402258  0.25113896  1
  O  O53  1  0.46274641  0.14244075  0.24978933  1
  O  O54  1  0.65765346  0.52477956  0.92085879  1
  O  O55  1  0.86890454  0.35211015  0.91860743  1
  O  O56  1  0.50374902  0.15992638  0.91581885  1
  O  O57  1  0.65410664  0.15552018  0.42045795  1
  O  O58  1  0.47502216  0.34012405  0.42146272  1
  O  O59  1  0.84713056  0.51340334  0.41992903  1
  O  O60  1  0.34602393  0.49842616  0.08011823  1
  O  O61  1  0.12970590  0.65127627  0.08240697  1
  O  O62  1  0.49114556  0.85359031  0.08651246  1
  O  O63  1  0.35414437  0.86374283  0.58186807  1
  O  O64  1  0.51057732  0.66577129  0.58718454  1
  O  O65  1  0.12779788  0.48681556  0.57976907  1
  O  O66  1  0.30479532  0.84400750  0.25305635  1
  O  O67  1  0.50938350  0.66395634  0.25093032  1
  O  O68  1  0.14937913  0.46945171  0.25528019  1
  O  O69  1  0.32116423  0.48981103  0.75270230  1
  O  O70  1  0.14627835  0.67781967  0.75489335  1
  O  O71  1  0.51199244  0.84908475  0.75193262  1
loop_
_geom_bond_atom_site_label_1
_geom_bond_atom_site_label_2
_geom_bond_distance
_geom_bond_site_symmetry_2
Na0 O16 2.449343 1_555
Na0 O53 2.616188 1_555
Na0 O52 2.627117 1_555
Na0 O67 2.787508 1_545
Na0 O66 2.787596 1_545
Na0 O9 2.954949 1_545
Na0 O31 2.983972 1_545
Na1 O17 2.309455 1_555
Na1 O51 2.363093 1_555
Na1 O67 2.409556 1_555
Na1 O53 2.556985 1_555
Na1 O68 2.909382 1_555
Na2 O51 2.401154 1_555
Na2 O52 2.569964 1_555
Na2 O68 2.717540 1_655
Na2 O15 2.753419 1_555
Na2 O1 2.771239 1_555
Na2 O66 2.778681 1_655
Na2 O30 2.781132 1_655
Na3 O14 2.325044 1_555
Na3 O49 2.451732 1_555
Na3 O69 2.540504 1_555
Na3 O50 2.704118 1_555
Na3 O71 2.829413 1_555
Na3 O6 3.015900 1_555
Na4 O48 2.490168 1_555
Na4 O50 2.655978 1_555
Na4 O12 2.691912 1_555
Na4 O69 2.748312 1_655
Na4 O70 2.774363 1_655
Na4 O5 2.875417 1_555
Na4 O33 2.881554 1_655
Na4 O7 2.898396 1_655
Na5 O48 2.440724 1_555
Na5 O71 2.463291 1_545
Na5 O49 2.464091 1_555
Na5 O34 2.653683 1_545
Na5 O13 2.856394 1_555
Na5 O70 2.949954 1_545
Na5 O3 3.022040 1_555
Na6 O44 2.438297 1_455
Na6 O29 2.586252 1_555
Na6 O43 2.606126 1_565
Na6 O65 2.660050 1_555
Na6 O63 2.844088 1_555
Na6 O22 2.883345 1_455
Na6 O8 2.963839 1_555
Na7 O64 2.343091 1_555
Na7 O44 2.459703 1_555
Na7 O6 2.621979 1_555
Na7 O42 2.660164 1_565
Na7 O63 2.679630 1_555
Na7 O27 2.817648 1_555
Na8 O47 2.429083 1_565
Na8 O62 2.481523 1_555
Na8 O26 2.650064 1_554
Na8 O61 2.816992 1_555
Na8 O45 2.870926 1_455
Na8 O18 2.902774 1_565
Na9 O46 2.428839 1_555
Na9 O9 2.517946 1_555
Na9 O60 2.585710 1_555
Na9 O62 2.619455 1_555
Na9 O45 2.755581 1_555
Na9 O17 2.853018 1_555
Na10 O56 2.480567 1_555
Na10 O55 2.625254 1_555
Na10 O41 2.636142 1_545
Na10 O20 2.710956 1_556
Na10 O39 2.727994 1_655
Na10 O5 2.796558 1_555
Na11 O40 2.330527 1_555
Na11 O56 2.406260 1_555
Na11 O18 2.665100 1_556
Na11 O3 2.695952 1_555
Na11 O54 2.727949 1_555
Na11 O39 2.750904 1_555
Na12 O37 2.403869 1_555
Na12 O2 2.453828 1_555
Na12 O57 2.522857 1_555
Na12 O38 2.670934 1_655
Na12 O59 2.749518 1_555
Na13 O36 2.430758 1_545
Na13 O0 2.652965 1_555
Na13 O38 2.683673 1_555
Na13 O58 2.704356 1_555
Na13 O57 2.726377 1_555
Na14 O59 2.444208 1_555
Na14 O36 2.549381 1_655
Na14 O1 2.593505 1_555
Na14 O37 2.603770 1_565
Na14 O22 2.816918 1_555
Na14 O58 2.904736 1_555
Na14 O27 2.998124 1_555
Na15 O36 2.352256 1_655
Na15 O37 2.398101 1_565
Na15 O44 2.589065 1_555
Na15 O38 2.737542 1_665
Na15 O42 2.923391 1_565
Na15 O43 2.951389 1_665
Na16 O47 2.416290 1_555
Na16 O40 2.527712 1_554
Na16 O46 2.601596 1_445
Na16 O45 2.692343 1_445
Na16 O39 2.720194 1_554
Na16 O41 2.983172 1_444
Na17 O49 2.369947 1_555
Na17 O48 2.428284 1_555
Na17 O56 2.505536 1_555
Na17 O50 2.725119 1_555
Na17 O55 2.897644 1_555
Na17 O54 2.962006 1_555
Na18 O51 2.409324 1_555
Na18 O52 2.517114 1_555
Na18 O59 2.641197 1_555
Na18 O53 2.720795 1_555
Na18 O57 2.730076 1_555
Na18 O58 2.893630 1_555
Na19 O60 2.380299 1_555
Na19 O62 2.403232 1_555
Na19 O67 2.509559 1_555
Na19 O61 2.781502 1_555
Na19 O68 2.835581 1_555
Na19 O66 2.929518 1_555
Na20 O64 2.288457 1_555
Na20 O69 2.352149 1_555
Na20 O71 2.608928 1_555
Na20 O65 2.828548 1_555
Na20 O63 2.870822 1_555
Na20 O70 2.972075 1_555
O0 S0 1.489125 1_555
O0 Zn0 2.436416 1_445
O1 Si0 1.652848 1_555
O1 Zn0 1.937437 1_555
O2 S1 1.487504 1_655
O2 Zn0 2.467725 1_545
O3 Si1 1.647126 1_555
O3 Y0 2.123712 1_555
O4 S2 1.488403 1_555
O4 Y0 2.267930 1_665
O5 Si2 1.658266 1_555
O5 Y0 2.242416 1_655
O6 Si2 1.647986 1_565
O6 Y1 2.138796 1_665
O7 Si1 1.632945 1_555
O7 Y1 2.126139 1_555
O8 S2 1.489402 1_455
O8 Y1 2.329037 1_565
O9 Si0 1.640425 1_555
O9 Y2 2.183756 1_565
O10 S1 1.488953 1_555
O10 Y2 2.236250 1_455
O11 S0 1.484861 1_565
O11 Y2 2.370239 1_465
O12 S3 1.474286 1_555
O12 Zn1 2.487923 1_555
O13 S4 1.479577 1_555
O13 Zn1 2.194473 1_555
O14 Si3 1.639165 1_555
O14 Zn1 1.977702 1_555
O15 S5 1.481787 1_555
O15 Zn2 2.192658 1_555
O16 Si4 1.654293 1_555
O16 Zn2 1.984016 1_555
O17 Si5 1.645571 1_555
O17 Zn2 1.939703 1_555
O18 Si5 1.649421 1_555
O18 Y3 2.116461 1_554
O19 S5 1.485197 1_555
O19 Y3 2.317059 1_554
O20 Si4 1.638287 1_555
O20 Y3 2.102955 1_554
O21 S4 1.487115 1_555
O21 Y4 2.363856 1_555
O22 Si3 1.642212 1_555
O22 Y4 2.132589 1_555
O23 S3 1.499842 1_555
O23 Y4 2.258977 1_555
O24 S6 1.490900 1_555
O24 Y5 2.329731 1_556
O25 S7 1.481657 1_555
O25 Y5 2.352005 1_556
O26 Si6 1.634648 1_555
O26 Y5 2.155263 1_556
O27 Si7 1.652343 1_555
O27 Y6 2.139628 1_555
O28 S8 1.488664 1_555
O28 Y6 2.261355 1_555
O29 Si8 1.654642 1_555
O29 Y6 2.218084 1_555
O30 Si8 1.644330 1_555
O30 Y7 2.182684 1_555
O31 Si7 1.642246 1_555
O31 Y7 2.118712 1_555
O32 S8 1.485454 1_555
O32 Y7 2.301414 1_555
O33 S7 1.488623 1_555
O33 Y8 2.381789 1_555
O34 Si6 1.648442 1_555
O34 Y8 2.150917 1_555
O35 S6 1.499656 1_555
O35 Y8 2.282164 1_555
O36 Si8 1.656992 1_555
O36 Zn0 2.035688 1_455
O37 Si7 1.652375 1_545
O37 Zn0 2.020254 1_545
O38 S8 1.474934 1_555
O39 S7 1.504210 1_555
O39 Y0 2.373852 1_555
O40 Si6 1.650889 1_545
O40 Y0 2.245861 1_555
O41 S6 1.483419 1_555
O41 Y0 2.421399 1_665
O42 S3 1.496857 1_555
O42 Y1 2.336773 1_655
O43 S4 1.490029 1_555
O43 Y1 2.394560 1_555
O44 Si3 1.681462 1_555
O44 Y1 2.262446 1_665
O45 S5 1.498869 1_555
O45 Y2 2.370326 1_565
O46 Si4 1.647885 1_565
O46 Y2 2.153190 1_565
O47 Si5 1.649037 1_555
O47 Y2 2.220125 1_455
O48 Si2 1.654348 1_555
O48 Zn1 2.109815 1_555
O49 Si1 1.644869 1_555
O49 Zn1 2.018607 1_555
O50 S2 1.476018 1_555
O50 Zn1 2.440478 1_555
O51 Si0 1.665922 1_555
O51 Zn2 2.211082 1_555
O52 S1 1.487281 1_655
O53 S0 1.491056 1_555
O54 S6 1.474560 1_555
O54 Y3 2.424146 1_555
O55 S7 1.483552 1_655
O55 Y3 2.416744 1_555
O56 Si6 1.684295 1_545
O56 Y3 2.246005 1_555
O57 Si7 1.644635 1_545
O57 Y4 2.230981 1_555
O58 S8 1.495995 1_555
O58 Y4 2.322717 1_555
O59 Si8 1.659310 1_655
O59 Y4 2.192956 1_555
O60 Si5 1.639840 1_555
O60 Y5 2.197285 1_555
O61 S5 1.486252 1_455
O61 Y5 2.298061 1_555
O62 Si4 1.675611 1_565
O62 Y5 2.224447 1_555
O63 S4 1.508395 1_565
O63 Y6 2.356867 1_555
O64 Si3 1.659384 1_555
O64 Y6 2.259463 1_555
O65 S3 1.490643 1_455
O65 Y6 2.426181 1_555
O66 S0 1.514212 1_565
O66 Y7 2.327688 1_555
O67 Si0 1.673632 1_555
O67 Y7 2.250621 1_555
O68 S1 1.501062 1_555
O68 Y7 2.400362 1_555
O69 Si1 1.651392 1_555
O69 Y8 2.238602 1_555
O70 S2 1.491863 1_455
O70 Y8 2.301311 1_555
O71 Si2 1.658918 1_565
O71 Y8 2.177092 1_555
