# generated using pymatgen
data_TbMnO3
_symmetry_space_group_name_H-M   'P 1'
_cell_length_a   5.27122738
_cell_length_b   5.63501917
_cell_length_c   7.56732549
_cell_angle_alpha   90.00000000
_cell_angle_beta   90.00000000
_cell_angle_gamma   90.00000000
_symmetry_Int_Tables_number   1
_chemical_formula_structural   TbMnO3
_chemical_formula_sum   'Tb4 Mn4 O12'
_cell_volume   224.77580551
_cell_formula_units_Z   4
loop_
 _symmetry_equiv_pos_site_id
 _symmetry_equiv_pos_as_xyz
  1  'x, y, z'
loop_
 _atom_site_type_symbol
 _atom_site_label
 _atom_site_symmetry_multiplicity
 _atom_site_fract_x
 _atom_site_fract_y
 _atom_site_fract_z
 _atom_site_occupancy
  Tb  Tb0  1  0.51812928  0.57180240  0.25000000  1
  Tb  Tb1  1  0.98187072  0.07180240  0.25000000  1
  Tb  Tb2  1  0.48187072  0.42819760  0.75000000  1
  Tb  Tb3  1  0.01812928  0.92819760  0.75000000  1
  Mn  Mn0  1  -0.00000000  0.50000000  -0.00000000  1
  Mn  Mn1  1  0.50000000  0.00000000  0.50000000  1
  Mn  Mn2  1  -0.00000000  0.50000000  0.50000000  1
  Mn  Mn3  1  0.50000000  0.00000000  -0.00000000  1
  O  O0  1  0.39434735  0.96681991  0.25000000  1
  O  O1  1  0.10565265  0.46681991  0.25000000  1
  O  O2  1  0.60565265  0.03318009  0.75000000  1
  O  O3  1  0.89434735  0.53318009  0.75000000  1
  O  O4  1  0.80006389  0.80946055  0.05369608  1
  O  O5  1  0.69993611  0.30946055  0.44630392  1
  O  O6  1  0.19993611  0.19053945  0.55369608  1
  O  O7  1  0.30006389  0.69053945  0.94630392  1
  O  O8  1  0.19993611  0.19053945  0.94630392  1
  O  O9  1  0.30006389  0.69053945  0.55369608  1
  O  O10  1  0.80006389  0.80946055  0.44630392  1
  O  O11  1  0.69993611  0.30946055  0.05369608  1
loop_
_geom_bond_atom_site_label_1
_geom_bond_atom_site_label_2
_geom_bond_distance
_geom_bond_site_symmetry_2
Mn0 O11 1.954410 1_455
Mn0 O7 1.954410 1_554
Mn0 O3 1.980945 1_454
Mn0 O1 1.980945 1_555
Mn0 O4 2.077673 1_455
Mn0 O8 2.077673 1_554
Mn1 O6 1.954410 1_555
Mn1 O10 1.954410 1_545
Mn1 O0 1.980945 1_545
Mn1 O2 1.980945 1_555
Mn1 O9 2.077673 1_545
Mn1 O5 2.077673 1_555
Mn2 O5 1.954410 1_455
Mn2 O9 1.954410 1_555
Mn2 O3 1.980945 1_455
Mn2 O1 1.980945 1_555
Mn2 O10 2.077673 1_455
Mn2 O6 2.077673 1_555
Mn3 O8 1.954410 1_554
Mn3 O4 1.954410 1_545
Mn3 O0 1.980945 1_545
Mn3 O2 1.980945 1_554
Mn3 O7 2.077673 1_544
Mn3 O11 2.077673 1_555
O0 Tb1 2.253301 1_465
O0 Tb0 2.319591 1_555
O1 Tb0 2.253301 1_555
O1 Tb1 2.319591 1_455
O2 Tb3 2.253301 1_645
O2 Tb2 2.319591 1_555
O3 Tb2 2.253301 1_555
O3 Tb3 2.319591 1_655
O4 Tb1 2.304452 1_565
O4 Tb0 2.491745 1_555
O4 Tb3 2.655284 1_654
O5 Tb0 2.304452 1_555
O5 Tb1 2.491745 1_555
O5 Tb2 2.655284 1_555
O6 Tb3 2.304452 1_545
O6 Tb2 2.491745 1_555
O6 Tb1 2.655284 1_455
O7 Tb2 2.304452 1_555
O7 Tb3 2.491745 1_555
O7 Tb0 2.655284 1_556
O8 Tb3 2.304452 1_545
O8 Tb2 2.491745 1_555
O8 Tb1 2.655284 1_456
O9 Tb2 2.304452 1_555
O9 Tb3 2.491745 1_555
O9 Tb0 2.655284 1_555
O10 Tb1 2.304452 1_565
O10 Tb0 2.491745 1_555
O10 Tb3 2.655284 1_655
O11 Tb0 2.304452 1_555
O11 Tb1 2.491745 1_555
O11 Tb2 2.655284 1_554
