# generated using pymatgen
data_Rb2In4O7
_symmetry_space_group_name_H-M   'P 1'
_cell_length_a   5.65632288
_cell_length_b   5.65632348
_cell_length_c   7.37594963
_cell_angle_alpha   90.00000000
_cell_angle_beta   90.00000000
_cell_angle_gamma   120.00000820
_symmetry_Int_Tables_number   1
_chemical_formula_structural   Rb2In4O7
_chemical_formula_sum   'Rb2 In4 O7'
_cell_volume   204.36991709
_cell_formula_units_Z   1
loop_
 _symmetry_equiv_pos_site_id
 _symmetry_equiv_pos_as_xyz
  1  'x, y, z'
loop_
 _atom_site_type_symbol
 _atom_site_label
 _atom_site_symmetry_multiplicity
 _atom_site_fract_x
 _atom_site_fract_y
 _atom_site_fract_z
 _atom_site_occupancy
  Rb  Rb0  1  0.33333300  0.66666700  -0.00000000  1
  Rb  Rb1  1  0.66666700  0.33333300  -0.00000000  1
  In  In0  1  0.00000000  0.00000000  0.72446102  1
  In  In1  1  0.66666700  0.33333300  0.50000000  1
  In  In2  1  0.00000000  0.00000000  0.27553898  1
  In  In3  1  0.33333300  0.66666700  0.50000000  1
  O  O0  1  0.35822853  -0.00000000  0.66561839  1
  O  O1  1  0.64177147  0.64177147  0.66561839  1
  O  O2  1  0.35822853  0.35822853  0.33438161  1
  O  O3  1  0.00000000  0.64177147  0.33438161  1
  O  O4  1  -0.00000000  0.35822853  0.66561839  1
  O  O5  1  0.00000000  0.00000000  -0.00000000  1
  O  O6  1  0.64177147  0.00000000  0.33438161  1
loop_
_geom_bond_atom_site_label_1
_geom_bond_atom_site_label_2
_geom_bond_distance
_geom_bond_site_symmetry_2
In0 O5 2.032362 1_556
In0 O1 2.072218 1_445
In0 O0 2.072218 1_555
In0 O4 2.072218 1_555
In1 O4 2.191232 1_655
In1 O6 2.191232 1_555
In1 O3 2.191234 1_655
In1 O0 2.191234 1_555
In1 O2 2.191237 1_555
In1 O1 2.191237 1_555
In2 O5 2.032362 1_555
In2 O2 2.072218 1_555
In2 O6 2.072218 1_455
In2 O3 2.072218 1_545
In3 O3 2.191232 1_555
In3 O0 2.191232 1_565
In3 O4 2.191234 1_555
In3 O6 2.191234 1_565
In3 O1 2.191237 1_555
In3 O2 2.191237 1_555
O0 Rb0 3.064678 1_546
O0 Rb1 3.064679 1_556
O1 Rb0 3.064681 1_556
O1 Rb1 3.064681 1_556
O2 Rb1 3.064681 1_555
O2 Rb0 3.064681 1_555
O3 Rb0 3.064677 1_555
O3 Rb1 3.064679 1_455
O4 Rb1 3.064677 1_456
O4 Rb0 3.064679 1_556
O5 Rb1 3.265677 1_455
O5 Rb0 3.265677 1_545
O5 Rb1 3.265681 1_555
O5 Rb0 3.265681 1_445
O5 Rb1 3.265681 1_445
O5 Rb0 3.265681 1_555
O6 Rb1 3.064678 1_555
O6 Rb0 3.064679 1_545
