# generated using pymatgen
data_Sr2MgCu(BrO)2
_symmetry_space_group_name_H-M   'P 1'
_cell_length_a   3.74519177
_cell_length_b   4.78428511
_cell_length_c   11.65206881
_cell_angle_alpha   98.27562212
_cell_angle_beta   99.19907171
_cell_angle_gamma   89.93603131
_symmetry_Int_Tables_number   1
_chemical_formula_structural   Sr2MgCu(BrO)2
_chemical_formula_sum   'Sr2 Mg1 Cu1 Br2 O2'
_cell_volume   203.90004888
_cell_formula_units_Z   1
loop_
 _symmetry_equiv_pos_site_id
 _symmetry_equiv_pos_as_xyz
  1  'x, y, z'
loop_
 _atom_site_type_symbol
 _atom_site_label
 _atom_site_symmetry_multiplicity
 _atom_site_fract_x
 _atom_site_fract_y
 _atom_site_fract_z
 _atom_site_occupancy
  Sr  Sr0  1  0.51010201  0.49323866  0.01680224  1
  Sr  Sr1  1  0.35820819  0.40185628  0.72532596  1
  Mg  Mg0  1  0.64750162  0.02439903  0.29562229  1
  Cu  Cu0  1  0.05988606  0.02046655  0.11542991  1
  Br  Br0  1  0.81429716  0.87167398  0.64007468  1
  Br  Br1  1  0.20832325  0.30260921  0.42129450  1
  O  O0  1  0.56220567  0.03602716  0.12056719  1
  O  O1  1  0.93947603  0.44972914  0.87738322  1
loop_
_geom_bond_atom_site_label_1
_geom_bond_atom_site_label_2
_geom_bond_distance
_geom_bond_site_symmetry_2
Mg0 O0 2.022382 1_555
Cu0 O0 1.873867 1_555
Cu0 O0 1.875463 1_455
Br0 Sr1 3.185286 1_565
Br0 Sr1 3.186014 1_555
Br0 Sr1 3.189706 1_655
Br0 Sr1 3.195246 1_665
Br1 Mg0 2.605636 1_455
Br1 Mg0 2.612558 1_555
Br1 Sr1 3.459927 1_555
O0 Sr0 2.640030 1_555
O0 Sr0 2.695448 1_545
O1 Sr0 2.450613 1_556
O1 Sr0 2.458297 1_656
O1 Sr1 2.534125 1_655
O1 Sr1 2.565518 1_555
