# generated using pymatgen
data_NaZrInSi(SO6)2
_symmetry_space_group_name_H-M   'P 1'
_cell_length_a   8.95099965
_cell_length_b   8.99171033
_cell_length_c   23.57536302
_cell_angle_alpha   89.65253105
_cell_angle_beta   90.00000000
_cell_angle_gamma   119.85034152
_symmetry_Int_Tables_number   1
_chemical_formula_structural   NaZrInSi(SO6)2
_chemical_formula_sum   'Na6 Zr6 In6 Si6 S12 O72'
_cell_volume   1645.67935051
_cell_formula_units_Z   6
loop_
 _symmetry_equiv_pos_site_id
 _symmetry_equiv_pos_as_xyz
  1  'x, y, z'
loop_
 _atom_site_type_symbol
 _atom_site_label
 _atom_site_symmetry_multiplicity
 _atom_site_fract_x
 _atom_site_fract_y
 _atom_site_fract_z
 _atom_site_occupancy
  Na  Na0  1  0.02116408  0.01172547  0.50411266  1
  Na  Na1  1  0.99056140  0.01172547  0.00411266  1
  Na  Na2  1  0.68609936  0.33144064  0.83643232  1
  Na  Na3  1  0.64534228  0.33144064  0.33643232  1
  Na  Na4  1  0.34126397  0.68830550  0.16998652  1
  Na  Na5  1  0.34704053  0.68830550  0.66998652  1
  Zr  Zr0  1  0.01972190  0.01358286  0.35410601  1
  Zr  Zr1  1  0.99386096  0.01358286  0.85410601  1
  Zr  Zr2  1  0.65744642  0.31056067  0.68639142  1
  Zr  Zr3  1  0.65311524  0.31056067  0.18639142  1
  Zr  Zr4  1  0.33265394  0.66583310  0.01980581  1
  Zr  Zr5  1  0.33317816  0.66583310  0.51980581  1
  In  In0  1  0.99709013  0.99693227  0.64946987  1
  In  In1  1  0.99984214  0.99693227  0.14946987  1
  In  In2  1  0.68261454  0.32592770  0.98204142  1
  In  In3  1  0.64331416  0.32592770  0.48204142  1
  In  In4  1  0.33655301  0.67095874  0.31540348  1
  In  In5  1  0.33440473  0.67095874  0.81540348  1
  Si  Si0  1  0.28848050  0.99054016  0.24866170  1
  Si  Si1  1  0.70205966  0.99054016  0.74866170  1
  Si  Si2  1  0.36246675  0.03350446  0.58356902  1
  Si  Si3  1  0.67103871  0.03350446  0.08356902  1
  Si  Si4  1  0.04319658  0.38227984  0.91509922  1
  Si  Si5  1  0.33908226  0.38227984  0.41509922  1
  S  S0  1  0.70820018  0.70604178  0.25026915  1
  S  S1  1  0.00080342  0.29414519  0.24962295  1
  S  S2  1  0.29334177  0.29414519  0.74962295  1
  S  S3  1  0.99784160  0.70604178  0.75026915  1
  S  S4  1  0.95556256  0.33403916  0.58156840  1
  S  S5  1  0.66864531  0.62552139  0.58308630  1
  S  S6  1  0.95687708  0.62552139  0.08308630  1
  S  S7  1  0.37847760  0.33403916  0.08156840  1
  S  S8  1  0.62677638  0.66276845  0.91748567  1
  S  S9  1  0.33285748  0.96145514  0.91655002  1
  S  S10  1  0.62859666  0.96145514  0.41655002  1
  S  S11  1  0.03599108  0.66276845  0.41748567  1
  O  O0  1  0.19696337  0.02087922  0.30531427  1
  O  O1  1  0.81336335  0.79215023  0.30125987  1
  O  O2  1  0.97137173  0.18419768  0.30107583  1
  O  O3  1  0.21282595  0.18419768  0.80107583  1
  O  O4  1  0.97878688  0.79215023  0.80125987  1
  O  O5  1  0.82391584  0.02087922  0.80531427  1
  O  O6  1  0.78827676  0.96774993  0.69197552  1
  O  O7  1  0.19265846  0.21600261  0.69833950  1
  O  O8  1  0.02680458  0.80888055  0.69821928  1
  O  O9  1  0.78207598  0.80888055  0.19821928  1
  O  O10  1  0.02334415  0.21600261  0.19833950  1
  O  O11  1  0.17947317  0.96774993  0.19197552  1
  O  O12  1  0.87429079  0.35910649  0.63332613  1
  O  O13  1  0.48815242  0.12899725  0.63951348  1
  O  O14  1  0.64599962  0.51976167  0.63437397  1
  O  O15  1  0.87376305  0.51976167  0.13437397  1
  O  O16  1  0.64084583  0.12899725  0.13951348  1
  O  O17  1  0.48481670  0.35910649  0.13332613  1
  O  O18  1  0.46109968  0.31628636  0.03026052  1
  O  O19  1  0.85371725  0.55162894  0.03150739  1
  O  O20  1  0.69974306  0.14560070  0.02719416  1
  O  O21  1  0.44585865  0.14560070  0.52719416  1
  O  O22  1  0.69791269  0.55162894  0.53150739  1
  O  O23  1  0.85518768  0.31628636  0.53026052  1
  O  O24  1  0.54561151  0.69475626  0.96805090  1
  O  O25  1  0.16151621  0.47455233  0.97188346  1
  O  O26  1  0.31269414  0.85394874  0.96782062  1
  O  O27  1  0.54125360  0.85394874  0.46782062  1
  O  O28  1  0.31303513  0.47455233  0.47188346  1
  O  O29  1  0.14914375  0.69475626  0.46805090  1
  O  O30  1  0.11269458  0.64078373  0.36561390  1
  O  O31  1  0.52400701  0.89060957  0.36531621  1
  O  O32  1  0.35810340  0.48978338  0.35820348  1
  O  O33  1  0.13167897  0.48978338  0.85820348  1
  O  O34  1  0.36660156  0.89060957  0.86531621  1
  O  O35  1  0.52808815  0.64078373  0.86561390  1
  O  O36  1  0.01467069  0.81788912  0.41217543  1
  O  O37  1  0.79676589  0.96685384  0.41120357  1
  O  O38  1  0.16053902  0.18814309  0.41081512  1
  O  O39  1  0.02760408  0.18814309  0.91081512  1
  O  O40  1  0.17008795  0.96685384  0.91120357  1
  O  O41  1  0.80321843  0.81788912  0.91217543  1
  O  O42  1  0.97644883  0.18224200  0.58733502  1
  O  O43  1  0.17246560  0.01354284  0.59060014  1
  O  O44  1  0.81672758  0.80027918  0.58739366  1
  O  O45  1  0.98355160  0.80027918  0.08739366  1
  O  O46  1  0.84107724  0.01354284  0.09060014  1
  O  O47  1  0.20579318  0.18224200  0.08733502  1
  O  O48  1  0.69129487  0.17030105  0.74409450  1
  O  O49  1  0.46909582  0.31265179  0.74480733  1
  O  O50  1  0.83786008  0.53553831  0.74471101  1
  O  O51  1  0.69767923  0.53553831  0.24471101  1
  O  O52  1  0.84355696  0.31265179  0.24480733  1
  O  O53  1  0.47900718  0.17030105  0.24409450  1
  O  O54  1  0.64175445  0.50852134  0.92586375  1
  O  O55  1  0.85082178  0.35853191  0.91753754  1
  O  O56  1  0.47906525  0.13794887  0.92296100  1
  O  O57  1  0.65888463  0.13794887  0.42296100  1
  O  O58  1  0.50771113  0.35853191  0.41753754  1
  O  O59  1  0.86676788  0.50852134  0.42586375  1
  O  O60  1  0.36163857  0.49165193  0.07753597  1
  O  O61  1  0.13035757  0.63741648  0.07756604  1
  O  O62  1  0.49392183  0.84440783  0.07698491  1
  O  O63  1  0.35048500  0.84440783  0.57698491  1
  O  O64  1  0.50705791  0.63741648  0.57756604  1
  O  O65  1  0.13001235  0.49165193  0.57753597  1
  O  O66  1  0.31550842  0.82573142  0.25569445  1
  O  O67  1  0.53237161  0.68199335  0.25452182  1
  O  O68  1  0.15289794  0.46511748  0.25528830  1
  O  O69  1  0.31221854  0.46511748  0.75528830  1
  O  O70  1  0.14962074  0.68199335  0.75452182  1
  O  O71  1  0.51022200  0.82573142  0.75569445  1
loop_
_geom_bond_atom_site_label_1
_geom_bond_atom_site_label_2
_geom_bond_distance
_geom_bond_site_symmetry_2
Na0 O43 2.443396 1_555
Na0 O38 2.626456 1_555
Na0 O42 2.647229 1_455
Na0 O44 2.703622 1_445
Na0 O36 2.771999 1_545
Na0 O37 2.863371 1_445
Na1 O46 2.443396 1_555
Na1 O39 2.626456 1_654
Na1 O47 2.647229 1_655
Na1 O45 2.703622 1_545
Na1 O41 2.771999 1_544
Na1 O40 2.863371 1_644
Na2 O55 2.353181 1_555
Na2 O48 2.635479 1_555
Na2 O50 2.712789 1_555
Na2 O56 2.714764 1_555
Na2 O54 2.794275 1_555
Na2 O49 2.853981 1_555
Na3 O58 2.353181 1_555
Na3 O53 2.635479 1_555
Na3 O51 2.712789 1_555
Na3 O57 2.714764 1_555
Na3 O59 2.794275 1_555
Na3 O52 2.853981 1_555
Na4 O66 2.444742 1_555
Na4 O62 2.588044 1_555
Na4 O67 2.645093 1_555
Na4 O68 2.738090 1_555
Na4 O61 2.769982 1_555
Na4 O60 2.877187 1_555
Na5 O71 2.444742 1_555
Na5 O63 2.588044 1_555
Na5 O70 2.645093 1_555
Na5 O69 2.738090 1_555
Na5 O64 2.769982 1_555
Na5 O65 2.877187 1_555
In0 O6 2.018689 1_555
In0 O43 2.043727 1_665
In0 O8 2.162150 1_655
In0 O7 2.206089 1_665
In0 O44 2.250426 1_555
In0 O42 2.287614 1_565
In1 O11 2.018689 1_655
In1 O46 2.043727 1_565
In1 O9 2.162150 1_555
In1 O10 2.206089 1_665
In1 O45 2.250426 1_555
In1 O47 2.287614 1_665
In2 O20 2.003068 1_556
In2 O55 2.054404 1_555
In2 O19 2.181473 1_556
In2 O18 2.249199 1_556
In2 O56 2.253762 1_555
In2 O54 2.270422 1_555
In3 O21 2.003068 1_555
In3 O58 2.054404 1_555
In3 O22 2.181473 1_555
In3 O23 2.249199 1_555
In3 O57 2.253762 1_555
In3 O59 2.270422 1_555
In4 O32 2.000529 1_555
In4 O66 2.047180 1_555
In4 O31 2.197736 1_555
In4 O30 2.223684 1_555
In4 O67 2.228747 1_555
In4 O68 2.267073 1_555
In5 O33 2.000529 1_555
In5 O71 2.047180 1_555
In5 O34 2.197736 1_555
In5 O35 2.223684 1_555
In5 O70 2.228747 1_555
In5 O69 2.267073 1_555
O0 Si0 1.660174 1_545
O0 Zr0 1.933875 1_555
O1 S0 1.488766 1_555
O1 Zr0 2.301599 1_665
O2 S1 1.498123 1_655
O2 Zr0 2.177500 1_655
O3 S2 1.498123 1_555
O3 Zr1 2.177500 1_455
O4 S3 1.488766 1_555
O4 Zr1 2.301599 1_565
O5 Si1 1.660174 1_545
O5 Zr1 1.933875 1_555
O6 Si1 1.607566 1_555
O7 S2 1.465461 1_555
O8 S3 1.475002 1_455
O9 S0 1.475002 1_555
O10 S1 1.465461 1_555
O11 Si0 1.607566 1_555
O12 S4 1.495151 1_555
O12 Zr2 2.161704 1_555
O13 Si2 1.671697 1_555
O13 Zr2 1.934456 1_555
O14 S5 1.483767 1_555
O14 Zr2 2.284012 1_555
O15 S6 1.483767 1_555
O15 Zr3 2.284012 1_555
O16 Si3 1.671697 1_555
O16 Zr3 1.934456 1_555
O17 S7 1.495151 1_555
O17 Zr3 2.161704 1_555
O18 S7 1.468132 1_555
O19 S6 1.473699 1_555
O20 Si3 1.604462 1_555
O21 Si2 1.604462 1_555
O22 S5 1.473699 1_555
O23 S4 1.468132 1_555
O24 S8 1.497932 1_555
O24 Zr4 2.166234 1_556
O25 Si4 1.655572 1_555
O25 Zr4 1.995493 1_556
O26 S9 1.496723 1_555
O26 Zr4 2.161189 1_556
O27 S10 1.496723 1_555
O27 Zr5 2.161189 1_555
O28 Si5 1.655571 1_555
O28 Zr5 1.995493 1_555
O29 S11 1.497932 1_555
O29 Zr5 2.166234 1_555
O30 S11 1.464231 1_555
O31 S10 1.468609 1_555
O32 Si5 1.607174 1_555
O33 Si4 1.607174 1_555
O34 S9 1.468609 1_555
O35 S8 1.464231 1_555
O36 S11 1.503469 1_555
O36 Zr0 2.205465 1_565
O37 S10 1.487046 1_555
O37 Zr0 2.264875 1_665
O38 Si5 1.684182 1_555
O38 Zr0 1.973774 1_555
O39 Si4 1.684186 1_555
O39 Zr1 1.973774 1_455
O40 S9 1.487037 1_555
O40 Zr1 2.264875 1_465
O41 S8 1.503474 1_555
O41 Zr1 2.205465 1_565
O42 S4 1.472481 1_555
O43 Si2 1.627218 1_555
O44 S5 1.471382 1_555
O45 S6 1.471386 1_555
O46 Si3 1.627209 1_555
O47 S7 1.472486 1_555
O48 Si1 1.669257 1_545
O48 Zr2 1.972950 1_555
O49 S2 1.501542 1_555
O49 Zr2 2.184304 1_555
O50 S3 1.495055 1_555
O50 Zr2 2.317800 1_555
O51 S0 1.495059 1_555
O51 Zr3 2.317800 1_555
O52 S1 1.501533 1_655
O52 Zr3 2.184304 1_555
O53 Si0 1.669262 1_545
O53 Zr3 1.972950 1_555
O54 S8 1.470505 1_555
O55 Si4 1.627213 1_655
O56 S9 1.479690 1_545
O57 S10 1.479684 1_545
O58 Si5 1.627231 1_555
O59 S11 1.470495 1_655
O60 S7 1.500415 1_555
O60 Zr4 2.179733 1_555
O61 S6 1.508024 1_455
O61 Zr4 2.175683 1_555
O62 Si3 1.657806 1_565
O62 Zr4 2.048910 1_555
O63 Si2 1.657798 1_565
O63 Zr5 2.048910 1_555
O64 S5 1.508042 1_555
O64 Zr5 2.175683 1_555
O65 S4 1.500405 1_455
O65 Zr5 2.179733 1_555
O66 Si0 1.623574 1_555
O67 S0 1.481466 1_555
O68 S1 1.467543 1_555
O69 S2 1.467546 1_555
O70 S3 1.481458 1_455
O71 Si1 1.623580 1_555
