# generated using pymatgen
data_KFeBr3
_symmetry_space_group_name_H-M   'P 1'
_cell_length_a   4.06626100
_cell_length_b   9.52606400
_cell_length_c   15.07700300
_cell_angle_alpha   90.00000000
_cell_angle_beta   90.00000000
_cell_angle_gamma   90.00000000
_symmetry_Int_Tables_number   1
_chemical_formula_structural   KFeBr3
_chemical_formula_sum   'K4 Fe4 Br12'
_cell_volume   584.01468472
_cell_formula_units_Z   4
loop_
 _symmetry_equiv_pos_site_id
 _symmetry_equiv_pos_as_xyz
  1  'x, y, z'
loop_
 _atom_site_type_symbol
 _atom_site_label
 _atom_site_symmetry_multiplicity
 _atom_site_fract_x
 _atom_site_fract_y
 _atom_site_fract_z
 _atom_site_occupancy
  K  K0  1  0.75000000  0.54876600  0.82514900  1
  K  K1  1  0.75000000  0.04876600  0.67485100  1
  K  K2  1  0.25000000  0.45123400  0.17485100  1
  K  K3  1  0.25000000  0.95123400  0.32514900  1
  Fe  Fe0  1  0.75000000  0.33818500  0.45010900  1
  Fe  Fe1  1  0.25000000  0.16181500  0.95010900  1
  Fe  Fe2  1  0.25000000  0.66181500  0.54989100  1
  Fe  Fe3  1  0.75000000  0.83818500  0.04989100  1
  Br  Br0  1  0.75000000  0.23619400  0.29637900  1
  Br  Br1  1  0.75000000  0.31928900  0.00702700  1
  Br  Br2  1  0.25000000  0.26380600  0.79637900  1
  Br  Br3  1  0.25000000  0.51911800  0.40270200  1
  Br  Br4  1  0.25000000  0.76380600  0.70362100  1
  Br  Br5  1  0.75000000  0.98088200  0.90270200  1
  Br  Br6  1  0.25000000  0.01911800  0.09729800  1
  Br  Br7  1  0.75000000  0.73619400  0.20362100  1
  Br  Br8  1  0.25000000  0.18071100  0.50702700  1
  Br  Br9  1  0.75000000  0.81928900  0.49297300  1
  Br  Br10  1  0.25000000  0.68071100  0.99297300  1
  Br  Br11  1  0.75000000  0.48088200  0.59729800  1
loop_
_geom_bond_atom_site_label_1
_geom_bond_atom_site_label_2
_geom_bond_distance
_geom_bond_site_symmetry_2
Br0 Fe0 2.513184 1_555
Br0 K2 3.418648 1_555
Br0 K2 3.418648 1_655
Br0 K3 3.419143 1_645
Br0 K3 3.419143 1_545
Br1 Fe1 2.668402 1_654
Br1 Fe1 2.668402 1_554
Br1 K2 3.480774 1_555
Br1 K2 3.480774 1_655
Br1 K0 3.506875 1_554
Br2 Fe1 2.513184 1_555
Br2 K1 3.418648 1_455
Br2 K1 3.418648 1_555
Br2 K0 3.419143 1_555
Br2 K0 3.419143 1_455
Br3 Fe2 2.602406 1_555
Br3 Fe0 2.759569 1_455
Br3 Fe0 2.759569 1_555
Br3 K2 3.495645 1_555
Br4 Fe2 2.513184 1_555
Br4 K0 3.418648 1_455
Br4 K0 3.418648 1_555
Br4 K1 3.419143 1_565
Br4 K1 3.419143 1_465
Br5 Fe3 2.602406 1_556
Br5 Fe1 2.759569 1_665
Br5 Fe1 2.759569 1_565
Br5 K1 3.495645 1_565
Br6 Fe1 2.602406 1_554
Br6 Fe3 2.759569 1_545
Br6 Fe3 2.759569 1_445
Br6 K3 3.495645 1_545
Br7 Fe3 2.513184 1_555
Br7 K3 3.418648 1_555
Br7 K3 3.418648 1_655
Br7 K2 3.419143 1_555
Br7 K2 3.419143 1_655
Br8 Fe0 2.668402 1_555
Br8 Fe0 2.668402 1_455
Br8 K1 3.480774 1_555
Br8 K1 3.480774 1_455
Br8 K3 3.506875 1_545
Br9 Fe2 2.668402 1_655
Br9 Fe2 2.668402 1_555
Br9 K3 3.480774 1_655
Br9 K3 3.480774 1_555
Br9 K1 3.506875 1_565
Br10 Fe3 2.668402 1_456
Br10 Fe3 2.668402 1_556
Br10 K0 3.480774 1_455
Br10 K0 3.480774 1_555
Br10 K2 3.506875 1_556
Br11 Fe0 2.602406 1_555
Br11 Fe2 2.759569 1_555
Br11 Fe2 2.759569 1_655
Br11 K0 3.495645 1_555
