# generated using pymatgen
data_Na4Sc2Si(PO6)2
_symmetry_space_group_name_H-M   'P 1'
_cell_length_a   9.15772721
_cell_length_b   9.15772689
_cell_length_c   22.42591677
_cell_angle_alpha   89.99858059
_cell_angle_beta   90.00141942
_cell_angle_gamma   120.00046826
_symmetry_Int_Tables_number   1
_chemical_formula_structural   Na4Sc2Si(PO6)2
_chemical_formula_sum   'Na24 Sc12 Si6 P12 O72'
_cell_volume   1628.74906132
_cell_formula_units_Z   6
loop_
 _symmetry_equiv_pos_site_id
 _symmetry_equiv_pos_as_xyz
  1  'x, y, z'
loop_
 _atom_site_type_symbol
 _atom_site_label
 _atom_site_symmetry_multiplicity
 _atom_site_fract_x
 _atom_site_fract_y
 _atom_site_fract_z
 _atom_site_occupancy
  Na  Na0  1  0.63858075  0.00364660  0.25134638  1
  Na  Na1  1  0.36138587  0.36493045  0.24870090  1
  Na  Na2  1  0.00012313  0.62855981  0.24998084  1
  Na  Na3  1  0.63506955  0.63861413  0.74870090  1
  Na  Na4  1  0.99635340  0.36141925  0.75134638  1
  Na  Na5  1  0.37144019  -0.00012313  0.74998084  1
  Na  Na6  1  0.30221882  0.32907769  0.58216556  1
  Na  Na7  1  0.03773400  0.70469108  0.58174290  1
  Na  Na8  1  0.66257598  0.96699082  0.58618457  1
  Na  Na9  1  0.29530892  0.96226600  0.08174290  1
  Na  Na10  1  0.67092231  0.69778118  0.08216556  1
  Na  Na11  1  0.03300918  0.33742402  0.08618457  1
  Na  Na12  1  0.97207598  0.67118298  0.91936821  1
  Na  Na13  1  0.69455386  0.03247490  0.91389347  1
  Na  Na14  1  0.33332833  0.29589050  0.91674468  1
  Na  Na15  1  0.96752510  0.30544614  0.41389347  1
  Na  Na16  1  0.32881702  0.02792402  0.41936821  1
  Na  Na17  1  0.70410950  0.66667167  0.41674468  1
  Na  Na18  1  0.00539140  0.99655839  0.49997739  1
  Na  Na19  1  0.00344161  0.99460860  0.99997739  1
  Na  Na20  1  0.66399006  0.32533507  0.83342289  1
  Na  Na21  1  0.67466493  0.33600994  0.33342289  1
  Na  Na22  1  0.32529664  0.66080931  0.16664171  1
  Na  Na23  1  0.33919069  0.67470336  0.66664171  1
  Sc  Sc0  1  0.99924512  0.00063833  0.34988028  1
  Sc  Sc1  1  0.99936167  0.00075488  0.84988028  1
  Sc  Sc2  1  0.99837461  0.99816670  0.65016978  1
  Sc  Sc3  1  0.00183330  0.00162539  0.15016978  1
  Sc  Sc4  1  0.66293817  0.32328295  0.68337352  1
  Sc  Sc5  1  0.67671705  0.33706183  0.18337352  1
  Sc  Sc6  1  0.66740473  0.33512382  0.98358111  1
  Sc  Sc7  1  0.66487618  0.33259527  0.48358111  1
  Sc  Sc8  1  0.32659258  0.66968213  0.01657833  1
  Sc  Sc9  1  0.33031787  0.67340742  0.51657833  1
  Sc  Sc10  1  0.32293594  0.66012640  0.31666988  1
  Sc  Sc11  1  0.33987360  0.67706406  0.81666988  1
  Si  Si0  1  -0.00002646  0.29647220  0.24997693  1
  Si  Si1  1  0.70352780  0.00002646  0.74997693  1
  Si  Si2  1  0.36697505  0.03452844  0.58280808  1
  Si  Si3  1  0.96547156  0.63302495  0.08280808  1
  Si  Si4  1  0.33338801  0.96840961  0.91670001  1
  Si  Si5  1  0.03159039  0.66661199  0.41670001  1
  P  P0  1  0.29738280  0.00142955  0.24999399  1
  P  P1  1  0.70282311  0.70436722  0.24997668  1
  P  P2  1  0.29563278  0.29717689  0.74997668  1
  P  P3  1  0.99857045  0.70261720  0.74999399  1
  P  P4  1  0.96337477  0.33350730  0.58339281  1
  P  P5  1  0.66614176  0.62748082  0.58378212  1
  P  P6  1  0.66649270  0.03662523  0.08339281  1
  P  P7  1  0.37251918  0.33385824  0.08378212  1
  P  P8  1  0.62728888  0.66554078  0.91704721  1
  P  P9  1  0.03923930  0.37157913  0.91617494  1
  P  P10  1  0.62842087  0.96076070  0.41617494  1
  P  P11  1  0.33445922  0.37271112  0.41704721  1
  O  O0  1  0.21222313  0.02722963  0.30559617  1
  O  O1  1  0.81601280  0.78551267  0.30552439  1
  O  O2  1  0.96879887  0.17770796  0.30869694  1
  O  O3  1  0.21448733  0.18398720  0.80552439  1
  O  O4  1  0.97277037  0.78777687  0.80559617  1
  O  O5  1  0.82229204  0.03120113  0.80869694  1
  O  O6  1  0.79121045  0.96893802  0.69128570  1
  O  O7  1  0.18492555  0.21221223  0.69433036  1
  O  O8  1  0.03056979  0.81588030  0.69454027  1
  O  O9  1  0.78778777  0.81507445  0.19433036  1
  O  O10  1  0.03106198  0.20878955  0.19128570  1
  O  O11  1  0.18411970  0.96943021  0.19454027  1
  O  O12  1  0.88249852  0.36541547  0.63880772  1
  O  O13  1  0.48730796  0.12287991  0.64132069  1
  O  O14  1  0.64109191  0.51853772  0.63955712  1
  O  O15  1  0.87712009  0.51269204  0.14132069  1
  O  O16  1  0.63458453  0.11750148  0.13880772  1
  O  O17  1  0.48146228  0.35890809  0.13955712  1
  O  O18  1  0.45459895  0.30438148  0.02788603  1
  O  O19  1  0.84539180  0.54478603  0.02440634  1
  O  O20  1  0.69401072  0.14830840  0.02789996  1
  O  O21  1  0.45521397  0.15460820  0.52440634  1
  O  O22  1  0.69561852  0.54540105  0.52788603  1
  O  O23  1  0.85169160  0.30598928  0.52789996  1
  O  O24  1  0.54438802  0.69242823  0.97276017  1
  O  O25  1  0.15055686  0.45339162  0.97194885  1
  O  O26  1  0.30083610  0.84691800  0.97498033  1
  O  O27  1  0.54660838  0.84944314  0.47194885  1
  O  O28  1  0.30757177  0.45561198  0.47276017  1
  O  O29  1  0.15308200  0.69916390  0.47498033  1
  O  O30  1  0.12044721  0.63403877  0.35845335  1
  O  O31  1  0.51867239  0.87771703  0.36054029  1
  O  O32  1  0.36383471  0.48389914  0.36128647  1
  O  O33  1  0.12228297  0.48132761  0.86054029  1
  O  O34  1  0.36596123  0.87955279  0.85845335  1
  O  O35  1  0.51610086  0.63616529  0.86128647  1
  O  O36  1  0.01688153  0.83834720  0.41240910  1
  O  O37  1  0.80671970  0.97930594  0.41212077  1
  O  O38  1  0.17375132  0.19551038  0.41153850  1
  O  O39  1  0.02069406  0.19328030  0.91212077  1
  O  O40  1  0.16165280  0.98311847  0.91240910  1
  O  O41  1  0.80448962  0.82624868  0.91153850  1
  O  O42  1  0.97748688  0.17161208  0.58861874  1
  O  O43  1  0.17935071  0.01699483  0.58742074  1
  O  O44  1  0.82631954  0.80574902  0.58775813  1
  O  O45  1  0.98300517  0.82064929  0.08742074  1
  O  O46  1  0.82838792  0.02251312  0.08861874  1
  O  O47  1  0.19425098  0.17368046  0.08775813  1
  O  O48  1  0.68835261  0.17240018  0.74695639  1
  O  O49  1  0.47476539  0.31871523  0.74482664  1
  O  O50  1  0.83634850  0.52806182  0.74448906  1
  O  O51  1  0.68128477  0.52523461  0.24482664  1
  O  O52  1  0.82759982  0.31164739  0.24695639  1
  O  O53  1  0.47193818  0.16365150  0.24448906  1
  O  O54  1  0.64596005  0.50593175  0.92111355  1
  O  O55  1  0.86212706  0.35508653  0.92177304  1
  O  O56  1  0.50515699  0.15483730  0.92101042  1
  O  O57  1  0.64491347  0.13787294  0.42177304  1
  O  O58  1  0.49406825  0.35403995  0.42111355  1
  O  O59  1  0.84516270  0.49484301  0.42101042  1
  O  O60  1  0.35772482  0.49487363  0.07794263  1
  O  O61  1  0.15167598  0.64513475  0.08017687  1
  O  O62  1  0.50953901  0.85741770  0.07808367  1
  O  O63  1  0.35486525  0.84832402  0.58017687  1
  O  O64  1  0.50512637  0.64227518  0.57794263  1
  O  O65  1  0.14258230  0.49046099  0.57808367  1
  O  O66  1  0.31885959  0.84388332  0.25517555  1
  O  O67  1  0.52816366  0.69180535  0.25552876  1
  O  O68  1  0.17241888  0.48397857  0.25296112  1
  O  O69  1  0.30819465  0.47183634  0.75552876  1
  O  O70  1  0.15611668  0.68114041  0.75517555  1
  O  O71  1  0.51602143  0.82758112  0.75296112  1
loop_
_geom_bond_atom_site_label_1
_geom_bond_atom_site_label_2
_geom_bond_distance
_geom_bond_site_symmetry_2
Na0 O52 2.465612 1_555
Na0 O67 2.509762 1_545
Na0 O66 2.537095 1_545
Na0 O53 2.595324 1_555
Na0 O31 2.695525 1_545
Na0 O16 2.737876 1_555
Na0 O2 2.918795 1_555
Na0 O9 2.973880 1_545
Na1 O68 2.465563 1_555
Na1 O53 2.509514 1_555
Na1 O51 2.538541 1_555
Na1 O67 2.597075 1_555
Na1 O17 2.695180 1_555
Na1 O32 2.745536 1_555
Na1 O10 2.920203 1_555
Na1 O0 2.972092 1_555
Na2 O68 2.517189 1_555
Na2 O52 2.517578 1_455
Na2 O66 2.581870 1_555
Na2 O51 2.582880 1_455
Na2 O30 2.660601 1_555
Na2 O15 2.671609 1_455
Na2 O11 2.978145 1_555
Na2 O1 2.980570 1_455
Na3 O71 2.465563 1_555
Na3 O50 2.509514 1_555
Na3 O49 2.538541 1_555
Na3 O69 2.597075 1_555
Na3 O14 2.695180 1_555
Na3 O35 2.745536 1_555
Na3 O6 2.920203 1_555
Na3 O4 2.972092 1_555
Na4 O48 2.465613 1_555
Na4 O69 2.509762 1_655
Na4 O70 2.537095 1_655
Na4 O50 2.595324 1_555
Na4 O33 2.695525 1_655
Na4 O12 2.737876 1_555
Na4 O5 2.918795 1_555
Na4 O7 2.973880 1_655
Na5 O71 2.517189 1_545
Na5 O48 2.517578 1_555
Na5 O70 2.581870 1_545
Na5 O49 2.582880 1_555
Na5 O34 2.660601 1_545
Na5 O13 2.671609 1_555
Na5 O8 2.978145 1_545
Na5 O3 2.980570 1_555
Na6 O43 2.496421 1_555
Na6 O64 2.521620 1_555
Na6 O65 2.547613 1_555
Na6 O42 2.579836 1_455
Na6 O28 2.703321 1_555
Na6 O7 2.734373 1_555
Na6 O21 2.903868 1_555
Na6 O14 2.985443 1_555
Na7 O43 2.483658 1_565
Na7 O63 2.519062 1_555
Na7 O44 2.532760 1_455
Na7 O65 2.580954 1_555
Na7 O29 2.627625 1_555
Na7 O8 2.739864 1_555
Na7 O22 2.971863 1_455
Na7 O12 2.982448 1_455
Na8 O63 2.465257 1_555
Na8 O42 2.535150 1_565
Na8 O44 2.577674 1_555
Na8 O64 2.582269 1_555
Na8 O6 2.631018 1_555
Na8 O27 2.776046 1_555
Na8 O13 2.904252 1_565
Na8 O23 2.994797 1_565
Na9 O45 2.483658 1_455
Na9 O61 2.519062 1_555
Na9 O47 2.532760 1_565
Na9 O62 2.580954 1_555
Na9 O26 2.627625 1_554
Na9 O11 2.739864 1_555
Na9 O18 2.971863 1_565
Na9 O16 2.982448 1_565
Na10 O45 2.496421 1_555
Na10 O60 2.521620 1_555
Na10 O62 2.547613 1_555
Na10 O46 2.579835 1_565
Na10 O24 2.703321 1_554
Na10 O9 2.734373 1_555
Na10 O19 2.903868 1_555
Na10 O17 2.985442 1_555
Na11 O61 2.465257 1_555
Na11 O46 2.535150 1_455
Na11 O47 2.577674 1_555
Na11 O60 2.582269 1_555
Na11 O10 2.631018 1_555
Na11 O25 2.776046 1_554
Na11 O15 2.904252 1_455
Na11 O20 2.994797 1_455
Na12 O40 2.497842 1_655
Na12 O55 2.545871 1_555
Na12 O41 2.565556 1_555
Na12 O54 2.586730 1_555
Na12 O19 2.625186 1_556
Na12 O4 2.764603 1_555
Na12 O26 2.892104 1_655
Na12 O33 3.007880 1_655
Na13 O56 2.496604 1_555
Na13 O41 2.546448 1_545
Na13 O55 2.565303 1_555
Na13 O39 2.586938 1_655
Na13 O5 2.635872 1_555
Na13 O20 2.769005 1_556
Na13 O34 2.889250 1_545
Na13 O24 3.008100 1_545
Na14 O40 2.486379 1_545
Na14 O56 2.487252 1_555
Na14 O54 2.529653 1_555
Na14 O39 2.529874 1_555
Na14 O3 2.709320 1_555
Na14 O18 2.713891 1_556
Na14 O25 2.971353 1_555
Na14 O35 2.973682 1_555
Na15 O59 2.496604 1_555
Na15 O38 2.546448 1_655
Na15 O57 2.565303 1_555
Na15 O37 2.586938 1_545
Na15 O2 2.635872 1_555
Na15 O23 2.769005 1_555
Na15 O30 2.889250 1_655
Na15 O28 3.008100 1_655
Na16 O36 2.497842 1_545
Na16 O57 2.545871 1_555
Na16 O38 2.565556 1_555
Na16 O58 2.586730 1_555
Na16 O21 2.625186 1_555
Na16 O0 2.764603 1_555
Na16 O29 2.892104 1_545
Na16 O31 3.007880 1_545
Na17 O36 2.486379 1_655
Na17 O59 2.487252 1_555
Na17 O58 2.529653 1_555
Na17 O37 2.529874 1_555
Na17 O1 2.709320 1_555
Na17 O22 2.713891 1_555
Na17 O27 2.971353 1_555
Na17 O32 2.973682 1_555
Na18 O36 2.473735 1_555
Na18 O43 2.473889 1_565
Na18 O44 2.598511 1_455
Na18 O38 2.611716 1_565
Na18 O37 2.632383 1_455
Na18 O42 2.645120 1_465
Na19 O40 2.473735 1_555
Na19 O45 2.473889 1_456
Na19 O47 2.598511 1_566
Na19 O41 2.611716 1_455
Na19 O39 2.632383 1_565
Na19 O46 2.645120 1_466
Na20 O48 2.466572 1_555
Na20 O56 2.478036 1_555
Na20 O55 2.607248 1_555
Na20 O49 2.617035 1_555
Na20 O54 2.627365 1_555
Na20 O50 2.642980 1_555
Na21 O52 2.466572 1_555
Na21 O59 2.478036 1_555
Na21 O57 2.607248 1_555
Na21 O51 2.617035 1_555
Na21 O58 2.627365 1_555
Na21 O53 2.642980 1_555
Na22 O68 2.462212 1_555
Na22 O61 2.465799 1_555
Na22 O60 2.608747 1_555
Na22 O66 2.618261 1_555
Na22 O67 2.641596 1_555
Na22 O62 2.644769 1_555
Na23 O71 2.462212 1_555
Na23 O63 2.465799 1_555
Na23 O64 2.608747 1_555
Na23 O70 2.618261 1_555
Na23 O69 2.641596 1_555
Na23 O65 2.644769 1_555
O0 P0 1.550219 1_555
O0 Sc0 2.091587 1_455
O1 P1 1.551822 1_555
O1 Sc0 2.092962 1_565
O2 Si0 1.639493 1_655
O2 Sc0 2.003050 1_555
O3 P2 1.551822 1_555
O3 Sc1 2.092962 1_455
O4 P3 1.550219 1_555
O4 Sc1 2.091587 1_565
O5 Si1 1.639493 1_555
O5 Sc1 2.003050 1_555
O6 Si1 1.639175 1_565
O6 Sc2 2.003321 1_555
O7 P2 1.549740 1_555
O7 Sc2 2.095915 1_445
O8 P3 1.550569 1_455
O8 Sc2 2.087054 1_455
O9 P1 1.549740 1_555
O9 Sc3 2.095915 1_665
O10 Si0 1.639175 1_555
O10 Sc3 2.003321 1_555
O11 P0 1.550569 1_565
O11 Sc3 2.087054 1_565
O12 P4 1.547515 1_555
O12 Sc4 2.101146 1_555
O13 Si2 1.642930 1_555
O13 Sc4 1.972959 1_555
O14 P5 1.543881 1_555
O14 Sc4 2.135527 1_555
O15 Si3 1.642930 1_555
O15 Sc5 1.972959 1_555
O16 P6 1.547515 1_555
O16 Sc5 2.101146 1_555
O17 P7 1.543882 1_555
O17 Sc5 2.135527 1_555
O18 P7 1.553111 1_555
O18 Sc6 2.077443 1_554
O19 Si3 1.639798 1_555
O19 Sc6 2.012932 1_554
O20 P6 1.549350 1_555
O20 Sc6 2.095420 1_554
O21 Si2 1.639798 1_555
O21 Sc7 2.012932 1_555
O22 P5 1.553111 1_555
O22 Sc7 2.077443 1_555
O23 P4 1.549350 1_555
O23 Sc7 2.095420 1_555
O24 P8 1.544351 1_555
O24 Sc8 2.138156 1_556
O25 P9 1.549579 1_555
O25 Sc8 2.081032 1_556
O26 Si4 1.644146 1_555
O26 Sc8 1.985705 1_556
O27 P10 1.549579 1_555
O27 Sc9 2.081032 1_555
O28 P11 1.544351 1_555
O28 Sc9 2.138156 1_555
O29 Si5 1.644146 1_555
O29 Sc9 1.985705 1_555
O30 Si5 1.643225 1_555
O30 Sc10 1.982607 1_555
O31 P10 1.542972 1_555
O31 Sc10 2.140034 1_555
O32 P11 1.548840 1_555
O32 Sc10 2.085727 1_555
O33 P9 1.542972 1_555
O33 Sc11 2.140034 1_555
O34 Si4 1.643225 1_555
O34 Sc11 1.982607 1_555
O35 P8 1.548840 1_555
O35 Sc11 2.085727 1_555
O36 Si5 1.647009 1_555
O36 Sc0 2.107417 1_465
O37 P10 1.557525 1_555
O37 Sc0 2.179587 1_565
O38 P11 1.557653 1_555
O38 Sc0 2.190580 1_455
O39 P9 1.557525 1_555
O39 Sc1 2.179587 1_455
O40 Si4 1.647009 1_555
O40 Sc1 2.107417 1_465
O41 P8 1.557653 1_555
O41 Sc1 2.190580 1_565
O42 P4 1.555671 1_555
O42 Sc2 2.183699 1_545
O43 Si2 1.647073 1_555
O43 Sc2 2.114482 1_445
O44 P5 1.558867 1_555
O44 Sc2 2.184072 1_555
O45 Si3 1.647073 1_555
O45 Sc3 2.114482 1_665
O46 P6 1.555671 1_555
O46 Sc3 2.183699 1_655
O47 P7 1.558867 1_555
O47 Sc3 2.184072 1_555
O48 Si1 1.653812 1_555
O48 Sc4 2.077994 1_555
O49 P2 1.555555 1_555
O49 Sc4 2.190570 1_555
O50 P3 1.550070 1_555
O50 Sc4 2.222395 1_555
O51 P1 1.555554 1_555
O51 Sc5 2.190570 1_555
O52 Si0 1.653812 1_655
O52 Sc5 2.077994 1_555
O53 P0 1.550070 1_555
O53 Sc5 2.222395 1_555
O54 P8 1.556890 1_555
O54 Sc6 2.180572 1_555
O55 P9 1.557021 1_655
O55 Sc6 2.192867 1_555
O56 Si4 1.647076 1_545
O56 Sc6 2.109351 1_555
O57 P10 1.557021 1_545
O57 Sc7 2.192867 1_555
O58 P11 1.556891 1_555
O58 Sc7 2.180572 1_555
O59 Si5 1.647076 1_655
O59 Sc7 2.109351 1_555
O60 P7 1.552264 1_555
O60 Sc8 2.234742 1_555
O61 Si3 1.653607 1_455
O61 Sc8 2.071383 1_555
O62 P6 1.553879 1_565
O62 Sc8 2.187406 1_555
O63 Si2 1.653607 1_565
O63 Sc9 2.071383 1_555
O64 P5 1.552264 1_555
O64 Sc9 2.234742 1_555
O65 P4 1.553879 1_455
O65 Sc9 2.187406 1_555
O66 P0 1.554835 1_565
O66 Sc10 2.190370 1_555
O67 P1 1.550190 1_555
O67 Sc10 2.225149 1_555
O68 Si0 1.653835 1_555
O68 Sc10 2.078424 1_555
O69 P2 1.550190 1_555
O69 Sc11 2.225149 1_555
O70 P3 1.554835 1_455
O70 Sc11 2.190370 1_555
O71 Si1 1.653835 1_565
O71 Sc11 2.078424 1_555
