# generated using pymatgen
data_Dy2AlGe2
_symmetry_space_group_name_H-M   'P 1'
_cell_length_a   7.01876400
_cell_length_b   7.01876400
_cell_length_c   4.31424500
_cell_angle_alpha   90.00000000
_cell_angle_beta   90.00000000
_cell_angle_gamma   90.00000000
_symmetry_Int_Tables_number   1
_chemical_formula_structural   Dy2AlGe2
_chemical_formula_sum   'Dy4 Al2 Ge4'
_cell_volume   212.53285890
_cell_formula_units_Z   2
loop_
 _symmetry_equiv_pos_site_id
 _symmetry_equiv_pos_as_xyz
  1  'x, y, z'
loop_
 _atom_site_type_symbol
 _atom_site_label
 _atom_site_symmetry_multiplicity
 _atom_site_fract_x
 _atom_site_fract_y
 _atom_site_fract_z
 _atom_site_occupancy
  Dy  Dy0  1  0.32372800  0.82372800  0.50000000  1
  Dy  Dy1  1  0.82372800  0.67627200  0.50000000  1
  Dy  Dy2  1  0.17627200  0.32372800  0.50000000  1
  Dy  Dy3  1  0.67627200  0.17627200  0.50000000  1
  Al  Al0  1  0.50000000  0.50000000  0.00000000  1
  Al  Al1  1  0.00000000  0.00000000  0.00000000  1
  Ge  Ge0  1  0.87060600  0.37060600  0.00000000  1
  Ge  Ge1  1  0.37060600  0.12939400  0.00000000  1
  Ge  Ge2  1  0.12939400  0.62939400  0.00000000  1
  Ge  Ge3  1  0.62939400  0.87060600  0.00000000  1
loop_
_geom_bond_atom_site_label_1
_geom_bond_atom_site_label_2
_geom_bond_distance
_geom_bond_site_symmetry_2
Dy0 Ge2 2.893801 1_555
Dy0 Ge2 2.893801 1_556
Dy0 Ge1 3.060092 1_565
Dy0 Ge1 3.060092 1_566
Dy0 Ge3 3.060092 1_555
Dy0 Ge3 3.060092 1_556
Dy1 Ge3 2.893801 1_556
Dy1 Ge3 2.893801 1_555
Dy1 Ge2 3.060092 1_655
Dy1 Ge2 3.060092 1_656
Dy1 Ge0 3.060092 1_556
Dy1 Ge0 3.060092 1_555
Dy2 Ge1 2.893801 1_555
Dy2 Ge1 2.893801 1_556
Dy2 Ge0 3.060092 1_455
Dy2 Ge0 3.060092 1_456
Dy2 Ge2 3.060092 1_556
Dy2 Ge2 3.060092 1_555
Dy3 Ge0 2.893801 1_555
Dy3 Ge0 2.893801 1_556
Dy3 Ge3 3.060092 1_545
Dy3 Ge3 3.060092 1_546
Dy3 Ge1 3.060092 1_555
Dy3 Ge1 3.060092 1_556
Al0 Ge0 2.755181 1_555
Al0 Ge3 2.755181 1_555
Al0 Ge2 2.755181 1_555
Al0 Ge1 2.755181 1_555
Al1 Ge2 2.755181 1_545
Al1 Ge1 2.755181 1_555
Al1 Ge0 2.755181 1_455
Al1 Ge3 2.755181 1_445
Ge0 Ge2 2.568738 1_655
Ge1 Ge3 2.568738 1_545
