# generated using pymatgen
data_Th3Bi4
_symmetry_space_group_name_H-M   'P 1'
_cell_length_a   8.37538290
_cell_length_b   8.37538290
_cell_length_c   8.37538290
_cell_angle_alpha   109.47122063
_cell_angle_beta   109.47122063
_cell_angle_gamma   109.47122063
_symmetry_Int_Tables_number   1
_chemical_formula_structural   Th3Bi4
_chemical_formula_sum   'Th6 Bi8'
_cell_volume   452.26410630
_cell_formula_units_Z   2
loop_
 _symmetry_equiv_pos_site_id
 _symmetry_equiv_pos_as_xyz
  1  'x, y, z'
loop_
 _atom_site_type_symbol
 _atom_site_label
 _atom_site_symmetry_multiplicity
 _atom_site_fract_x
 _atom_site_fract_y
 _atom_site_fract_z
 _atom_site_occupancy
  Th  Th0  1  0.62500000  0.37500000  0.25000000  1
  Th  Th1  1  0.25000000  0.62500000  0.37500000  1
  Th  Th2  1  0.75000000  0.87500000  0.12500000  1
  Th  Th3  1  0.12500000  0.75000000  0.87500000  1
  Th  Th4  1  0.37500000  0.25000000  0.62500000  1
  Th  Th5  1  0.87500000  0.12500000  0.75000000  1
  Bi  Bi0  1  0.15767882  0.15767882  0.15767882  1
  Bi  Bi1  1  0.50000000  -0.00000000  0.84232118  1
  Bi  Bi2  1  0.84232118  0.50000000  -0.00000000  1
  Bi  Bi3  1  -0.00000000  0.84232118  0.50000000  1
  Bi  Bi4  1  0.34232118  0.50000000  0.00000000  1
  Bi  Bi5  1  0.00000000  0.34232118  0.50000000  1
  Bi  Bi6  1  0.50000000  0.00000000  0.34232118  1
  Bi  Bi7  1  0.65767882  0.65767882  0.65767882  1
loop_
_geom_bond_atom_site_label_1
_geom_bond_atom_site_label_2
_geom_bond_distance
_geom_bond_site_symmetry_2
Bi0 Th2 3.300678 1_445
Bi0 Th3 3.300678 1_544
Bi0 Th5 3.300678 1_454
Bi0 Th1 3.394841 1_555
Bi0 Th0 3.394841 1_555
Bi0 Th4 3.394841 1_555
Bi1 Th3 3.300678 1_545
Bi1 Th2 3.300678 1_546
Bi1 Th0 3.300678 1_556
Bi1 Th1 3.394841 1_545
Bi1 Th5 3.394841 1_555
Bi1 Th4 3.394841 1_555
Bi2 Th1 3.300678 1_655
Bi2 Th5 3.300678 1_554
Bi2 Th3 3.300678 1_654
Bi2 Th4 3.394841 1_554
Bi2 Th0 3.394841 1_555
Bi2 Th2 3.394841 1_555
Bi3 Th5 3.300678 1_465
Bi3 Th2 3.300678 1_455
Bi3 Th4 3.300678 1_565
Bi3 Th0 3.394841 1_455
Bi3 Th3 3.394841 1_555
Bi3 Th1 3.394841 1_555
Bi4 Th2 3.300678 1_555
Bi4 Th4 3.300678 1_554
Bi4 Th0 3.300678 1_555
Bi4 Th5 3.394841 1_454
Bi4 Th1 3.394841 1_555
Bi4 Th3 3.394841 1_554
Bi5 Th3 3.300678 1_555
Bi5 Th0 3.300678 1_455
Bi5 Th1 3.300678 1_555
Bi5 Th5 3.394841 1_455
Bi5 Th4 3.394841 1_555
Bi5 Th2 3.394841 1_445
Bi6 Th1 3.300678 1_545
Bi6 Th5 3.300678 1_555
Bi6 Th4 3.300678 1_555
Bi6 Th0 3.394841 1_555
Bi6 Th3 3.394841 1_544
Bi6 Th2 3.394841 1_545
Bi7 Th0 3.300678 1_555
Bi7 Th4 3.300678 1_555
Bi7 Th1 3.300678 1_555
Bi7 Th3 3.394841 1_655
Bi7 Th2 3.394841 1_556
Bi7 Th5 3.394841 1_565
