# generated using pymatgen
data_Na3YTiSi2SO12
_symmetry_space_group_name_H-M   'P 1'
_cell_length_a   9.27878743
_cell_length_b   9.27878709
_cell_length_c   22.42725642
_cell_angle_alpha   87.65397830
_cell_angle_beta   92.34602174
_cell_angle_gamma   119.57428683
_symmetry_Int_Tables_number   1
_chemical_formula_structural   Na3YTiSi2SO12
_chemical_formula_sum   'Na18 Y6 Ti6 Si12 S6 O72'
_cell_volume   1677.44587279
_cell_formula_units_Z   6
loop_
 _symmetry_equiv_pos_site_id
 _symmetry_equiv_pos_as_xyz
  1  'x, y, z'
loop_
 _atom_site_type_symbol
 _atom_site_label
 _atom_site_symmetry_multiplicity
 _atom_site_fract_x
 _atom_site_fract_y
 _atom_site_fract_z
 _atom_site_occupancy
  Na  Na0  1  0.63884645  0.99997339  0.24184007  1
  Na  Na1  1  0.99442671  0.63361136  0.24906917  1
  Na  Na2  1  0.00002661  0.36115355  0.74184007  1
  Na  Na3  1  0.36638864  0.00557329  0.74906917  1
  Na  Na4  1  0.30551345  0.33330639  0.57517307  1
  Na  Na5  1  0.66109371  0.96694436  0.58240217  1
  Na  Na6  1  0.66669361  0.69448655  0.07517307  1
  Na  Na7  1  0.03305564  0.33890629  0.08240217  1
  Na  Na8  1  0.97217945  0.66664039  0.90850707  1
  Na  Na9  1  0.32775971  0.30027836  0.91573617  1
  Na  Na10  1  0.33335961  0.02782055  0.40850707  1
  Na  Na11  1  0.69972164  0.67224029  0.41573617  1
  Na  Na12  1  0.99834817  0.02854725  0.49909450  1
  Na  Na13  1  0.97145275  0.00165183  0.99909450  1
  Na  Na14  1  0.66501517  0.36188025  0.83242750  1
  Na  Na15  1  0.63811975  0.33498483  0.33242750  1
  Na  Na16  1  0.33168117  0.69521425  0.16576150  1
  Na  Na17  1  0.30478575  0.66831883  0.66576150  1
  Y  Y0  1  0.00837000  0.01322718  0.35165468  1
  Y  Y1  1  0.98677282  0.99163000  0.85165468  1
  Y  Y2  1  0.67503700  0.34656018  0.68498768  1
  Y  Y3  1  0.65343982  0.32496300  0.18498768  1
  Y  Y4  1  0.34170300  0.67989418  0.01832168  1
  Y  Y5  1  0.32010582  0.65829700  0.51832168  1
  Ti  Ti0  1  0.03969068  0.01617803  0.64598382  1
  Ti  Ti1  1  0.98382197  0.96030932  0.14598382  1
  Ti  Ti2  1  0.70635768  0.34951103  0.97931682  1
  Ti  Ti3  1  0.65048897  0.29364232  0.47931682  1
  Ti  Ti4  1  0.37302368  0.68284503  0.31265082  1
  Ti  Ti5  1  0.31715497  0.62697632  0.81265082  1
  Si  Si0  1  0.28976153  0.98485865  0.25442928  1
  Si  Si1  1  0.70208378  0.70115027  0.25236637  1
  Si  Si2  1  0.29884973  0.29791622  0.75236637  1
  Si  Si3  1  0.01514135  0.71023847  0.75442928  1
  Si  Si4  1  0.95642853  0.31819165  0.58776228  1
  Si  Si5  1  0.36875078  0.03448327  0.58569937  1
  Si  Si6  1  0.96551673  0.63124922  0.08569937  1
  Si  Si7  1  0.68180835  0.04357147  0.08776228  1
  Si  Si8  1  0.62309453  0.65152565  0.92109628  1
  Si  Si9  1  0.03541678  0.36781727  0.91903337  1
  Si  Si10  1  0.63218273  0.96458322  0.41903337  1
  Si  Si11  1  0.34847435  0.37690547  0.42109628  1
  S  S0  1  0.01715318  0.31378635  0.24539192  1
  S  S1  1  0.68621365  0.98284682  0.74539192  1
  S  S2  1  0.68382018  0.64711935  0.57872492  1
  S  S3  1  0.35288065  0.31617982  0.07872492  1
  S  S4  1  0.35048618  0.98045335  0.91205892  1
  S  S5  1  0.01954665  0.64951382  0.41205892  1
  O  O0  1  0.21564394  0.00319165  0.31529217  1
  O  O1  1  0.80618567  0.79323168  0.31082497  1
  O  O2  1  0.00178982  0.21081457  0.29898098  1
  O  O3  1  0.20676832  0.19381433  0.81082497  1
  O  O4  1  0.99680835  0.78435606  0.81529217  1
  O  O5  1  0.78918543  0.99821018  0.79898098  1
  O  O6  1  0.76769847  0.97636095  0.69115330  1
  O  O7  1  0.17645015  0.20036403  0.69138669  1
  O  O8  1  0.03322613  0.84825137  0.69773233  1
  O  O9  1  0.79963597  0.82354985  0.19138669  1
  O  O10  1  0.02363905  0.23230153  0.19115330  1
  O  O11  1  0.15174863  0.96677387  0.19773233  1
  O  O12  1  0.88231094  0.33652465  0.64862517  1
  O  O13  1  0.47285267  0.12656468  0.64415797  1
  O  O14  1  0.66845682  0.54414757  0.63231398  1
  O  O15  1  0.87343532  0.52714733  0.14415797  1
  O  O16  1  0.66347535  0.11768906  0.14862517  1
  O  O17  1  0.45585243  0.33154318  0.13231398  1
  O  O18  1  0.43436547  0.30969395  0.02448630  1
  O  O19  1  0.84311715  0.53369703  0.02471969  1
  O  O20  1  0.69989313  0.18158437  0.03106533  1
  O  O21  1  0.46630297  0.15688285  0.52471969  1
  O  O22  1  0.69030605  0.56563453  0.52448630  1
  O  O23  1  0.81841563  0.30010687  0.53106533  1
  O  O24  1  0.54897694  0.66985865  0.98195917  1
  O  O25  1  0.13951867  0.45989868  0.97749197  1
  O  O26  1  0.33512282  0.87748157  0.96564798  1
  O  O27  1  0.54010132  0.86048133  0.47749197  1
  O  O28  1  0.33014135  0.45102306  0.48195917  1
  O  O29  1  0.12251843  0.66487718  0.46564798  1
  O  O30  1  0.10103147  0.64302795  0.35782030  1
  O  O31  1  0.50978315  0.86703103  0.35805369  1
  O  O32  1  0.36655913  0.51491837  0.36439933  1
  O  O33  1  0.13296897  0.49021685  0.85805369  1
  O  O34  1  0.35697205  0.89896853  0.85782030  1
  O  O35  1  0.48508163  0.63344087  0.86439933  1
  O  O36  1  0.00057960  0.80086104  0.41318078  1
  O  O37  1  0.81395584  0.98473420  0.41572376  1
  O  O38  1  0.19905547  0.18735042  0.41513435  1
  O  O39  1  0.01526580  0.18604416  0.91572376  1
  O  O40  1  0.19913896  0.99942040  0.91318078  1
  O  O41  1  0.81264958  0.80094453  0.91513435  1
  O  O42  1  0.96067792  0.13861577  0.58994278  1
  O  O43  1  0.18741482  0.03455760  0.58728106  1
  O  O44  1  0.83272875  0.81442130  0.58353703  1
  O  O45  1  0.96544240  0.81258518  0.08728106  1
  O  O46  1  0.86138423  0.03932208  0.08994278  1
  O  O47  1  0.18557870  0.16727125  0.08353703  1
  O  O48  1  0.66724660  0.13419404  0.74651378  1
  O  O49  1  0.48062284  0.31806720  0.74905676  1
  O  O50  1  0.86572247  0.52068342  0.74846735  1
  O  O51  1  0.68193280  0.51937716  0.24905676  1
  O  O52  1  0.86580596  0.33275340  0.24651378  1
  O  O53  1  0.47931658  0.13427753  0.24846735  1
  O  O54  1  0.62734492  0.47194877  0.92327578  1
  O  O55  1  0.85408182  0.36789060  0.92061406  1
  O  O56  1  0.49939575  0.14775430  0.91687003  1
  O  O57  1  0.63210940  0.14591818  0.42061406  1
  O  O58  1  0.52805123  0.37265508  0.42327578  1
  O  O59  1  0.85224570  0.50060425  0.41687003  1
  O  O60  1  0.33391260  0.46752804  0.07984778  1
  O  O61  1  0.14728884  0.65140120  0.08239076  1
  O  O62  1  0.53238847  0.85401742  0.08180135  1
  O  O63  1  0.34859880  0.85271116  0.58239076  1
  O  O64  1  0.53247196  0.66608740  0.57984778  1
  O  O65  1  0.14598258  0.46761153  0.58180135  1
  O  O66  1  0.29401092  0.80528277  0.25660978  1
  O  O67  1  0.52074782  0.70122460  0.25394806  1
  O  O68  1  0.16606175  0.48108830  0.25020403  1
  O  O69  1  0.29877540  0.47925218  0.75394806  1
  O  O70  1  0.19471723  0.70598908  0.75660978  1
  O  O71  1  0.51891170  0.83393825  0.75020403  1
loop_
_geom_bond_atom_site_label_1
_geom_bond_atom_site_label_2
_geom_bond_distance
_geom_bond_site_symmetry_2
Na0 O16 2.285050 1_565
Na0 O53 2.370699 1_565
Na0 O67 2.433714 1_555
Na0 O52 2.751362 1_565
Na0 O66 2.818352 1_555
Na0 O31 2.878015 1_555
Na0 O9 2.981044 1_555
Na1 O66 2.430198 1_655
Na1 O52 2.437100 1_555
Na1 O51 2.548954 1_555
Na1 O15 2.579056 1_555
Na1 O30 2.582512 1_655
Na1 O68 2.599672 1_655
Na1 O11 2.899084 1_655
Na2 O12 2.285050 1_455
Na2 O50 2.370699 1_455
Na2 O69 2.433714 1_555
Na2 O48 2.751362 1_455
Na2 O70 2.818352 1_555
Na2 O33 2.878015 1_555
Na2 O7 2.981044 1_555
Na3 O70 2.430198 1_545
Na3 O48 2.437100 1_555
Na3 O49 2.548954 1_555
Na3 O13 2.579056 1_555
Na3 O34 2.582512 1_545
Na3 O71 2.599672 1_545
Na3 O8 2.899084 1_545
Na4 O28 2.285034 1_555
Na4 O65 2.370717 1_555
Na4 O43 2.433714 1_555
Na4 O64 2.751368 1_555
Na4 O42 2.818352 1_455
Na4 O7 2.878015 1_555
Na4 O21 2.981044 1_555
Na5 O42 2.430198 1_565
Na5 O64 2.437090 1_555
Na5 O63 2.548965 1_555
Na5 O27 2.579035 1_555
Na5 O6 2.582512 1_555
Na5 O44 2.599672 1_555
Na5 O23 2.899084 1_565
Na6 O24 2.285034 1_554
Na6 O62 2.370717 1_555
Na6 O45 2.433714 1_555
Na6 O60 2.751368 1_555
Na6 O46 2.818352 1_565
Na6 O9 2.878015 1_555
Na6 O19 2.981044 1_555
Na7 O46 2.430198 1_455
Na7 O60 2.437090 1_555
Na7 O61 2.548965 1_555
Na7 O25 2.579035 1_554
Na7 O10 2.582512 1_555
Na7 O47 2.599672 1_555
Na7 O20 2.899084 1_455
Na8 O4 2.285050 1_555
Na8 O41 2.370699 1_555
Na8 O55 2.433722 1_555
Na8 O40 2.751362 1_655
Na8 O54 2.818342 1_555
Na8 O19 2.877995 1_556
Na8 O33 2.981044 1_655
Na9 O54 2.430204 1_555
Na9 O40 2.437100 1_545
Na9 O39 2.548954 1_555
Na9 O3 2.579056 1_555
Na9 O18 2.582495 1_556
Na9 O56 2.599689 1_555
Na9 O35 2.899084 1_555
Na10 O0 2.285050 1_555
Na10 O38 2.370699 1_555
Na10 O57 2.433722 1_555
Na10 O36 2.751362 1_545
Na10 O58 2.818342 1_555
Na10 O21 2.877995 1_555
Na10 O31 2.981044 1_545
Na11 O58 2.430204 1_555
Na11 O36 2.437100 1_655
Na11 O37 2.548954 1_555
Na11 O1 2.579056 1_555
Na11 O22 2.582495 1_555
Na11 O59 2.599689 1_555
Na11 O32 2.899084 1_555
Na12 O37 2.387967 1_545
Na12 O42 2.428495 1_555
Na12 O38 2.556622 1_655
Na12 O43 2.573079 1_655
Na12 O44 2.609972 1_545
Na12 O36 2.925068 1_645
Na13 O39 2.387967 1_655
Na13 O46 2.428495 1_556
Na13 O41 2.556622 1_545
Na13 O45 2.573079 1_546
Na13 O47 2.609972 1_656
Na13 O40 2.925068 1_645
Na14 O49 2.387967 1_555
Na14 O54 2.428495 1_555
Na14 O50 2.556622 1_555
Na14 O55 2.573079 1_555
Na14 O56 2.609972 1_555
Na14 O48 2.925068 1_555
Na15 O51 2.387967 1_555
Na15 O58 2.428495 1_555
Na15 O53 2.556622 1_555
Na15 O57 2.573079 1_555
Na15 O59 2.609972 1_555
Na15 O52 2.925068 1_555
Na16 O61 2.387967 1_555
Na16 O66 2.428495 1_555
Na16 O62 2.556622 1_555
Na16 O67 2.573079 1_555
Na16 O68 2.609972 1_555
Na16 O60 2.925068 1_555
Na17 O63 2.387967 1_555
Na17 O70 2.428495 1_555
Na17 O65 2.556622 1_555
Na17 O69 2.573079 1_555
Na17 O71 2.609972 1_555
Na17 O64 2.925068 1_555
O0 Si0 1.605126 1_545
O0 Y0 2.164261 1_555
O1 Si1 1.598533 1_555
O1 Y0 2.181080 1_665
O2 S0 1.470795 1_555
O2 Y0 2.165130 1_555
O3 Si2 1.598533 1_555
O3 Y1 2.181080 1_445
O4 Si3 1.605126 1_655
O4 Y1 2.164261 1_555
O5 S1 1.470795 1_555
O5 Y1 2.165130 1_555
O6 S1 1.476878 1_555
O6 Ti0 2.605831 1_665
O7 Si2 1.714340 1_555
O7 Ti0 1.861142 1_555
O8 Si3 1.719585 1_555
O8 Ti0 1.882493 1_565
O9 Si1 1.714340 1_555
O9 Ti1 1.861142 1_555
O10 S0 1.476878 1_555
O10 Ti1 2.605831 1_445
O11 Si0 1.719585 1_555
O11 Ti1 1.882493 1_455
O12 Si4 1.605126 1_555
O12 Y2 2.164261 1_555
O13 Si5 1.598533 1_555
O13 Y2 2.181080 1_555
O14 S2 1.470795 1_555
O14 Y2 2.165130 1_555
O15 Si6 1.598533 1_555
O15 Y3 2.181080 1_555
O16 Si7 1.605126 1_555
O16 Y3 2.164261 1_555
O17 S3 1.470795 1_555
O17 Y3 2.165130 1_555
O18 S3 1.476878 1_555
O18 Ti2 2.605831 1_554
O19 Si6 1.714340 1_555
O19 Ti2 1.861142 1_554
O20 Si7 1.719585 1_555
O20 Ti2 1.882493 1_554
O21 Si5 1.714340 1_555
O21 Ti3 1.861142 1_555
O22 S2 1.476878 1_555
O22 Ti3 2.605831 1_555
O23 Si4 1.719585 1_555
O23 Ti3 1.882493 1_555
O24 Si8 1.605126 1_555
O24 Y4 2.164261 1_556
O25 Si9 1.598533 1_555
O25 Y4 2.181080 1_556
O26 S4 1.470795 1_555
O26 Y4 2.165130 1_556
O27 Si10 1.598533 1_555
O27 Y5 2.181080 1_555
O28 Si11 1.605126 1_555
O28 Y5 2.164261 1_555
O29 S5 1.470795 1_555
O29 Y5 2.165130 1_555
O30 S5 1.476878 1_555
O30 Ti4 2.605831 1_555
O31 Si10 1.714340 1_555
O31 Ti4 1.861142 1_555
O32 Si11 1.719585 1_555
O32 Ti4 1.882493 1_555
O33 Si9 1.714340 1_555
O33 Ti5 1.861142 1_555
O34 S4 1.476878 1_555
O34 Ti5 2.605831 1_555
O35 Si8 1.719585 1_555
O35 Ti5 1.882493 1_555
O36 S5 1.500311 1_555
O36 Y0 2.331754 1_565
O37 Si10 1.607179 1_555
O37 Y0 2.258108 1_665
O38 Si11 1.621912 1_555
O38 Y0 2.219920 1_555
O39 Si9 1.607179 1_555
O39 Y1 2.258108 1_445
O40 S4 1.500311 1_555
O40 Y1 2.331754 1_455
O41 Si8 1.621912 1_555
O41 Y1 2.219920 1_555
O42 Si4 1.684739 1_555
O42 Ti0 2.009391 1_655
O43 Si5 1.684744 1_555
O43 Ti0 1.881436 1_555
O44 S2 1.488229 1_555
O44 Ti0 2.366348 1_665
O45 Si6 1.684743 1_555
O45 Ti1 1.881436 1_555
O46 Si7 1.684739 1_555
O46 Ti1 2.009391 1_545
O47 S3 1.488229 1_555
O47 Ti1 2.366348 1_445
O48 S1 1.500311 1_545
O48 Y2 2.331754 1_555
O49 Si2 1.607179 1_555
O49 Y2 2.258108 1_555
O50 Si3 1.621912 1_655
O50 Y2 2.219920 1_555
O51 Si1 1.607179 1_555
O51 Y3 2.258108 1_555
O52 S0 1.500311 1_655
O52 Y3 2.331754 1_555
O53 Si0 1.621912 1_545
O53 Y3 2.219920 1_555
O54 Si8 1.684753 1_555
O54 Ti2 2.009391 1_555
O55 Si9 1.684728 1_655
O55 Ti2 1.881436 1_555
O56 S4 1.488226 1_545
O56 Ti2 2.366348 1_555
O57 Si10 1.684728 1_545
O57 Ti3 1.881436 1_555
O58 Si11 1.684753 1_555
O58 Ti3 2.009391 1_555
O59 S5 1.488226 1_655
O59 Ti3 2.366348 1_555
O60 S3 1.500327 1_555
O60 Y4 2.331754 1_555
O61 Si6 1.607164 1_455
O61 Y4 2.258108 1_555
O62 Si7 1.621907 1_565
O62 Y4 2.219920 1_555
O63 Si5 1.607164 1_565
O63 Y5 2.258108 1_555
O64 S2 1.500327 1_555
O64 Y5 2.331754 1_555
O65 Si4 1.621907 1_455
O65 Y5 2.219920 1_555
O66 Si0 1.684739 1_555
O66 Ti4 2.009391 1_555
O67 Si1 1.684744 1_555
O67 Ti4 1.881436 1_555
O68 S0 1.488229 1_555
O68 Ti4 2.366348 1_555
O69 Si2 1.684743 1_555
O69 Ti5 1.881436 1_555
O70 Si3 1.684739 1_555
O70 Ti5 2.009391 1_555
O71 S1 1.488229 1_555
O71 Ti5 2.366348 1_555
