# generated using pymatgen
data_NaHf2Ta2SiP5O24
_symmetry_space_group_name_H-M   'P 1'
_cell_length_a   8.83218228
_cell_length_b   8.83697288
_cell_length_c   22.93525373
_cell_angle_alpha   90.04093629
_cell_angle_beta   89.87805112
_cell_angle_gamma   120.02977934
_symmetry_Int_Tables_number   1
_chemical_formula_structural   NaHf2Ta2SiP5O24
_chemical_formula_sum   'Na3 Hf6 Ta6 Si3 P15 O72'
_cell_volume   1549.79518481
_cell_formula_units_Z   3
loop_
 _symmetry_equiv_pos_site_id
 _symmetry_equiv_pos_as_xyz
  1  'x, y, z'
loop_
 _atom_site_type_symbol
 _atom_site_label
 _atom_site_symmetry_multiplicity
 _atom_site_fract_x
 _atom_site_fract_y
 _atom_site_fract_z
 _atom_site_occupancy
  Na  Na0  1  0.99982294  0.99796511  0.99855546  1
  Na  Na1  1  0.66607428  0.33325840  0.83180281  1
  Na  Na2  1  0.66712900  0.33332215  0.33561134  1
  Hf  Hf0  1  0.00035404  0.99763854  0.85562613  1
  Hf  Hf1  1  0.00149251  0.00284690  0.14698896  1
  Hf  Hf2  1  0.66633778  0.33369191  0.68587260  1
  Hf  Hf3  1  0.66739944  0.33385011  0.48038466  1
  Hf  Hf4  1  0.33300699  0.66678274  0.52167781  1
  Hf  Hf5  1  0.33109298  0.66493549  0.31045959  1
  Ta  Ta0  1  0.99849691  0.00347916  0.35681804  1
  Ta  Ta1  1  0.00048722  0.00022625  0.64361665  1
  Ta  Ta2  1  0.66835940  0.33371019  0.18942486  1
  Ta  Ta3  1  0.66450873  0.33356956  0.97684700  1
  Ta  Ta4  1  0.33619510  0.67123443  0.02290297  1
  Ta  Ta5  1  0.33862329  0.67018761  0.80972409  1
  Si  Si0  1  0.00069976  0.28765879  0.25025057  1
  Si  Si1  1  0.61825449  0.66794507  0.91680986  1
  Si  Si2  1  0.33270524  0.95090307  0.91688664  1
  P  P0  1  0.28618896  0.00091104  0.25038048  1
  P  P1  1  0.71463980  0.71405459  0.25046193  1
  P  P2  1  0.28658011  0.28746252  0.74983587  1
  P  P3  1  0.00034651  0.71231570  0.74972024  1
  P  P4  1  0.71397141  0.00110276  0.74980103  1
  P  P5  1  0.95632494  0.33276774  0.58370627  1
  P  P6  1  0.37687301  0.04373631  0.58369277  1
  P  P7  1  0.66705740  0.62366716  0.58370698  1
  P  P8  1  0.95241865  0.61781529  0.08270983  1
  P  P9  1  0.66647673  0.04793383  0.08290559  1
  P  P10  1  0.38080736  0.33399397  0.08295742  1
  P  P11  1  0.05064446  0.38482661  0.91714684  1
  P  P12  1  0.62121905  0.95532644  0.41615946  1
  P  P13  1  0.33438471  0.37841605  0.41613659  1
  P  P14  1  0.04456566  0.66747866  0.41611260  1
  O  O0  1  0.20139935  0.03355695  0.30444096  1
  O  O1  1  0.83283165  0.79619546  0.30450206  1
  O  O2  1  0.96564898  0.15984759  0.30673684  1
  O  O3  1  0.20457376  0.17563406  0.80427635  1
  O  O4  1  0.96996626  0.79529007  0.80405781  1
  O  O5  1  0.82419538  0.02982705  0.80435301  1
  O  O6  1  0.80160486  0.97247733  0.69543921  1
  O  O7  1  0.17076240  0.19768991  0.69549747  1
  O  O8  1  0.02777458  0.82893686  0.69552128  1
  O  O9  1  0.79786601  0.82115149  0.19510735  1
  O  O10  1  0.02623588  0.19855273  0.19243005  1
  O  O11  1  0.17750676  0.97272592  0.19513693  1
  O  O12  1  0.87079301  0.36030290  0.63801024  1
  O  O13  1  0.48941066  0.12906742  0.63792538  1
  O  O14  1  0.63955907  0.51059291  0.63792071  1
  O  O15  1  0.86220403  0.50232258  0.13734062  1
  O  O16  1  0.63839365  0.13623888  0.13733337  1
  O  O17  1  0.49594663  0.36111796  0.13712660  1
  O  O18  1  0.47340425  0.30862538  0.02881795  1
  O  O19  1  0.83624081  0.52660436  0.02886976  1
  O  O20  1  0.69225411  0.16354467  0.02888118  1
  O  O21  1  0.45700780  0.16026102  0.52974719  1
  O  O22  1  0.70342967  0.54318930  0.52977531  1
  O  O23  1  0.83987569  0.29662040  0.52984234  1
  O  O24  1  0.52145321  0.68951292  0.97440367  1
  O  O25  1  0.16191264  0.47053716  0.97233323  1
  O  O26  1  0.30615448  0.83079743  0.97450056  1
  O  O27  1  0.54157577  0.84361948  0.47091437  1
  O  O28  1  0.30095709  0.45719026  0.47086189  1
  O  O29  1  0.15607093  0.69830824  0.47080323  1
  O  O30  1  0.12762031  0.63743489  0.36205305  1
  O  O31  1  0.51155000  0.87451205  0.36171731  1
  O  O32  1  0.36420485  0.49050803  0.36197208  1
  O  O33  1  0.13127801  0.49735932  0.86201472  1
  O  O34  1  0.36379647  0.85936895  0.85951232  1
  O  O35  1  0.49472971  0.63229748  0.85939102  1
  O  O36  1  0.02396118  0.83042157  0.40487358  1
  O  O37  1  0.80530761  0.97299904  0.40626988  1
  O  O38  1  0.17070683  0.19301904  0.40558279  1
  O  O39  1  0.02641603  0.20133389  0.91068877  1
  O  O40  1  0.16711544  0.97927661  0.91148137  1
  O  O41  1  0.80959124  0.83742345  0.91147295  1
  O  O42  1  0.97476796  0.16819994  0.59576053  1
  O  O43  1  0.19359135  0.02516286  0.59565834  1
  O  O44  1  0.83185742  0.80665257  0.59580140  1
  O  O45  1  0.97317954  0.79994183  0.08864924  1
  O  O46  1  0.82646689  0.02417305  0.08859732  1
  O  O47  1  0.19942320  0.16956605  0.08783464  1
  O  O48  1  0.68753836  0.15947503  0.74225986  1
  O  O49  1  0.47095255  0.31193611  0.74218529  1
  O  O50  1  0.83945876  0.52846073  0.74230282  1
  O  O51  1  0.69356358  0.52699982  0.24074443  1
  O  O52  1  0.82290923  0.30543110  0.24060561  1
  O  O53  1  0.47109373  0.16965585  0.24064768  1
  O  O54  1  0.64034711  0.49468948  0.92638493  1
  O  O55  1  0.86525507  0.36446634  0.92641861  1
  O  O56  1  0.50958132  0.14348526  0.92647022  1
  O  O57  1  0.64876440  0.14159469  0.42366849  1
  O  O58  1  0.49412805  0.35226311  0.42351344  1
  O  O59  1  0.85909756  0.50629485  0.42357034  1
  O  O60  1  0.36144521  0.49583115  0.07311491  1
  O  O61  1  0.13224290  0.63228764  0.07381160  1
  O  O62  1  0.50112270  0.86625640  0.07437997  1
  O  O63  1  0.35261106  0.86244565  0.57457986  1
  O  O64  1  0.50968298  0.64736273  0.57447923  1
  O  O65  1  0.13765693  0.49011803  0.57455813  1
  O  O66  1  0.31479763  0.84728658  0.25954755  1
  O  O67  1  0.53427470  0.69039063  0.25959785  1
  O  O68  1  0.16376325  0.47804274  0.25952742  1
  O  O69  1  0.30244835  0.46923645  0.75881011  1
  O  O70  1  0.16404477  0.69310444  0.75931809  1
  O  O71  1  0.53044154  0.83454777  0.75823744  1
loop_
_geom_bond_atom_site_label_1
_geom_bond_atom_site_label_2
_geom_bond_distance
_geom_bond_site_symmetry_2
Na0 O40 2.535731 1_655
Na0 O41 2.539517 1_555
Na0 O39 2.631891 1_665
Na0 O47 2.633521 1_666
Na0 O45 2.641637 1_556
Na0 O46 2.646412 1_566
Na1 O50 2.623355 1_555
Na1 O48 2.626261 1_555
Na1 O49 2.630518 1_555
Na1 O56 2.666348 1_555
Na1 O54 2.666523 1_555
Na1 O55 2.722078 1_555
Na2 O58 2.582557 1_555
Na2 O59 2.587877 1_555
Na2 O57 2.589247 1_555
Na2 O52 2.650970 1_555
Na2 O51 2.705756 1_555
Na2 O53 2.708969 1_555
Hf0 O40 2.020966 1_555
Hf0 O41 2.022297 1_455
Hf0 O4 2.046054 1_455
Hf0 O3 2.066023 1_565
Hf0 O5 2.082245 1_465
Hf0 O39 2.114543 1_565
Hf1 O10 1.935210 1_555
Hf1 O11 2.031981 1_545
Hf1 O9 2.033298 1_445
Hf1 O47 2.117128 1_555
Hf1 O46 2.125909 1_455
Hf1 O45 2.148760 1_445
Hf2 O14 2.020623 1_555
Hf2 O12 2.021901 1_555
Hf2 O13 2.024163 1_555
Hf2 O49 2.083702 1_555
Hf2 O50 2.084844 1_555
Hf2 O48 2.090502 1_555
Hf3 O22 2.053293 1_555
Hf3 O23 2.055485 1_555
Hf3 O21 2.056291 1_555
Hf3 O59 2.073118 1_555
Hf3 O57 2.079301 1_555
Hf3 O58 2.080354 1_555
Hf4 O65 2.045210 1_555
Hf4 O63 2.046961 1_555
Hf4 O64 2.051179 1_555
Hf4 O27 2.074406 1_555
Hf4 O29 2.079710 1_555
Hf4 O28 2.083873 1_555
Hf5 O68 1.959067 1_555
Hf5 O66 2.053397 1_555
Hf5 O67 2.054064 1_555
Hf5 O30 2.059880 1_555
Hf5 O32 2.076672 1_555
Hf5 O31 2.098270 1_555
O0 P0 1.546980 1_555
O0 Ta0 2.059073 1_455
O1 P1 1.548736 1_555
O1 Ta0 2.063416 1_565
O2 Si0 1.643268 1_655
O2 Ta0 1.928182 1_555
O3 P2 1.530265 1_555
O4 P3 1.535241 1_655
O5 P4 1.528063 1_555
O6 P4 1.552090 1_565
O6 Ta1 2.029468 1_665
O7 P2 1.555854 1_555
O7 Ta1 2.024981 1_555
O8 P3 1.554560 1_555
O8 Ta1 2.033569 1_565
O9 P1 1.532734 1_555
O10 Si0 1.613852 1_555
O11 P0 1.534349 1_565
O12 P5 1.536438 1_555
O13 P6 1.535394 1_555
O14 P7 1.536587 1_555
O15 P8 1.558873 1_555
O15 Ta2 2.004709 1_555
O16 P9 1.555562 1_555
O16 Ta2 2.019586 1_555
O17 P10 1.547934 1_555
O17 Ta2 2.047829 1_555
O18 P10 1.561960 1_555
O18 Ta3 1.984363 1_554
O19 P8 1.550338 1_555
O19 Ta3 2.012264 1_554
O20 P9 1.548767 1_555
O20 Ta3 2.028336 1_554
O21 P6 1.536457 1_555
O22 P7 1.537762 1_555
O23 P5 1.536891 1_555
O24 Si1 1.634037 1_555
O24 Ta4 1.915368 1_556
O25 P11 1.549324 1_555
O25 Ta4 2.032809 1_556
O26 Si2 1.636807 1_555
O26 Ta4 1.915455 1_556
O27 P12 1.532759 1_555
O28 P13 1.532975 1_555
O29 P14 1.534184 1_555
O30 P14 1.528547 1_555
O31 P12 1.522780 1_555
O32 P13 1.527435 1_555
O33 P11 1.544055 1_555
O33 Ta5 2.078083 1_555
O34 Si2 1.637236 1_555
O34 Ta5 1.942829 1_555
O35 Si1 1.638689 1_555
O35 Ta5 1.944222 1_555
O36 P14 1.560751 1_555
O36 Ta0 1.987926 1_465
O37 P12 1.569628 1_555
O37 Ta0 1.950009 1_565
O38 P13 1.569385 1_555
O38 Ta0 1.955623 1_455
O39 P11 1.532824 1_555
O40 Si2 1.607810 1_555
O41 Si1 1.606237 1_555
O42 P5 1.567090 1_555
O42 Ta1 1.949505 1_655
O43 P6 1.566822 1_555
O43 Ta1 1.945107 1_555
O44 P7 1.567052 1_555
O44 Ta1 1.949692 1_665
O45 P8 1.531963 1_555
O46 P9 1.534820 1_555
O47 P10 1.536191 1_555
O48 P4 1.539693 1_555
O49 P2 1.541306 1_555
O50 P3 1.541985 1_655
O51 P1 1.583791 1_555
O51 Ta2 1.992536 1_555
O52 Si0 1.669653 1_655
O52 Ta2 1.911095 1_555
O53 P0 1.581768 1_555
O53 Ta2 1.995763 1_555
O54 Si1 1.652305 1_555
O54 Ta3 1.928674 1_555
O55 P11 1.569188 1_655
O55 Ta3 2.015704 1_555
O56 Si2 1.650748 1_545
O56 Ta3 1.931926 1_555
O57 P12 1.548313 1_545
O58 P13 1.549215 1_555
O59 P14 1.550883 1_655
O60 P10 1.539789 1_555
O60 Ta4 2.031800 1_555
O61 P8 1.541384 1_455
O61 Ta4 2.024272 1_555
O62 P9 1.550041 1_565
O62 Ta4 1.994402 1_555
O63 P6 1.520626 1_565
O64 P7 1.520940 1_555
O65 P5 1.520696 1_455
O66 P0 1.514936 1_565
O67 P1 1.513457 1_555
O68 Si0 1.589206 1_555
O69 P2 1.554550 1_555
O69 Ta5 2.012429 1_555
O70 P3 1.553942 1_555
O70 Ta5 2.018779 1_555
O71 P4 1.562822 1_565
O71 Ta5 1.976177 1_555
