# generated using pymatgen
data_MgZr2(BiO4)2
_symmetry_space_group_name_H-M   'P 1'
_cell_length_a   5.47998389
_cell_length_b   8.21853698
_cell_length_c   5.40422209
_cell_angle_alpha   74.24270922
_cell_angle_beta   99.88252392
_cell_angle_gamma   73.92096014
_symmetry_Int_Tables_number   1
_chemical_formula_structural   MgZr2(BiO4)2
_chemical_formula_sum   'Mg1 Zr2 Bi2 O8'
_cell_volume   216.91590597
_cell_formula_units_Z   1
loop_
 _symmetry_equiv_pos_site_id
 _symmetry_equiv_pos_as_xyz
  1  'x, y, z'
loop_
 _atom_site_type_symbol
 _atom_site_label
 _atom_site_symmetry_multiplicity
 _atom_site_fract_x
 _atom_site_fract_y
 _atom_site_fract_z
 _atom_site_occupancy
  Mg  Mg0  1  0.97733298  0.54533404  0.72733298  1
  Zr  Zr0  1  0.17358174  0.15283653  0.92358174  1
  Zr  Zr1  1  0.81919925  0.86160150  0.06919925  1
  Bi  Bi0  1  0.64462490  0.21075020  0.39462490  1
  Bi  Bi1  1  0.32704556  0.84590889  0.57704556  1
  O  O0  1  0.45884855  0.07167890  0.71542534  1
  O  O1  1  0.96947355  0.07167890  0.21289775  1
  O  O2  1  0.28373095  0.35127378  0.01726720  1
  O  O3  1  0.86499328  0.35127378  0.63145802  1
  O  O4  1  0.06749826  0.68765473  0.42087328  1
  O  O5  1  0.74484901  0.68765473  0.89147299  1
  O  O6  1  0.02463962  0.95617702  0.79672278  1
  O  O7  1  0.51918235  0.95617702  0.24709820  1
loop_
_geom_bond_atom_site_label_1
_geom_bond_atom_site_label_2
_geom_bond_distance
_geom_bond_site_symmetry_2
Mg0 O5 1.975873 1_555
Mg0 O4 1.975875 1_655
Mg0 O2 2.018488 1_656
Mg0 O3 2.018495 1_555
Bi0 O3 2.339890 1_555
Bi0 O2 2.339900 1_555
Bi0 O1 2.350016 1_555
Bi0 O0 2.350020 1_555
Bi0 O6 2.645760 1_645
Bi0 O7 2.645767 1_545
Bi1 O6 2.324799 1_555
Bi1 O7 2.324803 1_555
Bi1 O4 2.373973 1_555
Bi1 O5 2.373983 1_555
Bi1 O1 2.415447 1_465
Bi1 O0 2.415455 1_565
O0 Zr0 2.141890 1_555
O0 Zr1 2.357618 1_546
O1 Zr0 2.141893 1_654
O1 Zr1 2.357626 1_545
O2 Zr0 2.041876 1_554
O3 Zr0 2.041883 1_655
O4 Zr1 2.016515 1_455
O5 Zr1 2.016508 1_556
O6 Zr1 2.114723 1_456
O6 Zr0 2.211096 1_565
O7 Zr1 2.114720 1_555
O7 Zr0 2.211088 1_564
