# generated using pymatgen
data_Na6Hf4Ti4Si7S5O48
_symmetry_space_group_name_H-M   'P 1'
_cell_length_a   17.79107822
_cell_length_b   8.87077496
_cell_length_c   22.87877083
_cell_angle_alpha   89.89495828
_cell_angle_beta   90.07785045
_cell_angle_gamma   119.96168487
_symmetry_Int_Tables_number   1
_chemical_formula_structural   Na6Hf4Ti4Si7S5O48
_chemical_formula_sum   'Na18 Hf12 Ti12 Si21 S15 O144'
_cell_volume   3128.19567099
_cell_formula_units_Z   3
loop_
 _symmetry_equiv_pos_site_id
 _symmetry_equiv_pos_as_xyz
  1  'x, y, z'
loop_
 _atom_site_type_symbol
 _atom_site_label
 _atom_site_symmetry_multiplicity
 _atom_site_fract_x
 _atom_site_fract_y
 _atom_site_fract_z
 _atom_site_occupancy
  Na  Na0  1  0.00114974  0.63304138  0.25198438  1
  Na  Na1  1  0.49610790  0.64541501  0.24575555  1
  Na  Na2  1  0.99807427  0.34841427  0.75121805  1
  Na  Na3  1  0.50045262  0.37177835  0.75322336  1
  Na  Na4  1  0.66305819  0.30563746  0.91757718  1
  Na  Na5  1  0.16406488  0.02317550  0.41441169  1
  Na  Na6  1  0.99830239  0.98507360  0.49976792  1
  Na  Na7  1  0.49268914  0.98761879  0.49485717  1
  Na  Na8  1  0.99320929  0.99810223  0.99668568  1
  Na  Na9  1  0.49692418  0.00030687  0.00466292  1
  Na  Na10  1  0.33369977  0.33699846  0.83165740  1
  Na  Na11  1  0.83317907  0.32752032  0.83634560  1
  Na  Na12  1  0.33124599  0.33711576  0.32928823  1
  Na  Na13  1  0.83376428  0.32830397  0.32776089  1
  Na  Na14  1  0.17627162  0.67458574  0.17247824  1
  Na  Na15  1  0.67033265  0.66661040  0.16221732  1
  Na  Na16  1  0.17718889  0.68431625  0.66718027  1
  Na  Na17  1  0.67394424  0.67647973  0.67422328  1
  Hf  Hf0  1  0.49645873  0.97842302  0.35310930  1
  Hf  Hf1  1  0.99642437  0.01508868  0.85436000  1
  Hf  Hf2  1  -0.00014049  0.00149398  0.64519970  1
  Hf  Hf3  1  0.49494158  0.99072836  0.65162363  1
  Hf  Hf4  1  0.99646421  0.00081915  0.15187944  1
  Hf  Hf5  1  0.49770479  0.98775006  0.14219086  1
  Hf  Hf6  1  0.34269421  0.33530122  0.97951258  1
  Hf  Hf7  1  0.83935365  0.35107247  0.47759286  1
  Hf  Hf8  1  0.16719527  0.66910706  0.02218324  1
  Hf  Hf9  1  0.66330688  0.64657661  0.02218322  1
  Hf  Hf10  1  0.16937211  0.68685660  0.51913309  1
  Hf  Hf11  1  0.66698053  0.66567408  0.52171491  1
  Ti  Ti0  1  0.00054379  0.99203248  0.34417950  1
  Ti  Ti1  1  0.49946461  0.00638648  0.84558250  1
  Ti  Ti2  1  0.32638376  0.32114367  0.69428696  1
  Ti  Ti3  1  0.82186764  0.33099648  0.69065181  1
  Ti  Ti4  1  0.33231428  0.32779657  0.18557150  1
  Ti  Ti5  1  0.82655856  0.33055528  0.19377649  1
  Ti  Ti6  1  0.83155874  0.33998465  0.97611894  1
  Ti  Ti7  1  0.33175441  0.32327696  0.47493624  1
  Ti  Ti8  1  0.16767077  0.68215212  0.30862217  1
  Ti  Ti9  1  0.66321744  0.67545886  0.31042540  1
  Ti  Ti10  1  0.16629231  0.65224109  0.81332864  1
  Ti  Ti11  1  0.66776534  0.65528409  0.81109121  1
  Si  Si0  1  0.14933832  0.00973852  0.24911854  1
  Si  Si1  1  0.64518072  0.00576190  0.25099513  1
  Si  Si2  1  0.34963325  0.70050092  0.24853187  1
  Si  Si3  1  0.84953416  0.70714110  0.25110972  1
  Si  Si4  1  0.00058801  0.29247421  0.25207420  1
  Si  Si5  1  0.14529015  0.28762880  0.75042960  1
  Si  Si6  1  0.64403408  0.28824707  0.75014571  1
  Si  Si7  1  0.50072988  0.70851999  0.75193430  1
  Si  Si8  1  0.34945874  0.99150338  0.75147338  1
  Si  Si9  1  0.85024990  0.99799467  0.74770633  1
  Si  Si10  1  0.19332769  0.05467509  0.58401390  1
  Si  Si11  1  0.83251851  0.62319009  0.58565332  1
  Si  Si12  1  0.47852632  0.61911334  0.08534287  1
  Si  Si13  1  0.33161345  0.04269206  0.08546722  1
  Si  Si14  1  0.69406657  0.33253236  0.08428139  1
  Si  Si15  1  0.81200750  0.67096298  0.91686167  1
  Si  Si16  1  0.02078993  0.38283068  0.91803284  1
  Si  Si17  1  0.52000734  0.36945934  0.91185080  1
  Si  Si18  1  0.31385328  0.95669965  0.41486613  1
  Si  Si19  1  0.02165946  0.67217942  0.41213622  1
  Si  Si20  1  0.52124377  0.66100594  0.41773379  1
  S  S0  1  0.50094724  0.29280995  0.25125974  1
  S  S1  1  0.00059495  0.70679006  0.74999050  1
  S  S2  1  0.47564125  0.33102794  0.58252365  1
  S  S3  1  0.97754418  0.33431038  0.58450796  1
  S  S4  1  0.68861986  0.04633417  0.58340503  1
  S  S5  1  0.33361327  0.61589945  0.58263423  1
  S  S6  1  0.97556586  0.62017183  0.08249701  1
  S  S7  1  0.83501077  0.05325568  0.08261926  1
  S  S8  1  0.18811464  0.32972444  0.08280653  1
  S  S9  1  0.31129030  0.66903700  0.91538994  1
  S  S10  1  0.16629917  0.95386470  0.91480274  1
  S  S11  1  0.66566062  0.95412495  0.91633571  1
  S  S12  1  0.81141549  0.95304124  0.41583725  1
  S  S13  1  0.16560919  0.37706529  0.41743596  1
  S  S14  1  0.66612684  0.37765318  0.41582229  1
  O  O0  1  0.10162178  0.03169834  0.30853859  1
  O  O1  1  0.60663942  0.04249661  0.30952809  1
  O  O2  1  0.41485832  0.78372389  0.30574284  1
  O  O3  1  0.91781850  0.79877455  0.30626503  1
  O  O4  1  0.48938831  0.18928823  0.30401416  1
  O  O5  1  0.98416693  0.16101734  0.30803995  1
  O  O6  1  0.10467895  0.16848378  0.80778541  1
  O  O7  1  0.60197887  0.17058011  0.80889046  1
  O  O8  1  0.48404956  0.80691603  0.80733640  1
  O  O9  1  0.98600702  0.78373071  0.80238525  1
  O  O10  1  0.41809665  0.03639544  0.80593717  1
  O  O11  1  0.91635751  0.05088851  0.80421981  1
  O  O12  1  0.39133738  0.95795686  0.69301094  1
  O  O13  1  0.89697063  0.96651612  0.69177598  1
  O  O14  1  0.08215321  0.21405609  0.69390779  1
  O  O15  1  0.58291560  0.20294836  0.69299937  1
  O  O16  1  0.01420090  0.81414922  0.69719800  1
  O  O17  1  0.51703869  0.82873109  0.69357396  1
  O  O18  1  0.39518788  0.82892369  0.19339585  1
  O  O19  1  0.89155623  0.82548555  0.19297954  1
  O  O20  1  0.01732963  0.20591984  0.19408556  1
  O  O21  1  0.51562142  0.21757398  0.19828796  1
  O  O22  1  0.08255898  0.96222771  0.19395998  1
  O  O23  1  0.58188473  0.95084938  0.19525822  1
  O  O24  1  0.44081169  0.35855720  0.63699861  1
  O  O25  1  0.93756921  0.35682834  0.63740426  1
  O  O26  1  0.25576880  0.15656863  0.64045311  1
  O  O27  1  0.74096241  0.12617695  0.63675270  1
  O  O28  1  0.32591245  0.51829338  0.63639395  1
  O  O29  1  0.82208016  0.49348465  0.64123157  1
  O  O30  1  0.42854393  0.49956812  0.14339860  1
  O  O31  1  0.94077728  0.52275633  0.13706538  1
  O  O32  1  0.31720422  0.14175502  0.14167939  1
  O  O33  1  0.82742909  0.13625603  0.13624987  1
  O  O34  1  0.23994173  0.35563704  0.13579362  1
  O  O35  1  0.75697199  0.35354569  0.14042030  1
  O  O36  1  0.22795990  0.30991370  0.02890872  1
  O  O37  1  0.74374832  0.31474714  0.02498530  1
  O  O38  1  0.41858612  0.53013975  0.02721861  1
  O  O39  1  0.92310145  0.53337100  0.03008959  1
  O  O40  1  0.34058662  0.15396474  0.02626913  1
  O  O41  1  0.84727160  0.15801694  0.02934110  1
  O  O42  1  0.24245593  0.16919653  0.52480226  1
  O  O43  1  0.73148137  0.14809635  0.53026909  1
  O  O44  1  0.34583596  0.53716999  0.52946769  1
  O  O45  1  0.84337517  0.52637300  0.52781792  1
  O  O46  1  0.42301127  0.31263123  0.53024630  1
  O  O47  1  0.92351424  0.31026828  0.53128213  1
  O  O48  1  0.27055874  0.69358193  0.96879578  1
  O  O49  1  0.76897705  0.70190719  0.97420433  1
  O  O50  1  0.08316547  0.47918602  0.97313493  1
  O  O51  1  0.58130601  0.45688634  0.96985527  1
  O  O52  1  0.15790189  0.85126618  0.96878613  1
  O  O53  1  0.65458783  0.85281732  0.97022407  1
  O  O54  1  0.27071313  0.84131028  0.47384913  1
  O  O55  1  0.77024596  0.84652535  0.46973499  1
  O  O56  1  0.15483051  0.45733782  0.47137258  1
  O  O57  1  0.65893336  0.46480308  0.46980732  1
  O  O58  1  0.08112405  0.70041019  0.47108243  1
  O  O59  1  0.58301167  0.68751444  0.47369809  1
  O  O60  1  0.06727492  0.64406246  0.35535851  1
  O  O61  1  0.56922774  0.63657077  0.35911598  1
  O  O62  1  0.24688551  0.86663525  0.36054155  1
  O  O63  1  0.75668488  0.86963302  0.36401362  1
  O  O64  1  0.17975267  0.48329179  0.36520625  1
  O  O65  1  0.68188273  0.48733619  0.36407425  1
  O  O66  1  0.06933545  0.50096618  0.85839241  1
  O  O67  1  0.56844788  0.49033804  0.85469729  1
  O  O68  1  0.17960963  0.87070557  0.86322219  1
  O  O69  1  0.67972229  0.87650986  0.86407857  1
  O  O70  1  0.25621435  0.64765637  0.86315307  1
  O  O71  1  0.74738909  0.63041170  0.86018892  1
  O  O72  1  0.01421669  0.84994306  0.40854068  1
  O  O73  1  0.51394405  0.83626724  0.41335809  1
  O  O74  1  0.41247148  0.99713148  0.40978377  1
  O  O75  1  0.89808758  0.97383657  0.41099969  1
  O  O76  1  0.08922716  0.19823222  0.41296506  1
  O  O77  1  0.58815844  0.20776235  0.41232892  1
  O  O78  1  0.01400262  0.19274612  0.91276435  1
  O  O79  1  0.51376074  0.17737123  0.90624254  1
  O  O80  1  0.08629748  0.96420203  0.91048839  1
  O  O81  1  0.58931493  0.98054613  0.91120223  1
  O  O82  1  0.39761634  0.82233062  0.90940536  1
  O  O83  1  0.91123289  0.82654465  0.90844170  1
  O  O84  1  0.48643798  0.17440229  0.58551135  1
  O  O85  1  0.98444681  0.17439878  0.58690036  1
  O  O86  1  0.09742875  0.03424770  0.58897553  1
  O  O87  1  0.60137401  0.02807473  0.58755307  1
  O  O88  1  0.41177676  0.79725518  0.58644840  1
  O  O89  1  0.91865950  0.81241721  0.58935034  1
  O  O90  1  0.48529717  0.80804409  0.08694648  1
  O  O91  1  0.98619113  0.79804654  0.08535387  1
  O  O92  1  0.41873184  0.03132476  0.08972869  1
  O  O93  1  0.91399945  0.03129549  0.08655949  1
  O  O94  1  0.09980526  0.17395595  0.08767921  1
  O  O95  1  0.59845308  0.16501916  0.08884129  1
  O  O96  1  0.34777839  0.17412556  0.74354389  1
  O  O97  1  0.84786352  0.18152209  0.73587617  1
  O  O98  1  0.24343309  0.32129762  0.74163284  1
  O  O99  1  0.74115268  0.30842607  0.74341625  1
  O  O100  1  0.41671251  0.51361200  0.73999845  1
  O  O101  1  0.92406634  0.52674507  0.74261200  1
  O  O102  1  0.34592696  0.51262467  0.24086468  1
  O  O103  1  0.84781926  0.52125425  0.24360460  1
  O  O104  1  0.42412496  0.31770651  0.24628965  1
  O  O105  1  0.91721729  0.32076791  0.24095772  1
  O  O106  1  0.24447103  0.17883737  0.24334408  1
  O  O107  1  0.74410455  0.16691684  0.24257023  1
  O  O108  1  0.31433840  0.50524205  0.91972941  1
  O  O109  1  0.81536414  0.48508734  0.92440839  1
  O  O110  1  0.42392739  0.35207020  0.91600556  1
  O  O111  1  0.92404354  0.35887816  0.92579941  1
  O  O112  1  0.24247881  0.13137187  0.92074067  1
  O  O113  1  0.74494092  0.13589727  0.92171332  1
  O  O114  1  0.31633785  0.14711200  0.42466937  1
  O  O115  1  0.81689253  0.12601221  0.42342271  1
  O  O116  1  0.24483170  0.35445868  0.42328260  1
  O  O117  1  0.74384022  0.35362514  0.42323941  1
  O  O118  1  0.42428594  0.49072123  0.42759707  1
  O  O119  1  0.92542341  0.49527489  0.41927930  1
  O  O120  1  0.17897142  0.48929292  0.07770887  1
  O  O121  1  0.68923904  0.51179760  0.08098079  1
  O  O122  1  0.06458785  0.64109639  0.07541727  1
  O  O123  1  0.57512386  0.64197166  0.08079127  1
  O  O124  1  0.24432753  0.84974121  0.07988191  1
  O  O125  1  0.75630372  0.87853179  0.07774910  1
  O  O126  1  0.18309502  0.85874418  0.58108160  1
  O  O127  1  0.68025320  0.87007675  0.57886010  1
  O  O128  1  0.25386239  0.63214989  0.57799562  1
  O  O129  1  0.74478979  0.63720668  0.58024201  1
  O  O130  1  0.06538495  0.48768522  0.57761048  1
  O  O131  1  0.56492534  0.48806646  0.57546224  1
  O  O132  1  0.15346337  0.82974279  0.25641348  1
  O  O133  1  0.65423346  0.82674283  0.26164524  1
  O  O134  1  0.25487683  0.67882357  0.26178898  1
  O  O135  1  0.75387972  0.67999146  0.26543665  1
  O  O136  1  0.08406637  0.48608532  0.26095748  1
  O  O137  1  0.57905871  0.47376146  0.25706733  1
  O  O138  1  0.15365242  0.48302366  0.76074872  1
  O  O139  1  0.65359199  0.47931581  0.75592820  1
  O  O140  1  0.07818801  0.68442705  0.75532244  1
  O  O141  1  0.58395103  0.68159665  0.76059187  1
  O  O142  1  0.25326939  0.82749156  0.76425934  1
  O  O143  1  0.75531899  0.83402179  0.76000719  1
loop_
_geom_bond_atom_site_label_1
_geom_bond_atom_site_label_2
_geom_bond_distance
_geom_bond_site_symmetry_2
Na0 O132 2.382245 1_555
Na0 O103 2.399776 1_455
Na0 O136 2.415932 1_555
Na0 O105 2.415948 1_455
Na0 O60 2.620218 1_555
Na0 O31 2.824122 1_455
Na0 O3 2.844370 1_455
Na0 O22 2.855482 1_555
Na1 O102 2.322716 1_555
Na1 O133 2.472490 1_555
Na1 O104 2.524354 1_555
Na1 O137 2.608759 1_555
Na1 O23 2.620690 1_555
Na1 O30 2.655725 1_555
Na1 O2 2.694704 1_555
Na1 O61 2.918383 1_555
Na2 O97 2.346122 1_555
Na2 O138 2.415099 1_655
Na2 O101 2.520628 1_555
Na2 O140 2.584963 1_655
Na2 O11 2.590426 1_555
Na2 O14 2.677532 1_655
Na2 O66 2.782278 1_655
Na2 O25 2.831367 1_555
Na3 O141 2.389885 1_555
Na3 O139 2.395946 1_555
Na3 O96 2.396666 1_555
Na3 O100 2.400793 1_555
Na3 O67 2.586474 1_555
Na3 O24 2.842449 1_555
Na3 O10 2.844317 1_555
Na3 O15 2.915744 1_555
Na4 O79 2.323265 1_555
Na4 O109 2.364776 1_555
Na4 O81 2.506160 1_545
Na4 O113 2.566800 1_555
Na4 O51 2.702951 1_555
Na4 O7 2.739099 1_555
Na4 O71 2.819412 1_555
Na4 O37 2.825118 1_556
Na5 O72 2.322625 1_545
Na5 O114 2.372184 1_555
Na5 O76 2.500036 1_555
Na5 O116 2.554539 1_555
Na5 O0 2.680125 1_555
Na5 O62 2.770085 1_545
Na5 O58 2.797825 1_545
Na5 O42 2.863490 1_555
Na6 O72 2.494619 1_655
Na6 O89 2.526422 1_555
Na6 O86 2.586706 1_665
Na6 O76 2.660059 1_665
Na6 O75 2.669596 1_555
Na6 O85 2.698603 1_565
Na7 O73 2.437319 1_555
Na7 O74 2.438118 1_555
Na7 O88 2.623374 1_555
Na7 O77 2.635475 1_565
Na7 O84 2.693832 1_565
Na7 O87 2.768368 1_565
Na8 O78 2.481205 1_665
Na8 O83 2.511057 1_555
Na8 O93 2.593290 1_566
Na8 O91 2.654511 1_556
Na8 O80 2.689028 1_655
Na8 O94 2.722170 1_666
Na9 O90 2.476382 1_545
Na9 O92 2.488028 1_555
Na9 O95 2.543894 1_555
Na9 O79 2.673212 1_554
Na9 O82 2.753144 1_544
Na9 O81 2.757442 1_544
Na10 O110 2.469192 1_555
Na10 O96 2.566651 1_555
Na10 O98 2.570848 1_555
Na10 O100 2.592016 1_555
Na10 O108 2.632985 1_555
Na10 O112 2.674598 1_555
Na11 O111 2.534399 1_555
Na11 O113 2.549370 1_555
Na11 O109 2.562808 1_555
Na11 O99 2.635238 1_555
Na11 O97 2.716566 1_555
Na11 O101 2.734594 1_555
Na12 O106 2.461269 1_555
Na12 O102 2.483644 1_555
Na12 O104 2.580672 1_555
Na12 O114 2.686031 1_555
Na12 O116 2.694117 1_555
Na12 O118 2.720977 1_555
Na13 O107 2.472578 1_555
Na13 O105 2.502098 1_555
Na13 O103 2.502204 1_555
Na13 O119 2.612801 1_555
Na13 O115 2.747675 1_555
Na13 O117 2.784230 1_555
Na14 O134 2.464203 1_555
Na14 O132 2.513243 1_555
Na14 O124 2.546369 1_555
Na14 O136 2.615647 1_555
Na14 O120 2.738130 1_555
Na14 O122 2.892814 1_555
Na15 O121 2.434325 1_555
Na15 O123 2.451649 1_555
Na15 O125 2.594385 1_555
Na15 O137 2.737485 1_555
Na15 O135 2.759627 1_555
Na15 O133 2.773901 1_555
Na16 O126 2.472335 1_555
Na16 O142 2.581339 1_555
Na16 O128 2.622945 1_555
Na16 O140 2.679607 1_555
Na16 O138 2.681062 1_555
Na16 O130 2.781179 1_555
Na17 O143 2.425360 1_555
Na17 O139 2.457988 1_555
Na17 O141 2.559615 1_555
Na17 O129 2.604226 1_555
Na17 O127 2.741626 1_555
Na17 O131 2.902556 1_555
Hf0 O2 1.939866 1_555
Hf0 O73 1.992813 1_555
Hf0 O1 2.012489 1_565
Hf0 O74 2.048237 1_555
Hf0 O4 2.236813 1_565
Hf0 O77 2.307605 1_565
Hf1 O78 1.970084 1_655
Hf1 O11 1.972815 1_555
Hf1 O6 2.019641 1_655
Hf1 O83 2.022621 1_545
Hf1 O80 2.263324 1_645
Hf1 O9 2.299741 1_545
Hf2 O13 2.004823 1_445
Hf2 O89 2.028662 1_445
Hf2 O14 2.046132 1_555
Hf2 O86 2.062337 1_555
Hf2 O85 2.149046 1_455
Hf2 O16 2.158180 1_545
Hf3 O17 1.923281 1_555
Hf3 O12 1.961409 1_555
Hf3 O15 1.987273 1_565
Hf3 O88 2.196626 1_555
Hf3 O84 2.280794 1_565
Hf3 O87 2.285428 1_565
Hf4 O20 1.926476 1_655
Hf4 O19 1.971466 1_545
Hf4 O22 1.977065 1_645
Hf4 O93 2.201743 1_555
Hf4 O94 2.252809 1_655
Hf4 O91 2.294857 1_545
Hf5 O90 1.960262 1_555
Hf5 O92 2.024922 1_565
Hf5 O18 2.029054 1_555
Hf5 O23 2.075442 1_555
Hf5 O95 2.087807 1_565
Hf5 O21 2.294461 1_565
Hf6 O40 1.914906 1_556
Hf6 O38 1.916649 1_556
Hf6 O110 2.003019 1_555
Hf6 O112 2.245040 1_555
Hf6 O36 2.245162 1_556
Hf6 O108 2.268932 1_555
Hf7 O45 1.907591 1_555
Hf7 O119 1.950342 1_555
Hf7 O47 2.101546 1_555
Hf7 O117 2.113544 1_555
Hf7 O115 2.211869 1_555
Hf7 O43 2.219097 1_555
Hf8 O50 1.954283 1_554
Hf8 O124 1.999949 1_555
Hf8 O52 2.095226 1_554
Hf8 O122 2.104613 1_555
Hf8 O48 2.127703 1_554
Hf8 O120 2.127831 1_555
Hf9 O51 1.985882 1_554
Hf9 O121 1.998821 1_555
Hf9 O49 2.015479 1_554
Hf9 O123 2.049997 1_555
Hf9 O53 2.249296 1_554
Hf9 O125 2.278339 1_555
Hf10 O54 1.932292 1_555
Hf10 O58 1.967578 1_555
Hf10 O126 2.007100 1_555
Hf10 O56 2.210775 1_555
Hf10 O128 2.242627 1_555
Hf10 O130 2.251087 1_555
Hf11 O59 1.939062 1_555
Hf11 O129 2.028787 1_555
Hf11 O57 2.087686 1_555
Hf11 O55 2.101975 1_555
Hf11 O131 2.105391 1_555
Hf11 O127 2.152441 1_555
O0 Si0 1.666145 1_555
O0 Ti0 1.842135 1_545
O1 Si1 1.611520 1_555
O2 Si2 1.657886 1_555
O3 Si3 1.655958 1_555
O3 Ti0 1.827382 1_655
O4 S0 1.466398 1_555
O5 Si4 1.655278 1_655
O5 Ti0 1.856522 1_645
O6 Si5 1.611141 1_555
O7 Si6 1.634992 1_555
O7 Ti1 1.870521 1_555
O8 Si7 1.649356 1_555
O8 Ti1 1.868736 1_565
O9 S1 1.466602 1_655
O10 Si8 1.647546 1_545
O10 Ti1 1.835662 1_555
O11 Si9 1.649865 1_545
O12 Si8 1.630444 1_555
O13 Si9 1.625530 1_555
O14 Si5 1.620748 1_555
O15 Si6 1.625498 1_555
O16 S1 1.480115 1_555
O17 Si7 1.640396 1_555
O18 Si2 1.619007 1_555
O19 Si3 1.625861 1_555
O20 Si4 1.634512 1_555
O21 S0 1.469767 1_555
O22 Si0 1.636896 1_565
O23 Si1 1.606852 1_565
O24 S2 1.466726 1_555
O24 Ti2 2.302890 1_555
O25 S3 1.468134 1_555
O25 Ti3 2.304018 1_555
O26 Si10 1.647988 1_555
O26 Ti2 1.843105 1_555
O27 S4 1.483175 1_555
O27 Ti3 2.069983 1_555
O28 S5 1.469459 1_555
O28 Ti2 2.195245 1_555
O29 Si11 1.660440 1_555
O29 Ti3 1.828839 1_555
O30 Si12 1.653991 1_555
O30 Ti4 1.891357 1_555
O31 S6 1.467103 1_555
O31 Ti5 2.293065 1_555
O32 Si13 1.649838 1_555
O32 Ti4 1.834798 1_555
O33 S7 1.472683 1_555
O33 Ti5 2.176750 1_555
O34 S8 1.469331 1_555
O34 Ti4 2.111410 1_555
O35 Si14 1.650911 1_555
O35 Ti5 1.819788 1_555
O36 S8 1.477019 1_555
O37 Si14 1.670302 1_555
O37 Ti6 1.842589 1_554
O38 Si12 1.639465 1_555
O39 S6 1.477914 1_555
O39 Ti6 2.081270 1_554
O40 Si13 1.634759 1_555
O41 S7 1.480239 1_555
O41 Ti6 2.146871 1_554
O42 Si10 1.656032 1_555
O42 Ti7 1.877241 1_555
O43 S4 1.478239 1_555
O44 S5 1.473145 1_555
O44 Ti7 2.180011 1_555
O45 Si11 1.642054 1_555
O46 S2 1.476121 1_555
O46 Ti7 2.096017 1_555
O47 S3 1.498460 1_555
O48 S9 1.492133 1_555
O49 Si15 1.611378 1_555
O50 Si16 1.613717 1_555
O51 Si17 1.645285 1_555
O52 S10 1.495536 1_555
O53 S11 1.478592 1_555
O54 Si18 1.634287 1_555
O55 S12 1.502250 1_555
O56 S13 1.485548 1_555
O57 S14 1.497430 1_555
O58 Si19 1.653314 1_555
O59 Si20 1.625267 1_555
O60 Si19 1.616931 1_555
O60 Ti8 1.961859 1_555
O61 Si20 1.662327 1_555
O61 Ti9 1.893042 1_555
O62 Si18 1.628311 1_555
O62 Ti8 1.942734 1_555
O63 S12 1.477101 1_555
O63 Ti9 2.092011 1_555
O64 S13 1.462542 1_555
O64 Ti8 2.281139 1_555
O65 S14 1.466698 1_555
O65 Ti9 2.224098 1_555
O66 Si16 1.673296 1_555
O66 Ti10 1.878007 1_555
O67 Si17 1.636222 1_555
O67 Ti11 1.917144 1_555
O68 S10 1.473544 1_555
O68 Ti10 2.159528 1_555
O69 S11 1.463528 1_555
O69 Ti11 2.226458 1_555
O70 S9 1.495467 1_555
O70 Ti10 1.979983 1_555
O71 Si15 1.648278 1_555
O71 Ti11 1.903724 1_555
O72 Si19 1.648932 1_555
O72 Ti0 2.028457 1_555
O73 Si20 1.626364 1_555
O74 Si18 1.610082 1_555
O75 S12 1.462969 1_555
O75 Ti0 2.323485 1_655
O76 S13 1.490199 1_555
O76 Ti0 2.330869 1_545
O77 S14 1.453906 1_555
O78 Si16 1.633921 1_555
O79 Si17 1.656485 1_555
O79 Ti1 1.978071 1_555
O80 S10 1.474426 1_555
O81 S11 1.493678 1_555
O81 Ti1 2.284725 1_565
O82 S9 1.463048 1_555
O82 Ti1 2.263766 1_565
O83 Si15 1.620074 1_555
O84 S2 1.496050 1_555
O85 S3 1.484598 1_555
O86 Si10 1.627359 1_555
O87 S4 1.481141 1_555
O88 S5 1.514976 1_555
O89 Si11 1.613736 1_555
O90 Si12 1.619650 1_555
O91 S6 1.494037 1_555
O92 Si13 1.605497 1_555
O93 S7 1.514581 1_555
O94 S8 1.490521 1_555
O95 Si14 1.608642 1_555
O96 Si8 1.644837 1_545
O96 Ti2 1.898683 1_555
O97 Si9 1.671208 1_545
O97 Ti3 1.910188 1_555
O98 Si5 1.630432 1_555
O98 Ti2 1.832390 1_555
O99 Si6 1.653144 1_555
O99 Ti3 1.810012 1_555
O100 Si7 1.648474 1_555
O100 Ti2 1.962840 1_555
O101 S1 1.503808 1_655
O101 Ti3 2.140676 1_555
O102 Si2 1.644377 1_555
O102 Ti4 1.989301 1_555
O103 Si3 1.643246 1_555
O103 Ti5 1.916020 1_555
O104 S0 1.493553 1_555
O104 Ti4 2.178350 1_555
O105 Si4 1.642654 1_655
O105 Ti5 1.977131 1_555
O106 Si0 1.611259 1_555
O106 Ti4 1.967753 1_555
O107 Si1 1.632521 1_555
O107 Ti5 1.837620 1_555
O108 S9 1.483958 1_555
O109 Si15 1.688017 1_555
O109 Ti6 1.871740 1_555
O110 Si17 1.640664 1_555
O111 Si16 1.635458 1_655
O111 Ti6 1.946743 1_555
O112 S10 1.484395 1_545
O113 S11 1.527472 1_545
O113 Ti6 2.101929 1_555
O114 Si18 1.682890 1_545
O114 Ti7 1.848657 1_555
O115 S12 1.498514 1_545
O116 S13 1.525247 1_555
O116 Ti7 2.070192 1_555
O117 S14 1.509772 1_555
O118 Si20 1.644815 1_555
O118 Ti7 1.909434 1_555
O119 Si19 1.654353 1_655
O120 S8 1.507655 1_555
O121 Si14 1.636413 1_555
O122 S6 1.508659 1_455
O123 Si12 1.630274 1_555
O124 Si13 1.644037 1_565
O125 S7 1.485895 1_565
O126 Si10 1.656152 1_565
O127 S4 1.498571 1_565
O128 S5 1.499674 1_555
O129 Si11 1.630984 1_555
O130 S3 1.481349 1_455
O131 S2 1.509811 1_555
O132 Si0 1.642782 1_565
O132 Ti8 1.878500 1_555
O133 Si1 1.691484 1_565
O133 Ti9 1.811167 1_555
O134 Si2 1.627370 1_555
O134 Ti8 1.899070 1_555
O135 Si3 1.628925 1_555
O135 Ti9 1.897981 1_555
O136 Si4 1.627710 1_555
O136 Ti8 1.960915 1_555
O137 S0 1.515802 1_555
O137 Ti9 2.064119 1_555
O138 Si5 1.681085 1_555
O138 Ti10 1.849237 1_555
O139 Si6 1.622368 1_555
O139 Ti11 1.925157 1_555
O140 S1 1.494291 1_555
O140 Ti10 2.177080 1_555
O141 Si7 1.625012 1_555
O141 Ti11 1.988679 1_555
O142 Si8 1.625979 1_555
O142 Ti10 1.914972 1_555
O143 Si9 1.610408 1_555
O143 Ti11 1.958954 1_555
