# generated using pymatgen
data_MgFe(CoO3)2
_symmetry_space_group_name_H-M   'P 1'
_cell_length_a   7.35496399
_cell_length_b   2.93013687
_cell_length_c   5.41005591
_cell_angle_alpha   87.88436299
_cell_angle_beta   108.20900821
_cell_angle_gamma   78.27161522
_symmetry_Int_Tables_number   1
_chemical_formula_structural   MgFe(CoO3)2
_chemical_formula_sum   'Mg1 Fe1 Co2 O6'
_cell_volume   107.80738527
_cell_formula_units_Z   1
loop_
 _symmetry_equiv_pos_site_id
 _symmetry_equiv_pos_as_xyz
  1  'x, y, z'
loop_
 _atom_site_type_symbol
 _atom_site_label
 _atom_site_symmetry_multiplicity
 _atom_site_fract_x
 _atom_site_fract_y
 _atom_site_fract_z
 _atom_site_occupancy
  Mg  Mg0  1  0.78695536  0.60342375  0.29247005  1
  Fe  Fe0  1  0.34418405  0.31522081  0.35000173  1
  Co  Co0  1  0.02454084  0.00828796  0.97470723  1
  Co  Co1  1  0.66280744  0.68014937  0.72029992  1
  O  O0  1  0.06742843  0.47836555  0.25059710  1
  O  O1  1  0.38718178  0.78452479  0.59294993  1
  O  O2  1  0.73634091  0.15626167  0.99408447  1
  O  O3  1  0.31115611  0.85060876  0.11249737  1
  O  O4  1  0.62281095  0.15308300  0.43628385  1
  O  O5  1  0.92659412  0.53257334  0.71360933  1
loop_
_geom_bond_atom_site_label_1
_geom_bond_atom_site_label_2
_geom_bond_distance
_geom_bond_site_symmetry_2
Mg0 O0 2.105207 1_655
Mg0 O2 2.107161 1_554
Mg0 O4 2.132109 1_565
Mg0 O2 2.134183 1_564
Mg0 O5 2.169085 1_555
Mg0 O4 2.227778 1_555
Fe0 O0 1.887431 1_555
Fe0 O3 1.905750 1_545
Fe0 O4 1.906088 1_555
Fe0 O1 1.906573 1_545
Fe0 O3 1.916296 1_555
Fe0 O1 1.941391 1_555
Co0 O5 1.904776 1_455
Co0 O3 1.951800 1_546
Co0 O0 2.018373 1_546
Co0 O0 2.063658 1_556
Co0 O5 2.091628 1_445
Co0 O2 2.112038 1_455
Co1 O1 1.880777 1_555
Co1 O5 1.912176 1_555
Co1 O4 1.939691 1_565
Co1 O2 1.958775 1_555
Co1 O2 2.095546 1_565
Co1 O4 2.215855 1_555
