# generated using pymatgen
data_Pr2MgNi2
_symmetry_space_group_name_H-M   'P 1'
_cell_length_a   3.89461476
_cell_length_b   7.53239892
_cell_length_c   7.53239892
_cell_angle_alpha   90.00000000
_cell_angle_beta   90.00000000
_cell_angle_gamma   90.00000000
_symmetry_Int_Tables_number   1
_chemical_formula_structural   Pr2MgNi2
_chemical_formula_sum   'Pr4 Mg2 Ni4'
_cell_volume   220.96888807
_cell_formula_units_Z   2
loop_
 _symmetry_equiv_pos_site_id
 _symmetry_equiv_pos_as_xyz
  1  'x, y, z'
loop_
 _atom_site_type_symbol
 _atom_site_label
 _atom_site_symmetry_multiplicity
 _atom_site_fract_x
 _atom_site_fract_y
 _atom_site_fract_z
 _atom_site_occupancy
  Pr  Pr0  1  0.50000000  0.17532029  0.67532029  1
  Pr  Pr1  1  0.50000000  0.32467971  0.17532029  1
  Pr  Pr2  1  0.50000000  0.67532029  0.82467971  1
  Pr  Pr3  1  0.50000000  0.82467971  0.32467971  1
  Mg  Mg0  1  0.00000000  -0.00000000  0.00000000  1
  Mg  Mg1  1  0.00000000  0.50000000  0.50000000  1
  Ni  Ni0  1  -0.00000000  0.38337125  0.88337125  1
  Ni  Ni1  1  -0.00000000  0.11662875  0.38337125  1
  Ni  Ni2  1  0.00000000  0.88337125  0.61662875  1
  Ni  Ni3  1  0.00000000  0.61662875  0.11662875  1
loop_
_geom_bond_atom_site_label_1
_geom_bond_atom_site_label_2
_geom_bond_distance
_geom_bond_site_symmetry_2
Mg0 Ni3 3.018376 1_545
Mg0 Ni2 3.018376 1_544
Mg0 Ni1 3.018376 1_555
Mg0 Ni0 3.018376 1_554
Mg0 Pr2 3.393669 1_444
Mg0 Pr2 3.393669 1_544
Mg0 Pr0 3.393669 1_554
Mg0 Pr0 3.393669 1_454
Mg0 Pr1 3.393669 1_455
Mg0 Pr3 3.393669 1_545
Mg0 Pr3 3.393669 1_445
Mg0 Pr1 3.393669 1_555
Mg1 Ni3 3.018376 1_555
Mg1 Ni0 3.018376 1_555
Mg1 Ni1 3.018376 1_555
Mg1 Ni2 3.018376 1_555
Mg1 Pr1 3.393669 1_455
Mg1 Pr0 3.393669 1_455
Mg1 Pr1 3.393669 1_555
Mg1 Pr0 3.393669 1_555
Mg1 Pr3 3.393669 1_455
Mg1 Pr3 3.393669 1_555
Mg1 Pr2 3.393669 1_455
Mg1 Pr2 3.393669 1_555
Ni0 Ni3 2.484757 1_556
Ni0 Pr0 2.950213 1_455
Ni0 Pr0 2.950213 1_555
Ni0 Pr1 2.970418 1_456
Ni0 Pr1 2.970418 1_556
Ni0 Pr2 2.970418 1_455
Ni0 Pr2 2.970418 1_555
Ni1 Ni2 2.484757 1_545
Ni1 Pr1 2.950213 1_555
Ni1 Pr1 2.950213 1_455
Ni1 Pr3 2.970418 1_545
Ni1 Pr3 2.970418 1_445
Ni1 Pr0 2.970418 1_555
Ni1 Pr0 2.970418 1_455
Ni2 Pr2 2.950213 1_555
Ni2 Pr2 2.950213 1_455
Ni2 Pr0 2.970418 1_565
Ni2 Pr0 2.970418 1_465
Ni2 Pr3 2.970418 1_455
Ni2 Pr3 2.970418 1_555
Ni3 Pr3 2.950213 1_455
Ni3 Pr3 2.950213 1_555
Ni3 Pr2 2.970418 1_454
Ni3 Pr2 2.970418 1_554
Ni3 Pr1 2.970418 1_555
Ni3 Pr1 2.970418 1_455
