# generated using pymatgen
data_MgMn3FeO8
_symmetry_space_group_name_H-M   'P 1'
_cell_length_a   5.86758003
_cell_length_b   5.83522370
_cell_length_c   5.86762299
_cell_angle_alpha   62.22808601
_cell_angle_beta   59.90722004
_cell_angle_gamma   62.22830682
_symmetry_Int_Tables_number   1
_chemical_formula_structural   MgMn3FeO8
_chemical_formula_sum   'Mg1 Mn3 Fe1 O8'
_cell_volume   146.54569864
_cell_formula_units_Z   1
loop_
 _symmetry_equiv_pos_site_id
 _symmetry_equiv_pos_as_xyz
  1  'x, y, z'
loop_
 _atom_site_type_symbol
 _atom_site_label
 _atom_site_symmetry_multiplicity
 _atom_site_fract_x
 _atom_site_fract_y
 _atom_site_fract_z
 _atom_site_occupancy
  Mg  Mg0  1  0.11398100  0.13402600  0.11397600  1
  Mn  Mn0  1  0.50153100  0.50845900  0.99134400  1
  Mn  Mn1  1  0.49897800  0.00141000  0.49898000  1
  Mn  Mn2  1  0.99135000  0.50845000  0.50152800  1
  Fe  Fe0  1  0.49955100  0.50905400  0.49955100  1
  O  O0  1  0.24346500  0.29094700  0.24347100  1
  O  O1  1  0.70287200  0.27424000  0.25411200  1
  O  O2  1  0.26232600  0.72086700  0.26232800  1
  O  O3  1  0.25411200  0.27424000  0.70287200  1
  O  O4  1  0.74549800  0.73155200  0.30210600  1
  O  O5  1  0.73052000  0.30389800  0.73051900  1
  O  O6  1  0.30210200  0.73155400  0.74550200  1
  O  O7  1  0.75788100  0.70921900  0.75787600  1
loop_
_geom_bond_atom_site_label_1
_geom_bond_atom_site_label_2
_geom_bond_distance
_geom_bond_site_symmetry_2
Mg0 O0 1.966878 1_555
Mg0 O3 1.990717 1_554
Mg0 O1 1.990731 1_455
Mg0 O2 2.043578 1_545
Mn0 O7 1.895180 1_555
Mn0 O6 1.915187 1_555
Mn0 O5 1.928229 1_555
Mn0 O0 1.971597 1_556
Mn0 O1 1.999748 1_556
Mn0 O2 2.002960 1_556
Mn1 O6 1.950190 1_545
Mn1 O4 1.950202 1_545
Mn1 O1 1.987395 1_555
Mn1 O3 1.987399 1_555
Mn1 O0 2.209730 1_555
Mn1 O7 2.238130 1_545
Mn2 O7 1.895220 1_555
Mn2 O4 1.915203 1_555
Mn2 O5 1.928201 1_555
Mn2 O0 1.971535 1_655
Mn2 O3 1.999728 1_655
Mn2 O2 2.002945 1_655
Fe0 O4 1.943746 1_555
Fe0 O6 1.943785 1_555
Fe0 O5 1.981012 1_555
Fe0 O3 1.991810 1_555
Fe0 O1 1.991825 1_555
Fe0 O2 2.034462 1_555
