# generated using pymatgen
data_TiAlP(SO6)2
_symmetry_space_group_name_H-M   'P 1'
_cell_length_a   8.44214729
_cell_length_b   8.44508988
_cell_length_c   21.88218203
_cell_angle_alpha   89.91235209
_cell_angle_beta   90.00000000
_cell_angle_gamma   119.98847447
_symmetry_Int_Tables_number   1
_chemical_formula_structural   TiAlP(SO6)2
_chemical_formula_sum   'Ti6 Al6 P6 S12 O72'
_cell_volume   1351.22667020
_cell_formula_units_Z   6
loop_
 _symmetry_equiv_pos_site_id
 _symmetry_equiv_pos_as_xyz
  1  'x, y, z'
loop_
 _atom_site_type_symbol
 _atom_site_label
 _atom_site_symmetry_multiplicity
 _atom_site_fract_x
 _atom_site_fract_y
 _atom_site_fract_z
 _atom_site_occupancy
  Ti  Ti0  1  0.00105014  0.99953144  0.64274778  1
  Ti  Ti1  1  0.99848130  0.99953144  0.14274778  1
  Ti  Ti2  1  0.66176487  0.33168929  0.97616011  1
  Ti  Ti3  1  0.66992542  0.33168929  0.47616011  1
  Ti  Ti4  1  0.34367798  0.65798009  0.30949988  1
  Ti  Ti5  1  0.31430111  0.65798009  0.80949988  1
  Al  Al0  1  0.00069235  0.99799208  0.35482333  1
  Al  Al1  1  0.99729973  0.99799208  0.85482333  1
  Al  Al2  1  0.67960831  0.34015913  0.68864833  1
  Al  Al3  1  0.66055181  0.34015913  0.18864833  1
  Al  Al4  1  0.32896540  0.65352930  0.02142071  1
  Al  Al5  1  0.32456290  0.65352930  0.52142071  1
  P  P0  1  0.72355373  0.71262012  0.25125664  1
  P  P1  1  0.98906639  0.71262012  0.75125664  1
  P  P2  1  0.95680847  0.34021089  0.58439842  1
  P  P3  1  0.38340342  0.34021089  0.08439842  1
  P  P4  1  0.04666652  0.37081679  0.91811621  1
  P  P5  1  0.32414927  0.37081679  0.41811621  1
  S  S0  1  0.29095280  0.00399390  0.25073399  1
  S  S1  1  0.99101399  0.28407299  0.25012298  1
  S  S2  1  0.29305900  0.28407299  0.75012298  1
  S  S3  1  0.71304110  0.00399390  0.75073399  1
  S  S4  1  0.38406233  0.04234375  0.58389233  1
  S  S5  1  0.65948951  0.61724545  0.58378025  1
  S  S6  1  0.95775695  0.61724545  0.08378025  1
  S  S7  1  0.65828243  0.04234375  0.08389233  1
  S  S8  1  0.62334842  0.67422621  0.91671798  1
  S  S9  1  0.32619178  0.94912877  0.91745255  1
  S  S10  1  0.62293599  0.94912877  0.41745255  1
  S  S11  1  0.05087679  0.67422621  0.41671798  1
  O  O0  1  0.20858607  0.03762468  0.30485778  1
  O  O1  1  0.83791229  0.80465797  0.30768949  1
  O  O2  1  0.96304068  0.17228506  0.30475834  1
  O  O3  1  0.20924439  0.17228506  0.80475834  1
  O  O4  1  0.96674568  0.80465797  0.80768949  1
  O  O5  1  0.82903861  0.03762468  0.80485778  1
  O  O6  1  0.79407910  0.96865204  0.69571406  1
  O  O7  1  0.17492089  0.20819693  0.69527336  1
  O  O8  1  0.03067421  0.83542585  0.69397001  1
  O  O9  1  0.80475164  0.83542585  0.19397001  1
  O  O10  1  0.03327604  0.20819693  0.19527336  1
  O  O11  1  0.17457294  0.96865204  0.19571406  1
  O  O12  1  0.86462544  0.36669777  0.64007197  1
  O  O13  1  0.49474687  0.12716108  0.63871353  1
  O  O14  1  0.62719691  0.50322016  0.63836688  1
  O  O15  1  0.87602425  0.50322016  0.13836688  1
  O  O16  1  0.63241521  0.12716108  0.13871353  1
  O  O17  1  0.50207333  0.36669777  0.14007197  1
  O  O18  1  0.46827815  0.30106878  0.02718510  1
  O  O19  1  0.84113816  0.53923455  0.02903634  1
  O  O20  1  0.69885501  0.15962874  0.02876702  1
  O  O21  1  0.46077473  0.15962874  0.52876702  1
  O  O22  1  0.69809740  0.53923455  0.52903634  1
  O  O23  1  0.83279163  0.30106878  0.52718510  1
  O  O24  1  0.54138509  0.70500528  0.97177738  1
  O  O25  1  0.16795182  0.46571646  0.97303680  1
  O  O26  1  0.29997379  0.83753848  0.97238579  1
  O  O27  1  0.53756368  0.83753848  0.47238579  1
  O  O28  1  0.29776364  0.46571646  0.47303680  1
  O  O29  1  0.16361919  0.70500528  0.47177738  1
  O  O30  1  0.12859453  0.63625314  0.36204167  1
  O  O31  1  0.50605751  0.87277933  0.36238608  1
  O  O32  1  0.36542782  0.49763995  0.36065997  1
  O  O33  1  0.13221113  0.49763995  0.86065997  1
  O  O34  1  0.36672082  0.87277933  0.86238608  1
  O  O35  1  0.50765762  0.63625314  0.86204167  1
  O  O36  1  0.02817108  0.83332184  0.40833713  1
  O  O37  1  0.80389102  0.97143024  0.40840892  1
  O  O38  1  0.16026864  0.18616130  0.40440557  1
  O  O39  1  0.02589266  0.18616130  0.90440557  1
  O  O40  1  0.16753922  0.97143024  0.90840892  1
  O  O41  1  0.80515076  0.83332184  0.90833713  1
  O  O42  1  0.97517264  0.16780465  0.59401079  1
  O  O43  1  0.20056675  0.02525233  0.59121994  1
  O  O44  1  0.82547415  0.80016923  0.59136773  1
  O  O45  1  0.97469508  0.80016923  0.09136773  1
  O  O46  1  0.82468558  0.02525233  0.09121994  1
  O  O47  1  0.19263201  0.16780465  0.09401079  1
  O  O48  1  0.69070099  0.16365912  0.74111587  1
  O  O49  1  0.47294443  0.30312613  0.73966477  1
  O  O50  1  0.82710616  0.52395128  0.74060858  1
  O  O51  1  0.69684612  0.52395128  0.24060858  1
  O  O52  1  0.83018270  0.30312613  0.23966477  1
  O  O53  1  0.47295913  0.16365912  0.24111587  1
  O  O54  1  0.64220544  0.50889631  0.92490072  1
  O  O55  1  0.85815929  0.35642282  0.92757653  1
  O  O56  1  0.49274556  0.13258456  0.92445071  1
  O  O57  1  0.63984000  0.13258456  0.42445071  1
  O  O58  1  0.49826453  0.35642282  0.42757653  1
  O  O59  1  0.86669187  0.50889631  0.42490072  1
  O  O60  1  0.36208123  0.50564161  0.07336627  1
  O  O61  1  0.14063192  0.64230454  0.07435273  1
  O  O62  1  0.49827314  0.86192982  0.07361271  1
  O  O63  1  0.36365568  0.86192982  0.57361271  1
  O  O64  1  0.50167162  0.64230454  0.57435273  1
  O  O65  1  0.14355937  0.50564161  0.57336627  1
  O  O66  1  0.30630869  0.83841952  0.25910272  1
  O  O67  1  0.53142407  0.69592610  0.25910857  1
  O  O68  1  0.15539554  0.46867213  0.25792668  1
  O  O69  1  0.31327559  0.46867213  0.75792668  1
  O  O70  1  0.16450104  0.69592610  0.75910857  1
  O  O71  1  0.53210983  0.83841952  0.75910272  1
loop_
_geom_bond_atom_site_label_1
_geom_bond_atom_site_label_2
_geom_bond_distance
_geom_bond_site_symmetry_2
Al0 O1 1.838543 1_455
Al0 O38 1.839158 1_565
Al0 O36 1.917416 1_555
Al0 O0 1.949200 1_565
Al0 O37 1.952489 1_455
Al0 O2 1.982559 1_465
Al1 O4 1.838543 1_555
Al1 O39 1.839158 1_665
Al1 O41 1.917416 1_555
Al1 O5 1.949200 1_565
Al1 O40 1.952489 1_655
Al1 O3 1.982559 1_665
Al2 O12 1.808065 1_555
Al2 O50 1.823674 1_555
Al2 O48 1.919109 1_555
Al2 O49 1.959964 1_555
Al2 O14 1.976646 1_555
Al2 O13 2.016161 1_555
Al3 O17 1.808065 1_555
Al3 O51 1.823674 1_555
Al3 O53 1.919109 1_555
Al3 O52 1.959964 1_555
Al3 O15 1.976646 1_555
Al3 O16 2.016161 1_555
Al4 O60 1.809617 1_555
Al4 O25 1.825993 1_554
Al4 O61 1.930667 1_555
Al4 O24 1.950420 1_554
Al4 O62 1.983994 1_555
Al4 O26 2.000288 1_554
Al5 O65 1.809617 1_555
Al5 O28 1.825993 1_555
Al5 O64 1.930667 1_555
Al5 O29 1.950420 1_555
Al5 O63 1.983994 1_555
Al5 O27 2.000288 1_555
O0 S0 1.471498 1_555
O1 P0 1.521156 1_555
O2 S1 1.466293 1_555
O3 S2 1.466293 1_555
O4 P1 1.521156 1_555
O5 S3 1.471498 1_555
O6 S3 1.487229 1_565
O6 Ti0 2.001973 1_655
O7 S2 1.486383 1_555
O7 Ti0 2.000359 1_545
O8 P1 1.549913 1_455
O8 Ti0 1.892423 1_555
O9 P0 1.549913 1_555
O9 Ti1 1.892423 1_555
O10 S1 1.486383 1_455
O10 Ti1 2.000359 1_445
O11 S0 1.487229 1_565
O11 Ti1 2.001973 1_455
O12 P2 1.521404 1_555
O13 S4 1.469289 1_555
O14 S5 1.470518 1_555
O15 S6 1.470518 1_555
O16 S7 1.469289 1_555
O17 P3 1.521404 1_555
O18 P3 1.558236 1_555
O18 Ti2 1.886407 1_554
O19 S6 1.480653 1_555
O19 Ti2 2.014177 1_554
O20 S7 1.486824 1_555
O20 Ti2 1.996074 1_554
O21 S4 1.486824 1_555
O21 Ti3 1.996074 1_555
O22 S5 1.480653 1_555
O22 Ti3 2.014176 1_555
O23 P2 1.558236 1_555
O23 Ti3 1.886407 1_555
O24 S8 1.476042 1_555
O25 P4 1.522368 1_555
O26 S9 1.473111 1_555
O27 S10 1.473111 1_555
O28 P5 1.522368 1_555
O29 S11 1.476042 1_555
O30 S11 1.475221 1_555
O30 Ti4 2.078185 1_555
O31 S10 1.485827 1_555
O31 Ti4 2.007396 1_555
O32 P5 1.572275 1_555
O32 Ti4 1.834241 1_555
O33 P4 1.572275 1_555
O33 Ti5 1.834241 1_555
O34 S9 1.485827 1_555
O34 Ti5 2.007396 1_555
O35 S8 1.475221 1_555
O35 Ti5 2.078185 1_555
O36 S11 1.460231 1_555
O37 S10 1.456234 1_555
O38 P5 1.510174 1_555
O39 P4 1.510178 1_555
O40 S9 1.456225 1_555
O41 S8 1.460236 1_555
O42 P2 1.553346 1_555
O42 Ti0 1.873571 1_645
O43 S4 1.490858 1_555
O43 Ti0 1.946555 1_545
O44 S5 1.488085 1_555
O44 Ti0 1.951110 1_655
O45 S6 1.488089 1_555
O45 Ti1 1.951110 1_555
O46 S7 1.490849 1_555
O46 Ti1 1.946555 1_545
O47 P3 1.553351 1_555
O47 Ti1 1.873571 1_445
O48 S3 1.466751 1_555
O49 S2 1.462903 1_555
O50 P1 1.511892 1_555
O51 P0 1.511895 1_555
O52 S1 1.462895 1_555
O53 S0 1.466756 1_555
O54 S8 1.492742 1_555
O54 Ti2 1.940849 1_555
O55 P4 1.548142 1_655
O55 Ti2 1.891005 1_555
O56 S9 1.491267 1_545
O56 Ti2 1.936759 1_555
O57 S10 1.491260 1_545
O57 Ti3 1.936759 1_555
O58 P5 1.548159 1_555
O58 Ti3 1.891005 1_555
O59 S11 1.492732 1_655
O59 Ti3 1.940849 1_555
O60 P3 1.514221 1_555
O61 S6 1.464274 1_455
O62 S7 1.462993 1_565
O63 S4 1.462986 1_565
O64 S5 1.464291 1_555
O65 P2 1.514211 1_455
O66 S0 1.478506 1_565
O66 Ti4 2.028094 1_555
O67 P0 1.565750 1_555
O67 Ti4 1.822613 1_555
O68 S1 1.491127 1_455
O68 Ti4 1.954805 1_555
O69 S2 1.491131 1_555
O69 Ti5 1.954805 1_555
O70 P1 1.565742 1_455
O70 Ti5 1.822613 1_555
O71 S3 1.478511 1_565
O71 Ti5 2.028094 1_555
