# generated using pymatgen
data_Na5Ca3HfP3(SO8)3
_symmetry_space_group_name_H-M   'P 1'
_cell_length_a   9.26494244
_cell_length_b   9.28224355
_cell_length_c   23.26916551
_cell_angle_alpha   90.13947427
_cell_angle_beta   89.85475623
_cell_angle_gamma   119.82366107
_symmetry_Int_Tables_number   1
_chemical_formula_structural   Na5Ca3HfP3(SO8)3
_chemical_formula_sum   'Na15 Ca9 Hf3 P9 S9 O72'
_cell_volume   1736.09823078
_cell_formula_units_Z   3
loop_
 _symmetry_equiv_pos_site_id
 _symmetry_equiv_pos_as_xyz
  1  'x, y, z'
loop_
 _atom_site_type_symbol
 _atom_site_label
 _atom_site_symmetry_multiplicity
 _atom_site_fract_x
 _atom_site_fract_y
 _atom_site_fract_z
 _atom_site_occupancy
  Na  Na0  1  0.99733729  0.63514005  0.25975395  1
  Na  Na1  1  0.30251094  0.34641648  0.58910586  1
  Na  Na2  1  0.02337333  0.68670747  0.57778051  1
  Na  Na3  1  0.67106058  0.95509099  0.57529907  1
  Na  Na4  1  0.66555846  0.69705018  0.07827138  1
  Na  Na5  1  0.03906426  0.34630304  0.08334324  1
  Na  Na6  1  0.99155571  0.68456853  0.90923017  1
  Na  Na7  1  0.32017452  0.29492681  0.90194894  1
  Na  Na8  1  0.69424508  0.68258629  0.41925617  1
  Na  Na9  1  0.99361744  0.00246801  0.49319795  1
  Na  Na10  1  0.00040835  0.98997941  0.99224970  1
  Na  Na11  1  0.65040038  0.31476578  0.81997863  1
  Na  Na12  1  0.65422883  0.28991719  0.33616386  1
  Na  Na13  1  0.33621509  0.68251791  0.17611737  1
  Na  Na14  1  0.33171021  0.64316207  0.66968619  1
  Ca  Ca0  1  0.00257029  0.00938395  0.35087149  1
  Ca  Ca1  1  0.99328035  0.00361093  0.84621010  1
  Ca  Ca2  1  0.00216886  0.00940211  0.65670654  1
  Ca  Ca3  1  0.00635012  0.99686822  0.14810553  1
  Ca  Ca4  1  0.66787999  0.34052180  0.68690532  1
  Ca  Ca5  1  0.65884311  0.32675226  0.18629112  1
  Ca  Ca6  1  0.33252314  0.67742513  0.01482749  1
  Ca  Ca7  1  0.32680299  0.66693541  0.51025457  1
  Ca  Ca8  1  0.33497028  0.67291880  0.32470159  1
  Hf  Hf0  1  0.66950075  0.33171756  0.97615714  1
  Hf  Hf1  1  0.68159431  0.33675483  0.48182698  1
  Hf  Hf2  1  0.33760287  0.66586647  0.82028966  1
  P  P0  1  0.30997915  0.31704963  0.75439795  1
  P  P1  1  0.96277201  0.33233922  0.58429116  1
  P  P2  1  0.66600589  0.62809779  0.58072049  1
  P  P3  1  0.95219098  0.62164649  0.08179291  1
  P  P4  1  0.63036652  0.66003244  0.92169504  1
  P  P5  1  0.03735230  0.37462405  0.92067266  1
  P  P6  1  0.33736879  0.96765949  0.91684933  1
  P  P7  1  0.64120565  0.97708887  0.42168487  1
  P  P8  1  0.01629483  0.66354685  0.41768449  1
  S  S0  1  0.29950062  0.99313835  0.25036752  1
  S  S1  1  0.69547642  0.69848851  0.24831092  1
  S  S2  1  0.00619129  0.31142216  0.24605508  1
  S  S3  1  0.01329227  0.69426922  0.75422421  1
  S  S4  1  0.67886686  0.98716077  0.75097846  1
  S  S5  1  0.37527975  0.04360533  0.58193133  1
  S  S6  1  0.67179875  0.04406220  0.07999113  1
  S  S7  1  0.37385171  0.33262715  0.07857840  1
  S  S8  1  0.34525437  0.36080727  0.42119237  1
  O  O0  1  0.21238011  0.00325995  0.30148694  1
  O  O1  1  0.79784046  0.78979635  0.29867279  1
  O  O2  1  0.00179499  0.21119792  0.29510714  1
  O  O3  1  0.21824164  0.21290858  0.80734966  1
  O  O4  1  0.99530832  0.77840064  0.80545898  1
  O  O5  1  0.78637764  0.00410369  0.79960204  1
  O  O6  1  0.74532982  0.96161005  0.69617857  1
  O  O7  1  0.21290292  0.24569145  0.69776084  1
  O  O8  1  0.03262169  0.78944308  0.70086992  1
  O  O9  1  0.77522836  0.79052383  0.19395520  1
  O  O10  1  0.01090024  0.23351348  0.19037563  1
  O  O11  1  0.20631208  0.98520374  0.19729992  1
  O  O12  1  0.87879391  0.34960431  0.63754960  1
  O  O13  1  0.47068568  0.11812441  0.63420078  1
  O  O14  1  0.64241263  0.52102194  0.63290981  1
  O  O15  1  0.86753246  0.52624857  0.13657219  1
  O  O16  1  0.65582540  0.11938280  0.13263606  1
  O  O17  1  0.46644719  0.33992752  0.13009355  1
  O  O18  1  0.46221021  0.31987254  0.02589132  1
  O  O19  1  0.83717944  0.51263304  0.02842732  1
  O  O20  1  0.67181951  0.14298917  0.02845346  1
  O  O21  1  0.46783232  0.14817366  0.53062665  1
  O  O22  1  0.67572415  0.53157239  0.52527205  1
  O  O23  1  0.85184769  0.32422432  0.53053530  1
  O  O24  1  0.56694535  0.68445782  0.97910121  1
  O  O25  1  0.12827343  0.44123518  0.97748096  1
  O  O26  1  0.30334300  0.86562883  0.97082587  1
  O  O27  1  0.56661333  0.87617161  0.47746811  1
  O  O28  1  0.32496666  0.43402053  0.47499810  1
  O  O29  1  0.11371854  0.67871834  0.47251900  1
  O  O30  1  0.09239194  0.63871891  0.36239311  1
  O  O31  1  0.53164743  0.89274208  0.36956284  1
  O  O32  1  0.37393402  0.47323969  0.37204667  1
  O  O33  1  0.13561638  0.50464280  0.87146118  1
  O  O34  1  0.36184090  0.87544237  0.86458600  1
  O  O35  1  0.50519421  0.63738559  0.87207254  1
  O  O36  1  0.98106134  0.80916937  0.41450649  1
  O  O37  1  0.81631273  0.99778934  0.41572322  1
  O  O38  1  0.20238880  0.19356379  0.41402181  1
  O  O39  1  0.01528324  0.20373758  0.90985860  1
  O  O40  1  0.18887939  0.99782392  0.90873487  1
  O  O41  1  0.81027218  0.79465727  0.91094753  1
  O  O42  1  0.97286146  0.17005356  0.58271773  1
  O  O43  1  0.20939178  0.03467060  0.58320661  1
  O  O44  1  0.83184632  0.79821545  0.58203079  1
  O  O45  1  0.95467703  0.78978820  0.07757775  1
  O  O46  1  0.83508377  0.04575172  0.07776682  1
  O  O47  1  0.20151837  0.18900533  0.07790606  1
  O  O48  1  0.65372852  0.13140993  0.74913664  1
  O  O49  1  0.48718464  0.34450696  0.75290695  1
  O  O50  1  0.87045018  0.52432188  0.75188829  1
  O  O51  1  0.69119502  0.53506218  0.24810632  1
  O  O52  1  0.85528262  0.33191044  0.24928830  1
  O  O53  1  0.47041694  0.13726273  0.24948972  1
  O  O54  1  0.62828662  0.48559763  0.92290107  1
  O  O55  1  0.86176880  0.36801775  0.92277139  1
  O  O56  1  0.49989370  0.14478996  0.92229946  1
  O  O57  1  0.65771363  0.15452773  0.42748818  1
  O  O58  1  0.50156098  0.34815523  0.42476902  1
  O  O59  1  0.83549163  0.50120649  0.42330290  1
  O  O60  1  0.36465761  0.48907119  0.07714062  1
  O  O61  1  0.12423079  0.63535292  0.07819540  1
  O  O62  1  0.53552938  0.86982757  0.07716942  1
  O  O63  1  0.35023186  0.87328641  0.57651422  1
  O  O64  1  0.51387353  0.65527444  0.57681573  1
  O  O65  1  0.13898098  0.48637562  0.57868582  1
  O  O66  1  0.30582494  0.83458574  0.25131895  1
  O  O67  1  0.52534397  0.67380669  0.25135716  1
  O  O68  1  0.15502562  0.48240884  0.24812834  1
  O  O69  1  0.32393016  0.49519641  0.76346325  1
  O  O70  1  0.17056114  0.68346181  0.76068473  1
  O  O71  1  0.51126467  0.83246871  0.76009578  1
loop_
_geom_bond_atom_site_label_1
_geom_bond_atom_site_label_2
_geom_bond_distance
_geom_bond_site_symmetry_2
Na0 O52 2.455070 1_555
Na0 O68 2.504745 1_655
Na0 O51 2.522575 1_555
Na0 O66 2.524006 1_655
Na0 O30 2.542042 1_655
Na1 O65 2.450156 1_555
Na1 O64 2.559812 1_555
Na1 O43 2.579174 1_555
Na1 O42 2.656691 1_455
Na1 O7 2.680400 1_555
Na1 O28 2.755721 1_555
Na1 O14 2.917958 1_555
Na2 O44 2.460769 1_455
Na2 O65 2.566507 1_555
Na2 O29 2.599213 1_555
Na2 O63 2.637065 1_555
Na2 O43 2.807244 1_565
Na2 O8 3.004492 1_555
Na3 O64 2.415778 1_555
Na3 O27 2.439921 1_555
Na3 O42 2.506185 1_565
Na3 O44 2.554205 1_555
Na3 O63 2.677226 1_555
Na3 O6 2.890737 1_555
Na4 O45 2.371251 1_555
Na4 O62 2.438475 1_555
Na4 O24 2.465079 1_554
Na4 O60 2.479206 1_555
Na4 O46 2.808373 1_565
Na4 O9 2.856042 1_555
Na5 O61 2.393935 1_555
Na5 O46 2.475206 1_455
Na5 O47 2.568511 1_555
Na5 O25 2.608335 1_554
Na5 O60 2.626658 1_555
Na5 O10 2.665465 1_555
Na6 O41 2.360811 1_555
Na6 O40 2.551426 1_655
Na6 O4 2.563225 1_555
Na6 O55 2.582064 1_555
Na6 O33 2.747228 1_655
Na6 O26 2.898914 1_655
Na6 O54 2.941852 1_555
Na7 O3 2.367321 1_555
Na7 O40 2.402995 1_545
Na7 O39 2.519858 1_555
Na7 O54 2.548836 1_555
Na7 O56 2.693363 1_555
Na7 O35 2.848013 1_555
Na8 O36 2.312513 1_555
Na8 O37 2.560370 1_555
Na8 O59 2.597853 1_555
Na8 O58 2.707119 1_555
Na8 O22 2.802745 1_555
Na8 O32 2.839006 1_555
Na8 O27 2.924979 1_555
Na8 O1 2.972267 1_555
Na9 O37 2.427770 1_545
Na9 O36 2.522536 1_545
Na9 O38 2.620529 1_655
Na9 O42 2.660003 1_555
Na9 O44 2.700113 1_545
Na9 O43 2.810039 1_655
Na10 O40 2.586104 1_555
Na10 O41 2.606290 1_455
Na10 O45 2.608706 1_456
Na10 O46 2.709648 1_466
Na10 O39 2.715991 1_565
Na10 O47 2.726609 1_566
Na11 O49 2.286482 1_555
Na11 O48 2.377649 1_555
Na11 O50 2.550404 1_555
Na11 O56 2.813479 1_555
Na11 O54 2.931594 1_555
Na11 O55 2.975851 1_555
Na12 O57 2.479897 1_555
Na12 O53 2.564943 1_555
Na12 O52 2.640240 1_555
Na12 O58 2.698915 1_555
Na12 O59 2.738608 1_555
Na12 O51 2.955952 1_555
Na13 O66 2.348310 1_555
Na13 O68 2.444457 1_555
Na13 O67 2.509849 1_555
Na13 O61 2.898875 1_555
Na13 O62 2.922088 1_555
Na13 O60 3.007563 1_555
Na14 O69 2.562911 1_555
Na14 O65 2.685073 1_555
Na14 O64 2.706480 1_555
Na14 O71 2.715344 1_555
Na14 O70 2.718155 1_555
Na14 O63 2.991434 1_555
Ca0 O37 2.251573 1_445
Ca0 O0 2.280497 1_555
Ca0 O2 2.284351 1_555
Ca0 O36 2.308596 1_445
Ca0 O38 2.315778 1_555
Ca0 O1 2.319864 1_445
Ca1 O5 2.206848 1_555
Ca1 O3 2.215283 1_655
Ca1 O39 2.301586 1_655
Ca1 O4 2.301925 1_545
Ca1 O40 2.348257 1_645
Ca1 O41 2.374067 1_545
Ca2 O7 2.296734 1_555
Ca2 O6 2.375668 1_445
Ca2 O42 2.383096 1_455
Ca2 O8 2.426710 1_545
Ca2 O43 2.490687 1_555
Ca2 O44 2.504542 1_445
Ca3 O11 2.228278 1_555
Ca3 O9 2.304546 1_455
Ca3 O45 2.385479 1_455
Ca3 O10 2.385761 1_565
Ca3 O47 2.431089 1_565
Ca3 O46 2.477001 1_465
Ca4 O14 2.201450 1_555
Ca4 O12 2.229314 1_555
Ca4 O49 2.282775 1_555
Ca4 O13 2.313239 1_555
Ca4 O50 2.352971 1_555
Ca4 O48 2.375136 1_555
Ca5 O15 2.223449 1_555
Ca5 O17 2.265354 1_555
Ca5 O16 2.280255 1_555
Ca5 O53 2.291141 1_555
Ca5 O51 2.304282 1_555
Ca5 O52 2.321647 1_555
Ca6 O26 2.157116 1_554
Ca6 O25 2.239457 1_554
Ca6 O24 2.294042 1_554
Ca6 O61 2.299927 1_555
Ca6 O62 2.343409 1_555
Ca6 O60 2.404176 1_555
Ca7 O29 2.214618 1_555
Ca7 O27 2.235415 1_555
Ca7 O28 2.302673 1_555
Ca7 O65 2.338947 1_555
Ca7 O64 2.369719 1_555
Ca7 O63 2.380507 1_555
Ca8 O31 2.207840 1_555
Ca8 O30 2.280973 1_555
Ca8 O32 2.335991 1_555
Ca8 O66 2.378742 1_555
Ca8 O67 2.448287 1_555
Ca8 O68 2.479648 1_555
Hf0 O19 2.029179 1_556
Hf0 O55 2.055168 1_555
Hf0 O54 2.067654 1_555
Hf0 O56 2.082753 1_555
Hf0 O20 2.144322 1_556
Hf0 O18 2.195254 1_556
Hf1 O23 1.994612 1_555
Hf1 O59 2.013222 1_555
Hf1 O57 2.031639 1_555
Hf1 O22 2.093727 1_555
Hf1 O58 2.177995 1_555
Hf1 O21 2.196788 1_555
Hf2 O69 2.016250 1_555
Hf2 O35 2.086161 1_555
Hf2 O33 2.090750 1_555
Hf2 O34 2.110466 1_555
Hf2 O71 2.113370 1_555
Hf2 O70 2.146833 1_555
O0 S0 1.464680 1_545
O1 S1 1.480664 1_555
O2 S2 1.461905 1_555
O3 P0 1.535669 1_555
O4 S3 1.477435 1_655
O5 S4 1.464949 1_545
O6 S4 1.483657 1_555
O7 P0 1.547164 1_555
O8 S3 1.483479 1_555
O9 S1 1.499397 1_555
O10 S2 1.493327 1_555
O11 S0 1.489094 1_555
O12 P1 1.511632 1_555
O13 S5 1.460236 1_555
O14 P2 1.516190 1_555
O15 P3 1.527644 1_555
O16 S6 1.452296 1_555
O17 S7 1.457560 1_555
O18 S7 1.509247 1_555
O19 P3 1.621564 1_555
O20 S6 1.512140 1_555
O21 S5 1.508376 1_555
O22 P2 1.596751 1_555
O23 P1 1.598610 1_555
O24 P4 1.519233 1_555
O25 P5 1.524097 1_555
O26 P6 1.510183 1_555
O27 P7 1.548361 1_555
O28 S8 1.478656 1_555
O29 P8 1.530082 1_555
O30 P8 1.536573 1_555
O31 P7 1.524934 1_555
O32 S8 1.481882 1_555
O33 P5 1.582786 1_555
O34 P6 1.565135 1_555
O35 P4 1.576553 1_555
O36 P8 1.542281 1_655
O37 P7 1.541794 1_555
O38 S8 1.464856 1_555
O39 P5 1.515555 1_555
O40 P6 1.546429 1_555
O41 P4 1.526435 1_555
O42 P1 1.555320 1_555
O43 S5 1.497647 1_555
O44 P2 1.562671 1_555
O45 P3 1.552744 1_555
O46 S6 1.505848 1_555
O47 S7 1.486482 1_555
O48 S4 1.469490 1_545
O49 P0 1.531408 1_555
O50 S3 1.471830 1_655
O51 S1 1.497627 1_555
O52 S2 1.503515 1_655
O53 S0 1.480039 1_545
O54 P4 1.609962 1_555
O55 P5 1.597785 1_655
O56 P6 1.588760 1_545
O57 P7 1.582023 1_545
O58 S8 1.512529 1_555
O59 P8 1.607154 1_655
O60 S7 1.496800 1_555
O61 P3 1.536718 1_455
O62 S6 1.477442 1_565
O63 S5 1.484376 1_565
O64 P2 1.553383 1_555
O65 P1 1.550695 1_455
O66 S0 1.501944 1_555
O67 S1 1.477310 1_555
O68 S2 1.498629 1_555
O69 P0 1.606688 1_555
O70 S3 1.517346 1_555
O71 S4 1.516600 1_555
