# generated using pymatgen
data_YbF3
_symmetry_space_group_name_H-M   'P 1'
_cell_length_a   4.43272707
_cell_length_b   6.07057747
_cell_length_c   6.69435853
_cell_angle_alpha   90.00000000
_cell_angle_beta   90.00000000
_cell_angle_gamma   90.00000000
_symmetry_Int_Tables_number   1
_chemical_formula_structural   YbF3
_chemical_formula_sum   'Yb4 F12'
_cell_volume   180.13992036
_cell_formula_units_Z   4
loop_
 _symmetry_equiv_pos_site_id
 _symmetry_equiv_pos_as_xyz
  1  'x, y, z'
loop_
 _atom_site_type_symbol
 _atom_site_label
 _atom_site_symmetry_multiplicity
 _atom_site_fract_x
 _atom_site_fract_y
 _atom_site_fract_z
 _atom_site_occupancy
  Yb  Yb0  1  0.94869680  0.63169399  0.75000000  1
  Yb  Yb1  1  0.44869680  0.86830601  0.25000000  1
  Yb  Yb2  1  0.55130320  0.13169399  0.75000000  1
  Yb  Yb3  1  0.05130320  0.36830601  0.25000000  1
  F  F0  1  0.10850312  0.97111995  0.75000000  1
  F  F1  1  0.60850312  0.52888005  0.25000000  1
  F  F2  1  0.39149688  0.47111995  0.75000000  1
  F  F3  1  0.89149688  0.02888005  0.25000000  1
  F  F4  1  0.36306443  0.16519526  0.06241180  1
  F  F5  1  0.86306443  0.33480474  0.93758820  1
  F  F6  1  0.13693557  0.66519526  0.43758820  1
  F  F7  1  0.63693557  0.83480474  0.56241180  1
  F  F8  1  0.63693557  0.83480474  0.93758820  1
  F  F9  1  0.13693557  0.66519526  0.06241180  1
  F  F10  1  0.86306443  0.33480474  0.56241180  1
  F  F11  1  0.36306443  0.16519526  0.43758820  1
loop_
_geom_bond_atom_site_label_1
_geom_bond_atom_site_label_2
_geom_bond_distance
_geom_bond_site_symmetry_2
F0 Yb0 2.178878 1_455
F0 Yb2 2.191534 1_565
F0 Yb2 2.655310 1_465
F1 Yb1 2.178878 1_555
F1 Yb3 2.191534 1_655
F1 Yb3 2.655310 1_555
F2 Yb2 2.178878 1_555
F2 Yb0 2.191534 1_455
F2 Yb0 2.655310 1_555
F3 Yb3 2.178878 1_655
F3 Yb1 2.191534 1_545
F3 Yb1 2.655310 1_645
F4 Yb1 2.229197 1_545
F4 Yb3 2.237648 1_555
F4 Yb2 2.260872 1_554
F5 Yb0 2.229197 1_555
F5 Yb2 2.237648 1_555
F5 Yb3 2.260872 1_656
F6 Yb3 2.229197 1_555
F6 Yb1 2.237648 1_555
F6 Yb0 2.260872 1_455
F7 Yb2 2.229197 1_565
F7 Yb0 2.237648 1_555
F7 Yb1 2.260872 1_555
F8 Yb2 2.229197 1_565
F8 Yb0 2.237648 1_555
F8 Yb1 2.260872 1_556
F9 Yb3 2.229197 1_555
F9 Yb1 2.237648 1_555
F9 Yb0 2.260872 1_454
F10 Yb0 2.229197 1_555
F10 Yb2 2.237648 1_555
F10 Yb3 2.260872 1_655
F11 Yb1 2.229197 1_545
F11 Yb3 2.237648 1_555
F11 Yb2 2.260872 1_555
