# generated using pymatgen
data_Na5Ca2Sc2P3(SO8)3
_symmetry_space_group_name_H-M   'P 1'
_cell_length_a   9.19624361
_cell_length_b   9.21360977
_cell_length_c   22.88439455
_cell_angle_alpha   90.53005683
_cell_angle_beta   90.09968037
_cell_angle_gamma   120.11371529
_symmetry_Int_Tables_number   1
_chemical_formula_structural   Na5Ca2Sc2P3(SO8)3
_chemical_formula_sum   'Na15 Ca6 Sc6 P9 S9 O72'
_cell_volume   1677.18569972
_cell_formula_units_Z   3
loop_
 _symmetry_equiv_pos_site_id
 _symmetry_equiv_pos_as_xyz
  1  'x, y, z'
loop_
 _atom_site_type_symbol
 _atom_site_label
 _atom_site_symmetry_multiplicity
 _atom_site_fract_x
 _atom_site_fract_y
 _atom_site_fract_z
 _atom_site_occupancy
  Na  Na0  1  0.64731038  0.01539697  0.25337177  1
  Na  Na1  1  0.00132199  0.63089272  0.24242531  1
  Na  Na2  1  0.63464460  0.63677317  0.74371632  1
  Na  Na3  1  0.99374522  0.35116784  0.74664991  1
  Na  Na4  1  0.31040674  0.34571944  0.58651285  1
  Na  Na5  1  0.66755305  0.96447867  0.57672938  1
  Na  Na6  1  0.30024753  0.96016880  0.07853504  1
  Na  Na7  1  0.69209210  0.02496471  0.91109666  1
  Na  Na8  1  0.96490818  0.29368596  0.41207754  1
  Na  Na9  1  0.97885412  0.96801700  0.49822572  1
  Na  Na10  1  0.00909477  0.98744973  0.99882118  1
  Na  Na11  1  0.62669933  0.30800677  0.83180605  1
  Na  Na12  1  0.63275309  0.31317140  0.33387914  1
  Na  Na13  1  0.31131272  0.63393650  0.16485298  1
  Na  Na14  1  0.32337788  0.66675613  0.66527971  1
  Ca  Ca0  1  0.00461651  0.00175204  0.35041614  1
  Ca  Ca1  1  0.01876420  0.00606736  0.85181921  1
  Ca  Ca2  1  0.66292166  0.32946674  0.68300708  1
  Ca  Ca3  1  0.66799212  0.33653600  0.18209681  1
  Ca  Ca4  1  0.32412209  0.66019176  0.01725179  1
  Ca  Ca5  1  0.33461687  0.66958463  0.51531853  1
  Sc  Sc0  1  0.99371629  0.00216440  0.65063452  1
  Sc  Sc1  1  0.00841297  0.00464412  0.15119159  1
  Sc  Sc2  1  0.67580593  0.34867718  0.98379897  1
  Sc  Sc3  1  0.67333342  0.33727203  0.48477318  1
  Sc  Sc4  1  0.33870854  0.67475278  0.31629576  1
  Sc  Sc5  1  0.34012364  0.68242154  0.81655932  1
  P  P0  1  0.29760656  0.99165608  0.24951390  1
  P  P1  1  0.00760742  0.30174781  0.25269291  1
  P  P2  1  0.29663926  0.30820505  0.74887265  1
  P  P3  1  0.70011454  0.99394813  0.75320969  1
  P  P4  1  0.96529321  0.32634359  0.58488933  1
  P  P5  1  0.67373277  0.63518536  0.58549861  1
  P  P6  1  0.96412886  0.64152014  0.08703923  1
  P  P7  1  0.34655170  0.97348528  0.92211307  1
  P  P8  1  0.63289057  0.97555969  0.41844493  1
  S  S0  1  0.70039808  0.70932809  0.24975118  1
  S  S1  1  0.00766511  0.70735382  0.74980850  1
  S  S2  1  0.36412181  0.04037337  0.58207186  1
  S  S3  1  0.67722739  0.03902940  0.08239326  1
  S  S4  1  0.36551960  0.32486686  0.08276455  1
  S  S5  1  0.62678054  0.65984992  0.91552924  1
  S  S6  1  0.02571985  0.37039987  0.91483553  1
  S  S7  1  0.34340315  0.37482107  0.41754354  1
  S  S8  1  0.02906504  0.65730486  0.41547707  1
  O  O0  1  0.21215518  0.00873055  0.30304301  1
  O  O1  1  0.79869353  0.78331465  0.30278987  1
  O  O2  1  0.97692089  0.20333549  0.30918224  1
  O  O3  1  0.21113861  0.20264051  0.80156065  1
  O  O4  1  0.98255032  0.78163060  0.80221783  1
  O  O5  1  0.79871349  0.00981919  0.80870213  1
  O  O6  1  0.79145553  0.96862260  0.69843210  1
  O  O7  1  0.18927695  0.21809861  0.69172284  1
  O  O8  1  0.02688147  0.81049213  0.69755170  1
  O  O9  1  0.78659611  0.81769888  0.19828726  1
  O  O10  1  0.02242849  0.20038530  0.19978323  1
  O  O11  1  0.18748581  0.96879902  0.19319138  1
  O  O12  1  0.88894852  0.34414274  0.64160008  1
  O  O13  1  0.46312479  0.11357139  0.63548892  1
  O  O14  1  0.64597113  0.53863338  0.64224799  1
  O  O15  1  0.89114465  0.55361630  0.14475353  1
  O  O16  1  0.65292280  0.11524850  0.13591637  1
  O  O17  1  0.45864141  0.34360262  0.13667460  1
  O  O18  1  0.45615083  0.30574108  0.03139378  1
  O  O19  1  0.84608527  0.53563646  0.03449942  1
  O  O20  1  0.69202635  0.14376500  0.03025475  1
  O  O21  1  0.45305307  0.14942780  0.53103888  1
  O  O22  1  0.68588109  0.53228418  0.53276389  1
  O  O23  1  0.84921653  0.30553435  0.53071609  1
  O  O24  1  0.54181479  0.67876270  0.96664442  1
  O  O25  1  0.12777624  0.45051048  0.96633073  1
  O  O26  1  0.33447663  0.88235593  0.97870479  1
  O  O27  1  0.55365759  0.88211282  0.47480699  1
  O  O28  1  0.32305591  0.44710650  0.47264472  1
  O  O29  1  0.12774382  0.67487396  0.46776020  1
  O  O30  1  0.11483018  0.63835858  0.36216173  1
  O  O31  1  0.52195095  0.87679507  0.36309847  1
  O  O32  1  0.35614566  0.48306221  0.36721592  1
  O  O33  1  0.10915138  0.46673659  0.86086345  1
  O  O34  1  0.36573910  0.86996271  0.86911136  1
  O  O35  1  0.52564255  0.63965813  0.86093461  1
  O  O36  1  0.00123883  0.80031905  0.41134074  1
  O  O37  1  0.81320088  0.00415162  0.41446934  1
  O  O38  1  0.19081213  0.20697284  0.41180376  1
  O  O39  1  0.99066899  0.19423727  0.91188241  1
  O  O40  1  0.19460114  0.99657271  0.91614115  1
  O  O41  1  0.79425877  0.81347721  0.91167036  1
  O  O42  1  0.97093585  0.15641730  0.58633710  1
  O  O43  1  0.19806431  0.03291601  0.58569248  1
  O  O44  1  0.83577323  0.81332770  0.58755846  1
  O  O45  1  0.98100604  0.82055108  0.08670248  1
  O  O46  1  0.83230990  0.02736381  0.08636167  1
  O  O47  1  0.19831227  0.16287526  0.08486333  1
  O  O48  1  0.68612145  0.15229105  0.74721831  1
  O  O49  1  0.48004648  0.34711889  0.74603437  1
  O  O50  1  0.85969882  0.53455401  0.74416886  1
  O  O51  1  0.67666007  0.53899261  0.24327745  1
  O  O52  1  0.85355148  0.32711569  0.24515438  1
  O  O53  1  0.48016739  0.13744442  0.24519767  1
  O  O54  1  0.64375232  0.50719795  0.92006823  1
  O  O55  1  0.85624962  0.35945925  0.91928538  1
  O  O56  1  0.51698209  0.14734943  0.92219955  1
  O  O57  1  0.64894654  0.15477468  0.41981403  1
  O  O58  1  0.49777138  0.36101204  0.41943876  1
  O  O59  1  0.86273846  0.49506574  0.41867114  1
  O  O60  1  0.33828879  0.46819136  0.07695651  1
  O  O61  1  0.14392298  0.66917102  0.08140373  1
  O  O62  1  0.52600087  0.86952132  0.07703694  1
  O  O63  1  0.34252453  0.87080057  0.57590090  1
  O  O64  1  0.52006068  0.66189939  0.57902884  1
  O  O65  1  0.14675466  0.47222798  0.57897963  1
  O  O66  1  0.30623163  0.82294189  0.25345052  1
  O  O67  1  0.53275208  0.70125357  0.25339934  1
  O  O68  1  0.16919085  0.48042055  0.25595590  1
  O  O69  1  0.29960954  0.48216500  0.75309994  1
  O  O70  1  0.16166329  0.68946232  0.75413768  1
  O  O71  1  0.52322966  0.82765867  0.75495023  1
loop_
_geom_bond_atom_site_label_1
_geom_bond_atom_site_label_2
_geom_bond_distance
_geom_bond_site_symmetry_2
Na0 O53 2.323662 1_555
Na0 O52 2.535069 1_555
Na0 O67 2.535290 1_545
Na0 O66 2.720634 1_545
Na0 O31 2.803076 1_545
Na0 O16 2.841201 1_555
Na0 O2 2.914872 1_555
Na0 O9 2.975234 1_545
Na1 O15 2.401724 1_455
Na1 O52 2.423079 1_455
Na1 O66 2.463295 1_555
Na1 O68 2.560284 1_555
Na1 O51 2.663705 1_455
Na1 O30 2.918387 1_555
Na1 O11 2.935389 1_555
Na2 O49 2.311278 1_555
Na2 O71 2.451495 1_555
Na2 O14 2.505363 1_555
Na2 O50 2.669568 1_555
Na2 O69 2.678092 1_555
Na2 O6 2.853329 1_555
Na2 O35 2.869834 1_555
Na3 O69 2.445211 1_655
Na3 O48 2.481917 1_555
Na3 O50 2.543482 1_555
Na3 O12 2.576561 1_555
Na3 O70 2.699738 1_655
Na3 O33 2.810077 1_655
Na3 O7 2.916864 1_655
Na4 O65 2.327310 1_555
Na4 O43 2.526873 1_555
Na4 O64 2.570516 1_555
Na4 O7 2.677261 1_555
Na4 O42 2.706326 1_455
Na4 O28 2.759242 1_555
Na4 O14 2.957961 1_555
Na4 O21 2.991198 1_555
Na5 O64 2.413135 1_555
Na5 O42 2.449394 1_565
Na5 O27 2.504869 1_555
Na5 O44 2.561432 1_555
Na5 O63 2.662789 1_555
Na5 O23 2.928099 1_565
Na5 O6 2.999976 1_555
Na6 O61 2.322811 1_555
Na6 O26 2.455794 1_554
Na6 O47 2.477932 1_565
Na6 O45 2.554518 1_455
Na6 O62 2.597775 1_555
Na6 O11 2.838053 1_555
Na7 O39 2.382077 1_555
Na7 O56 2.397394 1_555
Na7 O41 2.552904 1_545
Na7 O5 2.571164 1_555
Na7 O55 2.670587 1_555
Na7 O34 2.762926 1_545
Na7 O20 2.929048 1_556
Na8 O37 2.309595 1_555
Na8 O59 2.468368 1_555
Na8 O2 2.511314 1_555
Na8 O57 2.527174 1_555
Na8 O38 2.572867 1_655
Na9 O44 2.474554 1_555
Na9 O37 2.572142 1_565
Na9 O36 2.578147 1_655
Na9 O42 2.673354 1_565
Na9 O43 2.679961 1_665
Na9 O38 2.888909 1_665
Na10 O45 2.477171 1_456
Na10 O40 2.523417 1_555
Na10 O47 2.573794 1_566
Na10 O41 2.683222 1_455
Na10 O46 2.718311 1_466
Na10 O39 2.830179 1_465
Na11 O56 2.460387 1_555
Na11 O49 2.508585 1_555
Na11 O48 2.615928 1_555
Na11 O54 2.667212 1_555
Na11 O55 2.766272 1_555
Na11 O50 2.928271 1_555
Na12 O58 2.471920 1_555
Na12 O57 2.507906 1_555
Na12 O53 2.521618 1_555
Na12 O59 2.723220 1_555
Na12 O52 2.831868 1_555
Na12 O51 2.833835 1_555
Na13 O68 2.502883 1_555
Na13 O61 2.573830 1_555
Na13 O60 2.600888 1_555
Na13 O66 2.676219 1_555
Na13 O67 2.707890 1_555
Na13 O62 2.905566 1_555
Na14 O69 2.582831 1_555
Na14 O70 2.589448 1_555
Na14 O65 2.598673 1_555
Na14 O71 2.642559 1_555
Na14 O64 2.694706 1_555
Na14 O63 2.736635 1_555
Ca0 O0 2.169662 1_555
Ca0 O2 2.216110 1_455
Ca0 O1 2.225408 1_445
Ca0 O38 2.274732 1_555
Ca0 O37 2.301134 1_455
Ca0 O36 2.319366 1_545
Ca1 O3 2.136197 1_555
Ca1 O40 2.219280 1_545
Ca1 O4 2.222538 1_445
Ca1 O5 2.265785 1_455
Ca1 O39 2.316993 1_455
Ca1 O41 2.380318 1_445
Ca2 O13 2.191090 1_555
Ca2 O14 2.223181 1_555
Ca2 O12 2.227991 1_555
Ca2 O49 2.283352 1_555
Ca2 O48 2.293980 1_555
Ca2 O50 2.305505 1_555
Ca3 O15 2.204804 1_555
Ca3 O17 2.216153 1_555
Ca3 O16 2.229147 1_555
Ca3 O52 2.268087 1_555
Ca3 O51 2.290900 1_555
Ca3 O53 2.304760 1_555
Ca4 O25 2.191180 1_554
Ca4 O26 2.194372 1_554
Ca4 O24 2.246409 1_554
Ca4 O61 2.247676 1_555
Ca4 O60 2.299684 1_555
Ca4 O62 2.321146 1_555
Ca5 O27 2.198541 1_555
Ca5 O29 2.212015 1_555
Ca5 O28 2.216008 1_555
Ca5 O64 2.270125 1_555
Ca5 O63 2.276229 1_555
Ca5 O65 2.306311 1_555
O0 P0 1.505554 1_545
O1 S0 1.455189 1_555
O2 P1 1.529423 1_655
O3 P2 1.508526 1_555
O4 S1 1.450698 1_655
O5 P3 1.521757 1_545
O6 P3 1.589452 1_555
O6 Sc0 2.046515 1_565
O7 P2 1.589786 1_555
O7 Sc0 2.108527 1_455
O8 S1 1.489161 1_555
O8 Sc0 2.222372 1_465
O9 S0 1.497718 1_555
O9 Sc1 2.192220 1_665
O10 P1 1.569779 1_555
O10 Sc1 2.057871 1_555
O11 P0 1.583547 1_555
O11 Sc1 2.071452 1_565
O12 P4 1.522775 1_555
O13 S2 1.463834 1_555
O14 P5 1.528968 1_555
O15 P6 1.525861 1_555
O16 S3 1.478478 1_555
O17 S4 1.459188 1_555
O18 S4 1.501560 1_555
O18 Sc2 2.153367 1_554
O19 P6 1.576984 1_555
O19 Sc2 2.003889 1_554
O20 S3 1.504475 1_555
O20 Sc2 2.244127 1_554
O21 S2 1.497599 1_555
O21 Sc3 2.177925 1_555
O22 P5 1.566306 1_555
O22 Sc3 2.050077 1_555
O23 P4 1.580757 1_555
O23 Sc3 2.069169 1_555
O24 S5 1.464658 1_555
O25 S6 1.448897 1_555
O26 P7 1.523670 1_555
O27 P8 1.526480 1_555
O28 S7 1.476119 1_555
O29 S8 1.458247 1_555
O30 S8 1.509545 1_555
O30 Sc4 2.185003 1_555
O31 P8 1.586105 1_555
O31 Sc4 2.064286 1_555
O32 S7 1.496405 1_555
O32 Sc4 2.196481 1_555
O33 S6 1.497420 1_555
O33 Sc5 2.301734 1_555
O34 P7 1.600087 1_555
O34 Sc5 2.009891 1_555
O35 S5 1.509509 1_555
O35 Sc5 2.184736 1_555
O36 S8 1.466726 1_555
O37 P8 1.545922 1_545
O38 S7 1.481905 1_555
O39 S6 1.488562 1_655
O40 P7 1.521422 1_555
O41 S5 1.482801 1_555
O42 P4 1.592946 1_555
O42 Sc0 2.136631 1_555
O43 S2 1.496294 1_555
O43 Sc0 2.302976 1_455
O44 P5 1.568710 1_555
O44 Sc0 2.151939 1_565
O45 P6 1.577470 1_555
O45 Sc1 2.154502 1_665
O46 S3 1.485707 1_555
O46 Sc1 2.281483 1_655
O47 S4 1.514289 1_555
O47 Sc1 2.230379 1_555
O48 P3 1.534861 1_545
O49 P2 1.539996 1_555
O50 S1 1.491568 1_655
O51 S0 1.477985 1_555
O52 P1 1.556823 1_655
O53 P0 1.540395 1_545
O54 S5 1.495407 1_555
O54 Sc2 2.194781 1_555
O55 S6 1.514108 1_655
O55 Sc2 2.188364 1_555
O56 P7 1.582157 1_545
O56 Sc2 2.187955 1_555
O57 P8 1.582302 1_545
O57 Sc3 2.159082 1_555
O58 S7 1.488113 1_555
O58 Sc3 2.289528 1_555
O59 S8 1.512460 1_655
O59 Sc3 2.223667 1_555
O60 S4 1.469405 1_555
O61 P6 1.547268 1_455
O62 S3 1.484818 1_565
O63 S2 1.478127 1_565
O64 P5 1.558406 1_555
O65 P4 1.537253 1_455
O66 P0 1.599081 1_555
O66 Sc4 2.113237 1_555
O67 S0 1.508263 1_555
O67 Sc4 2.212218 1_555
O68 P1 1.570482 1_555
O68 Sc4 2.165360 1_555
O69 P2 1.591308 1_555
O69 Sc5 2.216048 1_555
O70 S1 1.508872 1_555
O70 Sc5 2.199676 1_555
O71 P3 1.579744 1_555
O71 Sc5 2.096674 1_555
