# generated using pymatgen
data_Na8Si7O18
_symmetry_space_group_name_H-M   'P 1'
_cell_length_a   7.25900786
_cell_length_b   7.25900786
_cell_length_c   7.25900793
_cell_angle_alpha   87.18636377
_cell_angle_beta   87.18636377
_cell_angle_gamma   87.18636146
_symmetry_Int_Tables_number   1
_chemical_formula_structural   Na8Si7O18
_chemical_formula_sum   'Na8 Si7 O18'
_cell_volume   381.16071909
_cell_formula_units_Z   1
loop_
 _symmetry_equiv_pos_site_id
 _symmetry_equiv_pos_as_xyz
  1  'x, y, z'
loop_
 _atom_site_type_symbol
 _atom_site_label
 _atom_site_symmetry_multiplicity
 _atom_site_fract_x
 _atom_site_fract_y
 _atom_site_fract_z
 _atom_site_occupancy
  Na  Na0  1  0.23619500  0.23619500  0.23619500  1
  Na  Na1  1  0.76380500  0.76380500  0.76380500  1
  Na  Na2  1  0.50000000  0.50000000  0.00000000  1
  Na  Na3  1  0.50000000  0.00000000  0.50000000  1
  Na  Na4  1  0.00000000  0.50000000  0.50000000  1
  Na  Na5  1  0.00000000  0.00000000  0.50000000  1
  Na  Na6  1  0.00000000  0.50000000  0.00000000  1
  Na  Na7  1  0.50000000  0.00000000  0.00000000  1
  Si  Si0  1  0.00000000  0.00000000  0.00000000  1
  Si  Si1  1  0.27207400  0.73911000  0.27207400  1
  Si  Si2  1  0.73911000  0.27207400  0.27207400  1
  Si  Si3  1  0.27207400  0.27207400  0.73911000  1
  Si  Si4  1  0.72792600  0.26089000  0.72792600  1
  Si  Si5  1  0.26089000  0.72792600  0.72792600  1
  Si  Si6  1  0.72792600  0.72792600  0.26089000  1
  O  O0  1  0.76558200  0.50000000  0.23441800  1
  O  O1  1  0.23441800  0.76558200  0.50000000  1
  O  O2  1  0.50000000  0.23441800  0.76558200  1
  O  O3  1  0.23441800  0.50000000  0.76558200  1
  O  O4  1  0.76558200  0.23441800  0.50000000  1
  O  O5  1  0.50000000  0.76558200  0.23441800  1
  O  O6  1  0.83092500  0.83092500  0.08126500  1
  O  O7  1  0.08126500  0.83092500  0.83092500  1
  O  O8  1  0.83092500  0.08126500  0.83092500  1
  O  O9  1  0.16907500  0.16907500  0.91873500  1
  O  O10  1  0.91873500  0.16907500  0.16907500  1
  O  O11  1  0.16907500  0.91873500  0.16907500  1
  O  O12  1  0.78741200  0.78741200  0.45580700  1
  O  O13  1  0.45580700  0.78741200  0.78741200  1
  O  O14  1  0.78741200  0.45580700  0.78741200  1
  O  O15  1  0.21258900  0.54419300  0.21258900  1
  O  O16  1  0.54419300  0.21258900  0.21258900  1
  O  O17  1  0.21258900  0.21258900  0.54419300  1
loop_
_geom_bond_atom_site_label_1
_geom_bond_atom_site_label_2
_geom_bond_distance
_geom_bond_site_symmetry_2
Na0 O16 2.232713 1_555
Na0 O15 2.232713 1_555
Na0 O17 2.232713 1_555
Na0 O10 2.455403 1_455
Na0 O11 2.455403 1_545
Na0 O9 2.455403 1_554
Na1 O13 2.232713 1_555
Na1 O14 2.232713 1_555
Na1 O12 2.232713 1_555
Na1 O8 2.455403 1_565
Na1 O7 2.455403 1_655
Na1 O6 2.455403 1_556
Na2 O15 2.550269 1_555
Na2 O16 2.550269 1_555
Na2 O13 2.550270 1_554
Na2 O14 2.550270 1_554
Na2 O5 2.633307 1_555
Na2 O0 2.633307 1_555
Na2 O3 2.633307 1_554
Na2 O2 2.633307 1_554
Na3 O17 2.550269 1_555
Na3 O16 2.550269 1_555
Na3 O12 2.550270 1_545
Na3 O13 2.550270 1_545
Na3 O2 2.633307 1_555
Na3 O5 2.633307 1_545
Na3 O4 2.633307 1_555
Na3 O1 2.633307 1_545
Na4 O17 2.550269 1_555
Na4 O15 2.550269 1_555
Na4 O12 2.550270 1_455
Na4 O14 2.550270 1_455
Na4 O0 2.633307 1_455
Na4 O3 2.633307 1_555
Na4 O4 2.633307 1_455
Na4 O1 2.633307 1_555
Na5 O12 2.279628 1_445
Na5 O17 2.279638 1_555
Na5 O1 2.346678 1_545
Na5 O4 2.346678 1_455
Na5 O7 2.720918 1_545
Na5 O8 2.720918 1_455
Na5 O10 2.720918 1_455
Na5 O11 2.720918 1_545
Na6 O14 2.279628 1_454
Na6 O15 2.279638 1_555
Na6 O0 2.346678 1_455
Na6 O3 2.346678 1_554
Na6 O6 2.720918 1_455
Na6 O9 2.720918 1_554
Na6 O7 2.720918 1_554
Na6 O10 2.720918 1_455
Na7 O13 2.279628 1_544
Na7 O16 2.279638 1_555
Na7 O5 2.346678 1_545
Na7 O2 2.346678 1_554
Na7 O6 2.720918 1_545
Na7 O9 2.720918 1_554
Na7 O8 2.720918 1_554
Na7 O11 2.720918 1_545
O0 Si6 1.682476 1_555
O0 Si2 1.682476 1_555
O1 Si5 1.682476 1_555
O1 Si1 1.682476 1_555
O2 Si3 1.682476 1_555
O2 Si4 1.682476 1_555
O3 Si3 1.682476 1_555
O3 Si5 1.682476 1_555
O4 Si4 1.682476 1_555
O4 Si2 1.682476 1_555
O5 Si6 1.682476 1_555
O5 Si1 1.682476 1_555
O6 Si6 1.637571 1_555
O6 Si0 1.834754 1_665
O7 Si5 1.637571 1_555
O7 Si0 1.834754 1_566
O8 Si4 1.637571 1_555
O8 Si0 1.834754 1_656
O9 Si3 1.637571 1_555
O9 Si0 1.834754 1_556
O10 Si2 1.637571 1_555
O10 Si0 1.834754 1_655
O11 Si1 1.637571 1_555
O11 Si0 1.834754 1_565
O12 Si6 1.585289 1_555
O13 Si5 1.585289 1_555
O14 Si4 1.585289 1_555
O15 Si1 1.585284 1_555
O16 Si2 1.585284 1_555
O17 Si3 1.585284 1_555
