# generated using pymatgen
data_Na2MgNb2O6
_symmetry_space_group_name_H-M   'P 1'
_cell_length_a   5.38445588
_cell_length_b   5.37154061
_cell_length_c   6.21736871
_cell_angle_alpha   61.96517192
_cell_angle_beta   63.05206250
_cell_angle_gamma   59.03201577
_symmetry_Int_Tables_number   1
_chemical_formula_structural   Na2MgNb2O6
_chemical_formula_sum   'Na2 Mg1 Nb2 O6'
_cell_volume   130.68497814
_cell_formula_units_Z   1
loop_
 _symmetry_equiv_pos_site_id
 _symmetry_equiv_pos_as_xyz
  1  'x, y, z'
loop_
 _atom_site_type_symbol
 _atom_site_label
 _atom_site_symmetry_multiplicity
 _atom_site_fract_x
 _atom_site_fract_y
 _atom_site_fract_z
 _atom_site_occupancy
  Na  Na0  1  0.48898985  0.49362435  0.52819511  1
  Na  Na1  1  0.64409079  0.63561204  0.07571766  1
  Mg  Mg0  1  0.31572355  0.31735625  0.05039886  1
  Nb  Nb0  1  0.14162206  0.12964619  0.61965885  1
  Nb  Nb1  1  0.81922976  0.81676313  0.52360789  1
  O  O0  1  0.94032647  0.18183740  0.34619251  1
  O  O1  1  0.19175096  0.52758825  0.32473160  1
  O  O2  1  0.54323614  0.94233407  0.32538533  1
  O  O3  1  0.06486279  0.73840719  0.78036480  1
  O  O4  1  0.72311116  0.41570892  0.79467100  1
  O  O5  1  0.40205646  0.07612220  0.79774340  1
loop_
_geom_bond_atom_site_label_1
_geom_bond_atom_site_label_2
_geom_bond_distance
_geom_bond_site_symmetry_2
Na0 O5 2.212113 1_555
Na0 O3 2.237115 1_555
Na0 O2 2.240188 1_555
Na0 O0 2.256473 1_555
Na0 O4 2.281984 1_555
Na0 O1 2.347898 1_555
Na1 O5 2.303919 1_564
Na1 O3 2.318078 1_654
Na1 O4 2.319215 1_554
Na1 O1 2.420338 1_555
Na1 O0 2.427007 1_555
Na1 O2 2.477547 1_555
Mg0 O2 2.145447 1_545
Mg0 O1 2.152413 1_555
Mg0 O4 2.204701 1_554
Mg0 O0 2.210050 1_455
Mg0 O5 2.234822 1_554
Mg0 O3 2.258447 1_554
Nb0 O5 1.992020 1_555
Nb0 O3 2.032592 1_545
Nb0 O4 2.099760 1_455
Nb0 O1 2.113072 1_555
Nb0 O2 2.222928 1_545
Nb0 O0 2.248040 1_455
Nb1 O2 2.007299 1_555
Nb1 O0 2.029310 1_565
Nb1 O1 2.077530 1_655
Nb1 O4 2.166341 1_555
Nb1 O3 2.276823 1_655
Nb1 O5 2.330894 1_565
