# generated using pymatgen
data_Mn(PO3)3
_symmetry_space_group_name_H-M   'P 1'
_cell_length_a   8.38917900
_cell_length_b   8.40704900
_cell_length_c   9.06652100
_cell_angle_alpha   90.00000000
_cell_angle_beta   90.00000000
_cell_angle_gamma   90.00000000
_symmetry_Int_Tables_number   1
_chemical_formula_structural   Mn(PO3)3
_chemical_formula_sum   'Mn4 P12 O36'
_cell_volume   639.44575929
_cell_formula_units_Z   4
loop_
 _symmetry_equiv_pos_site_id
 _symmetry_equiv_pos_as_xyz
  1  'x, y, z'
loop_
 _atom_site_type_symbol
 _atom_site_label
 _atom_site_symmetry_multiplicity
 _atom_site_fract_x
 _atom_site_fract_y
 _atom_site_fract_z
 _atom_site_occupancy
  Mn  Mn0  1  0.86096600  0.36022900  0.35407000  1
  Mn  Mn1  1  0.63903400  0.63977100  0.85407000  1
  Mn  Mn2  1  0.36096600  0.13977100  0.64593000  1
  Mn  Mn3  1  0.13903400  0.86022900  0.14593000  1
  P  P0  1  0.67422700  0.01012400  0.80395800  1
  P  P1  1  0.70450800  0.69442600  0.44299500  1
  P  P2  1  0.79549200  0.30557400  0.94299500  1
  P  P3  1  0.82577300  0.98987600  0.30395800  1
  P  P4  1  0.03398900  0.32341500  0.69479800  1
  P  P5  1  0.17422700  0.48987600  0.19604200  1
  P  P6  1  0.20450800  0.80557400  0.55700500  1
  P  P7  1  0.29549200  0.19442600  0.05700500  1
  P  P8  1  0.96601100  0.82341500  0.80520200  1
  P  P9  1  0.46601100  0.67658500  0.19479800  1
  P  P10  1  0.53398900  0.17658500  0.30520200  1
  P  P11  1  0.32577300  0.51012400  0.69604200  1
  O  O0  1  0.63731900  0.31481000  0.35710500  1
  O  O1  1  0.95640500  0.27413300  0.84903600  1
  O  O2  1  0.90484200  0.13445900  0.37135900  1
  O  O3  1  0.91235500  0.38223900  0.58910700  1
  O  O4  1  0.04359500  0.77413300  0.65096400  1
  O  O5  1  0.09515800  0.63445900  0.12864100  1
  O  O6  1  0.08764500  0.88223900  0.91089300  1
  O  O7  1  0.08944300  0.40699500  0.32090300  1
  O  O8  1  0.13731900  0.18519000  0.64289500  1
  O  O9  1  0.15109300  0.46406800  0.75346500  1
  O  O10  1  0.16044600  0.83574800  0.40146100  1
  O  O11  1  0.18721800  0.08285300  0.14274500  1
  O  O12  1  0.21151400  0.36807500  0.06532400  1
  O  O13  1  0.28848600  0.63192500  0.56532400  1
  O  O14  1  0.31278200  0.91714700  0.64274500  1
  O  O15  1  0.33955400  0.16425200  0.90146100  1
  O  O16  1  0.34890700  0.53593200  0.25346500  1
  O  O17  1  0.36268100  0.81481000  0.14289500  1
  O  O18  1  0.41055700  0.59300500  0.82090300  1
  O  O19  1  0.41235500  0.11776100  0.41089300  1
  O  O20  1  0.40484200  0.36554100  0.62864100  1
  O  O21  1  0.45640500  0.22586700  0.15096400  1
  O  O22  1  0.54359500  0.72586700  0.34903600  1
  O  O23  1  0.86268100  0.68519000  0.85710500  1
  O  O24  1  0.58764500  0.61776100  0.08910700  1
  O  O25  1  0.58944300  0.09300500  0.67909700  1
  O  O26  1  0.59515800  0.86554100  0.87135900  1
  O  O27  1  0.65109300  0.03593200  0.24653500  1
  O  O28  1  0.66044600  0.66425200  0.59853900  1
  O  O29  1  0.68721800  0.41714700  0.85725500  1
  O  O30  1  0.71151400  0.13192500  0.93467600  1
  O  O31  1  0.78848600  0.86807500  0.43467600  1
  O  O32  1  0.81278200  0.58285300  0.35725500  1
  O  O33  1  0.83955400  0.33574800  0.09853900  1
  O  O34  1  0.84890700  0.96406800  0.74653500  1
  O  O35  1  0.91055700  0.90699500  0.17909700  1
loop_
_geom_bond_atom_site_label_1
_geom_bond_atom_site_label_2
_geom_bond_distance
_geom_bond_site_symmetry_2
Mn0 O0 1.914873 1_555
Mn0 O32 1.914983 1_555
Mn0 O2 1.939764 1_555
Mn0 O7 1.979615 1_655
Mn0 O3 2.181999 1_555
Mn0 O33 2.332827 1_555
Mn1 O23 1.914873 1_555
Mn1 O29 1.914983 1_555
Mn1 O26 1.939764 1_555
Mn1 O18 1.979615 1_555
Mn1 O24 2.181999 1_556
Mn1 O28 2.332827 1_555
Mn2 O8 1.914873 1_555
Mn2 O14 1.914983 1_545
Mn2 O20 1.939764 1_555
Mn2 O25 1.979615 1_555
Mn2 O19 2.181999 1_555
Mn2 O15 2.332827 1_555
Mn3 O17 1.914873 1_555
Mn3 O11 1.914983 1_565
Mn3 O5 1.939764 1_555
Mn3 O35 1.979615 1_455
Mn3 O6 2.181999 1_554
Mn3 O10 2.332827 1_555
O0 P10 1.524229 1_555
O1 P4 1.597126 1_655
O1 P2 1.617985 1_555
O2 P3 1.513576 1_545
O3 P4 1.484602 1_655
O4 P8 1.597126 1_455
O4 P6 1.617985 1_555
O5 P5 1.513576 1_555
O6 P8 1.484602 1_455
O7 P5 1.507634 1_555
O8 P4 1.524229 1_555
O9 P11 1.602633 1_555
O9 P4 1.626744 1_555
O10 P6 1.479788 1_555
O11 P7 1.519605 1_555
O12 P5 1.597184 1_555
O12 P7 1.622731 1_555
O13 P11 1.597184 1_555
O13 P6 1.622731 1_555
O14 P6 1.519605 1_555
O15 P7 1.479788 1_556
O16 P5 1.602633 1_555
O16 P9 1.626744 1_555
O17 P9 1.524229 1_555
O18 P11 1.507634 1_555
O19 P10 1.484602 1_555
O20 P11 1.513576 1_555
O21 P10 1.597126 1_555
O21 P7 1.617985 1_555
O22 P9 1.597126 1_555
O22 P1 1.617985 1_555
O23 P8 1.524229 1_555
O24 P9 1.484602 1_555
O25 P0 1.507634 1_555
O26 P0 1.513576 1_565
O27 P3 1.602633 1_545
O27 P10 1.626744 1_555
O28 P1 1.479788 1_555
O29 P2 1.519605 1_555
O30 P0 1.597184 1_555
O30 P2 1.622731 1_555
O31 P3 1.597184 1_555
O31 P1 1.622731 1_555
O32 P1 1.519605 1_555
O33 P2 1.479788 1_554
O34 P0 1.602633 1_565
O34 P8 1.626744 1_555
O35 P3 1.507634 1_555
