# generated using pymatgen
data_Na4MgMn4O8
_symmetry_space_group_name_H-M   'P 1'
_cell_length_a   3.00371913
_cell_length_b   5.84027732
_cell_length_c   12.96060369
_cell_angle_alpha   98.37030837
_cell_angle_beta   89.99953325
_cell_angle_gamma   90.00021571
_symmetry_Int_Tables_number   1
_chemical_formula_structural   Na4MgMn4O8
_chemical_formula_sum   'Na4 Mg1 Mn4 O8'
_cell_volume   224.94019061
_cell_formula_units_Z   1
loop_
 _symmetry_equiv_pos_site_id
 _symmetry_equiv_pos_as_xyz
  1  'x, y, z'
loop_
 _atom_site_type_symbol
 _atom_site_label
 _atom_site_symmetry_multiplicity
 _atom_site_fract_x
 _atom_site_fract_y
 _atom_site_fract_z
 _atom_site_occupancy
  Na  Na0  1  0.25000110  0.55908442  0.13805113  1
  Na  Na1  1  0.25001206  0.04475199  0.63599632  1
  Na  Na2  1  0.75000763  0.43083050  0.90990358  1
  Na  Na3  1  0.75005788  0.99434978  0.42727440  1
  Mg  Mg0  1  0.74999222  0.15827034  0.22201191  1
  Mn  Mn0  1  0.24999892  -0.00752576  0.05061227  1
  Mn  Mn1  1  0.75000876  0.92211915  0.83866994  1
  Mn  Mn2  1  0.75002862  0.49048016  0.41337277  1
  Mn  Mn3  1  0.25002308  0.55034076  0.61604523  1
  O  O0  1  0.75002372  0.84786011  0.14286023  1
  O  O1  1  0.25000742  0.13167949  0.81742755  1
  O  O2  1  0.24999253  0.26286170  0.31937491  1
  O  O3  1  0.75001697  0.73768921  0.68445441  1
  O  O4  1  0.74996549  0.26293106  0.07774754  1
  O  O5  1  0.25000848  0.76282478  0.90369688  1
  O  O6  1  0.75003214  0.33081892  0.56376688  1
  O  O7  1  0.25003598  0.72300838  0.47206707  1
loop_
_geom_bond_atom_site_label_1
_geom_bond_atom_site_label_2
_geom_bond_distance
_geom_bond_site_symmetry_2
Na0 O0 2.252345 1_455
Na0 O0 2.252428 1_555
Na0 O4 2.337546 1_555
Na0 O4 2.337684 1_455
Na1 O1 2.332281 1_555
Na1 O3 2.488753 1_445
Na1 O3 2.488785 1_545
Na1 O6 2.525553 1_455
Na1 O6 2.525608 1_555
Na1 O7 2.623472 1_545
Na2 O5 2.463114 1_655
Na2 O5 2.463121 1_555
Na2 O1 2.476868 1_655
Na2 O1 2.476873 1_555
Na2 O4 2.512918 1_556
Na3 O7 2.317669 1_655
Na3 O7 2.317741 1_555
Na3 O6 2.445175 1_565
Na3 O2 2.703379 1_665
Na3 O2 2.703617 1_565
Mg0 O0 1.948709 1_545
Mg0 O2 1.999154 1_555
Mg0 O2 1.999168 1_655
Mg0 O4 2.049961 1_555
Mn0 O5 2.163558 1_544
Mn0 O0 2.166118 1_445
Mn0 O0 2.166239 1_545
Mn0 O4 2.170756 1_555
Mn0 O4 2.170899 1_455
Mn1 O1 1.981756 1_665
Mn1 O1 1.981772 1_565
Mn1 O5 2.014850 1_555
Mn1 O5 2.014864 1_655
Mn1 O3 2.127983 1_555
Mn2 O7 2.092289 1_555
Mn2 O7 2.092322 1_655
Mn2 O2 2.243903 1_655
Mn2 O2 2.244055 1_555
Mn2 O6 2.279920 1_555
Mn3 O3 1.989070 1_555
Mn3 O3 1.989093 1_455
Mn3 O6 2.026174 1_455
Mn3 O6 2.026213 1_555
Mn3 O7 2.246531 1_555
