# generated using pymatgen
data_Sr4MgFe2Cu2(SO3)2
_symmetry_space_group_name_H-M   'P 1'
_cell_length_a   4.01829700
_cell_length_b   4.01829700
_cell_length_c   16.31648400
_cell_angle_alpha   90.00000000
_cell_angle_beta   90.00000000
_cell_angle_gamma   90.00000000
_symmetry_Int_Tables_number   1
_chemical_formula_structural   Sr4MgFe2Cu2(SO3)2
_chemical_formula_sum   'Sr4 Mg1 Fe2 Cu2 S2 O6'
_cell_volume   263.45754810
_cell_formula_units_Z   1
loop_
 _symmetry_equiv_pos_site_id
 _symmetry_equiv_pos_as_xyz
  1  'x, y, z'
loop_
 _atom_site_type_symbol
 _atom_site_label
 _atom_site_symmetry_multiplicity
 _atom_site_fract_x
 _atom_site_fract_y
 _atom_site_fract_z
 _atom_site_occupancy
  Sr  Sr0  1  0.75000100  0.75000100  0.17201500  1
  Sr  Sr1  1  0.25000000  0.25000000  0.82798400  1
  Sr  Sr2  1  0.75000100  0.75000100  0.37133300  1
  Sr  Sr3  1  0.25000000  0.25000000  0.62866600  1
  Mg  Mg0  1  0.75000000  0.25000000  0.50000000  1
  Fe  Fe0  1  0.25000000  0.25000000  0.28476900  1
  Fe  Fe1  1  0.75000100  0.75000100  0.71523000  1
  Cu  Cu0  1  0.25000000  0.75000100  0.00000000  1
  Cu  Cu1  1  0.75000100  0.25000000  0.00000000  1
  S  S0  1  0.75000100  0.75000100  0.91626600  1
  S  S1  1  0.25000000  0.25000000  0.08373300  1
  O  O0  1  0.75000100  0.75000100  0.55159800  1
  O  O1  1  0.25000000  0.25000000  0.44840200  1
  O  O2  1  0.25000000  0.75000100  0.72695500  1
  O  O3  1  0.25000000  0.75000100  0.27304500  1
  O  O4  1  0.75000100  0.25000000  0.27782000  1
  O  O5  1  0.75000100  0.25000000  0.72218000  1
loop_
_geom_bond_atom_site_label_1
_geom_bond_atom_site_label_2
_geom_bond_distance
_geom_bond_site_symmetry_2
Mg0 O0 2.178406 1_545
Mg0 O1 2.178410 1_555
Mg0 O1 2.178410 1_655
Mg0 O0 2.178414 1_555
Fe0 O4 2.012341 1_455
Fe0 O4 2.012349 1_555
Fe0 O3 2.018231 1_545
Fe0 O3 2.018239 1_555
Fe0 O1 2.669915 1_555
Fe1 O5 2.012342 1_565
Fe1 O5 2.012350 1_555
Fe1 O2 2.018232 1_655
Fe1 O2 2.018240 1_555
Fe1 O0 2.669899 1_555
Cu0 S1 2.429659 1_565
Cu0 S1 2.429665 1_555
Cu0 S0 2.429668 1_454
Cu0 S0 2.429674 1_554
Cu1 S1 2.429659 1_655
Cu1 S1 2.429665 1_555
Cu1 S0 2.429668 1_544
Cu1 S0 2.429674 1_554
S0 Sr1 3.185628 1_665
S0 Sr1 3.185633 1_655
S0 Sr1 3.185633 1_565
S0 Sr1 3.185638 1_555
S1 Sr0 3.185628 1_445
S1 Sr0 3.185633 1_545
S1 Sr0 3.185633 1_455
S1 Sr0 3.185638 1_555
O2 Sr3 2.570723 1_565
O2 Sr3 2.570729 1_555
O2 Sr1 2.598848 1_565
O2 Sr1 2.598854 1_555
O3 Sr2 2.570712 1_455
O3 Sr2 2.570719 1_555
O3 Sr0 2.598858 1_455
O3 Sr0 2.598864 1_555
O4 Sr2 2.522843 1_545
O4 Sr2 2.522850 1_555
O4 Sr0 2.648962 1_545
O4 Sr0 2.648968 1_555
O5 Sr3 2.522853 1_655
O5 Sr3 2.522859 1_555
O5 Sr1 2.648951 1_655
O5 Sr1 2.648957 1_555
