# generated using pymatgen
data_Na10Al4Si7Sn4S5O48
_symmetry_space_group_name_H-M   'P 1'
_cell_length_a   17.65088625
_cell_length_b   8.84517464
_cell_length_c   22.22951237
_cell_angle_alpha   89.80927631
_cell_angle_beta   90.15798914
_cell_angle_gamma   120.02221173
_symmetry_Int_Tables_number   1
_chemical_formula_structural   Na10Al4Si7Sn4S5O48
_chemical_formula_sum   'Na30 Al12 Si21 Sn12 S15 O144'
_cell_volume   3004.92403196
_cell_formula_units_Z   3
loop_
 _symmetry_equiv_pos_site_id
 _symmetry_equiv_pos_as_xyz
  1  'x, y, z'
loop_
 _atom_site_type_symbol
 _atom_site_label
 _atom_site_symmetry_multiplicity
 _atom_site_fract_x
 _atom_site_fract_y
 _atom_site_fract_z
 _atom_site_occupancy
  Na  Na0  1  0.18236761  0.37160106  0.24482184  1
  Na  Na1  1  0.68235656  0.37204818  0.24478962  1
  Na  Na2  1  0.99549244  0.62712237  0.25315524  1
  Na  Na3  1  0.49555521  0.62699219  0.25292684  1
  Na  Na4  1  0.49524693  0.36152120  0.75616638  1
  Na  Na5  1  0.18197916  0.99249125  0.74772789  1
  Na  Na6  1  0.68384051  0.99486469  0.74696548  1
  Na  Na7  1  0.65640266  0.33650898  0.58007314  1
  Na  Na8  1  0.01752962  0.70611106  0.58138756  1
  Na  Na9  1  0.82873435  0.95958078  0.58934592  1
  Na  Na10  1  0.48880871  0.66744087  0.91235225  1
  Na  Na11  1  0.98998272  0.66962816  0.91139404  1
  Na  Na12  1  0.84966863  0.03591252  0.90904395  1
  Na  Na13  1  0.16140711  0.29195310  0.92123630  1
  Na  Na14  1  0.48940611  0.31166016  0.41188101  1
  Na  Na15  1  0.98831346  0.30965840  0.41179600  1
  Na  Na16  1  0.35111065  0.66387907  0.40912917  1
  Na  Na17  1  0.85092372  0.66408509  0.41253497  1
  Na  Na18  1  0.01483276  0.00406291  0.49793887  1
  Na  Na19  1  0.51069342  0.99427630  0.49644894  1
  Na  Na20  1  0.00905160  0.01449129  0.99944861  1
  Na  Na21  1  0.51165880  0.02950250  0.99596304  1
  Na  Na22  1  0.33704605  0.32411690  0.83266589  1
  Na  Na23  1  0.83894142  0.33462668  0.82802703  1
  Na  Na24  1  0.33286741  0.33225294  0.33024466  1
  Na  Na25  1  0.83278870  0.33222060  0.33094428  1
  Na  Na26  1  0.17268129  0.66147768  0.16179958  1
  Na  Na27  1  0.67249573  0.66132909  0.16188076  1
  Na  Na28  1  0.17242286  0.67622014  0.66701354  1
  Na  Na29  1  0.67101945  0.68219277  0.66573982  1
  Al  Al0  1  0.00146851  0.00155091  0.35297172  1
  Al  Al1  1  0.50224108  0.00126906  0.35255849  1
  Al  Al2  1  0.99809021  0.99521765  0.85142703  1
  Al  Al3  1  0.49798077  0.00034450  0.85472069  1
  Al  Al4  1  0.33260104  0.31764769  0.69082321  1
  Al  Al5  1  0.83285811  0.33355254  0.68840102  1
  Al  Al6  1  0.33531521  0.35101702  0.18732904  1
  Al  Al7  1  0.83488641  0.35172250  0.18768279  1
  Al  Al8  1  0.15959260  0.64693869  0.01734615  1
  Al  Al9  1  0.65599621  0.64267524  0.01758016  1
  Al  Al10  1  0.16177240  0.67178214  0.51658641  1
  Al  Al11  1  0.66178344  0.66505192  0.52103933  1
  Si  Si0  1  0.35739755  0.71678649  0.25149119  1
  Si  Si1  1  0.85733154  0.71716749  0.25156988  1
  Si  Si2  1  0.99172032  0.28269588  0.25208305  1
  Si  Si3  1  0.49170841  0.28260358  0.25221240  1
  Si  Si4  1  0.99260277  0.69657588  0.75238676  1
  Si  Si5  1  0.49205072  0.69955535  0.75282845  1
  Si  Si6  1  0.35669063  0.99705355  0.75196699  1
  Si  Si7  1  0.85724334  0.00763626  0.75190157  1
  Si  Si8  1  0.19141034  0.03803077  0.58694399  1
  Si  Si9  1  0.68640791  0.03568442  0.58654211  1
  Si  Si10  1  0.82963092  0.62194802  0.58531147  1
  Si  Si11  1  0.19000505  0.34399898  0.08515412  1
  Si  Si12  1  0.68849876  0.34422420  0.08655808  1
  Si  Si13  1  0.02145011  0.36907222  0.91853054  1
  Si  Si14  1  0.52195688  0.36379311  0.91752232  1
  Si  Si15  1  0.16435285  0.95249814  0.91951738  1
  Si  Si16  1  0.66238255  0.95345413  0.92075382  1
  Si  Si17  1  0.16286121  0.37107887  0.42007457  1
  Si  Si18  1  0.66204653  0.36617903  0.41944748  1
  Si  Si19  1  0.02270352  0.67802678  0.41819072  1
  Si  Si20  1  0.52510813  0.67931790  0.41959345  1
  Sn  Sn0  1  0.99981109  0.98949171  0.65008956  1
  Sn  Sn1  1  0.49668001  0.98282739  0.65035748  1
  Sn  Sn2  1  0.00097702  0.01332999  0.14728628  1
  Sn  Sn3  1  0.50060537  0.01270278  0.14729496  1
  Sn  Sn4  1  0.33090150  0.31893231  0.98160273  1
  Sn  Sn5  1  0.82620554  0.32291232  0.98260891  1
  Sn  Sn6  1  0.32811371  0.33312000  0.48234137  1
  Sn  Sn7  1  0.82886397  0.34026980  0.48266576  1
  Sn  Sn8  1  0.16530023  0.65485144  0.31489900  1
  Sn  Sn9  1  0.66458260  0.65524160  0.31530002  1
  Sn  Sn10  1  0.16291731  0.67321281  0.81468777  1
  Sn  Sn11  1  0.66567155  0.67634254  0.81578275  1
  S  S0  1  0.14697111  0.00287841  0.25152785  1
  S  S1  1  0.64691771  0.00261784  0.25146595  1
  S  S2  1  0.14698431  0.29251701  0.75073657  1
  S  S3  1  0.64664678  0.28998424  0.75125856  1
  S  S4  1  0.47872558  0.33481659  0.58495497  1
  S  S5  1  0.98144445  0.33728367  0.58392829  1
  S  S6  1  0.32952908  0.62252492  0.58428261  1
  S  S7  1  0.48027928  0.62477110  0.08454844  1
  S  S8  1  0.98066248  0.62478837  0.08450150  1
  S  S9  1  0.32932721  0.03702895  0.08584322  1
  S  S10  1  0.82979850  0.03872642  0.08503596  1
  S  S11  1  0.31180242  0.67291966  0.91862060  1
  S  S12  1  0.81068828  0.66763702  0.91863740  1
  S  S13  1  0.31035432  0.95338005  0.41849197  1
  S  S14  1  0.81090459  0.95479246  0.41870008  1
  O  O0  1  0.10570602  0.03391074  0.30389038  1
  O  O1  1  0.60564374  0.03372365  0.30395838  1
  O  O2  1  0.41986448  0.80488308  0.31019068  1
  O  O3  1  0.92016115  0.80557895  0.30989554  1
  O  O4  1  0.48280367  0.16806588  0.31206365  1
  O  O5  1  0.98331642  0.16875665  0.31190944  1
  O  O6  1  0.10633376  0.18114472  0.80496449  1
  O  O7  1  0.60358303  0.17557310  0.80257322  1
  O  O8  1  0.48313636  0.79773282  0.81153470  1
  O  O9  1  0.98590491  0.80120925  0.81099706  1
  O  O10  1  0.42483758  0.03853076  0.80619394  1
  O  O11  1  0.91698614  0.02809956  0.81060751  1
  O  O12  1  0.39458036  0.97156757  0.68753769  1
  O  O13  1  0.89601368  0.97834402  0.68823559  1
  O  O14  1  0.09303218  0.22080688  0.69600645  1
  O  O15  1  0.59291404  0.22445901  0.69406923  1
  O  O16  1  0.02429551  0.82401521  0.69190461  1
  O  O17  1  0.52720872  0.83046936  0.69377869  1
  O  O18  1  0.40005811  0.82571039  0.18986231  1
  O  O19  1  0.89993854  0.82611787  0.18961191  1
  O  O20  1  0.02704049  0.21907057  0.19483302  1
  O  O21  1  0.52667935  0.21833984  0.19516595  1
  O  O22  1  0.09164424  0.96057922  0.19608883  1
  O  O23  1  0.59164380  0.96044619  0.19625498  1
  O  O24  1  0.43489778  0.35688419  0.63787343  1
  O  O25  1  0.93752119  0.36394986  0.63519212  1
  O  O26  1  0.25096417  0.14161096  0.64507353  1
  O  O27  1  0.74917775  0.13120684  0.64444863  1
  O  O28  1  0.32137410  0.51382967  0.63616275  1
  O  O29  1  0.81465417  0.48663256  0.63900370  1
  O  O30  1  0.43701410  0.51454640  0.13845436  1
  O  O31  1  0.93678343  0.51493194  0.13795963  1
  O  O32  1  0.32168008  0.12995771  0.13793229  1
  O  O33  1  0.82290129  0.13355415  0.13661169  1
  O  O34  1  0.24918924  0.35717404  0.14422944  1
  O  O35  1  0.74810887  0.35879288  0.14573647  1
  O  O36  1  0.22971153  0.30783292  0.02307538  1
  O  O37  1  0.72815732  0.30317781  0.02628824  1
  O  O38  1  0.42727285  0.54836522  0.02891365  1
  O  O39  1  0.92799819  0.54902156  0.02817625  1
  O  O40  1  0.34991678  0.14436314  0.02924098  1
  O  O41  1  0.84952584  0.14383894  0.02745322  1
  O  O42  1  0.22952899  0.15310714  0.52525115  1
  O  O43  1  0.72634668  0.16052940  0.52628665  1
  O  O44  1  0.34898629  0.55662371  0.52692549  1
  O  O45  1  0.86010073  0.56236535  0.52329686  1
  O  O46  1  0.42720495  0.30486636  0.52820243  1
  O  O47  1  0.92770698  0.29882109  0.52701218  1
  O  O48  1  0.26893181  0.69536905  0.97184177  1
  O  O49  1  0.76877282  0.69357859  0.97120065  1
  O  O50  1  0.08652527  0.45922073  0.97480137  1
  O  O51  1  0.58258047  0.46343558  0.97447690  1
  O  O52  1  0.15016107  0.82010410  0.97510000  1
  O  O53  1  0.65185805  0.82183652  0.97581626  1
  O  O54  1  0.26744836  0.84355112  0.47130189  1
  O  O55  1  0.77018648  0.84704300  0.47200665  1
  O  O56  1  0.15171837  0.48073351  0.47483506  1
  O  O57  1  0.64843746  0.46449657  0.47712047  1
  O  O58  1  0.08046730  0.69922521  0.47752287  1
  O  O59  1  0.58674699  0.69744186  0.47546071  1
  O  O60  1  0.06108833  0.63518764  0.35686812  1
  O  O61  1  0.55814350  0.63140443  0.35639529  1
  O  O62  1  0.25812352  0.88551053  0.36275341  1
  O  O63  1  0.75781776  0.88545987  0.36321126  1
  O  O64  1  0.19165918  0.49161385  0.35784119  1
  O  O65  1  0.69038135  0.49223042  0.35881679  1
  O  O66  1  0.05940391  0.49166055  0.85867459  1
  O  O67  1  0.55813021  0.48578795  0.85552594  1
  O  O68  1  0.18740155  0.88980207  0.85615162  1
  O  O69  1  0.69159833  0.89177203  0.85841203  1
  O  O70  1  0.25610555  0.62973565  0.86334420  1
  O  O71  1  0.75902857  0.63127587  0.86275850  1
  O  O72  1  0.00629425  0.84168017  0.40925242  1
  O  O73  1  0.50634374  0.83997470  0.41000562  1
  O  O74  1  0.39719630  0.96665820  0.41352108  1
  O  O75  1  0.89812886  0.96949833  0.41248219  1
  O  O76  1  0.07446338  0.18325292  0.40984280  1
  O  O77  1  0.57320569  0.17913305  0.40880340  1
  O  O78  1  0.00849570  0.17373422  0.90904399  1
  O  O79  1  0.50950307  0.17254199  0.90802285  1
  O  O80  1  0.07589420  0.97143603  0.91042917  1
  O  O81  1  0.57371001  0.96328882  0.90997372  1
  O  O82  1  0.39902212  0.82879343  0.91182727  1
  O  O83  1  0.89867833  0.82795676  0.91311694  1
  O  O84  1  0.49093496  0.18061452  0.58888496  1
  O  O85  1  0.99123664  0.18084952  0.58914882  1
  O  O86  1  0.09242588  0.01836959  0.58926329  1
  O  O87  1  0.59049934  0.03321384  0.58879051  1
  O  O88  1  0.40905504  0.80179354  0.58631362  1
  O  O89  1  0.91509703  0.82235431  0.58705933  1
  O  O90  1  0.48899032  0.79993724  0.08919026  1
  O  O91  1  0.98913121  0.80026667  0.08874859  1
  O  O92  1  0.40803390  0.01459062  0.08797212  1
  O  O93  1  0.90922281  0.01716606  0.08700494  1
  O  O94  1  0.09197268  0.15933938  0.08700502  1
  O  O95  1  0.59104623  0.15991941  0.08793589  1
  O  O96  1  0.34394876  0.17071563  0.74475307  1
  O  O97  1  0.83966962  0.17191339  0.74356080  1
  O  O98  1  0.23332931  0.30405420  0.74373383  1
  O  O99  1  0.73222789  0.30292311  0.74416765  1
  O  O100  1  0.40769252  0.50644872  0.73872489  1
  O  O101  1  0.90624586  0.50967113  0.74101680  1
  O  O102  1  0.34417405  0.51737466  0.24411505  1
  O  O103  1  0.84453480  0.51801330  0.24429082  1
  O  O104  1  0.40765649  0.30921770  0.23897323  1
  O  O105  1  0.90769516  0.30909673  0.23871314  1
  O  O106  1  0.23372997  0.16150700  0.24370932  1
  O  O107  1  0.73381515  0.16120774  0.24381979  1
  O  O108  1  0.32405703  0.51775144  0.92344599  1
  O  O109  1  0.82770499  0.51813102  0.92338881  1
  O  O110  1  0.42726638  0.36753427  0.92352170  1
  O  O111  1  0.92515165  0.35990454  0.92586255  1
  O  O112  1  0.24677737  0.15583740  0.92053468  1
  O  O113  1  0.75249041  0.14729910  0.92179012  1
  O  O114  1  0.32671485  0.13621708  0.42305690  1
  O  O115  1  0.82657429  0.13737625  0.42368840  1
  O  O116  1  0.25286497  0.35736713  0.42119948  1
  O  O117  1  0.75148684  0.35151107  0.41932316  1
  O  O118  1  0.42647128  0.49204048  0.42531766  1
  O  O119  1  0.92668578  0.48828366  0.42147640  1
  O  O120  1  0.18123038  0.51911313  0.07609259  1
  O  O121  1  0.68049084  0.51972369  0.07641649  1
  O  O122  1  0.06737934  0.64015723  0.07912373  1
  O  O123  1  0.56736602  0.64067749  0.07944160  1
  O  O124  1  0.24989911  0.86650881  0.07857147  1
  O  O125  1  0.75085059  0.86759050  0.07858952  1
  O  O126  1  0.17750635  0.83960216  0.57684556  1
  O  O127  1  0.67929326  0.84657721  0.57617603  1
  O  O128  1  0.25036625  0.63691620  0.57685585  1
  O  O129  1  0.74177936  0.63836135  0.57484489  1
  O  O130  1  0.06808840  0.49683706  0.57739008  1
  O  O131  1  0.56626958  0.49218059  0.58000868  1
  O  O132  1  0.15657848  0.84688476  0.25781161  1
  O  O133  1  0.65650319  0.84671990  0.25796223  1
  O  O134  1  0.25838936  0.69258453  0.25416221  1
  O  O135  1  0.75817049  0.69239634  0.25455700  1
  O  O136  1  0.07912165  0.48570627  0.25401918  1
  O  O137  1  0.57912038  0.48555164  0.25407860  1
  O  O138  1  0.15942584  0.46972287  0.75692383  1
  O  O139  1  0.65604676  0.46621254  0.75692102  1
  O  O140  1  0.08323581  0.68260713  0.75288619  1
  O  O141  1  0.57930445  0.67175610  0.75392714  1
  O  O142  1  0.25868153  0.82321426  0.75489107  1
  O  O143  1  0.75843697  0.82619610  0.75450965  1
loop_
_geom_bond_atom_site_label_1
_geom_bond_atom_site_label_2
_geom_bond_distance
_geom_bond_site_symmetry_2
Na0 O106 2.441754 1_555
Na0 O134 2.468721 1_555
Na0 O102 2.476847 1_555
Na0 O136 2.495092 1_555
Na0 O34 2.564118 1_555
Na0 O20 2.619832 1_555
Na0 O64 2.703146 1_555
Na0 O0 2.901054 1_555
Na1 O107 2.449242 1_555
Na1 O135 2.464743 1_555
Na1 O103 2.482578 1_555
Na1 O137 2.491009 1_555
Na1 O35 2.522115 1_555
Na1 O21 2.621219 1_555
Na1 O65 2.727717 1_555
Na1 O1 2.906473 1_555
Na2 O103 2.344165 1_555
Na2 O136 2.364592 1_655
Na2 O105 2.461425 1_555
Na2 O132 2.518473 1_655
Na2 O60 2.562155 1_655
Na2 O31 2.754860 1_555
Na2 O3 2.823697 1_555
Na2 O22 2.857780 1_655
Na3 O102 2.350320 1_555
Na3 O137 2.363807 1_555
Na3 O104 2.458273 1_555
Na3 O133 2.516956 1_555
Na3 O61 2.540798 1_555
Na3 O30 2.739747 1_555
Na3 O2 2.829742 1_555
Na3 O23 2.853807 1_555
Na4 O96 2.352346 1_555
Na4 O141 2.378907 1_555
Na4 O67 2.469893 1_555
Na4 O100 2.481474 1_555
Na4 O139 2.506653 1_555
Na4 O10 2.716015 1_555
Na4 O24 2.827134 1_555
Na4 O15 2.909079 1_555
Na5 O140 2.404656 1_555
Na5 O98 2.433786 1_565
Na5 O142 2.475050 1_555
Na5 O96 2.480586 1_565
Na5 O68 2.591219 1_555
Na5 O26 2.611104 1_565
Na5 O16 2.711084 1_555
Na5 O6 2.905018 1_565
Na6 O97 2.390317 1_565
Na6 O99 2.414208 1_565
Na6 O143 2.439343 1_555
Na6 O141 2.513595 1_555
Na6 O27 2.565584 1_565
Na6 O69 2.663799 1_555
Na6 O17 2.669527 1_555
Na6 O7 2.894537 1_565
Na7 O129 2.320714 1_555
Na7 O87 2.337223 1_555
Na7 O84 2.537973 1_555
Na7 O131 2.572759 1_555
Na7 O57 2.584421 1_555
Na7 O43 2.705583 1_555
Na7 O15 2.747213 1_555
Na7 O29 2.749826 1_555
Na8 O86 2.398964 1_565
Na8 O130 2.425958 1_555
Na8 O126 2.458097 1_555
Na8 O89 2.490863 1_455
Na8 O58 2.579041 1_555
Na8 O16 2.651084 1_555
Na8 O45 2.731544 1_455
Na8 O25 2.879714 1_455
Na9 O127 2.324215 1_555
Na9 O89 2.377385 1_555
Na9 O13 2.461908 1_555
Na9 O129 2.484328 1_555
Na9 O85 2.537754 1_565
Na9 O55 2.799211 1_555
Na9 O27 2.816352 1_565
Na9 O47 2.952267 1_565
Na10 O81 2.274133 1_555
Na10 O110 2.322106 1_555
Na10 O108 2.533636 1_555
Na10 O8 2.541230 1_555
Na10 O82 2.609939 1_555
Na10 O67 2.768374 1_555
Na10 O38 2.802763 1_556
Na10 O53 2.862773 1_555
Na11 O80 2.318487 1_655
Na11 O111 2.403585 1_555
Na11 O109 2.496438 1_555
Na11 O9 2.531051 1_555
Na11 O83 2.611350 1_555
Na11 O66 2.702449 1_655
Na11 O39 2.811337 1_556
Na11 O52 2.827620 1_655
Na12 O113 2.385118 1_555
Na12 O83 2.393883 1_545
Na12 O78 2.434239 1_655
Na12 O11 2.510445 1_555
Na12 O111 2.512204 1_555
Na12 O69 2.666362 1_545
Na12 O41 2.803367 1_556
Na12 O49 2.961971 1_545
Na13 O112 2.352890 1_555
Na13 O78 2.371766 1_555
Na13 O80 2.468574 1_545
Na13 O36 2.532949 1_556
Na13 O108 2.548654 1_555
Na13 O50 2.707580 1_555
Na13 O6 2.763277 1_555
Na13 O70 2.892331 1_555
Na14 O77 2.302776 1_555
Na14 O118 2.376421 1_555
Na14 O114 2.501662 1_555
Na14 O4 2.533668 1_555
Na14 O74 2.644267 1_545
Na14 O61 2.746523 1_555
Na14 O46 2.800680 1_555
Na14 O57 2.829054 1_555
Na15 O76 2.294838 1_655
Na15 O119 2.334366 1_555
Na15 O115 2.488038 1_555
Na15 O5 2.529564 1_555
Na15 O75 2.606538 1_545
Na15 O47 2.761191 1_555
Na15 O60 2.777727 1_655
Na15 O56 2.863006 1_655
Na16 O73 2.379773 1_555
Na16 O74 2.380114 1_555
Na16 O116 2.392199 1_555
Na16 O118 2.495192 1_555
Na16 O2 2.519385 1_555
Na16 O64 2.691708 1_555
Na16 O44 2.776087 1_555
Na17 O72 2.383970 1_655
Na17 O75 2.395745 1_555
Na17 O117 2.426957 1_555
Na17 O119 2.514580 1_555
Na17 O3 2.594518 1_555
Na17 O45 2.650846 1_555
Na17 O65 2.729393 1_555
Na17 O55 2.954637 1_555
Na18 O72 2.402691 1_545
Na18 O76 2.403407 1_555
Na18 O86 2.413716 1_555
Na18 O89 2.602654 1_445
Na18 O75 2.701400 1_445
Na18 O85 2.721598 1_455
Na19 O73 2.339434 1_555
Na19 O87 2.412425 1_565
Na19 O77 2.423268 1_565
Na19 O74 2.638976 1_555
Na19 O88 2.654884 1_555
Na19 O84 2.768051 1_565
Na20 O94 2.386703 1_556
Na20 O80 2.433193 1_545
Na20 O78 2.453086 1_555
Na20 O93 2.637156 1_456
Na20 O91 2.639472 1_446
Na20 O83 2.642843 1_445
Na21 O79 2.335596 1_555
Na21 O95 2.420049 1_556
Na21 O81 2.420192 1_545
Na21 O82 2.659340 1_545
Na21 O92 2.706223 1_556
Na21 O90 2.782370 1_546
Na22 O96 2.420628 1_555
Na22 O110 2.477499 1_555
Na22 O112 2.488798 1_555
Na22 O100 2.548782 1_555
Na22 O98 2.635984 1_555
Na22 O108 2.734378 1_555
Na23 O97 2.373546 1_555
Na23 O101 2.387842 1_555
Na23 O99 2.560697 1_555
Na23 O111 2.596144 1_555
Na23 O113 2.623499 1_555
Na23 O109 2.741348 1_555
Na24 O102 2.457848 1_555
Na24 O104 2.487438 1_555
Na24 O106 2.529737 1_555
Na24 O116 2.542449 1_555
Na24 O118 2.618740 1_555
Na24 O114 2.657839 1_555
Na25 O103 2.468668 1_555
Na25 O117 2.492191 1_555
Na25 O105 2.506361 1_555
Na25 O119 2.532431 1_555
Na25 O107 2.539185 1_555
Na25 O115 2.649736 1_555
Na26 O120 2.333675 1_555
Na26 O124 2.467317 1_555
Na26 O134 2.479915 1_555
Na26 O122 2.549631 1_555
Na26 O136 2.602894 1_555
Na26 O132 2.796171 1_555
Na27 O121 2.322128 1_555
Na27 O125 2.477121 1_555
Na27 O135 2.485424 1_555
Na27 O123 2.545463 1_555
Na27 O137 2.601431 1_555
Na27 O133 2.796489 1_555
Na28 O142 2.417493 1_555
Na28 O126 2.442543 1_555
Na28 O140 2.496318 1_555
Na28 O128 2.555136 1_555
Na28 O138 2.634829 1_555
Na28 O130 2.637243 1_555
Na29 O127 2.422650 1_555
Na29 O143 2.435251 1_555
Na29 O129 2.509293 1_555
Na29 O141 2.517731 1_555
Na29 O131 2.601444 1_555
Na29 O139 2.701804 1_555
Al0 O3 1.869593 1_445
Al0 O5 1.893875 1_455
Al0 O72 1.918408 1_545
Al0 O76 1.942612 1_555
Al0 O0 2.034579 1_555
Al0 O75 2.156583 1_445
Al1 O2 1.869361 1_545
Al1 O4 1.897538 1_555
Al1 O77 1.907830 1_555
Al1 O73 1.939634 1_545
Al1 O1 2.016250 1_555
Al1 O74 2.193423 1_545
Al2 O11 1.834406 1_565
Al2 O9 1.854358 1_555
Al2 O78 1.972158 1_665
Al2 O80 1.981867 1_655
Al2 O6 2.068110 1_665
Al2 O83 2.133156 1_555
Al3 O10 1.835968 1_555
Al3 O79 1.861693 1_555
Al3 O8 1.934474 1_545
Al3 O81 1.956894 1_545
Al3 O82 2.076576 1_545
Al3 O7 2.080730 1_555
Al4 O26 1.814497 1_555
Al4 O96 1.848020 1_555
Al4 O100 1.862414 1_555
Al4 O24 2.036691 1_555
Al4 O98 2.065859 1_555
Al4 O28 2.203532 1_555
Al5 O101 1.859361 1_555
Al5 O29 1.888360 1_555
Al5 O27 1.922992 1_555
Al5 O97 1.929146 1_555
Al5 O99 2.072068 1_555
Al5 O25 2.096924 1_555
Al6 O34 1.818340 1_555
Al6 O104 1.883242 1_555
Al6 O102 1.887896 1_555
Al6 O30 1.974074 1_555
Al6 O106 2.141598 1_555
Al6 O32 2.151472 1_555
Al7 O35 1.818533 1_555
Al7 O103 1.880542 1_555
Al7 O105 1.885346 1_555
Al7 O31 1.985642 1_555
Al7 O107 2.137653 1_555
Al7 O33 2.159228 1_555
Al8 O50 1.782012 1_554
Al8 O52 1.870936 1_554
Al8 O120 1.883914 1_555
Al8 O48 2.027795 1_554
Al8 O122 2.110171 1_555
Al8 O124 2.252299 1_555
Al9 O51 1.748788 1_554
Al9 O53 1.866607 1_554
Al9 O121 1.881004 1_555
Al9 O123 2.079120 1_555
Al9 O49 2.083158 1_554
Al9 O125 2.296221 1_555
Al10 O58 1.792435 1_555
Al10 O56 1.859557 1_555
Al10 O126 1.916657 1_555
Al10 O54 1.991296 1_555
Al10 O130 2.096116 1_555
Al10 O128 2.191731 1_555
Al11 O59 1.798110 1_555
Al11 O127 1.920998 1_555
Al11 O57 1.935879 1_555
Al11 O129 1.949985 1_555
Al11 O131 2.077965 1_555
Al11 O55 2.087607 1_555
O0 S0 1.472278 1_555
O1 S1 1.474944 1_555
O2 Si0 1.632379 1_555
O3 Si1 1.628943 1_555
O4 Si3 1.629128 1_555
O5 Si2 1.627551 1_555
O6 S2 1.492635 1_555
O7 S3 1.459603 1_555
O8 Si5 1.620905 1_555
O9 Si4 1.639020 1_555
O10 Si6 1.608693 1_545
O11 Si7 1.628123 1_555
O12 Si6 1.645503 1_555
O12 Sn1 1.941345 1_555
O13 Si7 1.650339 1_565
O13 Sn0 1.978044 1_555
O14 S2 1.477729 1_555
O14 Sn0 2.138060 1_445
O15 S3 1.516512 1_555
O15 Sn1 2.183872 1_545
O16 Si4 1.659601 1_455
O16 Sn0 1.953159 1_455
O17 Si5 1.650549 1_555
O17 Sn1 1.937344 1_555
O18 Si0 1.625739 1_555
O18 Sn3 1.960165 1_565
O19 Si1 1.631828 1_555
O19 Sn2 1.962552 1_665
O20 Si2 1.638668 1_455
O20 Sn2 1.952651 1_555
O21 Si3 1.634767 1_555
O21 Sn3 1.955791 1_555
O22 S0 1.497747 1_565
O22 Sn2 2.165648 1_565
O23 S1 1.493175 1_565
O23 Sn3 2.170385 1_565
O24 S4 1.475808 1_555
O25 S5 1.464571 1_555
O26 Si8 1.628127 1_555
O27 Si9 1.631263 1_555
O28 S6 1.459502 1_555
O29 Si10 1.613260 1_555
O30 S7 1.490599 1_555
O31 S8 1.483417 1_555
O32 S9 1.467257 1_555
O33 S10 1.463617 1_555
O34 Si11 1.643487 1_555
O35 Si12 1.646829 1_555
O36 Si11 1.652422 1_555
O36 Sn4 1.970458 1_554
O37 Si12 1.636929 1_555
O37 Sn5 1.916821 1_554
O38 S7 1.492671 1_555
O38 Sn4 2.160543 1_554
O39 S8 1.502239 1_555
O39 Sn5 2.159123 1_554
O40 S9 1.505288 1_555
O40 Sn4 2.030779 1_554
O41 S10 1.514837 1_555
O41 Sn5 2.076458 1_554
O42 Si8 1.637066 1_555
O42 Sn6 1.923429 1_555
O43 Si9 1.651328 1_555
O43 Sn7 1.965412 1_555
O44 S6 1.513637 1_555
O44 Sn6 2.075676 1_555
O45 Si10 1.661315 1_555
O45 Sn7 1.975893 1_555
O46 S4 1.497857 1_555
O46 Sn6 2.141683 1_555
O47 S5 1.513121 1_555
O47 Sn7 2.185919 1_555
O48 S11 1.472607 1_555
O49 S12 1.463468 1_555
O50 Si13 1.613091 1_555
O51 Si14 1.606542 1_555
O52 Si15 1.630730 1_555
O53 Si16 1.631988 1_555
O54 S13 1.468506 1_555
O55 S14 1.463144 1_555
O56 Si17 1.631351 1_555
O57 Si18 1.635775 1_555
O58 Si19 1.617774 1_555
O59 Si20 1.603454 1_555
O60 Si19 1.651148 1_555
O60 Sn8 1.993088 1_555
O61 Si20 1.658020 1_555
O61 Sn9 2.005109 1_555
O62 S13 1.479992 1_555
O62 Sn8 2.153693 1_555
O63 S14 1.482984 1_555
O63 Sn9 2.154200 1_555
O64 Si17 1.661525 1_555
O64 Sn8 1.968004 1_555
O65 Si18 1.656954 1_555
O65 Sn9 1.966575 1_555
O66 Si13 1.631981 1_555
O66 Sn10 1.984075 1_555
O67 Si14 1.666393 1_555
O67 Sn11 2.005580 1_555
O68 Si15 1.640516 1_555
O68 Sn10 1.971695 1_555
O69 Si16 1.665722 1_555
O69 Sn11 1.968609 1_555
O70 S11 1.497648 1_555
O70 Sn10 2.154927 1_555
O71 S12 1.476755 1_555
O71 Sn11 2.147034 1_555
O72 Si19 1.623596 1_555
O73 Si20 1.625743 1_555
O74 S13 1.481990 1_555
O75 S14 1.485599 1_555
O76 Si17 1.628795 1_555
O77 Si18 1.629920 1_555
O78 Si13 1.639776 1_555
O79 Si14 1.607670 1_555
O80 Si15 1.663285 1_555
O81 Si16 1.627489 1_555
O82 S11 1.472986 1_555
O83 S12 1.494690 1_555
O84 S4 1.485819 1_555
O84 Sn1 2.258114 1_545
O85 S5 1.481915 1_555
O85 Sn0 2.227754 1_545
O86 Si8 1.667894 1_555
O86 Sn0 2.039099 1_445
O87 Si9 1.682923 1_555
O87 Sn1 2.020872 1_545
O88 S6 1.503190 1_555
O88 Sn1 2.123158 1_555
O89 Si10 1.656409 1_555
O89 Sn0 2.043224 1_555
O90 S7 1.482377 1_555
O90 Sn3 2.209237 1_565
O91 S8 1.486308 1_555
O91 Sn2 2.215665 1_665
O92 S9 1.499036 1_555
O92 Sn3 2.103431 1_555
O93 S10 1.506908 1_555
O93 Sn2 2.112453 1_655
O94 Si11 1.683872 1_555
O94 Sn2 1.991972 1_555
O95 Si12 1.676681 1_555
O95 Sn3 1.976156 1_555
O96 Si6 1.667236 1_545
O97 Si7 1.640396 1_555
O98 S2 1.484248 1_555
O99 S3 1.465606 1_555
O100 Si5 1.639775 1_555
O101 Si4 1.612269 1_555
O102 Si0 1.667998 1_555
O103 Si1 1.668476 1_555
O104 Si3 1.640025 1_555
O105 Si2 1.638957 1_555
O106 S0 1.481123 1_555
O107 S1 1.481905 1_555
O108 S11 1.495991 1_555
O108 Sn4 2.230506 1_555
O109 S12 1.498830 1_555
O109 Sn5 2.157468 1_555
O110 Si14 1.693802 1_555
O110 Sn4 2.005402 1_555
O111 Si13 1.669076 1_655
O111 Sn5 2.045991 1_555
O112 Si15 1.653378 1_545
O112 Sn4 1.996793 1_555
O113 Si16 1.655656 1_545
O113 Sn5 1.978749 1_555
O114 S13 1.497567 1_545
O114 Sn6 2.177788 1_555
O115 S14 1.500339 1_545
O115 Sn7 2.209964 1_555
O116 Si17 1.652785 1_555
O116 Sn6 1.982571 1_555
O117 Si18 1.647459 1_555
O117 Sn7 1.995559 1_555
O118 Si20 1.704475 1_555
O118 Sn6 2.038392 1_555
O119 Si19 1.687591 1_655
O119 Sn7 2.069911 1_555
O120 Si11 1.643627 1_555
O121 Si12 1.642428 1_555
O122 S8 1.472510 1_455
O123 S7 1.476475 1_555
O124 S9 1.466614 1_565
O125 S10 1.464000 1_565
O126 Si8 1.662051 1_565
O127 Si9 1.630631 1_565
O128 S6 1.473928 1_555
O129 Si10 1.644022 1_555
O130 S5 1.480473 1_455
O131 S4 1.478138 1_555
O132 S0 1.478113 1_565
O132 Sn8 2.183001 1_555
O133 S1 1.477488 1_565
O133 Sn9 2.177090 1_555
O134 Si0 1.652128 1_555
O134 Sn8 2.023502 1_555
O135 Si1 1.653085 1_555
O135 Sn9 2.031301 1_555
O136 Si2 1.683542 1_455
O136 Sn8 2.026946 1_555
O137 Si3 1.683238 1_555
O137 Sn9 2.029055 1_555
O138 S2 1.476741 1_555
O138 Sn10 2.190029 1_555
O139 S3 1.488465 1_555
O139 Sn11 2.212346 1_555
O140 Si4 1.665018 1_455
O140 Sn10 1.994471 1_555
O141 Si5 1.676808 1_555
O141 Sn11 2.035489 1_555
O142 Si6 1.642988 1_555
O142 Sn10 2.034923 1_555
O143 Si7 1.679199 1_565
O143 Sn11 2.030192 1_555
