# generated using pymatgen
data_Na6Ta2In6Si5S7O48
_symmetry_space_group_name_H-M   'P 1'
_cell_length_a   17.96401552
_cell_length_b   9.04310524
_cell_length_c   23.31385696
_cell_angle_alpha   89.98011857
_cell_angle_beta   90.49176236
_cell_angle_gamma   120.25925555
_symmetry_Int_Tables_number   1
_chemical_formula_structural   Na6Ta2In6Si5S7O48
_chemical_formula_sum   'Na18 Ta6 In18 Si15 S21 O144'
_cell_volume   3271.18164522
_cell_formula_units_Z   3
loop_
 _symmetry_equiv_pos_site_id
 _symmetry_equiv_pos_as_xyz
  1  'x, y, z'
loop_
 _atom_site_type_symbol
 _atom_site_label
 _atom_site_symmetry_multiplicity
 _atom_site_fract_x
 _atom_site_fract_y
 _atom_site_fract_z
 _atom_site_occupancy
  Na  Na0  1  0.99062653  0.67870918  0.90904381  1
  Na  Na1  1  0.34916035  0.03453108  0.91375091  1
  Na  Na2  1  0.17118123  0.30428545  0.91104005  1
  Na  Na3  1  0.49046049  0.30360705  0.42079705  1
  Na  Na4  1  0.66999051  0.03521941  0.41566101  1
  Na  Na5  1  0.84637860  0.66187010  0.41797909  1
  Na  Na6  1  0.99968761  0.99971439  0.49224001  1
  Na  Na7  1  0.49609291  0.99619281  0.49919923  1
  Na  Na8  1  0.99708179  0.00333097  0.99488139  1
  Na  Na9  1  0.49915139  0.99908012  0.98906255  1
  Na  Na10  1  0.33869761  0.34715717  0.83864035  1
  Na  Na11  1  0.82681779  0.32096105  0.81768227  1
  Na  Na12  1  0.32934598  0.33681413  0.32242583  1
  Na  Na13  1  0.83537462  0.32568248  0.34502083  1
  Na  Na14  1  0.17324215  0.67473207  0.16799410  1
  Na  Na15  1  0.66535321  0.66880221  0.16782282  1
  Na  Na16  1  0.16898224  0.66467630  0.66653671  1
  Na  Na17  1  0.65991166  0.65441966  0.65932305  1
  Ta  Ta0  1  0.99560688  0.98725586  0.65491245  1
  Ta  Ta1  1  0.50043281  0.01784222  0.64278329  1
  Ta  Ta2  1  0.00089250  0.99764156  0.14724996  1
  Ta  Ta3  1  0.49483279  0.00281094  0.15454524  1
  Ta  Ta4  1  0.16590393  0.67628632  0.31163733  1
  Ta  Ta5  1  0.66283934  0.65050527  0.80846047  1
  In  In0  1  0.00158316  0.99438748  0.35558134  1
  In  In1  1  0.49848540  0.00812738  0.34636967  1
  In  In2  1  0.99893107  0.98820807  0.84515444  1
  In  In3  1  0.50187037  0.00892547  0.85310903  1
  In  In4  1  0.33919669  0.34897129  0.67683873  1
  In  In5  1  0.83230966  0.33070264  0.68950770  1
  In  In6  1  0.33279805  0.33360073  0.19040506  1
  In  In7  1  0.83218418  0.32165356  0.18017707  1
  In  In8  1  0.34618972  0.35444332  0.97632625  1
  In  In9  1  0.82662215  0.30625071  0.98528476  1
  In  In10  1  0.33617089  0.35132600  0.49213480  1
  In  In11  1  0.84371779  0.33347355  0.47797874  1
  In  In12  1  0.17223937  0.68394056  0.00979155  1
  In  In13  1  0.66785223  0.67171587  0.01903968  1
  In  In14  1  0.16777779  0.66424993  0.51999116  1
  In  In15  1  0.66632248  0.65172222  0.51442265  1
  In  In16  1  0.66772523  0.65083435  0.31530078  1
  In  In17  1  0.17045298  0.68703000  0.81282111  1
  Si  Si0  1  0.14247541  -0.00022328  0.25184093  1
  Si  Si1  1  0.35217229  0.70624157  0.25411483  1
  Si  Si2  1  0.50575822  0.31058984  0.25248642  1
  Si  Si3  1  0.64280652  0.28128183  0.75158074  1
  Si  Si4  1  0.00511437  0.69915024  0.75243831  1
  Si  Si5  1  0.85293295  0.99849781  0.75448075  1
  Si  Si6  1  0.48593779  0.34686432  0.58078668  1
  Si  Si7  1  0.32939329  0.63269018  0.58613335  1
  Si  Si8  1  0.83114928  0.03020827  0.08461706  1
  Si  Si9  1  0.31291627  0.66956720  0.91351558  1
  Si  Si10  1  0.52691529  0.38004043  0.91877630  1
  Si  Si11  1  0.16247198  0.96516771  0.91931828  1
  Si  Si12  1  0.81003132  0.95000297  0.41438893  1
  Si  Si13  1  0.66370374  0.35925995  0.41670434  1
  Si  Si14  1  0.02558727  0.67026362  0.41906678  1
  S  S0  1  0.64804884  0.00372905  0.24778948  1
  S  S1  1  0.85551716  0.70320180  0.24458566  1
  S  S2  1  0.00051033  0.29018977  0.24980288  1
  S  S3  1  0.14987114  0.29335640  0.74785153  1
  S  S4  1  0.49976595  0.70875096  0.75148435  1
  S  S5  1  0.35500376  0.00575862  0.74533016  1
  S  S6  1  0.97989166  0.32328218  0.58693017  1
  S  S7  1  0.17908383  0.03540175  0.58565060  1
  S  S8  1  0.68419056  0.03853878  0.58449564  1
  S  S9  1  0.83815394  0.63513562  0.58522530  1
  S  S10  1  0.48003699  0.63634966  0.08675097  1
  S  S11  1  0.98306162  0.63391384  0.08424510  1
  S  S12  1  0.33537052  0.03693230  0.08507034  1
  S  S13  1  0.18244846  0.33355056  0.08439463  1
  S  S14  1  0.68110595  0.32663535  0.08541639  1
  S  S15  1  0.81101942  0.65914927  0.91746693  1
  S  S16  1  0.01538246  0.37028500  0.91822698  1
  S  S17  1  0.66905176  0.95739376  0.91440613  1
  S  S18  1  0.30981720  0.96041800  0.41549333  1
  S  S19  1  0.17147940  0.38365009  0.41464368  1
  S  S20  1  0.51443079  0.66282591  0.41581346  1
  O  O0  1  0.09919773  0.03059791  0.30582586  1
  O  O1  1  0.61146156  0.02001047  0.30189566  1
  O  O2  1  0.41099673  0.78797714  0.30960856  1
  O  O3  1  0.90250699  0.77367216  0.29881228  1
  O  O4  1  0.49325916  0.21080692  0.31215571  1
  O  O5  1  0.98621561  0.19055158  0.30139420  1
  O  O6  1  0.11366139  0.20352235  0.80280411  1
  O  O7  1  0.60382189  0.17356620  0.80828579  1
  O  O8  1  0.48923630  0.78406476  0.80428341  1
  O  O9  1  0.99285414  0.77080849  0.81347284  1
  O  O10  1  0.40080433  0.02625486  0.80064646  1
  O  O11  1  0.91149245  0.03632759  0.81072968  1
  O  O12  1  0.40631547  0.99520156  0.69641732  1
  O  O13  1  0.90387165  0.97069917  0.69760755  1
  O  O14  1  0.08960152  0.18713765  0.69837886  1
  O  O15  1  0.58137256  0.18667482  0.69525369  1
  O  O16  1  0.01158992  0.83508004  0.69858462  1
  O  O17  1  0.51136543  0.81204076  0.70000569  1
  O  O18  1  0.40363134  0.83626338  0.19676367  1
  O  O19  1  0.90712739  0.82074010  0.19512264  1
  O  O20  1  0.00997187  0.19980665  0.19781519  1
  O  O21  1  0.51214256  0.18897875  0.19730960  1
  O  O22  1  0.08079209  0.97143641  0.19413038  1
  O  O23  1  0.58995558  0.99200292  0.19722634  1
  O  O24  1  0.44086193  0.35820660  0.63828497  1
  O  O25  1  0.93678073  0.34642746  0.63617328  1
  O  O26  1  0.23285378  0.11734931  0.63686392  1
  O  O27  1  0.73911812  0.12641451  0.63448348  1
  O  O28  1  0.30816206  0.51362492  0.64197590  1
  O  O29  1  0.82989549  0.52787297  0.63436186  1
  O  O30  1  0.43711067  0.52695130  0.13612560  1
  O  O31  1  0.93924534  0.53173816  0.13495953  1
  O  O32  1  0.32710720  0.12669833  0.13455260  1
  O  O33  1  0.81619288  0.11222116  0.14151897  1
  O  O34  1  0.23754676  0.35779662  0.13460123  1
  O  O35  1  0.73604521  0.35543494  0.13645248  1
  O  O36  1  0.21340007  0.29676333  0.03124117  1
  O  O37  1  0.71913333  0.30113043  0.03230819  1
  O  O38  1  0.42865639  0.56782136  0.03298981  1
  O  O39  1  0.93148824  0.56476627  0.03064144  1
  O  O40  1  0.34845173  0.12948242  0.03048340  1
  O  O41  1  0.85870918  0.15132311  0.02787583  1
  O  O42  1  0.21555364  0.13633973  0.53235526  1
  O  O43  1  0.71680276  0.13965225  0.53096954  1
  O  O44  1  0.35453077  0.57188841  0.52719316  1
  O  O45  1  0.85174380  0.56829937  0.53042061  1
  O  O46  1  0.42947631  0.29646090  0.52064543  1
  O  O47  1  0.92865434  0.28889468  0.53295721  1
  O  O48  1  0.28101573  0.71731149  0.97353871  1
  O  O49  1  0.77422236  0.68081320  0.96965822  1
  O  O50  1  0.06792322  0.44555185  0.97160454  1
  O  O51  1  0.58054791  0.46530224  0.97664845  1
  O  O52  1  0.12877981  0.83256628  0.97393692  1
  O  O53  1  0.66440305  0.87211329  0.96904884  1
  O  O54  1  0.27175879  0.86416999  0.46755837  1
  O  O55  1  0.77182595  0.83190912  0.47182858  1
  O  O56  1  0.16373469  0.46077068  0.46797442  1
  O  O57  1  0.63282932  0.43037942  0.46978163  1
  O  O58  1  0.08144882  0.69293042  0.47543862  1
  O  O59  1  0.56740716  0.69204920  0.46831610  1
  O  O60  1  0.07907084  0.65179311  0.36227006  1
  O  O61  1  0.55414035  0.63798467  0.36393469  1
  O  O62  1  0.25715641  0.86122822  0.36249402  1
  O  O63  1  0.74757151  0.87519249  0.35696835  1
  O  O64  1  0.17909458  0.49109475  0.36274636  1
  O  O65  1  0.68815087  0.47811120  0.35975454  1
  O  O66  1  0.05563108  0.47539595  0.86699306  1
  O  O67  1  0.58068067  0.50651140  0.86286318  1
  O  O68  1  0.18467693  0.88557766  0.86429567  1
  O  O69  1  0.67746968  0.86549097  0.86351143  1
  O  O70  1  0.24564633  0.61859052  0.85905996  1
  O  O71  1  0.75817337  0.64423668  0.86475454  1
  O  O72  1  0.01052152  0.83277351  0.41545483  1
  O  O73  1  0.50568939  0.81724760  0.41086494  1
  O  O74  1  0.39743328  0.98343624  0.41096581  1
  O  O75  1  0.90494006  0.96572579  0.40913276  1
  O  O76  1  0.09149530  0.21460750  0.40977487  1
  O  O77  1  0.58015228  0.16004405  0.41217459  1
  O  O78  1  0.00458877  0.19729277  0.91348065  1
  O  O79  1  0.51080456  0.18672278  0.91514920  1
  O  O80  1  0.07974602  0.99926922  0.91263390  1
  O  O81  1  0.59077024  0.96983464  0.91084031  1
  O  O82  1  0.40698643  0.84244086  0.90730133  1
  O  O83  1  0.89931113  0.81147884  0.91257564  1
  O  O84  1  0.49397752  0.16764147  0.59115338  1
  O  O85  1  0.98985031  0.16769991  0.59563824  1
  O  O86  1  0.09170202  0.02281006  0.59333179  1
  O  O87  1  0.59543868  0.01847241  0.59434422  1
  O  O88  1  0.41853383  0.82138668  0.60078645  1
  O  O89  1  0.91989986  0.81235836  0.59388277  1
  O  O90  1  0.49029226  0.81215521  0.09545489  1
  O  O91  1  0.99194939  0.81128548  0.09219536  1
  O  O92  1  0.41606726  0.02040253  0.09370559  1
  O  O93  1  0.91874522  0.01164910  0.09874587  1
  O  O94  1  0.09322655  0.17254963  0.09564537  1
  O  O95  1  0.59494031  0.16350573  0.09297165  1
  O  O96  1  0.34431848  0.15700246  0.73855247  1
  O  O97  1  0.83555205  0.15096969  0.74226635  1
  O  O98  1  0.23356948  0.30179699  0.74087441  1
  O  O99  1  0.73944422  0.32561066  0.74254739  1
  O  O100  1  0.42658606  0.53123028  0.74687386  1
  O  O101  1  0.91887177  0.52049456  0.74230270  1
  O  O102  1  0.33514057  0.51899928  0.24190977  1
  O  O103  1  0.84895578  0.53508747  0.23486888  1
  O  O104  1  0.41943759  0.31609543  0.24195809  1
  O  O105  1  0.92890068  0.32333825  0.24098009  1
  O  O106  1  0.23800468  0.15107033  0.24151849  1
  O  O107  1  0.73241850  0.16460904  0.24206813  1
  O  O108  1  0.31678015  0.49375429  0.92002443  1
  O  O109  1  0.82025007  0.50245971  0.92024926  1
  O  O110  1  0.43066503  0.35855546  0.91483414  1
  O  O111  1  0.93034566  0.36540880  0.92341404  1
  O  O112  1  0.25020813  0.15025137  0.92875251  1
  O  O113  1  0.74856647  0.13361415  0.91458264  1
  O  O114  1  0.31475251  0.12921323  0.41475625  1
  O  O115  1  0.81651522  0.13583351  0.42121872  1
  O  O116  1  0.24978994  0.36648446  0.41666466  1
  O  O117  1  0.75110334  0.34739043  0.42629594  1
  O  O118  1  0.42839051  0.50131508  0.42058758  1
  O  O119  1  0.92977970  0.49926999  0.41609508  1
  O  O120  1  0.16623704  0.47857348  0.07993717  1
  O  O121  1  0.66774672  0.47324622  0.08133864  1
  O  O122  1  0.07007559  0.65608230  0.08152896  1
  O  O123  1  0.56723681  0.65885390  0.08194820  1
  O  O124  1  0.25968899  0.85983601  0.08319175  1
  O  O125  1  0.74974365  0.83662291  0.07877179  1
  O  O126  1  0.16485667  0.86069355  0.58152320  1
  O  O127  1  0.67189778  0.86576045  0.57988356  1
  O  O128  1  0.24920758  0.66889957  0.58041544  1
  O  O129  1  0.76501498  0.66458952  0.58319527  1
  O  O130  1  0.06670671  0.47510186  0.58218926  1
  O  O131  1  0.58214678  0.51398945  0.57964174  1
  O  O132  1  0.14652965  0.81690760  0.25980043  1
  O  O133  1  0.65350821  0.84799695  0.24446621  1
  O  O134  1  0.25780170  0.69802478  0.26026858  1
  O  O135  1  0.77260492  0.69677455  0.24236973  1
  O  O136  1  0.08378492  0.46168227  0.25355848  1
  O  O137  1  0.59486450  0.49410823  0.24768130  1
  O  O138  1  0.15346246  0.45838674  0.74532949  1
  O  O139  1  0.64533342  0.47221339  0.75904583  1
  O  O140  1  0.09453032  0.69552724  0.74736652  1
  O  O141  1  0.58318933  0.69827867  0.75762310  1
  O  O142  1  0.27227389  0.84331871  0.74374119  1
  O  O143  1  0.75894291  0.81729014  0.76259434  1
loop_
_geom_bond_atom_site_label_1
_geom_bond_atom_site_label_2
_geom_bond_distance
_geom_bond_site_symmetry_2
Na0 O9 2.372018 1_555
Na0 O83 2.475189 1_555
Na0 O111 2.495089 1_555
Na0 O80 2.508793 1_655
Na0 O52 2.615524 1_655
Na0 O109 2.659549 1_555
Na0 O66 2.808883 1_655
Na1 O82 2.437342 1_545
Na1 O112 2.502575 1_555
Na1 O79 2.509553 1_555
Na1 O110 2.531002 1_555
Na1 O68 2.793903 1_545
Na1 O10 2.816318 1_555
Na1 O40 2.856074 1_556
Na1 O48 2.856218 1_545
Na2 O108 2.301078 1_555
Na2 O80 2.396333 1_545
Na2 O112 2.471579 1_555
Na2 O78 2.641993 1_555
Na2 O6 2.696933 1_555
Na2 O70 2.744123 1_555
Na2 O36 2.906610 1_556
Na3 O57 2.480970 1_555
Na3 O74 2.519073 1_545
Na3 O77 2.536891 1_555
Na3 O118 2.539474 1_555
Na3 O46 2.568181 1_555
Na3 O4 2.677366 1_555
Na3 O114 2.728670 1_555
Na3 O61 2.957462 1_555
Na4 O115 2.313771 1_555
Na4 O77 2.391443 1_555
Na4 O117 2.450025 1_555
Na4 O73 2.596230 1_545
Na4 O1 2.822371 1_555
Na4 O63 2.824117 1_545
Na4 O43 2.826395 1_555
Na4 O59 2.967515 1_545
Na5 O75 2.406171 1_555
Na5 O117 2.480803 1_555
Na5 O72 2.548872 1_655
Na5 O119 2.574899 1_555
Na5 O45 2.770124 1_555
Na5 O55 2.799983 1_555
Na5 O65 2.803269 1_555
Na5 O3 2.962464 1_555
Na6 O72 2.413628 1_655
Na6 O75 2.482358 1_555
Na6 O76 2.648490 1_665
Na6 O86 2.813554 1_665
Na6 O89 2.854549 1_555
Na6 O85 2.903512 1_565
Na7 O77 2.527373 1_565
Na7 O84 2.657867 1_565
Na7 O74 2.667858 1_555
Na7 O73 2.679383 1_555
Na7 O87 2.777758 1_565
Na7 O88 2.807795 1_555
Na8 O80 2.446885 1_645
Na8 O78 2.541647 1_655
Na8 O83 2.578813 1_545
Na8 O91 2.830434 1_546
Na8 O93 2.831052 1_556
Na8 O94 2.848269 1_656
Na9 O79 2.353465 1_565
Na9 O82 2.442388 1_555
Na9 O81 2.568078 1_555
Na9 O95 2.897038 1_566
Na9 O92 2.927369 1_566
Na9 O90 2.961068 1_556
Na10 O110 2.381951 1_555
Na10 O108 2.460312 1_555
Na10 O100 2.692131 1_555
Na10 O112 2.704299 1_555
Na10 O98 2.841835 1_555
Na10 O96 2.931539 1_555
Na11 O99 2.356483 1_555
Na11 O97 2.393501 1_555
Na11 O101 2.473729 1_555
Na11 O113 2.757103 1_555
Na11 O109 2.937438 1_555
Na11 O111 2.977456 1_555
Na12 O102 2.465193 1_555
Na12 O106 2.498627 1_555
Na12 O104 2.555726 1_555
Na12 O116 2.717045 1_555
Na12 O114 2.781664 1_555
Na12 O118 2.807305 1_555
Na13 O119 2.314412 1_555
Na13 O115 2.374893 1_555
Na13 O117 2.503935 1_555
Na13 O107 2.917976 1_555
Na13 O105 2.968598 1_555
Na14 O124 2.559878 1_555
Na14 O134 2.569348 1_555
Na14 O132 2.665668 1_555
Na14 O122 2.673538 1_555
Na14 O120 2.673987 1_555
Na14 O136 2.684357 1_555
Na15 O137 2.363853 1_555
Na15 O133 2.494015 1_555
Na15 O135 2.499651 1_555
Na15 O125 2.577755 1_555
Na15 O123 2.627308 1_555
Na15 O121 2.697255 1_555
Na16 O140 2.416087 1_555
Na16 O128 2.470609 1_555
Na16 O142 2.493229 1_555
Na16 O138 2.532685 1_555
Na16 O130 2.635809 1_555
Na16 O126 2.683907 1_555
Na17 O131 2.276919 1_555
Na17 O129 2.570162 1_555
Na17 O127 2.592040 1_555
Na17 O139 2.785984 1_555
Na17 O141 2.813318 1_555
Na17 O143 2.901577 1_555
In0 O0 1.995920 1_565
In0 O75 2.055097 1_455
In0 O72 2.083620 1_555
In0 O76 2.212704 1_565
In0 O3 2.298779 1_455
In0 O5 2.303261 1_465
In1 O2 1.998180 1_545
In1 O4 2.043415 1_555
In1 O77 2.079632 1_555
In1 O1 2.240930 1_555
In1 O74 2.291585 1_545
In1 O73 2.340349 1_545
In2 O11 1.991911 1_565
In2 O9 2.050812 1_555
In2 O80 2.099320 1_655
In2 O6 2.236749 1_665
In2 O83 2.321973 1_555
In2 O78 2.434847 1_665
In3 O7 1.986611 1_555
In3 O82 2.053677 1_545
In3 O79 2.107256 1_555
In3 O8 2.239240 1_545
In3 O81 2.240235 1_545
In3 O10 2.250615 1_555
In4 O28 2.004119 1_555
In4 O24 2.006170 1_555
In4 O26 2.200763 1_555
In4 O100 2.279733 1_555
In4 O98 2.289899 1_555
In4 O96 2.291116 1_555
In5 O101 2.039022 1_555
In5 O97 2.061759 1_555
In5 O99 2.066921 1_555
In5 O27 2.170017 1_555
In5 O25 2.204403 1_555
In5 O29 2.215716 1_555
In6 O104 2.026833 1_555
In6 O102 2.045475 1_555
In6 O106 2.060353 1_555
In6 O30 2.215196 1_555
In6 O34 2.237689 1_555
In6 O32 2.239070 1_555
In7 O33 1.982463 1_555
In7 O35 2.148589 1_555
In7 O31 2.184150 1_555
In7 O107 2.188305 1_555
In7 O103 2.202487 1_555
In7 O105 2.226964 1_555
In8 O108 2.060802 1_555
In8 O110 2.083251 1_555
In8 O112 2.091079 1_555
In8 O38 2.179539 1_556
In8 O40 2.411441 1_556
In8 O36 2.529714 1_556
In9 O41 2.020940 1_556
In9 O113 2.208243 1_555
In9 O37 2.208778 1_556
In9 O111 2.209001 1_555
In9 O109 2.379113 1_555
In9 O39 2.379342 1_556
In10 O44 2.022041 1_555
In10 O46 2.077547 1_555
In10 O42 2.267594 1_555
In10 O118 2.268877 1_555
In10 O116 2.385351 1_555
In10 O114 2.578485 1_555
In11 O115 2.072340 1_555
In11 O117 2.100519 1_555
In11 O119 2.102453 1_555
In11 O47 2.172436 1_555
In11 O45 2.390666 1_555
In11 O43 2.411601 1_555
In12 O48 2.014358 1_554
In12 O52 2.039662 1_554
In12 O50 2.202930 1_554
In12 O124 2.315973 1_555
In12 O122 2.411491 1_555
In12 O120 2.436016 1_555
In13 O51 1.986193 1_554
In13 O125 2.020548 1_555
In13 O53 2.181001 1_554
In13 O49 2.205164 1_554
In13 O123 2.294553 1_555
In13 O121 2.307727 1_555
In14 O58 1.982096 1_555
In14 O128 2.007175 1_555
In14 O56 2.174212 1_555
In14 O54 2.210457 1_555
In14 O130 2.288794 1_555
In14 O126 2.305104 1_555
In15 O55 2.037651 1_555
In15 O57 2.056364 1_555
In15 O131 2.071194 1_555
In15 O59 2.250756 1_555
In15 O129 2.339003 1_555
In15 O127 2.426858 1_555
In16 O63 2.040095 1_555
In16 O65 2.053873 1_555
In16 O137 2.074531 1_555
In16 O61 2.294159 1_555
In16 O135 2.424658 1_555
In16 O133 2.533975 1_555
In17 O70 2.046172 1_555
In17 O68 2.064726 1_555
In17 O140 2.065079 1_555
In17 O142 2.319600 1_555
In17 O66 2.361554 1_555
In17 O138 2.490417 1_555
O0 Si0 1.581641 1_555
O1 S0 1.468584 1_555
O2 Si1 1.589609 1_555
O3 S1 1.468686 1_555
O4 Si2 1.612502 1_555
O5 S2 1.447716 1_655
O6 S3 1.485077 1_555
O7 Si3 1.585716 1_555
O8 S4 1.466045 1_555
O9 Si4 1.625753 1_655
O10 S5 1.484154 1_555
O11 Si5 1.599161 1_545
O12 S5 1.505311 1_565
O12 Ta1 2.037462 1_565
O13 Si5 1.706320 1_555
O13 Ta0 1.873042 1_555
O14 S3 1.535060 1_555
O14 Ta0 2.010270 1_445
O15 Si3 1.642778 1_555
O15 Ta1 1.917041 1_555
O16 Si4 1.719951 1_555
O16 Ta0 1.845288 1_455
O17 S4 1.470934 1_555
O17 Ta1 2.375733 1_565
O18 Si1 1.717415 1_555
O18 Ta3 1.860415 1_565
O19 S1 1.530846 1_555
O19 Ta2 1.989315 1_655
O20 S2 1.519934 1_555
O20 Ta2 2.111003 1_545
O21 Si2 1.734359 1_555
O21 Ta3 1.842075 1_555
O22 Si0 1.670992 1_565
O22 Ta2 1.904351 1_555
O23 S0 1.535377 1_565
O23 Ta3 2.014626 1_565
O24 Si6 1.601748 1_555
O25 S6 1.463003 1_555
O26 S7 1.472133 1_555
O27 S8 1.467632 1_555
O28 Si7 1.610411 1_555
O29 S9 1.460245 1_555
O30 S10 1.464245 1_555
O31 S11 1.467478 1_555
O32 S12 1.461805 1_555
O33 Si8 1.609265 1_555
O34 S13 1.469495 1_555
O35 S14 1.476011 1_555
O36 S13 1.467651 1_555
O37 S14 1.492112 1_555
O38 S10 1.486992 1_555
O39 S11 1.485909 1_555
O40 S12 1.476978 1_555
O41 Si8 1.630457 1_555
O42 S7 1.488877 1_555
O43 S8 1.486082 1_555
O44 Si7 1.629681 1_555
O45 S9 1.487294 1_555
O46 Si6 1.646987 1_555
O47 S6 1.489691 1_555
O48 Si9 1.654266 1_555
O49 S15 1.449266 1_555
O50 S16 1.495231 1_555
O51 Si10 1.604020 1_555
O52 Si11 1.645122 1_555
O53 S17 1.469988 1_555
O54 S18 1.453332 1_555
O55 Si12 1.637351 1_555
O56 S19 1.467311 1_555
O57 Si13 1.619976 1_555
O58 Si14 1.595778 1_555
O59 S20 1.483424 1_555
O60 Si14 1.699441 1_555
O60 Ta4 1.886511 1_555
O61 S20 1.482801 1_555
O62 S18 1.533546 1_555
O62 Ta4 2.023620 1_555
O63 Si12 1.648806 1_555
O64 S19 1.514851 1_555
O64 Ta4 2.162010 1_555
O65 Si13 1.626094 1_555
O66 S16 1.474588 1_555
O67 Si10 1.687433 1_555
O67 Ta5 1.891205 1_555
O68 Si11 1.619092 1_555
O69 S17 1.500634 1_555
O69 Ta5 2.230914 1_555
O70 Si9 1.642339 1_555
O71 S15 1.510212 1_555
O71 Ta5 2.172058 1_555
O72 Si14 1.624935 1_555
O73 S20 1.486144 1_555
O74 S18 1.484720 1_555
O75 Si12 1.643570 1_555
O76 S19 1.482530 1_555
O77 Si13 1.667849 1_555
O78 S16 1.480268 1_555
O79 Si10 1.623840 1_555
O80 Si11 1.669046 1_555
O81 S17 1.467836 1_555
O82 Si9 1.631621 1_555
O83 S15 1.492399 1_555
O84 Si6 1.714957 1_555
O84 Ta1 1.858007 1_555
O85 S6 1.518410 1_555
O85 Ta0 2.179244 1_545
O86 S7 1.527662 1_555
O86 Ta0 2.151132 1_445
O87 S8 1.530440 1_555
O87 Ta1 2.052173 1_555
O88 Si7 1.682223 1_555
O88 Ta1 1.903064 1_565
O89 S9 1.545611 1_555
O89 Ta0 2.043548 1_555
O90 S10 1.518905 1_555
O90 Ta3 2.176024 1_565
O91 S11 1.540854 1_555
O91 Ta2 2.058737 1_655
O92 S12 1.541973 1_555
O92 Ta3 2.057062 1_555
O93 Si8 1.694118 1_555
O93 Ta2 1.905811 1_645
O94 S13 1.553260 1_555
O94 Ta2 2.022214 1_545
O95 S14 1.518673 1_555
O95 Ta3 2.194437 1_555
O96 S5 1.482016 1_555
O97 Si5 1.584867 1_545
O98 S3 1.476990 1_555
O99 Si3 1.588587 1_555
O100 S4 1.479068 1_555
O101 Si4 1.592991 1_655
O102 Si1 1.586947 1_555
O103 S1 1.481767 1_555
O104 Si2 1.593285 1_555
O105 S2 1.473444 1_655
O106 Si0 1.585983 1_555
O107 S0 1.487469 1_555
O108 Si9 1.632936 1_555
O109 S15 1.508652 1_555
O110 Si10 1.641492 1_555
O111 S16 1.511759 1_655
O112 Si11 1.633868 1_545
O113 S17 1.511841 1_545
O114 S18 1.483837 1_545
O115 Si12 1.632651 1_545
O116 S19 1.491397 1_555
O117 Si13 1.640237 1_555
O118 S20 1.504087 1_555
O119 Si14 1.635202 1_655
O120 S13 1.483183 1_555
O121 S14 1.464449 1_555
O122 S11 1.474252 1_455
O123 S10 1.479682 1_555
O124 S12 1.489885 1_565
O125 Si8 1.624318 1_565
O126 S7 1.470855 1_565
O127 S8 1.467501 1_565
O128 Si7 1.634608 1_555
O129 S9 1.466648 1_555
O130 S6 1.474543 1_455
O131 Si6 1.624851 1_555
O132 Si0 1.701592 1_565
O132 Ta4 1.906964 1_555
O133 S0 1.462305 1_565
O134 Si1 1.666516 1_555
O134 Ta4 1.976087 1_555
O135 S1 1.461473 1_555
O136 S2 1.519972 1_555
O136 Ta4 2.204115 1_555
O137 Si2 1.629315 1_555
O138 S3 1.462124 1_555
O139 Si3 1.713076 1_555
O139 Ta5 1.873425 1_555
O140 Si4 1.628330 1_555
O141 S4 1.553915 1_555
O141 Ta5 2.057227 1_555
O142 S5 1.472001 1_565
O143 Si5 1.669934 1_555
O143 Ta5 1.950660 1_555
