# generated using pymatgen
data_Na3HfTa(GeO4)3
_symmetry_space_group_name_H-M   'P 1'
_cell_length_a   9.37712940
_cell_length_b   9.39366835
_cell_length_c   23.10846161
_cell_angle_alpha   89.99999948
_cell_angle_beta   90.25725629
_cell_angle_gamma   120.05836081
_symmetry_Int_Tables_number   1
_chemical_formula_structural   Na3HfTa(GeO4)3
_chemical_formula_sum   'Na18 Hf6 Ta6 Ge18 O72'
_cell_volume   1761.75394641
_cell_formula_units_Z   6
loop_
 _symmetry_equiv_pos_site_id
 _symmetry_equiv_pos_as_xyz
  1  'x, y, z'
loop_
 _atom_site_type_symbol
 _atom_site_label
 _atom_site_symmetry_multiplicity
 _atom_site_fract_x
 _atom_site_fract_y
 _atom_site_fract_z
 _atom_site_occupancy
  Na  Na0  1  0.99034818  0.97895022  0.49798073  1
  Na  Na1  1  0.99034818  0.01139797  0.99798073  1
  Na  Na2  1  0.66637061  0.33491731  0.83132548  1
  Na  Na3  1  0.66637061  0.33145229  0.33132548  1
  Na  Na4  1  0.33095589  0.66480148  0.16469339  1
  Na  Na5  1  0.33095589  0.66615542  0.66469339  1
  Na  Na6  1  0.37119610  0.36713461  0.24922258  1
  Na  Na7  1  0.99283734  0.62986733  0.24867321  1
  Na  Na8  1  0.99283734  0.36297001  0.74867321  1
  Na  Na9  1  0.37119610  0.00406149  0.74922258  1
  Na  Na10  1  0.30196868  0.33991868  0.58222989  1
  Na  Na11  1  0.66328412  0.96368394  0.58189195  1
  Na  Na12  1  0.30196868  0.96204900  0.08222989  1
  Na  Na13  1  0.66328412  0.69959918  0.08189195  1
  Na  Na14  1  0.96958375  0.67473976  0.91524903  1
  Na  Na15  1  0.32937366  0.29540723  0.91575033  1
  Na  Na16  1  0.96958375  0.29484499  0.41524903  1
  Na  Na17  1  0.32937366  0.03396643  0.41575033  1
  Hf  Hf0  1  0.99702394  0.99792520  0.35424778  1
  Hf  Hf1  1  0.99702394  0.99909874  0.85424778  1
  Hf  Hf2  1  0.66659383  0.33694246  0.68763283  1
  Hf  Hf3  1  0.66659383  0.32964938  0.18763283  1
  Hf  Hf4  1  0.33037414  0.66221273  0.02103096  1
  Hf  Hf5  1  0.33037414  0.66816341  0.52103096  1
  Ta  Ta0  1  0.99934887  0.99845173  0.64517488  1
  Ta  Ta1  1  0.99934887  0.00089715  0.14517488  1
  Ta  Ta2  1  0.66681143  0.33009806  0.97844069  1
  Ta  Ta3  1  0.66681143  0.33671237  0.47844069  1
  Ta  Ta4  1  0.33536693  0.66847741  0.31177806  1
  Ta  Ta5  1  0.33536693  0.66688952  0.81177806  1
  Ge  Ge0  1  0.29129144  0.99813033  0.25079396  1
  Ge  Ge1  1  0.70662688  0.71274346  0.24879810  1
  Ge  Ge2  1  0.99870981  0.29021710  0.25152165  1
  Ge  Ge3  1  0.29129144  0.29316111  0.75079396  1
  Ge  Ge4  1  0.99870981  0.70849272  0.75152165  1
  Ge  Ge5  1  0.70662688  0.99388342  0.74879810  1
  Ge  Ge6  1  0.95781454  0.33485937  0.58418843  1
  Ge  Ge7  1  0.37319372  0.04182041  0.58398194  1
  Ge  Ge8  1  0.67264521  0.62685698  0.58309885  1
  Ge  Ge9  1  0.95781454  0.62295416  0.08418843  1
  Ge  Ge10  1  0.67264521  0.04578623  0.08309885  1
  Ge  Ge11  1  0.37319372  0.33137131  0.08398194  1
  Ge  Ge12  1  0.62480937  0.66876649  0.91876649  1
  Ge  Ge13  1  0.03866999  0.37476750  0.91531895  1
  Ge  Ge14  1  0.33962505  0.95941766  0.91693927  1
  Ge  Ge15  1  0.62480937  0.95604388  0.41876649  1
  Ge  Ge16  1  0.33962505  0.38020939  0.41693927  1
  Ge  Ge17  1  0.03866999  0.66390349  0.41531895  1
  O  O0  1  0.20273588  0.03257850  0.31172345  1
  O  O1  1  0.84025764  0.80615166  0.30673657  1
  O  O2  1  0.97700476  0.17995955  0.31439563  1
  O  O3  1  0.20273588  0.17015838  0.81172345  1
  O  O4  1  0.97700476  0.79704521  0.81439563  1
  O  O5  1  0.84025764  0.03410598  0.80673657  1
  O  O6  1  0.80336510  0.97030755  0.68607016  1
  O  O7  1  0.15859312  0.19576562  0.68943141  1
  O  O8  1  0.03107040  0.84630653  0.69263812  1
  O  O9  1  0.80336510  0.83305854  0.18607016  1
  O  O10  1  0.03107040  0.18476487  0.19263812  1
  O  O11  1  0.15859312  0.96282851  0.18943141  1
  O  O12  1  0.86637671  0.35621135  0.64628968  1
  O  O13  1  0.49569410  0.13092357  0.64527016  1
  O  O14  1  0.63136454  0.49518585  0.64137066  1
  O  O15  1  0.86637671  0.51016435  0.14628968  1
  O  O16  1  0.63136454  0.13617769  0.14137066  1
  O  O17  1  0.49569410  0.36476953  0.14527016  1
  O  O18  1  0.47261573  0.29906206  0.02298248  1
  O  O19  1  0.82633570  0.52679726  0.02285752  1
  O  O20  1  0.69673142  0.17354084  0.02227953  1
  O  O21  1  0.47261573  0.17355167  0.52298248  1
  O  O22  1  0.69673142  0.52318958  0.52227953  1
  O  O23  1  0.82633570  0.29953744  0.52285752  1
  O  O24  1  0.53757229  0.69296760  0.98140450  1
  O  O25  1  0.17073857  0.47227153  0.97364043  1
  O  O26  1  0.30327188  0.83703320  0.97790056  1
  O  O27  1  0.53757229  0.84460568  0.48140450  1
  O  O28  1  0.30327188  0.46624068  0.47790056  1
  O  O29  1  0.17073857  0.69846804  0.47364043  1
  O  O30  1  0.13379563  0.62915602  0.35358121  1
  O  O31  1  0.48633203  0.85237118  0.35942289  1
  O  O32  1  0.36089279  0.50234363  0.35494892  1
  O  O33  1  0.13379563  0.50464160  0.85358121  1
  O  O34  1  0.36089279  0.85855016  0.85494892  1
  O  O35  1  0.48633203  0.63396185  0.85942289  1
  O  O36  1  0.02876592  0.84400020  0.41218614  1
  O  O37  1  0.82644777  0.99484089  0.41342838  1
  O  O38  1  0.16604752  0.18165758  0.41299234  1
  O  O39  1  0.02876592  0.18476572  0.91218614  1
  O  O40  1  0.16604752  0.98438994  0.91299234  1
  O  O41  1  0.82644777  0.83160688  0.91342838  1
  O  O42  1  0.96885539  0.15011636  0.58755038  1
  O  O43  1  0.18354308  0.03913851  0.58878127  1
  O  O44  1  0.84777873  0.82463679  0.58788187  1
  O  O45  1  0.96885539  0.81874004  0.08755038  1
  O  O46  1  0.84777873  0.02314194  0.08788187  1
  O  O47  1  0.18354308  0.14440457  0.08878127  1
  O  O48  1  0.68174021  0.16712543  0.74590105  1
  O  O49  1  0.48140080  0.30306634  0.74595707  1
  O  O50  1  0.83627347  0.50644816  0.74688728  1
  O  O51  1  0.68174021  0.51461377  0.24590105  1
  O  O52  1  0.83627347  0.32982431  0.24688728  1
  O  O53  1  0.48140080  0.17833247  0.24595707  1
  O  O54  1  0.63347389  0.48319585  0.92158999  1
  O  O55  1  0.85039815  0.37393860  0.92147119  1
  O  O56  1  0.51287523  0.16002300  0.92086737  1
  O  O57  1  0.63347389  0.15027704  0.42158999  1
  O  O58  1  0.51287523  0.35285124  0.42086737  1
  O  O59  1  0.85039815  0.47645856  0.42147119  1
  O  O60  1  0.36126594  0.51034278  0.07988374  1
  O  O61  1  0.16057973  0.66324261  0.08004683  1
  O  O62  1  0.49828447  0.84899596  0.07886324  1
  O  O63  1  0.36126594  0.85092317  0.57988374  1
  O  O64  1  0.49828447  0.64928951  0.57886324  1
  O  O65  1  0.16057973  0.49733812  0.58004683  1
  O  O66  1  0.29474940  0.81183163  0.25531024  1
  O  O67  1  0.50805954  0.68885536  0.25516587  1
  O  O68  1  0.18458895  0.48474941  0.25356243  1
  O  O69  1  0.29474940  0.48291877  0.75531024  1
  O  O70  1  0.18458895  0.69984054  0.75356243  1
  O  O71  1  0.50805954  0.81920517  0.75516587  1
loop_
_geom_bond_atom_site_label_1
_geom_bond_atom_site_label_2
_geom_bond_distance
_geom_bond_site_symmetry_2
Na0 O36 2.476147 1_655
Na0 O44 2.507598 1_555
Na0 O37 2.530785 1_555
Na0 O43 2.635166 1_665
Na0 O38 2.661521 1_665
Na0 O42 2.690428 1_565
Na1 O39 2.476147 1_655
Na1 O46 2.507598 1_556
Na1 O41 2.530785 1_545
Na1 O47 2.635166 1_656
Na1 O40 2.661521 1_645
Na1 O45 2.690422 1_546
Na2 O50 2.529461 1_555
Na2 O49 2.537526 1_555
Na2 O48 2.575271 1_555
Na2 O56 2.590404 1_555
Na2 O55 2.604941 1_555
Na2 O54 2.611963 1_555
Na3 O52 2.529461 1_555
Na3 O53 2.537528 1_555
Na3 O51 2.575271 1_555
Na3 O58 2.590404 1_555
Na3 O59 2.604941 1_555
Na3 O57 2.611962 1_555
Na4 O61 2.515414 1_555
Na4 O60 2.538701 1_555
Na4 O68 2.581016 1_555
Na4 O62 2.588033 1_555
Na4 O67 2.602482 1_555
Na4 O66 2.623716 1_555
Na5 O65 2.515414 1_555
Na5 O63 2.538695 1_555
Na5 O70 2.581016 1_555
Na5 O64 2.588034 1_555
Na5 O71 2.602482 1_555
Na5 O69 2.623716 1_555
Na6 O53 2.460853 1_555
Na6 O68 2.496182 1_555
Na6 O51 2.523021 1_555
Na6 O67 2.629119 1_555
Na6 O17 2.680491 1_555
Na6 O32 2.777887 1_555
Na7 O52 2.440349 1_555
Na7 O66 2.471559 1_655
Na7 O51 2.553571 1_555
Na7 O15 2.628163 1_555
Na7 O68 2.749139 1_655
Na7 O30 2.757586 1_655
Na8 O50 2.440341 1_555
Na8 O69 2.471558 1_655
Na8 O48 2.553572 1_555
Na8 O12 2.628162 1_555
Na8 O70 2.749147 1_655
Na8 O33 2.757590 1_655
Na9 O49 2.460836 1_555
Na9 O70 2.496174 1_545
Na9 O48 2.523021 1_555
Na9 O71 2.629111 1_545
Na9 O13 2.680489 1_555
Na9 O34 2.777882 1_545
Na10 O65 2.431142 1_555
Na10 O43 2.469316 1_555
Na10 O64 2.546072 1_555
Na10 O28 2.684467 1_555
Na10 O42 2.715789 1_455
Na10 O7 2.825628 1_555
Na11 O63 2.477584 1_555
Na11 O42 2.502837 1_565
Na11 O64 2.557813 1_555
Na11 O27 2.586024 1_555
Na11 O44 2.641923 1_555
Na11 O6 2.722976 1_555
Na12 O61 2.431126 1_555
Na12 O47 2.469325 1_565
Na12 O62 2.546058 1_555
Na12 O26 2.684455 1_554
Na12 O45 2.715791 1_455
Na12 O11 2.825633 1_555
Na13 O60 2.477583 1_555
Na13 O45 2.502834 1_555
Na13 O62 2.557829 1_555
Na13 O24 2.586028 1_554
Na13 O46 2.641931 1_565
Na13 O9 2.722980 1_555
Na14 O41 2.440380 1_555
Na14 O55 2.468159 1_555
Na14 O40 2.547590 1_655
Na14 O4 2.584127 1_555
Na14 O54 2.741471 1_555
Na14 O19 2.842380 1_556
Na15 O39 2.468984 1_555
Na15 O54 2.493781 1_555
Na15 O40 2.530233 1_545
Na15 O56 2.604338 1_555
Na15 O3 2.673557 1_555
Na15 O18 2.805283 1_556
Na16 O37 2.440388 1_545
Na16 O59 2.468142 1_555
Na16 O38 2.547597 1_655
Na16 O2 2.584132 1_555
Na16 O57 2.741469 1_555
Na16 O23 2.842376 1_555
Na17 O36 2.468984 1_545
Na17 O57 2.493782 1_555
Na17 O38 2.530233 1_555
Na17 O58 2.604330 1_555
Na17 O0 2.673559 1_555
Na17 O21 2.805279 1_555
Hf0 O1 1.986019 1_555
Hf0 O2 2.031588 1_565
Hf0 O0 2.044649 1_665
Hf0 O36 2.097475 1_655
Hf0 O37 2.098276 1_555
Hf0 O38 2.138698 1_665
Hf1 O5 1.986019 1_565
Hf1 O4 2.031588 1_555
Hf1 O3 2.044652 1_665
Hf1 O39 2.097475 1_665
Hf1 O41 2.098276 1_555
Hf1 O40 2.138698 1_655
Hf2 O14 1.987558 1_555
Hf2 O12 2.032604 1_555
Hf2 O13 2.037359 1_555
Hf2 O50 2.093892 1_555
Hf2 O49 2.097837 1_555
Hf2 O48 2.145491 1_555
Hf3 O16 1.987551 1_555
Hf3 O15 2.032607 1_555
Hf3 O17 2.037365 1_555
Hf3 O52 2.093889 1_555
Hf3 O53 2.097837 1_555
Hf3 O51 2.145498 1_555
Hf4 O25 1.983253 1_554
Hf4 O24 2.037304 1_554
Hf4 O26 2.042206 1_554
Hf4 O60 2.092650 1_555
Hf4 O61 2.104740 1_555
Hf4 O62 2.134778 1_555
Hf5 O29 1.983248 1_555
Hf5 O27 2.037301 1_555
Hf5 O28 2.042206 1_555
Hf5 O63 2.092636 1_555
Hf5 O65 2.104744 1_555
Hf5 O64 2.134782 1_555
Ge0 O53 1.742037 1_565
Ge0 O0 1.748252 1_565
Ge0 O66 1.769564 1_555
Ge0 O11 1.799950 1_555
Ge1 O1 1.736711 1_555
Ge1 O51 1.757167 1_555
Ge1 O67 1.767178 1_555
Ge1 O9 1.784987 1_555
Ge2 O2 1.736838 1_555
Ge2 O52 1.742481 1_555
Ge2 O68 1.785530 1_655
Ge2 O10 1.797135 1_655
Ge3 O49 1.742046 1_555
Ge3 O3 1.748248 1_555
Ge3 O69 1.769574 1_555
Ge3 O7 1.799949 1_555
Ge4 O4 1.736838 1_555
Ge4 O50 1.742487 1_555
Ge4 O70 1.785525 1_655
Ge4 O8 1.797140 1_655
Ge5 O5 1.736711 1_565
Ge5 O48 1.757158 1_565
Ge5 O71 1.767174 1_555
Ge5 O6 1.784984 1_555
Ge6 O12 1.737281 1_555
Ge6 O65 1.745952 1_655
Ge6 O42 1.791182 1_555
Ge6 O23 1.792558 1_555
Ge7 O63 1.742446 1_545
Ge7 O13 1.745898 1_555
Ge7 O43 1.769874 1_555
Ge7 O21 1.800977 1_555
Ge8 O14 1.737241 1_555
Ge8 O64 1.752405 1_555
Ge8 O44 1.761477 1_555
Ge8 O22 1.788234 1_555
Ge9 O15 1.737281 1_555
Ge9 O61 1.745946 1_655
Ge9 O45 1.791201 1_555
Ge9 O19 1.792558 1_555
Ge10 O16 1.737247 1_555
Ge10 O62 1.752389 1_545
Ge10 O46 1.761466 1_555
Ge10 O20 1.788240 1_555
Ge11 O60 1.742465 1_555
Ge11 O17 1.745896 1_555
Ge11 O47 1.769865 1_555
Ge11 O18 1.800977 1_555
Ge12 O24 1.735787 1_555
Ge12 O41 1.742096 1_555
Ge12 O54 1.786449 1_555
Ge12 O35 1.797870 1_555
Ge13 O39 1.741641 1_555
Ge13 O25 1.742890 1_555
Ge13 O55 1.767927 1_455
Ge13 O33 1.800194 1_555
Ge14 O26 1.741865 1_555
Ge14 O40 1.758914 1_555
Ge14 O56 1.769304 1_565
Ge14 O34 1.783671 1_555
Ge15 O27 1.735787 1_555
Ge15 O37 1.742099 1_555
Ge15 O57 1.786430 1_565
Ge15 O31 1.797870 1_555
Ge16 O28 1.741865 1_555
Ge16 O38 1.758926 1_555
Ge16 O58 1.769321 1_555
Ge16 O32 1.783665 1_555
Ge17 O36 1.741632 1_555
Ge17 O29 1.742890 1_555
Ge17 O59 1.767937 1_455
Ge17 O30 1.800190 1_555
O6 Ta0 1.967035 1_555
O7 Ta0 1.981123 1_445
O8 Ta0 1.938303 1_455
O9 Ta1 1.967032 1_565
O10 Ta1 1.938311 1_455
O11 Ta1 1.981117 1_465
O18 Ta2 1.986321 1_554
O19 Ta2 1.980560 1_554
O20 Ta2 1.917960 1_554
O21 Ta3 1.986324 1_555
O22 Ta3 1.917960 1_555
O23 Ta3 1.980560 1_555
O30 Ta4 1.989800 1_555
O31 Ta4 1.933006 1_555
O32 Ta4 1.964707 1_555
O33 Ta5 1.989794 1_555
O34 Ta5 1.964715 1_555
O35 Ta5 1.933001 1_555
O42 Ta0 2.071079 1_545
O43 Ta0 2.046094 1_445
O44 Ta0 2.024157 1_555
O45 Ta1 2.071072 1_565
O46 Ta1 2.024157 1_555
O47 Ta1 2.046094 1_455
O54 Ta2 2.082925 1_555
O55 Ta2 2.043642 1_555
O56 Ta2 2.019564 1_555
O57 Ta3 2.082925 1_555
O58 Ta3 2.019564 1_555
O59 Ta3 2.043642 1_555
O66 Ta4 2.042185 1_555
O67 Ta4 2.019630 1_555
O68 Ta4 2.079878 1_555
O69 Ta5 2.042178 1_555
O70 Ta5 2.079882 1_555
O71 Ta5 2.019633 1_555
