# generated using pymatgen
data_Na2Zr4Si5Ge4S7O48
_symmetry_space_group_name_H-M   'P 1'
_cell_length_a   17.50387400
_cell_length_b   8.67873498
_cell_length_c   22.84416605
_cell_angle_alpha   89.91248932
_cell_angle_beta   91.41202183
_cell_angle_gamma   119.93673929
_symmetry_Int_Tables_number   1
_chemical_formula_structural   Na2Zr4Si5Ge4S7O48
_chemical_formula_sum   'Na6 Zr12 Si15 Ge12 S21 O144'
_cell_volume   3006.12873535
_cell_formula_units_Z   3
loop_
 _symmetry_equiv_pos_site_id
 _symmetry_equiv_pos_as_xyz
  1  'x, y, z'
loop_
 _atom_site_type_symbol
 _atom_site_label
 _atom_site_symmetry_multiplicity
 _atom_site_fract_x
 _atom_site_fract_y
 _atom_site_fract_z
 _atom_site_occupancy
  Na  Na0  1  0.99335602  0.00143122  0.49957984  1
  Na  Na1  1  0.49277414  0.98794852  0.99501611  1
  Na  Na2  1  0.34226813  0.34974011  0.83014727  1
  Na  Na3  1  0.83273086  0.34394746  0.83042124  1
  Na  Na4  1  0.33589376  0.32688042  0.33185833  1
  Na  Na5  1  0.83550068  0.33319042  0.33410767  1
  Zr  Zr0  1  0.99701500  0.97953579  0.35743434  1
  Zr  Zr1  1  0.49466778  0.99948896  0.85257669  1
  Zr  Zr2  1  0.00367029  0.99863451  0.64876981  1
  Zr  Zr3  1  0.50293124  0.00906856  0.14750329  1
  Zr  Zr4  1  0.84294289  0.35499634  0.68997643  1
  Zr  Zr5  1  0.34428560  0.33087672  0.18936216  1
  Zr  Zr6  1  0.33597628  0.35358134  0.97397585  1
  Zr  Zr7  1  0.84570834  0.32896737  0.97872014  1
  Zr  Zr8  1  0.34545320  0.36335811  0.48112356  1
  Zr  Zr9  1  0.83386788  0.31510852  0.47602813  1
  Zr  Zr10  1  0.15913513  0.67631704  0.30736583  1
  Zr  Zr11  1  0.65406224  0.63923093  0.80403672  1
  Si  Si0  1  0.13965940  0.01270951  0.24546587  1
  Si  Si1  1  0.51048402  0.29737072  0.25865908  1
  Si  Si2  1  0.63953098  0.26620984  0.74475232  1
  Si  Si3  1  0.01034189  0.72293035  0.75891176  1
  Si  Si4  1  0.49240872  0.70643963  0.74692645  1
  Si  Si5  1  0.98387814  0.33536331  0.58357411  1
  Si  Si6  1  0.33487423  0.64134513  0.58676726  1
  Si  Si7  1  0.48526251  0.63223370  0.08304878  1
  Si  Si8  1  0.83397866  0.03073760  0.08653487  1
  Si  Si9  1  0.30336096  0.67141545  0.91333308  1
  Si  Si10  1  0.02679173  0.36888785  0.91190815  1
  Si  Si11  1  0.52953293  0.38457186  0.92230203  1
  Si  Si12  1  0.80084592  0.93322465  0.41372676  1
  Si  Si13  1  0.02893672  0.66485946  0.42321146  1
  Si  Si14  1  0.52521454  0.68296511  0.41299935  1
  Ge  Ge0  1  0.49772687  0.00761141  0.35978360  1
  Ge  Ge1  1  0.99649230  0.98835678  0.85874356  1
  Ge  Ge2  1  0.49862947  0.98484775  0.64969993  1
  Ge  Ge3  1  0.00040224  0.99845789  0.14295605  1
  Ge  Ge4  1  0.34050560  0.35671021  0.68136957  1
  Ge  Ge5  1  0.83262974  0.32311661  0.17941168  1
  Ge  Ge6  1  0.16794179  0.64328805  0.01111862  1
  Ge  Ge7  1  0.66077240  0.67181364  0.02672287  1
  Ge  Ge8  1  0.16072825  0.65787662  0.53099831  1
  Ge  Ge9  1  0.66563329  0.69208953  0.51487729  1
  Ge  Ge10  1  0.65373593  0.66295504  0.31770143  1
  Ge  Ge11  1  0.15683329  0.64624245  0.81516259  1
  S  S0  1  0.65146522  0.00564151  0.25264230  1
  S  S1  1  0.35866671  0.71634309  0.25376762  1
  S  S2  1  0.85118474  0.69578129  0.24394548  1
  S  S3  1  0.99279298  0.28152417  0.24525038  1
  S  S4  1  0.14936776  0.29513683  0.75366877  1
  S  S5  1  0.34840836  0.00179475  0.74494293  1
  S  S6  1  0.85998457  0.00144826  0.75390160  1
  S  S7  1  0.48503704  0.33753621  0.58548925  1
  S  S8  1  0.19474142  0.04683615  0.58362628  1
  S  S9  1  0.68209650  0.03091955  0.58292907  1
  S  S10  1  0.82242161  0.62279263  0.57911368  1
  S  S11  1  0.98279647  0.62917828  0.08634749  1
  S  S12  1  0.32194942  0.02145577  0.07924155  1
  S  S13  1  0.18176565  0.33431035  0.08338770  1
  S  S14  1  0.69447727  0.34427388  0.08305786  1
  S  S15  1  0.81527411  0.67772856  0.91745957  1
  S  S16  1  0.16030697  0.93940019  0.91661318  1
  S  S17  1  0.66635257  0.94967348  0.91858732  1
  S  S18  1  0.31535338  0.95407075  0.41770694  1
  S  S19  1  0.16678412  0.38356523  0.41818077  1
  S  S20  1  0.66095541  0.38116391  0.41657462  1
  O  O0  1  0.09558991  0.03643071  0.30387189  1
  O  O1  1  0.61357985  0.04025417  0.30387171  1
  O  O2  1  0.41501796  0.79768207  0.30680223  1
  O  O3  1  0.90787542  0.76794930  0.29868322  1
  O  O4  1  0.48822201  0.15661976  0.31266006  1
  O  O5  1  0.97583061  0.17855033  0.29933659  1
  O  O6  1  0.10908298  0.18408203  0.80479152  1
  O  O7  1  0.59803106  0.15898076  0.80433660  1
  O  O8  1  0.47065125  0.77888733  0.80583486  1
  O  O9  1  0.98815482  0.81884028  0.81279433  1
  O  O10  1  0.40599556  0.04880640  0.79929379  1
  O  O11  1  0.91742195  0.03631753  0.80679932  1
  O  O12  1  0.39009189  0.97221336  0.69410366  1
  O  O13  1  0.90011451  0.97806529  0.70060788  1
  O  O14  1  0.09351132  0.21704892  0.69905777  1
  O  O15  1  0.57580792  0.18191012  0.68611480  1
  O  O16  1  0.02080331  0.83173364  0.69862276  1
  O  O17  1  0.50873355  0.82348997  0.68922874  1
  O  O18  1  0.39823438  0.82110309  0.20057518  1
  O  O19  1  0.89265827  0.80805293  0.19317173  1
  O  O20  1  0.00458267  0.19785833  0.19371169  1
  O  O21  1  0.52101859  0.20962499  0.19883799  1
  O  O22  1  0.07540719  0.97564723  0.18777771  1
  O  O23  1  0.59664532  0.97615144  0.19834758  1
  O  O24  1  0.44347455  0.37497420  0.63678841  1
  O  O25  1  0.93653325  0.36369184  0.63929468  1
  O  O26  1  0.24868316  0.13116168  0.63821329  1
  O  O27  1  0.74036092  0.11187692  0.63448257  1
  O  O28  1  0.31072578  0.49582433  0.64036684  1
  O  O29  1  0.81282340  0.52114946  0.63317067  1
  O  O30  1  0.43812777  0.50948674  0.13980062  1
  O  O31  1  0.94115795  0.51199246  0.13886364  1
  O  O32  1  0.31259591  0.10384734  0.13374409  1
  O  O33  1  0.81211094  0.12541226  0.14265181  1
  O  O34  1  0.23879244  0.36774635  0.13575591  1
  O  O35  1  0.74856955  0.36937310  0.13938272  1
  O  O36  1  0.21820056  0.29851107  0.03116653  1
  O  O37  1  0.73434974  0.31080423  0.03286982  1
  O  O38  1  0.41895141  0.54318288  0.02669999  1
  O  O39  1  0.92471217  0.55056378  0.03382211  1
  O  O40  1  0.33642620  0.13566997  0.02869349  1
  O  O41  1  0.85699538  0.16572657  0.03171618  1
  O  O42  1  0.23338127  0.15515007  0.53139507  1
  O  O43  1  0.72146371  0.13761232  0.52983112  1
  O  O44  1  0.35612956  0.55216728  0.53037847  1
  O  O45  1  0.83642430  0.53770790  0.52802749  1
  O  O46  1  0.42659032  0.30367309  0.53198861  1
  O  O47  1  0.91982304  0.29577715  0.52562129  1
  O  O48  1  0.26554331  0.70472804  0.97505799  1
  O  O49  1  0.77911126  0.70924450  0.96974237  1
  O  O50  1  0.08137139  0.45424658  0.97466519  1
  O  O51  1  0.59611191  0.48808343  0.97934836  1
  O  O52  1  0.14458100  0.82924259  0.97071781  1
  O  O53  1  0.66019248  0.85146365  0.97290788  1
  O  O54  1  0.27875193  0.85002911  0.46883488  1
  O  O55  1  0.76265965  0.82219499  0.47449955  1
  O  O56  1  0.15995489  0.46974605  0.47077406  1
  O  O57  1  0.64565080  0.45851458  0.46974396  1
  O  O58  1  0.09736150  0.70162684  0.47828706  1
  O  O59  1  0.58210846  0.70927064  0.47400139  1
  O  O60  1  0.06735398  0.63503146  0.36237811  1
  O  O61  1  0.56263432  0.63405687  0.35627656  1
  O  O62  1  0.26160766  0.87361449  0.36266175  1
  O  O63  1  0.74573542  0.83776325  0.35320856  1
  O  O64  1  0.18044205  0.48463336  0.36379431  1
  O  O65  1  0.67740608  0.48924190  0.36354093  1
  O  O66  1  0.06559594  0.49563774  0.85628135  1
  O  O67  1  0.56675363  0.49809289  0.86305861  1
  O  O68  1  0.17736583  0.86502980  0.86434501  1
  O  O69  1  0.68207460  0.87632537  0.86568468  1
  O  O70  1  0.24578623  0.65334276  0.85434430  1
  O  O71  1  0.76224189  0.64962292  0.86343327  1
  O  O72  1  0.02181950  0.84594525  0.41890239  1
  O  O73  1  0.51750402  0.86049406  0.40111599  1
  O  O74  1  0.40501470  0.97307614  0.41016441  1
  O  O75  1  0.90038169  0.96661117  0.40945705  1
  O  O76  1  0.08430651  0.20777982  0.41302936  1
  O  O77  1  0.58155488  0.20112858  0.40984153  1
  O  O78  1  0.01804556  0.17499100  0.90164882  1
  O  O79  1  0.52132106  0.19117306  0.91885524  1
  O  O80  1  0.08146069  0.96018293  0.91031525  1
  O  O81  1  0.58561794  0.96143786  0.91478909  1
  O  O82  1  0.40144358  0.83840875  0.91302042  1
  O  O83  1  0.90584894  0.83792646  0.91099813  1
  O  O84  1  0.49058883  0.17762090  0.59312586  1
  O  O85  1  0.99600823  0.16206383  0.58854653  1
  O  O86  1  0.10482355  0.02333860  0.58884253  1
  O  O87  1  0.59393200  0.00793143  0.58855427  1
  O  O88  1  0.41895683  0.83843892  0.59761404  1
  O  O89  1  0.90269670  0.80226278  0.58638369  1
  O  O90  1  0.49644654  0.82916176  0.09006674  1
  O  O91  1  0.98752466  0.80408383  0.09347543  1
  O  O92  1  0.40221757  0.00294370  0.08727528  1
  O  O93  1  0.92057597  0.01189804  0.10049956  1
  O  O94  1  0.09148860  0.17955172  0.09132607  1
  O  O95  1  0.60548906  0.18498543  0.08984198  1
  O  O96  1  0.33910808  0.16630264  0.73586062  1
  O  O97  1  0.85062472  0.16035643  0.74784875  1
  O  O98  1  0.23586277  0.30647938  0.74509561  1
  O  O99  1  0.73684099  0.28757498  0.73843533  1
  O  O100  1  0.40704061  0.50097384  0.73872599  1
  O  O101  1  0.92054731  0.52798827  0.75294143  1
  O  O102  1  0.34905549  0.53816992  0.24774241  1
  O  O103  1  0.84527471  0.51194802  0.23682317  1
  O  O104  1  0.42105689  0.31326013  0.25298833  1
  O  O105  1  0.91470313  0.31223097  0.23799072  1
  O  O106  1  0.23746989  0.18162212  0.23951205  1
  O  O107  1  0.74087910  0.17007068  0.24428235  1
  O  O108  1  0.30287587  0.48236277  0.91577621  1
  O  O109  1  0.82573761  0.51742741  0.92390951  1
  O  O110  1  0.42882687  0.35497943  0.92606111  1
  O  O111  1  0.92888623  0.34791401  0.91864195  1
  O  O112  1  0.23849761  0.11734637  0.92478383  1
  O  O113  1  0.74326412  0.13489728  0.92518618  1
  O  O114  1  0.32496782  0.13442217  0.42180700  1
  O  O115  1  0.80309196  0.12354205  0.41558282  1
  O  O116  1  0.24246651  0.34998675  0.42359083  1
  O  O117  1  0.73886073  0.35883376  0.42294058  1
  O  O118  1  0.42724685  0.50843909  0.41877365  1
  O  O119  1  0.92795140  0.49910277  0.42489019  1
  O  O120  1  0.17406547  0.50001270  0.07552877  1
  O  O121  1  0.68750507  0.50379875  0.07880600  1
  O  O122  1  0.06950199  0.64774815  0.07825767  1
  O  O123  1  0.58035600  0.64893488  0.07600713  1
  O  O124  1  0.24139944  0.84475284  0.07258564  1
  O  O125  1  0.75172216  0.83790903  0.06872494  1
  O  O126  1  0.18738911  0.87125587  0.57868403  1
  O  O127  1  0.67625382  0.84975138  0.57585093  1
  O  O128  1  0.25024673  0.66188494  0.56847314  1
  O  O129  1  0.74185460  0.63783246  0.57212710  1
  O  O130  1  0.07833455  0.51204622  0.57671882  1
  O  O131  1  0.57175960  0.49826808  0.57562336  1
  O  O132  1  0.14866508  0.83464227  0.25176469  1
  O  O133  1  0.65993031  0.84435788  0.25814919  1
  O  O134  1  0.27119527  0.69769086  0.25948421  1
  O  O135  1  0.76495308  0.67513951  0.25292515  1
  O  O136  1  0.07322972  0.45755892  0.25175245  1
  O  O137  1  0.59921726  0.49108561  0.26577667  1
  O  O138  1  0.15814253  0.47424476  0.75845680  1
  O  O139  1  0.65364318  0.46508465  0.75034414  1
  O  O140  1  0.09873227  0.70759345  0.76547123  1
  O  O141  1  0.58147540  0.69492926  0.75277119  1
  O  O142  1  0.26332691  0.84636713  0.75462261  1
  O  O143  1  0.77381156  0.84310106  0.75989433  1
loop_
_geom_bond_atom_site_label_1
_geom_bond_atom_site_label_2
_geom_bond_distance
_geom_bond_site_symmetry_2
Na0 O85 2.452666 1_555
Na0 O72 2.487915 1_645
Na0 O75 2.514813 1_545
Na0 O89 2.616304 1_545
Na0 O76 2.636195 1_655
Na0 O86 2.726885 1_655
Na1 O82 2.353219 1_555
Na1 O79 2.353996 1_565
Na1 O81 2.564001 1_555
Na1 O90 2.586575 1_556
Na1 O92 2.709747 1_566
Na1 O95 2.818256 1_566
Na2 O100 2.448021 1_555
Na2 O108 2.547961 1_555
Na2 O98 2.551633 1_555
Na2 O110 2.620375 1_555
Na2 O96 2.663370 1_555
Na2 O112 2.926541 1_555
Na3 O101 2.392005 1_555
Na3 O99 2.545956 1_555
Na3 O111 2.582778 1_555
Na3 O97 2.594485 1_555
Na3 O109 2.655085 1_555
Na3 O113 2.783853 1_555
Na4 O104 2.406490 1_555
Na4 O118 2.514018 1_555
Na4 O106 2.582421 1_555
Na4 O102 2.587937 1_555
Na4 O114 2.595906 1_555
Na4 O116 2.757422 1_555
Na5 O115 2.471441 1_555
Na5 O107 2.541472 1_555
Na5 O119 2.551661 1_555
Na5 O103 2.668026 1_555
Na5 O105 2.679392 1_555
Na5 O117 2.752338 1_555
Ge0 O4 1.749447 1_555
Ge0 O73 1.750119 1_545
Ge0 O74 1.911414 1_545
Ge0 O77 1.935174 1_555
Ge0 O2 2.041557 1_545
Ge0 O1 2.318854 1_555
Ge1 O9 1.752250 1_555
Ge1 O78 1.761618 1_665
Ge1 O83 1.915171 1_555
Ge1 O80 1.983798 1_655
Ge1 O11 1.997355 1_565
Ge1 O6 2.249544 1_665
Ge2 O17 1.744485 1_555
Ge2 O15 1.756394 1_565
Ge2 O88 1.769002 1_555
Ge2 O12 2.130030 1_555
Ge2 O87 2.134114 1_565
Ge2 O84 2.169917 1_565
Ge3 O93 1.732679 1_465
Ge3 O22 1.733141 1_555
Ge3 O91 1.946263 1_455
Ge3 O94 1.997303 1_565
Ge3 O20 2.054280 1_565
Ge3 O19 2.143287 1_455
Ge4 O100 1.764979 1_555
Ge4 O28 1.790906 1_555
Ge4 O24 2.028698 1_555
Ge4 O26 2.043176 1_555
Ge4 O96 2.058093 1_555
Ge4 O98 2.235347 1_555
Ge5 O33 1.775581 1_555
Ge5 O35 1.919483 1_555
Ge5 O105 1.975812 1_555
Ge5 O103 2.021142 1_555
Ge5 O31 2.031704 1_555
Ge5 O107 2.126436 1_555
Ge6 O48 1.743668 1_554
Ge6 O50 1.772570 1_554
Ge6 O120 1.960185 1_555
Ge6 O52 2.063735 1_554
Ge6 O124 2.087274 1_555
Ge6 O122 2.349433 1_555
Ge7 O123 1.756923 1_555
Ge7 O51 1.771561 1_554
Ge7 O125 1.780856 1_555
Ge7 O53 1.987877 1_554
Ge7 O121 2.099775 1_555
Ge7 O49 2.355952 1_554
Ge8 O130 1.738113 1_555
Ge8 O128 1.751828 1_555
Ge8 O58 1.782554 1_555
Ge8 O126 1.988062 1_555
Ge8 O56 2.131348 1_555
Ge8 O54 2.400888 1_555
Ge9 O55 1.780494 1_555
Ge9 O59 1.783680 1_555
Ge9 O127 1.893712 1_555
Ge9 O129 2.061868 1_555
Ge9 O57 2.139061 1_555
Ge9 O131 2.191286 1_555
Ge10 O61 1.746912 1_555
Ge10 O63 1.747502 1_555
Ge10 O137 1.752569 1_555
Ge10 O65 2.034290 1_555
Ge10 O133 2.042407 1_555
Ge10 O135 2.434474 1_555
Ge11 O70 1.750711 1_555
Ge11 O140 1.757293 1_555
Ge11 O66 1.768602 1_555
Ge11 O138 1.987035 1_555
Ge11 O68 2.074227 1_555
Ge11 O142 2.300495 1_555
O0 Si0 1.621010 1_555
O0 Zr0 1.992484 1_445
O1 S0 1.462095 1_555
O2 S1 1.479122 1_555
O3 S2 1.503820 1_555
O3 Zr0 2.156951 1_555
O4 Si1 1.646144 1_555
O5 S3 1.470813 1_555
O5 Zr0 2.343101 1_545
O6 S4 1.465904 1_555
O7 Si2 1.617590 1_555
O7 Zr1 1.999461 1_545
O8 Si4 1.618072 1_555
O8 Zr1 2.040384 1_555
O9 Si3 1.645639 1_655
O10 S5 1.501162 1_555
O10 Zr1 2.154569 1_545
O11 S6 1.483300 1_555
O12 S5 1.475363 1_565
O13 S6 1.483897 1_565
O13 Zr2 2.121789 1_655
O14 S4 1.500898 1_555
O14 Zr2 2.080445 1_545
O15 Si2 1.639690 1_555
O16 Si3 1.630302 1_555
O16 Zr2 1.974012 1_555
O17 Si4 1.604875 1_555
O18 S1 1.480699 1_555
O18 Zr3 2.146881 1_565
O19 S2 1.467580 1_555
O20 S3 1.456071 1_455
O21 Si1 1.623934 1_555
O21 Zr3 1.985696 1_555
O22 Si0 1.634691 1_565
O23 S0 1.490585 1_565
O23 Zr3 2.119969 1_565
O24 S7 1.512367 1_555
O25 Si5 1.619805 1_555
O25 Zr4 1.999913 1_555
O26 S8 1.495716 1_555
O27 S9 1.465904 1_555
O27 Zr4 2.323314 1_555
O28 Si6 1.661595 1_555
O29 S10 1.479969 1_555
O29 Zr4 2.181886 1_555
O30 Si7 1.633273 1_555
O30 Zr5 1.981865 1_555
O31 S11 1.518002 1_555
O32 S12 1.489264 1_555
O32 Zr5 2.164774 1_555
O33 Si8 1.675207 1_555
O34 S13 1.471342 1_555
O34 Zr5 2.342820 1_555
O35 S14 1.527898 1_555
O36 S13 1.470639 1_555
O36 Zr6 2.309250 1_554
O37 S14 1.459019 1_555
O37 Zr7 2.272884 1_554
O38 Si7 1.623449 1_555
O38 Zr6 1.949945 1_554
O39 S11 1.479517 1_555
O39 Zr7 2.112488 1_554
O40 S12 1.463004 1_555
O40 Zr6 2.268543 1_554
O41 Si8 1.628596 1_555
O41 Zr7 1.942717 1_554
O42 S8 1.471920 1_555
O42 Zr8 2.235844 1_555
O43 S9 1.484746 1_555
O43 Zr9 2.200696 1_555
O44 Si6 1.646459 1_555
O44 Zr8 1.917210 1_555
O45 S10 1.471279 1_555
O45 Zr9 2.250187 1_555
O46 S7 1.505356 1_555
O46 Zr8 2.070405 1_555
O47 Si5 1.634499 1_555
O47 Zr9 1.934595 1_555
O48 Si9 1.657794 1_555
O49 S15 1.453629 1_555
O50 Si10 1.657155 1_555
O51 Si11 1.657479 1_555
O52 S16 1.505954 1_555
O53 S17 1.479727 1_555
O54 S18 1.430459 1_555
O55 Si12 1.643617 1_555
O56 S19 1.454732 1_555
O57 S20 1.481793 1_555
O58 Si13 1.632413 1_555
O59 Si14 1.640573 1_555
O60 Si13 1.634421 1_555
O60 Zr10 1.952492 1_555
O61 Si14 1.615313 1_555
O62 S18 1.497513 1_555
O62 Zr10 2.138777 1_555
O63 Si12 1.633496 1_555
O64 S19 1.473818 1_555
O64 Zr10 2.270958 1_555
O65 S20 1.474661 1_555
O66 Si10 1.605846 1_555
O67 Si11 1.620324 1_555
O67 Zr11 1.970271 1_555
O68 S16 1.464147 1_555
O69 S17 1.461182 1_555
O69 Zr11 2.329288 1_555
O70 Si9 1.622364 1_555
O71 S15 1.470667 1_555
O71 Zr11 2.266736 1_555
O72 Si13 1.639957 1_555
O72 Zr0 1.992949 1_455
O73 Si14 1.634077 1_555
O74 S18 1.508259 1_555
O75 Si12 1.622768 1_555
O75 Zr0 2.048227 1_555
O76 S19 1.489770 1_555
O76 Zr0 2.182336 1_445
O77 S20 1.489759 1_555
O78 Si10 1.628625 1_555
O79 Si11 1.613420 1_555
O79 Zr1 2.115614 1_545
O80 S16 1.482072 1_555
O81 S17 1.467289 1_555
O81 Zr1 2.252781 1_555
O82 Si9 1.601605 1_555
O82 Zr1 2.086131 1_555
O83 S15 1.509700 1_555
O84 S7 1.448819 1_555
O85 Si5 1.623908 1_555
O85 Zr2 2.024161 1_645
O86 S8 1.490570 1_555
O86 Zr2 2.189682 1_545
O87 S9 1.462958 1_555
O88 Si6 1.619889 1_555
O89 S10 1.494284 1_555
O89 Zr2 2.221771 1_655
O90 Si7 1.627991 1_555
O90 Zr3 1.998587 1_565
O91 S11 1.487369 1_555
O92 S12 1.498675 1_555
O92 Zr3 2.188770 1_555
O93 Si8 1.627725 1_555
O94 S13 1.492955 1_555
O95 S14 1.491105 1_555
O95 Zr3 2.159515 1_555
O96 S5 1.528836 1_555
O97 S6 1.473687 1_555
O97 Zr4 2.197838 1_555
O98 S4 1.485274 1_555
O99 Si2 1.628880 1_555
O99 Zr4 2.007916 1_555
O100 Si4 1.665967 1_555
O101 Si3 1.639336 1_655
O101 Zr4 2.010719 1_555
O102 S1 1.475876 1_555
O102 Zr5 2.207729 1_555
O103 S2 1.554939 1_555
O104 Si1 1.640556 1_555
O104 Zr5 2.012437 1_555
O105 S3 1.522870 1_555
O106 Si0 1.613857 1_555
O106 Zr5 2.042033 1_555
O107 S0 1.518928 1_555
O108 Si9 1.637390 1_555
O108 Zr6 1.989044 1_555
O109 S15 1.497692 1_555
O109 Zr7 2.215390 1_555
O110 Si11 1.654131 1_555
O110 Zr6 1.976767 1_555
O111 Si10 1.641710 1_655
O111 Zr7 1.972108 1_555
O112 S16 1.473669 1_545
O112 Zr6 2.190561 1_555
O113 S17 1.499989 1_545
O113 Zr7 2.105145 1_555
O114 S18 1.491234 1_545
O114 Zr8 2.277185 1_555
O115 Si12 1.633041 1_545
O115 Zr9 2.009330 1_555
O116 S19 1.494074 1_555
O116 Zr8 2.159938 1_555
O117 S20 1.473818 1_555
O117 Zr9 2.215707 1_555
O118 Si14 1.634116 1_555
O118 Zr8 1.989891 1_555
O119 Si13 1.631148 1_655
O119 Zr9 2.022636 1_555
O120 S13 1.519858 1_555
O121 S14 1.452150 1_555
O122 S11 1.460511 1_455
O123 Si7 1.609281 1_555
O124 S12 1.481521 1_565
O125 Si8 1.614774 1_565
O126 S8 1.468128 1_565
O127 S9 1.532395 1_565
O128 Si6 1.622812 1_555
O129 S10 1.484533 1_555
O130 Si5 1.609664 1_455
O131 S7 1.484382 1_555
O132 Si0 1.635590 1_565
O132 Zr10 1.941515 1_555
O133 S0 1.484114 1_565
O134 S1 1.466256 1_555
O134 Zr10 2.195503 1_555
O135 S2 1.448341 1_555
O136 S3 1.477136 1_455
O136 Zr10 2.131530 1_555
O137 Si1 1.627087 1_555
O138 S4 1.487685 1_555
O139 Si2 1.621707 1_555
O139 Zr11 1.944968 1_555
O140 Si3 1.621103 1_555
O141 Si4 1.613526 1_555
O141 Zr11 1.938407 1_555
O142 S5 1.447975 1_565
O143 S6 1.457108 1_565
O143 Zr11 2.222184 1_555
