# generated using pymatgen
data_Hf6Zr8Ta3Ti2(Nb4B27)2
_symmetry_space_group_name_H-M   'P 1'
_cell_length_a   9.38753901
_cell_length_b   9.38923739
_cell_length_c   10.29117013
_cell_angle_alpha   89.99256847
_cell_angle_beta   89.98932759
_cell_angle_gamma   119.94189869
_symmetry_Int_Tables_number   1
_chemical_formula_structural   Hf6Zr8Ta3Ti2(Nb4B27)2
_chemical_formula_sum   'Hf6 Zr8 Ta3 Ti2 Nb8 B54'
_cell_volume   786.01604202
_cell_formula_units_Z   1
loop_
 _symmetry_equiv_pos_site_id
 _symmetry_equiv_pos_as_xyz
  1  'x, y, z'
loop_
 _atom_site_type_symbol
 _atom_site_label
 _atom_site_symmetry_multiplicity
 _atom_site_fract_x
 _atom_site_fract_y
 _atom_site_fract_z
 _atom_site_occupancy
  Hf  Hf0  1  0.66860300  0.77820000  0.50036000  1
  Hf  Hf1  1  0.33309700  0.77861300  0.50055700  1
  Hf  Hf2  1  0.99742800  0.44408600  0.50113600  1
  Hf  Hf3  1  0.33428800  0.11128700  0.50132700  1
  Hf  Hf4  1  0.66856400  0.44417800  0.16603900  1
  Hf  Hf5  1  0.66728000  0.77579500  0.83232100  1
  Zr  Zr0  1  0.33498800  0.11006700  0.16665600  1
  Zr  Zr1  1  0.33387300  0.44427700  0.50095800  1
  Zr  Zr2  1  0.99965300  0.77576900  0.16682900  1
  Zr  Zr3  1  0.33319800  0.44598700  0.16619200  1
  Zr  Zr4  1  0.33111300  0.77692300  0.83306700  1
  Zr  Zr5  1  0.99800500  0.11127900  0.16648000  1
  Zr  Zr6  1  0.66690000  0.11295700  0.83267600  1
  Zr  Zr7  1  0.00123000  0.11165500  0.83241500  1
  Ta  Ta0  1  0.66629400  0.77925900  0.16793500  1
  Ta  Ta1  1  0.99823200  0.44533700  0.82962300  1
  Ta  Ta2  1  0.99916200  0.11056200  0.50140600  1
  Ti  Ti0  1  0.66757800  0.44412500  0.83333300  1
  Ti  Ti1  1  0.99870500  0.77670000  0.50026300  1
  Nb  Nb0  1  0.33416500  0.11273300  0.83111800  1
  Nb  Nb1  1  0.66860800  0.44445700  0.50158000  1
  Nb  Nb2  1  0.66776800  0.11295900  0.50248600  1
  Nb  Nb3  1  0.33334700  0.77734400  0.16582800  1
  Nb  Nb4  1  0.99835900  0.44386500  0.16941300  1
  Nb  Nb5  1  0.66744700  0.11172100  0.16440100  1
  Nb  Nb6  1  0.99959700  0.77524100  0.83282200  1
  Nb  Nb7  1  0.33369900  0.44392400  0.83282200  1
  B  B0  1  0.77843700  0.33549900  0.99726900  1
  B  B1  1  0.44604600  0.99997600  0.33444500  1
  B  B2  1  0.10957500  0.99837500  0.33821000  1
  B  B3  1  0.77665000  0.66458400  0.99768600  1
  B  B4  1  0.44531600  0.66687900  0.99953500  1
  B  B5  1  0.10929200  0.66379400  0.99949400  1
  B  B6  1  0.11031400  0.33543300  0.99782300  1
  B  B7  1  0.44694500  0.33492300  0.99615600  1
  B  B8  1  0.10917100  0.33254600  0.33578000  1
  B  B9  1  0.77636900  0.99871800  0.99973100  1
  B  B10  1  0.44501300  0.00006200  0.99964500  1
  B  B11  1  0.11145600  0.99889500  0.99798700  1
  B  B12  1  0.77680900  0.00018200  0.33512800  1
  B  B13  1  0.88836700  0.55646900  0.66739300  1
  B  B14  1  0.55788700  0.55467500  0.66912200  1
  B  B15  1  0.77742500  0.33216000  0.33396200  1
  B  B16  1  0.88755300  0.55382600  0.99588600  1
  B  B17  1  0.22112800  0.88767900  0.33729100  1
  B  B18  1  0.55650100  0.89016200  0.33343700  1
  B  B19  1  0.88890700  0.88831800  0.33681000  1
  B  B20  1  0.22094900  0.22075400  0.33571000  1
  B  B21  1  0.55750800  0.22192700  0.33478700  1
  B  B22  1  0.88715300  0.22160400  0.33537400  1
  B  B23  1  0.22050600  0.55647300  0.33438800  1
  B  B24  1  0.55781000  0.55705900  0.33323200  1
  B  B25  1  0.88896900  0.55642300  0.33673900  1
  B  B26  1  0.21960300  0.88835900  0.66427000  1
  B  B27  1  0.55609300  0.88887000  0.66578900  1
  B  B28  1  0.88996600  0.88698300  0.66380000  1
  B  B29  1  0.22245900  0.22143400  0.66612200  1
  B  B30  1  0.55661600  0.22507000  0.66829200  1
  B  B31  1  0.88904400  0.22287200  0.66593400  1
  B  B32  1  0.22067500  0.55502700  0.66675100  1
  B  B33  1  0.55730400  0.55544900  0.99752900  1
  B  B34  1  0.21993900  0.55474400  0.99863600  1
  B  B35  1  0.88900600  0.22518300  0.99901400  1
  B  B36  1  0.44660500  0.33412600  0.66997100  1
  B  B37  1  0.11021300  0.66690000  0.33656500  1
  B  B38  1  0.44612000  0.66937900  0.33347800  1
  B  B39  1  0.77864300  0.66740000  0.33560500  1
  B  B40  1  0.10993800  0.99764100  0.66332300  1
  B  B41  1  0.44389300  0.00064500  0.66583300  1
  B  B42  1  0.77837000  0.99957700  0.66554800  1
  B  B43  1  0.11035900  0.33401800  0.66661000  1
  B  B44  1  0.77734500  0.33605000  0.66887900  1
  B  B45  1  0.55738500  0.22510500  0.99681900  1
  B  B46  1  0.10833100  0.66690700  0.66425800  1
  B  B47  1  0.44538100  0.66648000  0.66675300  1
  B  B48  1  0.77883000  0.66518400  0.66668500  1
  B  B49  1  0.22169400  0.88818100  0.99824100  1
  B  B50  1  0.55558000  0.88812800  0.00075600  1
  B  B51  1  0.88728500  0.88680200  0.99944200  1
  B  B52  1  0.22386300  0.22343700  0.99783700  1
  B  B53  1  0.44631900  0.33346400  0.33424700  1
loop_
_geom_bond_atom_site_label_1
_geom_bond_atom_site_label_2
_geom_bond_distance
_geom_bond_site_symmetry_2
B0 B16 1.776378 1_555
B0 B35 1.795488 1_555
B0 B45 1.798178 1_555
B0 Ti0 2.455466 1_555
B0 Zr6 2.479733 1_555
B0 Ta1 2.484257 1_555
B0 Hf4 2.484382 1_556
B0 Nb5 2.504324 1_556
B0 Nb4 2.518110 1_556
B1 B18 1.790422 1_555
B1 B21 1.805825 1_565
B1 B17 1.829845 1_555
B1 Hf1 2.482935 1_555
B1 Zr0 2.492596 1_565
B1 Hf3 2.497361 1_565
B1 Nb2 2.499191 1_565
B1 Nb3 2.508780 1_555
B1 Nb5 2.510831 1_565
B2 B20 1.809472 1_565
B2 Ti1 2.456130 1_455
B2 Ta2 2.468650 1_465
B2 Hf3 2.482167 1_565
B2 Zr2 2.528372 1_455
B2 Zr5 2.540209 1_465
B2 Zr0 2.545073 1_565
B3 B33 1.784296 1_555
B3 B51 1.808079 1_555
B3 Ti0 2.465700 1_555
B3 Hf5 2.472039 1_555
B3 Nb6 2.483132 1_555
B3 Hf4 2.493228 1_556
B3 Zr2 2.514466 1_556
B3 Ta0 2.532895 1_556
B4 B50 1.800146 1_556
B4 Zr3 2.483981 1_556
B4 Nb3 2.489453 1_556
B4 Hf5 2.493975 1_555
B4 Nb7 2.497130 1_555
B4 Ta0 2.497371 1_556
B4 Zr4 2.501560 1_555
B5 Nb6 2.484614 1_455
B5 Zr4 2.487592 1_555
B5 Zr2 2.492035 1_456
B5 Ta1 2.493422 1_455
B5 Nb3 2.500822 1_556
B5 Nb4 2.501626 1_456
B6 Nb7 2.486850 1_555
B6 Zr7 2.492924 1_555
B6 Ta1 2.500451 1_455
B6 Zr3 2.508264 1_556
B6 Nb4 2.515400 1_456
B6 Zr5 2.517333 1_456
B7 Ti0 2.455050 1_555
B7 Nb7 2.467660 1_555
B7 Nb0 2.480836 1_555
B7 Hf4 2.511680 1_556
B7 Zr3 2.530025 1_556
B7 Zr0 2.534562 1_556
B8 Ta2 2.483077 1_455
B8 Hf2 2.487856 1_455
B8 Nb4 2.488263 1_455
B8 Zr1 2.496491 1_555
B8 Zr5 2.505620 1_455
B8 Zr3 2.522965 1_555
B9 Nb5 2.475058 1_566
B9 Ta0 2.486560 1_556
B9 Zr5 2.489470 1_566
B9 Hf5 2.501956 1_555
B9 Zr6 2.502537 1_565
B9 Zr7 2.511750 1_665
B10 B50 1.808582 1_546
B10 B49 1.816678 1_545
B10 B45 1.831190 1_555
B10 Nb5 2.480044 1_556
B10 Zr0 2.480405 1_556
B10 Nb3 2.491344 1_546
B10 Zr6 2.491802 1_555
B10 Zr4 2.497375 1_545
B10 Nb0 2.511772 1_555
B11 B49 1.795946 1_555
B11 B51 1.823600 1_455
B11 B52 1.826893 1_565
B11 Zr7 2.487726 1_565
B11 Nb6 2.490361 1_455
B11 Nb0 2.495985 1_565
B11 Zr2 2.512598 1_456
B11 Zr0 2.514204 1_566
B11 Zr5 2.525089 1_466
B12 B18 1.792208 1_545
B12 B22 1.801509 1_555
B12 B19 1.820491 1_545
B12 Hf0 2.480396 1_545
B12 Ta0 2.488556 1_545
B12 Ta2 2.490301 1_555
B12 Nb2 2.493437 1_555
B12 Zr5 2.499624 1_555
B12 Nb5 2.512212 1_555
B13 B48 1.774015 1_555
B13 B46 1.789612 1_655
B13 B44 1.793431 1_555
B13 Ta1 2.452408 1_555
B13 Nb6 2.463432 1_555
B13 Nb1 2.471800 1_555
B13 Ti0 2.478033 1_555
B13 Ti1 2.483406 1_555
B13 Hf2 2.483407 1_555
B14 B36 1.794456 1_555
B14 B48 1.797453 1_555
B14 B47 1.823411 1_555
B14 Hf5 2.461495 1_555
B14 Ti0 2.461857 1_555
B14 Nb7 2.482386 1_555
B14 Nb1 2.489519 1_555
B14 Zr1 2.513490 1_555
B14 Hf0 2.514387 1_555
B15 B21 1.788961 1_555
B15 B22 1.790577 1_555
B15 B25 1.824856 1_555
B15 Nb4 2.469006 1_555
B15 Hf2 2.482907 1_555
B15 Nb2 2.487345 1_555
B15 Nb1 2.491146 1_555
B15 Hf4 2.492009 1_555
B15 Nb5 2.502646 1_555
B16 B3 1.801800 1_555
B16 B5 1.804163 1_655
B16 Ti0 2.449935 1_555
B16 Nb6 2.461695 1_555
B16 Ta1 2.470037 1_555
B16 Hf4 2.497560 1_556
B16 Zr2 2.521369 1_556
B16 Nb4 2.531660 1_556
B17 B37 1.796304 1_555
B17 B2 1.806513 1_555
B17 Hf1 2.459936 1_555
B17 Ti1 2.466738 1_455
B17 Hf3 2.482211 1_565
B17 Zr2 2.514998 1_455
B17 Zr0 2.521214 1_565
B17 Nb3 2.527025 1_555
B18 B38 1.796308 1_555
B18 Ta0 2.473600 1_555
B18 Hf1 2.501739 1_555
B18 Hf0 2.503610 1_555
B18 Nb3 2.504489 1_555
B18 Nb5 2.504789 1_565
B18 Nb2 2.512782 1_565
B19 B2 1.795109 1_655
B19 B39 1.797451 1_555
B19 Hf0 2.458195 1_555
B19 Ti1 2.463488 1_555
B19 Ta2 2.477988 1_565
B19 Ta0 2.510337 1_555
B19 Zr2 2.520738 1_555
B19 Zr5 2.522329 1_565
B20 B8 1.817222 1_555
B20 B53 1.833354 1_555
B20 Ta2 2.482120 1_455
B20 Hf3 2.487018 1_555
B20 Zr1 2.490198 1_555
B20 Zr5 2.514794 1_455
B20 Zr0 2.522563 1_555
B20 Zr3 2.529798 1_555
B21 B53 1.810372 1_555
B21 Nb2 2.480718 1_555
B21 Nb1 2.495183 1_555
B21 Hf3 2.496563 1_555
B21 Zr0 2.504436 1_555
B21 Nb5 2.505265 1_555
B21 Hf4 2.506788 1_555
B22 B8 1.806035 1_655
B22 Nb2 2.478055 1_555
B22 Nb4 2.487070 1_555
B22 Hf2 2.487620 1_555
B22 Ta2 2.491332 1_555
B22 Zr5 2.500566 1_555
B22 Nb5 2.508360 1_555
B23 B37 1.794196 1_555
B23 B8 1.821944 1_555
B23 B38 1.835304 1_555
B23 Nb4 2.479932 1_455
B23 Hf1 2.488515 1_555
B23 Hf2 2.497201 1_455
B23 Nb3 2.497473 1_555
B23 Zr3 2.507337 1_555
B23 Zr1 2.510011 1_555
B24 B39 1.796562 1_555
B24 B53 1.819213 1_555
B24 B38 1.820803 1_555
B24 Ta0 2.482130 1_555
B24 Hf0 2.489378 1_555
B24 Hf4 2.502925 1_555
B24 Zr3 2.509063 1_555
B24 Zr1 2.509192 1_555
B24 Nb1 2.509801 1_555
B25 B39 1.798837 1_555
B25 B37 1.799733 1_655
B25 Ti1 2.458759 1_555
B25 Hf2 2.466515 1_555
B25 Nb1 2.467714 1_555
B25 Nb4 2.493956 1_555
B25 Zr2 2.498174 1_555
B25 Hf4 2.510538 1_555
B26 B40 1.779673 1_555
B26 B46 1.801763 1_555
B26 B41 1.824589 1_565
B26 Ti1 2.465685 1_455
B26 Hf3 2.470033 1_565
B26 Hf1 2.476122 1_555
B26 Nb6 2.492164 1_455
B26 Nb0 2.506598 1_565
B26 Zr4 2.510314 1_555
B27 B42 1.808137 1_555
B27 B47 1.809409 1_555
B27 B41 1.820515 1_565
B27 Nb2 2.479284 1_565
B27 Hf1 2.486740 1_555
B27 Hf0 2.487771 1_555
B27 Hf5 2.502038 1_555
B27 Zr6 2.505074 1_565
B27 Zr4 2.512180 1_555
B28 B40 1.789409 1_655
B28 B48 1.804814 1_555
B28 B42 1.822357 1_555
B28 Ti1 2.449821 1_555
B28 Hf0 2.464469 1_555
B28 Ta2 2.470004 1_565
B28 Nb6 2.502727 1_555
B28 Hf5 2.507448 1_555
B28 Zr7 2.520747 1_665
B29 B40 1.821047 1_545
B29 B36 1.823797 1_555
B29 B43 1.826285 1_555
B29 Nb0 2.468427 1_555
B29 Hf3 2.476169 1_555
B29 Zr7 2.483056 1_555
B29 Ta2 2.484888 1_455
B29 Zr1 2.484897 1_555
B29 Nb7 2.494289 1_555
B30 B36 1.780709 1_555
B30 B44 1.795572 1_555
B30 B41 1.826132 1_555
B30 Ti0 2.462313 1_555
B30 Nb0 2.465915 1_555
B30 Nb1 2.475578 1_555
B30 Zr6 2.475857 1_555
B30 Nb2 2.490913 1_555
B30 Hf3 2.495157 1_555
B31 B43 1.800337 1_655
B31 B42 1.816766 1_545
B31 B44 1.828111 1_555
B31 Nb2 2.463962 1_555
B31 Hf2 2.472739 1_555
B31 Ta1 2.472984 1_555
B31 Ta2 2.476984 1_555
B31 Zr6 2.491642 1_555
B31 Zr7 2.496584 1_655
B32 B43 1.798147 1_555
B32 B46 1.822720 1_555
B32 B47 1.827905 1_555
B32 Ta1 2.466190 1_455
B32 Zr4 2.488063 1_555
B32 Hf2 2.490912 1_455
B32 Zr1 2.494897 1_555
B32 Hf1 2.496569 1_555
B32 Nb7 2.497991 1_555
B33 B7 1.794277 1_555
B33 B4 1.816105 1_555
B33 Ti0 2.469707 1_555
B33 Hf5 2.470428 1_555
B33 Nb7 2.486652 1_555
B33 Hf4 2.505835 1_556
B33 Zr3 2.516911 1_556
B33 Ta0 2.528532 1_556
B34 B6 1.784353 1_555
B34 B5 1.785777 1_555
B34 B4 1.833381 1_555
B34 Zr4 2.483817 1_555
B34 Zr3 2.496113 1_556
B34 Nb3 2.498518 1_556
B34 Nb7 2.498806 1_555
B34 Ta1 2.505965 1_455
B34 Nb4 2.517110 1_456
B35 B6 1.800292 1_655
B35 B9 1.842553 1_545
B35 Nb5 2.478731 1_556
B35 Zr6 2.489296 1_555
B35 Nb4 2.498467 1_556
B35 Ta1 2.499131 1_555
B35 Zr5 2.500706 1_556
B35 Zr7 2.511258 1_655
B36 Nb0 2.448186 1_555
B36 Ti0 2.461554 1_555
B36 Nb7 2.466877 1_555
B36 Nb1 2.502516 1_555
B36 Hf3 2.510166 1_555
B36 Zr1 2.511513 1_555
B37 Ti1 2.464485 1_455
B37 Hf1 2.477349 1_555
B37 Hf2 2.480597 1_455
B37 Zr2 2.496520 1_455
B37 Nb4 2.500712 1_455
B37 Nb3 2.525902 1_555
B38 Ta0 2.471512 1_555
B38 Nb3 2.489296 1_555
B38 Hf1 2.494027 1_555
B38 Hf0 2.495423 1_555
B38 Zr3 2.503801 1_555
B38 Zr1 2.514608 1_555
B39 Ti1 2.465301 1_555
B39 Hf0 2.469161 1_555
B39 Nb1 2.491234 1_555
B39 Zr2 2.499508 1_555
B39 Ta0 2.509742 1_555
B39 Hf4 2.518993 1_555
B40 Ti1 2.459455 1_455
B40 Ta2 2.466364 1_465
B40 Hf3 2.471521 1_565
B40 Zr7 2.511154 1_565
B40 Nb0 2.512283 1_565
B40 Nb6 2.513028 1_455
B41 Hf3 2.463979 1_555
B41 Nb2 2.478034 1_555
B41 Nb0 2.478698 1_555
B41 Hf1 2.481514 1_545
B41 Zr6 2.498177 1_555
B41 Zr4 2.504724 1_545
B42 Ta2 2.465269 1_565
B42 Nb2 2.476069 1_565
B42 Hf0 2.477024 1_555
B42 Zr7 2.497472 1_665
B42 Hf5 2.501810 1_555
B42 Zr6 2.509644 1_565
B43 Ta1 2.472401 1_455
B43 Zr7 2.486635 1_555
B43 Hf2 2.487122 1_455
B43 Ta2 2.489459 1_455
B43 Zr1 2.492063 1_555
B43 Nb7 2.495710 1_555
B44 Ta1 2.442726 1_555
B44 Ti0 2.449368 1_555
B44 Nb1 2.465695 1_555
B44 Zr6 2.476804 1_555
B44 Hf2 2.486694 1_555
B44 Nb2 2.495725 1_555
B45 B7 1.790316 1_555
B45 Ti0 2.450427 1_555
B45 Zr6 2.469748 1_555
B45 Nb0 2.491372 1_555
B45 Hf4 2.492298 1_556
B45 Nb5 2.504670 1_556
B45 Zr0 2.515425 1_556
B46 Ti1 2.455471 1_455
B46 Hf2 2.471077 1_455
B46 Nb6 2.474281 1_455
B46 Ta1 2.478777 1_455
B46 Hf1 2.485829 1_555
B46 Zr4 2.510811 1_555
B47 Hf5 2.482626 1_555
B47 Zr1 2.486198 1_555
B47 Nb7 2.489582 1_555
B47 Hf0 2.495528 1_555
B47 Hf1 2.500574 1_555
B47 Zr4 2.503124 1_555
B48 Nb1 2.472584 1_555
B48 Ti1 2.476053 1_555
B48 Nb6 2.479937 1_555
B48 Hf5 2.483190 1_555
B48 Ti0 2.484855 1_555
B48 Hf0 2.494566 1_555
B49 B5 1.825675 1_555
B49 Zr4 2.471176 1_555
B49 Nb6 2.482792 1_455
B49 Nb3 2.499032 1_556
B49 Zr0 2.503031 1_566
B49 Zr2 2.504183 1_456
B49 Nb0 2.508834 1_565
B50 B9 1.796063 1_554
B50 Ta0 2.479083 1_555
B50 Nb5 2.479344 1_565
B50 Nb3 2.480352 1_555
B50 Zr4 2.512781 1_554
B50 Hf5 2.514050 1_554
B50 Zr6 2.517244 1_564
B51 B9 1.811233 1_555
B51 Hf5 2.482485 1_555
B51 Ta0 2.497443 1_556
B51 Nb6 2.500260 1_555
B51 Zr2 2.502984 1_556
B51 Zr5 2.508461 1_566
B51 Zr7 2.509987 1_665
B52 B7 1.814762 1_555
B52 B6 1.833288 1_555
B52 Nb7 2.469896 1_555
B52 Nb0 2.484056 1_555
B52 Zr7 2.485917 1_555
B52 Zr3 2.506441 1_556
B52 Zr0 2.519595 1_556
B52 Zr5 2.527015 1_456
B53 Hf3 2.494515 1_555
B53 Zr1 2.497282 1_555
B53 Nb1 2.497394 1_555
B53 Hf4 2.502631 1_555
B53 Zr0 2.505954 1_555
B53 Zr3 2.520947 1_555
