# generated using pymatgen
data_Er2MgNb2O8
_symmetry_space_group_name_H-M   'P 1'
_cell_length_a   5.38621763
_cell_length_b   6.15249300
_cell_length_c   5.17162037
_cell_angle_alpha   90.00000000
_cell_angle_beta   87.19861103
_cell_angle_gamma   90.00000000
_symmetry_Int_Tables_number   1
_chemical_formula_structural   Er2MgNb2O8
_chemical_formula_sum   'Er2 Mg1 Nb2 O8'
_cell_volume   171.17579365
_cell_formula_units_Z   1
loop_
 _symmetry_equiv_pos_site_id
 _symmetry_equiv_pos_as_xyz
  1  'x, y, z'
loop_
 _atom_site_type_symbol
 _atom_site_label
 _atom_site_symmetry_multiplicity
 _atom_site_fract_x
 _atom_site_fract_y
 _atom_site_fract_z
 _atom_site_occupancy
  Er  Er0  1  0.25000000  0.85064000  0.00000000  1
  Er  Er1  1  0.75000000  0.14004600  0.00000000  1
  Mg  Mg0  1  0.25000000  0.38001500  0.00000000  1
  Nb  Nb0  1  0.25000000  0.36137500  0.50000000  1
  Nb  Nb1  1  0.75000000  0.63797300  0.50000000  1
  O  O0  1  0.10982200  0.14040300  0.77628100  1
  O  O1  1  0.08385900  0.59641600  0.74426400  1
  O  O2  1  0.41614100  0.59641600  0.25573600  1
  O  O3  1  0.39017800  0.14040300  0.22371900  1
  O  O4  1  0.60679500  0.84933400  0.75423800  1
  O  O5  1  0.56164700  0.37167900  0.73443900  1
  O  O6  1  0.93835300  0.37167900  0.26556100  1
  O  O7  1  0.89320500  0.84933400  0.24576200  1
loop_
_geom_bond_atom_site_label_1
_geom_bond_atom_site_label_2
_geom_bond_distance
_geom_bond_site_symmetry_2
Er0 O4 2.251653 1_554
Er0 O7 2.251653 1_455
Er0 O2 2.260999 1_555
Er0 O1 2.260999 1_554
Er0 O3 2.274277 1_565
Er0 O0 2.274277 1_564
Er1 O0 2.208076 1_654
Er1 O3 2.208076 1_555
Er1 O6 2.254455 1_555
Er1 O5 2.254455 1_554
Er1 O7 2.346337 1_545
Er1 O4 2.346337 1_544
Mg0 O3 2.041417 1_555
Mg0 O0 2.041417 1_554
Mg0 O2 2.106731 1_555
Mg0 O1 2.106731 1_554
Mg0 O6 2.116874 1_455
Mg0 O5 2.116874 1_554
Nb0 O3 2.086735 1_555
Nb0 O0 2.086735 1_555
Nb0 O1 2.092187 1_555
Nb0 O2 2.092187 1_555
Nb0 O5 2.119111 1_555
Nb0 O6 2.119111 1_455
Nb1 O4 1.978791 1_555
Nb1 O7 1.978791 1_555
Nb1 O5 2.250166 1_555
Nb1 O6 2.250166 1_555
Nb1 O1 2.262046 1_655
Nb1 O2 2.262046 1_555
