# generated using pymatgen
data_Al10Si2O19
_symmetry_space_group_name_H-M   'P 1'
_cell_length_a   15.43225709
_cell_length_b   15.43225709
_cell_length_c   7.68831300
_cell_angle_alpha   90.00000000
_cell_angle_beta   90.00000000
_cell_angle_gamma   157.88576191
_symmetry_Int_Tables_number   1
_chemical_formula_structural   Al10Si2O19
_chemical_formula_sum   'Al20 Si4 O38'
_cell_volume   689.29073701
_cell_formula_units_Z   2
loop_
 _symmetry_equiv_pos_site_id
 _symmetry_equiv_pos_as_xyz
  1  'x, y, z'
loop_
 _atom_site_type_symbol
 _atom_site_label
 _atom_site_symmetry_multiplicity
 _atom_site_fract_x
 _atom_site_fract_y
 _atom_site_fract_z
 _atom_site_occupancy
  Al  Al0  1  0.30208100  0.18345100  0.99318100  1
  Al  Al1  1  0.69791900  0.81654900  0.49318100  1
  Al  Al2  1  0.81654900  0.69791900  0.99318100  1
  Al  Al3  1  0.18345100  0.30208100  0.49318100  1
  Al  Al4  1  0.97027500  0.02972500  0.83867000  1
  Al  Al5  1  0.02972500  0.97027500  0.33867000  1
  Al  Al6  1  0.47547700  0.52452300  0.82022800  1
  Al  Al7  1  0.52452300  0.47547700  0.32022800  1
  Al  Al8  1  0.21911300  0.78088700  0.82432900  1
  Al  Al9  1  0.78088700  0.21911300  0.32432900  1
  Al  Al10  1  0.14487300  0.85512700  0.18876200  1
  Al  Al11  1  0.85512700  0.14487300  0.68876200  1
  Al  Al12  1  0.39873300  0.60126700  0.16286900  1
  Al  Al13  1  0.60126700  0.39873300  0.66286900  1
  Al  Al14  1  0.89840000  0.10160000  0.16976100  1
  Al  Al15  1  0.10160000  0.89840000  0.66976100  1
  Al  Al16  1  0.93527300  0.55740600  0.50839000  1
  Al  Al17  1  0.06472700  0.44259400  0.00839000  1
  Al  Al18  1  0.44259400  0.06472700  0.50839000  1
  Al  Al19  1  0.55740600  0.93527300  0.00839000  1
  Si  Si0  1  0.38070700  0.61929300  0.78410200  1
  Si  Si1  1  0.61929300  0.38070700  0.28410200  1
  Si  Si2  1  0.24255900  0.75744100  0.18588000  1
  Si  Si3  1  0.75744100  0.24255900  0.68588000  1
  O  O0  1  0.07631600  0.92368400  0.47105300  1
  O  O1  1  0.92368400  0.07631600  0.97105300  1
  O  O2  1  0.80382300  0.19617700  0.55293300  1
  O  O3  1  0.19617700  0.80382300  0.05293300  1
  O  O4  1  0.57960300  0.42039700  0.43856500  1
  O  O5  1  0.42039700  0.57960300  0.93856500  1
  O  O6  1  0.72154000  0.78460900  0.70991000  1
  O  O7  1  0.27846000  0.21539100  0.20991000  1
  O  O8  1  0.21539100  0.27846000  0.70991000  1
  O  O9  1  0.78460900  0.72154000  0.20991000  1
  O  O10  1  0.97306500  0.51425600  0.70344600  1
  O  O11  1  0.02693500  0.48574400  0.20344600  1
  O  O12  1  0.48574400  0.02693500  0.70344600  1
  O  O13  1  0.51425600  0.97306500  0.20344600  1
  O  O14  1  0.88323600  0.58145600  0.30691900  1
  O  O15  1  0.11676400  0.41854400  0.80691900  1
  O  O16  1  0.41854400  0.11676400  0.30691900  1
  O  O17  1  0.58145600  0.88323600  0.80691900  1
  O  O18  1  0.16378800  0.34666500  0.28028000  1
  O  O19  1  0.83621200  0.65333500  0.78028000  1
  O  O20  1  0.65333500  0.83621200  0.28028000  1
  O  O21  1  0.34666500  0.16378800  0.78028000  1
  O  O22  1  0.02467800  0.97532200  0.91921300  1
  O  O23  1  0.97532200  0.02467800  0.41921300  1
  O  O24  1  0.16395200  0.83604800  0.63849600  1
  O  O25  1  0.83604800  0.16395200  0.13849600  1
  O  O26  1  0.65707700  0.34292300  0.59516400  1
  O  O27  1  0.34292300  0.65707700  0.09516400  1
  O  O28  1  0.40119600  0.59880400  0.59037000  1
  O  O29  1  0.59880400  0.40119600  0.09037000  1
  O  O30  1  0.90186800  0.09813200  0.56521200  1
  O  O31  1  0.09813200  0.90186800  0.06521200  1
  O  O32  1  0.21599300  0.78400700  0.38164100  1
  O  O33  1  0.78400700  0.21599300  0.88164100  1
  O  O34  1  0.72859500  0.27140500  0.44680300  1
  O  O35  1  0.27140500  0.72859500  0.94680300  1
  O  O36  1  0.47419700  0.52580300  0.42669500  1
  O  O37  1  0.52580300  0.47419700  0.92669500  1
loop_
_geom_bond_atom_site_label_1
_geom_bond_atom_site_label_2
_geom_bond_distance
_geom_bond_site_symmetry_2
Al0 O7 1.866881 1_556
Al0 O22 1.867972 1_545
Al0 O37 1.900087 1_555
Al0 O21 1.905671 1_555
Al0 O31 1.937610 1_546
Al0 O29 2.075510 1_556
Al1 O6 1.866881 1_555
Al1 O23 1.867972 1_565
Al1 O36 1.900087 1_555
Al1 O20 1.905671 1_555
Al1 O30 1.937610 1_565
Al1 O28 2.075510 1_555
Al2 O9 1.866881 1_556
Al2 O22 1.867972 1_655
Al2 O37 1.900087 1_555
Al2 O19 1.905671 1_555
Al2 O31 1.937610 1_656
Al2 O29 2.075510 1_556
Al3 O8 1.866881 1_555
Al3 O23 1.867972 1_455
Al3 O36 1.900087 1_555
Al3 O18 1.905671 1_555
Al3 O30 1.937610 1_455
Al3 O28 2.075510 1_555
Al4 O1 1.740037 1_555
Al4 O22 1.760455 1_645
Al4 O8 1.766195 1_655
Al4 O6 1.766195 1_545
Al5 O0 1.740037 1_555
Al5 O23 1.760455 1_465
Al5 O7 1.766195 1_565
Al5 O9 1.766195 1_455
Al6 O37 1.730313 1_555
Al6 O8 1.734548 1_555
Al6 O6 1.734548 1_555
Al6 O5 1.900398 1_555
Al7 O36 1.730313 1_555
Al7 O7 1.734548 1_555
Al7 O9 1.734548 1_555
Al7 O4 1.900398 1_555
Al8 O10 1.806487 1_455
Al8 O12 1.806487 1_565
Al8 O35 1.842748 1_555
Al8 O3 1.889917 1_556
Al8 O24 2.198466 1_555
Al9 O13 1.806487 1_545
Al9 O11 1.806487 1_655
Al9 O34 1.842748 1_555
Al9 O2 1.889917 1_555
Al9 O25 2.198466 1_555
Al10 O31 1.704977 1_555
Al10 O14 1.835389 1_455
Al10 O16 1.835389 1_565
Al10 O3 1.872355 1_555
Al11 O30 1.704977 1_555
Al11 O17 1.835389 1_545
Al11 O15 1.835389 1_655
Al11 O2 1.872355 1_555
Al12 O20 1.732876 1_555
Al12 O18 1.732876 1_555
Al12 O27 1.768896 1_555
Al12 O5 1.845159 1_554
Al13 O21 1.732876 1_555
Al13 O19 1.732876 1_555
Al13 O26 1.768896 1_555
Al13 O4 1.845159 1_555
Al14 O1 1.708961 1_554
Al14 O20 1.760467 1_545
Al14 O18 1.760467 1_655
Al14 O25 1.903974 1_555
Al15 O0 1.708961 1_555
Al15 O21 1.760467 1_565
Al15 O19 1.760467 1_455
Al15 O24 1.903974 1_555
Al16 O26 1.871521 1_555
Al16 O14 1.932406 1_555
Al16 O10 1.937036 1_555
Al16 O34 1.947794 1_555
Al16 O24 1.956478 1_655
Al16 O32 1.968773 1_655
Al17 O27 1.871521 1_555
Al17 O15 1.932406 1_554
Al17 O11 1.937036 1_555
Al17 O35 1.947794 1_554
Al17 O25 1.956478 1_455
Al17 O33 1.968773 1_454
Al18 O26 1.871521 1_555
Al18 O16 1.932406 1_555
Al18 O12 1.937036 1_555
Al18 O34 1.947794 1_555
Al18 O24 1.956478 1_545
Al18 O32 1.968773 1_545
Al19 O27 1.871521 1_555
Al19 O17 1.932406 1_554
Al19 O13 1.937036 1_555
Al19 O35 1.947794 1_554
Al19 O25 1.956478 1_565
Al19 O33 1.968773 1_564
O2 Si3 1.737453 1_555
O3 Si2 1.737453 1_555
O4 Si1 1.689898 1_555
O5 Si0 1.689898 1_555
O10 Si3 1.679231 1_555
O11 Si2 1.679231 1_555
O12 Si3 1.679231 1_555
O13 Si2 1.679231 1_555
O14 Si1 1.684773 1_555
O15 Si0 1.684773 1_555
O16 Si1 1.684773 1_555
O17 Si0 1.684773 1_555
O28 Si0 1.613607 1_555
O29 Si1 1.613607 1_555
O32 Si2 1.706700 1_555
O33 Si3 1.706700 1_555
O34 Si3 2.035219 1_555
O35 Si2 2.035219 1_556
