# generated using pymatgen
data_Yb2InCu2
_symmetry_space_group_name_H-M   'P 1'
_cell_length_a   7.33071507
_cell_length_b   7.33071507
_cell_length_c   3.69241385
_cell_angle_alpha   90.00000000
_cell_angle_beta   90.00000000
_cell_angle_gamma   90.00000000
_symmetry_Int_Tables_number   1
_chemical_formula_structural   Yb2InCu2
_chemical_formula_sum   'Yb4 In2 Cu4'
_cell_volume   198.42804328
_cell_formula_units_Z   2
loop_
 _symmetry_equiv_pos_site_id
 _symmetry_equiv_pos_as_xyz
  1  'x, y, z'
loop_
 _atom_site_type_symbol
 _atom_site_label
 _atom_site_symmetry_multiplicity
 _atom_site_fract_x
 _atom_site_fract_y
 _atom_site_fract_z
 _atom_site_occupancy
  Yb  Yb0  1  0.66998914  0.16998914  0.50000000  1
  Yb  Yb1  1  0.16998914  0.33001086  0.50000000  1
  Yb  Yb2  1  0.83001086  0.66998914  0.50000000  1
  Yb  Yb3  1  0.33001086  0.83001086  0.50000000  1
  In  In0  1  0.00000000  0.00000000  0.00000000  1
  In  In1  1  0.50000000  0.50000000  0.00000000  1
  Cu  Cu0  1  0.12168122  0.62168122  0.00000000  1
  Cu  Cu1  1  0.62168122  0.87831878  0.00000000  1
  Cu  Cu2  1  0.37831878  0.12168122  0.00000000  1
  Cu  Cu3  1  0.87831878  0.37831878  0.00000000  1
loop_
_geom_bond_atom_site_label_1
_geom_bond_atom_site_label_2
_geom_bond_distance
_geom_bond_site_symmetry_2
In0 Yb1 3.288458 1_555
In0 Yb1 3.288458 1_554
In0 Yb3 3.288458 1_544
In0 Yb3 3.288458 1_545
In0 Yb0 3.288458 1_455
In0 Yb0 3.288458 1_454
In0 Yb2 3.288458 1_444
In0 Yb2 3.288458 1_445
In1 Yb2 3.288458 1_554
In1 Yb2 3.288458 1_555
In1 Yb3 3.288458 1_554
In1 Yb3 3.288458 1_555
In1 Yb0 3.288458 1_554
In1 Yb0 3.288458 1_555
In1 Yb1 3.288458 1_555
In1 Yb1 3.288458 1_554
Cu0 Cu3 2.522986 1_455
Cu0 Yb3 2.841336 1_555
Cu0 Yb3 2.841336 1_554
Cu0 Yb2 2.847031 1_455
Cu0 Yb2 2.847031 1_454
Cu0 Yb1 2.847031 1_555
Cu0 Yb1 2.847031 1_554
Cu0 In0 2.913269 1_565
Cu0 In1 2.913269 1_555
Cu1 Cu2 2.522986 1_565
Cu1 Yb2 2.841336 1_555
Cu1 Yb2 2.841336 1_554
Cu1 Yb0 2.847031 1_565
Cu1 Yb0 2.847031 1_564
Cu1 Yb3 2.847031 1_554
Cu1 Yb3 2.847031 1_555
Cu1 In1 2.913269 1_555
Cu1 In0 2.913269 1_665
Cu2 Yb1 2.841336 1_554
Cu2 Yb1 2.841336 1_555
Cu2 Yb3 2.847031 1_544
Cu2 Yb3 2.847031 1_545
Cu2 Yb0 2.847031 1_555
Cu2 Yb0 2.847031 1_554
Cu2 In0 2.913269 1_555
Cu2 In1 2.913269 1_555
Cu3 Yb0 2.841336 1_555
Cu3 Yb0 2.841336 1_554
Cu3 Yb1 2.847031 1_654
Cu3 Yb1 2.847031 1_655
Cu3 Yb2 2.847031 1_555
Cu3 Yb2 2.847031 1_554
Cu3 In0 2.913269 1_655
Cu3 In1 2.913269 1_555
