# generated using pymatgen
data_MgMn6(O3F)3
_symmetry_space_group_name_H-M   'P 1'
_cell_length_a   5.09363236
_cell_length_b   5.18379189
_cell_length_c   8.93094097
_cell_angle_alpha   90.01015227
_cell_angle_beta   89.99313732
_cell_angle_gamma   101.94924154
_symmetry_Int_Tables_number   1
_chemical_formula_structural   MgMn6(O3F)3
_chemical_formula_sum   'Mg1 Mn6 O9 F3'
_cell_volume   230.70571869
_cell_formula_units_Z   1
loop_
 _symmetry_equiv_pos_site_id
 _symmetry_equiv_pos_as_xyz
  1  'x, y, z'
loop_
 _atom_site_type_symbol
 _atom_site_label
 _atom_site_symmetry_multiplicity
 _atom_site_fract_x
 _atom_site_fract_y
 _atom_site_fract_z
 _atom_site_occupancy
  Mg  Mg0  1  0.50360435  0.03418119  0.66661226  1
  Mn  Mn0  1  0.02460689  0.98550390  0.00201219  1
  Mn  Mn1  1  0.02460969  0.98544894  0.33104450  1
  Mn  Mn2  1  0.00519083  0.98834168  0.66656532  1
  Mn  Mn3  1  0.46327416  0.53602592  0.84200991  1
  Mn  Mn4  1  0.49690717  0.51484669  0.16653033  1
  Mn  Mn5  1  0.46328614  0.53596652  0.49106215  1
  O  O0  1  0.19606650  0.85653649  0.51617355  1
  O  O1  1  0.19611219  0.85662496  0.81692919  1
  O  O2  1  0.30861968  0.31114267  -0.00001198  1
  O  O3  1  0.30859293  0.31106495  0.33308072  1
  O  O4  1  0.29732067  0.31746013  0.66652521  1
  O  O5  1  0.70609653  0.68782438  0.99630445  1
  O  O6  1  0.70610195  0.68775233  0.33673655  1
  O  O7  1  0.66992261  0.71787103  0.66655180  1
  O  O8  1  0.87224995  0.11732828  0.16655545  1
  F  F0  1  0.22658509  0.79268976  0.16643660  1
  F  F1  1  0.80005147  0.16628447  0.52102337  1
  F  F2  1  0.80024719  0.16654869  0.81214543  1
loop_
_geom_bond_atom_site_label_1
_geom_bond_atom_site_label_2
_geom_bond_distance
_geom_bond_site_symmetry_2
Mg0 O4 1.974674 1_555
Mg0 O7 1.995360 1_545
Mg0 O1 2.122621 1_545
Mg0 O0 2.123620 1_545
Mn0 O8 1.856798 1_465
Mn0 O2 1.982781 1_565
Mn0 O5 1.994793 1_454
Mn0 O1 2.045169 1_554
Mn1 O8 1.856890 1_465
Mn1 O3 1.982614 1_565
Mn1 O6 1.994838 1_455
Mn1 O0 2.045811 1_555
Mn2 O0 1.868306 1_555
Mn2 O1 1.868390 1_555
Mn2 O7 1.972475 1_455
Mn2 O4 2.018324 1_565
Mn3 O2 1.894780 1_556
Mn3 O5 1.909153 1_555
Mn3 O7 2.010298 1_555
Mn3 O4 2.014344 1_555
Mn3 O1 2.366579 1_555
Mn4 O2 1.956420 1_555
Mn4 O3 1.956813 1_555
Mn4 O6 1.963139 1_555
Mn4 O5 1.963440 1_554
Mn5 O3 1.894742 1_555
Mn5 O6 1.909304 1_555
Mn5 O7 2.010539 1_555
Mn5 O4 2.014221 1_555
Mn5 O0 2.366606 1_555
F0 Mn0 2.154189 1_555
F0 Mn1 2.154728 1_555
F0 Mn4 2.188955 1_555
F1 Mg0 2.002829 1_555
F1 Mn2 2.008008 1_645
F1 Mn1 2.347081 1_645
F2 Mg0 2.003519 1_555
F2 Mn2 2.008019 1_645
F2 Mn0 2.346762 1_646
