# generated using pymatgen
data_LiBi(PO3)4
_symmetry_space_group_name_H-M   'P 1'
_cell_length_a   9.04580200
_cell_length_b   7.58995300
_cell_length_c   16.59906607
_cell_angle_alpha   69.00486290
_cell_angle_beta   90.00000000
_cell_angle_gamma   90.00000000
_symmetry_Int_Tables_number   1
_chemical_formula_structural   LiBi(PO3)4
_chemical_formula_sum   'Li4 Bi4 P16 O48'
_cell_volume   1063.98548348
_cell_formula_units_Z   4
loop_
 _symmetry_equiv_pos_site_id
 _symmetry_equiv_pos_as_xyz
  1  'x, y, z'
loop_
 _atom_site_type_symbol
 _atom_site_label
 _atom_site_symmetry_multiplicity
 _atom_site_fract_x
 _atom_site_fract_y
 _atom_site_fract_z
 _atom_site_occupancy
  Li  Li0  1  0.58022400  0.92981000  0.07584200  1
  Li  Li1  1  0.41977600  0.07019000  0.92415800  1
  Li  Li2  1  0.91977600  0.92981000  0.57584200  1
  Li  Li3  1  0.08022400  0.07019000  0.42415800  1
  Bi  Bi0  1  0.34617600  0.68051200  0.36036800  1
  Bi  Bi1  1  0.15382400  0.68051200  0.86036800  1
  Bi  Bi2  1  0.84617600  0.31948800  0.13963200  1
  Bi  Bi3  1  0.65382400  0.31948800  0.63963200  1
  P  P0  1  0.96995900  0.90748800  0.30979300  1
  P  P1  1  0.75916400  0.23328600  0.94381900  1
  P  P2  1  0.25916400  0.76671400  0.55618100  1
  P  P3  1  0.73991200  0.63458600  0.42375400  1
  P  P4  1  0.05964200  0.66320600  0.21441500  1
  P  P5  1  0.26008800  0.36541400  0.57624600  1
  P  P6  1  0.24083600  0.76671400  0.05618100  1
  P  P7  1  0.03004100  0.09251200  0.69020700  1
  P  P8  1  0.74083600  0.23328600  0.44381900  1
  P  P9  1  0.55964200  0.33679400  0.28558500  1
  P  P10  1  0.53004100  0.90748800  0.80979300  1
  P  P11  1  0.23991200  0.36541400  0.07624600  1
  P  P12  1  0.76008800  0.63458600  0.92375400  1
  P  P13  1  0.46995900  0.09251200  0.19020700  1
  P  P14  1  0.44035800  0.66320600  0.71441500  1
  P  P15  1  0.94035800  0.33679400  0.78558500  1
  O  O0  1  0.37593700  0.91585700  0.84353900  1
  O  O1  1  0.73658200  0.58491400  0.52025900  1
  O  O2  1  0.84153400  0.43208400  0.70945500  1
  O  O3  1  0.62177500  0.11357200  0.96034500  1
  O  O4  1  0.37822500  0.88642800  0.03965500  1
  O  O5  1  0.15243000  0.80061500  0.13348800  1
  O  O6  1  0.15846600  0.56791600  0.29054500  1
  O  O7  1  0.26341800  0.41508600  0.47974100  1
  O  O8  1  0.03884200  0.17932000  0.76513800  1
  O  O9  1  0.78944500  0.45270900  0.40025400  1
  O  O10  1  0.39191900  0.27160100  0.62891900  1
  O  O11  1  0.11445000  0.24052700  0.60899400  1
  O  O12  1  0.45653600  0.45523900  0.31473200  1
  O  O13  1  0.61314800  0.09074400  0.77718000  1
  O  O14  1  0.95653600  0.54476100  0.18526800  1
  O  O15  1  0.28944500  0.54729100  0.09974600  1
  O  O16  1  0.87593700  0.08414300  0.65646100  1
  O  O17  1  0.63813300  0.20751900  0.51835800  1
  O  O18  1  0.76341800  0.58491400  0.02025900  1
  O  O19  1  0.65846600  0.43208400  0.20945500  1
  O  O20  1  0.13813300  0.79248100  0.98164200  1
  O  O21  1  0.84757000  0.19938500  0.86651200  1
  O  O22  1  0.65243000  0.19938500  0.36651200  1
  O  O23  1  0.11314800  0.90925600  0.72282000  1
  O  O24  1  0.87822500  0.11357200  0.46034500  1
  O  O25  1  0.61445000  0.75947300  0.89100600  1
  O  O26  1  0.89191900  0.72839900  0.87108100  1
  O  O27  1  0.53884200  0.82068000  0.73486200  1
  O  O28  1  0.46115800  0.17932000  0.26513800  1
  O  O29  1  0.10808100  0.27160100  0.12891900  1
  O  O30  1  0.38555000  0.24052700  0.10899400  1
  O  O31  1  0.12177500  0.88642800  0.53965500  1
  O  O32  1  0.88685200  0.09074400  0.27718000  1
  O  O33  1  0.34757000  0.80061500  0.63348800  1
  O  O34  1  0.62406300  0.08414300  0.15646100  1
  O  O35  1  0.86186700  0.20751900  0.01835800  1
  O  O36  1  0.34153400  0.56791600  0.79054500  1
  O  O37  1  0.23658200  0.41508600  0.97974100  1
  O  O38  1  0.36186700  0.79248100  0.48164200  1
  O  O39  1  0.12406300  0.91585700  0.34353900  1
  O  O40  1  0.71055500  0.45270900  0.90025400  1
  O  O41  1  0.04346400  0.45523900  0.81473200  1
  O  O42  1  0.38685200  0.90925600  0.22282000  1
  O  O43  1  0.54346400  0.54476100  0.68526800  1
  O  O44  1  0.88555000  0.75947300  0.39100600  1
  O  O45  1  0.96115800  0.82068000  0.23486200  1
  O  O46  1  0.21055500  0.54729100  0.59974600  1
  O  O47  1  0.60808100  0.72839900  0.37108100  1
loop_
_geom_bond_atom_site_label_1
_geom_bond_atom_site_label_2
_geom_bond_distance
_geom_bond_site_symmetry_2
Li0 O3 1.961108 1_564
Li0 O4 1.987401 1_555
Li0 O34 2.107946 1_565
Li1 O4 1.961108 1_546
Li1 O3 1.987401 1_555
Li1 O0 2.107946 1_545
Li2 O24 1.961108 1_565
Li2 O31 1.987401 1_655
Li2 O16 2.107946 1_565
Li3 O31 1.961108 1_545
Li3 O24 1.987401 1_455
Li3 O39 2.107946 1_545
Bi0 O12 2.328517 1_555
Bi0 O42 2.349896 1_555
Bi0 O6 2.380447 1_555
Bi0 O7 2.384266 1_555
Bi0 O47 2.413062 1_555
Bi0 O38 2.453686 1_555
Bi0 O39 2.635913 1_555
Bi1 O41 2.328517 1_555
Bi1 O23 2.349896 1_555
Bi1 O36 2.380447 1_555
Bi1 O37 2.384266 1_555
Bi1 O26 2.413062 1_455
Bi1 O20 2.453686 1_555
Bi1 O0 2.635913 1_555
Bi2 O14 2.328517 1_555
Bi2 O32 2.349896 1_555
Bi2 O19 2.380447 1_555
Bi2 O18 2.384266 1_555
Bi2 O29 2.413062 1_655
Bi2 O35 2.453686 1_555
Bi2 O34 2.635913 1_555
Bi3 O43 2.328517 1_555
Bi3 O13 2.349896 1_555
Bi3 O2 2.380447 1_555
Bi3 O1 2.384266 1_555
Bi3 O10 2.413062 1_555
Bi3 O17 2.453686 1_555
Bi3 O16 2.635913 1_555
O0 P10 1.512125 1_555
O1 P3 1.508755 1_555
O2 P15 1.504727 1_555
O3 P1 1.505581 1_555
O4 P6 1.505581 1_555
O5 P6 1.609036 1_555
O5 P4 1.610209 1_555
O6 P4 1.504727 1_555
O7 P5 1.508755 1_555
O8 P7 1.604579 1_555
O8 P15 1.621134 1_455
O9 P8 1.620763 1_555
O9 P3 1.626159 1_555
O10 P5 1.499142 1_555
O11 P5 1.600103 1_555
O11 P7 1.605347 1_555
O12 P9 1.491247 1_555
O13 P10 1.501091 1_545
O14 P4 1.491247 1_655
O15 P6 1.620763 1_555
O15 P11 1.626159 1_555
O16 P7 1.512125 1_655
O17 P8 1.502933 1_555
O18 P12 1.508755 1_554
O19 P9 1.504727 1_555
O20 P6 1.502933 1_556
O21 P1 1.609036 1_555
O21 P15 1.610209 1_555
O22 P8 1.609036 1_555
O22 P9 1.610209 1_555
O23 P7 1.501091 1_565
O24 P8 1.505581 1_555
O25 P12 1.600103 1_555
O25 P10 1.605347 1_555
O26 P12 1.499142 1_555
O27 P10 1.604579 1_555
O27 P14 1.621134 1_555
O28 P13 1.604579 1_555
O28 P9 1.621134 1_555
O29 P11 1.499142 1_555
O30 P11 1.600103 1_555
O30 P13 1.605347 1_555
O31 P2 1.505581 1_555
O32 P0 1.501091 1_545
O33 P2 1.609036 1_555
O33 P14 1.610209 1_555
O34 P13 1.512125 1_555
O35 P1 1.502933 1_554
O36 P14 1.504727 1_555
O37 P11 1.508755 1_556
O38 P2 1.502933 1_555
O39 P0 1.512125 1_455
O40 P1 1.620763 1_555
O40 P12 1.626159 1_555
O41 P15 1.491247 1_455
O42 P13 1.501091 1_565
O43 P14 1.491247 1_555
O44 P3 1.600103 1_555
O44 P0 1.605347 1_555
O45 P0 1.604579 1_555
O45 P4 1.621134 1_655
O46 P2 1.620763 1_555
O46 P5 1.626159 1_555
O47 P3 1.499142 1_555
