# generated using pymatgen
data_InCuO2
_symmetry_space_group_name_H-M   'P 1'
_cell_length_a   6.08880554
_cell_length_b   6.08880556
_cell_length_c   6.08880706
_cell_angle_alpha   31.55952146
_cell_angle_beta   31.55952463
_cell_angle_gamma   31.55952313
_symmetry_Int_Tables_number   1
_chemical_formula_structural   InCuO2
_chemical_formula_sum   'In1 Cu1 O2'
_cell_volume   54.90256328
_cell_formula_units_Z   1
loop_
 _symmetry_equiv_pos_site_id
 _symmetry_equiv_pos_as_xyz
  1  'x, y, z'
loop_
 _atom_site_type_symbol
 _atom_site_label
 _atom_site_symmetry_multiplicity
 _atom_site_fract_x
 _atom_site_fract_y
 _atom_site_fract_z
 _atom_site_occupancy
  In  In0  1  0.50000000  0.50000000  0.50000000  1
  Cu  Cu0  1  0.00000000  0.00000000  0.00000000  1
  O  O0  1  0.89442122  0.89442122  0.89442122  1
  O  O1  1  0.10557878  0.10557878  0.10557878  1
loop_
_geom_bond_atom_site_label_1
_geom_bond_atom_site_label_2
_geom_bond_distance
_geom_bond_site_symmetry_2
In0 O0 2.185839 1_554
In0 O1 2.185839 1_556
In0 O0 2.185839 1_545
In0 O1 2.185839 1_565
In0 O0 2.185840 1_455
In0 O1 2.185840 1_655
Cu0 O0 1.831000 1_444
Cu0 O1 1.831000 1_555
