# generated using pymatgen
data_TlV3Cu5O13
_symmetry_space_group_name_H-M   'P 1'
_cell_length_a   6.20380200
_cell_length_b   8.32024643
_cell_length_c   10.92776772
_cell_angle_alpha   97.56220625
_cell_angle_beta   92.73746584
_cell_angle_gamma   90.68546568
_symmetry_Int_Tables_number   1
_chemical_formula_structural   TlV3Cu5O13
_chemical_formula_sum   'Tl2 V6 Cu10 O26'
_cell_volume   558.42153745
_cell_formula_units_Z   2
loop_
 _symmetry_equiv_pos_site_id
 _symmetry_equiv_pos_as_xyz
  1  'x, y, z'
loop_
 _atom_site_type_symbol
 _atom_site_label
 _atom_site_symmetry_multiplicity
 _atom_site_fract_x
 _atom_site_fract_y
 _atom_site_fract_z
 _atom_site_occupancy
  Tl  Tl0  1  0.75065600  0.47927500  0.59413600  1
  Tl  Tl1  1  0.24934400  0.52072500  0.40586400  1
  V  V0  1  0.25990500  0.17945300  0.12051500  1
  V  V1  1  0.74009500  0.82054700  0.87948500  1
  V  V2  1  0.76047700  0.87952800  0.50556500  1
  V  V3  1  0.23952300  0.12047200  0.49443500  1
  V  V4  1  0.74334600  0.52816400  0.20846000  1
  V  V5  1  0.25665400  0.47183600  0.79154000  1
  Cu  Cu0  1  0.25540000  0.80862000  0.64819900  1
  Cu  Cu1  1  0.74460000  0.19138000  0.35180100  1
  Cu  Cu2  1  0.50508800  0.10593500  0.77014300  1
  Cu  Cu3  1  0.26614500  0.85437500  0.94113100  1
  Cu  Cu4  1  0.00280900  0.10375900  0.77281900  1
  Cu  Cu5  1  0.99719100  0.89624100  0.22718100  1
  Cu  Cu6  1  0.77027200  0.39464700  0.89362200  1
  Cu  Cu7  1  0.22972800  0.60535300  0.10637800  1
  Cu  Cu8  1  0.73385500  0.14562500  0.05886900  1
  Cu  Cu9  1  0.49491200  0.89406500  0.22985700  1
  O  O0  1  0.54567700  0.75531600  0.51998000  1
  O  O1  1  0.45432300  0.24468400  0.48002000  1
  O  O2  1  0.00498900  0.22594500  0.46469100  1
  O  O3  1  0.99501100  0.77405500  0.53530900  1
  O  O4  1  0.02113000  0.11790200  0.18646800  1
  O  O5  1  0.97887000  0.88209800  0.81353200  1
  O  O6  1  0.72742700  0.91187500  0.03222100  1
  O  O7  1  0.27257300  0.08812500  0.96777900  1
  O  O8  1  0.74527600  0.04027800  0.61778600  1
  O  O9  1  0.25472400  0.95972200  0.38221400  1
  O  O10  1  0.76102200  0.61852000  0.88424800  1
  O  O11  1  0.23897800  0.38148000  0.11575200  1
  O  O12  1  0.76734800  0.15716000  0.88034400  1
  O  O13  1  0.23265200  0.84284000  0.11965600  1
  O  O14  1  0.73143400  0.38301400  0.07417500  1
  O  O15  1  0.26856600  0.61698600  0.92582500  1
  O  O16  1  0.47757900  0.34328700  0.78321700  1
  O  O17  1  0.52242100  0.65671300  0.21678300  1
  O  O18  1  0.75689200  0.94918200  0.34106000  1
  O  O19  1  0.24310800  0.05081800  0.65894000  1
  O  O20  1  0.25260100  0.57902300  0.66705400  1
  O  O21  1  0.74739900  0.42097700  0.33294600  1
  O  O22  1  0.51237900  0.13126400  0.20145500  1
  O  O23  1  0.02345000  0.34170600  0.78138700  1
  O  O24  1  0.48762100  0.86873600  0.79854500  1
  O  O25  1  0.97655000  0.65829400  0.21861300  1
loop_
_geom_bond_atom_site_label_1
_geom_bond_atom_site_label_2
_geom_bond_distance
_geom_bond_site_symmetry_2
Cu0 O20 1.948118 1_555
Cu0 O3 1.979707 1_455
Cu0 O19 2.005663 1_565
Cu0 O24 2.136659 1_555
Cu0 O0 2.345087 1_555
Cu0 O5 2.571283 1_455
Cu1 O21 1.948118 1_555
Cu1 O2 1.979707 1_655
Cu1 O18 2.005663 1_545
Cu1 O22 2.136659 1_555
Cu1 O1 2.345087 1_555
Cu1 O4 2.571283 1_655
Cu2 O16 1.971195 1_555
Cu2 O12 1.984992 1_555
Cu2 O19 1.993830 1_555
Cu2 O24 2.040173 1_545
Cu2 O8 2.303862 1_555
Cu3 O7 1.927908 1_565
Cu3 O15 1.960448 1_555
Cu3 O13 1.986414 1_556
Cu3 O24 2.139983 1_555
Cu3 O5 2.242950 1_455
Cu4 O12 1.937504 1_455
Cu4 O5 1.958843 1_445
Cu4 O23 1.971975 1_555
Cu4 O19 2.003420 1_555
Cu4 O8 2.277609 1_455
Cu5 O13 1.937504 1_655
Cu5 O4 1.958843 1_665
Cu5 O25 1.971975 1_555
Cu5 O18 2.003420 1_555
Cu5 O9 2.277609 1_655
Cu6 O10 1.880312 1_555
Cu6 O12 1.961935 1_555
Cu6 O14 2.013810 1_556
Cu6 O23 2.055148 1_655
Cu6 O16 2.138187 1_555
Cu7 O11 1.880312 1_555
Cu7 O13 1.961935 1_555
Cu7 O15 2.013810 1_554
Cu7 O25 2.055148 1_455
Cu7 O17 2.138187 1_555
Cu8 O6 1.927908 1_545
Cu8 O14 1.960448 1_555
Cu8 O12 1.986414 1_554
Cu8 O22 2.139983 1_555
Cu8 O4 2.242950 1_655
Cu9 O17 1.971195 1_555
Cu9 O13 1.984992 1_555
Cu9 O18 1.993830 1_555
Cu9 O22 2.040173 1_565
Cu9 O9 2.303862 1_555
O0 V2 1.702525 1_555
O0 Tl1 2.792674 1_555
O0 Tl0 2.830205 1_555
O1 V3 1.702525 1_555
O1 Tl0 2.792674 1_555
O1 Tl1 2.830205 1_555
O2 V3 1.747355 1_555
O3 V2 1.747355 1_555
O4 V0 1.776785 1_555
O5 V1 1.776785 1_555
O6 V1 1.746281 1_554
O7 V0 1.746281 1_556
O8 V2 1.698228 1_545
O9 V3 1.698228 1_565
O10 V1 1.694887 1_555
O11 V0 1.694887 1_555
O14 V4 1.771548 1_555
O15 V5 1.771548 1_555
O16 V5 1.747021 1_555
O17 V4 1.747021 1_555
O18 V2 1.959257 1_555
O19 V3 1.959257 1_555
O20 V5 1.721375 1_555
O20 Tl1 2.830572 1_555
O21 V4 1.721375 1_555
O21 Tl0 2.830572 1_555
O22 V0 1.836413 1_555
O23 V5 1.786964 1_555
O24 V1 1.836413 1_555
O25 V4 1.786964 1_555
