# generated using pymatgen
data_Na2Nb2Al2Si3(SO8)3
_symmetry_space_group_name_H-M   'P 1'
_cell_length_a   8.69229368
_cell_length_b   8.68556270
_cell_length_c   22.53597519
_cell_angle_alpha   89.62529323
_cell_angle_beta   90.67151146
_cell_angle_gamma   119.70896379
_symmetry_Int_Tables_number   1
_chemical_formula_structural   Na2Nb2Al2Si3(SO8)3
_chemical_formula_sum   'Na6 Nb6 Al6 Si9 S9 O72'
_cell_volume   1477.66349447
_cell_formula_units_Z   3
loop_
 _symmetry_equiv_pos_site_id
 _symmetry_equiv_pos_as_xyz
  1  'x, y, z'
loop_
 _atom_site_type_symbol
 _atom_site_label
 _atom_site_symmetry_multiplicity
 _atom_site_fract_x
 _atom_site_fract_y
 _atom_site_fract_z
 _atom_site_occupancy
  Na  Na0  1  0.98946209  0.98741620  0.49238847  1
  Na  Na1  1  0.00502139  0.99163598  0.99717854  1
  Na  Na2  1  0.65476685  0.32132223  0.82618302  1
  Na  Na3  1  0.66999890  0.32268806  0.32849504  1
  Na  Na4  1  0.32012256  0.66168349  0.16765640  1
  Na  Na5  1  0.34239879  0.66245329  0.65973819  1
  Nb  Nb0  1  0.98872881  0.00205778  0.64447200  1
  Nb  Nb1  1  0.00728856  0.99619760  0.14977569  1
  Nb  Nb2  1  0.66639641  0.33498992  0.97859592  1
  Nb  Nb3  1  0.67702663  0.34587506  0.47383732  1
  Nb  Nb4  1  0.31952620  0.67633148  0.31168495  1
  Nb  Nb5  1  0.34676262  0.68286015  0.80707838  1
  Al  Al0  1  0.00454967  0.00565090  0.35517699  1
  Al  Al1  1  0.01873039  0.01442646  0.84873474  1
  Al  Al2  1  0.64328161  0.32627860  0.68812817  1
  Al  Al3  1  0.68675969  0.33845518  0.19337669  1
  Al  Al4  1  0.31077314  0.67428040  0.02120870  1
  Al  Al5  1  0.35573372  0.68281558  0.51542062  1
  Si  Si0  1  0.30301130  0.02264515  0.25431659  1
  Si  Si1  1  0.99676632  0.28286506  0.25407675  1
  Si  Si2  1  0.29269582  0.28281319  0.75159071  1
  Si  Si3  1  0.72997208  0.02435372  0.75314571  1
  Si  Si4  1  0.64947682  0.61056917  0.58568489  1
  Si  Si5  1  0.95712760  0.61668619  0.08760301  1
  Si  Si6  1  0.31501623  0.94935531  0.91786318  1
  Si  Si7  1  0.63275454  0.94992714  0.41782002  1
  Si  Si8  1  0.06096512  0.68804055  0.42114646  1
  S  S0  1  0.71257968  0.70665167  0.25119635  1
  S  S1  1  0.99106456  0.70966807  0.75108007  1
  S  S2  1  0.95683991  0.34346901  0.58467114  1
  S  S3  1  0.38165532  0.04241616  0.58435523  1
  S  S4  1  0.65862464  0.03778071  0.08384231  1
  S  S5  1  0.38043959  0.34336451  0.08321084  1
  S  S6  1  0.62128487  0.67467781  0.91904833  1
  S  S7  1  0.05135951  0.37815195  0.91817249  1
  S  S8  1  0.32562229  0.37846468  0.41791572  1
  O  O0  1  0.19709275  0.03338179  0.30933007  1
  O  O1  1  0.82247922  0.78709564  0.30360933  1
  O  O2  1  0.97057925  0.15748647  0.30887851  1
  O  O3  1  0.20336151  0.16671605  0.80926323  1
  O  O4  1  0.96898404  0.79213486  0.80467929  1
  O  O5  1  0.83951527  0.02825004  0.81135133  1
  O  O6  1  0.80170204  0.96888682  0.69312685  1
  O  O7  1  0.16608611  0.19385701  0.69210498  1
  O  O8  1  0.03010159  0.82087521  0.69713728  1
  O  O9  1  0.79299283  0.81953686  0.19559632  1
  O  O10  1  0.02357086  0.19034509  0.19144532  1
  O  O11  1  0.17186617  0.96854992  0.19228538  1
  O  O12  1  0.87060538  0.35841590  0.63762803  1
  O  O13  1  0.48945466  0.12404434  0.63849883  1
  O  O14  1  0.63976283  0.49401771  0.64260860  1
  O  O15  1  0.84747126  0.49044859  0.14130192  1
  O  O16  1  0.62992830  0.11944171  0.13569271  1
  O  O17  1  0.48628188  0.36451120  0.13594374  1
  O  O18  1  0.45961424  0.30726634  0.02840047  1
  O  O19  1  0.83191472  0.52215353  0.02615697  1
  O  O20  1  0.68645079  0.15113014  0.02888112  1
  O  O21  1  0.45918087  0.15142096  0.53102616  1
  O  O22  1  0.68912487  0.52329434  0.52654910  1
  O  O23  1  0.84609185  0.30509133  0.52988113  1
  O  O24  1  0.53256327  0.68869899  0.97178668  1
  O  O25  1  0.15832968  0.46127281  0.97215338  1
  O  O26  1  0.30212281  0.83188033  0.97475826  1
  O  O27  1  0.54066432  0.83377109  0.47542781  1
  O  O28  1  0.30553349  0.46127479  0.47166695  1
  O  O29  1  0.17422236  0.69283658  0.47826439  1
  O  O30  1  0.12980409  0.63334946  0.35975571  1
  O  O31  1  0.50069760  0.85958456  0.35898158  1
  O  O32  1  0.36307350  0.48674059  0.36376545  1
  O  O33  1  0.12539521  0.48613096  0.86460237  1
  O  O34  1  0.35781978  0.86087859  0.85956140  1
  O  O35  1  0.51133831  0.63728403  0.86379428  1
  O  O36  1  0.03069675  0.85118632  0.40807468  1
  O  O37  1  0.82754093  0.98221733  0.40678857  1
  O  O38  1  0.17236289  0.20111412  0.41220372  1
  O  O39  1  0.02451894  0.19810507  0.91295457  1
  O  O40  1  0.14248260  0.97078519  0.90729673  1
  O  O41  1  0.79739146  0.82778780  0.91193616  1
  O  O42  1  0.97411519  0.17612162  0.58793177  1
  O  O43  1  0.20126860  0.02515035  0.59040307  1
  O  O44  1  0.83599100  0.81007281  0.59183393  1
  O  O45  1  0.97205971  0.81457464  0.08828557  1
  O  O46  1  0.82189480  0.02473268  0.08687878  1
  O  O47  1  0.20048939  0.18116331  0.08602392  1
  O  O48  1  0.70067024  0.18810223  0.73833735  1
  O  O49  1  0.48857439  0.31420161  0.74287673  1
  O  O50  1  0.84048202  0.53236177  0.74374377  1
  O  O51  1  0.69407921  0.53119578  0.24119044  1
  O  O52  1  0.82944931  0.31158057  0.24348141  1
  O  O53  1  0.48953181  0.18944420  0.23619828  1
  O  O54  1  0.63873907  0.50827349  0.92318775  1
  O  O55  1  0.86765394  0.35997826  0.92402666  1
  O  O56  1  0.49892901  0.14839813  0.92576390  1
  O  O57  1  0.63867029  0.14492051  0.42640958  1
  O  O58  1  0.48809224  0.35612141  0.42353716  1
  O  O59  1  0.85991829  0.50266039  0.42489938  1
  O  O60  1  0.36431186  0.50230619  0.07200501  1
  O  O61  1  0.15033116  0.63555228  0.07691908  1
  O  O62  1  0.50428629  0.85898452  0.07408610  1
  O  O63  1  0.35899625  0.86322712  0.57895045  1
  O  O64  1  0.47944666  0.63715162  0.57491686  1
  O  O65  1  0.13391197  0.49540073  0.57777022  1
  O  O66  1  0.31666572  0.83768653  0.25420472  1
  O  O67  1  0.53591327  0.69052180  0.25393670  1
  O  O68  1  0.18172232  0.47692038  0.25620451  1
  O  O69  1  0.30464453  0.48028787  0.76020131  1
  O  O70  1  0.15548708  0.69118506  0.75694281  1
  O  O71  1  0.52831888  0.83915325  0.75783379  1
loop_
_geom_bond_atom_site_label_1
_geom_bond_atom_site_label_2
_geom_bond_distance
_geom_bond_site_symmetry_2
Na0 O37 2.361957 1_555
Na0 O36 2.367403 1_655
Na0 O38 2.517264 1_665
Na0 O44 2.676368 1_555
Na0 O42 2.758600 1_565
Na0 O43 2.773465 1_665
Na1 O40 2.416492 1_555
Na1 O45 2.489674 1_456
Na1 O41 2.526167 1_455
Na1 O39 2.551291 1_565
Na1 O47 2.607030 1_566
Na1 O46 2.690613 1_466
Na2 O49 2.337660 1_555
Na2 O48 2.433788 1_555
Na2 O50 2.551520 1_555
Na2 O56 2.671618 1_555
Na2 O55 2.774391 1_555
Na2 O54 2.777206 1_555
Na3 O52 2.407905 1_555
Na3 O53 2.506400 1_555
Na3 O51 2.604211 1_555
Na3 O57 2.622971 1_555
Na3 O59 2.700248 1_555
Na3 O58 2.777534 1_555
Na4 O61 2.452440 1_555
Na4 O68 2.470923 1_555
Na4 O66 2.495584 1_555
Na4 O67 2.610935 1_555
Na4 O62 2.694184 1_555
Na4 O60 2.701081 1_555
Na5 O64 2.332317 1_555
Na5 O63 2.468143 1_555
Na5 O65 2.480319 1_555
Na5 O69 2.681946 1_555
Na5 O71 2.712279 1_555
Na5 O70 2.827203 1_555
Nb0 O6 1.871245 1_545
Nb0 O7 1.934727 1_655
Nb0 O44 1.935199 1_545
Nb0 O42 2.021564 1_555
Nb0 O8 2.130946 1_645
Nb0 O43 2.149500 1_655
Nb1 O11 1.824085 1_555
Nb1 O10 1.877886 1_565
Nb1 O45 2.010568 1_455
Nb1 O9 2.020343 1_455
Nb1 O47 2.194883 1_565
Nb1 O46 2.237239 1_465
Nb2 O19 1.878788 1_556
Nb2 O56 1.951754 1_555
Nb2 O20 2.027901 1_556
Nb2 O18 2.040391 1_556
Nb2 O54 2.051641 1_555
Nb2 O55 2.071329 1_555
Nb3 O59 1.863781 1_555
Nb3 O22 1.912386 1_555
Nb3 O57 1.933711 1_555
Nb3 O58 2.022340 1_555
Nb3 O23 2.084920 1_555
Nb3 O21 2.226647 1_555
Nb4 O30 1.859814 1_555
Nb4 O31 1.909931 1_555
Nb4 O66 1.911214 1_555
Nb4 O68 1.983618 1_555
Nb4 O32 2.194216 1_555
Nb4 O67 2.252143 1_555
Nb5 O71 1.860866 1_555
Nb5 O34 1.916458 1_555
Nb5 O69 1.929382 1_555
Nb5 O70 2.029821 1_555
Nb5 O35 2.085337 1_555
Nb5 O33 2.252403 1_555
Al0 O2 1.809909 1_455
Al0 O37 1.868166 1_445
Al0 O36 1.883519 1_545
Al0 O0 1.887940 1_555
Al0 O38 2.047336 1_555
Al0 O1 2.113440 1_445
Al1 O3 1.740815 1_555
Al1 O5 1.817743 1_455
Al1 O40 1.845768 1_545
Al1 O4 2.021856 1_445
Al1 O39 2.142699 1_555
Al1 O41 2.302330 1_445
Al2 O14 1.788778 1_555
Al2 O49 1.799738 1_555
Al2 O48 1.879336 1_555
Al2 O13 1.945975 1_555
Al2 O50 2.156583 1_555
Al2 O12 2.186188 1_555
Al3 O52 1.765932 1_555
Al3 O15 1.806025 1_555
Al3 O53 1.835367 1_555
Al3 O51 1.970790 1_555
Al3 O16 2.153690 1_555
Al3 O17 2.257730 1_555
Al4 O26 1.748320 1_554
Al4 O61 1.790215 1_555
Al4 O25 1.990810 1_554
Al4 O62 2.031342 1_555
Al4 O60 2.100543 1_555
Al4 O24 2.186787 1_554
Al5 O27 1.744935 1_555
Al5 O29 1.817202 1_555
Al5 O64 1.869073 1_555
Al5 O28 2.011896 1_555
Al5 O63 2.119044 1_555
Al5 O65 2.294430 1_555
O0 Si0 1.583277 1_555
O1 S0 1.455574 1_555
O2 Si1 1.583115 1_555
O3 Si2 1.593557 1_555
O4 S1 1.470354 1_555
O5 Si3 1.602426 1_555
O6 Si3 1.666237 1_565
O7 Si2 1.655719 1_555
O8 S1 1.481674 1_455
O9 S0 1.531364 1_555
O10 Si1 1.703051 1_455
O11 Si0 1.707284 1_565
O12 S2 1.456865 1_555
O13 S3 1.481737 1_555
O14 Si4 1.605739 1_555
O15 Si5 1.596557 1_555
O16 S4 1.457295 1_555
O17 S5 1.449882 1_555
O18 S5 1.528572 1_555
O19 Si5 1.694120 1_555
O20 S4 1.522148 1_555
O21 S3 1.471928 1_555
O22 Si4 1.659019 1_555
O23 S2 1.490597 1_555
O24 S6 1.462394 1_555
O25 S7 1.478269 1_555
O26 Si6 1.603296 1_555
O27 Si7 1.597125 1_555
O28 S8 1.468330 1_555
O29 Si8 1.599426 1_555
O30 Si8 1.675560 1_555
O31 Si7 1.666350 1_555
O32 S8 1.473245 1_555
O33 S7 1.468454 1_555
O34 Si6 1.662329 1_555
O35 S6 1.496360 1_555
O36 Si8 1.589398 1_555
O37 Si7 1.595452 1_555
O38 S8 1.458988 1_555
O39 S7 1.467613 1_555
O40 Si6 1.614998 1_555
O41 S6 1.456931 1_555
O42 S2 1.534702 1_555
O43 S3 1.507078 1_555
O44 Si4 1.692205 1_555
O45 Si5 1.658445 1_555
O46 S4 1.479417 1_555
O47 S5 1.500787 1_555
O48 Si3 1.596836 1_555
O49 Si2 1.599655 1_555
O50 S1 1.453438 1_555
O51 S0 1.469632 1_555
O52 Si1 1.607802 1_555
O53 Si0 1.604308 1_555
O54 S6 1.528368 1_555
O55 S7 1.531990 1_655
O56 Si6 1.683464 1_545
O57 Si7 1.681137 1_545
O58 S8 1.521597 1_555
O59 Si8 1.693019 1_655
O60 S5 1.475003 1_555
O61 Si5 1.625222 1_455
O62 S4 1.480640 1_565
O63 S3 1.474434 1_565
O64 Si4 1.620378 1_555
O65 S2 1.457501 1_455
O66 Si0 1.668498 1_565
O67 S0 1.473257 1_555
O68 Si1 1.655659 1_455
O69 Si2 1.678568 1_555
O70 S1 1.519401 1_455
O71 Si3 1.696609 1_565
