# generated using pymatgen
data_MgTi(CuS)4
_symmetry_space_group_name_H-M   'P 1'
_cell_length_a   5.51921196
_cell_length_b   5.51921185
_cell_length_c   6.83621371
_cell_angle_alpha   113.80809910
_cell_angle_beta   113.80809353
_cell_angle_gamma   89.99999619
_symmetry_Int_Tables_number   1
_chemical_formula_structural   MgTi(CuS)4
_chemical_formula_sum   'Mg1 Ti1 Cu4 S4'
_cell_volume   170.97393134
_cell_formula_units_Z   1
loop_
 _symmetry_equiv_pos_site_id
 _symmetry_equiv_pos_as_xyz
  1  'x, y, z'
loop_
 _atom_site_type_symbol
 _atom_site_label
 _atom_site_symmetry_multiplicity
 _atom_site_fract_x
 _atom_site_fract_y
 _atom_site_fract_z
 _atom_site_occupancy
  Mg  Mg0  1  0.50000000  0.50000000  0.00000000  1
  Ti  Ti0  1  0.00000000  0.00000000  0.00000000  1
  Cu  Cu0  1  0.50000000  0.00000000  0.00000000  1
  Cu  Cu1  1  0.00000000  0.50000000  0.00000000  1
  Cu  Cu2  1  0.25246000  0.25246000  0.50491800  1
  Cu  Cu3  1  0.74754000  0.74754000  0.49508200  1
  S  S0  1  0.88466800  0.88466800  0.26113600  1
  S  S1  1  0.62353100  0.11533200  0.73886400  1
  S  S2  1  0.11533200  0.62353100  0.73886400  1
  S  S3  1  0.37646900  0.37646900  0.26113600  1
loop_
_geom_bond_atom_site_label_1
_geom_bond_atom_site_label_2
_geom_bond_distance
_geom_bond_site_symmetry_2
Mg0 S3 2.466141 1_555
Mg0 S1 2.466144 1_554
Mg0 S2 2.466144 1_554
Mg0 S0 2.466147 1_555
Cu0 S1 2.440691 1_554
Cu0 S3 2.440694 1_555
Cu0 S0 2.440694 1_545
Cu0 S2 2.440697 1_544
Cu0 Mg0 2.759606 1_555
Cu0 Mg0 2.759606 1_545
Cu0 Ti0 2.759606 1_655
Cu0 Ti0 2.759606 1_555
Cu1 S2 2.440691 1_554
Cu1 S0 2.440694 1_455
Cu1 S3 2.440694 1_555
Cu1 S1 2.440697 1_454
Cu1 Ti0 2.759606 1_565
Cu1 Ti0 2.759606 1_555
Cu1 Mg0 2.759606 1_455
Cu1 Mg0 2.759606 1_555
Cu2 S3 2.357128 1_555
Cu2 S0 2.357135 1_445
Cu2 S2 2.378612 1_555
Cu2 S1 2.378612 1_555
Cu2 Mg0 2.778772 1_556
Cu3 S1 2.357132 1_565
Cu3 S2 2.357132 1_655
Cu3 S3 2.378602 1_555
Cu3 S0 2.378622 1_555
Cu3 Mg0 2.778772 1_555
S0 Ti0 2.414973 1_665
S1 Ti0 2.414976 1_656
S2 Ti0 2.414976 1_566
S3 Ti0 2.414979 1_555
