# generated using pymatgen
data_MnH2(SO4)2
_symmetry_space_group_name_H-M   'P 1'
_cell_length_a   5.13912302
_cell_length_b   7.71269469
_cell_length_c   8.46151300
_cell_angle_alpha   90.00019295
_cell_angle_beta   90.00012811
_cell_angle_gamma   99.66122586
_symmetry_Int_Tables_number   1
_chemical_formula_structural   MnH2(SO4)2
_chemical_formula_sum   'Mn2 H4 S4 O16'
_cell_volume   330.62797746
_cell_formula_units_Z   2
loop_
 _symmetry_equiv_pos_site_id
 _symmetry_equiv_pos_as_xyz
  1  'x, y, z'
loop_
 _atom_site_type_symbol
 _atom_site_label
 _atom_site_symmetry_multiplicity
 _atom_site_fract_x
 _atom_site_fract_y
 _atom_site_fract_z
 _atom_site_occupancy
  Mn  Mn0  1  0.00006600  0.00009600  0.00005000  1
  Mn  Mn1  1  0.50028600  0.50011800  0.49989300  1
  H  H0  1  0.22049800  0.65632600  0.01809300  1
  H  H1  1  0.27948700  0.84366400  0.51808600  1
  H  H2  1  0.77949000  0.34366400  0.98192000  1
  H  H3  1  0.72049900  0.15632800  0.48191200  1
  S  S0  1  0.43947300  0.77773900  0.82189400  1
  S  S1  1  0.06046600  0.72223700  0.32190500  1
  S  S2  1  0.56049600  0.22223800  0.17810800  1
  S  S3  1  0.93945100  0.27774300  0.67810800  1
  O  O0  1  0.28587600  0.61525300  0.91496200  1
  O  O1  1  0.21410900  0.88473800  0.41496100  1
  O  O2  1  0.78587600  0.11525100  0.58504200  1
  O  O3  1  0.71411700  0.38474100  0.08504300  1
  O  O4  1  0.80627600  0.42912800  0.65153200  1
  O  O5  1  0.69370400  0.07086900  0.15154600  1
  O  O6  1  0.19367600  0.57087500  0.34844800  1
  O  O7  1  0.30630400  0.92912000  0.84845500  1
  O  O8  1  0.21366200  0.30689000  0.62479900  1
  O  O9  1  0.28626900  0.19306600  0.12477600  1
  O  O10  1  0.78624000  0.69304800  0.37524100  1
  O  O11  1  0.71369200  0.80690700  0.87521600  1
  O  O12  1  0.91579600  0.21960000  0.84481200  1
  O  O13  1  0.58420000  0.28038300  0.34480700  1
  O  O14  1  0.08420300  0.78037800  0.15519700  1
  O  O15  1  0.41578700  0.71960000  0.65519600  1
loop_
_geom_bond_atom_site_label_1
_geom_bond_atom_site_label_2
_geom_bond_distance
_geom_bond_site_symmetry_2
Mn0 O5 2.169903 1_455
Mn0 O7 2.170493 1_544
Mn0 O9 2.181165 1_555
Mn0 O11 2.183061 1_444
Mn0 O12 2.241696 1_454
Mn0 O14 2.242327 1_545
Mn1 O4 2.169774 1_555
Mn1 O6 2.170579 1_555
Mn1 O10 2.179978 1_555
Mn1 O8 2.184254 1_555
Mn1 O13 2.241756 1_555
Mn1 O15 2.242256 1_555
H0 O0 1.005221 1_554
H0 O14 1.725344 1_555
H1 O1 1.005181 1_555
H1 O15 1.725451 1_555
H2 O3 1.005164 1_556
H2 O12 1.725452 1_555
H3 O2 1.005224 1_555
H3 O13 1.725376 1_555
O0 S0 1.575352 1_555
O1 S1 1.575465 1_555
O2 S3 1.575329 1_555
O3 S2 1.575478 1_555
O4 S3 1.466440 1_555
O5 S2 1.466415 1_555
O6 S1 1.466350 1_555
O7 S0 1.466375 1_555
O8 S3 1.460662 1_455
O9 S2 1.460796 1_555
O10 S1 1.460803 1_655
O11 S0 1.460731 1_555
O12 S3 1.478947 1_555
O13 S2 1.478916 1_555
O14 S1 1.478989 1_555
O15 S0 1.478892 1_555
