# generated using pymatgen
data_Ta2CuO6
_symmetry_space_group_name_H-M   'P 1'
_cell_length_a   4.79461100
_cell_length_b   4.79461100
_cell_length_c   9.16489700
_cell_angle_alpha   90.00000000
_cell_angle_beta   90.00000000
_cell_angle_gamma   90.00000000
_symmetry_Int_Tables_number   1
_chemical_formula_structural   Ta2CuO6
_chemical_formula_sum   'Ta4 Cu2 O12'
_cell_volume   210.68535259
_cell_formula_units_Z   2
loop_
 _symmetry_equiv_pos_site_id
 _symmetry_equiv_pos_as_xyz
  1  'x, y, z'
loop_
 _atom_site_type_symbol
 _atom_site_label
 _atom_site_symmetry_multiplicity
 _atom_site_fract_x
 _atom_site_fract_y
 _atom_site_fract_z
 _atom_site_occupancy
  Ta  Ta0  1  0.00000000  0.00000000  0.66847700  1
  Ta  Ta1  1  0.50000000  0.50000000  0.16847700  1
  Ta  Ta2  1  0.50000000  0.50000000  0.83152300  1
  Ta  Ta3  1  0.00000000  0.00000000  0.33152300  1
  Cu  Cu0  1  0.00000000  0.00000000  0.00000000  1
  Cu  Cu1  1  0.50000000  0.50000000  0.50000000  1
  O  O0  1  0.20397900  0.79602100  0.82411800  1
  O  O1  1  0.70397900  0.70397900  0.32411800  1
  O  O2  1  0.81245700  0.18754300  0.50000000  1
  O  O3  1  0.29602100  0.29602100  0.67588200  1
  O  O4  1  0.79602100  0.20397900  0.82411800  1
  O  O5  1  0.18754300  0.81245700  0.50000000  1
  O  O6  1  0.31245700  0.31245700  0.00000000  1
  O  O7  1  0.68754300  0.68754300  0.00000000  1
  O  O8  1  0.29602100  0.29602100  0.32411800  1
  O  O9  1  0.20397900  0.79602100  0.17588200  1
  O  O10  1  0.70397900  0.70397900  0.67588200  1
  O  O11  1  0.79602100  0.20397900  0.17588200  1
loop_
_geom_bond_atom_site_label_1
_geom_bond_atom_site_label_2
_geom_bond_distance
_geom_bond_site_symmetry_2
Cu0 O7 2.118647 1_445
Cu0 O6 2.118647 1_555
Cu0 O4 2.123987 1_454
Cu0 O0 2.123987 1_544
Cu0 O11 2.123987 1_455
Cu0 O9 2.123987 1_545
Cu1 O5 2.118647 1_555
Cu1 O2 2.118647 1_555
Cu1 O10 2.123987 1_555
Cu1 O1 2.123987 1_555
Cu1 O8 2.123987 1_555
Cu1 O3 2.123987 1_555
O0 Ta0 1.986877 1_565
O0 Ta2 2.008348 1_555
O1 Ta1 1.986877 1_555
O1 Ta3 2.008348 1_665
O2 Ta3 2.000318 1_655
O2 Ta0 2.000318 1_655
O3 Ta2 1.986877 1_555
O3 Ta0 2.008348 1_555
O4 Ta0 1.986877 1_655
O4 Ta2 2.008348 1_555
O5 Ta3 2.000318 1_565
O5 Ta0 2.000318 1_565
O6 Ta2 2.000318 1_554
O6 Ta1 2.000318 1_555
O7 Ta2 2.000318 1_554
O7 Ta1 2.000318 1_555
O8 Ta1 1.986877 1_555
O8 Ta3 2.008348 1_555
O9 Ta3 1.986877 1_565
O9 Ta1 2.008348 1_555
O10 Ta2 1.986877 1_555
O10 Ta0 2.008348 1_665
O11 Ta3 1.986877 1_655
O11 Ta1 2.008348 1_555
