# generated using pymatgen
data_MgFeAs2O7
_symmetry_space_group_name_H-M   'P 1'
_cell_length_a   5.50905464
_cell_length_b   5.50862928
_cell_length_c   4.84290975
_cell_angle_alpha   82.64557624
_cell_angle_beta   97.32505389
_cell_angle_gamma   74.11845673
_symmetry_Int_Tables_number   1
_chemical_formula_structural   MgFeAs2O7
_chemical_formula_sum   'Mg1 Fe1 As2 O7'
_cell_volume   138.14674271
_cell_formula_units_Z   1
loop_
 _symmetry_equiv_pos_site_id
 _symmetry_equiv_pos_as_xyz
  1  'x, y, z'
loop_
 _atom_site_type_symbol
 _atom_site_label
 _atom_site_symmetry_multiplicity
 _atom_site_fract_x
 _atom_site_fract_y
 _atom_site_fract_z
 _atom_site_occupancy
  Mg  Mg0  1  0.76070100  0.76087647  0.00011525  1
  Fe  Fe0  1  0.13848869  0.13865098  -0.00027608  1
  As  As0  1  0.68877271  0.21697447  0.40035591  1
  As  As1  1  0.21712510  0.68873539  0.59956046  1
  O  O0  1  0.84598510  0.04525176  0.72523856  1
  O  O1  1  0.85477202  0.37556153  0.20432436  1
  O  O2  1  0.52287105  0.05540144  0.21229188  1
  O  O3  1  0.04536858  0.84612972  0.27477493  1
  O  O4  1  0.37543799  0.85472197  0.79580917  1
  O  O5  1  0.05552764  0.52284913  0.78778785  1
  O  O6  1  0.48302511  0.48292115  0.50001770  1
loop_
_geom_bond_atom_site_label_1
_geom_bond_atom_site_label_2
_geom_bond_distance
_geom_bond_site_symmetry_2
Mg0 O0 2.115478 1_564
Mg0 O3 2.116682 1_655
Mg0 O1 2.117015 1_555
Mg0 O4 2.117548 1_554
Mg0 O2 2.238641 1_565
Mg0 O5 2.240578 1_654
Fe0 O5 2.129881 1_554
Fe0 O2 2.132136 1_555
Fe0 O0 2.170499 1_454
Fe0 O3 2.170544 1_545
Fe0 O4 2.175372 1_544
Fe0 O1 2.176594 1_455
As0 O2 1.702205 1_555
As0 O0 1.715679 1_555
As0 O1 1.716703 1_555
As0 O6 1.753757 1_555
As1 O5 1.702191 1_555
As1 O3 1.715646 1_555
As1 O4 1.716844 1_555
As1 O6 1.753469 1_555
