# generated using pymatgen
data_Sr2MgZrMnO6
_symmetry_space_group_name_H-M   'P 1'
_cell_length_a   6.41223039
_cell_length_b   5.83330426
_cell_length_c   6.41223039
_cell_angle_alpha   62.94422359
_cell_angle_beta   54.25877337
_cell_angle_gamma   62.94422359
_symmetry_Int_Tables_number   1
_chemical_formula_structural   Sr2MgZrMnO6
_chemical_formula_sum   'Sr2 Mg1 Zr1 Mn1 O6'
_cell_volume   167.32816769
_cell_formula_units_Z   1
loop_
 _symmetry_equiv_pos_site_id
 _symmetry_equiv_pos_as_xyz
  1  'x, y, z'
loop_
 _atom_site_type_symbol
 _atom_site_label
 _atom_site_symmetry_multiplicity
 _atom_site_fract_x
 _atom_site_fract_y
 _atom_site_fract_z
 _atom_site_occupancy
  Sr  Sr0  1  0.18040300  0.31959700  0.18040300  1
  Sr  Sr1  1  0.81959700  0.68040300  0.81959700  1
  Mg  Mg0  1  0.50000000  0.00000000  0.50000000  1
  Zr  Zr0  1  0.00000000  0.00000000  0.00000000  1
  Mn  Mn0  1  0.50000000  0.50000000  0.50000000  1
  O  O0  1  0.74348300  0.24789700  0.25651700  1
  O  O1  1  0.77958800  0.22041200  0.77958800  1
  O  O2  1  0.74348300  0.75210300  0.25651700  1
  O  O3  1  0.25651700  0.75210300  0.74348300  1
  O  O4  1  0.22041200  0.77958800  0.22041200  1
  O  O5  1  0.25651700  0.24789700  0.74348300  1
loop_
_geom_bond_atom_site_label_1
_geom_bond_atom_site_label_2
_geom_bond_distance
_geom_bond_site_symmetry_2
Mg0 O5 2.029415 1_555
Mg0 O0 2.029415 1_555
Mg0 O3 2.029415 1_545
Mg0 O2 2.029415 1_545
Mg0 Sr1 3.135319 1_545
Mg0 Sr0 3.135319 1_555
Mn0 O2 2.046970 1_555
Mn0 O3 2.046970 1_555
Mn0 O5 2.046970 1_555
Mn0 O0 2.046970 1_555
Mn0 O1 2.742822 1_555
Mn0 O4 2.742822 1_555
O0 Zr0 2.083602 1_655
O0 Sr0 2.746840 1_655
O0 Sr1 2.746840 1_554
O1 Zr0 2.162292 1_656
O1 Sr1 2.942943 1_555
O1 Sr1 2.942943 1_545
O1 Sr0 3.081636 1_556
O1 Sr0 3.081636 1_655
O2 Zr0 2.083602 1_665
O2 Sr0 2.746840 1_655
O2 Sr1 2.746840 1_554
O3 Zr0 2.083602 1_566
O3 Sr0 2.746840 1_556
O3 Sr1 2.746840 1_455
O4 Zr0 2.162292 1_565
O4 Sr0 2.942943 1_565
O4 Sr0 2.942943 1_555
O4 Sr1 3.081636 1_554
O4 Sr1 3.081636 1_455
O5 Zr0 2.083602 1_556
O5 Sr0 2.746840 1_556
O5 Sr1 2.746840 1_455
