# generated using pymatgen
data_Sr2Mg(TiS3)2
_symmetry_space_group_name_H-M   'P 1'
_cell_length_a   5.99372699
_cell_length_b   7.11381956
_cell_length_c   7.11381956
_cell_angle_alpha   121.67272300
_cell_angle_beta   104.71849654
_cell_angle_gamma   75.28150346
_symmetry_Int_Tables_number   1
_chemical_formula_structural   Sr2Mg(TiS3)2
_chemical_formula_sum   'Sr2 Mg1 Ti2 S6'
_cell_volume   246.97672006
_cell_formula_units_Z   1
loop_
 _symmetry_equiv_pos_site_id
 _symmetry_equiv_pos_as_xyz
  1  'x, y, z'
loop_
 _atom_site_type_symbol
 _atom_site_label
 _atom_site_symmetry_multiplicity
 _atom_site_fract_x
 _atom_site_fract_y
 _atom_site_fract_z
 _atom_site_occupancy
  Sr  Sr0  1  0.28860089  0.69570137  0.30429863  1
  Sr  Sr1  1  0.87232452  0.40805461  0.59194539  1
  Mg  Mg0  1  0.45148216  0.24285568  0.75714432  1
  Ti  Ti0  1  0.48116319  0.98996860  0.01003140  1
  Ti  Ti1  1  0.97717610  0.99568635  0.00431365  1
  S  S0  1  0.67145603  0.85887224  0.67188905  1
  S  S1  1  0.82215844  0.83527073  0.16472927  1
  S  S2  1  0.67145603  0.32811095  0.14112776  1
  S  S3  1  0.28983412  0.15926441  0.34775237  1
  S  S4  1  0.12201438  0.16396744  0.83603256  1
  S  S5  1  0.28983412  0.65224763  0.84073559  1
loop_
_geom_bond_atom_site_label_1
_geom_bond_atom_site_label_2
_geom_bond_distance
_geom_bond_site_symmetry_2
Mg0 S4 2.446727 1_555
Mg0 S2 2.530667 1_556
Mg0 S0 2.530667 1_545
Mg0 S5 2.610431 1_555
Mg0 S3 2.610431 1_555
S0 Ti1 2.486886 1_556
S0 Ti0 2.540629 1_556
S0 Sr1 2.920383 1_555
S0 Sr0 2.927119 1_555
S1 Ti0 2.363340 1_555
S1 Ti1 2.431651 1_555
S1 Sr0 2.828765 1_655
S2 Ti1 2.486886 1_545
S2 Ti0 2.540629 1_545
S2 Sr1 2.920383 1_555
S2 Sr0 2.927119 1_555
S3 Ti0 2.489415 1_545
S3 Ti1 2.575079 1_445
S3 Sr1 3.023580 1_455
S3 Sr0 3.148204 1_545
S4 Ti1 2.486150 1_446
S4 Ti0 2.568887 1_546
S4 Sr1 2.965655 1_455
S5 Ti0 2.489415 1_556
S5 Ti1 2.575079 1_456
S5 Sr1 3.023580 1_455
S5 Sr0 3.148204 1_556
