# generated using pymatgen
data_Na4MgCr2O8
_symmetry_space_group_name_H-M   'P 1'
_cell_length_a   8.81725202
_cell_length_b   6.05688853
_cell_length_c   5.76089078
_cell_angle_alpha   60.40229144
_cell_angle_beta   106.96309029
_cell_angle_gamma   101.54127980
_symmetry_Int_Tables_number   1
_chemical_formula_structural   Na4MgCr2O8
_chemical_formula_sum   'Na4 Mg1 Cr2 O8'
_cell_volume   255.29678402
_cell_formula_units_Z   1
loop_
 _symmetry_equiv_pos_site_id
 _symmetry_equiv_pos_as_xyz
  1  'x, y, z'
loop_
 _atom_site_type_symbol
 _atom_site_label
 _atom_site_symmetry_multiplicity
 _atom_site_fract_x
 _atom_site_fract_y
 _atom_site_fract_z
 _atom_site_occupancy
  Na  Na0  1  0.17444600  0.21336500  0.50697700  1
  Na  Na1  1  0.42290100  0.80059700  0.36624100  1
  Na  Na2  1  0.57709900  0.19940300  0.63375900  1
  Na  Na3  1  0.82555400  0.78663500  0.49302300  1
  Mg  Mg0  1  0.50000000  0.50000000  0.00000000  1
  Cr  Cr0  1  0.23028400  0.63695800  0.86404100  1
  Cr  Cr1  1  0.76971700  0.36304200  0.13595900  1
  O  O0  1  0.07121500  0.78836100  0.78942400  1
  O  O1  1  0.24694700  0.42308600  0.76430000  1
  O  O2  1  0.39046400  0.85809400  0.73494900  1
  O  O3  1  0.34432400  0.49479600  0.21324600  1
  O  O4  1  0.65567600  0.50520300  0.78675400  1
  O  O5  1  0.60953600  0.14190600  0.26505100  1
  O  O6  1  0.75305300  0.57691400  0.23570000  1
  O  O7  1  0.92878500  0.21163900  0.21057600  1
loop_
_geom_bond_atom_site_label_1
_geom_bond_atom_site_label_2
_geom_bond_distance
_geom_bond_site_symmetry_2
Na0 O1 2.280778 1_555
Na0 O7 2.336229 1_455
Na0 O3 2.370783 1_555
Na0 O0 2.427279 1_545
Na0 O2 2.715111 1_545
Na1 O5 2.308577 1_565
Na1 O3 2.330303 1_555
Na1 O2 2.416582 1_555
Na1 O4 2.751164 1_555
Na1 O1 2.893231 1_555
Na2 O2 2.308577 1_545
Na2 O4 2.330297 1_555
Na2 O5 2.416582 1_555
Na2 O3 2.751162 1_555
Na2 O6 2.893231 1_555
Na3 O6 2.280778 1_555
Na3 O0 2.336229 1_655
Na3 O4 2.370784 1_555
Na3 O7 2.427279 1_565
Na3 O5 2.715111 1_565
Mg0 O3 2.079108 1_555
Mg0 O4 2.079110 1_554
Mg0 O2 2.162135 1_554
Mg0 O5 2.162135 1_555
Mg0 O6 2.340991 1_555
Mg0 O1 2.340991 1_554
Cr0 O0 1.663234 1_555
Cr0 O1 1.700143 1_555
Cr0 O2 1.792694 1_555
Cr0 O3 1.804037 1_556
Cr1 O7 1.663227 1_555
Cr1 O6 1.700146 1_555
Cr1 O5 1.792701 1_555
Cr1 O4 1.804040 1_554
