# generated using pymatgen
data_NaLaHfP2SO12
_symmetry_space_group_name_H-M   'P 1'
_cell_length_a   9.22806718
_cell_length_b   9.23070547
_cell_length_c   23.79441582
_cell_angle_alpha   89.51722448
_cell_angle_beta   90.00000000
_cell_angle_gamma   119.99054571
_symmetry_Int_Tables_number   1
_chemical_formula_structural   NaLaHfP2SO12
_chemical_formula_sum   'Na6 La6 Hf6 P12 S6 O72'
_cell_volume   1755.38399291
_cell_formula_units_Z   6
loop_
 _symmetry_equiv_pos_site_id
 _symmetry_equiv_pos_as_xyz
  1  'x, y, z'
loop_
 _atom_site_type_symbol
 _atom_site_label
 _atom_site_symmetry_multiplicity
 _atom_site_fract_x
 _atom_site_fract_y
 _atom_site_fract_z
 _atom_site_occupancy
  Na  Na0  1  0.97434837  0.98510123  0.49653167  1
  Na  Na1  1  0.01075287  0.98510123  0.99653167  1
  Na  Na2  1  0.64101537  0.31843423  0.82986467  1
  Na  Na3  1  0.67741987  0.31843423  0.32986467  1
  Na  Na4  1  0.30768137  0.65176823  0.16319867  1
  Na  Na5  1  0.34408587  0.65176823  0.66319867  1
  La  La0  1  0.99345570  0.00449175  0.64477411  1
  La  La1  1  0.01103605  0.00449175  0.14477411  1
  La  La2  1  0.66012270  0.33782475  0.97810711  1
  La  La3  1  0.67770305  0.33782475  0.47810711  1
  La  La4  1  0.32678870  0.67115875  0.31144111  1
  La  La5  1  0.34436905  0.67115875  0.81144111  1
  Hf  Hf0  1  0.00256257  0.00431652  0.35118823  1
  Hf  Hf1  1  0.00175395  0.00431652  0.85118823  1
  Hf  Hf2  1  0.66922957  0.33764952  0.68452123  1
  Hf  Hf3  1  0.66842095  0.33764952  0.18452123  1
  Hf  Hf4  1  0.33589557  0.67098352  0.01785523  1
  Hf  Hf5  1  0.33508695  0.67098352  0.51785523  1
  P  P0  1  0.30862522  0.02719575  0.25108671  1
  P  P1  1  0.97737378  0.28198550  0.24956808  1
  P  P2  1  0.30461172  0.28198550  0.74956808  1
  P  P3  1  0.71857053  0.02719575  0.75108671  1
  P  P4  1  0.97529222  0.36052875  0.58441971  1
  P  P5  1  0.64404078  0.61531850  0.58290108  1
  P  P6  1  0.97127872  0.61531850  0.08290108  1
  P  P7  1  0.38523753  0.36052875  0.08441971  1
  P  P8  1  0.64195822  0.69386275  0.91775371  1
  P  P9  1  0.31070678  0.94865250  0.91623508  1
  P  P10  1  0.63794472  0.94865250  0.41623508  1
  P  P11  1  0.05190353  0.69386275  0.41775371  1
  S  S0  1  0.71819082  0.69495596  0.25123626  1
  S  S1  1  0.97676514  0.69495596  0.75123626  1
  S  S2  1  0.38485782  0.02828896  0.58456926  1
  S  S3  1  0.64343214  0.02828896  0.08456926  1
  S  S4  1  0.05152382  0.36162296  0.91790326  1
  S  S5  1  0.31009814  0.36162296  0.41790326  1
  O  O0  1  0.20590775  0.03567700  0.30313410  1
  O  O1  1  0.82387238  0.78674368  0.30129461  1
  O  O2  1  0.96482493  0.17063080  0.30293594  1
  O  O3  1  0.20580587  0.17063080  0.80293594  1
  O  O4  1  0.96287130  0.78674368  0.80129461  1
  O  O5  1  0.82976925  0.03567700  0.80313410  1
  O  O6  1  0.79018198  0.99665745  0.69793507  1
  O  O7  1  0.20677563  0.20104655  0.69679879  1
  O  O8  1  0.00359397  0.79019302  0.69957683  1
  O  O9  1  0.78659906  0.79019302  0.19957683  1
  O  O10  1  -0.00572907  0.20104655  0.19679879  1
  O  O11  1  0.20647547  0.99665745  0.19793507  1
  O  O12  1  0.87257475  0.36901000  0.63646710  1
  O  O13  1  0.49053938  0.12007668  0.63462761  1
  O  O14  1  0.63149193  0.50396380  0.63626894  1
  O  O15  1  0.87247287  0.50396380  0.13626894  1
  O  O16  1  0.62953830  0.12007668  0.13462761  1
  O  O17  1  0.49643625  0.36901000  0.13646710  1
  O  O18  1  0.45684898  0.32999045  0.03126807  1
  O  O19  1  0.87344263  0.53437955  0.03013179  1
  O  O20  1  0.67026097  0.12352602  0.03290983  1
  O  O21  1  0.45326606  0.12352602  0.53290983  1
  O  O22  1  0.66093793  0.53437955  0.53013179  1
  O  O23  1  0.87314247  0.32999045  0.53126807  1
  O  O24  1  0.53924075  0.70234400  0.96980110  1
  O  O25  1  0.15720538  0.45341068  0.96796161  1
  O  O26  1  0.29815793  0.83729780  0.96960294  1
  O  O27  1  0.53913887  0.83729780  0.46960294  1
  O  O28  1  0.29620430  0.45341068  0.46796161  1
  O  O29  1  0.16310225  0.70234400  0.46980110  1
  O  O30  1  0.12351498  0.66332445  0.36460207  1
  O  O31  1  0.54010863  0.86771355  0.36346579  1
  O  O32  1  0.33692697  0.45686002  0.36624383  1
  O  O33  1  0.11993206  0.45686002  0.86624383  1
  O  O34  1  0.32760393  0.86771355  0.86346579  1
  O  O35  1  0.53980847  0.66332445  0.86460207  1
  O  O36  1  0.04938509  0.86215161  0.41143605  1
  O  O37  1  0.81371001  0.95951935  0.41133234  1
  O  O38  1  0.14720781  0.19738395  0.41360837  1
  O  O39  1  0.05017614  0.19738395  0.91360837  1
  O  O40  1  0.14580934  0.95951935  0.91133234  1
  O  O41  1  0.81276652  0.86215161  0.91143605  1
  O  O42  1  0.01382635  0.21734979  0.58916711  1
  O  O43  1  0.21190836  0.99152992  0.59119753  1
  O  O44  1  0.79499315  0.79307017  0.58719821  1
  O  O45  1  0.99807702  0.79307017  0.08719821  1
  O  O46  1  0.77962156  0.99152992  0.09119753  1
  O  O47  1  0.20352343  0.21734979  0.08916711  1
  O  O48  1  0.71605209  0.19548461  0.74476905  1
  O  O49  1  0.48037701  0.29285235  0.74466534  1
  O  O50  1  0.81387481  0.53071695  0.74694137  1
  O  O51  1  0.71684314  0.53071695  0.24694137  1
  O  O52  1  0.81247634  0.29285235  0.24466534  1
  O  O53  1  0.47943352  0.19548461  0.24476905  1
  O  O54  1  0.68049335  0.55068279  0.92250011  1
  O  O55  1  0.87857536  0.32486292  0.92453053  1
  O  O56  1  0.46166015  0.12640317  0.92053121  1
  O  O57  1  0.66474402  0.12640317  0.42053121  1
  O  O58  1  0.44628856  0.32486292  0.42453053  1
  O  O59  1  0.87019043  0.55068279  0.42250011  1
  O  O60  1  0.38271809  0.52881861  0.07810305  1
  O  O61  1  0.14704301  0.62618635  0.07799934  1
  O  O62  1  0.48054081  0.86405095  0.08027537  1
  O  O63  1  0.38350914  0.86405095  0.58027537  1
  O  O64  1  0.47914234  0.62618635  0.57799934  1
  O  O65  1  0.14609952  0.52881861  0.57810305  1
  O  O66  1  0.34715935  0.88401679  0.25583411  1
  O  O67  1  0.54524136  0.65819692  0.25786453  1
  O  O68  1  0.12832615  0.45973717  0.25386521  1
  O  O69  1  0.33141002  0.45973717  0.75386521  1
  O  O70  1  0.11295456  0.65819692  0.75786453  1
  O  O71  1  0.53685643  0.88401679  0.75583411  1
loop_
_geom_bond_atom_site_label_1
_geom_bond_atom_site_label_2
_geom_bond_distance
_geom_bond_site_symmetry_2
Na0 O37 2.453804 1_555
Na0 O36 2.586829 1_655
Na0 O38 2.662219 1_665
Na0 O44 2.745577 1_555
Na0 O42 2.980948 1_665
Na1 O40 2.453804 1_555
Na1 O41 2.586829 1_455
Na1 O39 2.662219 1_565
Na1 O45 2.745577 1_456
Na1 O47 2.980948 1_566
Na2 O49 2.453804 1_555
Na2 O48 2.586829 1_555
Na2 O50 2.662219 1_555
Na2 O56 2.745577 1_555
Na2 O54 2.980948 1_555
Na3 O52 2.453804 1_555
Na3 O53 2.586829 1_555
Na3 O51 2.662219 1_555
Na3 O57 2.745577 1_555
Na3 O59 2.980948 1_555
Na4 O61 2.453804 1_555
Na4 O60 2.586829 1_555
Na4 O62 2.662219 1_555
Na4 O68 2.745577 1_555
Na4 O66 2.980948 1_555
Na5 O64 2.453804 1_555
Na5 O65 2.586829 1_555
Na5 O63 2.662219 1_555
Na5 O69 2.745577 1_555
Na5 O71 2.980948 1_555
La0 O6 2.233125 1_545
La0 O7 2.273019 1_655
La0 O42 2.287690 1_655
La0 O44 2.347664 1_545
La0 O8 2.400771 1_645
La0 O43 2.438652 1_645
La1 O11 2.233125 1_545
La1 O10 2.273019 1_555
La1 O47 2.287690 1_555
La1 O45 2.347664 1_445
La1 O9 2.400771 1_445
La1 O46 2.438652 1_445
La2 O18 2.233125 1_556
La2 O19 2.273019 1_556
La2 O54 2.287690 1_555
La2 O56 2.347664 1_555
La2 O20 2.400771 1_556
La2 O55 2.438652 1_555
La3 O23 2.233125 1_555
La3 O22 2.273019 1_555
La3 O59 2.287690 1_555
La3 O57 2.347664 1_555
La3 O21 2.400771 1_555
La3 O58 2.438652 1_555
La4 O30 2.233125 1_555
La4 O31 2.273019 1_555
La4 O66 2.287690 1_555
La4 O68 2.347664 1_555
La4 O32 2.400771 1_555
La4 O67 2.438652 1_555
La5 O35 2.233125 1_555
La5 O34 2.273019 1_555
La5 O71 2.287690 1_555
La5 O69 2.347664 1_555
La5 O33 2.400771 1_555
La5 O70 2.438652 1_555
Hf0 O2 2.073907 1_455
Hf0 O0 2.088964 1_555
Hf0 O36 2.121091 1_545
Hf0 O37 2.127386 1_445
Hf0 O38 2.197768 1_555
Hf0 O1 2.211652 1_445
Hf1 O3 2.073907 1_555
Hf1 O5 2.088964 1_455
Hf1 O41 2.121091 1_445
Hf1 O40 2.127386 1_545
Hf1 O39 2.197768 1_555
Hf1 O4 2.211652 1_445
Hf2 O14 2.073907 1_555
Hf2 O12 2.088964 1_555
Hf2 O48 2.121091 1_555
Hf2 O49 2.127386 1_555
Hf2 O50 2.197768 1_555
Hf2 O13 2.211652 1_555
Hf3 O15 2.073907 1_555
Hf3 O17 2.088964 1_555
Hf3 O53 2.121091 1_555
Hf3 O52 2.127386 1_555
Hf3 O51 2.197768 1_555
Hf3 O16 2.211652 1_555
Hf4 O26 2.073907 1_554
Hf4 O24 2.088964 1_554
Hf4 O60 2.121091 1_555
Hf4 O61 2.127386 1_555
Hf4 O62 2.197768 1_555
Hf4 O25 2.211652 1_554
Hf5 O27 2.073907 1_555
Hf5 O29 2.088964 1_555
Hf5 O65 2.121091 1_555
Hf5 O64 2.127386 1_555
Hf5 O63 2.197768 1_555
Hf5 O28 2.211652 1_555
O0 P0 1.585610 1_555
O1 S0 1.509518 1_555
O2 P1 1.594207 1_555
O3 P2 1.594207 1_555
O4 S1 1.509518 1_555
O5 P3 1.585610 1_555
O6 P3 1.519177 1_565
O7 P2 1.513720 1_555
O8 S1 1.452334 1_455
O9 S0 1.452334 1_555
O10 P1 1.513720 1_455
O11 P0 1.519177 1_565
O12 P4 1.585610 1_555
O13 S2 1.509518 1_555
O14 P5 1.594207 1_555
O15 P6 1.594207 1_555
O16 S3 1.509518 1_555
O17 P7 1.585610 1_555
O18 P7 1.519177 1_555
O19 P6 1.513720 1_555
O20 S3 1.452334 1_555
O21 S2 1.452334 1_555
O22 P5 1.513720 1_555
O23 P4 1.519177 1_555
O24 P8 1.585610 1_555
O25 S4 1.509518 1_555
O26 P9 1.594207 1_555
O27 P10 1.594207 1_555
O28 S5 1.509518 1_555
O29 P11 1.585610 1_555
O30 P11 1.519177 1_555
O31 P10 1.513720 1_555
O32 S5 1.452334 1_555
O33 S4 1.452334 1_555
O34 P9 1.513720 1_555
O35 P8 1.519177 1_555
O36 P11 1.571122 1_555
O37 P10 1.578487 1_555
O38 S5 1.514176 1_555
O39 S4 1.514181 1_555
O40 P9 1.578478 1_555
O41 P8 1.571126 1_555
O42 P4 1.534037 1_455
O43 S2 1.464549 1_565
O44 P5 1.536529 1_555
O45 P6 1.536533 1_555
O46 S3 1.464540 1_565
O47 P7 1.534043 1_555
O48 P3 1.571122 1_555
O49 P2 1.578487 1_555
O50 S1 1.514176 1_555
O51 S0 1.514181 1_555
O52 P1 1.578478 1_555
O53 P0 1.571126 1_555
O54 P8 1.534050 1_555
O55 S4 1.464534 1_655
O56 P9 1.536525 1_545
O57 P10 1.536518 1_545
O58 S5 1.464552 1_555
O59 P11 1.534038 1_655
O60 P7 1.571133 1_555
O61 P6 1.578472 1_455
O62 S3 1.514174 1_565
O63 S2 1.514165 1_565
O64 P5 1.578490 1_555
O65 P4 1.571124 1_455
O66 P0 1.534037 1_565
O67 S0 1.464549 1_555
O68 P1 1.536529 1_455
O69 P2 1.536533 1_555
O70 S1 1.464540 1_455
O71 P3 1.534043 1_565
