# generated using pymatgen
data_Na14Mg6Zr2Si5S7O48
_symmetry_space_group_name_H-M   'P 1'
_cell_length_a   18.29105062
_cell_length_b   9.14188758
_cell_length_c   22.38167386
_cell_angle_alpha   90.02871125
_cell_angle_beta   89.99733484
_cell_angle_gamma   120.12158466
_symmetry_Int_Tables_number   1
_chemical_formula_structural   Na14Mg6Zr2Si5S7O48
_chemical_formula_sum   'Na42 Mg18 Zr6 Si15 S21 O144'
_cell_volume   3237.16076304
_cell_formula_units_Z   3
loop_
 _symmetry_equiv_pos_site_id
 _symmetry_equiv_pos_as_xyz
  1  'x, y, z'
loop_
 _atom_site_type_symbol
 _atom_site_label
 _atom_site_symmetry_multiplicity
 _atom_site_fract_x
 _atom_site_fract_y
 _atom_site_fract_z
 _atom_site_occupancy
  Na  Na0  1  0.81023096  0.00171631  0.25086274  1
  Na  Na1  1  0.68775983  0.35135558  0.24426520  1
  Na  Na2  1  0.50644410  0.64914296  0.24680809  1
  Na  Na3  1  0.30902054  0.61723050  0.75075936  1
  Na  Na4  1  0.00648177  0.37623100  0.74543836  1
  Na  Na5  1  0.17522169  0.00146726  0.74330525  1
  Na  Na6  1  0.15277684  0.32630152  0.57601653  1
  Na  Na7  1  0.66973563  0.36088962  0.58261772  1
  Na  Na8  1  0.01435694  0.69635721  0.57372904  1
  Na  Na9  1  0.52452419  0.68572888  0.58788980  1
  Na  Na10  1  0.32539483  0.99069430  0.58373754  1
  Na  Na11  1  0.82439592  0.95489727  0.58788073  1
  Na  Na12  1  0.16397525  0.97070737  0.07687283  1
  Na  Na13  1  0.65826076  0.98653379  0.06896382  1
  Na  Na14  1  0.32037838  0.69172086  0.08268115  1
  Na  Na15  1  0.82867793  0.66449084  0.07814621  1
  Na  Na16  1  0.02419157  0.36296337  0.08326786  1
  Na  Na17  1  0.51301432  0.32924070  0.06572002  1
  Na  Na18  1  0.49001364  0.66720558  0.91941617  1
  Na  Na19  1  0.98053511  0.66189323  0.91262701  1
  Na  Na20  1  0.35429464  0.04660569  0.92469151  1
  Na  Na21  1  0.84523970  0.04061531  0.91168406  1
  Na  Na22  1  0.16761713  0.29433596  0.91419088  1
  Na  Na23  1  0.66146019  0.28867349  0.92688812  1
  Na  Na24  1  0.48163549  0.30635328  0.42957047  1
  Na  Na25  1  0.99104327  0.31424383  0.42460340  1
  Na  Na26  1  0.15828231  0.02920104  0.43215491  1
  Na  Na27  1  0.67122012  0.04481567  0.42220353  1
  Na  Na28  1  0.34179524  0.65046724  0.41886052  1
  Na  Na29  1  0.85535522  0.66313091  0.42828048  1
  Na  Na30  1  0.00439154  0.98487129  0.49893151  1
  Na  Na31  1  0.50846363  0.01794298  0.50213669  1
  Na  Na32  1  0.00778134  0.99867224  0.99586120  1
  Na  Na33  1  0.50458889  0.02217529  0.99176642  1
  Na  Na34  1  0.33702883  0.33092473  0.83025370  1
  Na  Na35  1  0.82905237  0.33536319  0.82534571  1
  Na  Na36  1  0.31683231  0.32228961  0.33340778  1
  Na  Na37  1  0.84102454  0.34534270  0.33278457  1
  Na  Na38  1  0.16773534  0.67249628  0.15387945  1
  Na  Na39  1  0.66782954  0.66203676  0.16328443  1
  Na  Na40  1  0.15784554  0.67278548  0.67031488  1
  Na  Na41  1  0.67153610  0.66657035  0.65561151  1
  Mg  Mg0  1  0.00515378  0.00143328  0.35587251  1
  Mg  Mg1  1  0.50520662  0.00538490  0.34499846  1
  Mg  Mg2  1  0.00465239  0.99180282  0.83809490  1
  Mg  Mg3  1  0.50484984  0.00850928  0.85481250  1
  Mg  Mg4  1  0.32962598  0.31618515  0.68107870  1
  Mg  Mg5  1  0.83008927  0.34470870  0.68144589  1
  Mg  Mg6  1  0.32123038  0.31585827  0.17736329  1
  Mg  Mg7  1  0.83124713  0.34083257  0.18081613  1
  Mg  Mg8  1  0.33256452  0.31679024  0.98618194  1
  Mg  Mg9  1  0.82672450  0.33594837  0.98591001  1
  Mg  Mg10  1  0.32574213  0.31990362  0.48785587  1
  Mg  Mg11  1  0.83560802  0.35028040  0.48950243  1
  Mg  Mg12  1  0.16620964  0.66883297  0.02118158  1
  Mg  Mg13  1  0.66070646  0.65309004  0.01288996  1
  Mg  Mg14  1  0.15838167  0.66433179  0.51479156  1
  Mg  Mg15  1  0.66738346  0.66805635  0.52260184  1
  Mg  Mg16  1  0.66594064  0.67316385  0.31537604  1
  Mg  Mg17  1  0.16171782  0.65817365  0.81225300  1
  Zr  Zr0  1  0.00471101  0.98876518  0.65212834  1
  Zr  Zr1  1  0.50598540  0.01633532  0.64613991  1
  Zr  Zr2  1  0.00612885  0.99678026  0.14573554  1
  Zr  Zr3  1  0.50400725  0.00696140  0.14813415  1
  Zr  Zr4  1  0.16123371  0.65199294  0.31721668  1
  Zr  Zr5  1  0.66242819  0.67126784  0.81749988  1
  Si  Si0  1  0.65343899  0.00079636  0.25304314  1
  Si  Si1  1  0.15434868  0.30371311  0.75251272  1
  Si  Si2  1  0.99508367  0.68310355  0.75640978  1
  Si  Si3  1  0.47691916  0.33791365  0.58004525  1
  Si  Si4  1  0.18479340  0.02564155  0.58330387  1
  Si  Si5  1  0.69187312  0.04601652  0.58032051  1
  Si  Si6  1  0.83448827  0.63511085  0.58142669  1
  Si  Si7  1  0.97670373  0.61545506  0.08034710  1
  Si  Si8  1  0.33400592  0.03736708  0.08268119  1
  Si  Si9  1  0.18976234  0.33967389  0.07934982  1
  Si  Si10  1  0.68645008  0.34629776  0.08521857  1
  Si  Si11  1  0.51203761  0.36360826  0.91889025  1
  Si  Si12  1  0.66904522  0.97046295  0.92262918  1
  Si  Si13  1  0.16906234  0.36809404  0.42214484  1
  Si  Si14  1  0.01183811  0.66034701  0.41880171  1
  S  S0  1  0.15145807  0.00383480  0.25288087  1
  S  S1  1  0.35228119  0.70067230  0.25215794  1
  S  S2  1  0.85285987  0.70792265  0.25368210  1
  S  S3  1  0.99861368  0.28975297  0.25131821  1
  S  S4  1  0.49844645  0.29857632  0.25412551  1
  S  S5  1  0.65017766  0.29870872  0.75324356  1
  S  S6  1  0.49898588  0.70770292  0.75141298  1
  S  S7  1  0.35523452  0.00067130  0.75389389  1
  S  S8  1  0.85082604  0.99814322  0.75195138  1
  S  S9  1  0.98035512  0.33245040  0.58364865  1
  S  S10  1  0.33387879  0.62928882  0.58379793  1
  S  S11  1  0.47964113  0.62497275  0.08621063  1
  S  S12  1  0.83365791  0.03829653  0.08507956  1
  S  S13  1  0.31187079  0.66680695  0.91560550  1
  S  S14  1  0.81576545  0.67386695  0.91780651  1
  S  S15  1  0.01894541  0.36793727  0.91764701  1
  S  S16  1  0.16573478  0.95632422  0.91612723  1
  S  S17  1  0.31808552  0.96147815  0.41472938  1
  S  S18  1  0.81239661  0.95842586  0.41461130  1
  S  S19  1  0.66251736  0.37374806  0.41289273  1
  S  S20  1  0.51904680  0.67012787  0.41492322  1
  O  O0  1  0.10563660  0.01302752  0.30523855  1
  O  O1  1  0.60779191  0.02977092  0.31069512  1
  O  O2  1  0.40268789  0.79120424  0.30601600  1
  O  O3  1  0.90329967  0.80228215  0.30572186  1
  O  O4  1  0.48617954  0.19405596  0.30755273  1
  O  O5  1  0.99250996  0.18878074  0.30442562  1
  O  O6  1  0.10923461  0.18777280  0.81155970  1
  O  O7  1  0.60351320  0.19778593  0.80594154  1
  O  O8  1  0.49286522  0.79642247  0.80472169  1
  O  O9  1  0.98270140  0.76956717  0.81603814  1
  O  O10  1  0.40699190  0.01128259  0.80582012  1
  O  O11  1  0.90152940  0.01270033  0.80626277  1
  O  O12  1  0.39518524  0.97689423  0.69803853  1
  O  O13  1  0.89333718  0.98240163  0.69743253  1
  O  O14  1  0.09082214  0.20787517  0.69393681  1
  O  O15  1  0.59710256  0.21543787  0.69757736  1
  O  O16  1  0.00834715  0.81302162  0.69868228  1
  O  O17  1  0.50709873  0.80800505  0.69611477  1
  O  O18  1  0.39481113  0.80199378  0.19761306  1
  O  O19  1  0.89198579  0.81133786  0.19794100  1
  O  O20  1  0.00620947  0.20552782  0.19598995  1
  O  O21  1  0.50773595  0.21067862  0.20018387  1
  O  O22  1  0.10022230  0.98452930  0.19694349  1
  O  O23  1  0.58922041  0.97188866  0.19484295  1
  O  O24  1  0.43203795  0.37489638  0.63498986  1
  O  O25  1  0.94015452  0.35168006  0.63742689  1
  O  O26  1  0.24114998  0.11047907  0.64274638  1
  O  O27  1  0.75297384  0.13512065  0.63607626  1
  O  O28  1  0.32298982  0.52809295  0.63766459  1
  O  O29  1  0.81658789  0.50809424  0.63588084  1
  O  O30  1  0.43991781  0.52901628  0.14134948  1
  O  O31  1  0.93323499  0.49118729  0.13639364  1
  O  O32  1  0.32037425  0.12877747  0.13946651  1
  O  O33  1  0.82248085  0.11607241  0.13944050  1
  O  O34  1  0.24932998  0.37936843  0.13699236  1
  O  O35  1  0.74006729  0.37086769  0.14588256  1
  O  O36  1  0.22325175  0.28832302  0.01979561  1
  O  O37  1  0.72292226  0.29941999  0.02642193  1
  O  O38  1  0.42928868  0.54426024  0.03199870  1
  O  O39  1  0.91987673  0.55230684  0.01966060  1
  O  O40  1  0.36045393  0.15312080  0.02219222  1
  O  O41  1  0.84908056  0.14288022  0.03114442  1
  O  O42  1  0.22327882  0.14170338  0.52355904  1
  O  O43  1  0.72257230  0.15754322  0.51845342  1
  O  O44  1  0.35038359  0.55707649  0.52935884  1
  O  O45  1  0.85846684  0.56923343  0.52033943  1
  O  O46  1  0.42112350  0.29121772  0.51858885  1
  O  O47  1  0.93076185  0.31355597  0.52843895  1
  O  O48  1  0.27300224  0.69229321  0.96979073  1
  O  O49  1  0.77516827  0.68926900  0.97293213  1
  O  O50  1  0.07140073  0.45015404  0.97123210  1
  O  O51  1  0.57038134  0.44489821  0.97758897  1
  O  O52  1  0.15886286  0.85850637  0.97066901  1
  O  O53  1  0.65660780  0.85448364  0.98116984  1
  O  O54  1  0.28080250  0.86337261  0.46988118  1
  O  O55  1  0.77096461  0.85154600  0.46740379  1
  O  O56  1  0.15889798  0.46244473  0.48013943  1
  O  O57  1  0.65484175  0.45822280  0.46686131  1
  O  O58  1  0.07113253  0.69675089  0.47673719  1
  O  O59  1  0.57222815  0.69357487  0.46776906  1
  O  O60  1  0.06793320  0.64057604  0.36165086  1
  O  O61  1  0.55918363  0.65018567  0.35988513  1
  O  O62  1  0.26324665  0.87080686  0.36207215  1
  O  O63  1  0.76110419  0.87656891  0.35975908  1
  O  O64  1  0.18355726  0.49921041  0.36383523  1
  O  O65  1  0.66877773  0.47222931  0.35834125  1
  O  O66  1  0.06043851  0.46851901  0.86339343  1
  O  O67  1  0.56919824  0.49586458  0.86297957  1
  O  O68  1  0.17240770  0.87009805  0.86230853  1
  O  O69  1  0.68266526  0.86611517  0.86522953  1
  O  O70  1  0.25995794  0.64754521  0.86195585  1
  O  O71  1  0.76182846  0.65548068  0.86475247  1
  O  O72  1  0.00051815  0.82473689  0.40915037  1
  O  O73  1  0.50792698  0.82279703  0.41114352  1
  O  O74  1  0.40371161  0.97788535  0.40763776  1
  O  O75  1  0.89847187  0.97934920  0.40935243  1
  O  O76  1  0.08288544  0.18566370  0.41234351  1
  O  O77  1  0.58292648  0.20100438  0.41122050  1
  O  O78  1  0.00688950  0.19256198  0.91393404  1
  O  O79  1  0.50054082  0.17606562  0.90963137  1
  O  O80  1  0.08826746  0.97433429  0.91499105  1
  O  O81  1  0.58263932  0.98032520  0.91277274  1
  O  O82  1  0.39882571  0.81819387  0.91017608  1
  O  O83  1  0.89982254  0.83154430  0.91322818  1
  O  O84  1  0.48312517  0.15811012  0.59113572  1
  O  O85  1  0.98792747  0.17630853  0.58666673  1
  O  O86  1  0.08939864  0.00922627  0.58812207  1
  O  O87  1  0.59215498  0.02231279  0.59109959  1
  O  O88  1  0.41233643  0.80463182  0.59002035  1
  O  O89  1  0.91620097  0.83153966  0.59028065  1
  O  O90  1  0.48670144  0.79804983  0.08883160  1
  O  O91  1  0.98411840  0.80894811  0.09231833  1
  O  O92  1  0.41581562  0.00327987  0.09260104  1
  O  O93  1  0.91150694  0.01910095  0.09121298  1
  O  O94  1  0.09096977  0.16349559  0.09056526  1
  O  O95  1  0.58880053  0.17340937  0.09119453  1
  O  O96  1  0.34786267  0.15350897  0.74961595  1
  O  O97  1  0.84247762  0.14879068  0.74861906  1
  O  O98  1  0.24808303  0.32041507  0.74486458  1
  O  O99  1  0.73136037  0.30900338  0.74845039  1
  O  O100  1  0.42249086  0.54045471  0.74762865  1
  O  O101  1  0.91782940  0.49121546  0.74610602  1
  O  O102  1  0.34904520  0.53523989  0.24953035  1
  O  O103  1  0.84565930  0.54004798  0.25020490  1
  O  O104  1  0.42804796  0.33231842  0.24796578  1
  O  O105  1  0.92227820  0.30452051  0.24789968  1
  O  O106  1  0.23476564  0.15841031  0.24875320  1
  O  O107  1  0.74769992  0.16835508  0.24528350  1
  O  O108  1  0.32035952  0.51314764  0.92002569  1
  O  O109  1  0.82414976  0.52097667  0.91782146  1
  O  O110  1  0.42186809  0.36204043  0.91763982  1
  O  O111  1  0.93373012  0.35202669  0.92218814  1
  O  O112  1  0.24273209  0.12856988  0.91779180  1
  O  O113  1  0.75480913  0.15780255  0.92140406  1
  O  O114  1  0.32662581  0.13136770  0.41512780  1
  O  O115  1  0.82090769  0.12854850  0.41939277  1
  O  O116  1  0.25522472  0.35346591  0.42076859  1
  O  O117  1  0.73788836  0.35304344  0.41435730  1
  O  O118  1  0.43369935  0.51647553  0.41960232  1
  O  O119  1  0.92156268  0.48135601  0.41793093  1
  O  O120  1  0.16962830  0.49327227  0.07322114  1
  O  O121  1  0.67480454  0.51224635  0.07914382  1
  O  O122  1  0.07462771  0.66161480  0.07459364  1
  O  O123  1  0.56642826  0.65182432  0.08270910  1
  O  O124  1  0.25165357  0.84877280  0.07573456  1
  O  O125  1  0.75958294  0.86586406  0.07954613  1
  O  O126  1  0.17342620  0.83593979  0.57823428  1
  O  O127  1  0.67053710  0.85022210  0.57470070  1
  O  O128  1  0.26043707  0.65347400  0.57778718  1
  O  O129  1  0.75219550  0.65988917  0.57461302  1
  O  O130  1  0.06723501  0.48261936  0.57997825  1
  O  O131  1  0.57490639  0.48863801  0.57401732  1
  O  O132  1  0.16059766  0.85062330  0.25436005  1
  O  O133  1  0.65873307  0.82521112  0.25387944  1
  O  O134  1  0.26680374  0.68130076  0.25375447  1
  O  O135  1  0.76563672  0.68542453  0.25637683  1
  O  O136  1  0.07705793  0.46107435  0.25260152  1
  O  O137  1  0.57993457  0.46412242  0.25683739  1
  O  O138  1  0.16398613  0.49221224  0.75402243  1
  O  O139  1  0.65876456  0.47018641  0.75492637  1
  O  O140  1  0.08655305  0.68792978  0.75545865  1
  O  O141  1  0.57721686  0.69353145  0.75320270  1
  O  O142  1  0.26990119  0.84734757  0.75710158  1
  O  O143  1  0.76574151  0.84004671  0.75424317  1
loop_
_geom_bond_atom_site_label_1
_geom_bond_atom_site_label_2
_geom_bond_distance
_geom_bond_site_symmetry_2
Na0 O107 2.322391 1_555
Na0 O133 2.408174 1_545
Na0 O105 2.484681 1_555
Na0 O135 2.583507 1_545
Na0 O63 2.650940 1_545
Na0 O33 2.670151 1_555
Na1 O35 2.371661 1_555
Na1 O107 2.417093 1_555
Na1 O103 2.516773 1_555
Na1 O135 2.657539 1_555
Na1 O137 2.659317 1_555
Na1 O65 2.871004 1_555
Na1 O1 2.946399 1_555
Na1 O21 3.036243 1_555
Na2 O133 2.423787 1_555
Na2 O104 2.505480 1_555
Na2 O102 2.523442 1_555
Na2 O30 2.629516 1_555
Na2 O137 2.645882 1_555
Na2 O61 2.706816 1_555
Na2 O23 2.805389 1_555
Na3 O138 2.303492 1_555
Na3 O98 2.363619 1_555
Na3 O100 2.503443 1_555
Na3 O142 2.543266 1_555
Na3 O70 2.706437 1_555
Na3 O28 2.709872 1_555
Na4 O101 2.333532 1_455
Na4 O140 2.475025 1_555
Na4 O138 2.528803 1_555
Na4 O97 2.658391 1_455
Na4 O25 2.663241 1_455
Na4 O66 2.796050 1_555
Na4 O14 2.908338 1_555
Na5 O140 2.501023 1_545
Na5 O26 2.511714 1_555
Na5 O98 2.525642 1_555
Na5 O96 2.741911 1_555
Na5 O142 2.743903 1_545
Na5 O16 2.828925 1_545
Na5 O68 2.912096 1_545
Na5 O6 2.958344 1_555
Na6 O56 2.455446 1_555
Na6 O86 2.539226 1_555
Na6 O130 2.596569 1_555
Na6 O85 2.622858 1_455
Na6 O128 2.629390 1_555
Na6 O42 2.841027 1_555
Na6 O14 2.862370 1_555
Na7 O129 2.375111 1_555
Na7 O131 2.538291 1_555
Na7 O29 2.611100 1_555
Na7 O87 2.687442 1_555
Na7 O57 2.797143 1_555
Na7 O43 2.872724 1_555
Na7 O15 2.895420 1_555
Na7 O84 2.961928 1_555
Na8 O58 2.405630 1_555
Na8 O86 2.495475 1_565
Na8 O126 2.525362 1_555
Na8 O130 2.582657 1_555
Na8 O89 2.667258 1_455
Na8 O45 2.753533 1_455
Na9 O127 2.334677 1_555
Na9 O131 2.420330 1_555
Na9 O87 2.680084 1_565
Na9 O24 2.688093 1_555
Na9 O17 2.751959 1_555
Na9 O88 2.762853 1_555
Na9 O59 2.816329 1_555
Na10 O126 2.407511 1_555
Na10 O84 2.502275 1_565
Na10 O26 2.647615 1_565
Na10 O128 2.693801 1_555
Na10 O54 2.749226 1_555
Na10 O46 2.813464 1_565
Na10 O88 2.856065 1_555
Na10 O12 2.890046 1_555
Na11 O129 2.351635 1_555
Na11 O89 2.448489 1_555
Na11 O127 2.493903 1_555
Na11 O85 2.639733 1_565
Na11 O13 2.710511 1_555
Na11 O27 2.782647 1_565
Na11 O55 2.861770 1_555
Na12 O124 2.368419 1_555
Na12 O122 2.454164 1_555
Na12 O52 2.571457 1_554
Na12 O94 2.710136 1_565
Na12 O36 2.842938 1_565
Na12 O32 2.843194 1_565
Na12 O91 2.871685 1_455
Na12 O22 2.957204 1_555
Na13 O53 2.297900 1_554
Na13 O125 2.599997 1_555
Na13 O95 2.637789 1_565
Na13 O37 2.663518 1_565
Na13 O123 2.668562 1_555
Na13 O90 2.754549 1_555
Na14 O124 2.340386 1_555
Na14 O120 2.432722 1_555
Na14 O92 2.493623 1_565
Na14 O48 2.672043 1_554
Na14 O90 2.692732 1_555
Na14 O34 2.756652 1_555
Na14 O18 2.847298 1_555
Na15 O121 2.434637 1_555
Na15 O91 2.481812 1_555
Na15 O49 2.603445 1_554
Na15 O39 2.695078 1_555
Na15 O125 2.705983 1_555
Na15 O35 2.787097 1_555
Na15 O93 2.821306 1_565
Na15 O19 2.961150 1_555
Na16 O120 2.316434 1_555
Na16 O122 2.411532 1_555
Na16 O50 2.641925 1_554
Na16 O94 2.660754 1_555
Na16 O31 2.740720 1_455
Na16 O93 2.767534 1_455
Na16 O20 2.841329 1_555
Na17 O51 2.235661 1_554
Na17 O95 2.501809 1_555
Na17 O121 2.584028 1_555
Na17 O40 2.611047 1_555
Na17 O123 2.627354 1_555
Na17 O92 2.662132 1_555
Na18 O110 2.418246 1_555
Na18 O81 2.493852 1_555
Na18 O82 2.653498 1_555
Na18 O108 2.688274 1_555
Na18 O38 2.756064 1_556
Na18 O8 2.815868 1_555
Na18 O67 2.902023 1_555
Na18 O53 2.981394 1_555
Na19 O9 2.367899 1_555
Na19 O109 2.481310 1_555
Na19 O111 2.523846 1_555
Na19 O80 2.528835 1_655
Na19 O39 2.619171 1_556
Na19 O83 2.623573 1_555
Na20 O79 2.343655 1_555
Na20 O40 2.368711 1_556
Na20 O112 2.506818 1_555
Na20 O110 2.508244 1_555
Na20 O82 2.614492 1_545
Na20 O10 2.902264 1_555
Na20 O48 2.981722 1_545
Na21 O113 2.389405 1_555
Na21 O111 2.480800 1_555
Na21 O78 2.559711 1_655
Na21 O83 2.562482 1_545
Na21 O11 2.637299 1_555
Na21 O69 2.775964 1_545
Na21 O41 2.821232 1_556
Na22 O108 2.492892 1_555
Na22 O112 2.506097 1_555
Na22 O6 2.513907 1_555
Na22 O80 2.530506 1_545
Na22 O36 2.584902 1_556
Na22 O78 2.600622 1_555
Na23 O81 2.458589 1_545
Na23 O37 2.474964 1_556
Na23 O113 2.532190 1_555
Na23 O79 2.613612 1_555
Na23 O109 2.657813 1_555
Na23 O7 2.873269 1_555
Na23 O51 2.913579 1_555
Na24 O46 2.249478 1_555
Na24 O114 2.479857 1_555
Na24 O118 2.489852 1_555
Na24 O77 2.513802 1_555
Na24 O74 2.644298 1_545
Na24 O57 2.871514 1_555
Na24 O4 2.932882 1_555
Na25 O119 2.433160 1_555
Na25 O76 2.502115 1_655
Na25 O47 2.570923 1_555
Na25 O75 2.674466 1_545
Na25 O115 2.697648 1_555
Na25 O5 2.928986 1_555
Na25 O56 2.937803 1_655
Na25 O60 2.942132 1_655
Na26 O42 2.329650 1_555
Na26 O76 2.474869 1_555
Na26 O72 2.582938 1_545
Na26 O116 2.592632 1_555
Na26 O114 2.759107 1_555
Na26 O58 2.813174 1_545
Na26 O0 2.979106 1_555
Na27 O43 2.368846 1_555
Na27 O115 2.445965 1_555
Na27 O117 2.451432 1_555
Na27 O73 2.648944 1_545
Na27 O77 2.649945 1_555
Na27 O1 2.726430 1_555
Na28 O116 2.359281 1_555
Na28 O118 2.528501 1_555
Na28 O74 2.627443 1_555
Na28 O73 2.634577 1_555
Na28 O44 2.647030 1_555
Na28 O64 2.790646 1_555
Na28 O2 2.799911 1_555
Na28 O54 2.917866 1_555
Na29 O45 2.244169 1_555
Na29 O72 2.340807 1_655
Na29 O119 2.510187 1_555
Na29 O117 2.575960 1_555
Na29 O75 2.621320 1_555
Na29 O55 2.963656 1_555
Na29 O3 2.965690 1_555
Na30 O72 2.465558 1_555
Na30 O86 2.470733 1_565
Na30 O89 2.545633 1_455
Na30 O76 2.558278 1_565
Na30 O85 2.744989 1_465
Na30 O75 2.770891 1_455
Na31 O87 2.499682 1_555
Na31 O84 2.533386 1_555
Na31 O77 2.551827 1_555
Na31 O73 2.703553 1_545
Na31 O88 2.706562 1_545
Na31 O74 2.752097 1_545
Na32 O80 2.412684 1_555
Na32 O78 2.556698 1_565
Na32 O83 2.573642 1_455
Na32 O94 2.602787 1_566
Na32 O91 2.665810 1_456
Na32 O93 2.831909 1_466
Na33 O79 2.339077 1_555
Na33 O81 2.420255 1_545
Na33 O82 2.632626 1_545
Na33 O95 2.663860 1_556
Na33 O92 2.734651 1_556
Na33 O90 2.890743 1_546
Na34 O110 2.423019 1_555
Na34 O98 2.480281 1_555
Na34 O96 2.499365 1_555
Na34 O100 2.555495 1_555
Na34 O112 2.652659 1_555
Na34 O108 2.722408 1_555
Na35 O101 2.343575 1_555
Na35 O99 2.404315 1_555
Na35 O97 2.517117 1_555
Na35 O113 2.625280 1_555
Na35 O109 2.705636 1_555
Na35 O111 2.845084 1_555
Na36 O116 2.344306 1_555
Na36 O106 2.414120 1_555
Na36 O102 2.552192 1_555
Na36 O114 2.596315 1_555
Na36 O104 2.759752 1_555
Na36 O118 2.762396 1_555
Na37 O119 2.346785 1_555
Na37 O103 2.538392 1_555
Na37 O105 2.552118 1_555
Na37 O107 2.567539 1_555
Na37 O117 2.651391 1_555
Na37 O115 2.663219 1_555
Na38 O124 2.352015 1_555
Na38 O122 2.426792 1_555
Na38 O120 2.449217 1_555
Na38 O132 2.817114 1_555
Na38 O134 2.853199 1_555
Na38 O136 2.855738 1_555
Na39 O121 2.368682 1_555
Na39 O123 2.554877 1_555
Na39 O133 2.571070 1_555
Na39 O125 2.581830 1_555
Na39 O135 2.683925 1_555
Na39 O137 2.706762 1_555
Na40 O140 2.351992 1_555
Na40 O126 2.475820 1_555
Na40 O138 2.537117 1_555
Na40 O130 2.638577 1_555
Na40 O142 2.689804 1_555
Na40 O128 2.858837 1_555
Na41 O129 2.357328 1_555
Na41 O127 2.476366 1_555
Na41 O131 2.493325 1_555
Na41 O143 2.758907 1_555
Na41 O139 2.793161 1_555
Na41 O141 2.869480 1_555
Mg0 O72 1.975574 1_545
Mg0 O76 2.012508 1_555
Mg0 O0 2.116118 1_555
Mg0 O3 2.153888 1_445
Mg0 O5 2.170781 1_455
Mg0 O75 2.210382 1_445
Mg1 O1 1.933960 1_555
Mg1 O4 2.098203 1_555
Mg1 O2 2.103493 1_545
Mg1 O77 2.204940 1_555
Mg1 O74 2.237593 1_545
Mg1 O73 2.250830 1_545
Mg2 O9 1.926869 1_455
Mg2 O6 1.944965 1_565
Mg2 O11 2.112790 1_465
Mg2 O80 2.360574 1_555
Mg2 O83 2.415263 1_455
Mg2 O78 2.484505 1_565
Mg3 O79 1.994298 1_555
Mg3 O81 2.035240 1_545
Mg3 O7 2.077227 1_555
Mg3 O10 2.110121 1_555
Mg3 O8 2.153009 1_545
Mg3 O82 2.222348 1_545
Mg4 O26 1.958437 1_555
Mg4 O24 1.962752 1_555
Mg4 O98 2.078909 1_555
Mg4 O28 2.224790 1_555
Mg4 O96 2.275138 1_555
Mg4 O100 2.410226 1_555
Mg5 O29 1.924523 1_555
Mg5 O27 1.994375 1_555
Mg5 O101 2.074785 1_555
Mg5 O25 2.213330 1_555
Mg5 O99 2.241717 1_555
Mg5 O97 2.435091 1_555
Mg6 O32 1.901676 1_555
Mg6 O34 1.910530 1_555
Mg6 O106 2.200767 1_555
Mg6 O30 2.217065 1_555
Mg6 O102 2.421318 1_555
Mg6 O104 2.458049 1_555
Mg7 O31 1.945626 1_555
Mg7 O35 1.981954 1_555
Mg7 O107 2.118272 1_555
Mg7 O33 2.184639 1_555
Mg7 O103 2.305113 1_555
Mg7 O105 2.385881 1_555
Mg8 O40 1.978863 1_556
Mg8 O36 2.027143 1_556
Mg8 O110 2.124837 1_555
Mg8 O38 2.193492 1_556
Mg8 O112 2.272342 1_555
Mg8 O108 2.422701 1_555
Mg9 O37 1.975430 1_556
Mg9 O39 2.000518 1_556
Mg9 O113 2.077188 1_555
Mg9 O41 2.243587 1_556
Mg9 O109 2.295287 1_555
Mg9 O111 2.365940 1_555
Mg10 O42 1.934358 1_555
Mg10 O46 2.011249 1_555
Mg10 O116 2.100059 1_555
Mg10 O44 2.187308 1_555
Mg10 O114 2.376083 1_555
Mg10 O118 2.429641 1_555
Mg11 O45 1.953563 1_555
Mg11 O43 2.035643 1_555
Mg11 O47 2.118558 1_555
Mg11 O119 2.141162 1_555
Mg11 O117 2.463687 1_555
Mg11 O115 2.468467 1_555
Mg12 O120 2.009727 1_555
Mg12 O124 2.014240 1_555
Mg12 O122 2.031863 1_555
Mg12 O52 2.130428 1_554
Mg12 O48 2.182687 1_554
Mg12 O50 2.184504 1_554
Mg13 O51 1.954186 1_554
Mg13 O53 2.009779 1_554
Mg13 O121 2.063603 1_555
Mg13 O49 2.144202 1_554
Mg13 O123 2.322828 1_555
Mg13 O125 2.397227 1_555
Mg14 O58 1.958362 1_555
Mg14 O56 2.005993 1_555
Mg14 O126 2.029212 1_555
Mg14 O130 2.211380 1_555
Mg14 O54 2.290756 1_555
Mg14 O128 2.380910 1_555
Mg15 O129 1.970720 1_555
Mg15 O127 2.009483 1_555
Mg15 O131 2.023079 1_555
Mg15 O55 2.177548 1_555
Mg15 O57 2.201087 1_555
Mg15 O59 2.235595 1_555
Mg16 O133 2.007437 1_555
Mg16 O63 2.055252 1_555
Mg16 O65 2.097417 1_555
Mg16 O61 2.106627 1_555
Mg16 O137 2.196302 1_555
Mg16 O135 2.208254 1_555
Mg17 O140 1.988944 1_555
Mg17 O138 2.015787 1_555
Mg17 O66 2.127461 1_555
Mg17 O70 2.156706 1_555
Mg17 O68 2.159740 1_555
Mg17 O142 2.235477 1_555
O0 S0 1.467397 1_555
O1 Si0 1.629049 1_555
O2 S1 1.490418 1_555
O3 S2 1.467049 1_555
O4 S4 1.476213 1_555
O5 S3 1.474800 1_555
O6 Si1 1.635347 1_555
O7 S5 1.476998 1_555
O8 S6 1.477867 1_555
O9 Si2 1.623514 1_555
O10 S7 1.471109 1_555
O11 S8 1.493826 1_545
O12 S7 1.517609 1_565
O12 Zr1 2.203035 1_565
O13 S8 1.492086 1_555
O13 Zr0 2.249983 1_655
O14 Si1 1.677434 1_555
O14 Zr0 2.049502 1_545
O15 S5 1.526976 1_555
O15 Zr1 2.090324 1_555
O16 Si2 1.688536 1_455
O16 Zr0 1.944294 1_555
O17 S6 1.503060 1_555
O17 Zr1 2.218064 1_565
O18 S1 1.493765 1_555
O18 Zr3 2.229868 1_565
O19 S2 1.511437 1_555
O19 Zr2 2.246666 1_655
O20 S3 1.500683 1_455
O20 Zr2 2.214032 1_545
O21 S4 1.506052 1_555
O21 Zr3 2.168068 1_555
O22 S0 1.520108 1_565
O22 Zr2 2.117069 1_555
O23 Si0 1.683637 1_565
O23 Zr3 2.031535 1_565
O24 Si3 1.605793 1_555
O25 S9 1.466219 1_555
O26 Si4 1.621978 1_555
O27 Si5 1.598508 1_555
O28 S10 1.471467 1_555
O29 Si6 1.600229 1_555
O30 S11 1.477068 1_555
O31 Si7 1.609683 1_555
O32 Si8 1.607436 1_555
O33 S12 1.474001 1_555
O34 Si9 1.608134 1_555
O35 Si10 1.623113 1_555
O36 Si9 1.631012 1_555
O37 Si10 1.626888 1_555
O38 S11 1.477176 1_555
O39 Si7 1.629615 1_555
O40 Si8 1.635328 1_555
O41 S12 1.476938 1_555
O42 Si4 1.631279 1_555
O43 Si5 1.642837 1_555
O44 S10 1.486850 1_555
O45 Si6 1.639702 1_555
O46 Si3 1.636474 1_555
O47 S9 1.490717 1_555
O48 S13 1.482025 1_555
O49 S14 1.482626 1_555
O50 S15 1.482997 1_555
O51 Si11 1.618733 1_555
O52 S16 1.481191 1_555
O53 Si12 1.628473 1_555
O54 S17 1.476588 1_555
O55 S18 1.477509 1_555
O56 Si13 1.619629 1_555
O57 S19 1.477499 1_555
O58 Si14 1.614269 1_555
O59 S20 1.477064 1_555
O60 Si14 1.705104 1_555
O60 Zr4 1.932222 1_555
O61 S20 1.491198 1_555
O62 S17 1.498948 1_555
O62 Zr4 2.177835 1_555
O63 S18 1.497311 1_555
O64 Si13 1.700832 1_555
O64 Zr4 1.944260 1_555
O65 S19 1.487281 1_555
O66 S15 1.482093 1_555
O67 Si11 1.689247 1_555
O67 Zr5 1.942257 1_555
O68 S16 1.477435 1_555
O69 Si12 1.691087 1_555
O69 Zr5 1.946151 1_555
O70 S13 1.485449 1_555
O71 S14 1.498347 1_555
O71 Zr5 2.169941 1_555
O72 Si14 1.631160 1_555
O73 S20 1.510462 1_555
O74 S17 1.504947 1_555
O75 S18 1.492296 1_555
O76 Si13 1.635644 1_555
O77 S19 1.518926 1_555
O78 S15 1.506986 1_555
O79 Si11 1.632311 1_555
O80 S16 1.506548 1_555
O81 Si12 1.642468 1_555
O82 S13 1.500225 1_555
O83 S14 1.492635 1_555
O84 Si3 1.721650 1_555
O84 Zr1 1.978848 1_555
O85 S9 1.503276 1_555
O85 Zr0 2.389815 1_645
O86 Si4 1.678068 1_555
O86 Zr0 2.048406 1_545
O87 Si5 1.742202 1_555
O87 Zr1 1.979441 1_555
O88 S10 1.529478 1_555
O88 Zr1 2.219885 1_565
O89 Si6 1.674417 1_555
O89 Zr0 2.065375 1_655
O90 S11 1.522650 1_555
O90 Zr3 2.213627 1_565
O91 Si7 1.725661 1_555
O91 Zr2 1.960655 1_655
O92 Si8 1.689287 1_555
O92 Zr3 2.023313 1_555
O93 S12 1.525806 1_555
O93 Zr2 2.209328 1_645
O94 Si9 1.732528 1_555
O94 Zr2 1.970701 1_545
O95 Si10 1.694985 1_555
O95 Zr3 1.994510 1_555
O96 S7 1.472689 1_555
O97 S8 1.461760 1_545
O98 Si1 1.652083 1_555
O99 S5 1.443980 1_555
O100 S6 1.468104 1_555
O101 Si2 1.624473 1_555
O102 S1 1.484680 1_555
O103 S2 1.475023 1_555
O104 S4 1.473415 1_555
O105 S3 1.470654 1_555
O106 S0 1.471824 1_555
O107 Si0 1.642778 1_555
O108 S13 1.492056 1_555
O109 S14 1.480621 1_555
O110 Si11 1.642389 1_555
O111 S15 1.494461 1_655
O112 S16 1.496168 1_545
O113 Si12 1.642643 1_545
O114 S17 1.480918 1_545
O115 S18 1.487043 1_545
O116 Si13 1.647462 1_555
O117 S19 1.483035 1_555
O118 S20 1.490080 1_555
O119 Si14 1.640910 1_655
O120 Si9 1.626462 1_555
O121 Si10 1.640107 1_555
O122 Si7 1.626110 1_455
O123 S11 1.481631 1_555
O124 Si8 1.630603 1_565
O125 S12 1.480599 1_565
O126 Si4 1.643645 1_565
O127 Si5 1.634213 1_565
O128 S10 1.472974 1_555
O129 Si6 1.637843 1_555
O130 S9 1.492385 1_455
O131 Si3 1.628070 1_555
O132 S0 1.491944 1_565
O132 Zr4 2.302265 1_555
O133 Si0 1.656010 1_565
O134 S1 1.482966 1_555
O134 Zr4 2.301926 1_555
O135 S2 1.503966 1_555
O136 S3 1.502337 1_455
O136 Zr4 2.192911 1_555
O137 S4 1.500524 1_555
O138 Si1 1.642200 1_555
O139 S5 1.495450 1_555
O139 Zr5 2.284490 1_555
O140 Si2 1.651507 1_455
O141 S6 1.500671 1_555
O141 Zr5 2.204657 1_555
O142 S7 1.486714 1_565
O143 S8 1.502016 1_555
O143 Zr5 2.243139 1_555
