# generated using pymatgen
data_KGaSb2
_symmetry_space_group_name_H-M   'P 1'
_cell_length_a   9.89402816
_cell_length_b   9.89402816
_cell_length_c   29.74511242
_cell_angle_alpha   90.00000000
_cell_angle_beta   90.00000000
_cell_angle_gamma   133.98981117
_symmetry_Int_Tables_number   1
_chemical_formula_structural   KGaSb2
_chemical_formula_sum   'K16 Ga16 Sb32'
_cell_volume   2094.93501507
_cell_formula_units_Z   16
loop_
 _symmetry_equiv_pos_site_id
 _symmetry_equiv_pos_as_xyz
  1  'x, y, z'
loop_
 _atom_site_type_symbol
 _atom_site_label
 _atom_site_symmetry_multiplicity
 _atom_site_fract_x
 _atom_site_fract_y
 _atom_site_fract_z
 _atom_site_occupancy
  K  K0  1  0.28456419  0.28456419  -0.00000000  1
  K  K1  1  0.21543581  0.21543581  0.50000000  1
  K  K2  1  0.71543581  0.71543581  -0.00000000  1
  K  K3  1  0.78456419  0.78456419  0.50000000  1
  K  K4  1  0.34295326  0.65704674  0.19350167  1
  K  K5  1  0.65704674  0.34295326  0.80649833  1
  K  K6  1  0.15704674  0.84295326  0.69350167  1
  K  K7  1  0.84295326  0.15704674  0.30649833  1
  K  K8  1  0.20227091  0.79772909  0.01128330  1
  K  K9  1  0.79772909  0.20227091  0.98871670  1
  K  K10  1  0.29772909  0.70227091  0.51128330  1
  K  K11  1  0.70227091  0.29772909  0.48871670  1
  K  K12  1  0.65171482  0.84828518  0.75000000  1
  K  K13  1  0.84828518  0.65171482  0.25000000  1
  K  K14  1  0.34828518  0.15171482  0.25000000  1
  K  K15  1  0.15171482  0.34828518  0.75000000  1
  Ga  Ga0  1  0.45032779  0.99421293  0.37511012  1
  Ga  Ga1  1  0.99421293  0.45032779  0.62488988  1
  Ga  Ga2  1  0.04967221  0.50578707  0.87511012  1
  Ga  Ga3  1  0.50578707  0.04967221  0.12488988  1
  Ga  Ga4  1  0.54967221  0.00578707  0.62488988  1
  Ga  Ga5  1  0.00578707  0.54967221  0.37511012  1
  Ga  Ga6  1  0.95032779  0.49421293  0.12488988  1
  Ga  Ga7  1  0.49421293  0.95032779  0.87511012  1
  Ga  Ga8  1  0.73415529  0.81227228  0.12975583  1
  Ga  Ga9  1  0.81227228  0.73415529  0.87024417  1
  Ga  Ga10  1  0.76584471  0.68772772  0.62975583  1
  Ga  Ga11  1  0.68772772  0.76584471  0.37024417  1
  Ga  Ga12  1  0.26584471  0.18772772  0.87024417  1
  Ga  Ga13  1  0.18772772  0.26584471  0.12975583  1
  Ga  Ga14  1  0.23415529  0.31227228  0.37024417  1
  Ga  Ga15  1  0.31227228  0.23415529  0.62975583  1
  Sb  Sb0  1  0.84770404  0.15229596  0.84651057  1
  Sb  Sb1  1  0.15229596  0.84770404  0.15348943  1
  Sb  Sb2  1  0.65229596  0.34770404  0.34651057  1
  Sb  Sb3  1  0.34770404  0.65229596  0.65348943  1
  Sb  Sb4  1  0.26494519  0.73505481  0.30746588  1
  Sb  Sb5  1  0.73505481  0.26494519  0.69253412  1
  Sb  Sb6  1  0.23505481  0.76494519  0.80746588  1
  Sb  Sb7  1  0.76494519  0.23505481  0.19253412  1
  Sb  Sb8  1  0.45373287  0.54626713  0.58514037  1
  Sb  Sb9  1  0.54626713  0.45373287  0.41485963  1
  Sb  Sb10  1  0.04626713  0.95373287  0.08514037  1
  Sb  Sb11  1  0.95373287  0.04626713  0.91485963  1
  Sb  Sb12  1  0.13899894  0.86100106  0.42051317  1
  Sb  Sb13  1  0.86100106  0.13899894  0.57948683  1
  Sb  Sb14  1  0.36100106  0.63899894  0.92051317  1
  Sb  Sb15  1  0.63899894  0.36100106  0.07948683  1
  Sb  Sb16  1  0.95789861  0.04210139  0.65456511  1
  Sb  Sb17  1  0.04210139  0.95789861  0.34543489  1
  Sb  Sb18  1  0.54210139  0.45789861  0.15456511  1
  Sb  Sb19  1  0.45789861  0.54210139  0.84543489  1
  Sb  Sb20  1  0.42089437  0.57910563  0.30465205  1
  Sb  Sb21  1  0.57910563  0.42089437  0.69534795  1
  Sb  Sb22  1  0.07910563  0.92089437  0.80465205  1
  Sb  Sb23  1  0.92089437  0.07910563  0.19534795  1
  Sb  Sb24  1  0.33736828  0.03232587  0.57635884  1
  Sb  Sb25  1  0.03232587  0.33736828  0.42364116  1
  Sb  Sb26  1  0.16263172  0.46767413  0.07635884  1
  Sb  Sb27  1  0.46767413  0.16263172  0.92364116  1
  Sb  Sb28  1  0.66263172  0.96767413  0.42364116  1
  Sb  Sb29  1  0.96767413  0.66263172  0.57635884  1
  Sb  Sb30  1  0.83736828  0.53232587  0.92364116  1
  Sb  Sb31  1  0.53232587  0.83736828  0.07635884  1
loop_
_geom_bond_atom_site_label_1
_geom_bond_atom_site_label_2
_geom_bond_distance
_geom_bond_site_symmetry_2
K0 Sb11 3.459289 1_454
K0 Sb10 3.459289 1_545
K0 Sb26 3.596170 1_555
K0 Sb27 3.596170 1_554
K0 Sb15 3.843922 1_555
K0 Sb14 3.843922 1_554
K1 Sb8 3.459289 1_555
K1 Sb9 3.459289 1_555
K1 Sb25 3.596170 1_555
K1 Sb24 3.596170 1_555
K1 Sb12 3.843922 1_545
K1 Sb13 3.843922 1_455
K2 Sb11 3.459289 1_564
K2 Sb10 3.459289 1_655
K2 Sb31 3.596170 1_555
K2 Sb30 3.596170 1_554
K2 Sb15 3.843922 1_555
K2 Sb14 3.843922 1_554
K3 Sb8 3.459289 1_555
K3 Sb9 3.459289 1_555
K3 Sb28 3.596170 1_555
K3 Sb29 3.596170 1_555
K3 Sb13 3.843922 1_565
K3 Sb12 3.843922 1_655
K4 Sb20 3.598085 1_555
K4 Sb1 3.670980 1_555
K4 Sb4 3.675613 1_555
K4 Sb31 3.767161 1_555
K4 Sb26 3.767161 1_555
K4 Sb18 3.807756 1_555
K4 Sb23 4.119452 1_455
K4 Sb23 4.119452 1_565
K4 Sb7 4.119607 1_455
K4 Sb7 4.119607 1_565
K5 Sb21 3.598085 1_555
K5 Sb0 3.670980 1_555
K5 Sb5 3.675613 1_555
K5 Sb27 3.767161 1_555
K5 Sb30 3.767161 1_555
K5 Sb19 3.807756 1_555
K5 Sb22 4.119452 1_545
K5 Sb22 4.119452 1_655
K5 Sb6 4.119607 1_545
K5 Sb6 4.119607 1_655
K6 Sb22 3.598085 1_555
K6 Sb3 3.670980 1_555
K6 Sb6 3.675613 1_555
K6 Sb29 3.767161 1_455
K6 Sb24 3.767161 1_565
K6 Sb16 3.807756 1_465
K6 Sb21 4.119452 1_565
K6 Sb21 4.119452 1_455
K6 Sb5 4.119607 1_565
K6 Sb5 4.119607 1_455
K7 Sb23 3.598085 1_555
K7 Sb2 3.670980 1_555
K7 Sb7 3.675613 1_555
K7 Sb28 3.767161 1_545
K7 Sb25 3.767161 1_655
K7 Sb17 3.807756 1_645
K7 Sb20 4.119452 1_545
K7 Sb20 4.119452 1_655
K7 Sb4 4.119607 1_655
K7 Sb4 4.119607 1_545
K8 Sb31 3.575699 1_555
K8 Sb26 3.575699 1_555
K8 Sb10 3.591719 1_555
K8 Sb27 3.682008 1_564
K8 Sb30 3.682008 1_454
K8 Sb14 3.955836 1_554
K9 Sb27 3.575699 1_555
K9 Sb30 3.575699 1_555
K9 Sb11 3.591719 1_555
K9 Sb31 3.682008 1_546
K9 Sb26 3.682008 1_656
K9 Sb15 3.955836 1_556
K10 Sb24 3.575699 1_565
K10 Sb29 3.575699 1_455
K10 Sb8 3.591719 1_555
K10 Sb25 3.682008 1_555
K10 Sb28 3.682008 1_555
K10 Sb12 3.955836 1_555
K11 Sb28 3.575699 1_545
K11 Sb25 3.575699 1_655
K11 Sb9 3.591719 1_555
K11 Sb24 3.682008 1_555
K11 Sb29 3.682008 1_555
K11 Sb13 3.955836 1_555
K12 Sb16 3.583776 1_565
K12 Sb19 3.583776 1_555
K12 Sb3 3.598151 1_555
K12 Sb0 3.598151 1_565
K12 K15 3.866715 1_665
K12 K15 3.866715 1_555
K12 Sb5 3.984285 1_565
K12 Sb6 3.984285 1_555
K12 Sb21 4.101249 1_555
K12 Sb22 4.101249 1_655
K13 Sb17 3.583776 1_655
K13 Sb18 3.583776 1_555
K13 Sb1 3.598151 1_655
K13 Sb2 3.598151 1_555
K13 K14 3.866715 1_555
K13 K14 3.866715 1_665
K13 Sb4 3.984285 1_655
K13 Sb7 3.984285 1_555
K13 Sb23 4.101249 1_565
K13 Sb20 4.101249 1_555
K14 Sb17 3.583776 1_545
K14 Sb18 3.583776 1_555
K14 Sb1 3.598151 1_545
K14 Sb2 3.598151 1_555
K14 Sb7 3.984285 1_555
K14 Sb4 3.984285 1_545
K14 Sb20 4.101249 1_555
K14 Sb23 4.101249 1_455
K15 Sb19 3.583776 1_555
K15 Sb16 3.583776 1_455
K15 Sb3 3.598151 1_555
K15 Sb0 3.598151 1_455
K15 Sb5 3.984285 1_455
K15 Sb6 3.984285 1_555
K15 Sb21 4.101249 1_555
K15 Sb22 4.101249 1_545
Ga0 Sb2 2.690908 1_565
Ga0 Sb28 2.707624 1_555
Ga0 Sb12 2.722112 1_555
Ga0 Sb4 2.730307 1_555
Ga0 K7 3.627366 1_565
Ga1 Sb3 2.690908 1_655
Ga1 Sb29 2.707624 1_555
Ga1 Sb13 2.722112 1_555
Ga1 Sb5 2.730307 1_555
Ga1 K6 3.627366 1_655
Ga2 Sb0 2.690908 1_455
Ga2 Sb30 2.707624 1_455
Ga2 Sb14 2.722112 1_555
Ga2 Sb6 2.730307 1_555
Ga2 K5 3.627366 1_455
Ga3 Sb1 2.690908 1_545
Ga3 Sb31 2.707624 1_545
Ga3 Sb15 2.722112 1_555
Ga3 Sb7 2.730307 1_555
Ga3 K4 3.627366 1_545
Ga4 Sb3 2.690908 1_545
Ga4 Sb24 2.707624 1_555
Ga4 Sb13 2.722112 1_555
Ga4 Sb5 2.730307 1_555
Ga4 K6 3.627366 1_545
Ga5 Sb2 2.690908 1_455
Ga5 Sb25 2.707624 1_555
Ga5 Sb12 2.722112 1_555
Ga5 Sb4 2.730307 1_555
Ga5 K7 3.627366 1_455
Ga6 Sb1 2.690908 1_655
Ga6 Sb26 2.707624 1_655
Ga6 Sb15 2.722112 1_555
Ga6 Sb7 2.730307 1_555
Ga6 K4 3.627366 1_655
Ga7 Sb0 2.690908 1_565
Ga7 Sb27 2.707624 1_565
Ga7 Sb14 2.722112 1_555
Ga7 Sb6 2.730307 1_555
Ga7 K5 3.627366 1_565
Ga8 Sb18 2.682186 1_555
Ga8 Sb10 2.693044 1_655
Ga8 Sb31 2.694573 1_555
Ga8 Sb23 2.722973 1_565
Ga8 K4 3.560629 1_555
Ga9 Sb19 2.682186 1_555
Ga9 Sb11 2.693044 1_565
Ga9 Sb30 2.694573 1_555
Ga9 Sb22 2.722973 1_655
Ga9 K5 3.560629 1_555
Ga10 Sb16 2.682186 1_565
Ga10 Sb8 2.693044 1_555
Ga10 Sb29 2.694573 1_555
Ga10 Sb21 2.722973 1_555
Ga10 K6 3.560629 1_655
Ga11 Sb17 2.682186 1_655
Ga11 Sb9 2.693044 1_555
Ga11 Sb28 2.694573 1_555
Ga11 Sb20 2.722973 1_555
Ga11 K7 3.560629 1_565
Ga12 Sb19 2.682186 1_555
Ga12 Sb11 2.693044 1_455
Ga12 Sb27 2.694573 1_555
Ga12 Sb22 2.722973 1_545
Ga12 K5 3.560629 1_555
Ga13 Sb18 2.682186 1_555
Ga13 Sb10 2.693044 1_545
Ga13 Sb26 2.694573 1_555
Ga13 Sb23 2.722973 1_455
Ga13 K4 3.560629 1_555
Ga14 Sb17 2.682186 1_545
Ga14 Sb9 2.693044 1_555
Ga14 Sb25 2.694573 1_555
Ga14 Sb20 2.722973 1_555
Ga14 K7 3.560629 1_455
Ga15 Sb16 2.682186 1_455
Ga15 Sb8 2.693044 1_555
Ga15 Sb24 2.694573 1_555
Ga15 Sb21 2.722973 1_555
Ga15 K6 3.560629 1_545
Sb0 Sb11 2.804103 1_555
Sb1 Sb10 2.804103 1_555
Sb2 Sb9 2.804103 1_555
Sb3 Sb8 2.804103 1_555
Sb12 Sb17 2.846434 1_555
Sb13 Sb16 2.846434 1_555
Sb14 Sb19 2.846434 1_555
Sb15 Sb18 2.846434 1_555
Sb20 Sb4 2.841740 1_555
Sb21 Sb5 2.841740 1_555
Sb22 Sb6 2.841740 1_555
Sb23 Sb7 2.841740 1_555
Sb24 Sb29 2.859004 1_445
Sb25 Sb28 2.859004 1_445
Sb26 Sb31 2.859004 1_555
Sb27 Sb30 2.859004 1_555
