# generated using pymatgen
data_MgFe6(OF)6
_symmetry_space_group_name_H-M   'P 1'
_cell_length_a   14.27972616
_cell_length_b   5.12824428
_cell_length_c   3.11572113
_cell_angle_alpha   89.94098496
_cell_angle_beta   90.29968221
_cell_angle_gamma   87.54908035
_symmetry_Int_Tables_number   1
_chemical_formula_structural   MgFe6(OF)6
_chemical_formula_sum   'Mg1 Fe6 O6 F6'
_cell_volume   227.95200427
_cell_formula_units_Z   1
loop_
 _symmetry_equiv_pos_site_id
 _symmetry_equiv_pos_as_xyz
  1  'x, y, z'
loop_
 _atom_site_type_symbol
 _atom_site_label
 _atom_site_symmetry_multiplicity
 _atom_site_fract_x
 _atom_site_fract_y
 _atom_site_fract_z
 _atom_site_occupancy
  Mg  Mg0  1  0.18150100  0.93310500  0.48093400  1
  Fe  Fe0  1  0.99327200  0.95322000  0.98968000  1
  Fe  Fe1  1  0.12681900  0.43280600  0.50070100  1
  Fe  Fe2  1  0.38151700  0.03813500  0.97718500  1
  Fe  Fe3  1  0.51469900  0.60035500  0.48440000  1
  Fe  Fe4  1  0.67561800  0.00828200  0.98879900  1
  Fe  Fe5  1  0.80276500  0.50480100  0.49208100  1
  O  O0  1  0.05162600  0.76574800  0.49059700  1
  O  O1  1  0.10700800  0.17184900  0.99826500  1
  O  O2  1  0.40263900  0.82090800  0.47775300  1
  O  O3  1  0.57597600  0.74559800  0.98566200  1
  O  O4  1  0.73777600  0.83884000  0.49019900  1
  O  O5  1  0.76284100  0.32027700  0.99128200  1
  F  F0  1  0.21112500  0.69707400  0.98384800  1
  F  F1  1  0.26774500  0.21659300  0.50633200  1
  F  F2  1  0.45273800  0.37803600  0.98639700  1
  F  F3  1  0.60353800  0.22496100  0.48800900  1
  F  F4  1  0.89477300  0.66969300  0.98918300  1
  F  F5  1  0.93195200  0.16583200  0.49036200  1
loop_
_geom_bond_atom_site_label_1
_geom_bond_atom_site_label_2
_geom_bond_distance
_geom_bond_site_symmetry_2
Mg0 O0 2.076926 1_555
Mg0 O1 2.181795 1_564
Mg0 O1 2.266991 1_565
Fe0 O0 1.992304 1_656
Fe0 O0 1.996197 1_655
Fe0 O1 2.012679 1_665
Fe1 O0 1.977847 1_555
Fe1 O1 2.075326 1_555
Fe1 O1 2.086539 1_554
Fe2 O2 1.930586 1_546
Fe2 O2 1.932127 1_545
Fe3 O2 1.919664 1_555
Fe3 O3 1.950057 1_554
Fe3 O3 1.950253 1_555
Fe4 O4 1.974883 1_546
Fe4 O4 1.976737 1_545
Fe4 O3 2.000785 1_545
Fe4 O5 2.069228 1_555
Fe5 O4 1.913036 1_555
Fe5 O5 1.921467 1_555
Fe5 O5 1.922249 1_554
F0 Mg0 2.002429 1_556
F0 Mg0 2.011154 1_555
F0 Fe1 2.382606 1_555
F0 Fe1 2.456534 1_556
F1 Mg0 1.946490 1_545
F1 Fe1 2.255698 1_555
F1 Fe2 2.339732 1_555
F1 Fe2 2.469630 1_554
F2 Fe2 2.055467 1_555
F2 Fe3 2.136780 1_556
F2 Fe3 2.150842 1_555
F3 Fe4 2.147222 1_555
F3 Fe4 2.153115 1_554
F3 Fe3 2.259746 1_555
F4 Fe0 2.065757 1_555
F4 Fe5 2.217332 1_555
F4 Fe5 2.238352 1_556
F5 Fe0 2.067960 1_545
F5 Fe0 2.079720 1_544
F5 Fe5 2.480070 1_555
