# generated using pymatgen
data_SbCl4F
_symmetry_space_group_name_H-M   'P 1'
_cell_length_a   10.06789933
_cell_length_b   10.06874623
_cell_length_c   10.07252722
_cell_angle_alpha   99.00528262
_cell_angle_beta   98.97335864
_cell_angle_gamma   133.41444271
_symmetry_Int_Tables_number   1
_chemical_formula_structural   SbCl4F
_chemical_formula_sum   'Sb4 Cl16 F4'
_cell_volume   681.34266879
_cell_formula_units_Z   4
loop_
 _symmetry_equiv_pos_site_id
 _symmetry_equiv_pos_as_xyz
  1  'x, y, z'
loop_
 _atom_site_type_symbol
 _atom_site_label
 _atom_site_symmetry_multiplicity
 _atom_site_fract_x
 _atom_site_fract_y
 _atom_site_fract_z
 _atom_site_occupancy
  Sb  Sb0  1  0.19439268  0.02012551  0.26666741  1
  Sb  Sb1  1  0.97990768  0.24660240  0.17424768  1
  Sb  Sb2  1  0.07227858  0.80559641  0.82563683  1
  Sb  Sb3  1  0.75350865  0.92780963  0.73342649  1
  Cl  Cl0  1  0.48425393  0.30408961  0.26043567  1
  Cl  Cl1  1  0.04373938  0.22391382  0.73942963  1
  Cl  Cl2  1  0.77626729  0.51570337  0.81981749  1
  Cl  Cl3  1  0.69582006  0.95638084  0.18014654  1
  Cl  Cl4  1  0.65701749  0.75219635  0.49752060  1
  Cl  Cl5  1  0.24779665  0.74520638  0.90480991  1
  Cl  Cl6  1  0.84021664  0.34299027  0.09511713  1
  Cl  Cl7  1  0.25499615  0.15981200  0.50270138  1
  Cl  Cl8  1  0.11668898  0.41583875  0.42037319  1
  Cl  Cl9  1  0.58398896  0.00460916  0.70099979  1
  Cl  Cl10  1  0.30388974  0.88323084  0.29895837  1
  Cl  Cl11  1  0.99541861  0.69625311  0.57942237  1
  Cl  Cl12  1  0.52234882  0.65555531  0.78941686  1
  Cl  Cl13  1  0.34444651  0.13376265  0.86686252  1
  Cl  Cl14  1  0.26716404  0.47770063  0.13324294  1
  Cl  Cl15  1  0.86627324  0.73303207  0.21068104  1
  F  F0  1  0.92537813  0.88369454  0.80004636  1
  F  F1  1  0.08366611  0.12539934  0.19989091  1
  F  F2  1  0.87437810  0.07429352  0.95841045  1
  F  F3  1  0.11616159  0.91620547  0.04173642  1
loop_
_geom_bond_atom_site_label_1
_geom_bond_atom_site_label_2
_geom_bond_distance
_geom_bond_site_symmetry_2
Cl0 Sb0 2.310738 1_555
Cl1 Sb3 2.311802 1_445
Cl2 Sb2 2.310822 1_655
Cl3 Sb1 2.311331 1_565
Cl4 Sb3 2.306504 1_555
Cl5 Sb2 2.305960 1_555
Cl6 Sb1 2.307317 1_555
Cl7 Sb0 2.307351 1_555
Cl8 Sb1 2.309345 1_455
Cl9 Sb3 2.310132 1_545
Cl10 Sb0 2.310428 1_565
Cl11 Sb2 2.310168 1_655
Cl12 Sb3 2.317991 1_555
Cl13 Sb2 2.317128 1_545
Cl14 Sb1 2.317869 1_455
Cl15 Sb0 2.317247 1_665
F0 Sb2 2.101257 1_655
F0 Sb3 2.104592 1_555
F1 Sb1 2.100966 1_455
F1 Sb0 2.105278 1_555
F2 Sb3 2.101910 1_545
F2 Sb1 2.104806 1_556
F3 Sb0 2.101584 1_565
F3 Sb2 2.106702 1_554
