# generated using pymatgen
data_Na7Zr3Nb(SiO4)6
_symmetry_space_group_name_H-M   'P 1'
_cell_length_a   9.23244716
_cell_length_b   9.22798211
_cell_length_c   22.88864840
_cell_angle_alpha   90.03891154
_cell_angle_beta   89.93889438
_cell_angle_gamma   120.04432408
_symmetry_Int_Tables_number   1
_chemical_formula_structural   Na7Zr3Nb(SiO4)6
_chemical_formula_sum   'Na21 Zr9 Nb3 Si18 O72'
_cell_volume   1688.02920155
_cell_formula_units_Z   3
loop_
 _symmetry_equiv_pos_site_id
 _symmetry_equiv_pos_as_xyz
  1  'x, y, z'
loop_
 _atom_site_type_symbol
 _atom_site_label
 _atom_site_symmetry_multiplicity
 _atom_site_fract_x
 _atom_site_fract_y
 _atom_site_fract_z
 _atom_site_occupancy
  Na  Na0  1  0.37210831  0.36674589  0.24906572  1
  Na  Na1  1  0.63836110  0.63494217  0.74982624  1
  Na  Na2  1  0.99659994  0.36300636  0.74962697  1
  Na  Na3  1  0.36531719  0.00287485  0.74961829  1
  Na  Na4  1  0.29970362  0.33340305  0.58269088  1
  Na  Na5  1  0.03360910  0.70002877  0.58257911  1
  Na  Na6  1  0.66642698  0.96624971  0.58257722  1
  Na  Na7  1  0.30658519  0.97013201  0.08353179  1
  Na  Na8  1  0.66357812  0.69501759  0.08355529  1
  Na  Na9  1  0.03054862  0.33614958  0.08291382  1
  Na  Na10  1  0.96182480  0.66565747  0.91817131  1
  Na  Na11  1  0.70574024  0.03603087  0.91838061  1
  Na  Na12  1  0.96584219  0.29684823  0.41474156  1
  Na  Na13  1  0.33136629  0.03578612  0.41515892  1
  Na  Na14  1  0.70267879  0.66762875  0.41451946  1
  Na  Na15  1  0.00036013  0.00032061  0.49882809  1
  Na  Na16  1  0.01023112  0.00994179  0.99824357  1
  Na  Na17  1  0.65800450  0.33281222  0.83643512  1
  Na  Na18  1  0.67585930  0.33319907  0.32829573  1
  Na  Na19  1  0.33267823  0.67478471  0.16816578  1
  Na  Na20  1  0.33319339  0.66681741  0.66492169  1
  Zr  Zr0  1  0.99821223  0.99879619  0.35012007  1
  Zr  Zr1  1  0.00567423  0.00518514  0.85305616  1
  Zr  Zr2  1  0.00022738  0.00020771  0.64918488  1
  Zr  Zr3  1  0.66712969  0.33355651  0.68470053  1
  Zr  Zr4  1  0.67229745  0.33284831  0.18722952  1
  Zr  Zr5  1  0.66052587  0.33271456  0.98065910  1
  Zr  Zr6  1  0.66645291  0.33343815  0.47979305  1
  Zr  Zr7  1  0.33312109  0.66448579  0.01876552  1
  Zr  Zr8  1  0.33314820  0.66643807  0.51776819  1
  Nb  Nb0  1  0.99840583  0.99819980  0.15019748  1
  Nb  Nb1  1  0.33339766  0.67108005  0.31070215  1
  Nb  Nb2  1  0.33378801  0.66547606  0.81616358  1
  Si  Si0  1  0.29159321  0.99674445  0.25057054  1
  Si  Si1  1  0.70419719  0.70670378  0.25106021  1
  Si  Si2  1  0.00106991  0.29493620  0.25126085  1
  Si  Si3  1  0.29485026  0.29743772  0.74966215  1
  Si  Si4  1  0.00262204  0.70576749  0.75129852  1
  Si  Si5  1  0.70293354  0.99734558  0.75107777  1
  Si  Si6  1  0.96084531  0.33248951  0.58300276  1
  Si  Si7  1  0.37178623  0.03892655  0.58314494  1
  Si  Si8  1  0.66719307  0.62819594  0.58310970  1
  Si  Si9  1  0.95906460  0.62918992  0.08285347  1
  Si  Si10  1  0.66984475  0.04166166  0.08289241  1
  Si  Si11  1  0.37103591  0.32987276  0.08586100  1
  Si  Si12  1  0.62533419  0.66448746  0.91653415  1
  Si  Si13  1  0.04012283  0.37312306  0.91727224  1
  Si  Si14  1  0.33385568  0.95918231  0.91693423  1
  Si  Si15  1  0.62350797  0.95642621  0.41585527  1
  Si  Si16  1  0.33298301  0.37641346  0.41491281  1
  Si  Si17  1  0.04365285  0.66674174  0.41562884  1
  O  O0  1  0.20608134  0.02658924  0.30831178  1
  O  O1  1  0.81499098  0.79307617  0.30923992  1
  O  O2  1  0.98009261  0.18522472  0.30961509  1
  O  O3  1  0.20242243  0.17017251  0.80371354  1
  O  O4  1  0.96824445  0.79218246  0.80757697  1
  O  O5  1  0.82313144  0.02994485  0.80729712  1
  O  O6  1  0.78650304  0.96208831  0.69306315  1
  O  O7  1  0.17798853  0.21744384  0.69118237  1
  O  O8  1  0.03828720  0.82486235  0.69329968  1
  O  O9  1  0.80519524  0.82932871  0.19363832  1
  O  O10  1  0.02825870  0.19496445  0.19433650  1
  O  O11  1  0.16883393  0.97409200  0.19321421  1
  O  O12  1  0.87414263  0.36259208  0.64099097  1
  O  O13  1  0.48857836  0.12607703  0.64104551  1
  O  O14  1  0.63753667  0.51135336  0.64099004  1
  O  O15  1  0.86727007  0.50293363  0.13699240  1
  O  O16  1  0.63281922  0.13185720  0.13702495  1
  O  O17  1  0.48821714  0.36581732  0.14283132  1
  O  O18  1  0.45947253  0.29293686  0.02954107  1
  O  O19  1  0.84253593  0.54912767  0.02400998  1
  O  O20  1  0.70775563  0.15837571  0.02389163  1
  O  O21  1  0.46027197  0.15747493  0.52565565  1
  O  O22  1  0.69746713  0.53984051  0.52560352  1
  O  O23  1  0.84227571  0.30266033  0.52562504  1
  O  O24  1  0.53976177  0.69565231  0.97391745  1
  O  O25  1  0.15063643  0.46136557  0.97534641  1
  O  O26  1  0.30567905  0.84402806  0.97455919  1
  O  O27  1  0.54226966  0.84463357  0.47513791  1
  O  O28  1  0.30275861  0.45962687  0.47398677  1
  O  O29  1  0.15570984  0.69789159  0.47491073  1
  O  O30  1  0.14617898  0.64111501  0.36078529  1
  O  O31  1  0.49602728  0.85294253  0.36098853  1
  O  O32  1  0.35892688  0.49904834  0.35852795  1
  O  O33  1  0.14267487  0.49612064  0.85985399  1
  O  O34  1  0.35474119  0.85711668  0.85933875  1
  O  O35  1  0.50537718  0.64728525  0.85885825  1
  O  O36  1  0.02393561  0.83298224  0.41115278  1
  O  O37  1  0.80962927  0.97662529  0.41161041  1
  O  O38  1  0.16673289  0.18915143  0.41167636  1
  O  O39  1  0.01163384  0.18483215  0.91166671  1
  O  O40  1  0.16160900  0.96563977  0.91069107  1
  O  O41  1  0.80829227  0.83427175  0.91044962  1
  O  O42  1  0.97713393  0.16389350  0.58804638  1
  O  O43  1  0.18656465  0.02186032  0.58820856  1
  O  O44  1  0.83571947  0.81336595  0.58825794  1
  O  O45  1  0.97692555  0.81690280  0.09161943  1
  O  O46  1  0.83931923  0.02363142  0.09227888  1
  O  O47  1  0.18218556  0.16041059  0.09192481  1
  O  O48  1  0.68079129  0.16234352  0.74551492  1
  O  O49  1  0.48193877  0.32005001  0.74533562  1
  O  O50  1  0.83759542  0.51857694  0.74544353  1
  O  O51  1  0.67381016  0.51844986  0.24474010  1
  O  O52  1  0.83878992  0.31599710  0.24476756  1
  O  O53  1  0.47021476  0.16738138  0.24371159  1
  O  O54  1  0.64845890  0.50090449  0.91856587  1
  O  O55  1  0.85918645  0.36578429  0.91836162  1
  O  O56  1  0.50975791  0.13666598  0.91886989  1
  O  O57  1  0.63651750  0.14016145  0.41879891  1
  O  O58  1  0.50371888  0.36265055  0.41914911  1
  O  O59  1  0.85976177  0.49593528  0.41885578  1
  O  O60  1  0.34767337  0.49430775  0.07864580  1
  O  O61  1  0.14795235  0.65419063  0.07874968  1
  O  O62  1  0.50588641  0.85267204  0.07823687  1
  O  O63  1  0.35389449  0.85332181  0.57934083  1
  O  O64  1  0.49937818  0.64582998  0.57929148  1
  O  O65  1  0.14652700  0.50038941  0.57920269  1
  O  O66  1  0.30564559  0.82628479  0.25672134  1
  O  O67  1  0.51726514  0.69002178  0.25619245  1
  O  O68  1  0.17969990  0.47504332  0.25586206  1
  O  O69  1  0.31196949  0.48386683  0.75778597  1
  O  O70  1  0.17203857  0.68761383  0.75802613  1
  O  O71  1  0.51520861  0.82763073  0.75755900  1
loop_
_geom_bond_atom_site_label_1
_geom_bond_atom_site_label_2
_geom_bond_distance
_geom_bond_site_symmetry_2
Na0 O51 2.413144 1_555
Na0 O53 2.426538 1_555
Na0 O68 2.440366 1_555
Na0 O67 2.592013 1_555
Na0 O17 2.658062 1_555
Na0 O32 2.815419 1_555
Na1 O49 2.517493 1_555
Na1 O71 2.551354 1_555
Na1 O50 2.554196 1_555
Na1 O69 2.617215 1_555
Na1 O14 2.737495 1_555
Na1 O35 2.807400 1_555
Na1 O6 2.922226 1_555
Na1 O4 2.951164 1_555
Na2 O50 2.517126 1_555
Na2 O69 2.550600 1_655
Na2 O48 2.555979 1_555
Na2 O70 2.602856 1_655
Na2 O12 2.731798 1_555
Na2 O33 2.834992 1_655
Na2 O7 2.939995 1_655
Na2 O5 2.970811 1_555
Na3 O48 2.522962 1_555
Na3 O70 2.546876 1_545
Na3 O49 2.565174 1_555
Na3 O71 2.608666 1_545
Na3 O13 2.732310 1_555
Na3 O34 2.828101 1_545
Na3 O3 2.914880 1_555
Na3 O8 2.918085 1_545
Na4 O43 2.522964 1_555
Na4 O64 2.528748 1_555
Na4 O65 2.561907 1_555
Na4 O42 2.581814 1_455
Na4 O7 2.714368 1_555
Na4 O28 2.742082 1_555
Na5 O44 2.522178 1_455
Na5 O65 2.531706 1_555
Na5 O63 2.561565 1_555
Na5 O43 2.575108 1_565
Na5 O29 2.713047 1_555
Na5 O8 2.774477 1_555
Na6 O42 2.516438 1_565
Na6 O63 2.531132 1_555
Na6 O64 2.561385 1_555
Na6 O44 2.580487 1_555
Na6 O27 2.708306 1_555
Na6 O6 2.770271 1_555
Na7 O61 2.526129 1_555
Na7 O47 2.541173 1_565
Na7 O62 2.563548 1_555
Na7 O45 2.643244 1_455
Na7 O26 2.749872 1_554
Na7 O11 2.821504 1_555
Na7 O18 2.860762 1_565
Na7 O16 2.881406 1_565
Na8 O62 2.524374 1_555
Na8 O45 2.531996 1_555
Na8 O60 2.557486 1_555
Na8 O46 2.634621 1_565
Na8 O24 2.759895 1_554
Na8 O9 2.823898 1_555
Na8 O19 2.935952 1_555
Na8 O17 2.960832 1_555
Na9 O46 2.526175 1_455
Na9 O60 2.536256 1_555
Na9 O61 2.571419 1_555
Na9 O47 2.628104 1_555
Na9 O25 2.709504 1_554
Na9 O10 2.859859 1_555
Na9 O15 2.913754 1_455
Na9 O20 2.916803 1_455
Na10 O55 2.435111 1_555
Na10 O40 2.445756 1_655
Na10 O54 2.505447 1_555
Na10 O41 2.582818 1_555
Na10 O19 2.655138 1_556
Na10 O4 2.776489 1_555
Na11 O56 2.412251 1_555
Na11 O39 2.449724 1_655
Na11 O41 2.481961 1_545
Na11 O55 2.636267 1_555
Na11 O20 2.661312 1_556
Na11 O5 2.774390 1_555
Na12 O59 2.478816 1_555
Na12 O38 2.505578 1_655
Na12 O37 2.559233 1_545
Na12 O57 2.634615 1_555
Na12 O2 2.645715 1_555
Na12 O23 2.792949 1_555
Na13 O57 2.480926 1_555
Na13 O36 2.499662 1_545
Na13 O38 2.544412 1_555
Na13 O58 2.613866 1_555
Na13 O0 2.689512 1_555
Na13 O21 2.781756 1_555
Na14 O58 2.475744 1_555
Na14 O37 2.508147 1_555
Na14 O36 2.568890 1_655
Na14 O59 2.631492 1_555
Na14 O1 2.649239 1_555
Na14 O22 2.793657 1_555
Na15 O38 2.587080 1_555
Na15 O37 2.599070 1_445
Na15 O36 2.605850 1_545
Na15 O42 2.610272 1_455
Na15 O43 2.616289 1_555
Na15 O44 2.617069 1_445
Na16 O39 2.552450 1_555
Na16 O40 2.588682 1_545
Na16 O47 2.615721 1_556
Na16 O41 2.668159 1_445
Na16 O45 2.700167 1_446
Na16 O46 2.707471 1_456
Na17 O54 2.465825 1_555
Na17 O56 2.495607 1_555
Na17 O55 2.549431 1_555
Na17 O49 2.611361 1_555
Na17 O48 2.678727 1_555
Na17 O50 2.678931 1_555
Na18 O52 2.485091 1_555
Na18 O51 2.572388 1_555
Na18 O53 2.605572 1_555
Na18 O59 2.623844 1_555
Na18 O57 2.636615 1_555
Na18 O58 2.710853 1_555
Na19 O66 2.543552 1_555
Na19 O67 2.598171 1_555
Na19 O68 2.610259 1_555
Na19 O61 2.610699 1_555
Na19 O62 2.618722 1_555
Na19 O60 2.686420 1_555
Na20 O63 2.551469 1_555
Na20 O64 2.554138 1_555
Na20 O65 2.555572 1_555
Na20 O71 2.651073 1_555
Na20 O70 2.659030 1_555
Na20 O69 2.660691 1_555
Nb0 O9 1.952907 1_555
Nb0 O11 1.961845 1_655
Nb0 O10 1.972444 1_665
Nb0 O45 2.073943 1_555
Nb0 O46 2.078336 1_565
Nb0 O47 2.086435 1_665
Nb1 O31 1.968122 1_555
Nb1 O30 1.973783 1_555
Nb1 O66 2.003506 1_555
Nb1 O32 2.037549 1_555
Nb1 O67 2.041450 1_555
Nb1 O68 2.071707 1_555
Nb2 O35 1.939744 1_555
Nb2 O33 1.947520 1_555
Nb2 O34 1.948566 1_555
Nb2 O69 2.072210 1_555
Nb2 O71 2.081372 1_555
Nb2 O70 2.086294 1_555
O0 Si0 1.631199 1_545
O0 Zr0 2.041605 1_445
O1 Si1 1.624802 1_555
O1 Zr0 2.031307 1_555
O2 Si2 1.628312 1_655
O2 Zr0 2.034164 1_545
O3 Si3 1.623020 1_555
O3 Zr1 2.030211 1_555
O4 Si4 1.626993 1_655
O4 Zr1 2.093888 1_665
O5 Si5 1.626663 1_545
O5 Zr1 2.092638 1_655
O6 Si5 1.647116 1_555
O6 Zr2 2.080173 1_665
O7 Si3 1.644645 1_555
O7 Zr2 2.083858 1_555
O8 Si4 1.648399 1_555
O8 Zr2 2.081712 1_565
O9 Si1 1.679346 1_555
O10 Si2 1.685599 1_555
O11 Si0 1.678468 1_555
O12 Si6 1.643007 1_555
O12 Zr3 2.051591 1_555
O13 Si7 1.642878 1_555
O13 Zr3 2.054778 1_555
O14 Si8 1.642615 1_555
O14 Zr3 2.054067 1_555
O15 Si9 1.619322 1_555
O15 Zr4 2.048138 1_555
O16 Si10 1.620920 1_555
O16 Zr4 2.052914 1_555
O17 Si11 1.619846 1_555
O17 Zr4 2.129658 1_555
O18 Si11 1.649362 1_555
O18 Zr5 2.036157 1_554
O19 Si9 1.650186 1_555
O19 Zr5 2.106428 1_554
O20 Si10 1.652184 1_555
O20 Zr5 2.112598 1_554
O21 Si7 1.643282 1_555
O21 Zr6 2.065209 1_555
O22 Si8 1.643577 1_555
O22 Zr6 2.064228 1_555
O23 Si6 1.643079 1_555
O23 Zr6 2.069263 1_555
O24 Si12 1.629954 1_555
O24 Zr7 2.054979 1_556
O25 Si13 1.624951 1_555
O25 Zr7 2.044100 1_556
O26 Si14 1.631225 1_555
O26 Zr7 2.063045 1_556
O27 Si15 1.641009 1_555
O27 Zr8 2.050071 1_555
O28 Si16 1.645633 1_555
O28 Zr8 2.046199 1_555
O29 Si17 1.642788 1_555
O29 Zr8 2.051857 1_555
O30 Si17 1.657977 1_555
O31 Si15 1.658414 1_555
O32 Si16 1.653339 1_555
O33 Si13 1.683802 1_555
O34 Si14 1.685758 1_555
O35 Si12 1.679663 1_555
O36 Si17 1.636115 1_555
O36 Zr0 2.171789 1_455
O37 Si15 1.635809 1_555
O37 Zr0 2.166232 1_555
O38 Si16 1.640637 1_555
O38 Zr0 2.180842 1_445
O39 Si13 1.626914 1_555
O39 Zr1 2.111096 1_555
O40 Si14 1.627353 1_555
O40 Zr1 2.115848 1_565
O41 Si12 1.636193 1_555
O41 Zr1 2.157263 1_665
O42 Si6 1.640433 1_555
O42 Zr2 2.147390 1_655
O43 Si7 1.640863 1_555
O43 Zr2 2.144402 1_555
O44 Si8 1.640870 1_555
O44 Zr2 2.145539 1_665
O45 Si9 1.667806 1_555
O46 Si10 1.668371 1_555
O47 Si11 1.665610 1_555
O48 Si5 1.639605 1_545
O48 Zr3 2.156991 1_555
O49 Si3 1.635731 1_555
O49 Zr3 2.155635 1_555
O50 Si4 1.639493 1_655
O50 Zr3 2.153082 1_555
O51 Si1 1.621492 1_555
O51 Zr4 2.153928 1_555
O52 Si2 1.611420 1_655
O52 Zr4 2.089332 1_555
O53 Si0 1.619645 1_545
O53 Zr4 2.151427 1_555
O54 Si12 1.627664 1_555
O54 Zr5 2.148873 1_555
O55 Si13 1.637792 1_655
O55 Zr5 2.219209 1_555
O56 Si14 1.630482 1_545
O56 Zr5 2.165591 1_555
O57 Si15 1.640014 1_545
O57 Zr6 2.170326 1_555
O58 Si16 1.646540 1_555
O58 Zr6 2.160368 1_555
O59 Si17 1.640900 1_655
O59 Zr6 2.167230 1_555
O60 Si11 1.644524 1_555
O60 Zr7 2.139458 1_555
O61 Si9 1.643179 1_455
O61 Zr7 2.156194 1_555
O62 Si10 1.643434 1_565
O62 Zr7 2.154201 1_555
O63 Si7 1.638576 1_565
O63 Zr8 2.159508 1_555
O64 Si8 1.639312 1_555
O64 Zr8 2.161413 1_555
O65 Si6 1.639257 1_455
O65 Zr8 2.155909 1_555
O66 Si0 1.647928 1_555
O67 Si1 1.658186 1_555
O68 Si2 1.657925 1_555
O69 Si3 1.657277 1_555
O70 Si4 1.661686 1_555
O71 Si5 1.661441 1_555
