# generated using pymatgen
data_Na21Ca8Nb4Si3(P5O24)3
_symmetry_space_group_name_H-M   'P 1'
_cell_length_a   9.34774455
_cell_length_b   9.36933522
_cell_length_c   22.61367605
_cell_angle_alpha   90.00792248
_cell_angle_beta   90.03885592
_cell_angle_gamma   120.15247457
_symmetry_Int_Tables_number   1
_chemical_formula_structural   Na21Ca8Nb4Si3(P5O24)3
_chemical_formula_sum   'Na21 Ca8 Nb4 Si3 P15 O72'
_cell_volume   1712.56840380
_cell_formula_units_Z   1
loop_
 _symmetry_equiv_pos_site_id
 _symmetry_equiv_pos_as_xyz
  1  'x, y, z'
loop_
 _atom_site_type_symbol
 _atom_site_label
 _atom_site_symmetry_multiplicity
 _atom_site_fract_x
 _atom_site_fract_y
 _atom_site_fract_z
 _atom_site_occupancy
  Na  Na0  1  0.66221117  0.01025067  0.24249057  1
  Na  Na1  1  0.98787518  0.64071858  0.24241633  1
  Na  Na2  1  0.65457862  0.64562057  0.74733215  1
  Na  Na3  1  0.98702963  0.34121692  0.74780474  1
  Na  Na4  1  0.35456042  0.00828796  0.74766395  1
  Na  Na5  1  0.29586923  0.33757029  0.58331969  1
  Na  Na6  1  0.04586765  0.70745588  0.57797825  1
  Na  Na7  1  0.66046019  0.95235059  0.57934438  1
  Na  Na8  1  0.29431728  0.95617672  0.08135720  1
  Na  Na9  1  0.66386406  0.70309225  0.08121067  1
  Na  Na10  1  0.04447056  0.34125608  0.07798947  1
  Na  Na11  1  0.97991141  0.68004423  0.91335060  1
  Na  Na12  1  0.98027931  0.29755563  0.40709632  1
  Na  Na13  1  0.31085915  0.01454207  0.41082067  1
  Na  Na14  1  0.70895536  0.69441905  0.41049509  1
  Na  Na15  1  0.99023755  0.99084115  0.49587555  1
  Na  Na16  1  0.00124969  0.02777925  0.99356565  1
  Na  Na17  1  0.65375764  0.31931627  0.83381207  1
  Na  Na18  1  0.65098599  0.33444766  0.32373416  1
  Na  Na19  1  0.33236782  0.64559328  0.16343297  1
  Na  Na20  1  0.33679356  0.67019022  0.66400401  1
  Ca  Ca0  1  0.00427060  0.00443300  0.34504242  1
  Ca  Ca1  1  0.99897588  0.00765111  0.85134727  1
  Ca  Ca2  1  0.99867836  0.99985184  0.65157252  1
  Ca  Ca3  1  0.00509501  0.00734227  0.15101533  1
  Ca  Ca4  1  0.66768404  0.33362510  0.68432085  1
  Ca  Ca5  1  0.65951565  0.33211374  0.18482084  1
  Ca  Ca6  1  0.33533790  0.66463080  0.01276119  1
  Ca  Ca7  1  0.33460452  0.66793476  0.51386528  1
  Nb  Nb0  1  0.66494985  0.32959823  0.97872582  1
  Nb  Nb1  1  0.66995489  0.33271544  0.47909967  1
  Nb  Nb2  1  0.33181193  0.66738734  0.31975508  1
  Nb  Nb3  1  0.33228292  0.66256341  0.82370082  1
  Si  Si0  1  0.02216090  0.36317307  0.92355231  1
  Si  Si1  1  0.63350747  0.97119697  0.42092578  1
  Si  Si2  1  0.02949917  0.66344359  0.42132798  1
  P  P0  1  0.30794616  0.98763173  0.25397506  1
  P  P1  1  0.68471635  0.69616592  0.25344166  1
  P  P2  1  0.00863514  0.31801364  0.25240143  1
  P  P3  1  0.30465921  0.31562426  0.74997379  1
  P  P4  1  0.01316225  0.69566436  0.75323215  1
  P  P5  1  0.68283671  0.98682227  0.74911895  1
  P  P6  1  0.95901029  0.32762718  0.58261941  1
  P  P7  1  0.36997332  0.04172285  0.58279582  1
  P  P8  1  0.67039413  0.62757166  0.58244731  1
  P  P9  1  0.95739402  0.62903791  0.08234023  1
  P  P10  1  0.67065422  0.04280690  0.08266763  1
  P  P11  1  0.37321090  0.33073461  0.08009503  1
  P  P12  1  0.63076110  0.65371484  0.92009237  1
  P  P13  1  0.34236544  0.96913394  0.91981287  1
  P  P14  1  0.34280387  0.37301295  0.42003517  1
  O  O0  1  0.22834864  0.00433608  0.31026743  1
  O  O1  1  0.78805667  0.78264114  0.30835762  1
  O  O2  1  0.98393549  0.21208128  0.30710727  1
  O  O3  1  0.21264742  0.19029704  0.79810839  1
  O  O4  1  0.98567867  0.77833277  0.80649238  1
  O  O5  1  0.80834007  0.01831386  0.79718353  1
  O  O6  1  0.74083848  0.95104293  0.68917177  1
  O  O7  1  0.20854839  0.26130585  0.69038153  1
  O  O8  1  0.04634804  0.79899812  0.69589966  1
  O  O9  1  0.75460748  0.80508073  0.19727116  1
  O  O10  1  0.02985152  0.24225131  0.19506531  1
  O  O11  1  0.20088611  0.95690847  0.19820595  1
  O  O12  1  0.87972932  0.33875570  0.63959727  1
  O  O13  1  0.45761292  0.12234787  0.64038863  1
  O  O14  1  0.66443325  0.54093892  0.64001648  1
  O  O15  1  0.87897132  0.53566803  0.13943727  1
  O  O16  1  0.65788214  0.11939777  0.14037610  1
  O  O17  1  0.47029421  0.34480406  0.13535189  1
  O  O18  1  0.48226706  0.32713998  0.02512959  1
  O  O19  1  0.84135790  0.51701522  0.02743486  1
  O  O20  1  0.67071894  0.15999619  0.02897991  1
  O  O21  1  0.48224178  0.15604354  0.52842036  1
  O  O22  1  0.67178252  0.51501949  0.52796907  1
  O  O23  1  0.84327917  0.32622445  0.52777365  1
  O  O24  1  0.56575743  0.67891076  0.97814003  1
  O  O25  1  0.11131291  0.44708531  0.98384211  1
  O  O26  1  0.32192545  0.87906576  0.97775780  1
  O  O27  1  0.56768722  0.86852876  0.48070864  1
  O  O28  1  0.31158176  0.43314192  0.47841308  1
  O  O29  1  0.12702561  0.68943834  0.48170680  1
  O  O30  1  0.13900958  0.63551861  0.36643575  1
  O  O31  1  0.49643330  0.85826262  0.36594438  1
  O  O32  1  0.36307507  0.49892797  0.36932095  1
  O  O33  1  0.14436784  0.50544093  0.86805037  1
  O  O34  1  0.36532185  0.86429083  0.86723307  1
  O  O35  1  0.50748009  0.64119348  0.86746455  1
  O  O36  1  0.99705671  0.81434956  0.41073082  1
  O  O37  1  0.82029673  0.01393441  0.40950179  1
  O  O38  1  0.20151698  0.19784796  0.40807957  1
  O  O39  1  0.99220232  0.18352647  0.91317495  1
  O  O40  1  0.18832073  0.97962354  0.90728723  1
  O  O41  1  0.80691069  0.79046549  0.90810615  1
  O  O42  1  0.96003730  0.16387939  0.57607121  1
  O  O43  1  0.20183364  0.03589874  0.57648550  1
  O  O44  1  0.83280253  0.79541478  0.57592420  1
  O  O45  1  0.95830922  0.79454308  0.07769367  1
  O  O46  1  0.83526484  0.04266026  0.07670954  1
  O  O47  1  0.20536549  0.16694126  0.07623884  1
  O  O48  1  0.64856810  0.13246256  0.74846731  1
  O  O49  1  0.48546637  0.35259779  0.74832866  1
  O  O50  1  0.86862070  0.51544988  0.74941652  1
  O  O51  1  0.66989178  0.52585936  0.24946103  1
  O  O52  1  0.86186731  0.35103003  0.25065924  1
  O  O53  1  0.48986825  0.12620226  0.25073122  1
  O  O54  1  0.63119151  0.48481229  0.91923526  1
  O  O55  1  0.84290902  0.36932680  0.92027879  1
  O  O56  1  0.50442271  0.14350613  0.92000960  1
  O  O57  1  0.62740165  0.14962289  0.42314232  1
  O  O58  1  0.51227696  0.37229579  0.42081610  1
  O  O59  1  0.84567193  0.48331822  0.42264282  1
  O  O60  1  0.35118337  0.48340307  0.07774751  1
  O  O61  1  0.13420856  0.65598851  0.07891911  1
  O  O62  1  0.51854875  0.86820457  0.07808952  1
  O  O63  1  0.35135750  0.86845388  0.58011485  1
  O  O64  1  0.51420209  0.64368654  0.57979995  1
  O  O65  1  0.13355516  0.47989968  0.57872774  1
  O  O66  1  0.31420590  0.81824940  0.26035309  1
  O  O67  1  0.50713856  0.67873124  0.26282675  1
  O  O68  1  0.17204808  0.49345491  0.26098007  1
  O  O69  1  0.31599123  0.48978677  0.76416677  1
  O  O70  1  0.17955086  0.68651284  0.76236736  1
  O  O71  1  0.50968121  0.82300857  0.76199984  1
loop_
_geom_bond_atom_site_label_1
_geom_bond_atom_site_label_2
_geom_bond_distance
_geom_bond_site_symmetry_2
Na0 O53 2.359862 1_555
Na0 O16 2.534137 1_555
Na0 O9 2.674974 1_545
Na0 O67 2.727403 1_545
Na0 O52 2.779341 1_555
Na0 O66 2.846882 1_545
Na0 O2 3.005926 1_555
Na1 O52 2.361713 1_555
Na1 O15 2.533310 1_555
Na1 O51 2.608827 1_555
Na1 O66 2.671578 1_655
Na1 O68 2.725693 1_655
Na1 O11 2.796096 1_655
Na2 O49 2.382630 1_555
Na2 O14 2.636328 1_555
Na2 O71 2.639851 1_555
Na2 O69 2.766492 1_555
Na2 O50 2.818557 1_555
Na2 O6 2.872838 1_555
Na2 O4 3.007143 1_555
Na2 O35 3.036505 1_555
Na3 O50 2.388847 1_555
Na3 O12 2.639630 1_555
Na3 O69 2.688610 1_655
Na3 O48 2.760274 1_555
Na3 O70 2.821973 1_655
Na3 O7 2.845257 1_655
Na3 O5 2.848972 1_555
Na4 O48 2.386385 1_555
Na4 O70 2.631012 1_545
Na4 O13 2.631471 1_555
Na4 O71 2.783787 1_545
Na4 O8 2.799164 1_545
Na4 O49 2.817561 1_555
Na4 O3 2.871106 1_555
Na5 O65 2.474605 1_555
Na5 O43 2.507824 1_555
Na5 O28 2.514010 1_555
Na5 O7 2.540789 1_555
Na5 O64 2.552933 1_555
Na5 O42 2.719773 1_455
Na6 O29 2.339741 1_555
Na6 O63 2.470790 1_555
Na6 O44 2.509368 1_455
Na6 O65 2.640728 1_555
Na6 O43 2.662588 1_565
Na6 O8 2.800372 1_555
Na7 O27 2.378389 1_555
Na7 O42 2.490014 1_565
Na7 O64 2.502155 1_555
Na7 O63 2.585588 1_555
Na7 O6 2.596090 1_555
Na7 O44 2.672682 1_555
Na8 O61 2.434040 1_555
Na8 O47 2.500759 1_565
Na8 O26 2.502954 1_554
Na8 O62 2.610383 1_555
Na8 O45 2.717854 1_455
Na8 O11 2.784625 1_555
Na9 O45 2.438707 1_555
Na9 O24 2.472496 1_554
Na9 O62 2.520775 1_555
Na9 O60 2.596479 1_555
Na9 O46 2.752982 1_565
Na9 O9 2.775412 1_555
Na10 O25 2.299192 1_554
Na10 O46 2.481059 1_455
Na10 O60 2.481510 1_555
Na10 O61 2.629576 1_555
Na10 O47 2.720059 1_555
Na10 O10 2.786089 1_555
Na11 O41 2.319524 1_555
Na11 O40 2.489911 1_655
Na11 O55 2.528787 1_555
Na11 O4 2.577041 1_555
Na11 O54 2.828442 1_555
Na11 O33 2.935482 1_655
Na11 O19 2.946949 1_556
Na12 O37 2.304068 1_555
Na12 O2 2.404636 1_555
Na12 O59 2.633744 1_555
Na12 O38 2.662887 1_655
Na12 O57 2.888305 1_555
Na12 O30 2.890735 1_655
Na13 O0 2.387052 1_555
Na13 O38 2.400339 1_555
Na13 O36 2.568135 1_445
Na13 O57 2.582922 1_555
Na13 O58 2.913850 1_555
Na14 O36 2.339942 1_555
Na14 O1 2.439989 1_555
Na14 O37 2.629755 1_565
Na14 O58 2.640047 1_555
Na14 O59 2.856525 1_555
Na15 O44 2.468338 1_555
Na15 O42 2.541001 1_565
Na15 O36 2.559485 1_555
Na15 O43 2.563094 1_665
Na15 O37 2.593580 1_565
Na15 O38 2.786089 1_665
Na16 O39 2.359222 1_455
Na16 O46 2.486599 1_456
Na16 O47 2.516154 1_556
Na16 O45 2.770703 1_446
Na16 O40 2.804493 1_545
Na16 O41 2.813353 1_445
Na17 O56 2.481151 1_555
Na17 O55 2.516334 1_555
Na17 O54 2.551220 1_555
Na17 O48 2.589527 1_555
Na17 O49 2.607243 1_555
Na17 O50 2.711380 1_555
Na18 O51 2.398201 1_555
Na18 O53 2.417472 1_555
Na18 O52 2.517452 1_555
Na18 O58 2.663121 1_555
Na18 O59 2.775566 1_555
Na18 O57 2.778307 1_555
Na19 O60 2.522470 1_555
Na19 O68 2.646329 1_555
Na19 O61 2.696241 1_555
Na19 O67 2.702339 1_555
Na19 O62 2.731807 1_555
Na19 O66 2.779344 1_555
Na20 O63 2.610602 1_555
Na20 O64 2.618311 1_555
Na20 O65 2.664226 1_555
Na20 O71 2.691169 1_555
Na20 O70 2.713267 1_555
Na20 O69 2.774293 1_555
Ca0 O1 2.206650 1_445
Ca0 O2 2.220109 1_455
Ca0 O0 2.238304 1_555
Ca0 O37 2.290716 1_455
Ca0 O36 2.294155 1_445
Ca0 O38 2.314019 1_555
Ca1 O39 2.185977 1_555
Ca1 O5 2.204930 1_555
Ca1 O3 2.222019 1_655
Ca1 O40 2.294755 1_645
Ca1 O41 2.311971 1_545
Ca1 O4 2.321975 1_545
Ca2 O8 2.363711 1_655
Ca2 O6 2.374202 1_555
Ca2 O7 2.406010 1_665
Ca2 O43 2.442093 1_665
Ca2 O42 2.442326 1_565
Ca2 O44 2.451818 1_555
Ca3 O10 2.318917 1_555
Ca3 O11 2.361791 1_545
Ca3 O9 2.390428 1_445
Ca3 O47 2.406824 1_555
Ca3 O46 2.444898 1_455
Ca3 O45 2.457189 1_445
Ca4 O14 2.199404 1_555
Ca4 O13 2.203025 1_555
Ca4 O12 2.204786 1_555
Ca4 O49 2.309866 1_555
Ca4 O48 2.313270 1_555
Ca4 O50 2.319078 1_555
Ca5 O17 2.145421 1_555
Ca5 O16 2.225153 1_555
Ca5 O15 2.229764 1_555
Ca5 O51 2.294236 1_555
Ca5 O53 2.321384 1_555
Ca5 O52 2.342070 1_555
Ca6 O25 2.162702 1_554
Ca6 O26 2.220850 1_554
Ca6 O24 2.232254 1_554
Ca6 O60 2.306037 1_555
Ca6 O62 2.338305 1_555
Ca6 O61 2.372868 1_555
Ca7 O29 2.173808 1_555
Ca7 O27 2.174962 1_555
Ca7 O28 2.247680 1_555
Ca7 O65 2.337832 1_555
Ca7 O64 2.339470 1_555
Ca7 O63 2.345619 1_555
Nb0 O20 1.976358 1_556
Nb0 O18 1.995183 1_556
Nb0 O55 2.008431 1_555
Nb0 O19 2.025837 1_556
Nb0 O56 2.103094 1_555
Nb0 O54 2.117842 1_555
Nb1 O23 1.984147 1_555
Nb1 O59 1.998486 1_555
Nb1 O57 2.003861 1_555
Nb1 O22 2.027118 1_555
Nb1 O21 2.036701 1_555
Nb1 O58 2.143305 1_555
Nb2 O31 1.972287 1_555
Nb2 O30 1.978310 1_555
Nb2 O66 2.015781 1_555
Nb2 O67 2.045120 1_555
Nb2 O68 2.050451 1_555
Nb2 O32 2.072768 1_555
Nb3 O33 1.914038 1_555
Nb3 O35 2.007197 1_555
Nb3 O34 2.012320 1_555
Nb3 O69 2.051255 1_555
Nb3 O70 2.081254 1_555
Nb3 O71 2.110903 1_555
O0 P0 1.522105 1_545
O1 P1 1.530889 1_555
O2 P2 1.529486 1_655
O3 P3 1.513421 1_555
O4 P4 1.522037 1_655
O5 P5 1.514998 1_545
O6 P5 1.558053 1_555
O7 P3 1.555964 1_555
O8 P4 1.553596 1_555
O9 P1 1.553498 1_555
O10 P2 1.538133 1_555
O11 P0 1.543914 1_555
O12 P6 1.516299 1_555
O13 P7 1.521369 1_555
O14 P8 1.520433 1_555
O15 P9 1.525505 1_555
O16 P10 1.522583 1_555
O17 P11 1.510162 1_555
O18 P11 1.619119 1_555
O19 P9 1.635193 1_555
O20 P10 1.636844 1_555
O21 P7 1.622799 1_555
O22 P8 1.625836 1_555
O23 P6 1.640934 1_555
O24 P12 1.514318 1_555
O25 Si0 1.584726 1_555
O26 P13 1.517997 1_555
O27 Si1 1.593250 1_555
O28 P14 1.520141 1_555
O29 Si2 1.590557 1_555
O30 Si2 1.711119 1_555
O31 Si1 1.715440 1_555
O32 P14 1.587140 1_555
O33 Si0 1.769101 1_555
O34 P13 1.623744 1_555
O35 P12 1.618774 1_555
O36 Si2 1.605998 1_655
O37 Si1 1.604387 1_545
O38 P14 1.527328 1_555
O39 Si0 1.578867 1_655
O40 P13 1.518233 1_555
O41 P12 1.519097 1_555
O42 P6 1.546140 1_555
O43 P7 1.551515 1_555
O44 P8 1.549680 1_555
O45 P9 1.549975 1_555
O46 P10 1.545404 1_555
O47 P11 1.550895 1_555
O48 P5 1.550471 1_545
O49 P3 1.545917 1_555
O50 P4 1.546586 1_655
O51 P1 1.533375 1_555
O52 P2 1.551055 1_655
O53 P0 1.537879 1_545
O54 P12 1.584645 1_555
O55 Si0 1.706848 1_655
O56 P13 1.574060 1_545
O57 Si1 1.701850 1_545
O58 P14 1.587663 1_555
O59 Si2 1.699579 1_655
O60 P11 1.545044 1_555
O61 P9 1.543521 1_455
O62 P10 1.539996 1_565
O63 P7 1.544536 1_565
O64 P8 1.542547 1_555
O65 P6 1.538516 1_455
O66 P0 1.623618 1_555
O67 P1 1.598515 1_555
O68 P2 1.596876 1_555
O69 P3 1.613419 1_555
O70 P4 1.613292 1_555
O71 P5 1.601711 1_555
