# generated using pymatgen
data_Co2PH2CO7
_symmetry_space_group_name_H-M   'P 1'
_cell_length_a   4.83200500
_cell_length_b   7.97836400
_cell_length_c   15.54520536
_cell_angle_alpha   65.35415827
_cell_angle_beta   90.00000000
_cell_angle_gamma   90.00000000
_symmetry_Int_Tables_number   1
_chemical_formula_structural   Co2PH2CO7
_chemical_formula_sum   'Co8 P4 H8 C4 O28'
_cell_volume   544.69715330
_cell_formula_units_Z   4
loop_
 _symmetry_equiv_pos_site_id
 _symmetry_equiv_pos_as_xyz
  1  'x, y, z'
loop_
 _atom_site_type_symbol
 _atom_site_label
 _atom_site_symmetry_multiplicity
 _atom_site_fract_x
 _atom_site_fract_y
 _atom_site_fract_z
 _atom_site_occupancy
  Co  Co0  1  0.46963900  0.05903700  0.13955500  1
  Co  Co1  1  0.03036100  0.05903700  0.63955500  1
  Co  Co2  1  0.53036100  0.94096300  0.86044500  1
  Co  Co3  1  0.96963900  0.94096300  0.36044500  1
  Co  Co4  1  0.53904600  0.39079400  0.69532200  1
  Co  Co5  1  0.03904600  0.60920600  0.80467800  1
  Co  Co6  1  0.46095400  0.60920600  0.30467800  1
  Co  Co7  1  0.96095400  0.39079400  0.19532200  1
  P  P0  1  0.97977600  0.19548300  0.80703400  1
  P  P1  1  0.47977600  0.80451700  0.69296600  1
  P  P2  1  0.02022400  0.80451700  0.19296600  1
  P  P3  1  0.52022400  0.19548300  0.30703400  1
  H  H0  1  0.25424100  0.86850400  0.02169400  1
  H  H1  1  0.75424100  0.13149600  0.47830600  1
  H  H2  1  0.74575900  0.13149600  0.97830600  1
  H  H3  1  0.24575900  0.86850400  0.52169400  1
  H  H4  1  0.49199300  0.71805500  0.03143800  1
  H  H5  1  0.99199300  0.28194500  0.46856200  1
  H  H6  1  0.00800700  0.71805500  0.53143800  1
  H  H7  1  0.50800700  0.28194500  0.96856200  1
  C  C0  1  0.38036600  0.43155100  0.50788400  1
  C  C1  1  0.88036600  0.56844900  0.99211600  1
  C  C2  1  0.61963400  0.56844900  0.49211600  1
  C  C3  1  0.11963400  0.43155100  0.00788400  1
  O  O0  1  0.86466700  0.04856900  0.90100900  1
  O  O1  1  0.69984400  0.81065100  0.19607700  1
  O  O2  1  0.80015600  0.81065100  0.69607700  1
  O  O3  1  0.30015600  0.18934900  0.80392300  1
  O  O4  1  0.63533300  0.04856900  0.40100900  1
  O  O5  1  0.13533300  0.95143100  0.09899100  1
  O  O6  1  0.36466700  0.95143100  0.59899100  1
  O  O7  1  0.19984400  0.18934900  0.30392300  1
  O  O8  1  0.66120100  0.15340800  0.22645400  1
  O  O9  1  0.16120100  0.84659200  0.27354600  1
  O  O10  1  0.33879900  0.84659200  0.77354600  1
  O  O11  1  0.83879900  0.15340800  0.72645400  1
  O  O12  1  0.62930600  0.39241300  0.28640300  1
  O  O13  1  0.12930600  0.60758700  0.21359700  1
  O  O14  1  0.26777600  0.42979600  0.43475000  1
  O  O15  1  0.87069400  0.39241300  0.78640300  1
  O  O16  1  0.14825000  0.80276300  0.48788100  1
  O  O17  1  0.64825000  0.19723700  0.01211900  1
  O  O18  1  0.85175000  0.19723700  0.51211900  1
  O  O19  1  0.35175000  0.80276300  0.98788100  1
  O  O20  1  0.18707100  0.33179000  0.09337100  1
  O  O21  1  0.68707100  0.66821000  0.40662900  1
  O  O22  1  0.81292900  0.66821000  0.90662900  1
  O  O23  1  0.31292900  0.33179000  0.59337100  1
  O  O24  1  0.23222400  0.42979600  0.93475000  1
  O  O25  1  0.73222400  0.57020400  0.56525000  1
  O  O26  1  0.76777600  0.57020400  0.06525000  1
  O  O27  1  0.37069400  0.60758700  0.71359700  1
loop_
_geom_bond_atom_site_label_1
_geom_bond_atom_site_label_2
_geom_bond_distance
_geom_bond_site_symmetry_2
Co0 O17 2.015764 1_555
Co0 O8 2.024054 1_555
Co0 O5 2.048317 1_545
Co0 O1 2.117623 1_545
Co0 O20 2.410846 1_555
Co0 O9 2.547193 1_545
Co1 O18 2.015764 1_455
Co1 O11 2.024054 1_455
Co1 O6 2.048317 1_545
Co1 O2 2.117623 1_445
Co1 O23 2.410846 1_555
Co1 O10 2.547193 1_545
Co2 O19 2.015764 1_555
Co2 O10 2.024054 1_555
Co2 O0 2.048317 1_565
Co2 O3 2.117623 1_565
Co2 O22 2.410846 1_555
Co2 O11 2.547193 1_565
Co3 O16 2.015764 1_655
Co3 O9 2.024054 1_655
Co3 O4 2.048317 1_565
Co3 O7 2.117623 1_665
Co3 O21 2.410846 1_555
Co3 O8 2.547193 1_565
Co4 O27 2.035674 1_555
Co4 O3 2.121956 1_555
Co4 O23 2.132925 1_555
Co4 O15 2.142009 1_555
Co4 O25 2.143547 1_555
Co4 O11 2.270397 1_555
Co5 O15 2.035674 1_455
Co5 O2 2.121956 1_455
Co5 O22 2.132925 1_455
Co5 O27 2.142009 1_555
Co5 O24 2.143547 1_555
Co5 O10 2.270397 1_555
Co6 O12 2.035674 1_555
Co6 O1 2.121956 1_555
Co6 O21 2.132925 1_555
Co6 O13 2.142009 1_555
Co6 O14 2.143547 1_555
Co6 O9 2.270397 1_555
Co7 O13 2.035674 1_655
Co7 O7 2.121956 1_655
Co7 O20 2.132925 1_655
Co7 O12 2.142009 1_555
Co7 O26 2.143547 1_555
Co7 O8 2.270397 1_555
H0 O19 1.001660 1_554
H0 O5 1.695509 1_555
H1 O18 1.001660 1_555
H1 O4 1.695509 1_555
H2 O17 1.001660 1_556
H2 O0 1.695509 1_555
H3 O16 1.001660 1_555
H3 O6 1.695509 1_555
H4 O19 0.996384 1_554
H4 O26 1.710679 1_555
H5 O18 0.996384 1_555
H5 O14 1.710679 1_655
H6 O16 0.996384 1_555
H6 O25 1.710679 1_455
H7 O17 0.996384 1_556
H7 O24 1.710679 1_555
C0 O14 1.265682 1_555
C0 O23 1.274182 1_555
C1 O26 1.265682 1_556
C1 O22 1.274182 1_555
C2 O25 1.265682 1_555
C2 O21 1.274182 1_555
C3 O24 1.265682 1_554
C3 O20 1.274182 1_555
O0 P0 1.545727 1_555
O1 P2 1.550243 1_655
O2 P1 1.550243 1_555
O3 P0 1.550243 1_455
O4 P3 1.545727 1_555
O5 P2 1.545727 1_555
O6 P1 1.545727 1_555
O7 P3 1.550243 1_555
O8 P3 1.580035 1_555
O9 P2 1.580035 1_555
O10 P1 1.580035 1_555
O11 P0 1.580035 1_555
O12 P3 1.558532 1_555
O13 P2 1.558532 1_555
O15 P0 1.558532 1_555
O27 P1 1.558532 1_555
