# generated using pymatgen
data_Na4Mg(FeO2)4
_symmetry_space_group_name_H-M   'P 1'
_cell_length_a   5.87973448
_cell_length_b   5.87325169
_cell_length_c   7.03731439
_cell_angle_alpha   91.13165690
_cell_angle_beta   90.76470358
_cell_angle_gamma   90.35873691
_symmetry_Int_Tables_number   1
_chemical_formula_structural   Na4Mg(FeO2)4
_chemical_formula_sum   'Na4 Mg1 Fe4 O8'
_cell_volume   242.94649171
_cell_formula_units_Z   1
loop_
 _symmetry_equiv_pos_site_id
 _symmetry_equiv_pos_as_xyz
  1  'x, y, z'
loop_
 _atom_site_type_symbol
 _atom_site_label
 _atom_site_symmetry_multiplicity
 _atom_site_fract_x
 _atom_site_fract_y
 _atom_site_fract_z
 _atom_site_occupancy
  Na  Na0  1  0.75339400  0.89352500  0.95376500  1
  Na  Na1  1  0.30372500  0.66729900  0.75192000  1
  Na  Na2  1  0.62090800  0.26967500  0.26167700  1
  Na  Na3  1  0.17568200  0.19783300  0.50738600  1
  Mg  Mg0  1  0.98653100  0.54268100  0.12343500  1
  Fe  Fe0  1  0.83644000  0.81471900  0.49368200  1
  Fe  Fe1  1  0.68612600  0.32741200  0.74737500  1
  Fe  Fe2  1  0.36789100  0.70547200  0.27512100  1
  Fe  Fe3  1  0.20240100  0.13971300  0.99752400  1
  O  O0  1  0.15457900  0.79648500  0.47726000  1
  O  O1  1  0.85210700  0.27618600  0.97982700  1
  O  O2  1  0.77798600  0.13396900  0.53820300  1
  O  O3  1  0.24858900  0.37120100  0.22667300  1
  O  O4  1  0.70889500  0.64830000  0.69737500  1
  O  O5  1  0.16549200  0.81084000  0.03403000  1
  O  O6  1  0.71208200  0.69566200  0.25070100  1
  O  O7  1  0.37574200  0.26855000  0.78589600  1
loop_
_geom_bond_atom_site_label_1
_geom_bond_atom_site_label_2
_geom_bond_distance
_geom_bond_site_symmetry_2
Na0 O4 2.297466 1_555
Na0 O1 2.320808 1_565
Na0 O6 2.425278 1_556
Na0 O5 2.532783 1_656
Na1 O0 2.258696 1_555
Na1 O5 2.301800 1_556
Na1 O7 2.398552 1_555
Na1 O4 2.420982 1_555
Na2 O3 2.283925 1_555
Na2 O2 2.301670 1_555
Na2 O1 2.420301 1_554
Na2 O6 2.558308 1_555
Na3 O3 2.284648 1_555
Na3 O7 2.301701 1_555
Na3 O0 2.364892 1_545
Na3 O2 2.379361 1_455
Mg0 O3 1.983630 1_655
Mg0 O1 1.999143 1_554
Mg0 O5 2.004906 1_655
Mg0 O6 2.058725 1_555
Fe0 O0 1.879270 1_655
Fe0 O4 1.909814 1_555
Fe0 O2 1.928675 1_565
Fe0 O6 1.964806 1_555
Fe1 O7 1.879507 1_555
Fe1 O1 1.923387 1_555
Fe1 O2 1.926705 1_555
Fe1 O4 1.928199 1_555
Fe2 O0 1.976950 1_555
Fe2 O6 2.034398 1_555
Fe2 O3 2.100621 1_555
Fe2 O5 2.162075 1_555
Fe3 O5 1.964646 1_546
Fe3 O7 1.976035 1_555
Fe3 O3 2.102326 1_556
Fe3 O1 2.217621 1_455
