# generated using pymatgen
data_Ce2Sb
_symmetry_space_group_name_H-M   'P 1'
_cell_length_a   4.49961386
_cell_length_b   4.49961403
_cell_length_c   9.70356493
_cell_angle_alpha   103.22665997
_cell_angle_beta   103.22666315
_cell_angle_gamma   90.15408568
_symmetry_Int_Tables_number   1
_chemical_formula_structural   Ce2Sb
_chemical_formula_sum   'Ce4 Sb2'
_cell_volume   185.86408034
_cell_formula_units_Z   2
loop_
 _symmetry_equiv_pos_site_id
 _symmetry_equiv_pos_as_xyz
  1  'x, y, z'
loop_
 _atom_site_type_symbol
 _atom_site_label
 _atom_site_symmetry_multiplicity
 _atom_site_fract_x
 _atom_site_fract_y
 _atom_site_fract_z
 _atom_site_occupancy
  Ce  Ce0  1  0.18038426  0.18038426  0.36403722  1
  Ce  Ce1  1  0.81947461  0.81947461  0.63567765  1
  Ce  Ce2  1  0.00006156  0.50006728  0.00012121  1
  Ce  Ce3  1  0.50006728  0.00006156  0.00012121  1
  Sb  Sb0  1  0.63426072  0.63426072  0.27100345  1
  Sb  Sb1  1  0.36575057  0.36575057  0.72903726  1
loop_
_geom_bond_atom_site_label_1
_geom_bond_atom_site_label_2
_geom_bond_distance
_geom_bond_site_symmetry_2
Ce0 Sb0 3.289624 1_555
Ce0 Sb0 3.290787 1_445
Ce0 Sb0 3.298470 1_455
Ce0 Sb0 3.298470 1_545
Ce0 Sb1 3.350868 1_555
Ce1 Sb1 3.290456 1_555
Ce1 Sb1 3.291511 1_665
Ce1 Sb1 3.299245 1_655
Ce1 Sb1 3.299245 1_565
Ce1 Sb0 3.347877 1_555
Ce2 Ce3 3.177426 1_565
Ce2 Ce3 3.177426 1_455
Ce2 Ce3 3.185946 1_465
Ce2 Ce3 3.186019 1_555
Ce2 Sb0 3.352879 1_455
Ce2 Sb0 3.353958 1_555
Ce2 Sb1 3.354216 1_554
Ce2 Sb1 3.355367 1_454
Ce3 Sb0 3.352879 1_545
Ce3 Sb0 3.353958 1_555
Ce3 Sb1 3.354216 1_554
Ce3 Sb1 3.355367 1_544
