# generated using pymatgen
data_NaB15
_symmetry_space_group_name_H-M   'P 1'
_cell_length_a   5.83707986
_cell_length_b   7.25275739
_cell_length_c   7.25275828
_cell_angle_alpha   71.03715631
_cell_angle_beta   66.27143516
_cell_angle_gamma   66.27143865
_symmetry_Int_Tables_number   1
_chemical_formula_structural   NaB15
_chemical_formula_sum   'Na2 B30'
_cell_volume   252.40989634
_cell_formula_units_Z   2
loop_
 _symmetry_equiv_pos_site_id
 _symmetry_equiv_pos_as_xyz
  1  'x, y, z'
loop_
 _atom_site_type_symbol
 _atom_site_label
 _atom_site_symmetry_multiplicity
 _atom_site_fract_x
 _atom_site_fract_y
 _atom_site_fract_z
 _atom_site_occupancy
  Na  Na0  1  0.25000000  0.08826216  0.41173784  1
  Na  Na1  1  0.75000000  0.91173784  0.58826216  1
  B  B0  1  0.25000000  0.49425995  0.00574005  1
  B  B1  1  0.75000000  0.50574005  -0.00574005  1
  B  B2  1  0.10263223  0.74600448  0.04872906  1
  B  B3  1  0.89736777  0.25399552  0.95127094  1
  B  B4  1  0.39736777  0.45127094  0.75399552  1
  B  B5  1  0.60263223  0.54872906  0.24600448  1
  B  B6  1  0.16479315  0.88301129  0.78740441  1
  B  B7  1  0.83520685  0.11698871  0.21259559  1
  B  B8  1  0.33520685  0.71259559  0.61698871  1
  B  B9  1  0.66479315  0.28740441  0.38301129  1
  B  B10  1  0.14517305  0.45834274  0.25131216  1
  B  B11  1  0.85482695  0.54165726  0.74868784  1
  B  B12  1  0.35482595  0.24868784  0.04165726  1
  B  B13  1  0.64517305  0.75131216  0.95834274  1
  B  B14  1  0.20756561  0.11857725  0.78726985  1
  B  B15  1  0.11341171  0.88142275  0.21273015  1
  B  B16  1  0.29243439  0.71273015  0.38142275  1
  B  B17  1  0.38658829  0.28726985  0.61857725  1
  B  B18  1  0.79243439  0.88142275  0.21273015  1
  B  B19  1  0.88658829  0.11857725  0.78726985  1
  B  B20  1  0.70756561  0.28726985  0.61857725  1
  B  B21  1  0.61341171  0.71273015  0.38142275  1
  B  B22  1  0.32883198  0.88279245  0.95422968  1
  B  B23  1  0.16585311  0.11720755  0.04577032  1
  B  B24  1  0.17116802  0.54577032  0.61720755  1
  B  B25  1  0.33414689  0.45422968  0.38279245  1
  B  B26  1  0.67116802  0.11720755  0.04577032  1
  B  B27  1  0.83414689  0.88279245  0.95422968  1
  B  B28  1  0.82883198  0.45422968  0.38279245  1
  B  B29  1  0.66585311  0.54577032  0.61720755  1
loop_
_geom_bond_atom_site_label_1
_geom_bond_atom_site_label_2
_geom_bond_distance
_geom_bond_site_symmetry_2
B0 B12 1.601295 1_555
B0 B10 1.601295 1_555
B0 B2 1.749560 1_555
B0 B4 1.749560 1_554
B1 B13 1.601295 1_554
B1 B11 1.601295 1_554
B1 B3 1.749560 1_554
B1 B5 1.749560 1_555
B2 B27 1.755351 1_454
B2 B22 1.755365 1_554
B2 B6 1.795551 1_554
B3 B7 1.795551 1_556
B4 B8 1.795551 1_555
B5 B9 1.795551 1_555
B6 B8 1.748903 1_555
B6 Na0 2.599269 1_565
B7 B9 1.748903 1_555
B7 Na1 2.599269 1_545
B8 Na0 2.599269 1_565
B9 Na1 2.599269 1_545
B10 B28 1.711299 1_455
B10 B25 1.711299 1_555
B10 B2 2.111329 1_555
B10 B12 2.151598 1_555
B10 Na0 2.480750 1_555
B11 B24 1.711299 1_655
B11 B29 1.711299 1_555
B11 B3 2.111329 1_555
B11 B13 2.151598 1_555
B11 Na1 2.480750 1_555
B12 B23 1.711294 1_555
B12 B26 1.711304 1_555
B12 B4 2.111329 1_554
B12 Na0 2.480751 1_555
B13 B27 1.711299 1_555
B13 B22 1.711299 1_555
B13 B5 2.111329 1_556
B13 Na1 2.480751 1_555
B14 B17 1.764352 1_555
B14 B23 1.787979 1_556
B14 B3 1.803499 1_455
B14 B22 1.805986 1_545
B14 B6 1.823001 1_545
B14 B19 1.873570 1_455
B14 Na0 2.707460 1_555
B14 Na1 2.874945 1_545
B15 B16 1.764352 1_555
B15 B22 1.787983 1_554
B15 B2 1.803502 1_555
B15 B23 1.805986 1_565
B15 B7 1.823004 1_465
B15 B18 1.873570 1_455
B15 Na1 2.707458 1_455
B15 Na0 2.874949 1_565
B16 B25 1.787979 1_555
B16 B5 1.803499 1_555
B16 B24 1.805986 1_555
B16 B8 1.823001 1_555
B16 B21 1.873570 1_555
B16 Na0 2.707460 1_565
B16 Na1 2.874945 1_455
B17 B24 1.787983 1_555
B17 B4 1.803502 1_555
B17 B25 1.805986 1_555
B17 B9 1.823004 1_555
B17 B20 1.873570 1_555
B17 Na1 2.707458 1_545
B17 Na0 2.874949 1_555
B18 B21 1.764352 1_555
B18 B27 1.787979 1_554
B18 B2 1.803499 1_655
B18 B26 1.805986 1_565
B18 B7 1.823001 1_565
B18 Na1 2.707460 1_555
B18 Na0 2.874945 1_565
B19 B20 1.764352 1_555
B19 B26 1.787983 1_556
B19 B3 1.803502 1_555
B19 B27 1.805986 1_545
B19 B6 1.823004 1_645
B19 Na0 2.707458 1_655
B19 Na1 2.874949 1_545
B20 B29 1.787979 1_555
B20 B4 1.803499 1_555
B20 B28 1.805986 1_555
B20 B9 1.823001 1_555
B20 Na1 2.707460 1_545
B20 Na0 2.874945 1_655
B21 B28 1.787983 1_555
B21 B5 1.803502 1_555
B21 B29 1.805986 1_555
B21 B8 1.823004 1_555
B21 Na0 2.707458 1_565
B21 Na1 2.874949 1_555
B22 B23 1.777617 1_566
B22 B6 1.819536 1_555
B22 Na1 2.816838 1_555
B23 B3 1.755351 1_454
B23 B7 1.819540 1_455
B23 Na0 2.816841 1_555
B24 B4 1.755365 1_555
B24 B25 1.777617 1_555
B24 B8 1.819536 1_555
B24 Na1 2.816838 1_455
B25 B5 1.755351 1_555
B25 B9 1.819540 1_555
B25 Na0 2.816841 1_555
B26 B3 1.755365 1_554
B26 B27 1.777617 1_544
B26 B7 1.819536 1_555
B26 Na0 2.816838 1_555
B27 B6 1.819540 1_655
B27 Na1 2.816841 1_555
B28 B5 1.755365 1_555
B28 B29 1.777617 1_555
B28 B9 1.819536 1_555
B28 Na0 2.816838 1_655
B29 B4 1.755351 1_555
B29 B8 1.819540 1_555
B29 Na1 2.816841 1_555
