# generated using pymatgen
data_Na14Sc4Zn4Si5S7O48
_symmetry_space_group_name_H-M   'P 1'
_cell_length_a   18.35020724
_cell_length_b   9.13116684
_cell_length_c   22.49521774
_cell_angle_alpha   90.09737666
_cell_angle_beta   90.74571987
_cell_angle_gamma   119.94097459
_symmetry_Int_Tables_number   1
_chemical_formula_structural   Na14Sc4Zn4Si5S7O48
_chemical_formula_sum   'Na42 Sc12 Zn12 Si15 S21 O144'
_cell_volume   3265.80217584
_cell_formula_units_Z   3
loop_
 _symmetry_equiv_pos_site_id
 _symmetry_equiv_pos_as_xyz
  1  'x, y, z'
loop_
 _atom_site_type_symbol
 _atom_site_label
 _atom_site_symmetry_multiplicity
 _atom_site_fract_x
 _atom_site_fract_y
 _atom_site_fract_z
 _atom_site_occupancy
  Na  Na0  1  0.80919148  0.99546999  0.25050913  1
  Na  Na1  1  0.18423157  0.35420084  0.25167349  1
  Na  Na2  1  0.68313442  0.35870300  0.25154081  1
  Na  Na3  1  0.00183959  0.64489160  0.24678178  1
  Na  Na4  1  0.50678791  0.64373301  0.24402369  1
  Na  Na5  1  0.31779339  0.62346458  0.75235610  1
  Na  Na6  1  0.00623767  0.36861368  0.74405601  1
  Na  Na7  1  0.50115514  0.36943731  0.74646586  1
  Na  Na8  1  0.18589511  0.01249801  0.75073611  1
  Na  Na9  1  0.67535512  0.00112411  0.75075485  1
  Na  Na10  1  0.14811798  0.32630239  0.58272174  1
  Na  Na11  1  0.65126286  0.32248071  0.58296167  1
  Na  Na12  1  0.32975155  0.97573152  0.58863261  1
  Na  Na13  1  0.83365916  0.98533834  0.58466704  1
  Na  Na14  1  0.15499818  0.98381597  0.07778987  1
  Na  Na15  1  0.64670487  0.96745780  0.07893649  1
  Na  Na16  1  0.33490896  0.68360046  0.08147891  1
  Na  Na17  1  0.82759689  0.68261731  0.08407415  1
  Na  Na18  1  0.48450887  0.67637675  0.91711796  1
  Na  Na19  1  0.98779960  0.67638297  0.91532314  1
  Na  Na20  1  0.34617815  0.03685110  0.91252868  1
  Na  Na21  1  0.84391551  0.03045492  0.91336123  1
  Na  Na22  1  0.16865956  0.28408793  0.91496958  1
  Na  Na23  1  0.66412742  0.28239812  0.91477030  1
  Na  Na24  1  0.48872264  0.30102974  0.41847017  1
  Na  Na25  1  0.98494231  0.29727304  0.42737631  1
  Na  Na26  1  0.16756579  0.05042219  0.41991143  1
  Na  Na27  1  0.66836441  0.05335344  0.41870769  1
  Na  Na28  1  0.34656688  0.65707838  0.41737631  1
  Na  Na29  1  0.84370705  0.65329752  0.41663174  1
  Na  Na30  1  0.00858925  0.01206369  0.50409324  1
  Na  Na31  1  0.51075806  0.00482671  0.50162295  1
  Na  Na32  1  0.00962529  0.01619179  0.99664733  1
  Na  Na33  1  0.50869342  0.00507379  0.99939732  1
  Na  Na34  1  0.32936197  0.33332774  0.82950333  1
  Na  Na35  1  0.82215725  0.32992127  0.83176316  1
  Na  Na36  1  0.32480168  0.31650194  0.33322140  1
  Na  Na37  1  0.82139376  0.32479364  0.33565743  1
  Na  Na38  1  0.16884236  0.66910512  0.16492115  1
  Na  Na39  1  0.65594619  0.65031788  0.16389024  1
  Na  Na40  1  0.15815176  0.66214903  0.66671104  1
  Na  Na41  1  0.66188900  0.66645852  0.67013880  1
  Sc  Sc0  1  0.00988736  0.01813394  0.64683948  1
  Sc  Sc1  1  0.51121104  0.00041125  0.65249196  1
  Sc  Sc2  1  0.00992141  0.00812781  0.14878722  1
  Sc  Sc3  1  0.51013098  0.00206348  0.14592096  1
  Sc  Sc4  1  0.82889285  0.32463571  0.68130015  1
  Sc  Sc5  1  0.33015266  0.33261651  0.18047078  1
  Sc  Sc6  1  0.16385735  0.66226610  0.01598292  1
  Sc  Sc7  1  0.65466315  0.65781785  0.02111526  1
  Sc  Sc8  1  0.15606390  0.65301759  0.52331531  1
  Sc  Sc9  1  0.66235441  0.66224789  0.51799109  1
  Sc  Sc10  1  0.17136275  0.67356374  0.31610392  1
  Sc  Sc11  1  0.66576661  0.66967585  0.81272070  1
  Zn  Zn0  1  0.01545670  0.02229701  0.34839730  1
  Zn  Zn1  1  0.51786344  0.03161238  0.34645995  1
  Zn  Zn2  1  0.01572005  0.00162832  0.84605822  1
  Zn  Zn3  1  0.51894841  0.99069868  0.84117630  1
  Zn  Zn4  1  0.32508142  0.33031671  0.68645819  1
  Zn  Zn5  1  0.81428033  0.31046373  0.17968072  1
  Zn  Zn6  1  0.32469410  0.33141327  0.98929634  1
  Zn  Zn7  1  0.81752065  0.30800277  0.98529204  1
  Zn  Zn8  1  0.31862703  0.33139158  0.48895102  1
  Zn  Zn9  1  0.82533306  0.31967752  0.49245000  1
  Zn  Zn10  1  0.66525728  0.66415620  0.31900921  1
  Zn  Zn11  1  0.16815113  0.66988161  0.81725474  1
  Si  Si0  1  0.15133610  0.99881842  0.25092223  1
  Si  Si1  1  0.65131280  0.99458780  0.25244094  1
  Si  Si2  1  0.14926572  0.30686647  0.75316805  1
  Si  Si3  1  0.65209738  0.30336540  0.75092373  1
  Si  Si4  1  0.49563925  0.69397706  0.75163095  1
  Si  Si5  1  0.97729870  0.33223088  0.58294029  1
  Si  Si6  1  0.18810218  0.03872052  0.58394624  1
  Si  Si7  1  0.68238943  0.03051166  0.58092005  1
  Si  Si8  1  0.47728709  0.62144533  0.08294379  1
  Si  Si9  1  0.18317516  0.33669212  0.08249392  1
  Si  Si10  1  0.68617119  0.33981540  0.08323730  1
  Si  Si11  1  0.16824334  0.96240369  0.91590757  1
  Si  Si12  1  0.66827172  0.96409494  0.91707883  1
  Si  Si13  1  0.16719973  0.37225143  0.41579591  1
  Si  Si14  1  0.66842419  0.37447708  0.41504748  1
  S  S0  1  0.35399435  0.71001127  0.25141223  1
  S  S1  1  0.85604505  0.71076330  0.25055064  1
  S  S2  1  0.99837569  0.29405592  0.25077387  1
  S  S3  1  0.49705074  0.29087686  0.25093212  1
  S  S4  1  0.99731680  0.70336368  0.75078613  1
  S  S5  1  0.35445100  0.99842700  0.75052180  1
  S  S6  1  0.85519806  0.99940303  0.75131644  1
  S  S7  1  0.47892036  0.33354986  0.58203819  1
  S  S8  1  0.33572123  0.63466881  0.58232671  1
  S  S9  1  0.83388884  0.62998039  0.58180455  1
  S  S10  1  0.97910200  0.62288837  0.08414690  1
  S  S11  1  0.33383808  0.03738250  0.08214783  1
  S  S12  1  0.83657545  0.03916451  0.08360071  1
  S  S13  1  0.31369099  0.66927348  0.91652210  1
  S  S14  1  0.81512375  0.67007114  0.91759926  1
  S  S15  1  0.01679107  0.37088669  0.91644172  1
  S  S16  1  0.51802570  0.36954323  0.91530710  1
  S  S17  1  0.31566867  0.96089875  0.41746153  1
  S  S18  1  0.81492561  0.95934576  0.41487901  1
  S  S19  1  0.01914096  0.66670045  0.41453794  1
  S  S20  1  0.51703126  0.66353380  0.41585074  1
  O  O0  1  0.10981453  0.03380762  0.30896646  1
  O  O1  1  0.61209702  0.03410333  0.31065740  1
  O  O2  1  0.40420590  0.79136728  0.30592698  1
  O  O3  1  0.90702160  0.79576645  0.30502841  1
  O  O4  1  0.48438988  0.19426162  0.30683113  1
  O  O5  1  0.98253657  0.19063996  0.30508238  1
  O  O6  1  0.10851972  0.19040034  0.81158356  1
  O  O7  1  0.61250451  0.19032457  0.81055807  1
  O  O8  1  0.47190854  0.76298648  0.81151175  1
  O  O9  1  0.98430793  0.77376133  0.80701101  1
  O  O10  1  0.40531660  0.01891941  0.80505276  1
  O  O11  1  0.90597455  0.02056608  0.80576594  1
  O  O12  1  0.39497169  0.97638189  0.69635331  1
  O  O13  1  0.89395767  0.97715491  0.69732822  1
  O  O14  1  0.08773284  0.21595844  0.69427595  1
  O  O15  1  0.59057448  0.21731756  0.69165648  1
  O  O16  1  0.00679950  0.81355770  0.69986256  1
  O  O17  1  0.51595181  0.82750346  0.69732886  1
  O  O18  1  0.39200571  0.80929289  0.19759583  1
  O  O19  1  0.89656242  0.81635275  0.19689744  1
  O  O20  1  0.01160195  0.20852943  0.19910441  1
  O  O21  1  0.50666804  0.20039210  0.19977836  1
  O  O22  1  0.08846207  0.96398952  0.19238313  1
  O  O23  1  0.59069473  0.96509208  0.19387285  1
  O  O24  1  0.44250231  0.35850459  0.63556673  1
  O  O25  1  0.93412266  0.35696907  0.64228966  1
  O  O26  1  0.24993913  0.12358069  0.64167311  1
  O  O27  1  0.74390029  0.11967900  0.63950218  1
  O  O28  1  0.32243818  0.52939474  0.63466450  1
  O  O29  1  0.81881838  0.51700981  0.63285072  1
  O  O30  1  0.43481934  0.51226307  0.14341243  1
  O  O31  1  0.94221412  0.52497713  0.13857865  1
  O  O32  1  0.31853589  0.11972190  0.13393851  1
  O  O33  1  0.82528470  0.11897387  0.13795331  1
  O  O34  1  0.24289552  0.36740902  0.14201299  1
  O  O35  1  0.74594362  0.38542866  0.14322992  1
  O  O36  1  0.21876784  0.28931344  0.02428228  1
  O  O37  1  0.72468043  0.29674800  0.02531880  1
  O  O38  1  0.42011851  0.53826388  0.02323864  1
  O  O39  1  0.92842012  0.54277011  0.02976417  1
  O  O40  1  0.34688438  0.13354602  0.02742623  1
  O  O41  1  0.85164450  0.14334403  0.03000941  1
  O  O42  1  0.22227808  0.14901769  0.52273307  1
  O  O43  1  0.71941889  0.14516202  0.52157114  1
  O  O44  1  0.35077067  0.56235846  0.52718862  1
  O  O45  1  0.84752749  0.56063487  0.52625522  1
  O  O46  1  0.42879734  0.31529599  0.52670698  1
  O  O47  1  0.92267164  0.30489887  0.52164144  1
  O  O48  1  0.26984490  0.68563253  0.97050825  1
  O  O49  1  0.77647452  0.69306037  0.97205557  1
  O  O50  1  0.07464572  0.45490475  0.96870270  1
  O  O51  1  0.57410460  0.45242413  0.96828515  1
  O  O52  1  0.15311735  0.84143618  0.97507283  1
  O  O53  1  0.65752347  0.84720365  0.97537468  1
  O  O54  1  0.27584397  0.85881242  0.47061898  1
  O  O55  1  0.77320080  0.85504820  0.46833662  1
  O  O56  1  0.15514281  0.46867745  0.47280837  1
  O  O57  1  0.65392024  0.46805644  0.47304199  1
  O  O58  1  0.07479913  0.69612360  0.46698706  1
  O  O59  1  0.57482450  0.69488969  0.46767551  1
  O  O60  1  0.06060625  0.64542345  0.36062721  1
  O  O61  1  0.55400937  0.63810697  0.36114819  1
  O  O62  1  0.25878695  0.87894859  0.36446594  1
  O  O63  1  0.76191971  0.88128725  0.36065852  1
  O  O64  1  0.17938603  0.48934396  0.35653149  1
  O  O65  1  0.68252180  0.49080502  0.35594683  1
  O  O66  1  0.05409708  0.47040015  0.86218394  1
  O  O67  1  0.55971421  0.47465651  0.86220053  1
  O  O68  1  0.18150748  0.87122558  0.85763237  1
  O  O69  1  0.68280640  0.87274400  0.85926289  1
  O  O70  1  0.26074104  0.64126017  0.86278336  1
  O  O71  1  0.75895886  0.63916764  0.86546158  1
  O  O72  1  0.00799542  0.81698846  0.41054385  1
  O  O73  1  0.50510267  0.81315962  0.41266840  1
  O  O74  1  0.39803447  0.96932343  0.40992025  1
  O  O75  1  0.89833987  0.96880706  0.41082864  1
  O  O76  1  0.08024441  0.18544839  0.41415100  1
  O  O77  1  0.58031039  0.18737915  0.41456417  1
  O  O78  1  0.00464574  0.19704947  0.91369873  1
  O  O79  1  0.50701833  0.19783725  0.91142344  1
  O  O80  1  0.08027846  0.97351930  0.91500141  1
  O  O81  1  0.58283430  0.98039864  0.91605635  1
  O  O82  1  0.39582387  0.82759442  0.91492828  1
  O  O83  1  0.89850752  0.82743274  0.91119105  1
  O  O84  1  0.48488570  0.17447341  0.58522041  1
  O  O85  1  0.98333439  0.15548803  0.58751854  1
  O  O86  1  0.09447729  0.02154908  0.59080336  1
  O  O87  1  0.59089580  0.02142757  0.58735728  1
  O  O88  1  0.40742442  0.81048419  0.58856567  1
  O  O89  1  0.90556676  0.80217324  0.59126688  1
  O  O90  1  0.48378886  0.81091259  0.08868633  1
  O  O91  1  0.98447736  0.79497751  0.08837426  1
  O  O92  1  0.40528307  0.00850804  0.09224461  1
  O  O93  1  0.90861115  0.00791096  0.09095589  1
  O  O94  1  0.09015963  0.16336324  0.09067386  1
  O  O95  1  0.59369274  0.16774186  0.09051749  1
  O  O96  1  0.34644936  0.15260066  0.74639411  1
  O  O97  1  0.84839776  0.15737595  0.74713129  1
  O  O98  1  0.24129903  0.32087246  0.74764461  1
  O  O99  1  0.74298961  0.30967915  0.74319698  1
  O  O100  1  0.41595879  0.50364060  0.74142492  1
  O  O101  1  0.92419924  0.52956714  0.74472937  1
  O  O102  1  0.34647431  0.53783565  0.24753543  1
  O  O103  1  0.85121105  0.54259474  0.24652815  1
  O  O104  1  0.42395595  0.31835802  0.24518126  1
  O  O105  1  0.92585368  0.32062801  0.24223033  1
  O  O106  1  0.24268128  0.17138423  0.24372191  1
  O  O107  1  0.74642650  0.16424843  0.24710879  1
  O  O108  1  0.32447569  0.51870779  0.92079204  1
  O  O109  1  0.82867861  0.52196586  0.92158693  1
  O  O110  1  0.43555363  0.36017086  0.92048574  1
  O  O111  1  0.93436717  0.36256564  0.92483745  1
  O  O112  1  0.25369153  0.15022273  0.92131384  1
  O  O113  1  0.75564156  0.15170763  0.91827464  1
  O  O114  1  0.32794832  0.13471687  0.42054464  1
  O  O115  1  0.82642397  0.13228227  0.41892337  1
  O  O116  1  0.25391199  0.35863896  0.41777876  1
  O  O117  1  0.75369537  0.35718693  0.42009570  1
  O  O118  1  0.43422469  0.50690958  0.42357357  1
  O  O119  1  0.93621457  0.51151931  0.41870586  1
  O  O120  1  0.17988076  0.51346117  0.07764863  1
  O  O121  1  0.68235500  0.51462164  0.07576470  1
  O  O122  1  0.06763073  0.65583545  0.07961768  1
  O  O123  1  0.57542429  0.66066109  0.08088388  1
  O  O124  1  0.25488602  0.86512120  0.07800722  1
  O  O125  1  0.75845961  0.87040390  0.07778960  1
  O  O126  1  0.18367722  0.85461948  0.57590449  1
  O  O127  1  0.68023474  0.84773917  0.57552460  1
  O  O128  1  0.25732655  0.64703029  0.57527714  1
  O  O129  1  0.75530864  0.64428788  0.57683757  1
  O  O130  1  0.07558913  0.49008874  0.58071030  1
  O  O131  1  0.56778143  0.48033800  0.57709477  1
  O  O132  1  0.15260573  0.81915458  0.25566073  1
  O  O133  1  0.65867735  0.82094192  0.25703893  1
  O  O134  1  0.26597830  0.68137369  0.25463834  1
  O  O135  1  0.77026742  0.68922410  0.25241567  1
  O  O136  1  0.07736614  0.46338012  0.25582888  1
  O  O137  1  0.57562710  0.46026709  0.25380191  1
  O  O138  1  0.15680940  0.49549274  0.75713326  1
  O  O139  1  0.65744823  0.48738188  0.75656028  1
  O  O140  1  0.07586786  0.69231175  0.75364527  1
  O  O141  1  0.58407724  0.68698067  0.75660283  1
  O  O142  1  0.26868750  0.84515629  0.75221503  1
  O  O143  1  0.76829612  0.85245482  0.75442305  1
loop_
_geom_bond_atom_site_label_1
_geom_bond_atom_site_label_2
_geom_bond_distance
_geom_bond_site_symmetry_2
Na0 O107 2.340397 1_565
Na0 O133 2.409845 1_555
Na0 O135 2.517773 1_555
Na0 O105 2.664672 1_565
Na0 O63 2.672286 1_555
Na0 O33 2.732505 1_565
Na1 O106 2.400061 1_555
Na1 O134 2.589003 1_555
Na1 O102 2.590073 1_555
Na1 O136 2.608468 1_555
Na1 O34 2.683134 1_555
Na1 O64 2.683234 1_555
Na1 O0 2.855776 1_555
Na1 O20 2.982222 1_555
Na2 O107 2.563696 1_555
Na2 O137 2.565787 1_555
Na2 O135 2.616772 1_555
Na2 O65 2.641182 1_555
Na2 O35 2.668094 1_555
Na2 O103 2.680455 1_555
Na2 O1 2.907677 1_555
Na2 O21 3.025702 1_555
Na3 O132 2.411646 1_555
Na3 O103 2.436166 1_455
Na3 O105 2.568217 1_455
Na3 O136 2.644993 1_555
Na3 O31 2.654507 1_455
Na3 O60 2.764847 1_555
Na3 O22 2.820191 1_555
Na4 O133 2.438791 1_555
Na4 O137 2.560670 1_555
Na4 O104 2.575187 1_555
Na4 O30 2.576436 1_555
Na4 O102 2.600415 1_555
Na4 O61 2.771431 1_555
Na4 O23 2.792933 1_555
Na5 O98 2.395722 1_555
Na5 O100 2.545681 1_555
Na5 O138 2.581969 1_555
Na5 O142 2.594340 1_555
Na5 O70 2.743951 1_555
Na5 O8 2.773357 1_555
Na5 O28 2.797421 1_555
Na6 O138 2.417719 1_555
Na6 O97 2.557983 1_455
Na6 O101 2.575966 1_455
Na6 O140 2.576100 1_555
Na6 O25 2.604429 1_455
Na6 O14 2.748178 1_555
Na6 O66 2.795086 1_555
Na7 O100 2.422172 1_555
Na7 O139 2.517117 1_555
Na7 O141 2.521758 1_555
Na7 O96 2.523597 1_555
Na7 O24 2.685872 1_555
Na7 O67 2.782801 1_555
Na7 O15 2.909293 1_555
Na8 O98 2.472275 1_555
Na8 O96 2.563558 1_555
Na8 O140 2.596202 1_545
Na8 O142 2.638236 1_545
Na8 O26 2.706053 1_555
Na8 O68 2.713818 1_545
Na9 O99 2.454375 1_555
Na9 O141 2.502409 1_545
Na9 O143 2.658231 1_545
Na9 O69 2.740799 1_545
Na9 O97 2.758620 1_555
Na9 O27 2.783741 1_555
Na9 O17 2.790494 1_545
Na9 O7 2.854129 1_555
Na10 O130 2.448607 1_555
Na10 O86 2.453121 1_555
Na10 O128 2.602460 1_555
Na10 O85 2.624690 1_455
Na10 O14 2.739855 1_555
Na10 O56 2.769849 1_555
Na10 O42 2.921120 1_555
Na10 O28 3.001765 1_555
Na11 O87 2.399531 1_555
Na11 O131 2.577090 1_555
Na11 O129 2.589751 1_555
Na11 O84 2.652493 1_555
Na11 O15 2.674372 1_555
Na11 O57 2.798757 1_555
Na11 O43 2.855110 1_555
Na11 O29 2.884434 1_555
Na12 O126 2.347323 1_555
Na12 O84 2.500482 1_565
Na12 O88 2.540702 1_555
Na12 O128 2.621034 1_555
Na12 O12 2.687311 1_555
Na12 O26 2.721196 1_565
Na12 O54 2.834394 1_555
Na13 O85 2.386857 1_565
Na13 O127 2.449544 1_555
Na13 O89 2.599843 1_555
Na13 O129 2.705259 1_555
Na13 O13 2.768205 1_555
Na13 O27 2.793542 1_565
Na13 O55 2.844395 1_555
Na13 O47 2.917058 1_565
Na14 O94 2.478313 1_565
Na14 O124 2.552898 1_555
Na14 O122 2.598155 1_555
Na14 O52 2.640724 1_554
Na14 O36 2.718333 1_565
Na14 O91 2.730577 1_455
Na14 O22 2.833976 1_555
Na14 O32 2.884377 1_565
Na15 O123 2.429998 1_555
Na15 O95 2.477830 1_565
Na15 O90 2.604065 1_555
Na15 O125 2.609012 1_555
Na15 O53 2.625517 1_554
Na15 O23 2.790867 1_555
Na15 O37 2.881947 1_565
Na16 O90 2.378858 1_555
Na16 O120 2.468876 1_555
Na16 O92 2.587109 1_565
Na16 O124 2.708642 1_555
Na16 O48 2.757188 1_554
Na16 O18 2.820667 1_555
Na16 O38 2.835712 1_555
Na16 O34 2.871951 1_555
Na17 O121 2.323014 1_555
Na17 O91 2.528542 1_555
Na17 O93 2.577082 1_565
Na17 O125 2.595664 1_555
Na17 O49 2.695834 1_554
Na17 O35 2.717595 1_555
Na17 O19 2.810226 1_555
Na18 O81 2.442144 1_555
Na18 O108 2.547512 1_555
Na18 O8 2.548953 1_555
Na18 O110 2.561789 1_555
Na18 O82 2.607418 1_555
Na18 O38 2.698431 1_556
Na19 O80 2.376053 1_655
Na19 O111 2.534030 1_555
Na19 O109 2.536820 1_555
Na19 O9 2.606045 1_555
Na19 O83 2.616901 1_555
Na19 O39 2.838992 1_556
Na19 O52 2.933242 1_655
Na19 O66 2.959892 1_655
Na20 O112 2.398511 1_555
Na20 O82 2.494099 1_545
Na20 O79 2.558071 1_555
Na20 O110 2.568095 1_555
Na20 O10 2.700748 1_555
Na20 O40 2.727652 1_556
Na20 O68 2.877126 1_545
Na21 O113 2.378332 1_555
Na21 O83 2.509460 1_545
Na21 O78 2.556163 1_655
Na21 O111 2.641917 1_555
Na21 O11 2.708671 1_555
Na21 O41 2.793453 1_556
Na21 O69 2.818791 1_545
Na22 O112 2.418240 1_555
Na22 O80 2.466043 1_545
Na22 O6 2.518451 1_555
Na22 O108 2.580093 1_555
Na22 O36 2.606041 1_556
Na22 O78 2.701971 1_555
Na23 O81 2.392829 1_545
Na23 O7 2.498065 1_555
Na23 O113 2.499536 1_555
Na23 O79 2.585638 1_555
Na23 O37 2.686580 1_556
Na23 O109 2.705499 1_555
Na24 O77 2.377774 1_555
Na24 O118 2.535015 1_555
Na24 O114 2.558093 1_555
Na24 O74 2.634124 1_545
Na24 O4 2.678198 1_555
Na24 O46 2.714054 1_555
Na24 O57 2.881703 1_555
Na24 O61 2.990717 1_555
Na25 O47 2.439087 1_555
Na25 O76 2.446324 1_655
Na25 O115 2.525343 1_555
Na25 O119 2.531335 1_555
Na25 O75 2.623480 1_545
Na25 O56 2.877596 1_655
Na25 O5 2.909123 1_555
Na26 O116 2.446359 1_555
Na26 O76 2.464096 1_555
Na26 O42 2.489712 1_555
Na26 O72 2.629446 1_545
Na26 O114 2.644208 1_555
Na26 O0 2.672852 1_555
Na27 O117 2.410781 1_555
Na27 O77 2.467311 1_555
Na27 O43 2.467342 1_555
Na27 O1 2.599410 1_555
Na27 O115 2.616276 1_555
Na27 O73 2.689523 1_545
Na28 O116 2.385895 1_555
Na28 O74 2.523296 1_555
Na28 O73 2.524964 1_555
Na28 O118 2.585265 1_555
Na28 O44 2.631550 1_555
Na28 O2 2.773549 1_555
Na29 O117 2.364539 1_555
Na29 O75 2.538441 1_555
Na29 O119 2.598390 1_555
Na29 O72 2.618173 1_655
Na29 O45 2.619888 1_555
Na29 O3 2.814840 1_555
Na29 O65 2.884577 1_555
Na29 O55 2.971807 1_555
Na30 O85 2.464127 1_455
Na30 O86 2.465627 1_555
Na30 O76 2.516189 1_555
Na30 O72 2.751157 1_545
Na30 O89 2.754106 1_445
Na30 O75 2.782016 1_445
Na31 O87 2.368057 1_555
Na31 O77 2.489052 1_555
Na31 O73 2.622856 1_545
Na31 O84 2.628485 1_555
Na31 O88 2.705402 1_545
Na31 O74 2.802947 1_545
Na32 O80 2.402046 1_545
Na32 O78 2.524685 1_555
Na32 O94 2.527901 1_556
Na32 O83 2.683729 1_445
Na32 O91 2.767543 1_446
Na32 O93 2.811652 1_456
Na33 O81 2.405712 1_545
Na33 O95 2.536618 1_556
Na33 O90 2.571708 1_546
Na33 O82 2.657672 1_545
Na33 O79 2.660783 1_555
Na33 O92 2.850711 1_556
Na34 O98 2.398654 1_555
Na34 O100 2.548521 1_555
Na34 O112 2.599602 1_555
Na34 O96 2.614993 1_555
Na34 O108 2.689793 1_555
Na34 O110 2.732002 1_555
Na35 O99 2.401941 1_555
Na35 O113 2.452568 1_555
Na35 O109 2.635230 1_555
Na35 O97 2.666393 1_555
Na35 O101 2.713449 1_555
Na35 O111 2.825831 1_555
Na36 O106 2.449250 1_555
Na36 O116 2.453546 1_555
Na36 O114 2.592515 1_555
Na36 O102 2.681225 1_555
Na36 O104 2.701169 1_555
Na36 O118 2.753655 1_555
Na37 O117 2.380125 1_555
Na37 O107 2.432062 1_555
Na37 O115 2.603013 1_555
Na37 O119 2.671573 1_555
Na37 O103 2.688951 1_555
Na37 O105 2.875789 1_555
Na38 O120 2.490644 1_555
Na38 O132 2.558586 1_555
Na38 O124 2.605845 1_555
Na38 O122 2.613070 1_555
Na38 O134 2.639916 1_555
Na38 O136 2.735555 1_555
Na39 O123 2.397269 1_555
Na39 O121 2.513184 1_555
Na39 O133 2.593992 1_555
Na39 O137 2.609800 1_555
Na39 O135 2.763627 1_555
Na39 O125 2.768240 1_555
Na40 O130 2.458407 1_555
Na40 O138 2.535393 1_555
Na40 O140 2.582688 1_555
Na40 O126 2.587699 1_555
Na40 O142 2.666520 1_555
Na40 O128 2.812259 1_555
Na41 O141 2.489012 1_555
Na41 O139 2.518288 1_555
Na41 O127 2.618716 1_555
Na41 O143 2.621877 1_555
Na41 O131 2.686169 1_555
Na41 O129 2.797040 1_555
O0 Si0 1.629412 1_545
O0 Zn0 1.911674 1_555
O1 Si1 1.626404 1_545
O1 Zn1 1.906927 1_555
O2 S0 1.479502 1_555
O2 Zn1 2.317375 1_565
O3 S1 1.490459 1_555
O3 Zn0 2.241388 1_665
O4 S3 1.490052 1_555
O4 Zn1 2.068486 1_555
O5 S2 1.485898 1_555
O5 Zn0 2.143344 1_655
O6 Si2 1.628923 1_555
O6 Zn2 1.892434 1_555
O7 Si3 1.635346 1_555
O7 Zn3 1.911972 1_545
O8 Si4 1.639357 1_555
O8 Zn3 1.924183 1_555
O9 S4 1.492702 1_555
O9 Zn2 2.053407 1_665
O10 S5 1.485284 1_545
O10 Zn3 2.359582 1_545
O11 S6 1.481735 1_545
O11 Zn2 2.282034 1_655
O12 S5 1.500129 1_555
O12 Sc1 2.271509 1_565
O13 S6 1.479180 1_555
O13 Sc0 2.285879 1_665
O14 Si2 1.655534 1_555
O14 Sc0 1.954540 1_555
O15 Si3 1.655657 1_555
O15 Sc1 1.975170 1_555
O16 S4 1.479629 1_455
O16 Sc0 2.195239 1_565
O17 Si4 1.637353 1_555
O17 Sc1 1.912557 1_565
O18 S0 1.472568 1_555
O18 Sc3 2.326389 1_565
O19 S1 1.500279 1_555
O19 Sc2 2.234659 1_665
O20 S2 1.487695 1_455
O20 Sc2 2.136913 1_555
O21 S3 1.478362 1_555
O21 Sc3 2.204743 1_555
O22 Si0 1.661065 1_555
O22 Sc2 1.935396 1_565
O23 Si1 1.645379 1_555
O23 Sc3 1.980154 1_565
O24 S7 1.456188 1_555
O24 Zn4 2.351845 1_555
O25 Si5 1.632892 1_555
O25 Sc4 2.015410 1_555
O26 Si6 1.629372 1_555
O26 Zn4 1.959307 1_555
O27 Si7 1.647383 1_555
O27 Sc4 1.965002 1_555
O28 S8 1.465279 1_555
O28 Zn4 2.181290 1_555
O29 S9 1.478746 1_555
O29 Sc4 2.152460 1_555
O30 Si8 1.645657 1_555
O30 Sc5 1.994006 1_555
O31 S10 1.475803 1_555
O31 Zn5 2.382301 1_555
O32 S11 1.489207 1_555
O32 Sc5 2.119857 1_555
O33 S12 1.491047 1_555
O33 Zn5 2.081111 1_555
O34 Si9 1.651051 1_555
O34 Sc5 1.971247 1_555
O35 Si10 1.643576 1_555
O35 Zn5 1.882924 1_555
O36 Si9 1.622000 1_555
O36 Zn6 1.959686 1_554
O37 Si10 1.628236 1_555
O37 Zn7 1.894507 1_554
O38 Si8 1.626581 1_555
O38 Zn6 1.968638 1_554
O39 S10 1.478143 1_555
O39 Zn7 2.307081 1_554
O40 S11 1.464633 1_555
O40 Zn6 2.212798 1_554
O41 S12 1.478087 1_555
O41 Zn7 2.143158 1_554
O42 Si6 1.643313 1_555
O42 Zn8 1.891256 1_555
O43 Si7 1.630453 1_555
O43 Zn9 1.921189 1_555
O44 S8 1.496273 1_555
O44 Zn8 2.067495 1_555
O45 S9 1.479430 1_555
O45 Zn9 2.162614 1_555
O46 S7 1.496484 1_555
O46 Zn8 2.254406 1_555
O47 Si5 1.637589 1_555
O47 Zn9 1.962206 1_555
O48 S13 1.513043 1_555
O48 Sc6 2.124356 1_556
O49 S14 1.489314 1_555
O49 Sc7 2.380189 1_556
O50 S15 1.499724 1_555
O50 Sc6 2.061549 1_556
O51 S16 1.496527 1_555
O51 Sc7 2.072256 1_556
O52 Si11 1.666459 1_555
O52 Sc6 1.970942 1_556
O53 Si12 1.642926 1_555
O53 Sc7 1.992198 1_556
O54 S17 1.476290 1_555
O54 Sc8 2.391648 1_555
O55 S18 1.496430 1_555
O55 Sc9 2.230617 1_555
O56 Si13 1.633104 1_555
O56 Sc8 2.022141 1_555
O57 Si14 1.653854 1_555
O57 Sc9 1.976477 1_555
O58 S19 1.483582 1_555
O58 Sc8 2.126661 1_555
O59 S20 1.493107 1_555
O59 Sc9 2.093205 1_555
O60 S19 1.502737 1_555
O60 Sc10 2.175403 1_555
O61 S20 1.485468 1_555
O61 Zn10 2.165404 1_555
O62 S17 1.501856 1_555
O62 Sc10 2.053949 1_555
O63 S18 1.488593 1_555
O63 Zn10 2.096409 1_555
O64 Si13 1.656637 1_555
O64 Sc10 1.981733 1_555
O65 Si14 1.643834 1_555
O65 Zn10 1.947963 1_555
O66 S15 1.479400 1_555
O66 Zn11 2.230590 1_555
O67 S16 1.492772 1_555
O67 Sc11 2.191127 1_555
O68 Si11 1.636391 1_555
O68 Zn11 1.950364 1_555
O69 Si12 1.638860 1_555
O69 Sc11 2.009550 1_555
O70 S13 1.480254 1_555
O70 Zn11 2.098298 1_555
O71 S14 1.481389 1_555
O71 Sc11 2.198517 1_555
O72 S19 1.487693 1_555
O72 Zn0 2.290272 1_565
O73 S20 1.489347 1_555
O73 Zn1 2.409342 1_565
O74 S17 1.486530 1_555
O74 Zn1 2.456125 1_565
O75 S18 1.493441 1_555
O75 Zn0 2.421304 1_665
O76 Si13 1.654792 1_555
O76 Zn0 1.999858 1_555
O77 Si14 1.665912 1_555
O77 Zn1 2.000791 1_555
O78 S15 1.489727 1_555
O78 Zn2 2.429298 1_555
O79 S16 1.479735 1_555
O80 Si11 1.667024 1_555
O80 Zn2 2.032638 1_565
O81 Si12 1.647036 1_555
O81 Zn3 2.068750 1_555
O82 S13 1.479651 1_555
O83 S14 1.496144 1_555
O83 Zn2 2.444974 1_665
O84 S7 1.511916 1_555
O84 Sc1 2.409385 1_555
O85 Si5 1.675154 1_555
O85 Sc0 2.046937 1_655
O86 Si6 1.654723 1_555
O86 Sc0 2.000537 1_555
O87 Si7 1.647422 1_555
O87 Sc1 2.024459 1_555
O88 S8 1.487990 1_555
O88 Sc1 2.307804 1_565
O89 S9 1.474691 1_555
O89 Sc0 2.297203 1_665
O90 Si8 1.678337 1_555
O90 Sc3 2.017873 1_565
O91 S10 1.527258 1_555
O91 Sc2 2.218195 1_665
O92 S11 1.475602 1_555
O92 Sc3 2.283838 1_555
O93 S12 1.492377 1_555
O93 Sc2 2.254307 1_655
O94 Si9 1.662736 1_555
O94 Sc2 1.964481 1_555
O95 Si10 1.649814 1_555
O95 Sc3 1.983371 1_555
O96 S5 1.489453 1_545
O96 Zn4 2.287739 1_555
O97 S6 1.511626 1_545
O97 Sc4 2.278873 1_555
O98 Si2 1.635193 1_555
O98 Zn4 2.046639 1_555
O99 Si3 1.651360 1_555
O99 Sc4 2.070052 1_555
O100 Si4 1.632315 1_555
O100 Zn4 2.029720 1_555
O101 S4 1.485356 1_555
O101 Sc4 2.292452 1_555
O102 S0 1.510300 1_555
O102 Sc5 2.301203 1_555
O103 S1 1.495793 1_555
O103 Zn5 2.396267 1_555
O104 S3 1.486733 1_555
O104 Sc5 2.293029 1_555
O105 S2 1.477376 1_555
O105 Zn5 2.432110 1_555
O106 Si0 1.640188 1_545
O106 Sc5 2.115669 1_555
O107 Si1 1.663634 1_545
O107 Zn5 2.007539 1_555
O108 S13 1.486650 1_555
O108 Zn6 2.305480 1_555
O109 S14 1.494806 1_555
O109 Zn7 2.351701 1_555
O110 S16 1.478699 1_555
O110 Zn6 2.480615 1_555
O111 S15 1.490589 1_655
O111 Zn7 2.388915 1_555
O112 Si11 1.650651 1_545
O112 Zn6 2.135726 1_555
O113 Si12 1.662224 1_545
O113 Zn7 1.982268 1_555
O114 S17 1.488921 1_545
O114 Zn8 2.434430 1_555
O115 S18 1.487552 1_545
O115 Zn9 2.385274 1_555
O116 Si13 1.656779 1_555
O116 Zn8 2.069360 1_555
O117 Si14 1.651751 1_555
O117 Zn9 2.211380 1_555
O118 S20 1.490945 1_555
O118 Zn8 2.434495 1_555
O119 S19 1.477844 1_655
O119 Zn9 2.549577 1_555
O120 Si9 1.648851 1_555
O120 Sc6 2.061933 1_555
O121 Si10 1.641082 1_555
O121 Sc7 2.032647 1_555
O122 S10 1.502169 1_455
O122 Sc6 2.265641 1_555
O123 Si8 1.652851 1_555
O123 Sc7 2.002770 1_555
O124 S11 1.517568 1_565
O124 Sc6 2.238295 1_555
O125 S12 1.495306 1_565
O125 Sc7 2.293247 1_555
O126 Si6 1.651545 1_565
O126 Sc8 2.022597 1_555
O127 Si7 1.653761 1_565
O127 Sc9 2.019463 1_555
O128 S8 1.504510 1_555
O128 Sc8 2.206187 1_555
O129 S9 1.514171 1_555
O129 Sc9 2.215842 1_555
O130 Si5 1.655534 1_455
O130 Sc8 1.980946 1_555
O131 S7 1.513720 1_555
O131 Sc9 2.174532 1_555
O132 Si0 1.655887 1_555
O132 Sc10 2.045794 1_555
O133 Si1 1.660465 1_555
O133 Zn10 2.045104 1_555
O134 S0 1.504580 1_555
O134 Sc10 2.206935 1_555
O135 S1 1.486861 1_555
O135 Zn10 2.376065 1_555
O136 S2 1.504154 1_455
O136 Sc10 2.263363 1_555
O137 S3 1.498865 1_555
O137 Zn10 2.279080 1_555
O138 Si2 1.659777 1_555
O138 Zn11 2.015593 1_555
O139 Si3 1.638089 1_555
O139 Sc11 2.030832 1_555
O140 S4 1.494942 1_455
O140 Zn11 2.289377 1_555
O141 Si4 1.658023 1_555
O141 Sc11 2.013329 1_555
O142 S5 1.496679 1_555
O142 Zn11 2.288332 1_555
O143 S6 1.488489 1_555
O143 Sc11 2.232110 1_555
