# generated using pymatgen
data_Na4MgZr3(PO4)6
_symmetry_space_group_name_H-M   'P 1'
_cell_length_a   8.97115832
_cell_length_b   8.99020789
_cell_length_c   22.97671204
_cell_angle_alpha   90.00783016
_cell_angle_beta   89.97283936
_cell_angle_gamma   119.96498105
_symmetry_Int_Tables_number   1
_chemical_formula_structural   Na4MgZr3(PO4)6
_chemical_formula_sum   'Na12 Mg3 Zr9 P18 O72'
_cell_volume   1605.42440170
_cell_formula_units_Z   3
loop_
 _symmetry_equiv_pos_site_id
 _symmetry_equiv_pos_as_xyz
  1  'x, y, z'
loop_
 _atom_site_type_symbol
 _atom_site_label
 _atom_site_symmetry_multiplicity
 _atom_site_fract_x
 _atom_site_fract_y
 _atom_site_fract_z
 _atom_site_occupancy
  Na  Na0  1  0.64260126  0.01240706  0.24477209  1
  Na  Na1  1  0.37012177  0.35705938  0.24473807  1
  Na  Na2  1  0.98663217  0.62870407  0.24433918  1
  Na  Na3  1  0.98768813  0.36163058  0.74226923  1
  Na  Na4  1  0.37297257  0.00903737  0.74240432  1
  Na  Na5  1  0.70666975  0.67567947  0.41441519  1
  Na  Na6  1  0.01437967  0.01495345  0.49346806  1
  Na  Na7  1  0.00014882  0.00030354  0.00174363  1
  Na  Na8  1  0.66568636  0.34708925  0.83099572  1
  Na  Na9  1  0.66553484  0.32071032  0.33210723  1
  Na  Na10  1  0.33328756  0.66659893  0.16098890  1
  Na  Na11  1  0.34746843  0.66537100  0.66101324  1
  Mg  Mg0  1  0.00678820  0.00779214  0.35240998  1
  Mg  Mg1  1  0.66546455  0.34058499  0.68224665  1
  Mg  Mg2  1  0.66660156  0.33308362  0.18066660  1
  Zr  Zr0  1  0.99869708  0.99760744  0.85423270  1
  Zr  Zr1  1  0.99565107  0.99546877  0.64325151  1
  Zr  Zr2  1  0.00037999  0.00012722  0.14593675  1
  Zr  Zr3  1  0.66692583  0.33230381  0.98271751  1
  Zr  Zr4  1  0.66607811  0.32732026  0.48326433  1
  Zr  Zr5  1  0.33278305  0.66632151  0.02087423  1
  Zr  Zr6  1  0.33008684  0.66606990  0.52013622  1
  Zr  Zr7  1  0.33005482  0.66655034  0.31705934  1
  Zr  Zr8  1  0.33827267  0.66582502  0.81524791  1
  P  P0  1  0.29283166  0.00338584  0.25158433  1
  P  P1  1  0.70898608  0.70611239  0.25312995  1
  P  P2  1  0.99613018  0.28883565  0.25170628  1
  P  P3  1  0.29309389  0.29043918  0.74933944  1
  P  P4  1  0.99590416  0.70422155  0.75008830  1
  P  P5  1  0.70748140  0.00217060  0.74951498  1
  P  P6  1  0.95867690  0.33492406  0.58755269  1
  P  P7  1  0.37686018  0.04097263  0.58746642  1
  P  P8  1  0.66400628  0.62110649  0.58359370  1
  P  P9  1  0.95761643  0.62398067  0.08662025  1
  P  P10  1  0.66546245  0.04122909  0.08663373  1
  P  P11  1  0.37589636  0.33427908  0.08656325  1
  P  P12  1  0.62687041  0.66522340  0.91806057  1
  P  P13  1  0.03965985  0.37397239  0.91602559  1
  P  P14  1  0.33528157  0.96041740  0.91624565  1
  P  P15  1  0.63157941  0.96210464  0.41594225  1
  P  P16  1  0.32954967  0.36792678  0.41679288  1
  P  P17  1  0.03613618  0.67031004  0.41665464  1
  O  O0  1  0.20797749  0.03014074  0.30427298  1
  O  O1  1  0.81357616  0.78545432  0.30817711  1
  O  O2  1  0.96809871  0.17697197  0.30437475  1
  O  O3  1  0.20138870  0.17757978  0.80372089  1
  O  O4  1  0.97929649  0.79616032  0.80472683  1
  O  O5  1  0.82009272  0.02248917  0.80353580  1
  O  O6  1  0.79371333  0.97565966  0.69561581  1
  O  O7  1  0.17379154  0.20438607  0.69642558  1
  O  O8  1  0.02974151  0.82269604  0.69691998  1
  O  O9  1  0.79647312  0.82600373  0.19960818  1
  O  O10  1  0.03207599  0.20875348  0.19673827  1
  O  O11  1  0.17759473  0.96878515  0.19652372  1
  O  O12  1  0.88175695  0.35670198  0.64353813  1
  O  O13  1  0.47640822  0.11665787  0.64339332  1
  O  O14  1  0.64014456  0.51306751  0.63651744  1
  O  O15  1  0.88228649  0.52576193  0.14272515  1
  O  O16  1  0.64285380  0.11715199  0.14265070  1
  O  O17  1  0.47449048  0.35721286  0.14262203  1
  O  O18  1  0.46800110  0.31396490  0.03238532  1
  O  O19  1  0.84573495  0.53198216  0.03241292  1
  O  O20  1  0.68659649  0.15354472  0.03240566  1
  O  O21  1  0.46780031  0.15404495  0.53323255  1
  O  O22  1  0.68726135  0.54157356  0.52622722  1
  O  O23  1  0.84591516  0.31425785  0.53339675  1
  O  O24  1  0.53757987  0.68742384  0.97141655  1
  O  O25  1  0.15426410  0.46669406  0.96860301  1
  O  O26  1  0.31390601  0.84634520  0.96886242  1
  O  O27  1  0.53166576  0.84330186  0.46771280  1
  O  O28  1  0.31566656  0.46867081  0.46905880  1
  O  O29  1  0.15042173  0.68479557  0.46880367  1
  O  O30  1  0.11993878  0.64458991  0.36018621  1
  O  O31  1  0.52069117  0.87773211  0.35959345  1
  O  O32  1  0.36045535  0.48332911  0.36092843  1
  O  O33  1  0.12442792  0.47923755  0.85962145  1
  O  O34  1  0.35549424  0.87530548  0.85992044  1
  O  O35  1  0.51707475  0.64441731  0.86300958  1
  O  O36  1  0.01316780  0.82628225  0.41259493  1
  O  O37  1  0.80477839  0.97093019  0.41148689  1
  O  O38  1  0.17313646  0.19245473  0.41193329  1
  O  O39  1  0.02227191  0.19438460  0.91098590  1
  O  O40  1  0.17252010  0.97772821  0.91147459  1
  O  O41  1  0.80592154  0.82752336  0.91192830  1
  O  O42  1  0.97787493  0.17198668  0.58873871  1
  O  O43  1  0.19464635  0.02217873  0.58925682  1
  O  O44  1  0.82743456  0.80354671  0.58788852  1
  O  O45  1  0.97664713  0.80599528  0.08855767  1
  O  O46  1  0.82849507  0.02164340  0.08860637  1
  O  O47  1  0.19358259  0.17117304  0.08847326  1
  O  O48  1  0.68916466  0.16264120  0.74591500  1
  O  O49  1  0.46901106  0.30517582  0.74453277  1
  O  O50  1  0.84332405  0.52332057  0.74543431  1
  O  O51  1  0.68289222  0.52470797  0.24425360  1
  O  O52  1  0.84144110  0.31704391  0.24366630  1
  O  O53  1  0.47583252  0.15776500  0.24381651  1
  O  O54  1  0.64485820  0.50430951  0.92250437  1
  O  O55  1  0.86071968  0.35658659  0.92184009  1
  O  O56  1  0.49621290  0.13937479  0.92190349  1
  O  O57  1  0.64597371  0.13986043  0.42200128  1
  O  O58  1  0.50188750  0.36509647  0.42211016  1
  O  O59  1  0.85579224  0.50535981  0.42194391  1
  O  O60  1  0.35288594  0.49360859  0.07756638  1
  O  O61  1  0.14029818  0.64682701  0.07759129  1
  O  O62  1  0.50548410  0.85950751  0.07755652  1
  O  O63  1  0.35420554  0.85972402  0.57761748  1
  O  O64  1  0.50604805  0.64745499  0.57621060  1
  O  O65  1  0.14039017  0.49399524  0.57815873  1
  O  O66  1  0.30862988  0.83541743  0.25586407  1
  O  O67  1  0.52463723  0.68975558  0.25592374  1
  O  O68  1  0.16385468  0.47275455  0.25638800  1
  O  O69  1  0.30237823  0.46818203  0.75596018  1
  O  O70  1  0.16592152  0.69325308  0.75597761  1
  O  O71  1  0.52395808  0.84136084  0.75532801  1
loop_
_geom_bond_atom_site_label_1
_geom_bond_atom_site_label_2
_geom_bond_distance
_geom_bond_site_symmetry_2
Na0 O52 2.408967 1_555
Na0 O53 2.428915 1_555
Na0 O16 2.528021 1_555
Na0 O67 2.556000 1_545
Na0 O66 2.609706 1_545
Na0 O9 2.846001 1_545
Na0 O2 2.877297 1_555
Na0 O31 2.880557 1_545
Na1 O53 2.409838 1_555
Na1 O51 2.433168 1_555
Na1 O17 2.525546 1_555
Na1 O68 2.549472 1_555
Na1 O67 2.606170 1_555
Na1 O10 2.855638 1_555
Na1 O0 2.890284 1_555
Na1 O32 2.919010 1_555
Na2 O51 2.398806 1_555
Na2 O52 2.429349 1_555
Na2 O15 2.513948 1_555
Na2 O66 2.550733 1_655
Na2 O68 2.607158 1_655
Na2 O11 2.873410 1_655
Na2 O30 2.892750 1_655
Na2 O1 2.954731 1_555
Na3 O48 2.365059 1_555
Na3 O50 2.382464 1_555
Na3 O12 2.451775 1_555
Na3 O69 2.507178 1_655
Na3 O70 2.604335 1_655
Na3 O7 2.872459 1_655
Na3 O33 2.932550 1_655
Na3 O5 2.993020 1_555
Na4 O49 2.354020 1_555
Na4 O48 2.459065 1_555
Na4 O13 2.464612 1_555
Na4 O71 2.497095 1_545
Na4 O70 2.517774 1_545
Na5 O37 2.343304 1_555
Na5 O36 2.382527 1_655
Na5 O58 2.465428 1_555
Na5 O59 2.492151 1_555
Na5 O1 2.627777 1_555
Na5 O22 2.806197 1_555
Na5 O27 2.931983 1_555
Na5 O32 2.963999 1_555
Na6 O38 2.410913 1_555
Na6 O36 2.512136 1_545
Na6 O37 2.549572 1_445
Na6 O42 2.711529 1_455
Na6 O43 2.713294 1_555
Na6 O44 2.818707 1_445
Na7 O47 2.584909 1_555
Na7 O46 2.585266 1_455
Na7 O45 2.589881 1_445
Na7 O41 2.646970 1_444
Na7 O40 2.654174 1_544
Na7 O39 2.662147 1_554
Na8 O50 2.527911 1_555
Na8 O49 2.557500 1_555
Na8 O54 2.591557 1_555
Na8 O48 2.638795 1_555
Na8 O55 2.698087 1_555
Na8 O56 2.706206 1_555
Na9 O57 2.579922 1_555
Na9 O53 2.582565 1_555
Na9 O52 2.582575 1_555
Na9 O59 2.664904 1_555
Na9 O58 2.678280 1_555
Na9 O51 2.679154 1_555
Na10 O62 2.528017 1_555
Na10 O60 2.528965 1_555
Na10 O61 2.529148 1_555
Na10 O67 2.719304 1_555
Na10 O66 2.727352 1_555
Na10 O68 2.739321 1_555
Na11 O64 2.464273 1_555
Na11 O65 2.567580 1_555
Na11 O63 2.573636 1_555
Na11 O71 2.684427 1_555
Na11 O69 2.710988 1_555
Na11 O70 2.807266 1_555
Mg0 O0 2.038934 1_555
Mg0 O2 2.044530 1_455
Mg0 O38 2.092863 1_555
Mg0 O1 2.138436 1_445
Mg0 O37 2.152785 1_445
Mg0 O36 2.161562 1_545
Mg1 O14 1.978039 1_555
Mg1 O12 2.072363 1_555
Mg1 O13 2.077613 1_555
Mg1 O49 2.166303 1_555
Mg1 O50 2.176169 1_555
Mg1 O48 2.255031 1_555
Mg2 O15 2.038428 1_555
Mg2 O17 2.038734 1_555
Mg2 O16 2.040456 1_555
Mg2 O52 2.191919 1_555
Mg2 O53 2.195954 1_555
Mg2 O51 2.207213 1_555
O0 P0 1.511582 1_555
O1 P1 1.523555 1_555
O2 P2 1.512116 1_555
O3 P3 1.559839 1_555
O3 Zr0 2.081077 1_445
O4 P4 1.550484 1_555
O4 Zr0 2.070946 1_555
O5 P5 1.552865 1_555
O5 Zr0 2.081854 1_545
O6 P5 1.540180 1_565
O6 Zr1 2.106410 1_555
O7 P3 1.547900 1_555
O7 Zr1 2.139434 1_445
O8 P4 1.547908 1_455
O8 Zr1 2.121831 1_455
O9 P1 1.563471 1_555
O9 Zr2 2.110778 1_665
O10 P2 1.564846 1_455
O10 Zr2 2.104314 1_555
O11 P0 1.563944 1_565
O11 Zr2 2.099346 1_565
O12 P6 1.517661 1_555
O13 P7 1.518432 1_555
O14 P8 1.503429 1_555
O15 P9 1.517096 1_555
O16 P10 1.517045 1_555
O17 P11 1.517483 1_555
O18 P11 1.554160 1_555
O18 Zr3 2.053893 1_554
O19 P9 1.553839 1_555
O19 Zr3 2.055274 1_554
O20 P10 1.554630 1_555
O20 Zr3 2.049696 1_554
O21 P7 1.556497 1_555
O21 Zr4 2.034558 1_555
O22 P8 1.562254 1_555
O22 Zr4 2.086803 1_555
O23 P6 1.555502 1_555
O23 Zr4 2.033362 1_555
O24 P12 1.530735 1_555
O24 Zr5 2.086330 1_556
O25 P13 1.534958 1_555
O25 Zr5 2.087650 1_556
O26 P14 1.534191 1_555
O26 Zr5 2.085844 1_556
O27 P15 1.549883 1_555
O27 Zr6 2.092852 1_555
O28 P16 1.546036 1_555
O28 Zr6 2.076945 1_555
O29 P17 1.540002 1_555
O29 Zr6 2.071298 1_555
O30 P17 1.573127 1_555
O30 Zr7 2.049532 1_555
O31 P15 1.577475 1_555
O31 Zr7 2.059630 1_555
O32 P16 1.585408 1_555
O32 Zr7 2.062307 1_555
O33 P13 1.560115 1_555
O33 Zr8 2.077904 1_555
O34 P14 1.559280 1_555
O34 Zr8 2.081612 1_555
O35 P12 1.556348 1_555
O35 Zr8 2.030880 1_555
O36 P17 1.518574 1_555
O37 P15 1.519129 1_555
O38 P16 1.502965 1_555
O39 P13 1.546879 1_555
O39 Zr0 2.121469 1_445
O40 P14 1.547727 1_555
O40 Zr0 2.115156 1_455
O41 P12 1.545187 1_555
O41 Zr0 2.107870 1_555
O42 P6 1.558268 1_555
O42 Zr1 2.089532 1_545
O43 P7 1.557697 1_555
O43 Zr1 2.086518 1_445
O44 P8 1.564415 1_555
O44 Zr1 2.067059 1_555
O45 P9 1.558744 1_555
O45 Zr2 2.111381 1_665
O46 P10 1.558704 1_555
O46 Zr2 2.109584 1_655
O47 P11 1.559285 1_555
O47 Zr2 2.109021 1_555
O48 P5 1.533617 1_555
O49 P3 1.520322 1_555
O50 P4 1.518671 1_555
O51 P1 1.541005 1_555
O52 P2 1.541451 1_555
O53 P0 1.541767 1_555
O54 P12 1.537048 1_555
O54 Zr3 2.156658 1_555
O55 P13 1.538969 1_655
O55 Zr3 2.155322 1_555
O56 P14 1.539327 1_545
O56 Zr3 2.157354 1_555
O57 P15 1.543913 1_545
O57 Zr4 2.133104 1_555
O58 P16 1.563772 1_555
O58 Zr4 2.182014 1_555
O59 P17 1.560327 1_655
O59 Zr4 2.172737 1_555
O60 P11 1.559689 1_555
O60 Zr5 2.102558 1_555
O61 P9 1.560302 1_455
O61 Zr5 2.099157 1_555
O62 P10 1.558935 1_565
O62 Zr5 2.103878 1_555
O63 P7 1.554602 1_565
O63 Zr6 2.108443 1_555
O64 P8 1.558373 1_555
O64 Zr6 2.108502 1_555
O65 P6 1.555679 1_455
O65 Zr6 2.105982 1_555
O66 P0 1.588684 1_565
O66 Zr7 2.147341 1_555
O67 P1 1.586769 1_555
O67 Zr7 2.167460 1_555
O68 P2 1.588834 1_455
O68 Zr7 2.146679 1_555
O69 P3 1.565407 1_555
O69 Zr8 2.131847 1_555
O70 P4 1.582679 1_455
O70 Zr8 2.165422 1_555
O71 P5 1.562284 1_565
O71 Zr8 2.129130 1_555
