# generated using pymatgen
data_MgV4(OF6)2
_symmetry_space_group_name_H-M   'P 1'
_cell_length_a   8.63648957
_cell_length_b   6.66539622
_cell_length_c   5.44700197
_cell_angle_alpha   85.39902911
_cell_angle_beta   102.51989570
_cell_angle_gamma   107.37892775
_symmetry_Int_Tables_number   1
_chemical_formula_structural   MgV4(OF6)2
_chemical_formula_sum   'Mg1 V4 O2 F12'
_cell_volume   292.09003916
_cell_formula_units_Z   1
loop_
 _symmetry_equiv_pos_site_id
 _symmetry_equiv_pos_as_xyz
  1  'x, y, z'
loop_
 _atom_site_type_symbol
 _atom_site_label
 _atom_site_symmetry_multiplicity
 _atom_site_fract_x
 _atom_site_fract_y
 _atom_site_fract_z
 _atom_site_occupancy
  Mg  Mg0  1  0.05504400  0.09542600  0.75944400  1
  V  V0  1  0.19656200  0.30352600  0.28772700  1
  V  V1  1  0.33304600  0.53843900  0.81298600  1
  V  V2  1  0.77972300  0.68787900  0.70201800  1
  V  V3  1  0.66211300  0.47176800  0.16655700  1
  O  O0  1  0.15169500  0.41174200  0.92264500  1
  O  O1  1  0.57162300  0.56179900  0.84585800  1
  F  F0  1  0.00242700  0.80666200  0.63896300  1
  F  F1  1  0.26469400  0.58441400  0.45996500  1
  F  F2  1  0.38167900  0.80570300  0.90463000  1
  F  F3  1  0.28617100  0.23149700  0.65563500  1
  F  F4  1  0.15353000  0.04695500  0.12219000  1
  F  F5  1  0.42636800  0.40864400  0.20589000  1
  F  F6  1  0.82243300  0.97225100  0.80597900  1
  F  F7  1  0.68074400  0.72801800  0.32841900  1
  F  F8  1  0.63974500  0.20734400  0.12564500  1
  F  F9  1  0.75760200  0.42668200  0.53658200  1
  F  F10  1  0.86682600  0.58943000  0.06445200  1
  F  F11  1  0.99702200  0.22091800  0.40919100  1
loop_
_geom_bond_atom_site_label_1
_geom_bond_atom_site_label_2
_geom_bond_distance
_geom_bond_site_symmetry_2
Mg0 O0 2.204513 1_555
O0 V1 1.748595 1_555
O0 V0 2.056144 1_556
O1 V3 1.882140 1_556
O1 V1 1.988642 1_555
O1 V2 2.037850 1_555
F0 V2 1.943526 1_455
F0 Mg0 1.972969 1_565
F1 V1 1.913462 1_555
F1 V0 2.028796 1_555
F2 V1 1.789929 1_555
F3 V0 2.059278 1_555
F3 Mg0 2.110074 1_555
F3 V1 2.172618 1_555
F4 V0 1.896886 1_555
F4 Mg0 2.016196 1_554
F5 V3 2.007780 1_555
F5 V0 2.032604 1_555
F5 V1 2.312994 1_554
F6 V2 1.927029 1_555
F6 Mg0 1.994054 1_665
F7 V3 1.932982 1_555
F7 V2 2.058783 1_555
F8 V3 1.741926 1_555
F9 V2 1.964156 1_555
F9 V3 2.040342 1_555
F10 V3 1.891625 1_555
F10 V2 2.082561 1_554
F11 V0 1.892036 1_655
F11 Mg0 2.042170 1_655
