# generated using pymatgen
data_Cs4Mg(TiS3)2
_symmetry_space_group_name_H-M   'P 1'
_cell_length_a   6.79009201
_cell_length_b   8.76194710
_cell_length_c   6.76709617
_cell_angle_alpha   106.59694439
_cell_angle_beta   94.14990489
_cell_angle_gamma   89.58252866
_symmetry_Int_Tables_number   1
_chemical_formula_structural   Cs4Mg(TiS3)2
_chemical_formula_sum   'Cs4 Mg1 Ti2 S6'
_cell_volume   384.78179450
_cell_formula_units_Z   1
loop_
 _symmetry_equiv_pos_site_id
 _symmetry_equiv_pos_as_xyz
  1  'x, y, z'
loop_
 _atom_site_type_symbol
 _atom_site_label
 _atom_site_symmetry_multiplicity
 _atom_site_fract_x
 _atom_site_fract_y
 _atom_site_fract_z
 _atom_site_occupancy
  Cs  Cs0  1  0.22630984  0.97774880  0.40936968  1
  Cs  Cs1  1  0.75334153  0.09944049  0.69514306  1
  Cs  Cs2  1  0.73595242  0.74708428  0.95636450  1
  Cs  Cs3  1  0.29523848  0.22705307  0.06382735  1
  Mg  Mg0  1  0.24771927  0.58949001  0.00210886  1
  Ti  Ti0  1  0.79047511  0.43582705  0.42261208  1
  Ti  Ti1  1  0.22622925  0.57252353  0.55443204  1
  S  S0  1  0.49292770  0.40384986  0.62789338  1
  S  S1  1  0.00528377  0.59060426  0.27926829  1
  S  S2  1  0.80458197  0.17714089  0.21881540  1
  S  S3  1  0.23841204  0.81242968  0.83533245  1
  S  S4  1  0.01858259  0.41923003  0.70733023  1
  S  S5  1  0.48894604  0.60591105  0.31083568  1
loop_
_geom_bond_atom_site_label_1
_geom_bond_atom_site_label_2
_geom_bond_distance
_geom_bond_site_symmetry_2
Cs0 S1 3.565242 1_555
Cs0 S3 3.572565 1_555
Cs0 S5 3.617451 1_555
Cs0 S2 3.687103 1_465
Cs0 S3 3.744968 1_554
Cs0 S0 3.995003 1_565
Cs1 S0 3.309990 1_555
Cs1 S4 3.319873 1_655
Cs1 S2 3.404320 1_556
Cs1 S2 3.520510 1_555
Cs2 S1 3.331013 1_656
Cs2 S3 3.500155 1_555
Cs2 S4 3.520958 1_655
Cs2 S5 3.522010 1_556
Cs2 S0 3.525745 1_555
Cs2 S3 3.652321 1_655
Cs2 S2 3.694986 1_566
Cs3 Mg0 3.329652 1_555
Cs3 S5 3.481221 1_555
Cs3 S3 3.530269 1_544
Cs3 S2 3.601031 1_555
Cs3 S2 3.630406 1_455
Cs3 S4 3.715200 1_554
Cs3 S1 3.717478 1_555
Cs3 S0 3.831769 1_555
Cs3 S0 4.014734 1_554
Mg0 S3 2.518080 1_554
Mg0 S5 2.530755 1_555
Mg0 S4 2.551470 1_554
Mg0 S1 2.581442 1_555
Mg0 S0 3.169919 1_554
S0 Ti1 2.441547 1_555
S0 Ti0 2.593643 1_555
S1 Ti1 2.346024 1_555
S1 Ti0 2.427472 1_455
S2 Ti0 2.297562 1_555
S3 Ti1 2.394973 1_555
S4 Ti0 2.420175 1_455
S4 Ti1 2.428001 1_555
S5 Ti1 2.587242 1_555
S5 Ti0 2.712985 1_555
