# generated using pymatgen
data_MgFe6(OF)6
_symmetry_space_group_name_H-M   'P 1'
_cell_length_a   5.14582958
_cell_length_b   14.60327663
_cell_length_c   3.04099737
_cell_angle_alpha   90.02272122
_cell_angle_beta   89.96385227
_cell_angle_gamma   90.96709411
_symmetry_Int_Tables_number   1
_chemical_formula_structural   MgFe6(OF)6
_chemical_formula_sum   'Mg1 Fe6 O6 F6'
_cell_volume   228.48609204
_cell_formula_units_Z   1
loop_
 _symmetry_equiv_pos_site_id
 _symmetry_equiv_pos_as_xyz
  1  'x, y, z'
loop_
 _atom_site_type_symbol
 _atom_site_label
 _atom_site_symmetry_multiplicity
 _atom_site_fract_x
 _atom_site_fract_y
 _atom_site_fract_z
 _atom_site_occupancy
  Mg  Mg0  1  0.10180361  0.16482962  0.48784984  1
  Fe  Fe0  1  0.93947468  0.97226443  0.98891808  1
  Fe  Fe1  1  0.04049224  0.35455598  0.98759036  1
  Fe  Fe2  1  0.93357232  0.66405793  0.98685146  1
  Fe  Fe3  1  0.62568597  0.17665815  0.48883964  1
  Fe  Fe4  1  0.50198226  0.50205125  0.48727055  1
  Fe  Fe5  1  0.37630357  0.81977990  0.48772730  1
  O  O0  1  0.13352038  0.92013638  0.48876017  1
  O  O1  1  0.23868407  0.75625409  0.98762584  1
  O  O2  1  0.31473589  0.44883322  0.98741498  1
  O  O3  1  0.66464522  0.57652162  0.98706569  1
  O  O4  1  0.88136496  0.22403396  0.98869516  1
  O  O5  1  0.84371969  0.05709280  0.48865263  1
  F  F0  1  0.33543359  0.27167164  0.48904016  1
  F  F1  1  0.12438079  0.60633687  0.48652859  1
  F  F2  1  0.33494310  0.11524753  0.98752792  1
  F  F3  1  0.61524328  0.88976251  0.98893565  1
  F  F4  1  0.79366310  0.40751398  0.48805527  1
  F  F5  1  0.75590726  0.73906513  0.48748373  1
loop_
_geom_bond_atom_site_label_1
_geom_bond_atom_site_label_2
_geom_bond_distance
_geom_bond_site_symmetry_2
Mg0 O5 2.041693 1_455
Mg0 O4 2.091565 1_454
Mg0 O4 2.093763 1_455
Fe0 O0 1.978065 1_655
Fe0 O0 1.978759 1_656
Fe0 O5 2.026074 1_566
Fe0 O5 2.028488 1_565
Fe1 O2 1.954838 1_555
Fe1 O4 2.061760 1_455
Fe2 O3 1.868001 1_555
Fe2 O1 2.050956 1_655
Fe3 O5 2.091317 1_555
Fe3 O4 2.119079 1_554
Fe3 O4 2.119246 1_555
Fe4 O2 1.954122 1_554
Fe4 O2 1.954339 1_555
Fe4 O3 2.040318 1_555
Fe4 O3 2.041102 1_554
Fe5 O1 1.910670 1_555
Fe5 O1 1.911287 1_554
Fe5 O0 1.941751 1_555
F0 Mg0 1.953558 1_555
F0 Fe3 2.055710 1_555
F0 Fe1 2.474808 1_555
F0 Fe1 2.481982 1_554
F1 Fe2 2.003582 1_454
F1 Fe2 2.003625 1_455
F1 Fe4 2.488914 1_555
F2 Mg0 2.074747 1_556
F2 Mg0 2.074842 1_555
F2 Fe3 2.301157 1_555
F2 Fe3 2.307198 1_556
F3 Fe0 2.041415 1_555
F3 Fe5 2.193952 1_556
F3 Fe5 2.199551 1_555
F4 Fe4 2.056383 1_555
F4 Fe1 2.134359 1_655
F4 Fe1 2.134794 1_654
F5 Fe2 2.092502 1_555
F5 Fe2 2.093827 1_554
F5 Fe5 2.298419 1_555
