# generated using pymatgen
data_GaSnP(SO6)2
_symmetry_space_group_name_H-M   'P 1'
_cell_length_a   8.63051476
_cell_length_b   8.62342834
_cell_length_c   22.40370121
_cell_angle_alpha   90.17856655
_cell_angle_beta   90.00000000
_cell_angle_gamma   120.02718746
_symmetry_Int_Tables_number   1
_chemical_formula_structural   GaSnP(SO6)2
_chemical_formula_sum   'Ga6 Sn6 P6 S12 O72'
_cell_volume   1443.59445162
_cell_formula_units_Z   6
loop_
 _symmetry_equiv_pos_site_id
 _symmetry_equiv_pos_as_xyz
  1  'x, y, z'
loop_
 _atom_site_type_symbol
 _atom_site_label
 _atom_site_symmetry_multiplicity
 _atom_site_fract_x
 _atom_site_fract_y
 _atom_site_fract_z
 _atom_site_occupancy
  Ga  Ga0  1  -0.00021394  0.99945682  0.35406311  1
  Ga  Ga1  1  0.99967076  0.99945682  0.85406311  1
  Ga  Ga2  1  0.68509511  0.34498100  0.68771221  1
  Ga  Ga3  1  0.65988688  0.34498100  0.18771221  1
  Ga  Ga4  1  0.32676609  0.64775146  0.02065213  1
  Ga  Ga5  1  0.32098438  0.64775146  0.52065213  1
  Sn  Sn0  1  0.00092216  0.00145089  0.64642545  1
  Sn  Sn1  1  0.00052873  0.00145089  0.14642545  1
  Sn  Sn2  1  0.66630092  0.33246900  0.97978423  1
  Sn  Sn3  1  0.66616908  0.33246900  0.47978423  1
  Sn  Sn4  1  0.34037195  0.66285863  0.31300670  1
  Sn  Sn5  1  0.32248568  0.66285863  0.81300670  1
  P  P0  1  0.71769069  0.71160980  0.25130251  1
  P  P1  1  0.99391911  0.71160980  0.75130251  1
  P  P2  1  0.95822234  0.33729060  0.58409334  1
  P  P3  1  0.37906926  0.33729060  0.08409334  1
  P  P4  1  0.04308883  0.36935701  0.91757205  1
  P  P5  1  0.32626717  0.36935701  0.41757205  1
  S  S0  1  0.29433447  0.00322826  0.25131054  1
  S  S1  1  0.99265180  0.28938948  0.25061948  1
  S  S2  1  0.29673768  0.28938948  0.75061948  1
  S  S3  1  0.70889380  0.00322826  0.75131054  1
  S  S4  1  0.37938619  0.03910549  0.58452928  1
  S  S5  1  0.66119341  0.62217343  0.58424624  1
  S  S6  1  0.96098102  0.62217343  0.08424624  1
  S  S7  1  0.65972030  0.03910549  0.08452928  1
  S  S8  1  0.62551612  0.67229523  0.91701458  1
  S  S9  1  0.32859562  0.95376605  0.91820661  1
  S  S10  1  0.62516943  0.95376605  0.41820661  1
  S  S11  1  0.04677811  0.67229523  0.41701458  1
  O  O0  1  0.21286183  0.03535328  0.30392885  1
  O  O1  1  0.83463044  0.80099656  0.30656737  1
  O  O2  1  0.96509891  0.17863350  0.30366768  1
  O  O3  1  0.21353459  0.17863350  0.80366768  1
  O  O4  1  0.96636612  0.80099656  0.80656737  1
  O  O5  1  0.82249145  0.03535328  0.80392885  1
  O  O6  1  0.78153059  0.96338668  0.69636085  1
  O  O7  1  0.18118742  0.21814488  0.69623268  1
  O  O8  1  0.03567845  0.82787961  0.69398704  1
  O  O9  1  0.79220117  0.82787961  0.19398704  1
  O  O10  1  0.03695746  0.21814488  0.19623268  1
  O  O11  1  0.18185609  0.96338668  0.19636085  1
  O  O12  1  0.87086033  0.36689509  0.63897891  1
  O  O13  1  0.49005057  0.12438346  0.63781246  1
  O  O14  1  0.62903508  0.50875091  0.63703736  1
  O  O15  1  0.87971683  0.50875091  0.13703736  1
  O  O16  1  0.63433388  0.12438346  0.13781246  1
  O  O17  1  0.49603575  0.36689509  0.13897891  1
  O  O18  1  0.45467859  0.29498102  0.02703526  1
  O  O19  1  0.84785563  0.54949513  0.02952519  1
  O  O20  1  0.70215314  0.15295008  0.02980019  1
  O  O21  1  0.45079794  0.15295008  0.52980019  1
  O  O22  1  0.70164050  0.54949513  0.52952519  1
  O  O23  1  0.84030344  0.29498102  0.52703526  1
  O  O24  1  0.54420273  0.70334775  0.97027043  1
  O  O25  1  0.16086300  0.45813951  0.97227637  1
  O  O26  1  0.30223611  0.84252459  0.97129655  1
  O  O27  1  0.54028748  0.84252459  0.47129655  1
  O  O28  1  0.29727551  0.45813951  0.47227637  1
  O  O29  1  0.15914401  0.70334775  0.47027043  1
  O  O30  1  0.12125391  0.63392051  0.36208167  1
  O  O31  1  0.51151410  0.88307448  0.36321688  1
  O  O32  1  0.37105988  0.48866047  0.36120114  1
  O  O33  1  0.11759959  0.48866047  0.86120114  1
  O  O34  1  0.37155938  0.88307448  0.86321688  1
  O  O35  1  0.51266560  0.63392051  0.86208167  1
  O  O36  1  0.02732802  0.83033071  0.40892507  1
  O  O37  1  0.80189586  0.97189081  0.40930456  1
  O  O38  1  0.16088584  0.18529386  0.40616320  1
  O  O39  1  0.02440801  0.18529386  0.90616320  1
  O  O40  1  0.16999495  0.97189081  0.90930456  1
  O  O41  1  0.80300269  0.83033071  0.90892507  1
  O  O42  1  0.97673575  0.16771230  0.59123198  1
  O  O43  1  0.19861859  0.02219238  0.58986205  1
  O  O44  1  0.82501497  0.80155758  0.59017446  1
  O  O45  1  0.97654261  0.80155758  0.09017446  1
  O  O46  1  0.82357379  0.02219238  0.08986205  1
  O  O47  1  0.19097655  0.16771230  0.09123198  1
  O  O48  1  0.68734817  0.16029648  0.74223475  1
  O  O49  1  0.47253085  0.30516151  0.74055114  1
  O  O50  1  0.82820308  0.52669527  0.74234122  1
  O  O51  1  0.69849319  0.52669527  0.24234122  1
  O  O52  1  0.83263166  0.30516151  0.24055114  1
  O  O53  1  0.47294931  0.16029648  0.24223475  1
  O  O54  1  0.64150689  0.50832775  0.92301312  1
  O  O55  1  0.85599707  0.35337168  0.92501740  1
  O  O56  1  0.49163748  0.13465999  0.92319398  1
  O  O57  1  0.64302350  0.13465999  0.42319398  1
  O  O58  1  0.49737561  0.35337168  0.42501740  1
  O  O59  1  0.86682186  0.50832775  0.42301312  1
  O  O60  1  0.36222574  0.50403704  0.07522364  1
  O  O61  1  0.13970280  0.64396690  0.07531919  1
  O  O62  1  0.50033641  0.86249850  0.07450152  1
  O  O63  1  0.36216109  0.86249850  0.57450152  1
  O  O64  1  0.50426310  0.64396690  0.57531919  1
  O  O65  1  0.14181030  0.50403704  0.57522364  1
  O  O66  1  0.30820927  0.83820529  0.25813337  1
  O  O67  1  0.52969259  0.69412809  0.25631257  1
  O  O68  1  0.15475881  0.47097323  0.25668145  1
  O  O69  1  0.31621342  0.47097323  0.75668145  1
  O  O70  1  0.16443450  0.69412809  0.75631257  1
  O  O71  1  0.52999501  0.83820529  0.75813337  1
loop_
_geom_bond_atom_site_label_1
_geom_bond_atom_site_label_2
_geom_bond_distance
_geom_bond_site_symmetry_2
Ga0 O38 1.903185 1_565
Ga0 O1 1.907912 1_455
Ga0 O36 2.013061 1_555
Ga0 O37 2.024996 1_455
Ga0 O0 2.042446 1_565
Ga0 O2 2.055617 1_465
Ga1 O39 1.903185 1_665
Ga1 O4 1.907912 1_555
Ga1 O41 2.013061 1_555
Ga1 O40 2.024996 1_655
Ga1 O5 2.042446 1_565
Ga1 O3 2.055617 1_665
Ga2 O12 1.869819 1_555
Ga2 O50 1.878809 1_555
Ga2 O48 2.017918 1_555
Ga2 O14 2.052150 1_555
Ga2 O49 2.063218 1_555
Ga2 O13 2.117562 1_555
Ga3 O17 1.869819 1_555
Ga3 O51 1.878809 1_555
Ga3 O53 2.017918 1_555
Ga3 O15 2.052150 1_555
Ga3 O52 2.063218 1_555
Ga3 O16 2.117562 1_555
Ga4 O60 1.874390 1_555
Ga4 O25 1.882593 1_554
Ga4 O61 2.013712 1_555
Ga4 O24 2.031854 1_554
Ga4 O62 2.082919 1_555
Ga4 O26 2.110935 1_554
Ga5 O65 1.874390 1_555
Ga5 O28 1.882593 1_555
Ga5 O64 2.013712 1_555
Ga5 O29 2.031854 1_555
Ga5 O63 2.082919 1_555
Ga5 O27 2.110935 1_555
O0 S0 1.467569 1_555
O1 P0 1.536618 1_555
O2 S1 1.470035 1_555
O3 S2 1.470035 1_555
O4 P1 1.536618 1_555
O5 S3 1.467569 1_555
O6 S3 1.496498 1_565
O6 Sn0 2.079610 1_665
O7 S2 1.496255 1_555
O7 Sn0 2.057877 1_555
O8 P1 1.558979 1_455
O8 Sn0 1.981168 1_565
O9 P0 1.558979 1_555
O9 Sn1 1.981168 1_665
O10 S1 1.496255 1_455
O10 Sn1 2.057877 1_555
O11 S0 1.496499 1_565
O11 Sn1 2.079610 1_565
O12 P2 1.528515 1_555
O13 S4 1.472956 1_555
O14 S5 1.472425 1_555
O15 S6 1.472425 1_555
O16 S7 1.472956 1_555
O17 P3 1.528515 1_555
O18 P3 1.558330 1_555
O18 Sn2 1.993019 1_554
O19 S6 1.493917 1_555
O19 Sn2 2.061966 1_554
O20 S7 1.499665 1_555
O20 Sn2 2.058662 1_554
O21 S4 1.499665 1_555
O21 Sn3 2.058662 1_555
O22 S5 1.493917 1_555
O22 Sn3 2.061966 1_555
O23 P2 1.558330 1_555
O23 Sn3 1.993019 1_555
O24 S8 1.474393 1_555
O25 P4 1.528621 1_555
O26 S9 1.474916 1_555
O27 S10 1.474916 1_555
O28 P5 1.528621 1_555
O29 S11 1.474393 1_555
O30 S11 1.499206 1_555
O30 Sn4 2.092070 1_555
O31 S10 1.499471 1_555
O31 Sn4 2.057366 1_555
O32 P5 1.553351 1_555
O32 Sn4 1.975051 1_555
O33 P4 1.553351 1_555
O33 Sn5 1.975051 1_555
O34 S9 1.499471 1_555
O34 Sn5 2.057366 1_555
O35 S8 1.499206 1_555
O35 Sn5 2.092070 1_555
O36 S11 1.465866 1_555
O37 S10 1.467027 1_555
O38 P5 1.533639 1_555
O39 P4 1.533643 1_555
O40 S9 1.467019 1_555
O41 S8 1.465871 1_555
O42 P2 1.557199 1_555
O42 Sn0 1.984640 1_655
O43 S4 1.497295 1_555
O43 Sn0 2.060349 1_555
O44 S5 1.489758 1_555
O44 Sn0 2.057116 1_665
O45 S6 1.489761 1_555
O45 Sn1 2.057116 1_665
O46 S7 1.497286 1_555
O46 Sn1 2.060349 1_655
O47 P3 1.557204 1_555
O47 Sn1 1.984640 1_555
O48 S3 1.471152 1_555
O49 S2 1.471361 1_555
O50 P1 1.531037 1_555
O51 P0 1.531041 1_555
O52 S1 1.471352 1_555
O53 S0 1.471157 1_555
O54 S8 1.494282 1_555
O54 Sn2 2.073659 1_555
O55 P4 1.559312 1_655
O55 Sn2 1.980996 1_555
O56 S9 1.492637 1_545
O56 Sn2 2.050005 1_555
O57 S10 1.492630 1_545
O57 Sn3 2.050005 1_555
O58 P5 1.559329 1_555
O58 Sn3 1.980996 1_555
O59 S11 1.494272 1_655
O59 Sn3 2.073659 1_555
O60 P3 1.529455 1_555
O61 S6 1.471265 1_455
O62 S7 1.470806 1_565
O63 S4 1.470799 1_565
O64 S5 1.471282 1_555
O65 P2 1.529445 1_455
O66 S0 1.494897 1_565
O66 Sn4 2.075202 1_555
O67 P0 1.556664 1_555
O67 Sn4 1.979126 1_555
O68 S1 1.494626 1_455
O68 Sn4 2.056869 1_555
O69 S2 1.494629 1_555
O69 Sn5 2.056869 1_555
O70 P1 1.556656 1_455
O70 Sn5 1.979126 1_555
O71 S3 1.494902 1_565
O71 Sn5 2.075202 1_555
