# generated using pymatgen
data_Na6La4Si5Sn4S7O48
_symmetry_space_group_name_H-M   'P 1'
_cell_length_a   18.47490567
_cell_length_b   9.20517218
_cell_length_c   23.90370388
_cell_angle_alpha   89.97878879
_cell_angle_beta   89.55860458
_cell_angle_gamma   119.89284572
_symmetry_Int_Tables_number   1
_chemical_formula_structural   Na6La4Si5Sn4S7O48
_chemical_formula_sum   'Na18 La12 Si15 Sn12 S21 O144'
_cell_volume   3524.19467836
_cell_formula_units_Z   3
loop_
 _symmetry_equiv_pos_site_id
 _symmetry_equiv_pos_as_xyz
  1  'x, y, z'
loop_
 _atom_site_type_symbol
 _atom_site_label
 _atom_site_symmetry_multiplicity
 _atom_site_fract_x
 _atom_site_fract_y
 _atom_site_fract_z
 _atom_site_occupancy
  Na  Na0  1  0.99594519  0.61881731  0.25545753  1
  Na  Na1  1  0.50031307  0.62571052  0.25171181  1
  Na  Na2  1  0.99900621  0.37795157  0.75113310  1
  Na  Na3  1  0.49896355  0.36158428  0.75087310  1
  Na  Na4  1  0.66227885  0.31071635  0.92507101  1
  Na  Na5  1  0.16343522  0.00853009  0.43588745  1
  Na  Na6  1  -0.00021354  0.99411197  0.51110998  1
  Na  Na7  1  0.50656546  0.99197554  0.50335216  1
  Na  Na8  1  0.00467526  0.01772262  0.99695599  1
  Na  Na9  1  0.50238829  0.01522124  0.00550017  1
  Na  Na10  1  0.32691681  0.31466747  0.84568278  1
  Na  Na11  1  0.83195337  0.33397972  0.81812407  1
  Na  Na12  1  0.34994663  0.35682070  0.32762142  1
  Na  Na13  1  0.81973064  0.32989374  0.34927669  1
  Na  Na14  1  0.19299195  0.65579324  0.15974890  1
  Na  Na15  1  0.66864106  0.64090343  0.15800036  1
  Na  Na16  1  0.17058713  0.70127461  0.66174408  1
  Na  Na17  1  0.68781300  0.70100519  0.66850557  1
  La  La0  1  0.99226224  0.98667435  0.36102975  1
  La  La1  1  0.49740827  0.00674699  0.85636203  1
  La  La2  1  0.32117427  0.33660365  0.67546126  1
  La  La3  1  0.82318912  0.30823744  0.68463210  1
  La  La4  1  0.33080551  0.34919958  0.18166762  1
  La  La5  1  0.81858962  0.30391450  0.17345740  1
  La  La6  1  0.83185114  0.32094689  0.99264348  1
  La  La7  1  0.33308051  0.34823324  0.49689661  1
  La  La8  1  0.17097838  0.66640901  0.31408290  1
  La  La9  1  0.67097506  0.64580896  0.31448426  1
  La  La10  1  0.17302795  0.69702480  0.81435789  1
  La  La11  1  0.66821833  0.65880327  0.81066050  1
  Si  Si0  1  0.36557359  0.73312063  0.25139526  1
  Si  Si1  1  0.49741712  0.29338591  0.24996886  1
  Si  Si2  1  0.64097596  0.28701652  0.74771816  1
  Si  Si3  1  0.00032401  0.70153384  0.74963613  1
  Si  Si4  1  0.86616964  0.99925470  0.75168713  1
  Si  Si5  1  0.16794200  0.01656683  0.57966406  1
  Si  Si6  1  0.68385061  0.01958865  0.57872826  1
  Si  Si7  1  0.33464321  0.66547078  0.58335771  1
  Si  Si8  1  0.83110487  0.00413172  0.08306756  1
  Si  Si9  1  0.18475003  0.34856625  0.08030075  1
  Si  Si10  1  0.66794665  0.32327299  0.07953827  1
  Si  Si11  1  0.51472738  0.37866543  0.92090580  1
  Si  Si12  1  0.16293818  0.96885862  0.92103704  1
  Si  Si13  1  0.66442691  0.35777155  0.42058256  1
  Si  Si14  1  0.01630202  0.64808938  0.41940360  1
  Sn  Sn0  1  0.50158148  0.02307871  0.35251738  1
  Sn  Sn1  1  0.00175632  0.97804532  0.85149543  1
  Sn  Sn2  1  -0.00017878  0.98001308  0.65179336  1
  Sn  Sn3  1  0.51111914  0.99766276  0.64237714  1
  Sn  Sn4  1  0.00533100  0.02030495  0.13945618  1
  Sn  Sn5  1  0.49838852  0.01760004  0.14980655  1
  Sn  Sn6  1  0.32690229  0.32063390  0.98446167  1
  Sn  Sn7  1  0.82826481  0.33635724  0.48601417  1
  Sn  Sn8  1  0.16039056  0.66326259  0.01337335  1
  Sn  Sn9  1  0.66617432  0.65818197  0.01954735  1
  Sn  Sn10  1  0.16523786  0.67465211  0.52186828  1
  Sn  Sn11  1  0.65999092  0.65412550  0.51467061  1
  S  S0  1  0.13752160  0.99497247  0.24565811  1
  S  S1  1  0.64094343  0.00411633  0.25274416  1
  S  S2  1  0.86041661  0.71517754  0.24125821  1
  S  S3  1  0.99985788  0.29193782  0.24511189  1
  S  S4  1  0.14109903  0.27832719  0.75292927  1
  S  S5  1  0.49792330  0.70333708  0.74532803  1
  S  S6  1  0.35637428  0.00257695  0.74123519  1
  S  S7  1  0.49542498  0.33719282  0.58546193  1
  S  S8  1  0.98331489  0.32810959  0.57905535  1
  S  S9  1  0.83177109  0.63879161  0.57851288  1
  S  S10  1  0.48478579  0.64324455  0.07976928  1
  S  S11  1  0.99611412  0.65281099  0.08796388  1
  S  S12  1  0.33017515  0.02365648  0.07977644  1
  S  S13  1  0.31173638  0.65425787  0.92400419  1
  S  S14  1  0.82030127  0.67740118  0.92049410  1
  S  S15  1  0.01969039  0.36012295  0.91571196  1
  S  S16  1  0.66650792  0.95973032  0.92166332  1
  S  S17  1  0.31973747  0.96632823  0.41965441  1
  S  S18  1  0.81049321  0.96961433  0.42319541  1
  S  S19  1  0.16840772  0.36908196  0.42164120  1
  S  S20  1  0.51759477  0.67743199  0.41462290  1
  O  O0  1  0.09874926  0.00353650  0.29926551  1
  O  O1  1  0.60032124  0.01713639  0.30505638  1
  O  O2  1  0.42197285  0.82354014  0.30808557  1
  O  O3  1  0.90157245  0.79485285  0.29495717  1
  O  O4  1  0.49495004  0.19786276  0.30889902  1
  O  O5  1  0.99806943  0.20172639  0.29641363  1
  O  O6  1  0.10078560  0.18369275  0.80517255  1
  O  O7  1  0.60021331  0.20377270  0.80929688  1
  O  O8  1  0.49225418  0.78568877  0.79642373  1
  O  O9  1  0.99786378  0.79281739  0.80852753  1
  O  O10  1  0.39450331  0.00020751  0.79555009  1
  O  O11  1  0.92365843  0.02171432  0.80825427  1
  O  O12  1  0.40500095  0.99971752  0.69289249  1
  O  O13  1  0.91133833  0.99510426  0.69084873  1
  O  O14  1  0.09535823  0.19405683  0.70094027  1
  O  O15  1  0.57966725  0.17221451  0.69564825  1
  O  O16  1  0.01285341  0.81235580  0.69280149  1
  O  O17  1  0.49491396  0.79067892  0.69354525  1
  O  O18  1  0.41089761  0.82534364  0.19102096  1
  O  O19  1  0.91125251  0.81702190  0.19299337  1
  O  O20  1  0.00185227  0.20033227  0.19398570  1
  O  O21  1  0.50871155  0.20707098  0.19321849  1
  O  O22  1  0.08667849  0.99308917  0.19700988  1
  O  O23  1  0.59483826  0.99630385  0.20100720  1
  O  O24  1  0.45664883  0.35944468  0.63655355  1
  O  O25  1  0.95535719  0.36493364  0.63194775  1
  O  O26  1  0.23145886  0.11141217  0.63044450  1
  O  O27  1  0.73322891  0.07495439  0.63652008  1
  O  O28  1  0.31433908  0.54552967  0.63773168  1
  O  O29  1  0.81833607  0.54109917  0.62927758  1
  O  O30  1  0.45748315  0.55123675  0.13388156  1
  O  O31  1  0.95880501  0.55558400  0.13993695  1
  O  O32  1  0.31642203  0.09338392  0.13120752  1
  O  O33  1  0.81504950  0.07999685  0.14020034  1
  O  O34  1  0.23248835  0.38931253  0.13949284  1
  O  O35  1  0.72861566  0.35432708  0.13272653  1
  O  O36  1  0.23567907  0.31467456  0.03036487  1
  O  O37  1  0.70731889  0.29902575  0.02111299  1
  O  O38  1  0.42654212  0.54590353  0.03399156  1
  O  O39  1  0.94305285  0.57523523  0.03910559  1
  O  O40  1  0.34497633  0.13457853  0.03026955  1
  O  O41  1  0.85451730  0.13296692  0.03086299  1
  O  O42  1  0.20558432  0.11597328  0.52029782  1
  O  O43  1  0.73414415  0.15420305  0.52734892  1
  O  O44  1  0.35689572  0.58758062  0.52887625  1
  O  O45  1  0.84768317  0.55969245  0.52815957  1
  O  O46  1  0.44479681  0.31716239  0.53538598  1
  O  O47  1  0.92726873  0.31119061  0.53131414  1
  O  O48  1  0.26382553  0.67011143  0.97216306  1
  O  O49  1  0.77921738  0.69688302  0.97167844  1
  O  O50  1  0.07182463  0.44795745  0.96678236  1
  O  O51  1  0.58917757  0.49201234  0.96665716  1
  O  O52  1  0.14684236  0.83764734  0.97458786  1
  O  O53  1  0.67007504  0.86969253  0.97241954  1
  O  O54  1  0.27739894  0.86254708  0.46993641  1
  O  O55  1  0.76244399  0.85710033  0.47011499  1
  O  O56  1  0.16848196  0.46566215  0.47078196  1
  O  O57  1  0.64800129  0.45871612  0.47271736  1
  O  O58  1  0.09252461  0.68745815  0.46384908  1
  O  O59  1  0.56951182  0.69137021  0.46464968  1
  O  O60  1  0.04564001  0.62826082  0.35592352  1
  O  O61  1  0.55801857  0.66569067  0.36221389  1
  O  O62  1  0.26935171  0.88918935  0.36883014  1
  O  O63  1  0.77150505  0.90232839  0.36873144  1
  O  O64  1  0.16999171  0.45195267  0.36838684  1
  O  O65  1  0.68525150  0.46361849  0.36258886  1
  O  O66  1  0.06118435  0.45421486  0.86418635  1
  O  O67  1  0.54314106  0.46001331  0.85854269  1
  O  O68  1  0.18356873  0.90273876  0.86400307  1
  O  O69  1  0.66810515  0.87728235  0.86982016  1
  O  O70  1  0.26987324  0.63930864  0.87064235  1
  O  O71  1  0.77000065  0.65379369  0.87044990  1
  O  O72  1  0.01418406  0.82716724  0.42174529  1
  O  O73  1  0.51051626  0.83239501  0.41397579  1
  O  O74  1  0.40309491  0.97772865  0.41524285  1
  O  O75  1  0.89525997  0.98739272  0.42565765  1
  O  O76  1  0.09125124  0.19937880  0.42393067  1
  O  O77  1  0.57813945  0.17054608  0.41448533  1
  O  O78  1  0.01213024  0.19126252  0.91521037  1
  O  O79  1  0.51086134  0.19557257  0.92563060  1
  O  O80  1  0.07674533  0.98384008  0.91507892  1
  O  O81  1  0.58940761  0.97370941  0.92578040  1
  O  O82  1  0.39557271  0.80333230  0.92594696  1
  O  O83  1  0.90419444  0.83214054  0.91644848  1
  O  O84  1  0.50687673  0.18957721  0.58859697  1
  O  O85  1  0.98840548  0.17247562  0.58207663  1
  O  O86  1  0.07680647  0.01109338  0.58878002  1
  O  O87  1  0.59030712  0.00445666  0.58213444  1
  O  O88  1  0.41622432  0.85458466  0.59225115  1
  O  O89  1  0.90646319  0.80990023  0.58279231  1
  O  O90  1  0.48903776  0.80863383  0.08405825  1
  O  O91  1  0.01014988  0.82692133  0.09293796  1
  O  O92  1  0.40542276  0.00319833  0.08420237  1
  O  O93  1  0.91321608  0.97573426  0.08915154  1
  O  O94  1  0.09133048  0.17340239  0.08472785  1
  O  O95  1  0.57672224  0.14538227  0.08832543  1
  O  O96  1  0.35312788  0.16167193  0.74193563  1
  O  O97  1  0.86303077  0.17290270  0.75114584  1
  O  O98  1  0.22644365  0.30127722  0.75237444  1
  O  O99  1  0.73323734  0.31001414  0.74731955  1
  O  O100  1  0.42611292  0.52777673  0.74558316  1
  O  O101  1  0.91887230  0.51662490  0.74836635  1
  O  O102  1  0.35958026  0.54888874  0.25121427  1
  O  O103  1  0.85631696  0.54956744  0.24111541  1
  O  O104  1  0.41454296  0.31440881  0.24907838  1
  O  O105  1  0.92574944  0.31448843  0.24466170  1
  O  O106  1  0.22244266  0.13748493  0.24342313  1
  O  O107  1  0.72632807  0.15255418  0.25236932  1
  O  O108  1  0.31870219  0.50032707  0.92960345  1
  O  O109  1  0.82903118  0.52614419  0.92521293  1
  O  O110  1  0.42192843  0.36193515  0.93401859  1
  O  O111  1  0.93749246  0.34883324  0.92101811  1
  O  O112  1  0.24586646  0.15413980  0.93030552  1
  O  O113  1  0.73944845  0.13464975  0.92040275  1
  O  O114  1  0.32798017  0.13450860  0.42421535  1
  O  O115  1  0.81995314  0.13898736  0.42837897  1
  O  O116  1  0.24129918  0.34183571  0.42049884  1
  O  O117  1  0.74822215  0.34113572  0.42986910  1
  O  O118  1  0.43428442  0.52479362  0.41898156  1
  O  O119  1  0.92333074  0.48419495  0.43274018  1
  O  O120  1  0.16770779  0.50759770  0.06800458  1
  O  O121  1  0.65379028  0.48579677  0.07681876  1
  O  O122  1  0.07986647  0.66589806  0.08018731  1
  O  O123  1  0.57040178  0.67135220  0.06904737  1
  O  O124  1  0.25514148  0.85391729  0.07089234  1
  O  O125  1  0.74494831  0.82376438  0.07366971  1
  O  O126  1  0.15260735  0.82432589  0.57704582  1
  O  O127  1  0.66810977  0.82733874  0.56591693  1
  O  O128  1  0.24704497  0.67100076  0.57325270  1
  O  O129  1  0.75630391  0.65601089  0.56881932  1
  O  O130  1  0.06992373  0.47183279  0.56808815  1
  O  O131  1  0.57977137  0.49282472  0.57923541  1
  O  O132  1  0.13729849  0.83284812  0.24350996  1
  O  O133  1  0.64497560  0.84729969  0.25420865  1
  O  O134  1  0.27253210  0.71434907  0.25174160  1
  O  O135  1  0.77685525  0.69764514  0.23897572  1
  O  O136  1  0.07573042  0.46171596  0.24275586  1
  O  O137  1  0.57899608  0.48673683  0.24928484  1
  O  O138  1  0.14445550  0.44235170  0.75417992  1
  O  O139  1  0.63902599  0.46324864  0.74136316  1
  O  O140  1  0.08302991  0.67531448  0.74854551  1
  O  O141  1  0.57597615  0.69517026  0.74315253  1
  O  O142  1  0.27123186  0.85503121  0.73830333  1
  O  O143  1  0.77429900  0.83348684  0.75219449  1
loop_
_geom_bond_atom_site_label_1
_geom_bond_atom_site_label_2
_geom_bond_distance
_geom_bond_site_symmetry_2
Na0 O103 2.356488 1_555
Na0 O132 2.375442 1_655
Na0 O105 2.445552 1_555
Na0 O136 2.544492 1_655
Na0 O60 2.563649 1_655
Na0 O31 2.840259 1_555
Na1 O102 2.329841 1_555
Na1 O137 2.367574 1_555
Na1 O133 2.424010 1_555
Na1 O104 2.490398 1_555
Na1 O61 2.811065 1_555
Na1 O30 2.919637 1_555
Na2 O97 2.268741 1_555
Na2 O140 2.381018 1_655
Na2 O101 2.389726 1_555
Na2 O138 2.448018 1_655
Na2 O66 2.891497 1_655
Na2 O25 2.953071 1_555
Na3 O139 2.280431 1_555
Na3 O96 2.399674 1_555
Na3 O100 2.494525 1_555
Na3 O141 2.669906 1_555
Na3 O67 2.721766 1_555
Na3 O24 2.845449 1_555
Na4 O79 2.448095 1_555
Na4 O37 2.468401 1_556
Na4 O113 2.640583 1_555
Na4 O81 2.696877 1_545
Na4 O109 2.708161 1_555
Na4 O51 2.797198 1_555
Na4 O7 2.977980 1_555
Na5 O42 2.216704 1_555
Na5 O72 2.435359 1_545
Na5 O58 2.650244 1_545
Na5 O114 2.671475 1_555
Na5 O116 2.685116 1_555
Na5 O76 2.699489 1_555
Na6 O86 2.305508 1_565
Na6 O89 2.412930 1_455
Na6 O85 2.440957 1_465
Na6 O72 2.719671 1_555
Na6 O76 2.743838 1_565
Na6 O75 2.801281 1_455
Na7 O87 2.412686 1_565
Na7 O88 2.596196 1_555
Na7 O77 2.598178 1_565
Na7 O73 2.614250 1_555
Na7 O84 2.730059 1_565
Na7 O74 2.814182 1_555
Na8 O80 2.464726 1_545
Na8 O78 2.482601 1_555
Na8 O94 2.604949 1_556
Na8 O83 2.639009 1_445
Na8 O93 2.674379 1_446
Na8 O91 2.921748 1_546
Na9 O95 2.375885 1_555
Na9 O79 2.481859 1_554
Na9 O92 2.551658 1_555
Na9 O90 2.593478 1_545
Na9 O81 2.632036 1_544
Na9 O82 2.745686 1_544
Na10 O112 2.502612 1_555
Na10 O110 2.650597 1_555
Na10 O108 2.687803 1_555
Na10 O98 2.876018 1_555
Na10 O96 3.005315 1_555
Na10 O100 3.045921 1_555
Na11 O101 2.334822 1_555
Na11 O99 2.426134 1_555
Na11 O97 2.434670 1_555
Na12 O104 2.352014 1_555
Na12 O102 2.484412 1_555
Na12 O118 2.690962 1_555
Na12 O116 2.938048 1_555
Na12 O114 2.972887 1_555
Na12 O106 3.001932 1_555
Na13 O117 2.358917 1_555
Na13 O115 2.582313 1_555
Na13 O119 2.648089 1_555
Na13 O107 2.874902 1_555
Na14 O120 2.504268 1_555
Na14 O134 2.558625 1_555
Na14 O124 2.651068 1_555
Na14 O136 2.809848 1_555
Na14 O122 2.872015 1_555
Na14 O34 2.926376 1_555
Na14 O132 3.060397 1_555
Na15 O121 2.345065 1_555
Na15 O125 2.544154 1_555
Na15 O135 2.652529 1_555
Na15 O137 2.667857 1_555
Na15 O123 2.908591 1_555
Na16 O126 2.424063 1_555
Na16 O142 2.498169 1_555
Na16 O140 2.557635 1_555
Na16 O128 2.625663 1_555
Na17 O143 2.480112 1_555
Na17 O139 2.577230 1_555
Na17 O141 2.699692 1_555
Na17 O129 2.815568 1_555
Na17 O127 2.816382 1_555
Na17 O131 2.909640 1_555
La0 O72 2.241978 1_655
La0 O3 2.348084 1_555
La0 O75 2.359535 1_555
La0 O0 2.392687 1_665
La0 O76 2.431938 1_665
La0 O5 2.469708 1_565
La1 O7 2.166671 1_555
La1 O79 2.324321 1_555
La1 O10 2.379001 1_555
La1 O8 2.452282 1_545
La1 O82 2.500106 1_545
La1 O81 2.508618 1_545
La2 O28 2.184164 1_555
La2 O26 2.192401 1_555
La2 O98 2.435479 1_555
La2 O100 2.513291 1_555
La2 O96 2.535044 1_555
La2 O24 2.571583 1_555
La3 O99 2.235206 1_555
La3 O27 2.273786 1_555
La3 O97 2.356311 1_555
La3 O101 2.406087 1_555
La3 O25 2.550018 1_555
La3 O29 2.558293 1_555
La4 O34 2.269020 1_555
La4 O102 2.338160 1_555
La4 O104 2.371555 1_555
La4 O30 2.420666 1_555
La4 O106 2.459380 1_555
La4 O32 2.540476 1_555
La5 O35 2.172527 1_555
La5 O33 2.180009 1_555
La5 O107 2.446643 1_555
La5 O103 2.581441 1_555
La5 O105 2.585707 1_555
La5 O31 2.589270 1_555
La6 O41 2.175138 1_556
La6 O37 2.304382 1_556
La6 O113 2.442668 1_555
La6 O39 2.485375 1_556
La6 O111 2.501043 1_555
La6 O109 2.503143 1_555
La7 O44 2.161565 1_555
La7 O42 2.321925 1_555
La7 O46 2.409485 1_555
La7 O116 2.482323 1_555
La7 O118 2.553681 1_555
La7 O114 2.591928 1_555
La8 O134 2.250927 1_555
La8 O64 2.354629 1_555
La8 O62 2.354742 1_555
La8 O60 2.374703 1_555
La8 O136 2.509482 1_555
La8 O132 2.558284 1_555
La9 O65 2.156059 1_555
La9 O137 2.241206 1_555
La9 O61 2.456487 1_555
La9 O135 2.515254 1_555
La9 O63 2.524815 1_555
La9 O133 2.577496 1_555
La10 O68 2.160946 1_555
La10 O140 2.233536 1_555
La10 O142 2.455442 1_555
La10 O66 2.457775 1_555
La10 O70 2.505536 1_555
La10 O138 2.573783 1_555
La11 O143 2.279186 1_555
La11 O139 2.307255 1_555
La11 O71 2.389241 1_555
La11 O67 2.396078 1_555
La11 O69 2.459819 1_555
La11 O141 2.496169 1_555
O0 S0 1.484442 1_545
O1 S1 1.488808 1_555
O1 Sn0 2.164584 1_555
O2 Si0 1.665212 1_555
O2 Sn0 1.999435 1_565
O3 S2 1.491163 1_555
O4 Si1 1.648544 1_555
O4 Sn0 1.971783 1_555
O5 S3 1.471653 1_555
O6 S4 1.487028 1_555
O6 Sn1 2.161472 1_545
O7 Si2 1.651625 1_555
O8 S5 1.468074 1_555
O9 Si3 1.651599 1_655
O9 Sn1 1.961509 1_655
O10 S6 1.487191 1_555
O11 Si4 1.674100 1_545
O11 Sn1 1.978023 1_645
O12 S6 1.466528 1_565
O12 Sn3 2.302733 1_555
O13 Si4 1.681021 1_555
O13 Sn2 1.940636 1_655
O14 S4 1.491219 1_555
O14 Sn2 2.223708 1_545
O15 Si2 1.666883 1_555
O15 Sn3 1.950678 1_545
O16 Si3 1.642770 1_555
O16 Sn2 1.942566 1_555
O17 S5 1.492156 1_555
O17 Sn3 2.154049 1_555
O18 Si0 1.666285 1_555
O18 Sn5 1.959119 1_565
O19 S2 1.482190 1_555
O19 Sn4 2.209609 1_665
O20 S3 1.495660 1_455
O20 Sn4 2.134445 1_555
O21 Si1 1.636076 1_555
O21 Sn5 1.956520 1_555
O22 S0 1.495163 1_555
O22 Sn4 2.149652 1_565
O23 S1 1.488420 1_565
O23 Sn5 2.256789 1_565
O24 S7 1.476366 1_555
O25 S8 1.464575 1_555
O26 Si5 1.616854 1_555
O27 Si6 1.599014 1_555
O28 Si7 1.620998 1_555
O29 S9 1.454258 1_555
O30 S10 1.485989 1_555
O31 S11 1.480078 1_555
O32 S12 1.465017 1_555
O33 Si8 1.625335 1_555
O34 Si9 1.615672 1_555
O35 Si10 1.630134 1_555
O36 Si9 1.637990 1_555
O36 Sn6 1.981581 1_554
O37 Si10 1.635779 1_555
O38 S10 1.488615 1_555
O38 Sn6 2.306717 1_554
O39 S11 1.468128 1_555
O40 S12 1.494516 1_555
O40 Sn6 2.194995 1_554
O41 Si8 1.621745 1_555
O42 Si5 1.638371 1_555
O43 Si6 1.655553 1_555
O43 Sn7 1.969144 1_555
O44 Si7 1.632590 1_555
O45 S9 1.507933 1_555
O45 Sn7 2.154542 1_555
O46 S7 1.478918 1_555
O47 S8 1.502106 1_555
O47 Sn7 2.241530 1_555
O48 S13 1.497721 1_555
O48 Sn8 2.115882 1_556
O49 S14 1.492228 1_555
O49 Sn9 2.240346 1_556
O50 S15 1.521291 1_555
O50 Sn8 2.154750 1_556
O51 Si11 1.664361 1_555
O51 Sn9 1.954980 1_556
O52 Si12 1.679527 1_555
O52 Sn8 1.975339 1_556
O53 S16 1.489365 1_555
O53 Sn9 2.218627 1_556
O54 S17 1.486250 1_555
O54 Sn10 2.283146 1_555
O55 S18 1.478502 1_555
O55 Sn11 2.156480 1_555
O56 S19 1.473012 1_555
O56 Sn10 2.304627 1_555
O57 Si13 1.668734 1_555
O57 Sn11 1.974324 1_555
O58 Si14 1.660648 1_555
O58 Sn10 1.982016 1_555
O59 S20 1.503853 1_555
O59 Sn11 2.223321 1_555
O60 Si14 1.647960 1_555
O61 S20 1.484925 1_555
O62 S17 1.485227 1_555
O63 S18 1.472323 1_555
O64 S19 1.476382 1_555
O65 Si13 1.623645 1_555
O66 S15 1.475691 1_555
O67 Si11 1.629053 1_555
O68 Si12 1.611897 1_555
O69 S16 1.461182 1_555
O70 S13 1.467437 1_555
O71 S14 1.468960 1_555
O72 Si14 1.669238 1_555
O73 S20 1.496024 1_555
O73 Sn0 2.357346 1_565
O74 S17 1.493384 1_555
O74 Sn0 2.221140 1_565
O75 S18 1.492900 1_555
O76 S19 1.501468 1_555
O77 Si13 1.672740 1_555
O77 Sn0 2.038963 1_555
O78 S15 1.489770 1_555
O78 Sn1 2.416669 1_545
O79 Si11 1.654745 1_555
O80 Si12 1.672551 1_555
O80 Sn1 2.047218 1_555
O81 S16 1.495249 1_555
O82 S13 1.472018 1_555
O83 S14 1.495847 1_555
O83 Sn1 2.237332 1_655
O84 S7 1.477671 1_555
O84 Sn3 2.217555 1_545
O85 S8 1.483523 1_555
O85 Sn2 2.517157 1_645
O86 Si5 1.671741 1_555
O86 Sn2 1.983594 1_545
O87 Si6 1.664515 1_555
O87 Sn3 2.023412 1_545
O88 Si7 1.654468 1_555
O88 Sn3 1.993971 1_555
O89 S9 1.493785 1_555
O89 Sn2 2.345433 1_655
O90 S10 1.488465 1_555
O90 Sn5 2.423876 1_565
O91 S11 1.495473 1_455
O91 Sn4 2.138024 1_565
O92 S12 1.497497 1_555
O92 Sn5 2.289408 1_555
O93 Si8 1.670148 1_565
O93 Sn4 1.961215 1_665
O94 Si9 1.677216 1_555
O94 Sn4 1.989130 1_555
O95 Si10 1.676141 1_555
O95 Sn5 1.976607 1_555
O96 S6 1.495387 1_555
O97 Si4 1.628188 1_545
O98 S4 1.482751 1_555
O99 Si2 1.609463 1_555
O100 S5 1.494860 1_555
O101 Si3 1.615631 1_655
O102 Si0 1.643518 1_555
O103 S2 1.488178 1_555
O104 Si1 1.636454 1_555
O105 S3 1.483672 1_555
O106 S0 1.460286 1_545
O107 S1 1.485546 1_555
O108 S13 1.491354 1_555
O108 Sn6 2.174810 1_555
O109 S14 1.483700 1_555
O110 Si11 1.670274 1_555
O110 Sn6 1.995575 1_555
O111 S15 1.474024 1_655
O112 Si12 1.645054 1_545
O112 Sn6 2.002586 1_555
O113 S16 1.498680 1_545
O114 S17 1.482286 1_545
O115 S18 1.485122 1_545
O115 Sn7 2.224748 1_555
O116 S19 1.487698 1_555
O117 Si13 1.646494 1_555
O117 Sn7 2.021203 1_555
O118 S20 1.481846 1_555
O119 Si14 1.654163 1_655
O119 Sn7 2.034749 1_555
O120 Si9 1.670058 1_555
O120 Sn8 1.992813 1_555
O121 Si10 1.643478 1_555
O121 Sn9 2.018969 1_555
O122 S11 1.501003 1_455
O122 Sn8 2.182634 1_555
O123 S10 1.490078 1_555
O123 Sn9 2.174199 1_555
O124 S12 1.501309 1_565
O124 Sn8 2.238618 1_555
O125 Si8 1.646905 1_565
O125 Sn9 1.983527 1_555
O126 Si5 1.648132 1_565
O126 Sn10 2.002347 1_555
O127 Si6 1.673010 1_565
O127 Sn11 1.957359 1_555
O128 Si7 1.663786 1_555
O128 Sn10 1.968062 1_555
O129 S9 1.499325 1_555
O129 Sn11 2.201487 1_555
O130 S8 1.504182 1_455
O130 Sn10 2.121004 1_555
O131 S7 1.507941 1_555
O131 Sn11 2.133692 1_555
O132 S0 1.491237 1_555
O133 S1 1.482473 1_565
O134 Si0 1.639627 1_555
O135 S2 1.471485 1_555
O136 S3 1.491855 1_455
O137 Si1 1.662949 1_555
O138 S4 1.480269 1_555
O139 Si2 1.647487 1_555
O140 Si3 1.661519 1_555
O141 S5 1.481444 1_555
O142 S6 1.481948 1_565
O143 Si4 1.620966 1_555
