# generated using pymatgen
data_CoAs2
_symmetry_space_group_name_H-M   'P 1'
_cell_length_a   5.84491764
_cell_length_b   5.88352459
_cell_length_c   5.93509456
_cell_angle_alpha   115.79156739
_cell_angle_beta   90.00000000
_cell_angle_gamma   90.00000000
_symmetry_Int_Tables_number   1
_chemical_formula_structural   CoAs2
_chemical_formula_sum   'Co4 As8'
_cell_volume   183.76838978
_cell_formula_units_Z   4
loop_
 _symmetry_equiv_pos_site_id
 _symmetry_equiv_pos_as_xyz
  1  'x, y, z'
loop_
 _atom_site_type_symbol
 _atom_site_label
 _atom_site_symmetry_multiplicity
 _atom_site_fract_x
 _atom_site_fract_y
 _atom_site_fract_z
 _atom_site_occupancy
  Co  Co0  1  0.99852842  0.72900566  0.71559599  1
  Co  Co1  1  0.49852842  0.27099434  0.78440401  1
  Co  Co2  1  0.00147158  0.27099434  0.28440401  1
  Co  Co3  1  0.50147158  0.72900566  0.21559599  1
  As  As0  1  0.63403656  0.65671541  0.82571458  1
  As  As1  1  0.13403656  0.34328459  0.67428542  1
  As  As2  1  0.36596344  0.34328459  0.17428542  1
  As  As3  1  0.86596344  0.65671541  0.32571458  1
  As  As4  1  0.36688529  0.84588408  0.63293160  1
  As  As5  1  0.86688529  0.15411592  0.86706840  1
  As  As6  1  0.63311471  0.15411592  0.36706840  1
  As  As7  1  0.13311471  0.84588408  0.13293160  1
loop_
_geom_bond_atom_site_label_1
_geom_bond_atom_site_label_2
_geom_bond_distance
_geom_bond_site_symmetry_2
As0 Co3 2.297682 1_556
As0 Co1 2.313745 1_555
As0 Co0 2.321346 1_555
As0 As4 2.468653 1_555
As1 Co2 2.297682 1_555
As1 Co0 2.313745 1_455
As1 Co1 2.321346 1_555
As1 As5 2.468653 1_455
As2 Co1 2.297682 1_554
As2 Co3 2.313745 1_555
As2 Co2 2.321346 1_555
As2 As6 2.468653 1_555
As3 Co0 2.297682 1_555
As3 Co2 2.313745 1_655
As3 Co3 2.321346 1_555
As3 As7 2.468653 1_655
As4 Co0 2.375425 1_455
As4 Co1 2.387323 1_565
As4 Co3 2.396802 1_555
As5 Co1 2.375425 1_555
As5 Co0 2.387323 1_545
As5 Co2 2.396802 1_656
As6 Co2 2.375425 1_655
As6 Co3 2.387323 1_545
As6 Co1 2.396802 1_555
As7 Co3 2.375425 1_555
As7 Co2 2.387323 1_565
As7 Co0 2.396802 1_454
