# generated using pymatgen
data_PWO4
_symmetry_space_group_name_H-M   'P 1'
_cell_length_a   5.10752300
_cell_length_b   5.99302500
_cell_length_c   10.20480200
_cell_angle_alpha   90.00000000
_cell_angle_beta   90.00000000
_cell_angle_gamma   90.00000000
_symmetry_Int_Tables_number   1
_chemical_formula_structural   PWO4
_chemical_formula_sum   'P4 W4 O16'
_cell_volume   312.36401976
_cell_formula_units_Z   4
loop_
 _symmetry_equiv_pos_site_id
 _symmetry_equiv_pos_as_xyz
  1  'x, y, z'
loop_
 _atom_site_type_symbol
 _atom_site_label
 _atom_site_symmetry_multiplicity
 _atom_site_fract_x
 _atom_site_fract_y
 _atom_site_fract_z
 _atom_site_occupancy
  P  P0  1  0.13103200  0.75000000  0.08632800  1
  P  P1  1  0.36896800  0.75000000  0.58632800  1
  P  P2  1  0.86896800  0.25000000  0.91367200  1
  P  P3  1  0.63103200  0.25000000  0.41367200  1
  W  W0  1  0.56434600  0.75000000  0.27161300  1
  W  W1  1  0.93565400  0.75000000  0.77161300  1
  W  W2  1  0.43565400  0.25000000  0.72838700  1
  W  W3  1  0.06434600  0.25000000  0.22838700  1
  O  O0  1  0.16138800  0.25000000  0.88574100  1
  O  O1  1  0.77660000  0.45272800  0.34223500  1
  O  O2  1  0.27660000  0.54727200  0.15776500  1
  O  O3  1  0.22340000  0.95272800  0.65776500  1
  O  O4  1  0.72340000  0.04727200  0.84223500  1
  O  O5  1  0.22340000  0.54727200  0.65776500  1
  O  O6  1  0.72340000  0.45272800  0.84223500  1
  O  O7  1  0.77660000  0.04727200  0.34223500  1
  O  O8  1  0.83861200  0.75000000  0.11425900  1
  O  O9  1  0.33861200  0.25000000  0.38574100  1
  O  O10  1  0.27660000  0.95272800  0.15776500  1
  O  O11  1  0.66138800  0.75000000  0.61425900  1
  O  O12  1  0.31270700  0.75000000  0.44022900  1
  O  O13  1  0.81270700  0.25000000  0.05977100  1
  O  O14  1  0.68729300  0.25000000  0.55977100  1
  O  O15  1  0.18729300  0.75000000  0.94022900  1
loop_
_geom_bond_atom_site_label_1
_geom_bond_atom_site_label_2
_geom_bond_distance
_geom_bond_site_symmetry_2
O0 P2 1.520497 1_455
O0 W2 2.130911 1_555
O1 P3 1.600105 1_555
O1 W0 2.206488 1_555
O1 W3 2.232893 1_655
O2 P0 1.600105 1_555
O2 W3 2.206488 1_555
O2 W0 2.232893 1_555
O3 P1 1.600105 1_555
O3 W2 2.206488 1_565
O3 W1 2.232893 1_455
O4 P2 1.600105 1_555
O4 W1 2.206488 1_545
O4 W2 2.232893 1_555
O5 P1 1.600105 1_555
O5 W2 2.206488 1_555
O5 W1 2.232893 1_455
O6 P2 1.600105 1_555
O6 W1 2.206488 1_555
O6 W2 2.232893 1_555
O7 P3 1.600105 1_555
O7 W0 2.206488 1_545
O7 W3 2.232893 1_655
O8 P0 1.520497 1_655
O8 W0 2.130911 1_555
O9 P3 1.520497 1_555
O9 W3 2.130911 1_555
O10 P0 1.600105 1_555
O10 W3 2.206488 1_565
O10 W0 2.232893 1_555
O11 P1 1.520497 1_555
O11 W1 2.130911 1_555
O12 P1 1.518351 1_555
O12 W0 2.147710 1_555
O13 P2 1.518351 1_554
O13 W3 2.147710 1_655
O14 P3 1.518351 1_555
O14 W2 2.147710 1_555
O15 P0 1.518351 1_556
O15 W1 2.147710 1_455
