# generated using pymatgen
data_MgMn4O8
_symmetry_space_group_name_H-M   'P 1'
_cell_length_a   5.95228308
_cell_length_b   5.95228162
_cell_length_c   5.81518541
_cell_angle_alpha   60.75859465
_cell_angle_beta   60.75861007
_cell_angle_gamma   64.06425838
_symmetry_Int_Tables_number   1
_chemical_formula_structural   MgMn4O8
_chemical_formula_sum   'Mg1 Mn4 O8'
_cell_volume   151.42828035
_cell_formula_units_Z   1
loop_
 _symmetry_equiv_pos_site_id
 _symmetry_equiv_pos_as_xyz
  1  'x, y, z'
loop_
 _atom_site_type_symbol
 _atom_site_label
 _atom_site_symmetry_multiplicity
 _atom_site_fract_x
 _atom_site_fract_y
 _atom_site_fract_z
 _atom_site_occupancy
  Mg  Mg0  1  0.83407073  0.83407073  0.66609797  1
  Mn  Mn0  1  0.13831436  0.13831436  0.86191991  1
  Mn  Mn1  1  0.15330983  0.15330983  0.34680900  1
  Mn  Mn2  1  0.55407480  0.55407480  0.20267836  1
  Mn  Mn3  1  0.55408079  0.55408079  0.68946189  1
  O  O0  1  0.30289614  0.30289514  0.45396911  1
  O  O1  1  0.42741069  0.80827817  0.38232086  1
  O  O2  1  0.30290635  0.30290735  0.94054281  1
  O  O3  1  0.80827917  0.42741069  0.38231986  1
  O  O4  1  0.44451808  0.81924510  0.86827784  1
  O  O5  1  0.81924510  0.44451908  0.86827684  1
  O  O6  1  0.99293895  0.99293795  0.26337792  1
  O  O7  1  0.99295501  0.99295601  0.75103062  1
loop_
_geom_bond_atom_site_label_1
_geom_bond_atom_site_label_2
_geom_bond_distance
_geom_bond_site_symmetry_2
Mg0 O7 1.930744 1_555
Mg0 O6 1.930779 1_555
Mg0 O5 2.044696 1_555
Mg0 O4 2.044702 1_555
Mn0 O6 1.911911 1_446
Mn0 O7 1.912593 1_445
Mn0 O2 1.960477 1_555
Mn0 O0 1.961041 1_555
Mn0 O4 1.974737 1_545
Mn0 O5 1.974740 1_455
Mn1 O2 1.936567 1_554
Mn1 O0 1.936870 1_555
Mn1 O6 1.939024 1_445
Mn1 O7 1.939186 1_445
Mn1 O3 1.976403 1_455
Mn1 O1 1.976406 1_545
Mn2 O1 1.930310 1_555
Mn2 O3 1.930311 1_555
Mn2 O4 2.009453 1_554
Mn2 O5 2.009455 1_554
Mn2 O0 2.071783 1_555
Mn3 O1 1.930140 1_555
Mn3 O3 1.930146 1_555
Mn3 O5 2.009543 1_555
Mn3 O4 2.009546 1_555
Mn3 O2 2.071740 1_555
