# generated using pymatgen
data_HgH2SeO5
_symmetry_space_group_name_H-M   'P 1'
_cell_length_a   7.79172900
_cell_length_b   8.07932200
_cell_length_c   8.61446848
_cell_angle_alpha   58.51679644
_cell_angle_beta   90.00000000
_cell_angle_gamma   90.00000000
_symmetry_Int_Tables_number   1
_chemical_formula_structural   HgH2SeO5
_chemical_formula_sum   'Hg4 H8 Se4 O20'
_cell_volume   462.46729141
_cell_formula_units_Z   4
loop_
 _symmetry_equiv_pos_site_id
 _symmetry_equiv_pos_as_xyz
  1  'x, y, z'
loop_
 _atom_site_type_symbol
 _atom_site_label
 _atom_site_symmetry_multiplicity
 _atom_site_fract_x
 _atom_site_fract_y
 _atom_site_fract_z
 _atom_site_occupancy
  Hg  Hg0  1  0.73218100  0.20757200  0.24282800  1
  Hg  Hg1  1  0.23218100  0.79242800  0.25717200  1
  Hg  Hg2  1  0.26781900  0.79242800  0.75717200  1
  Hg  Hg3  1  0.76781900  0.20757200  0.74282800  1
  H  H0  1  0.56534000  0.41613800  0.87825200  1
  H  H1  1  0.06534000  0.58386200  0.62174800  1
  H  H2  1  0.43466000  0.58386200  0.12174800  1
  H  H3  1  0.93466000  0.41613800  0.37825200  1
  H  H4  1  0.47821800  0.20764500  0.98043400  1
  H  H5  1  0.97821800  0.79235500  0.51956600  1
  H  H6  1  0.52178200  0.79235500  0.01956600  1
  H  H7  1  0.02178200  0.20764500  0.48043400  1
  Se  Se0  1  0.11410800  0.26411800  0.98424400  1
  Se  Se1  1  0.61410800  0.73588200  0.51575600  1
  Se  Se2  1  0.88589200  0.73588200  0.01575600  1
  Se  Se3  1  0.38589200  0.26411800  0.48424400  1
  O  O0  1  0.51600300  0.11780600  0.65924200  1
  O  O1  1  0.01600300  0.88219400  0.84075800  1
  O  O2  1  0.48399700  0.88219400  0.34075800  1
  O  O3  1  0.98399700  0.11780600  0.15924200  1
  O  O4  1  0.49238900  0.35048000  0.28427700  1
  O  O5  1  0.99238900  0.64952000  0.21572300  1
  O  O6  1  0.50761100  0.64952000  0.71572300  1
  O  O7  1  0.00761100  0.35048000  0.78427700  1
  O  O8  1  0.30500200  0.44940500  0.49194400  1
  O  O9  1  0.80500200  0.55059500  0.00805600  1
  O  O10  1  0.69499800  0.55059500  0.50805600  1
  O  O11  1  0.19499800  0.44940500  0.99194400  1
  O  O12  1  0.22595300  0.11411100  0.49915700  1
  O  O13  1  0.72595300  0.88588900  0.00084300  1
  O  O14  1  0.77404700  0.88588900  0.50084300  1
  O  O15  1  0.27404700  0.11411100  0.99915700  1
  O  O16  1  0.90771200  0.27435600  0.45669000  1
  O  O17  1  0.40771200  0.72564400  0.04331000  1
  O  O18  1  0.09228800  0.72564400  0.54331000  1
  O  O19  1  0.59228800  0.27435600  0.95669000  1
loop_
_geom_bond_atom_site_label_1
_geom_bond_atom_site_label_2
_geom_bond_distance
_geom_bond_site_symmetry_2
Hg0 O4 2.319935 1_555
Hg0 O3 2.332311 1_555
Hg0 O14 2.401591 1_545
Hg0 O19 2.483130 1_554
Hg0 O9 2.497687 1_555
Hg0 O16 2.567897 1_555
Hg1 O5 2.319935 1_455
Hg1 O2 2.332311 1_555
Hg1 O15 2.401591 1_564
Hg1 O18 2.483130 1_555
Hg1 O8 2.497687 1_555
Hg1 O17 2.567897 1_555
Hg2 O6 2.319935 1_555
Hg2 O1 2.332311 1_555
Hg2 O12 2.401591 1_565
Hg2 O17 2.483130 1_556
Hg2 O11 2.497687 1_555
Hg2 O18 2.567897 1_555
Hg3 O7 2.319935 1_655
Hg3 O0 2.332311 1_555
Hg3 O13 2.401591 1_546
Hg3 O16 2.483130 1_555
Hg3 O10 2.497687 1_555
Hg3 O19 2.567897 1_555
H0 O19 1.002186 1_555
H0 O6 1.720616 1_555
H1 O18 1.002186 1_555
H1 O7 1.720616 1_555
H2 O17 1.002186 1_555
H2 O4 1.720616 1_555
H3 O16 1.002186 1_555
H3 O5 1.720616 1_555
H4 O19 1.003572 1_555
H4 O15 1.732213 1_555
H5 O18 1.003572 1_655
H5 O14 1.732213 1_555
H6 O17 1.003572 1_555
H6 O13 1.732213 1_555
H7 O16 1.003572 1_455
H7 O12 1.732213 1_555
O0 Se3 1.684163 1_555
O1 Se2 1.684163 1_456
O2 Se1 1.684163 1_555
O3 Se0 1.684163 1_654
O4 Se3 1.699225 1_555
O5 Se2 1.699225 1_555
O6 Se1 1.699225 1_555
O7 Se0 1.699225 1_555
O8 Se3 1.657211 1_555
O9 Se2 1.657211 1_555
O10 Se1 1.657211 1_555
O11 Se0 1.657211 1_555
O12 Se3 1.695798 1_555
O13 Se2 1.695798 1_555
O14 Se1 1.695798 1_555
O15 Se0 1.695798 1_555
