# generated using pymatgen
data_Na2Sc4Ta4Si5S7O48
_symmetry_space_group_name_H-M   'P 1'
_cell_length_a   17.76609729
_cell_length_b   8.88013338
_cell_length_c   23.02258785
_cell_angle_alpha   90.03704197
_cell_angle_beta   89.93618364
_cell_angle_gamma   120.04266427
_symmetry_Int_Tables_number   1
_chemical_formula_structural   Na2Sc4Ta4Si5S7O48
_chemical_formula_sum   'Na6 Sc12 Ta12 Si15 S21 O144'
_cell_volume   3144.19269299
_cell_formula_units_Z   3
loop_
 _symmetry_equiv_pos_site_id
 _symmetry_equiv_pos_as_xyz
  1  'x, y, z'
loop_
 _atom_site_type_symbol
 _atom_site_label
 _atom_site_symmetry_multiplicity
 _atom_site_fract_x
 _atom_site_fract_y
 _atom_site_fract_z
 _atom_site_occupancy
  Na  Na0  1  0.00050459  0.99402468  0.49688982  1
  Na  Na1  1  0.49802168  0.00366729  0.99575290  1
  Na  Na2  1  0.33208375  0.32404749  0.84045230  1
  Na  Na3  1  0.83321937  0.33699946  0.83552806  1
  Na  Na4  1  0.33121302  0.32727258  0.33322803  1
  Na  Na5  1  0.83789852  0.34018509  0.33546783  1
  Sc  Sc0  1  0.00683832  0.99265524  0.35426018  1
  Sc  Sc1  1  0.50493676  0.01941959  0.85512816  1
  Sc  Sc2  1  0.00594101  0.00473404  0.65272264  1
  Sc  Sc3  1  0.50547233  0.00715995  0.15092531  1
  Sc  Sc4  1  0.32752014  0.32490465  0.97584418  1
  Sc  Sc5  1  0.83960682  0.33400259  0.98399248  1
  Sc  Sc6  1  0.33874830  0.34452907  0.48470693  1
  Sc  Sc7  1  0.83278897  0.33107903  0.47960341  1
  Sc  Sc8  1  0.15744199  0.67109917  0.31043379  1
  Sc  Sc9  1  0.66604168  0.66953162  0.30560936  1
  Sc  Sc10  1  0.16636959  0.67328087  0.80797673  1
  Sc  Sc11  1  0.65842023  0.64503216  0.81061923  1
  Ta  Ta0  1  0.50335126  0.01187961  0.35154096  1
  Ta  Ta1  1  0.00874021  0.99520685  0.85491728  1
  Ta  Ta2  1  0.50364755  0.01032435  0.64083658  1
  Ta  Ta3  1  0.00515860  -0.00006406  0.13962644  1
  Ta  Ta4  1  0.33398953  0.34534567  0.68744670  1
  Ta  Ta5  1  0.82998534  0.32724278  0.69147194  1
  Ta  Ta6  1  0.32947351  0.32792676  0.18791924  1
  Ta  Ta7  1  0.83382770  0.32319563  0.18550058  1
  Ta  Ta8  1  0.16230186  0.66666813  0.02324123  1
  Ta  Ta9  1  0.66538239  0.66348952  0.02102861  1
  Ta  Ta10  1  0.16549514  0.66798657  0.52176126  1
  Ta  Ta11  1  0.66476193  0.66924321  0.52582974  1
  Si  Si0  1  0.14176317  0.99758704  0.24972935  1
  Si  Si1  1  0.64710081  0.00550782  0.24883634  1
  Si  Si2  1  0.49937596  0.29172749  0.24793646  1
  Si  Si3  1  0.14622806  0.29272237  0.74989844  1
  Si  Si4  1  0.64093737  0.28569443  0.75048642  1
  Si  Si5  1  0.00055096  0.71121329  0.74887039  1
  Si  Si6  1  0.47446291  0.33192405  0.58294110  1
  Si  Si7  1  0.69229300  0.05249895  0.58258760  1
  Si  Si8  1  0.33236400  0.62392015  0.58311297  1
  Si  Si9  1  0.97559342  0.61783668  0.08275952  1
  Si  Si10  1  0.83242092  0.03915375  0.08244697  1
  Si  Si11  1  0.19279703  0.34045302  0.08157568  1
  Si  Si12  1  0.51967387  0.37473147  0.91663812  1
  Si  Si13  1  0.16966408  0.95345242  0.91517495  1
  Si  Si14  1  0.01882313  0.66426794  0.41679721  1
  S  S0  1  0.35559521  0.71013370  0.25069576  1
  S  S1  1  0.85779452  0.71096579  0.24863603  1
  S  S2  1  -0.00100069  0.28428001  0.24928820  1
  S  S3  1  0.49972288  0.71440925  0.74942960  1
  S  S4  1  0.35726991  0.00343802  0.74802200  1
  S  S5  1  0.85509854  0.99881119  0.75105292  1
  S  S6  1  0.97829878  0.33284091  0.58268063  1
  S  S7  1  0.18862617  0.04388332  0.58241716  1
  S  S8  1  0.83397146  0.62318464  0.58247790  1
  S  S9  1  0.47792754  0.62291525  0.08207882  1
  S  S10  1  0.33399878  0.04408629  0.08233374  1
  S  S11  1  0.68902387  0.33405418  0.08210452  1
  S  S12  1  0.31063978  0.66891411  0.91696348  1
  S  S13  1  0.81088634  0.66882594  0.91585767  1
  S  S14  1  0.02213567  0.37599246  0.91546288  1
  S  S15  1  0.66757328  0.95424583  0.91644817  1
  S  S16  1  0.31129025  0.95395170  0.41591351  1
  S  S17  1  0.81019063  0.95238811  0.41713951  1
  S  S18  1  0.16760047  0.38104284  0.41666700  1
  S  S19  1  0.66592001  0.37885385  0.41610983  1
  S  S20  1  0.52314058  0.66844695  0.41591177  1
  O  O0  1  0.10578851  0.04622615  0.30708317  1
  O  O1  1  0.59485957  0.03212298  0.30717005  1
  O  O2  1  0.41389049  0.79495499  0.30351101  1
  O  O3  1  0.91094672  0.78494428  0.30161736  1
  O  O4  1  0.48116951  0.15887727  0.30706721  1
  O  O5  1  0.97983444  0.17847029  0.30227238  1
  O  O6  1  0.09584447  0.15889123  0.80687743  1
  O  O7  1  0.60451893  0.16328141  0.80690998  1
  O  O8  1  0.48036126  0.78206725  0.80199525  1
  O  O9  1  0.97945518  0.80115400  0.80673338  1
  O  O10  1  0.41112497  0.03816878  0.80060847  1
  O  O11  1  0.91105756  0.03537677  0.80257927  1
  O  O12  1  0.40101532  0.98094508  0.69641555  1
  O  O13  1  0.89331146  0.97623973  0.69757329  1
  O  O14  1  0.08898544  0.20459447  0.69283923  1
  O  O15  1  0.58147071  0.18385040  0.69396373  1
  O  O16  1  0.00916188  0.82231594  0.69209881  1
  O  O17  1  0.50765726  0.81629722  0.69715475  1
  O  O18  1  0.39450600  0.81325978  0.19856099  1
  O  O19  1  0.89829618  0.81927623  0.19737517  1
  O  O20  1  0.00730821  0.19896069  0.19758117  1
  O  O21  1  0.51029496  0.19631249  0.19302143  1
  O  O22  1  0.08085069  0.97812466  0.19440110  1
  O  O23  1  0.58770993  0.97319793  0.19337132  1
  O  O24  1  0.42934648  0.36265084  0.63992196  1
  O  O25  1  0.94049568  0.36579906  0.63500698  1
  O  O26  1  0.24229950  0.12220082  0.63477482  1
  O  O27  1  0.75558270  0.14291131  0.63875079  1
  O  O28  1  0.31504539  0.49403519  0.63990068  1
  O  O29  1  0.81854935  0.51377069  0.63474350  1
  O  O30  1  0.44016391  0.51443705  0.13559177  1
  O  O31  1  0.92768614  0.49572179  0.14045598  1
  O  O32  1  0.32066935  0.12876666  0.13595858  1
  O  O33  1  0.81484548  0.13479254  0.14011311  1
  O  O34  1  0.25496321  0.36806547  0.13993660  1
  O  O35  1  0.74281009  0.36103468  0.13517947  1
  O  O36  1  0.23406362  0.29833327  0.02813474  1
  O  O37  1  0.72841140  0.30755538  0.03033938  1
  O  O38  1  0.42561008  0.54195305  0.03115788  1
  O  O39  1  0.91761903  0.53870078  0.02639498  1
  O  O40  1  0.34960372  0.15217836  0.03169837  1
  O  O41  1  0.84925866  0.16047298  0.02754451  1
  O  O42  1  0.22819406  0.14820192  0.53003295  1
  O  O43  1  0.73285577  0.16641706  0.52608878  1
  O  O44  1  0.34937963  0.53871148  0.52718650  1
  O  O45  1  0.84770965  0.54454383  0.53052634  1
  O  O46  1  0.41877505  0.29838314  0.52546363  1
  O  O47  1  0.92559641  0.30978526  0.53074403  1
  O  O48  1  0.26656160  0.69114845  0.97010621  1
  O  O49  1  0.76829015  0.69188621  0.97004019  1
  O  O50  1  0.07547568  0.45595135  0.96970661  1
  O  O51  1  0.58578484  0.48057432  0.97403241  1
  O  O52  1  0.15455457  0.83024378  0.97376826  1
  O  O53  1  0.65859409  0.84329568  0.97007141  1
  O  O54  1  0.26988482  0.84623543  0.46973639  1
  O  O55  1  0.76502641  0.83953503  0.47001443  1
  O  O56  1  0.15858810  0.47387087  0.47002877  1
  O  O57  1  0.65222019  0.45891626  0.46907975  1
  O  O58  1  0.08409250  0.68787919  0.47405365  1
  O  O59  1  0.57760747  0.69289118  0.46953573  1
  O  O60  1  0.06520133  0.63549998  0.36116762  1
  O  O61  1  0.56470976  0.64216422  0.36548104  1
  O  O62  1  0.25864731  0.87088919  0.36464291  1
  O  O63  1  0.75760515  0.87059885  0.36580573  1
  O  O64  1  0.18158990  0.48584815  0.36498628  1
  O  O65  1  0.67830436  0.48355761  0.36474353  1
  O  O66  1  0.06260997  0.48339389  0.86498794  1
  O  O67  1  0.56734121  0.49508536  0.86096186  1
  O  O68  1  0.18077801  0.86222808  0.85971659  1
  O  O69  1  0.68161689  0.87769076  0.86490333  1
  O  O70  1  0.25906250  0.64269469  0.86528369  1
  O  O71  1  0.75743492  0.64390822  0.86472782  1
  O  O72  1  0.01247552  0.84136665  0.41497497  1
  O  O73  1  0.51430995  0.82641006  0.40922267  1
  O  O74  1  0.39879426  0.96737795  0.40928704  1
  O  O75  1  0.89734574  0.97132685  0.41404069  1
  O  O76  1  0.08578460  0.21106726  0.41505874  1
  O  O77  1  0.58396129  0.20053857  0.40876605  1
  O  O78  1  0.01123212  0.19878070  0.90871337  1
  O  O79  1  0.51433378  0.18561387  0.91494494  1
  O  O80  1  0.07831943  0.96620419  0.90801830  1
  O  O81  1  0.58577833  0.96028353  0.91507125  1
  O  O82  1  0.39842567  0.82736137  0.91331374  1
  O  O83  1  0.89675057  0.82926254  0.91006789  1
  O  O84  1  0.48974578  0.16941669  0.59511804  1
  O  O85  1  0.98927550  0.18016399  0.58843316  1
  O  O86  1  0.10022685  0.01688312  0.58811372  1
  O  O87  1  0.59488131  0.01384917  0.59687350  1
  O  O88  1  0.41368051  0.80990178  0.60063229  1
  O  O89  1  0.90699771  0.80050284  0.58935276  1
  O  O90  1  0.48988605  0.79860095  0.08974201  1
  O  O91  1  0.98910945  0.80977622  0.09549647  1
  O  O92  1  0.40854154  0.01683376  0.09124851  1
  O  O93  1  0.91392986  0.01811023  0.10111803  1
  O  O94  1  0.09580316  0.17751692  0.09744262  1
  O  O95  1  0.60084564  0.18328132  0.08870663  1
  O  O96  1  0.34812269  0.16280770  0.73863111  1
  O  O97  1  0.84930015  0.16659874  0.74308839  1
  O  O98  1  0.24192594  0.29774978  0.74098515  1
  O  O99  1  0.73972882  0.30574660  0.73755846  1
  O  O100  1  0.41940426  0.53054275  0.74107045  1
  O  O101  1  0.91151378  0.51544063  0.73852295  1
  O  O102  1  0.35133825  0.53555711  0.24454709  1
  O  O103  1  0.84743692  0.53249566  0.24021413  1
  O  O104  1  0.41231424  0.31084797  0.24016286  1
  O  O105  1  0.91903449  0.30842080  0.24124575  1
  O  O106  1  0.24075963  0.17434079  0.23725102  1
  O  O107  1  0.74211441  0.18735982  0.24285452  1
  O  O108  1  0.32121115  0.51566157  0.92467654  1
  O  O109  1  0.82032139  0.51384250  0.92336673  1
  O  O110  1  0.42739799  0.36106739  0.92548641  1
  O  O111  1  0.93431281  0.35653805  0.92250834  1
  O  O112  1  0.24857102  0.14820016  0.92146156  1
  O  O113  1  0.74333032  0.13066061  0.92463315  1
  O  O114  1  0.32185493  0.12816913  0.42301999  1
  O  O115  1  0.81787128  0.12507689  0.42445598  1
  O  O116  1  0.24329835  0.35594491  0.42458255  1
  O  O117  1  0.74030541  0.35127708  0.42291041  1
  O  O118  1  0.43569156  0.51445847  0.42256734  1
  O  O119  1  0.92351159  0.49378631  0.42489948  1
  O  O120  1  0.18174015  0.50998008  0.07070071  1
  O  O121  1  0.68237829  0.49568949  0.07492574  1
  O  O122  1  0.07187174  0.63812363  0.07311071  1
  O  O123  1  0.56788695  0.64299195  0.07412199  1
  O  O124  1  0.25359685  0.87018267  0.07596478  1
  O  O125  1  0.74665085  0.84806613  0.07065399  1
  O  O126  1  0.18185939  0.86773458  0.57407174  1
  O  O127  1  0.68081695  0.85539282  0.57054653  1
  O  O128  1  0.24661764  0.64462056  0.56994969  1
  O  O129  1  0.75211862  0.63563309  0.57255604  1
  O  O130  1  0.06775085  0.49258598  0.57368445  1
  O  O131  1  0.57336532  0.50280278  0.56963804  1
  O  O132  1  0.15890231  0.83801609  0.25593055  1
  O  O133  1  0.66134564  0.84734091  0.26289786  1
  O  O134  1  0.27002588  0.68417162  0.26163460  1
  O  O135  1  0.77076427  0.68857418  0.25632230  1
  O  O136  1  0.07568825  0.45733037  0.25471078  1
  O  O137  1  0.58185466  0.47230310  0.26325697  1
  O  O138  1  0.16325619  0.48010673  0.76301411  1
  O  O139  1  0.65858306  0.47963410  0.75509495  1
  O  O140  1  0.07995554  0.68352293  0.75945538  1
  O  O141  1  0.57591056  0.69462538  0.75421680  1
  O  O142  1  0.27227116  0.85181787  0.75311319  1
  O  O143  1  0.76754438  0.85531885  0.75954783  1
loop_
_geom_bond_atom_site_label_1
_geom_bond_atom_site_label_2
_geom_bond_distance
_geom_bond_site_symmetry_2
Na0 O72 2.392492 1_555
Na0 O76 2.575655 1_565
Na0 O75 2.583624 1_455
Na0 O86 2.690459 1_565
Na0 O89 2.717136 1_455
Na0 O85 2.745649 1_465
Na1 O79 2.385261 1_555
Na1 O82 2.532613 1_545
Na1 O81 2.573625 1_545
Na1 O95 2.747312 1_556
Na1 O92 2.748181 1_556
Na1 O90 2.785712 1_546
Na2 O112 2.407472 1_555
Na2 O110 2.501462 1_555
Na2 O108 2.648881 1_555
Na2 O98 2.738092 1_555
Na2 O96 2.833593 1_555
Na2 O100 2.855408 1_555
Na3 O111 2.638454 1_555
Na3 O109 2.638825 1_555
Na3 O113 2.680244 1_555
Na3 O101 2.687767 1_555
Na3 O97 2.707013 1_555
Na3 O99 2.732972 1_555
Na4 O104 2.625111 1_555
Na4 O102 2.656750 1_555
Na4 O106 2.669849 1_555
Na4 O114 2.671483 1_555
Na4 O116 2.705193 1_555
Na4 O118 2.711759 1_555
Na5 O119 2.517786 1_555
Na5 O107 2.641172 1_555
Na5 O117 2.689181 1_555
Na5 O105 2.694874 1_555
Na5 O115 2.701046 1_555
Na5 O103 2.732863 1_555
O0 Si0 1.616286 1_545
O0 Sc0 1.911927 1_545
O1 Si1 1.713872 1_555
O1 Ta0 1.850082 1_555
O2 S0 1.529384 1_555
O2 Ta0 2.096453 1_565
O3 S1 1.480370 1_555
O3 Sc0 2.151444 1_655
O4 Si2 1.722977 1_555
O4 Ta0 1.850769 1_555
O5 S2 1.472074 1_655
O5 Sc0 2.276379 1_645
O6 Si3 1.693720 1_555
O6 Ta1 1.864615 1_545
O7 Si4 1.607311 1_555
O7 Sc1 1.931006 1_555
O8 S3 1.465927 1_555
O8 Sc1 2.281642 1_565
O9 Si5 1.688266 1_655
O9 Ta1 1.889934 1_655
O10 S4 1.477478 1_555
O10 Sc1 2.159578 1_555
O11 S5 1.476465 1_545
O11 Ta1 2.283853 1_645
O12 S4 1.486136 1_565
O12 Ta2 2.132834 1_565
O13 S5 1.466661 1_555
O13 Sc2 2.150107 1_665
O14 Si3 1.605338 1_555
O14 Sc2 1.886446 1_555
O15 Si4 1.634717 1_555
O15 Ta2 1.910549 1_555
O16 Si5 1.598504 1_555
O16 Sc2 1.882548 1_565
O17 S3 1.469775 1_555
O17 Ta2 2.186526 1_565
O18 S0 1.457011 1_555
O18 Sc3 2.157040 1_565
O19 S1 1.463633 1_555
O19 Ta3 2.212058 1_665
O20 S2 1.457179 1_555
O20 Ta3 2.198817 1_555
O21 Si2 1.586383 1_555
O21 Sc3 1.903151 1_555
O22 Si0 1.624517 1_555
O22 Ta3 1.923805 1_565
O23 Si1 1.589228 1_565
O23 Sc3 1.904025 1_565
O24 Si6 1.629125 1_555
O24 Ta4 1.956073 1_555
O25 S6 1.477347 1_555
O25 Ta5 2.232409 1_555
O26 S7 1.477640 1_555
O26 Ta4 2.195416 1_555
O27 Si7 1.636699 1_555
O27 Ta5 1.932468 1_555
O28 Si8 1.667333 1_555
O28 Ta4 1.871513 1_555
O29 S8 1.483653 1_555
O29 Ta5 2.197954 1_555
O30 S9 1.499494 1_555
O30 Ta6 2.190382 1_555
O31 Si9 1.655284 1_555
O31 Ta7 1.908772 1_555
O32 S10 1.523874 1_555
O32 Ta6 2.074621 1_555
O33 Si10 1.686569 1_555
O33 Ta7 1.854260 1_555
O34 Si11 1.678382 1_555
O34 Ta6 1.891010 1_555
O35 S11 1.495526 1_555
O35 Ta7 2.149089 1_555
O36 Si11 1.569435 1_555
O36 Sc4 1.966059 1_554
O37 S11 1.458768 1_555
O37 Sc5 2.151141 1_554
O38 S9 1.444787 1_555
O38 Sc4 2.238782 1_554
O39 Si9 1.586087 1_555
O39 Sc5 1.912131 1_554
O40 S10 1.446193 1_555
O40 Sc4 2.183200 1_554
O41 Si10 1.589353 1_555
O41 Sc5 1.917370 1_554
O42 S7 1.467757 1_555
O42 Sc6 2.134311 1_555
O43 Si7 1.582495 1_555
O43 Sc7 1.958049 1_555
O44 Si8 1.596458 1_555
O44 Sc6 1.907274 1_555
O45 S8 1.465178 1_555
O45 Sc7 2.129015 1_555
O46 Si6 1.589326 1_555
O46 Sc6 1.912228 1_555
O47 S6 1.469207 1_555
O47 Sc7 2.111261 1_555
O48 S12 1.517072 1_555
O48 Ta8 2.137012 1_556
O49 S13 1.524280 1_555
O49 Ta9 2.078014 1_556
O50 S14 1.513117 1_555
O50 Ta8 2.123919 1_556
O51 Si12 1.704532 1_555
O51 Ta9 1.873503 1_556
O52 Si13 1.672087 1_555
O52 Ta8 1.904968 1_556
O53 S15 1.537541 1_555
O53 Ta9 2.033685 1_556
O54 S16 1.512122 1_555
O54 Ta10 2.106595 1_555
O55 S17 1.524548 1_555
O55 Ta11 2.100317 1_555
O56 S18 1.531285 1_555
O56 Ta10 2.047155 1_555
O57 S19 1.491103 1_555
O57 Ta11 2.196790 1_555
O58 Si14 1.698771 1_555
O58 Ta10 1.894383 1_555
O59 S20 1.516454 1_555
O59 Ta11 2.109912 1_555
O60 Si14 1.610108 1_555
O60 Sc8 1.904529 1_555
O61 S20 1.455419 1_555
O61 Sc9 2.181023 1_555
O62 S16 1.456937 1_555
O62 Sc8 2.178570 1_555
O63 S17 1.455674 1_555
O63 Sc9 2.201923 1_555
O64 S18 1.453544 1_555
O64 Sc8 2.275560 1_555
O65 S19 1.451696 1_555
O65 Sc9 2.234305 1_555
O66 S14 1.445667 1_555
O66 Sc10 2.202120 1_555
O67 Si12 1.611073 1_555
O67 Sc11 1.890790 1_555
O68 Si13 1.575972 1_555
O68 Sc10 1.966661 1_555
O69 S15 1.449407 1_555
O69 Sc11 2.268375 1_555
O70 S12 1.448427 1_555
O70 Sc10 2.231491 1_555
O71 S13 1.458823 1_555
O71 Sc11 2.160751 1_555
O72 Si14 1.632610 1_555
O72 Sc0 1.976427 1_555
O73 S20 1.495552 1_555
O73 Ta0 2.199661 1_565
O74 S16 1.506051 1_555
O74 Ta0 2.152757 1_565
O75 S17 1.473079 1_555
O75 Sc0 2.310751 1_655
O76 S18 1.481791 1_555
O76 Sc0 2.228289 1_545
O77 S19 1.532220 1_555
O77 Ta0 2.047532 1_555
O78 S14 1.494191 1_555
O78 Ta1 2.172787 1_545
O79 Si12 1.634399 1_555
O79 Sc1 1.963065 1_555
O80 Si13 1.690620 1_555
O80 Ta1 1.847029 1_555
O81 S15 1.481122 1_555
O81 Sc1 2.236878 1_565
O82 S12 1.490570 1_555
O82 Sc1 2.247179 1_565
O83 S13 1.482650 1_555
O83 Ta1 2.191657 1_655
O84 Si6 1.621060 1_555
O84 Ta2 1.875273 1_555
O85 S6 1.469275 1_555
O85 Sc2 2.273996 1_655
O86 S7 1.470964 1_555
O86 Sc2 2.200870 1_555
O87 Si7 1.620238 1_555
O87 Ta2 1.896896 1_555
O88 Si8 1.608969 1_555
O88 Ta2 1.931810 1_565
O89 S8 1.463655 1_555
O89 Sc2 2.306037 1_665
O90 S9 1.475825 1_555
O90 Sc3 2.230435 1_565
O91 Si9 1.624344 1_555
O91 Ta3 1.865842 1_665
O92 S10 1.475172 1_555
O92 Sc3 2.239226 1_555
O93 Si10 1.609075 1_555
O93 Ta3 1.924647 1_655
O94 Si11 1.642908 1_555
O94 Ta3 1.865219 1_555
O95 S11 1.472905 1_555
O95 Sc3 2.170941 1_555
O96 S4 1.518806 1_555
O96 Ta4 2.118926 1_555
O97 S5 1.555103 1_545
O97 Ta5 2.014492 1_555
O98 Si3 1.690545 1_555
O98 Ta4 1.917586 1_555
O99 Si4 1.699052 1_555
O99 Ta5 1.850255 1_555
O100 S3 1.551277 1_555
O100 Ta4 2.008540 1_555
O101 Si5 1.681684 1_655
O101 Ta5 1.908332 1_555
O102 S0 1.520335 1_555
O102 Ta6 2.128614 1_555
O103 S1 1.513553 1_555
O103 Ta7 2.155760 1_555
O104 Si2 1.648304 1_555
O104 Ta6 1.965562 1_555
O105 S2 1.550518 1_655
O105 Ta7 2.039438 1_555
O106 Si0 1.695523 1_545
O106 Ta6 1.865419 1_555
O107 Si1 1.657259 1_555
O107 Ta7 1.970474 1_555
O108 S12 1.474847 1_555
O108 Sc4 2.112515 1_555
O109 S13 1.477660 1_555
O109 Sc5 2.273277 1_555
O110 Si12 1.594963 1_555
O110 Sc4 2.005300 1_555
O111 S14 1.490024 1_655
O111 Sc5 2.129006 1_555
O112 Si13 1.596743 1_545
O112 Sc4 1.948019 1_555
O113 S15 1.479917 1_545
O113 Sc5 2.227846 1_555
O114 S16 1.471199 1_545
O114 Sc6 2.284399 1_555
O115 S17 1.479462 1_545
O115 Sc7 2.130950 1_555
O116 S18 1.480620 1_555
O116 Sc6 2.231485 1_555
O117 S19 1.468162 1_555
O117 Sc7 2.176147 1_555
O118 S20 1.476359 1_555
O118 Sc6 2.164499 1_555
O119 Si14 1.620756 1_655
O119 Sc7 1.984353 1_555
O120 Si11 1.632259 1_555
O120 Ta8 1.932120 1_555
O121 S11 1.507149 1_555
O121 Ta9 2.074845 1_555
O122 Si9 1.642632 1_455
O122 Ta8 1.884696 1_555
O123 S9 1.527664 1_555
O123 Ta9 2.051186 1_555
O124 S10 1.496047 1_565
O124 Ta8 2.106358 1_555
O125 Si10 1.639016 1_565
O125 Ta9 1.925658 1_555
O126 S7 1.519716 1_565
O126 Ta10 2.040320 1_555
O127 Si7 1.680548 1_565
O127 Ta11 1.843932 1_555
O128 Si8 1.651607 1_555
O128 Ta10 1.911624 1_555
O129 S8 1.529982 1_555
O129 Ta11 2.030504 1_555
O130 S6 1.524189 1_455
O130 Ta10 2.039634 1_555
O131 Si6 1.677349 1_555
O131 Ta11 1.852998 1_555
O132 Si0 1.597939 1_555
O132 Sc8 1.932896 1_555
O133 Si1 1.580593 1_565
O133 Sc9 1.897667 1_555
O134 S0 1.440822 1_555
O134 Sc8 2.244787 1_555
O135 S1 1.467359 1_555
O135 Sc9 2.111446 1_555
O136 S2 1.461879 1_555
O136 Sc8 2.144575 1_555
O137 Si2 1.578164 1_555
O137 Sc9 1.906137 1_555
O138 Si3 1.564319 1_555
O138 Sc10 1.979917 1_555
O139 Si4 1.592100 1_555
O139 Sc11 1.947603 1_555
O140 Si5 1.567842 1_555
O140 Sc10 1.938268 1_555
O141 S3 1.453820 1_555
O141 Sc11 2.163398 1_555
O142 S4 1.439071 1_565
O142 Sc10 2.158571 1_555
O143 S5 1.447933 1_555
O143 Sc11 2.236286 1_555
