# generated using pymatgen
data_MgMn4(FeO4)2
_symmetry_space_group_name_H-M   'P 1'
_cell_length_a   6.66373558
_cell_length_b   6.38422934
_cell_length_c   6.34917633
_cell_angle_alpha   59.84616775
_cell_angle_beta   58.91607327
_cell_angle_gamma   55.42752691
_symmetry_Int_Tables_number   1
_chemical_formula_structural   MgMn4(FeO4)2
_chemical_formula_sum   'Mg1 Mn4 Fe2 O8'
_cell_volume   181.88901865
_cell_formula_units_Z   1
loop_
 _symmetry_equiv_pos_site_id
 _symmetry_equiv_pos_as_xyz
  1  'x, y, z'
loop_
 _atom_site_type_symbol
 _atom_site_label
 _atom_site_symmetry_multiplicity
 _atom_site_fract_x
 _atom_site_fract_y
 _atom_site_fract_z
 _atom_site_occupancy
  Mg  Mg0  1  0.05561025  0.02268398  0.43359945  1
  Mn  Mn0  1  0.97701264  0.96264007  0.01129509  1
  Mn  Mn1  1  0.34352747  0.30425914  0.19047979  1
  Mn  Mn2  1  0.07941314  0.52683451  0.71885062  1
  Mn  Mn3  1  0.57841827  0.10982898  0.65763825  1
  Fe  Fe0  1  0.60831544  0.62849922  0.13753784  1
  Fe  Fe1  1  0.62308085  0.62304053  0.61369807  1
  O  O0  1  0.39462568  0.38621378  0.41701549  1
  O  O1  1  0.40677828  0.39712587  0.81348338  1
  O  O2  1  0.42231204  0.88583216  0.35712264  1
  O  O3  1  0.37881868  0.85746680  0.87170373  1
  O  O4  1  0.89508331  0.41308528  0.35032360  1
  O  O5  1  0.80404304  0.38621575  0.88982687  1
  O  O6  1  0.85280554  0.88092070  0.41796156  1
  O  O7  1  0.85619737  0.89139522  0.81738062  1
loop_
_geom_bond_atom_site_label_1
_geom_bond_atom_site_label_2
_geom_bond_distance
_geom_bond_site_symmetry_2
Mg0 O2 1.936070 1_545
Mg0 O4 1.967287 1_455
Mg0 O6 2.066953 1_445
Mg0 O7 2.067491 1_445
Mn0 O7 2.091073 1_554
Mn0 O3 2.124297 1_654
Mn0 O5 2.126339 1_564
Mn0 O6 2.134005 1_555
Mn1 O0 1.980505 1_555
Mn1 O1 2.018584 1_554
Mn1 O2 2.161833 1_545
Mn1 O4 2.379752 1_455
Mn2 O5 2.045768 1_455
Mn2 O0 2.079044 1_555
Mn2 O7 2.143317 1_455
Mn2 O1 2.146858 1_555
Mn2 O6 2.409594 1_455
Mn3 O0 1.928407 1_555
Mn3 O1 1.981240 1_555
Mn3 O7 1.996953 1_545
Mn3 O6 2.030566 1_545
Mn3 O3 2.139520 1_545
Fe0 O2 2.093997 1_555
Fe0 O5 2.145593 1_554
Fe0 O0 2.168438 1_555
Fe0 O3 2.230221 1_554
Fe0 O4 2.277049 1_555
Fe0 O7 2.434993 1_554
Fe1 O2 2.053231 1_555
Fe1 O4 2.059888 1_555
Fe1 O5 2.065097 1_555
Fe1 O1 2.097665 1_555
Fe1 O3 2.125529 1_555
Fe1 O6 2.332099 1_555
