# generated using pymatgen
data_Na6MgV2(S3O)2
_symmetry_space_group_name_H-M   'P 1'
_cell_length_a   6.32875775
_cell_length_b   7.78442452
_cell_length_c   7.78423923
_cell_angle_alpha   102.18146450
_cell_angle_beta   90.35959162
_cell_angle_gamma   89.61557085
_symmetry_Int_Tables_number   1
_chemical_formula_structural   Na6MgV2(S3O)2
_chemical_formula_sum   'Na6 Mg1 V2 S6 O2'
_cell_volume   374.84848820
_cell_formula_units_Z   1
loop_
 _symmetry_equiv_pos_site_id
 _symmetry_equiv_pos_as_xyz
  1  'x, y, z'
loop_
 _atom_site_type_symbol
 _atom_site_label
 _atom_site_symmetry_multiplicity
 _atom_site_fract_x
 _atom_site_fract_y
 _atom_site_fract_z
 _atom_site_occupancy
  Na  Na0  1  0.48784000  0.12064900  0.87908600  1
  Na  Na1  1  0.49247600  0.17610600  0.41148000  1
  Na  Na2  1  0.49205800  0.58839100  0.82344600  1
  Na  Na3  1  0.01427300  0.38572700  0.16669100  1
  Na  Na4  1  0.00851800  0.90387700  0.09657600  1
  Na  Na5  1  0.01259500  0.83305400  0.61404200  1
  Mg  Mg0  1  0.71623200  0.70237700  0.29656200  1
  V  V0  1  0.30625200  0.70289600  0.29716400  1
  V  V1  1  0.89840600  0.30097600  0.69911200  1
  S  S0  1  0.49275800  0.43643600  0.18686600  1
  S  S1  1  0.00723400  0.12603300  0.87379700  1
  S  S2  1  0.49317200  0.81287900  0.56321200  1
  S  S3  1  0.01168000  0.18721800  0.43397200  1
  S  S4  1  0.01135900  0.56605900  0.81299400  1
  S  S5  1  0.48936900  0.87651600  0.12324200  1
  O  O0  1  0.63054300  0.30388500  0.69599800  1
  O  O1  1  0.01360600  0.69914200  0.30076200  1
loop_
_geom_bond_atom_site_label_1
_geom_bond_atom_site_label_2
_geom_bond_distance
_geom_bond_site_symmetry_2
Na0 O0 2.402661 1_555
Na0 S5 2.957654 1_546
Na0 S1 3.041786 1_555
Na0 S0 3.049337 1_556
Na0 S2 3.049727 1_545
Na0 S1 3.288294 1_655
Na1 O0 2.390760 1_555
Na1 S5 2.874942 1_545
Na1 S0 2.942663 1_555
Na1 S3 3.048571 1_555
Na1 S2 3.286189 1_545
Na1 S3 3.290226 1_655
Na2 O0 2.390598 1_555
Na2 S5 2.875410 1_556
Na2 S2 2.941372 1_555
Na2 S4 3.047952 1_555
Na2 S0 3.288488 1_556
Na2 S4 3.290569 1_655
Na3 O1 2.442739 1_555
Na3 S1 2.709566 1_554
Na3 S3 2.841575 1_555
Na3 S0 3.055239 1_555
Na3 S0 3.322186 1_455
Na3 S4 3.343874 1_554
Na4 O1 2.476904 1_555
Na4 S1 2.695056 1_564
Na4 S3 3.052598 1_565
Na4 S4 3.055931 1_554
Na4 S5 3.058020 1_555
Na4 S5 3.304545 1_455
Na5 O1 2.441513 1_555
Na5 S1 2.710124 1_565
Na5 S4 2.842009 1_555
Na5 S2 3.068248 1_555
Na5 S2 3.309374 1_455
Na5 S3 3.346074 1_565
Mg0 O1 1.882179 1_655
Mg0 S0 2.508637 1_555
Mg0 S2 2.511611 1_555
Mg0 S5 2.537838 1_555
S0 V0 2.379318 1_555
S1 V1 2.221516 1_455
S2 V0 2.378225 1_555
S3 V1 2.190110 1_455
S4 V1 2.189710 1_455
S5 V0 2.411537 1_555
O0 V1 1.695329 1_555
O1 V0 1.852993 1_555
