# generated using pymatgen
data_TbIn3
_symmetry_space_group_name_H-M   'P 1'
_cell_length_a   4.62079616
_cell_length_b   4.62079616
_cell_length_c   4.62079616
_cell_angle_alpha   90.00000000
_cell_angle_beta   90.00000000
_cell_angle_gamma   90.00000000
_symmetry_Int_Tables_number   1
_chemical_formula_structural   TbIn3
_chemical_formula_sum   'Tb1 In3'
_cell_volume   98.66211746
_cell_formula_units_Z   1
loop_
 _symmetry_equiv_pos_site_id
 _symmetry_equiv_pos_as_xyz
  1  'x, y, z'
loop_
 _atom_site_type_symbol
 _atom_site_label
 _atom_site_symmetry_multiplicity
 _atom_site_fract_x
 _atom_site_fract_y
 _atom_site_fract_z
 _atom_site_occupancy
  Tb  Tb0  1  -0.00000000  -0.00000000  -0.00000000  1
  In  In0  1  0.50000000  0.00000000  0.50000000  1
  In  In1  1  0.00000000  0.50000000  0.50000000  1
  In  In2  1  0.50000000  0.50000000  0.00000000  1
loop_
_geom_bond_atom_site_label_1
_geom_bond_atom_site_label_2
_geom_bond_distance
_geom_bond_site_symmetry_2
In0 In1 3.267396 1_545
In0 In1 3.267396 1_645
In0 In1 3.267396 1_555
In0 Tb0 3.267396 1_555
In0 In2 3.267396 1_555
In0 Tb0 3.267396 1_556
In0 In2 3.267396 1_556
In0 In1 3.267396 1_655
In0 In2 3.267396 1_545
In0 Tb0 3.267396 1_656
In0 Tb0 3.267396 1_655
In0 In2 3.267396 1_546
In1 Tb0 3.267396 1_555
In1 In2 3.267396 1_555
In1 In2 3.267396 1_455
In1 Tb0 3.267396 1_556
In1 In2 3.267396 1_556
In1 In2 3.267396 1_456
In1 Tb0 3.267396 1_565
In1 Tb0 3.267396 1_566
In2 Tb0 3.267396 1_555
In2 Tb0 3.267396 1_565
In2 Tb0 3.267396 1_665
In2 Tb0 3.267396 1_655
