# generated using pymatgen
data_In7Pt3
_symmetry_space_group_name_H-M   'P 1'
_cell_length_a   8.24198480
_cell_length_b   8.24198466
_cell_length_c   8.24198483
_cell_angle_alpha   109.47121353
_cell_angle_beta   109.47121313
_cell_angle_gamma   109.47123206
_symmetry_Int_Tables_number   1
_chemical_formula_structural   In7Pt3
_chemical_formula_sum   'In14 Pt6'
_cell_volume   430.99630671
_cell_formula_units_Z   2
loop_
 _symmetry_equiv_pos_site_id
 _symmetry_equiv_pos_as_xyz
  1  'x, y, z'
loop_
 _atom_site_type_symbol
 _atom_site_label
 _atom_site_symmetry_multiplicity
 _atom_site_fract_x
 _atom_site_fract_y
 _atom_site_fract_z
 _atom_site_occupancy
  In  In0  1  0.50000000  0.75000000  0.25000000  1
  In  In1  1  0.75000000  0.50000000  0.25000000  1
  In  In2  1  0.25000000  0.50000000  0.75000000  1
  In  In3  1  0.75000000  0.25000000  0.50000000  1
  In  In4  1  0.25000000  0.75000000  0.50000000  1
  In  In5  1  0.50000000  0.25000000  0.75000000  1
  In  In6  1  0.67461687  -0.00000000  0.00000000  1
  In  In7  1  0.00000000  0.00000000  0.67461687  1
  In  In8  1  -0.00000000  0.67461687  0.00000000  1
  In  In9  1  -0.00000000  -0.00000000  0.32538313  1
  In  In10  1  0.67461687  0.67461687  0.67461687  1
  In  In11  1  0.00000000  0.32538313  -0.00000000  1
  In  In12  1  0.32538313  0.32538313  0.32538313  1
  In  In13  1  0.32538313  0.00000000  -0.00000000  1
  Pt  Pt0  1  0.00000000  0.65443753  0.65443753  1
  Pt  Pt1  1  0.65443753  0.65443753  0.00000000  1
  Pt  Pt2  1  0.65443753  0.00000000  0.65443753  1
  Pt  Pt3  1  0.34556247  -0.00000000  0.34556247  1
  Pt  Pt4  1  -0.00000000  0.34556247  0.34556247  1
  Pt  Pt5  1  0.34556247  0.34556247  -0.00000000  1
loop_
_geom_bond_atom_site_label_1
_geom_bond_atom_site_label_2
_geom_bond_distance
_geom_bond_site_symmetry_2
In0 Pt1 2.796628 1_555
In0 Pt5 2.796628 1_555
In0 Pt3 2.796628 1_565
In0 Pt2 2.796629 1_565
In1 Pt1 2.796628 1_555
In1 Pt5 2.796628 1_555
In1 Pt4 2.796628 1_655
In1 Pt0 2.796629 1_655
In2 Pt5 2.796628 1_556
In2 Pt1 2.796628 1_556
In2 Pt0 2.796628 1_555
In2 Pt4 2.796629 1_555
In3 Pt2 2.796628 1_555
In3 Pt4 2.796628 1_655
In3 Pt0 2.796628 1_655
In3 Pt3 2.796628 1_555
In4 Pt3 2.796628 1_565
In4 Pt0 2.796628 1_555
In4 Pt4 2.796628 1_555
In4 Pt2 2.796628 1_565
In5 Pt5 2.796628 1_556
In5 Pt1 2.796628 1_556
In5 Pt2 2.796628 1_555
In5 Pt3 2.796629 1_555
In6 Pt1 2.797080 1_545
In6 Pt2 2.797080 1_554
In6 Pt4 2.797080 1_655
In6 In9 3.096679 1_655
In7 Pt0 2.797080 1_545
In7 Pt2 2.797080 1_455
In7 Pt5 2.797080 1_556
In7 In9 2.878379 1_555
In8 Pt1 2.797080 1_455
In8 Pt0 2.797080 1_554
In8 Pt3 2.797080 1_565
In8 In9 3.096679 1_565
In9 Pt4 2.797080 1_555
In9 Pt3 2.797080 1_555
In9 Pt1 2.797080 1_445
In10 Pt2 2.797080 1_565
In10 Pt1 2.797080 1_556
In10 Pt0 2.797080 1_655
In10 In12 2.878379 1_555
In10 In7 3.096679 1_665
In10 In6 3.096679 1_566
In10 In8 3.096679 1_656
In11 Pt5 2.797080 1_555
In11 Pt4 2.797080 1_555
In11 Pt2 2.797080 1_454
In11 In8 2.878379 1_555
In11 In6 3.096679 1_455
In11 In7 3.096679 1_554
In11 In12 3.096679 1_555
In12 Pt3 2.797080 1_555
In12 Pt5 2.797080 1_555
In12 Pt4 2.797080 1_555
In12 In9 3.096679 1_555
In12 In13 3.096679 1_555
In13 Pt5 2.797080 1_555
In13 Pt3 2.797080 1_555
In13 Pt0 2.797080 1_544
In13 In6 2.878379 1_555
In13 In8 3.096679 1_545
In13 In7 3.096679 1_554
Pt0 Pt4 2.939572 1_555
Pt1 Pt5 2.939571 1_555
Pt2 Pt3 2.939572 1_555
