# generated using pymatgen
data_Li2MnPO4F
_symmetry_space_group_name_H-M   'P 1'
_cell_length_a   5.44126500
_cell_length_b   5.44815357
_cell_length_c   7.55912829
_cell_angle_alpha   107.89253990
_cell_angle_beta   107.79538260
_cell_angle_gamma   94.46916359
_symmetry_Int_Tables_number   1
_chemical_formula_structural   Li2MnPO4F
_chemical_formula_sum   'Li4 Mn2 P2 O8 F2'
_cell_volume   199.36386540
_cell_formula_units_Z   2
loop_
 _symmetry_equiv_pos_site_id
 _symmetry_equiv_pos_as_xyz
  1  'x, y, z'
loop_
 _atom_site_type_symbol
 _atom_site_label
 _atom_site_symmetry_multiplicity
 _atom_site_fract_x
 _atom_site_fract_y
 _atom_site_fract_z
 _atom_site_occupancy
  Li  Li0  1  0.18494600  0.55049300  0.13168800  1
  Li  Li1  1  0.51106700  0.15422100  0.85750900  1
  Li  Li2  1  0.48567400  0.96315400  0.47799700  1
  Li  Li3  1  0.77708100  0.45269900  0.71241600  1
  Mn  Mn0  1  0.00904400  0.99784300  0.01567400  1
  Mn  Mn1  1  0.98612900  0.99555500  0.50033700  1
  P  P0  1  0.65967100  0.37814200  0.25932900  1
  P  P1  1  0.34431400  0.62550400  0.76813500  1
  O  O0  1  0.71424200  0.24815000  0.42103600  1
  O  O1  1  0.27597800  0.79650300  0.63475700  1
  O  O2  1  0.32602900  0.32787500  0.65519200  1
  O  O3  1  0.14763600  0.64673600  0.88346000  1
  O  O4  1  0.86546200  0.33771400  0.15312900  1
  O  O5  1  0.63632000  0.72877400  0.90285300  1
  O  O6  1  0.65656900  0.67296300  0.35647100  1
  O  O7  1  0.38319300  0.25246000  0.09273300  1
  F  F0  1  0.81025600  0.10908900  0.74447900  1
  F  F1  1  0.15427000  0.89375800  0.27421400  1
loop_
_geom_bond_atom_site_label_1
_geom_bond_atom_site_label_2
_geom_bond_distance
_geom_bond_site_symmetry_2
Li0 O7 2.014984 1_555
Li0 O3 2.055551 1_554
Li0 O4 2.089440 1_455
Li0 O6 2.507811 1_555
Li1 O7 2.040019 1_556
Li1 O2 2.084236 1_555
Li1 O1 2.132665 1_545
Li1 O4 2.324754 1_556
Li1 O5 2.558560 1_545
Li2 O6 2.016673 1_555
Li2 O0 2.140150 1_565
Li2 O1 2.203744 1_555
Li2 O2 2.416992 1_565
Li3 O3 2.022166 1_655
Li3 O0 2.045046 1_555
Li3 O5 2.108135 1_555
Li3 O2 2.362914 1_555
Mn0 O4 2.158262 1_465
Mn0 O5 2.168105 1_454
Mn0 O3 2.176564 1_554
Mn0 O7 2.178711 1_565
Mn1 O6 2.151656 1_555
Mn1 O1 2.158709 1_655
Mn1 O0 2.173471 1_565
Mn1 O2 2.218429 1_665
O0 P0 1.557810 1_555
O1 P1 1.557146 1_555
O2 P1 1.562187 1_555
O3 P1 1.564031 1_555
O4 P0 1.557588 1_555
O5 P1 1.548468 1_555
O6 P0 1.551299 1_555
O7 P0 1.571481 1_555
F0 Li3 1.974989 1_555
F0 Li1 2.055296 1_555
F0 Li2 2.105125 1_545
F0 Mn1 2.274772 1_545
F0 Mn0 2.291306 1_646
F1 Li2 1.898837 1_555
F1 Li0 1.899105 1_555
F1 Mn1 2.125737 1_455
F1 Mn0 2.138293 1_555
