# generated using pymatgen
data_Sr2MgTlCuO5
_symmetry_space_group_name_H-M   'P 1'
_cell_length_a   3.62099200
_cell_length_b   3.71448500
_cell_length_c   11.51590000
_cell_angle_alpha   90.00000000
_cell_angle_beta   90.00000000
_cell_angle_gamma   90.00000000
_symmetry_Int_Tables_number   1
_chemical_formula_structural   Sr2MgTlCuO5
_chemical_formula_sum   'Sr2 Mg1 Tl1 Cu1 O5'
_cell_volume   154.89024231
_cell_formula_units_Z   1
loop_
 _symmetry_equiv_pos_site_id
 _symmetry_equiv_pos_as_xyz
  1  'x, y, z'
loop_
 _atom_site_type_symbol
 _atom_site_label
 _atom_site_symmetry_multiplicity
 _atom_site_fract_x
 _atom_site_fract_y
 _atom_site_fract_z
 _atom_site_occupancy
  Sr  Sr0  1  0.50000000  0.50000000  0.34915900  1
  Sr  Sr1  1  0.50000000  0.50000000  0.67475900  1
  Mg  Mg0  1  0.50000000  0.00000000  0.13603600  1
  Tl  Tl0  1  0.00000000  0.00000000  0.93432000  1
  Cu  Cu0  1  0.00000000  0.00000000  0.52273800  1
  O  O0  1  0.00000000  0.00000000  0.24138700  1
  O  O1  1  0.00000000  0.00000000  0.72930000  1
  O  O2  1  0.00000000  0.50000000  0.50996000  1
  O  O3  1  0.50000000  0.50000000  0.05326800  1
  O  O4  1  0.50000000  0.00000000  0.49907300  1
loop_
_geom_bond_atom_site_label_1
_geom_bond_atom_site_label_2
_geom_bond_distance
_geom_bond_site_symmetry_2
Mg0 O3 2.087544 1_545
Mg0 O3 2.087544 1_555
Mg0 O0 2.179399 1_555
Mg0 O0 2.179399 1_655
Cu0 O4 1.830892 1_455
Cu0 O4 1.830892 1_555
Cu0 O2 1.863063 1_555
Cu0 O2 1.863063 1_545
Cu0 O1 2.378747 1_555
O0 Sr0 2.875335 1_455
O0 Sr0 2.875335 1_555
O0 Sr0 2.875335 1_445
O0 Sr0 2.875335 1_545
O1 Tl0 2.360990 1_555
O1 Sr1 2.668659 1_445
O1 Sr1 2.668659 1_545
O1 Sr1 2.668659 1_455
O1 Sr1 2.668659 1_555
O2 Sr0 2.589776 1_455
O2 Sr0 2.589776 1_555
O2 Sr1 2.622894 1_555
O2 Sr1 2.622894 1_455
O4 Sr0 2.535703 1_555
O4 Sr0 2.535703 1_545
O4 Sr1 2.746382 1_555
O4 Sr1 2.746382 1_545
