# generated using pymatgen
data_BaNdMgMn2O5
_symmetry_space_group_name_H-M   'P 1'
_cell_length_a   3.81723149
_cell_length_b   4.18331956
_cell_length_c   11.14642649
_cell_angle_alpha   90.00000000
_cell_angle_beta   90.00000000
_cell_angle_gamma   90.00000000
_symmetry_Int_Tables_number   1
_chemical_formula_structural   BaNdMgMn2O5
_chemical_formula_sum   'Ba1 Nd1 Mg1 Mn2 O5'
_cell_volume   177.99393130
_cell_formula_units_Z   1
loop_
 _symmetry_equiv_pos_site_id
 _symmetry_equiv_pos_as_xyz
  1  'x, y, z'
loop_
 _atom_site_type_symbol
 _atom_site_label
 _atom_site_symmetry_multiplicity
 _atom_site_fract_x
 _atom_site_fract_y
 _atom_site_fract_z
 _atom_site_occupancy
  Ba  Ba0  1  0.00000000  0.00000000  0.57286981  1
  Nd  Nd0  1  0.00000000  0.00000000  0.93796213  1
  Mg  Mg0  1  0.00000000  0.00000000  0.23436981  1
  Mn  Mn0  1  0.50000000  0.50000000  0.15345837  1
  Mn  Mn1  1  0.50000000  0.50000000  0.76902880  1
  O  O0  1  0.50000000  0.00000000  0.81405197  1
  O  O1  1  0.00000000  0.50000000  0.21122610  1
  O  O2  1  0.00000000  0.50000000  0.86398092  1
  O  O3  1  0.50000000  0.00000000  0.10469379  1
  O  O4  1  0.50000000  0.50000000  0.58835731  1
loop_
_geom_bond_atom_site_label_1
_geom_bond_atom_site_label_2
_geom_bond_distance
_geom_bond_site_symmetry_2
Ba0 O4 2.836839 1_445
Ba0 O4 2.836839 1_555
Ba0 O4 2.836839 1_455
Ba0 O4 2.836839 1_545
Nd0 O2 2.248344 1_555
Nd0 O2 2.248344 1_545
Nd0 O0 2.355930 1_455
Nd0 O0 2.355930 1_555
Nd0 O3 2.663962 1_556
Nd0 O3 2.663962 1_456
Mg0 O1 2.107508 1_555
Mg0 O1 2.107508 1_545
Mg0 O3 2.394173 1_555
Mg0 O3 2.394173 1_455
Mn0 O1 2.014305 1_555
Mn0 O1 2.014305 1_655
Mn0 O3 2.161131 1_555
Mn0 O3 2.161131 1_565
Mn1 O4 2.013841 1_555
Mn1 O0 2.151021 1_555
Mn1 O0 2.151021 1_565
Mn1 O2 2.182424 1_655
Mn1 O2 2.182424 1_555
