# generated using pymatgen
data_Na18Ca4Ta8Si15(SO24)3
_symmetry_space_group_name_H-M   'P 1'
_cell_length_a   9.15416357
_cell_length_b   9.18092912
_cell_length_c   22.67370941
_cell_angle_alpha   90.02881589
_cell_angle_beta   90.10428942
_cell_angle_gamma   119.99675628
_symmetry_Int_Tables_number   1
_chemical_formula_structural   Na18Ca4Ta8Si15(SO24)3
_chemical_formula_sum   'Na18 Ca4 Ta8 Si15 S3 O72'
_cell_volume   1650.33232988
_cell_formula_units_Z   1
loop_
 _symmetry_equiv_pos_site_id
 _symmetry_equiv_pos_as_xyz
  1  'x, y, z'
loop_
 _atom_site_type_symbol
 _atom_site_label
 _atom_site_symmetry_multiplicity
 _atom_site_fract_x
 _atom_site_fract_y
 _atom_site_fract_z
 _atom_site_occupancy
  Na  Na0  1  0.65761304  0.63723112  0.74331593  1
  Na  Na1  1  0.97461595  0.35919700  0.74228402  1
  Na  Na2  1  0.01798997  0.67308396  0.58910774  1
  Na  Na3  1  0.65640134  0.98398357  0.58889354  1
  Na  Na4  1  0.33160043  0.98269783  0.08911621  1
  Na  Na5  1  0.66036357  0.67881974  0.09185002  1
  Na  Na6  1  0.96359261  0.68199991  0.90826045  1
  Na  Na7  1  0.71970584  0.03695772  0.90878872  1
  Na  Na8  1  0.32240486  0.28974127  0.91633837  1
  Na  Na9  1  0.96432097  0.28511770  0.41341646  1
  Na  Na10  1  0.31857717  0.03583845  0.40872978  1
  Na  Na11  1  0.71190910  0.68218086  0.41371297  1
  Na  Na12  1  0.01423582  0.01480181  0.49622028  1
  Na  Na13  1  0.99634153  0.00929015  0.99442002  1
  Na  Na14  1  0.66873159  0.31795151  0.82287905  1
  Na  Na15  1  0.64510367  0.31675480  0.32229221  1
  Na  Na16  1  0.31073417  0.64979536  0.16795888  1
  Na  Na17  1  0.33644722  0.67245018  0.66744709  1
  Ca  Ca0  1  0.00401693  0.00027413  0.35189731  1
  Ca  Ca1  1  0.99982166  0.99915582  0.85392351  1
  Ca  Ca2  1  0.66081044  0.32670100  0.67909350  1
  Ca  Ca3  1  0.66233847  0.32729072  0.18220212  1
  Ta  Ta0  1  0.99118346  0.98479061  0.64663606  1
  Ta  Ta1  1  0.01337724  0.00233671  0.14612118  1
  Ta  Ta2  1  0.67298133  0.33459101  0.98110726  1
  Ta  Ta3  1  0.66056589  0.32940243  0.48188079  1
  Ta  Ta4  1  0.33221033  0.66520567  0.01959990  1
  Ta  Ta5  1  0.33181240  0.66259751  0.51922059  1
  Ta  Ta6  1  0.33022248  0.67432658  0.31393785  1
  Ta  Ta7  1  0.33603189  0.68138875  0.81356037  1
  Si  Si0  1  0.29915128  0.99211773  0.25502263  1
  Si  Si1  1  0.00659500  0.70329032  0.75385143  1
  Si  Si2  1  0.69784086  0.99336619  0.75342281  1
  Si  Si3  1  0.96618755  0.32978367  0.58412352  1
  Si  Si4  1  0.36462539  0.03226568  0.58156422  1
  Si  Si5  1  0.65960216  0.62837142  0.58563431  1
  Si  Si6  1  0.96716025  0.62766269  0.08539172  1
  Si  Si7  1  0.67067462  0.03741539  0.08253262  1
  Si  Si8  1  0.37470953  0.33866708  0.08197640  1
  Si  Si9  1  0.61458904  0.65314373  0.91669635  1
  Si  Si10  1  0.04157529  0.38922169  0.91561184  1
  Si  Si11  1  0.34937224  0.96761654  0.92009910  1
  Si  Si12  1  0.61477209  0.96240891  0.41846894  1
  Si  Si13  1  0.34732568  0.38832200  0.41456157  1
  Si  Si14  1  0.03464128  0.65227844  0.41779810  1
  S  S0  1  0.69445109  0.70817486  0.25067326  1
  S  S1  1  0.01470819  0.30201269  0.25129047  1
  S  S2  1  0.28786194  0.29935740  0.75064146  1
  O  O0  1  0.21500212  0.99350681  0.31638592  1
  O  O1  1  0.77841754  0.79021571  0.30647623  1
  O  O2  1  0.00147447  0.21989168  0.30839499  1
  O  O3  1  0.22002582  0.21860259  0.80755927  1
  O  O4  1  0.99535111  0.78560813  0.81402255  1
  O  O5  1  0.79412040  0.01359099  0.81424214  1
  O  O6  1  0.80998222  0.97100381  0.69611411  1
  O  O7  1  0.17594791  0.19586506  0.70037346  1
  O  O8  1  0.02095519  0.82713605  0.69476373  1
  O  O9  1  0.79140689  0.81753309  0.19821225  1
  O  O10  1  0.02493546  0.19655295  0.20150982  1
  O  O11  1  0.16535037  0.97719314  0.19765208  1
  O  O12  1  0.91640794  0.39658638  0.64120977  1
  O  O13  1  0.49959844  0.09048380  0.63281570  1
  O  O14  1  0.62533172  0.53794553  0.64724147  1
  O  O15  1  0.90185227  0.52209362  0.14299659  1
  O  O16  1  0.59016750  0.09405529  0.13264740  1
  O  O17  1  0.50310042  0.41111445  0.13503954  1
  O  O18  1  0.46509571  0.29599856  0.02438389  1
  O  O19  1  0.83617893  0.53338905  0.02698569  1
  O  O20  1  0.70299564  0.16417689  0.02329797  1
  O  O21  1  0.45937992  0.15663946  0.52232029  1
  O  O22  1  0.68964841  0.52350573  0.53017092  1
  O  O23  1  0.82774705  0.29807494  0.52842856  1
  O  O24  1  0.50112168  0.65363541  0.97182051  1
  O  O25  1  0.15227942  0.50786529  0.97028645  1
  O  O26  1  0.34822260  0.85744882  0.97596795  1
  O  O27  1  0.51036512  0.85413413  0.47565940  1
  O  O28  1  0.34820925  0.50280720  0.46996223  1
  O  O29  1  0.15246944  0.66191592  0.47294009  1
  O  O30  1  0.13540364  0.62974634  0.35933799  1
  O  O31  1  0.49240921  0.85878855  0.36014061  1
  O  O32  1  0.36855213  0.50564828  0.35597871  1
  O  O33  1  0.13761675  0.50103782  0.85534507  1
  O  O34  1  0.36446339  0.86292106  0.86069371  1
  O  O35  1  0.49689727  0.63199238  0.85693790  1
  O  O36  1  0.00850346  0.81233368  0.41940695  1
  O  O37  1  0.79912149  0.98280740  0.41769938  1
  O  O38  1  0.18052392  0.20652948  0.41814129  1
  O  O39  1  0.02812260  0.20878571  0.91982059  1
  O  O40  1  0.18760807  0.99063660  0.92133025  1
  O  O41  1  0.79774559  0.81853041  0.92113166  1
  O  O42  1  0.96446976  0.15031645  0.59231838  1
  O  O43  1  0.18250840  0.02422141  0.59318174  1
  O  O44  1  0.84418377  0.81354294  0.58880848  1
  O  O45  1  0.97137073  0.81644797  0.09331859  1
  O  O46  1  0.84370475  0.02687191  0.09691993  1
  O  O47  1  0.19388337  0.15666534  0.09424015  1
  O  O48  1  0.67807489  0.15470064  0.74485516  1
  O  O49  1  0.46068506  0.33342539  0.74495093  1
  O  O50  1  0.84124015  0.51988223  0.74798297  1
  O  O51  1  0.67658597  0.54280811  0.24727427  1
  O  O52  1  0.87330480  0.32902556  0.24438766  1
  O  O53  1  0.48331862  0.14891845  0.24871440  1
  O  O54  1  0.62570201  0.47888782  0.92278455  1
  O  O55  1  0.85545479  0.37773764  0.92043794  1
  O  O56  1  0.52724050  0.14889067  0.92059028  1
  O  O57  1  0.62388635  0.14657768  0.42146465  1
  O  O58  1  0.52231605  0.37768382  0.42208312  1
  O  O59  1  0.85276016  0.47517116  0.42415967  1
  O  O60  1  0.32042580  0.48062641  0.06765968  1
  O  O61  1  0.16676351  0.68750335  0.07236105  1
  O  O62  1  0.52588165  0.83724992  0.06887449  1
  O  O63  1  0.31202499  0.83273244  0.57005671  1
  O  O64  1  0.51723631  0.68356268  0.57250079  1
  O  O65  1  0.15672231  0.48173174  0.56741247  1
  O  O66  1  0.29985251  0.80592878  0.25331166  1
  O  O67  1  0.52422687  0.69916320  0.24919586  1
  O  O68  1  0.18058615  0.46687402  0.25000252  1
  O  O69  1  0.28504957  0.46327725  0.74800626  1
  O  O70  1  0.18238017  0.68826761  0.75271951  1
  O  O71  1  0.51751262  0.80488292  0.75334207  1
loop_
_geom_bond_atom_site_label_1
_geom_bond_atom_site_label_2
_geom_bond_distance
_geom_bond_site_symmetry_2
Na0 O14 2.321597 1_555
Na0 O50 2.409944 1_555
Na0 O49 2.450218 1_555
Na0 O71 2.457675 1_555
Na1 O50 2.342034 1_555
Na1 O48 2.408712 1_555
Na1 O12 2.415163 1_555
Na1 O69 2.507760 1_655
Na1 O70 2.655738 1_655
Na1 O33 2.921246 1_655
Na2 O63 2.374854 1_555
Na2 O44 2.499182 1_455
Na2 O12 2.520117 1_455
Na2 O65 2.678323 1_555
Na2 O8 2.774532 1_555
Na2 O43 2.795339 1_565
Na2 O22 2.926108 1_455
Na2 O29 2.932820 1_555
Na3 O13 2.327179 1_565
Na3 O64 2.419154 1_555
Na3 O42 2.446220 1_565
Na3 O63 2.768778 1_555
Na3 O6 2.838367 1_555
Na3 O44 2.844850 1_555
Na3 O23 2.853844 1_565
Na3 O27 2.861985 1_555
Na4 O16 2.278764 1_565
Na4 O61 2.382016 1_555
Na4 O47 2.483447 1_565
Na4 O62 2.744777 1_555
Na4 O26 2.846152 1_554
Na4 O45 2.860331 1_455
Na4 O11 2.882986 1_555
Na4 O18 2.901254 1_565
Na5 O17 2.354101 1_555
Na5 O62 2.385681 1_555
Na5 O45 2.470983 1_555
Na5 O9 2.708438 1_555
Na5 O60 2.761591 1_555
Na5 O46 2.770795 1_565
Na5 O19 2.948114 1_555
Na5 O24 3.038581 1_554
Na6 O4 2.298416 1_555
Na6 O41 2.421849 1_555
Na6 O55 2.469031 1_555
Na6 O40 2.551272 1_655
Na6 O54 2.718469 1_555
Na7 O5 2.292723 1_555
Na7 O41 2.458144 1_545
Na7 O56 2.458383 1_555
Na7 O39 2.462887 1_655
Na7 O55 2.740995 1_555
Na8 O40 2.385149 1_545
Na8 O39 2.411344 1_555
Na8 O54 2.433693 1_555
Na8 O3 2.601169 1_555
Na8 O56 2.760705 1_555
Na8 O18 2.761188 1_556
Na9 O37 2.409078 1_545
Na9 O38 2.424103 1_655
Na9 O59 2.434971 1_555
Na9 O2 2.519857 1_655
Na9 O57 2.720639 1_555
Na9 O23 2.921957 1_555
Na9 O30 3.003885 1_655
Na10 O0 2.248872 1_545
Na10 O38 2.465631 1_555
Na10 O57 2.466530 1_555
Na10 O36 2.550532 1_545
Na10 O58 2.750307 1_555
Na10 O21 2.842593 1_555
Na10 O31 2.996508 1_545
Na11 O36 2.360236 1_655
Na11 O58 2.452288 1_555
Na11 O37 2.461611 1_555
Na11 O1 2.582718 1_555
Na11 O59 2.789311 1_555
Na12 O38 2.425582 1_555
Na12 O36 2.527896 1_545
Na12 O37 2.557738 1_445
Na12 O43 2.658547 1_555
Na12 O42 2.659075 1_455
Na12 O44 2.717404 1_445
Na13 O39 2.402567 1_655
Na13 O41 2.436403 1_545
Na13 O40 2.480200 1_645
Na13 O46 2.759816 1_556
Na13 O47 2.785460 1_656
Na13 O45 2.795775 1_546
Na14 O48 2.347221 1_555
Na14 O50 2.429018 1_555
Na14 O56 2.645527 1_555
Na14 O49 2.651002 1_555
Na14 O55 2.676359 1_555
Na14 O54 2.837496 1_555
Na15 O53 2.248882 1_555
Na15 O51 2.586642 1_555
Na15 O57 2.690111 1_555
Na15 O52 2.697222 1_555
Na15 O58 2.707860 1_555
Na15 O59 2.877460 1_555
Na16 O68 2.389734 1_555
Na16 O66 2.439392 1_555
Na16 O67 2.553039 1_555
Na16 O61 2.646067 1_555
Na16 O60 2.779716 1_555
Na16 O62 2.918707 1_555
Na17 O70 2.441889 1_555
Na17 O71 2.447321 1_555
Na17 O69 2.519699 1_555
Na17 O64 2.688529 1_555
Na17 O63 2.724333 1_555
Na17 O65 2.831814 1_555
Ca0 O0 2.123215 1_545
Ca0 O1 2.247820 1_445
Ca0 O2 2.255598 1_555
Ca0 O38 2.319795 1_555
Ca0 O36 2.322765 1_545
Ca0 O37 2.340820 1_445
Ca1 O4 2.140522 1_555
Ca1 O5 2.148563 1_565
Ca1 O3 2.275219 1_665
Ca1 O40 2.328531 1_655
Ca1 O41 2.332281 1_555
Ca1 O39 2.345370 1_665
Ca2 O13 2.184954 1_555
Ca2 O48 2.234485 1_555
Ca2 O14 2.240265 1_555
Ca2 O12 2.265138 1_555
Ca2 O50 2.317789 1_555
Ca2 O49 2.390117 1_555
Ca3 O16 2.205560 1_555
Ca3 O15 2.209949 1_555
Ca3 O53 2.229294 1_555
Ca3 O17 2.231027 1_555
Ca3 O52 2.382689 1_555
Ca3 O51 2.418114 1_555
O0 Si0 1.594699 1_555
O1 S0 1.475002 1_555
O2 S1 1.473014 1_555
O3 S2 1.464348 1_555
O4 Si1 1.587556 1_655
O5 Si2 1.595178 1_545
O6 Si2 1.731978 1_555
O6 Ta0 1.955247 1_555
O7 S2 1.507565 1_555
O7 Ta0 2.193945 1_445
O8 Si1 1.719799 1_555
O8 Ta0 1.937786 1_455
O9 S0 1.524690 1_555
O9 Ta1 2.228463 1_665
O10 S1 1.519910 1_555
O10 Ta1 2.139254 1_555
O11 Si0 1.742783 1_555
O11 Ta1 1.915543 1_565
O12 Si3 1.593727 1_555
O13 Si4 1.580032 1_555
O14 Si5 1.575185 1_555
O15 Si6 1.558036 1_555
O16 Si7 1.578081 1_555
O17 Si8 1.575971 1_555
O18 Si8 1.694339 1_555
O18 Ta2 2.010672 1_554
O19 Si6 1.701733 1_555
O19 Ta2 1.977663 1_554
O20 Si7 1.704259 1_555
O20 Ta2 1.966936 1_554
O21 Si4 1.695897 1_555
O21 Ta3 1.958338 1_555
O22 Si5 1.687853 1_555
O22 Ta3 1.991987 1_555
O23 Si3 1.705994 1_555
O23 Ta3 1.993314 1_555
O24 Si9 1.628035 1_555
O24 Ta4 1.935454 1_556
O25 Si10 1.624988 1_555
O25 Ta4 1.913752 1_556
O26 Si11 1.618174 1_555
O26 Ta4 1.964413 1_556
O27 Si12 1.624480 1_555
O27 Ta5 1.968009 1_555
O28 Si13 1.634886 1_555
O28 Ta5 1.908200 1_555
O29 Si14 1.622955 1_555
O29 Ta5 1.944201 1_555
O30 Si14 1.686874 1_555
O30 Ta6 1.919620 1_555
O31 Si12 1.684224 1_555
O31 Ta6 1.910031 1_555
O32 Si13 1.659967 1_555
O32 Ta6 1.993382 1_555
O33 Si10 1.672539 1_555
O33 Ta7 1.984680 1_555
O34 Si11 1.699821 1_555
O34 Ta7 1.884403 1_555
O35 Si9 1.679149 1_555
O35 Ta7 2.001112 1_555
O36 Si14 1.602941 1_555
O37 Si12 1.602295 1_555
O38 Si13 1.605023 1_555
O39 Si10 1.601473 1_555
O40 Si11 1.597291 1_555
O41 Si9 1.606381 1_555
O42 Si3 1.650460 1_555
O42 Ta0 2.063590 1_545
O43 Si4 1.653077 1_555
O43 Ta0 2.010394 1_445
O44 Si5 1.696336 1_555
O44 Ta0 1.969227 1_555
O45 Si6 1.723577 1_555
O45 Ta1 1.958033 1_665
O46 Si7 1.666172 1_555
O46 Ta1 2.012831 1_655
O47 Si8 1.686984 1_555
O47 Ta1 1.946648 1_555
O48 Si2 1.591407 1_545
O49 S2 1.457178 1_555
O50 Si1 1.610833 1_655
O51 S0 1.445423 1_555
O52 S1 1.442859 1_655
O53 Si0 1.584119 1_545
O54 Si9 1.658846 1_555
O54 Ta2 2.064962 1_555
O55 Si10 1.657414 1_655
O55 Ta2 2.046140 1_555
O56 Si11 1.646638 1_545
O56 Ta2 2.070271 1_555
O57 Si12 1.652066 1_545
O57 Ta3 2.058906 1_555
O58 Si13 1.661366 1_555
O58 Ta3 2.047366 1_555
O59 Si14 1.652560 1_655
O59 Ta3 2.062785 1_555
O60 Si8 1.642671 1_555
O60 Ta4 1.972375 1_555
O61 Si6 1.651110 1_455
O61 Ta4 2.020687 1_555
O62 Si7 1.671009 1_565
O62 Ta4 2.019218 1_555
O63 Si4 1.665190 1_565
O63 Ta5 2.020665 1_555
O64 Si5 1.644050 1_555
O64 Ta5 2.010782 1_555
O65 Si3 1.643727 1_455
O65 Ta5 1.966530 1_555
O66 Si0 1.713026 1_555
O66 Ta6 1.939805 1_555
O67 S0 1.518894 1_555
O67 Ta6 2.228395 1_555
O68 S1 1.516456 1_555
O68 Ta6 2.233088 1_555
O69 S2 1.519175 1_555
O69 Ta7 2.344558 1_555
O70 Si1 1.682606 1_555
O70 Ta7 1.991786 1_555
O71 Si2 1.692091 1_555
O71 Ta7 2.009000 1_555
