# generated using pymatgen
data_MgAg4(AsS)4
_symmetry_space_group_name_H-M   'P 1'
_cell_length_a   12.11489734
_cell_length_b   5.59745648
_cell_length_c   4.46833742
_cell_angle_alpha   90.07904952
_cell_angle_beta   90.98404348
_cell_angle_gamma   83.37042560
_symmetry_Int_Tables_number   1
_chemical_formula_structural   MgAg4(AsS)4
_chemical_formula_sum   'Mg1 Ag4 As4 S4'
_cell_volume   300.93904782
_cell_formula_units_Z   1
loop_
 _symmetry_equiv_pos_site_id
 _symmetry_equiv_pos_as_xyz
  1  'x, y, z'
loop_
 _atom_site_type_symbol
 _atom_site_label
 _atom_site_symmetry_multiplicity
 _atom_site_fract_x
 _atom_site_fract_y
 _atom_site_fract_z
 _atom_site_occupancy
  Mg  Mg0  1  0.50957628  0.36107637  0.75589080  1
  Ag  Ag0  1  0.82980605  0.12548073  0.23736339  1
  Ag  Ag1  1  0.30785348  0.46232142  0.24777305  1
  Ag  Ag2  1  0.74119592  0.48540755  0.70614831  1
  Ag  Ag3  1  0.14595385  0.96783214  0.75329210  1
  As  As0  1  0.46663397  0.04152127  0.25705176  1
  As  As1  1  0.98157997  0.42798080  0.24820522  1
  As  As2  1  0.01304209  0.63593729  0.75109878  1
  As  As3  1  0.52758132  0.84960731  0.75840687  1
  S  S0  1  0.15118056  0.20041510  0.25383142  1
  S  S1  1  0.61420640  0.28956236  0.25837752  1
  S  S2  1  0.35466628  0.68563839  0.75064858  1
  S  S3  1  0.84005685  0.85264127  0.74391419  1
loop_
_geom_bond_atom_site_label_1
_geom_bond_atom_site_label_2
_geom_bond_distance
_geom_bond_site_symmetry_2
Mg0 S2 2.456514 1_555
Mg0 S1 2.568239 1_556
Mg0 S1 2.585761 1_555
Ag0 As1 2.639296 1_555
Ag0 S1 2.670018 1_555
Ag0 S3 2.676878 1_544
Ag0 S3 2.725259 1_545
Ag0 Ag2 3.027417 1_555
Ag0 Ag2 3.204968 1_554
Ag1 S0 2.529226 1_555
Ag1 S2 2.651988 1_554
Ag1 S2 2.654319 1_555
Ag1 As0 2.863791 1_555
Ag2 S3 2.499778 1_555
Ag2 S1 2.801679 1_555
Ag2 Mg0 2.980000 1_555
Ag2 As3 3.115926 1_555
Ag2 S1 3.191342 1_556
Ag3 S0 2.589846 1_566
Ag3 S0 2.590663 1_565
Ag3 As2 2.595053 1_555
Ag3 S2 2.822658 1_555
As0 S1 2.386789 1_555
As0 As3 2.546457 1_545
As0 As3 2.555467 1_544
As0 Mg0 2.932997 1_555
As0 Mg0 2.958164 1_554
As1 S0 2.288871 1_655
As1 As2 2.563749 1_654
As1 As2 2.572062 1_655
As2 S3 2.296773 1_455
As3 S2 2.381874 1_555
As3 Mg0 2.768199 1_555
As3 Mg0 2.846026 1_565
