# generated using pymatgen
data_NpAl2
_symmetry_space_group_name_H-M   'P 1'
_cell_length_a   5.56995069
_cell_length_b   5.56995153
_cell_length_c   5.56995098
_cell_angle_alpha   59.99999679
_cell_angle_beta   59.99999175
_cell_angle_gamma   59.99999947
_symmetry_Int_Tables_number   1
_chemical_formula_structural   NpAl2
_chemical_formula_sum   'Np2 Al4'
_cell_volume   122.19096695
_cell_formula_units_Z   2
loop_
 _symmetry_equiv_pos_site_id
 _symmetry_equiv_pos_as_xyz
  1  'x, y, z'
loop_
 _atom_site_type_symbol
 _atom_site_label
 _atom_site_symmetry_multiplicity
 _atom_site_fract_x
 _atom_site_fract_y
 _atom_site_fract_z
 _atom_site_occupancy
  Np  Np0  1  0.87500000  0.87500000  0.87500000  1
  Np  Np1  1  0.12500000  0.12500000  0.12500000  1
  Al  Al0  1  0.50000000  0.50000000  0.50000000  1
  Al  Al1  1  0.50000000  0.50000000  0.00000000  1
  Al  Al2  1  -0.00000000  0.50000000  0.50000000  1
  Al  Al3  1  0.50000000  -0.00000000  0.50000000  1
loop_
_geom_bond_atom_site_label_1
_geom_bond_atom_site_label_2
_geom_bond_distance
_geom_bond_site_symmetry_2
Np0 Np1 3.410884 1_566
Np0 Np1 3.410884 1_665
Np0 Np1 3.410885 1_666
Np0 Np1 3.410885 1_656
Al0 Al2 2.784975 1_655
Al0 Al2 2.784975 1_555
Al0 Al1 2.784975 1_556
Al0 Al1 2.784975 1_555
Al0 Al3 2.784976 1_555
Al0 Al3 2.784976 1_565
Al0 Np0 3.265673 1_554
Al0 Np1 3.265673 1_556
Al0 Np0 3.265673 1_455
Al0 Np1 3.265673 1_655
Al0 Np0 3.265673 1_545
Al0 Np1 3.265673 1_565
Al1 Al2 2.784975 1_555
Al1 Al2 2.784975 1_654
Al1 Al3 2.784975 1_564
Al1 Al3 2.784975 1_555
Al1 Np0 3.265673 1_454
Al1 Np1 3.265673 1_655
Al1 Np1 3.265673 1_555
Al1 Np0 3.265673 1_554
Al1 Np0 3.265673 1_544
Al1 Np1 3.265673 1_565
Al2 Al3 2.784976 1_555
Al2 Al3 2.784976 1_465
Al2 Np0 3.265673 1_454
Al2 Np1 3.265673 1_556
Al2 Np0 3.265673 1_445
Al2 Np1 3.265673 1_565
Al2 Np1 3.265673 1_555
Al2 Np0 3.265673 1_455
Al3 Np0 3.265673 1_445
Al3 Np1 3.265673 1_655
Al3 Np0 3.265673 1_544
Al3 Np1 3.265673 1_556
Al3 Np0 3.265673 1_545
Al3 Np1 3.265673 1_555
