# generated using pymatgen
data_Nb2SiTe4
_symmetry_space_group_name_H-M   'P 1'
_cell_length_a   7.97734249
_cell_length_b   6.39441729
_cell_length_c   15.51106304
_cell_angle_alpha   73.76088886
_cell_angle_beta   90.00000000
_cell_angle_gamma   90.00000000
_symmetry_Int_Tables_number   1
_chemical_formula_structural   Nb2SiTe4
_chemical_formula_sum   'Nb8 Si4 Te16'
_cell_volume   759.65886441
_cell_formula_units_Z   4
loop_
 _symmetry_equiv_pos_site_id
 _symmetry_equiv_pos_as_xyz
  1  'x, y, z'
loop_
 _atom_site_type_symbol
 _atom_site_label
 _atom_site_symmetry_multiplicity
 _atom_site_fract_x
 _atom_site_fract_y
 _atom_site_fract_z
 _atom_site_occupancy
  Nb  Nb0  1  0.03679781  0.64689844  0.25011700  1
  Nb  Nb1  1  0.53679781  0.35310156  0.24988300  1
  Nb  Nb2  1  0.96320219  0.35310156  0.74988300  1
  Nb  Nb3  1  0.46320219  0.64689844  0.75011700  1
  Nb  Nb4  1  0.78803575  0.85332898  0.74993168  1
  Nb  Nb5  1  0.28803575  0.14667102  0.75006832  1
  Nb  Nb6  1  0.21196425  0.14667102  0.25006832  1
  Nb  Nb7  1  0.71196425  0.85332898  0.24993168  1
  Si  Si0  1  0.62548263  0.24991024  0.75037919  1
  Si  Si1  1  0.12548263  0.75008976  0.74962081  1
  Si  Si2  1  0.37451737  0.75008976  0.24962081  1
  Si  Si3  1  0.87451737  0.24991024  0.25037919  1
  Te  Te0  1  0.98185228  0.88763156  0.37666676  1
  Te  Te1  1  0.48185228  0.11236844  0.12333324  1
  Te  Te2  1  0.01814772  0.11236844  0.62333324  1
  Te  Te3  1  0.51814772  0.88763156  0.87666676  1
  Te  Te4  1  0.76673544  0.61213091  0.12369208  1
  Te  Te5  1  0.26673544  0.38786909  0.37630792  1
  Te  Te6  1  0.23326456  0.38786909  0.87630792  1
  Te  Te7  1  0.73326456  0.61213091  0.62369208  1
  Te  Te8  1  0.48239167  0.94076635  0.37636580  1
  Te  Te9  1  0.98239167  0.05923365  0.12363420  1
  Te  Te10  1  0.51760833  0.05923365  0.62363420  1
  Te  Te11  1  0.01760833  0.94076635  0.87636580  1
  Te  Te12  1  0.26598089  0.55905815  0.12339268  1
  Te  Te13  1  0.76598089  0.44094185  0.37660732  1
  Te  Te14  1  0.73401911  0.44094185  0.87660732  1
  Te  Te15  1  0.23401911  0.55905815  0.62339268  1
loop_
_geom_bond_atom_site_label_1
_geom_bond_atom_site_label_2
_geom_bond_distance
_geom_bond_site_symmetry_2
Nb0 Si2 2.773232 1_555
Nb0 Te9 2.845372 1_465
Nb0 Te0 2.846884 1_455
Nb0 Si3 2.848538 1_455
Nb0 Te5 2.850627 1_555
Nb0 Te12 2.852940 1_555
Nb0 Te4 2.963118 1_455
Nb0 Te13 2.967495 1_455
Nb1 Si3 2.773232 1_555
Nb1 Te8 2.845372 1_545
Nb1 Te1 2.846884 1_555
Nb1 Si2 2.848538 1_555
Nb1 Te4 2.850627 1_555
Nb1 Te13 2.852940 1_555
Nb1 Te5 2.963118 1_555
Nb1 Te12 2.967495 1_555
Nb2 Si0 2.773232 1_555
Nb2 Te11 2.845372 1_645
Nb2 Te2 2.846884 1_655
Nb2 Si1 2.848538 1_655
Nb2 Te7 2.850627 1_555
Nb2 Te14 2.852940 1_555
Nb2 Te6 2.963118 1_655
Nb2 Te15 2.967495 1_655
Nb3 Si1 2.773232 1_555
Nb3 Te10 2.845372 1_565
Nb3 Te3 2.846884 1_555
Nb3 Si0 2.848538 1_555
Nb3 Te6 2.850627 1_555
Nb3 Te15 2.852940 1_555
Nb3 Te7 2.963118 1_555
Nb3 Te14 2.967495 1_555
Nb4 Si1 2.772019 1_655
Nb4 Te7 2.844810 1_555
Nb4 Te14 2.846432 1_555
Nb4 Si0 2.849957 1_565
Nb4 Te11 2.850585 1_655
Nb4 Te2 2.854865 1_665
Nb4 Te10 2.963541 1_565
Nb4 Te3 2.964623 1_555
Nb5 Si0 2.772019 1_555
Nb5 Te6 2.844810 1_555
Nb5 Te15 2.846432 1_555
Nb5 Si1 2.849957 1_545
Nb5 Te10 2.850585 1_555
Nb5 Te3 2.854865 1_545
Nb5 Te11 2.963541 1_545
Nb5 Te2 2.964623 1_555
Nb6 Si3 2.772019 1_455
Nb6 Te5 2.844810 1_555
Nb6 Te12 2.846432 1_555
Nb6 Si2 2.849957 1_545
Nb6 Te9 2.850585 1_455
Nb6 Te0 2.854865 1_445
Nb6 Te8 2.963541 1_545
Nb6 Te1 2.964623 1_555
Nb7 Si2 2.772019 1_555
Nb7 Te4 2.844810 1_555
Nb7 Te13 2.846432 1_555
Nb7 Si3 2.849957 1_565
Nb7 Te8 2.850585 1_555
Nb7 Te1 2.854865 1_565
Nb7 Te9 2.963541 1_565
Nb7 Te0 2.964623 1_555
Si0 Te3 2.720067 1_545
Si0 Te14 2.722677 1_555
Si0 Te7 2.723942 1_555
Si0 Te10 2.726306 1_555
Si1 Te2 2.720067 1_565
Si1 Te15 2.722677 1_555
Si1 Te6 2.723942 1_555
Si1 Te11 2.726306 1_555
Si2 Te1 2.720067 1_565
Si2 Te12 2.722677 1_555
Si2 Te5 2.723942 1_555
Si2 Te8 2.726306 1_555
Si3 Te0 2.720067 1_545
Si3 Te13 2.722677 1_555
Si3 Te4 2.723942 1_555
Si3 Te9 2.726306 1_555
