# generated using pymatgen
data_Yb2O3
_symmetry_space_group_name_H-M   'P 1'
_cell_length_a   9.27624405
_cell_length_b   9.27624405
_cell_length_c   9.27624405
_cell_angle_alpha   109.47122063
_cell_angle_beta   109.47122063
_cell_angle_gamma   109.47122063
_symmetry_Int_Tables_number   1
_chemical_formula_structural   Yb2O3
_chemical_formula_sum   'Yb16 O24'
_cell_volume   614.46140208
_cell_formula_units_Z   8
loop_
 _symmetry_equiv_pos_site_id
 _symmetry_equiv_pos_as_xyz
  1  'x, y, z'
loop_
 _atom_site_type_symbol
 _atom_site_label
 _atom_site_symmetry_multiplicity
 _atom_site_fract_x
 _atom_site_fract_y
 _atom_site_fract_z
 _atom_site_occupancy
  Yb  Yb0  1  0.50000000  0.00000000  0.50000000  1
  Yb  Yb1  1  0.50000000  0.50000000  0.00000000  1
  Yb  Yb2  1  0.00000000  0.50000000  0.50000000  1
  Yb  Yb3  1  0.00000000  0.00000000  0.00000000  1
  Yb  Yb4  1  0.78077200  0.25000000  0.03077200  1
  Yb  Yb5  1  0.71922800  0.75000000  0.46922800  1
  Yb  Yb6  1  0.25000000  0.03077200  0.78077200  1
  Yb  Yb7  1  0.75000000  0.46922800  0.71922800  1
  Yb  Yb8  1  0.03077200  0.78077200  0.25000000  1
  Yb  Yb9  1  0.46922800  0.71922800  0.75000000  1
  Yb  Yb10  1  0.21922800  0.75000000  0.96922800  1
  Yb  Yb11  1  0.28077200  0.25000000  0.53077200  1
  Yb  Yb12  1  0.75000000  0.96922800  0.21922800  1
  Yb  Yb13  1  0.25000000  0.53077200  0.28077200  1
  Yb  Yb14  1  0.96922800  0.21922800  0.75000000  1
  Yb  Yb15  1  0.53077200  0.28077200  0.25000000  1
  O  O0  1  0.49405100  0.23237700  0.46393800  1
  O  O1  1  0.23156100  0.26762300  0.76167400  1
  O  O2  1  0.00594900  0.46988700  0.73832600  1
  O  O3  1  0.26843900  0.03011300  0.03606200  1
  O  O4  1  0.23237700  0.46393800  0.49405100  1
  O  O5  1  0.26762300  0.76167400  0.23156100  1
  O  O6  1  0.46988700  0.73832600  0.00594900  1
  O  O7  1  0.03011300  0.03606200  0.26843900  1
  O  O8  1  0.46393800  0.49405100  0.23237700  1
  O  O9  1  0.76167400  0.23156100  0.26762300  1
  O  O10  1  0.73832600  0.00594900  0.46988700  1
  O  O11  1  0.03606200  0.26843900  0.03011300  1
  O  O12  1  0.50594900  0.76762300  0.53606200  1
  O  O13  1  0.76843900  0.73237700  0.23832600  1
  O  O14  1  0.99405100  0.53011300  0.26167400  1
  O  O15  1  0.73156100  0.96988700  0.96393800  1
  O  O16  1  0.76762300  0.53606200  0.50594900  1
  O  O17  1  0.73237700  0.23832600  0.76843900  1
  O  O18  1  0.53011300  0.26167400  0.99405100  1
  O  O19  1  0.96988700  0.96393800  0.73156100  1
  O  O20  1  0.53606200  0.50594900  0.76762300  1
  O  O21  1  0.23832600  0.76843900  0.73237700  1
  O  O22  1  0.26167400  0.99405100  0.53011300  1
  O  O23  1  0.96393800  0.73156100  0.96988700  1
loop_
_geom_bond_atom_site_label_1
_geom_bond_atom_site_label_2
_geom_bond_distance
_geom_bond_site_symmetry_2
O0 Yb15 2.280050 1_555
O0 Yb11 2.300222 1_555
O0 Yb0 2.304174 1_555
O0 Yb7 2.318977 1_555
O1 Yb14 2.280050 1_455
O1 Yb11 2.300222 1_555
O1 Yb1 2.304174 1_556
O1 Yb6 2.318977 1_555
O2 Yb14 2.280050 1_455
O2 Yb10 2.300222 1_555
O2 Yb2 2.304174 1_555
O2 Yb7 2.318977 1_455
O3 Yb15 2.280050 1_555
O3 Yb10 2.300222 1_544
O3 Yb3 2.304174 1_555
O3 Yb6 2.318977 1_554
O4 Yb11 2.280050 1_555
O4 Yb13 2.300222 1_555
O4 Yb2 2.304174 1_555
O4 Yb9 2.318977 1_555
O5 Yb10 2.280050 1_554
O5 Yb13 2.300222 1_555
O5 Yb0 2.304174 1_565
O5 Yb8 2.318977 1_555
O6 Yb10 2.280050 1_554
O6 Yb12 2.300222 1_555
O6 Yb1 2.304174 1_555
O6 Yb9 2.318977 1_554
O7 Yb11 2.280050 1_555
O7 Yb12 2.300222 1_445
O7 Yb3 2.304174 1_555
O7 Yb8 2.318977 1_545
O8 Yb13 2.280050 1_555
O8 Yb15 2.300222 1_555
O8 Yb1 2.304174 1_555
O8 Yb5 2.318977 1_555
O9 Yb12 2.280050 1_545
O9 Yb15 2.300222 1_555
O9 Yb2 2.304174 1_655
O9 Yb4 2.318977 1_555
O10 Yb12 2.280050 1_545
O10 Yb14 2.300222 1_555
O10 Yb0 2.304174 1_555
O10 Yb5 2.318977 1_545
O11 Yb13 2.280050 1_555
O11 Yb14 2.300222 1_454
O11 Yb3 2.304174 1_555
O11 Yb4 2.318977 1_455
O12 Yb9 2.280050 1_555
O12 Yb5 2.300222 1_555
O12 Yb0 2.304174 1_565
O12 Yb13 2.318977 1_555
O13 Yb8 2.280050 1_655
O13 Yb5 2.300222 1_555
O13 Yb1 2.304174 1_555
O13 Yb12 2.318977 1_555
O14 Yb8 2.280050 1_655
O14 Yb4 2.300222 1_555
O14 Yb2 2.304174 1_655
O14 Yb13 2.318977 1_655
O15 Yb9 2.280050 1_555
O15 Yb4 2.300222 1_566
O15 Yb3 2.304174 1_666
O15 Yb12 2.318977 1_556
O16 Yb5 2.280050 1_555
O16 Yb7 2.300222 1_555
O16 Yb2 2.304174 1_655
O16 Yb15 2.318977 1_555
O17 Yb4 2.280050 1_556
O17 Yb7 2.300222 1_555
O17 Yb0 2.304174 1_555
O17 Yb14 2.318977 1_555
O18 Yb4 2.280050 1_556
O18 Yb6 2.300222 1_555
O18 Yb1 2.304174 1_556
O18 Yb15 2.318977 1_556
O19 Yb5 2.280050 1_555
O19 Yb6 2.300222 1_665
O19 Yb3 2.304174 1_666
O19 Yb14 2.318977 1_565
O20 Yb7 2.280050 1_555
O20 Yb9 2.300222 1_555
O20 Yb1 2.304174 1_556
O20 Yb11 2.318977 1_555
O21 Yb6 2.280050 1_565
O21 Yb9 2.300222 1_555
O21 Yb2 2.304174 1_555
O21 Yb10 2.318977 1_555
O22 Yb6 2.280050 1_565
O22 Yb8 2.300222 1_555
O22 Yb0 2.304174 1_565
O22 Yb11 2.318977 1_565
O23 Yb7 2.280050 1_555
O23 Yb8 2.300222 1_656
O23 Yb3 2.304174 1_666
O23 Yb10 2.318977 1_655
