# generated using pymatgen
data_Na3HfGaSi(PO6)2
_symmetry_space_group_name_H-M   'P 1'
_cell_length_a   15.58211343
_cell_length_b   8.89551833
_cell_length_c   8.92971538
_cell_angle_alpha   90.00000000
_cell_angle_beta   124.47207326
_cell_angle_gamma   90.00000000
_symmetry_Int_Tables_number   1
_chemical_formula_structural   Na3HfGaSi(PO6)2
_chemical_formula_sum   'Na12 Hf4 Ga4 Si4 P8 O48'
_cell_volume   1020.40918780
_cell_formula_units_Z   4
loop_
 _symmetry_equiv_pos_site_id
 _symmetry_equiv_pos_as_xyz
  1  'x, y, z'
loop_
 _atom_site_type_symbol
 _atom_site_label
 _atom_site_symmetry_multiplicity
 _atom_site_fract_x
 _atom_site_fract_y
 _atom_site_fract_z
 _atom_site_occupancy
  Na  Na0  1  0.24874613  0.72751188  0.99059001  1
  Na  Na1  1  0.74874613  0.77248812  0.49059001  1
  Na  Na2  1  0.74874613  0.22751188  0.99059001  1
  Na  Na3  1  0.24874613  0.27248812  0.49059001  1
  Na  Na4  1  0.50388723  0.09858696  0.75882264  1
  Na  Na5  1  0.50388723  0.90141304  0.25882264  1
  Na  Na6  1  0.00388723  0.59858696  0.75882264  1
  Na  Na7  1  0.00388723  0.40141304  0.25882264  1
  Na  Na8  1  0.18415113  0.92608790  0.28717255  1
  Na  Na9  1  0.18415113  0.07391210  0.78717255  1
  Na  Na10  1  0.68415113  0.42608790  0.28717255  1
  Na  Na11  1  0.68415113  0.57391210  0.78717255  1
  Hf  Hf0  1  0.89503898  0.75664119  0.93652836  1
  Hf  Hf1  1  0.89503898  0.24335881  0.43652836  1
  Hf  Hf2  1  0.39503898  0.25664119  0.93652836  1
  Hf  Hf3  1  0.39503898  0.74335881  0.43652836  1
  Ga  Ga0  1  0.10453761  0.74093231  0.55936465  1
  Ga  Ga1  1  0.10453761  0.25906769  0.05936465  1
  Ga  Ga2  1  0.60453761  0.24093231  0.55936465  1
  Ga  Ga3  1  0.60453761  0.75906769  0.05936465  1
  Si  Si0  1  0.64383317  0.90102956  0.74350993  1
  Si  Si1  1  0.64383317  0.09897044  0.24350993  1
  Si  Si2  1  0.14383317  0.40102956  0.74350993  1
  Si  Si3  1  0.14383317  0.59897044  0.24350993  1
  P  P0  1  0.00503836  0.95703481  0.75845624  1
  P  P1  1  0.00503836  0.04296519  0.25845624  1
  P  P2  1  0.50503836  0.45703481  0.75845624  1
  P  P3  1  0.50503836  0.54296519  0.25845624  1
  P  P4  1  0.35114237  0.88879674  0.75800880  1
  P  P5  1  0.35114237  0.11120326  0.25800880  1
  P  P6  1  0.85114237  0.38879674  0.75800880  1
  P  P7  1  0.85114237  0.61120326  0.25800880  1
  O  O0  1  0.14579348  0.58432198  0.73753479  1
  O  O1  1  0.84701878  0.56562684  0.76019847  1
  O  O2  1  0.84701878  0.43437316  0.26019847  1
  O  O3  1  0.14579348  0.41567802  0.23753479  1
  O  O4  1  0.64579348  0.08432198  0.73753479  1
  O  O5  1  0.34701878  0.06562684  0.76019847  1
  O  O6  1  0.34701878  0.93437316  0.26019847  1
  O  O7  1  0.64579348  0.91567802  0.23753479  1
  O  O8  1  0.44122908  0.55911156  0.58994127  1
  O  O9  1  0.57011823  0.55259578  0.93214907  1
  O  O10  1  0.57011823  0.44740422  0.43214907  1
  O  O11  1  0.44122908  0.44088844  0.08994127  1
  O  O12  1  0.94122908  0.05911156  0.58994127  1
  O  O13  1  0.07011823  0.05259578  0.93214907  1
  O  O14  1  0.07011823  0.94740422  0.43214907  1
  O  O15  1  0.94122908  0.94088844  0.08994127  1
  O  O16  1  0.25410229  0.83141598  0.74510047  1
  O  O17  1  0.74195268  0.81788177  0.75587709  1
  O  O18  1  0.74195268  0.18211823  0.25587709  1
  O  O19  1  0.25410229  0.16858402  0.24510047  1
  O  O20  1  0.75410229  0.33141598  0.74510047  1
  O  O21  1  0.24195268  0.31788177  0.75587709  1
  O  O22  1  0.24195268  0.68211823  0.25587709  1
  O  O23  1  0.75410229  0.66858402  0.24510047  1
  O  O24  1  0.34906871  0.85521711  0.58432680  1
  O  O25  1  0.63840896  0.85538833  0.91419510  1
  O  O26  1  0.63840896  0.14461167  0.41419510  1
  O  O27  1  0.34906871  0.14478289  0.08432680  1
  O  O28  1  0.84906871  0.35521711  0.58432680  1
  O  O29  1  0.13840896  0.35538833  0.91419510  1
  O  O30  1  0.13840896  0.64461167  0.41419510  1
  O  O31  1  0.84906871  0.64478289  0.08432680  1
  O  O32  1  0.45124947  0.82891166  0.92930258  1
  O  O33  1  0.53767661  0.83537804  0.55874372  1
  O  O34  1  0.53767661  0.16462196  0.05874372  1
  O  O35  1  0.45124947  0.17108834  0.42930258  1
  O  O36  1  0.95124947  0.32891166  0.92930258  1
  O  O37  1  0.03767661  0.33537804  0.55874372  1
  O  O38  1  0.03767661  0.66462196  0.05874372  1
  O  O39  1  0.95124947  0.67108834  0.42930258  1
  O  O40  1  0.08246944  0.85968155  0.74436503  1
  O  O41  1  0.92453730  0.85198460  0.75581244  1
  O  O42  1  0.92453730  0.14801540  0.25581244  1
  O  O43  1  0.08246944  0.14031845  0.24436503  1
  O  O44  1  0.58246944  0.35968155  0.74436503  1
  O  O45  1  0.42453730  0.35198460  0.75581244  1
  O  O46  1  0.42453730  0.64801540  0.25581244  1
  O  O47  1  0.58246944  0.64031845  0.24436503  1
loop_
_geom_bond_atom_site_label_1
_geom_bond_atom_site_label_2
_geom_bond_distance
_geom_bond_site_symmetry_2
Na0 O0 2.280052 1_555
Na0 O16 2.423613 1_555
Na0 O22 2.463737 1_556
Na0 O46 2.503720 1_556
Na0 O40 2.545758 1_555
Na0 O6 2.711799 1_556
Na1 O7 2.280052 1_555
Na1 O23 2.423613 1_555
Na1 O17 2.463737 1_555
Na1 O41 2.503720 1_555
Na1 O47 2.545758 1_555
Na1 O1 2.711799 1_555
Na2 O4 2.280052 1_555
Na2 O20 2.423613 1_555
Na2 O18 2.463737 1_556
Na2 O42 2.503720 1_556
Na2 O44 2.545758 1_555
Na2 O2 2.711799 1_556
Na3 O3 2.280052 1_555
Na3 O19 2.423613 1_555
Na3 O21 2.463737 1_555
Na3 O45 2.503720 1_555
Na3 O43 2.545758 1_555
Na3 O5 2.711799 1_555
Na4 O4 2.327545 1_555
Na4 O5 2.468789 1_555
Na4 O34 2.489744 1_556
Na4 O45 2.563760 1_555
Na4 O35 2.648591 1_555
Na4 O44 2.662574 1_555
Na4 O25 2.776110 1_545
Na4 O24 2.946054 1_545
Na5 O7 2.327545 1_555
Na5 O6 2.468789 1_555
Na5 O33 2.489744 1_555
Na5 O46 2.563760 1_555
Na5 O32 2.648591 1_554
Na5 O47 2.662574 1_555
Na5 O26 2.776110 1_565
Na5 O27 2.946054 1_565
Na6 O0 2.327545 1_555
Na6 O1 2.468789 1_455
Na6 O38 2.489744 1_556
Na6 O41 2.563760 1_455
Na6 O39 2.648591 1_455
Na6 O40 2.662574 1_555
Na6 O29 2.776110 1_555
Na6 O28 2.946054 1_455
Na7 O3 2.327545 1_555
Na7 O2 2.468789 1_455
Na7 O37 2.489744 1_555
Na7 O42 2.563760 1_455
Na7 O36 2.648591 1_454
Na7 O43 2.662574 1_555
Na7 O30 2.776110 1_555
Na7 O31 2.946054 1_455
Na8 O43 2.366970 1_565
Na8 O22 2.425729 1_555
Na8 O24 2.514594 1_555
Na8 O19 2.538893 1_565
Na8 O6 2.682531 1_555
Na8 O14 2.733720 1_555
Na8 O13 2.845604 1_564
Na9 O40 2.366970 1_545
Na9 O21 2.425729 1_555
Na9 O27 2.514594 1_556
Na9 O16 2.538893 1_545
Na9 O5 2.682531 1_555
Na9 O13 2.733720 1_555
Na9 O14 2.845604 1_545
Na10 O47 2.366970 1_555
Na10 O18 2.425729 1_555
Na10 O28 2.514594 1_555
Na10 O23 2.538893 1_555
Na10 O2 2.682531 1_555
Na10 O10 2.733720 1_555
Na10 O9 2.845604 1_554
Na11 O44 2.366970 1_555
Na11 O17 2.425729 1_555
Na11 O31 2.514594 1_556
Na11 O20 2.538893 1_555
Na11 O1 2.682531 1_555
Na11 O9 2.733720 1_555
Na11 O10 2.845604 1_555
Hf0 O15 1.991187 1_556
Hf0 O38 2.013748 1_656
Hf0 O17 2.057476 1_555
Hf0 O31 2.077321 1_556
Hf0 O41 2.091513 1_555
Hf0 O1 2.143045 1_555
Hf1 O12 1.991187 1_555
Hf1 O37 2.013748 1_655
Hf1 O18 2.057476 1_555
Hf1 O28 2.077321 1_555
Hf1 O42 2.091513 1_555
Hf1 O2 2.143045 1_555
Hf2 O11 1.991187 1_556
Hf2 O34 2.013748 1_556
Hf2 O21 2.057476 1_555
Hf2 O27 2.077321 1_556
Hf2 O45 2.091513 1_555
Hf2 O5 2.143045 1_555
Hf3 O8 1.991187 1_555
Hf3 O33 2.013748 1_555
Hf3 O22 2.057476 1_555
Hf3 O24 2.077321 1_555
Hf3 O46 2.091513 1_555
Hf3 O6 2.143045 1_555
Ga0 O30 1.862165 1_555
Ga0 O0 1.930694 1_555
Ga0 O14 2.064417 1_555
Ga0 O39 2.073590 1_455
Ga0 O16 2.110566 1_555
Ga0 O40 2.146220 1_555
Ga1 O29 1.862165 1_554
Ga1 O3 1.930694 1_555
Ga1 O13 2.064417 1_554
Ga1 O36 2.073590 1_454
Ga1 O19 2.110566 1_555
Ga1 O43 2.146220 1_555
Ga2 O26 1.862165 1_555
Ga2 O4 1.930694 1_555
Ga2 O10 2.064417 1_555
Ga2 O35 2.073590 1_555
Ga2 O20 2.110566 1_555
Ga2 O44 2.146220 1_555
Ga3 O25 1.862165 1_554
Ga3 O7 1.930694 1_555
Ga3 O9 2.064417 1_554
Ga3 O32 2.073590 1_554
Ga3 O23 2.110566 1_555
Ga3 O47 2.146220 1_555
O0 Si2 1.632205 1_555
O1 P6 1.574880 1_555
O2 P7 1.574880 1_555
O3 Si3 1.632205 1_555
O4 Si0 1.632205 1_545
O5 P4 1.574880 1_545
O6 P5 1.574880 1_565
O7 Si1 1.632205 1_565
O8 P2 1.543958 1_555
O9 P2 1.541479 1_555
O10 P3 1.541479 1_555
O11 P3 1.543958 1_555
O12 P0 1.543958 1_645
O13 P0 1.541479 1_545
O14 P1 1.541479 1_565
O15 P1 1.543958 1_665
O16 P4 1.537185 1_555
O17 Si0 1.644900 1_555
O18 Si1 1.644900 1_555
O19 P5 1.537185 1_555
O20 P6 1.537185 1_555
O21 Si2 1.644900 1_555
O22 Si3 1.644900 1_555
O23 P7 1.537185 1_555
O24 P4 1.561707 1_555
O25 Si0 1.625086 1_555
O26 Si1 1.625086 1_555
O27 P5 1.561707 1_555
O28 P6 1.561707 1_555
O29 Si2 1.625086 1_555
O30 Si3 1.625086 1_555
O31 P7 1.561707 1_555
O32 P4 1.534836 1_555
O33 Si0 1.646204 1_555
O34 Si1 1.646204 1_555
O35 P5 1.534836 1_555
O36 P6 1.534836 1_555
O37 Si2 1.646204 1_555
O38 Si3 1.646204 1_555
O39 P7 1.534836 1_555
O40 P0 1.547062 1_555
O41 P0 1.553622 1_655
O42 P1 1.553622 1_655
O43 P1 1.547062 1_555
O44 P2 1.547062 1_555
O45 P2 1.553622 1_555
O46 P3 1.553622 1_555
O47 P3 1.547062 1_555
