# generated using pymatgen
data_Na7HfMg3P5SO24
_symmetry_space_group_name_H-M   'P 1'
_cell_length_a   9.02149653
_cell_length_b   8.99616196
_cell_length_c   22.21876045
_cell_angle_alpha   89.67581476
_cell_angle_beta   90.21465746
_cell_angle_gamma   119.88181301
_symmetry_Int_Tables_number   1
_chemical_formula_structural   Na7HfMg3P5SO24
_chemical_formula_sum   'Na21 Hf3 Mg9 P15 S3 O72'
_cell_volume   1563.48994880
_cell_formula_units_Z   3
loop_
 _symmetry_equiv_pos_site_id
 _symmetry_equiv_pos_as_xyz
  1  'x, y, z'
loop_
 _atom_site_type_symbol
 _atom_site_label
 _atom_site_symmetry_multiplicity
 _atom_site_fract_x
 _atom_site_fract_y
 _atom_site_fract_z
 _atom_site_occupancy
  Na  Na0  1  0.62424555  0.99933874  0.25087714  1
  Na  Na1  1  0.36480322  0.35807885  0.25216885  1
  Na  Na2  1  0.00851367  0.64210690  0.24995409  1
  Na  Na3  1  0.64435435  0.63477635  0.74737496  1
  Na  Na4  1  0.99241005  0.35548132  0.74787864  1
  Na  Na5  1  0.29769370  0.33951841  0.58645860  1
  Na  Na6  1  0.02776878  0.69559423  0.58726660  1
  Na  Na7  1  0.67396672  0.96379742  0.58547702  1
  Na  Na8  1  0.29758673  0.96286488  0.08268498  1
  Na  Na9  1  0.66408997  0.70032560  0.07932926  1
  Na  Na10  1  0.03625819  0.33522279  0.07997683  1
  Na  Na11  1  0.97370381  0.67788612  0.91119397  1
  Na  Na12  1  0.32409769  0.29695712  0.91068923  1
  Na  Na13  1  0.32439328  0.02357571  0.41213798  1
  Na  Na14  1  0.69568087  0.67417105  0.41697442  1
  Na  Na15  1  0.99440812  0.01013654  0.49722015  1
  Na  Na16  1  0.99046097  0.00034142  0.99528284  1
  Na  Na17  1  0.65658122  0.31306787  0.82572333  1
  Na  Na18  1  0.66691301  0.32550946  0.33316859  1
  Na  Na19  1  0.33204436  0.67244439  0.16292212  1
  Na  Na20  1  0.33349373  0.66888501  0.66643947  1
  Hf  Hf0  1  0.66734086  0.32850923  0.98081652  1
  Hf  Hf1  1  0.67808049  0.33795386  0.48004595  1
  Hf  Hf2  1  0.33584838  0.67448399  0.81407891  1
  Mg  Mg0  1  0.00759405  0.00895133  0.35382731  1
  Mg  Mg1  1  0.99632561  0.00168189  0.84833124  1
  Mg  Mg2  1  0.99582529  0.00024101  0.65525057  1
  Mg  Mg3  1  0.00651944  0.99854448  0.14708787  1
  Mg  Mg4  1  0.66702019  0.33480955  0.68703416  1
  Mg  Mg5  1  0.66014889  0.32712281  0.17976768  1
  Mg  Mg6  1  0.33523878  0.66789393  0.01589029  1
  Mg  Mg7  1  0.33155663  0.65931183  0.51320463  1
  Mg  Mg8  1  0.33050723  0.67035824  0.32254534  1
  P  P0  1  0.29555281  0.99940123  0.25016339  1
  P  P1  1  0.29630430  0.29208706  0.75032426  1
  P  P2  1  0.99932793  0.70720301  0.74949975  1
  P  P3  1  0.70796350  0.00332351  0.74849156  1
  P  P4  1  0.96470870  0.33446201  0.58629617  1
  P  P5  1  0.66589811  0.62921491  0.58459463  1
  P  P6  1  0.96108626  0.62681350  0.08589054  1
  P  P7  1  0.66657798  0.03521652  0.08691115  1
  P  P8  1  0.37139325  0.33579106  0.08523821  1
  P  P9  1  0.63038211  0.67183337  0.91912091  1
  P  P10  1  0.04130341  0.37088406  0.91863829  1
  P  P11  1  0.33013537  0.95935482  0.91957901  1
  P  P12  1  0.62876547  0.95908340  0.41634502  1
  P  P13  1  0.33051855  0.37073652  0.41648573  1
  P  P14  1  0.04152269  0.66969850  0.41592699  1
  S  S0  1  0.70623683  0.70614796  0.25012002  1
  S  S1  1  0.99987498  0.29293980  0.24939570  1
  S  S2  1  0.37418398  0.04036777  0.58366931  1
  O  O0  1  0.21108611  0.02697894  0.30587743  1
  O  O1  1  0.81090283  0.78789262  0.30411538  1
  O  O2  1  0.97201844  0.18159797  0.30193879  1
  O  O3  1  0.21210681  0.18972907  0.80783750  1
  O  O4  1  0.97444137  0.78959646  0.80615447  1
  O  O5  1  0.82269583  0.02965214  0.80293224  1
  O  O6  1  0.77573371  0.96274161  0.69084772  1
  O  O7  1  0.18496847  0.21785532  0.69351736  1
  O  O8  1  0.02764032  0.81197316  0.69182747  1
  O  O9  1  0.78621474  0.81313671  0.19558739  1
  O  O10  1  0.02345400  0.21474254  0.19401658  1
  O  O11  1  0.18451393  0.97201159  0.19348662  1
  O  O12  1  0.87907600  0.36091124  0.64110321  1
  O  O13  1  0.48469191  0.12455849  0.63532193  1
  O  O14  1  0.63691843  0.51358547  0.63908113  1
  O  O15  1  0.87675435  0.51496742  0.14169004  1
  O  O16  1  0.63801969  0.11624009  0.14303839  1
  O  O17  1  0.48293724  0.36499059  0.14114075  1
  O  O18  1  0.46236077  0.30782584  0.02937815  1
  O  O19  1  0.84498528  0.53622612  0.02927572  1
  O  O20  1  0.69462267  0.15716635  0.03180807  1
  O  O21  1  0.45454543  0.14575451  0.52755122  1
  O  O22  1  0.68807412  0.53650643  0.52748348  1
  O  O23  1  0.84367697  0.30688249  0.53060008  1
  O  O24  1  0.54565223  0.68913243  0.97564029  1
  O  O25  1  0.14828743  0.45545916  0.97486182  1
  O  O26  1  0.30527356  0.85335143  0.97626684  1
  O  O27  1  0.54510064  0.85089677  0.47300612  1
  O  O28  1  0.31266232  0.45433217  0.47352719  1
  O  O29  1  0.15045378  0.69670036  0.47232569  1
  O  O30  1  0.11522149  0.63831146  0.35862851  1
  O  O31  1  0.51746793  0.88472312  0.35951311  1
  O  O32  1  0.36783981  0.48326538  0.35955017  1
  O  O33  1  0.12595475  0.48916742  0.86249363  1
  O  O34  1  0.35725440  0.87084459  0.86444092  1
  O  O35  1  0.51298524  0.63790955  0.86289326  1
  O  O36  1  0.01343665  0.82564494  0.41058618  1
  O  O37  1  0.80635998  0.97699960  0.40936067  1
  O  O38  1  0.17978484  0.18709799  0.41129323  1
  O  O39  1  0.02391732  0.19459918  0.91108151  1
  O  O40  1  0.17317667  0.98241697  0.91168723  1
  O  O41  1  0.81261547  0.82101052  0.91160866  1
  O  O42  1  0.98203445  0.17191981  0.58769949  1
  O  O43  1  0.20338571  0.02527306  0.58739245  1
  O  O44  1  0.83159937  0.80596423  0.58614726  1
  O  O45  1  0.97362702  0.80481620  0.08814559  1
  O  O46  1  0.83042778  0.02086636  0.08997874  1
  O  O47  1  0.19312586  0.17230940  0.08828372  1
  O  O48  1  0.68706340  0.16144419  0.74250610  1
  O  O49  1  0.47977908  0.32545288  0.74467811  1
  O  O50  1  0.84115925  0.52437748  0.74547137  1
  O  O51  1  0.69081255  0.53332433  0.24524465  1
  O  O52  1  0.84703121  0.31580676  0.24502784  1
  O  O53  1  0.47797899  0.16287027  0.24553714  1
  O  O54  1  0.64211707  0.50063661  0.92299523  1
  O  O55  1  0.86257005  0.36218987  0.92300889  1
  O  O56  1  0.49249818  0.14355793  0.92296565  1
  O  O57  1  0.64139200  0.14027877  0.42340463  1
  O  O58  1  0.49803992  0.35182049  0.42287069  1
  O  O59  1  0.85481428  0.50825186  0.42242383  1
  O  O60  1  0.35242683  0.49582760  0.07796107  1
  O  O61  1  0.13977203  0.64586423  0.07903933  1
  O  O62  1  0.50656372  0.85781298  0.07870432  1
  O  O63  1  0.35549883  0.86735081  0.57734521  1
  O  O64  1  0.50643435  0.65064769  0.57751266  1
  O  O65  1  0.14171664  0.49799420  0.57765308  1
  O  O66  1  0.31566379  0.83641384  0.25490749  1
  O  O67  1  0.53159938  0.68464151  0.25461199  1
  O  O68  1  0.15629944  0.46511219  0.25509077  1
  O  O69  1  0.31303138  0.47851495  0.75662949  1
  O  O70  1  0.15963016  0.67996006  0.75603942  1
  O  O71  1  0.52684730  0.83547788  0.75724341  1
loop_
_geom_bond_atom_site_label_1
_geom_bond_atom_site_label_2
_geom_bond_distance
_geom_bond_site_symmetry_2
Na0 O66 2.416790 1_555
Na0 O53 2.418830 1_565
Na0 O67 2.522002 1_555
Na0 O52 2.541256 1_565
Na0 O16 2.589587 1_565
Na0 O31 2.610916 1_555
Na1 O53 2.436975 1_555
Na1 O68 2.505185 1_555
Na1 O67 2.548387 1_555
Na1 O51 2.557272 1_555
Na1 O32 2.638308 1_555
Na1 O17 2.679038 1_555
Na1 O0 2.841775 1_555
Na1 O10 2.974511 1_555
Na2 O66 2.432981 1_555
Na2 O51 2.527345 1_455
Na2 O68 2.537326 1_555
Na2 O52 2.548033 1_455
Na2 O30 2.602429 1_555
Na2 O15 2.676292 1_455
Na2 O11 2.860201 1_555
Na2 O1 2.951284 1_455
Na3 O49 2.415773 1_555
Na3 O50 2.428694 1_555
Na3 O71 2.518982 1_555
Na3 O69 2.601391 1_555
Na3 O14 2.634071 1_555
Na3 O35 2.837265 1_555
Na3 O6 2.858676 1_555
Na3 O4 2.893440 1_555
Na4 O48 2.420362 1_555
Na4 O50 2.497549 1_555
Na4 O69 2.537227 1_655
Na4 O70 2.538831 1_655
Na4 O12 2.589676 1_555
Na4 O5 2.816747 1_555
Na4 O33 2.819747 1_655
Na4 O7 2.860992 1_655
Na5 O65 2.458582 1_555
Na5 O42 2.470909 1_455
Na5 O64 2.482835 1_555
Na5 O43 2.513779 1_555
Na5 O7 2.601920 1_555
Na5 O28 2.686145 1_555
Na5 O14 2.898881 1_555
Na6 O44 2.422553 1_455
Na6 O65 2.467624 1_555
Na6 O8 2.553861 1_555
Na6 O43 2.573776 1_565
Na6 O63 2.574219 1_555
Na6 O29 2.785166 1_555
Na6 O12 2.870962 1_455
Na6 O22 2.970678 1_455
Na7 O64 2.452137 1_555
Na7 O42 2.459094 1_565
Na7 O44 2.459720 1_555
Na7 O6 2.513277 1_555
Na7 O63 2.560060 1_555
Na7 O27 2.730999 1_555
Na7 O23 2.935942 1_565
Na7 O13 2.954115 1_565
Na8 O61 2.474340 1_555
Na8 O47 2.495319 1_565
Na8 O62 2.496560 1_555
Na8 O45 2.537329 1_455
Na8 O26 2.581057 1_554
Na8 O11 2.685688 1_555
Na8 O18 2.935666 1_565
Na8 O16 2.983622 1_565
Na9 O62 2.456197 1_555
Na9 O45 2.470299 1_555
Na9 O60 2.477247 1_555
Na9 O46 2.513264 1_565
Na9 O24 2.517232 1_554
Na9 O9 2.794724 1_555
Na9 O19 2.917565 1_555
Na9 O17 2.952127 1_555
Na10 O61 2.466027 1_555
Na10 O60 2.473678 1_555
Na10 O47 2.499284 1_555
Na10 O46 2.501698 1_455
Na10 O25 2.558502 1_554
Na10 O10 2.730332 1_555
Na10 O20 2.878507 1_455
Na10 O15 2.987287 1_455
Na11 O41 2.373731 1_555
Na11 O40 2.414892 1_655
Na11 O55 2.509245 1_555
Na11 O4 2.534513 1_555
Na11 O54 2.609237 1_555
Na11 O33 2.880151 1_655
Na11 O19 2.892472 1_556
Na11 O26 2.969567 1_655
Na12 O39 2.386840 1_555
Na12 O40 2.453941 1_545
Na12 O3 2.492013 1_555
Na12 O56 2.523595 1_555
Na12 O54 2.534764 1_555
Na12 O35 2.865009 1_555
Na12 O18 2.894230 1_556
Na12 O25 2.979146 1_555
Na13 O38 2.403774 1_555
Na13 O36 2.462546 1_545
Na13 O57 2.519778 1_555
Na13 O58 2.574217 1_555
Na13 O0 2.575331 1_555
Na13 O21 2.808200 1_555
Na13 O31 2.856791 1_545
Na13 O29 2.875988 1_545
Na14 O37 2.394363 1_555
Na14 O36 2.490612 1_655
Na14 O59 2.536825 1_555
Na14 O58 2.539915 1_555
Na14 O1 2.710353 1_555
Na14 O22 2.729378 1_555
Na14 O27 2.847816 1_555
Na14 O32 2.874047 1_555
Na15 O37 2.501110 1_545
Na15 O38 2.512548 1_655
Na15 O42 2.523663 1_555
Na15 O44 2.593747 1_545
Na15 O36 2.609960 1_645
Na15 O43 2.702947 1_655
Na16 O41 2.462869 1_545
Na16 O39 2.467154 1_655
Na16 O40 2.546410 1_645
Na16 O46 2.614992 1_556
Na16 O45 2.658825 1_546
Na16 O47 2.682443 1_656
Na17 O48 2.400220 1_555
Na17 O49 2.439753 1_555
Na17 O50 2.528972 1_555
Na17 O56 2.631023 1_555
Na17 O55 2.735591 1_555
Na17 O54 2.792521 1_555
Na18 O53 2.521792 1_555
Na18 O57 2.536317 1_555
Na18 O52 2.578835 1_555
Na18 O58 2.595530 1_555
Na18 O59 2.596907 1_555
Na18 O51 2.630253 1_555
Na19 O61 2.471262 1_555
Na19 O62 2.476247 1_555
Na19 O60 2.539589 1_555
Na19 O66 2.574578 1_555
Na19 O67 2.679852 1_555
Na19 O68 2.687179 1_555
Na20 O65 2.570382 1_555
Na20 O70 2.571924 1_555
Na20 O69 2.575199 1_555
Na20 O64 2.578153 1_555
Na20 O63 2.599158 1_555
Na20 O71 2.600438 1_555
Hf0 O20 2.019002 1_556
Hf0 O19 2.060425 1_556
Hf0 O18 2.070816 1_556
Hf0 O56 2.074254 1_555
Hf0 O55 2.079509 1_555
Hf0 O54 2.103924 1_555
Hf1 O23 1.992891 1_555
Hf1 O59 2.021767 1_555
Hf1 O22 2.041991 1_555
Hf1 O57 2.071593 1_555
Hf1 O58 2.110015 1_555
Hf1 O21 2.165965 1_555
Hf2 O34 2.022558 1_555
Hf2 O71 2.042140 1_555
Hf2 O70 2.062686 1_555
Hf2 O35 2.084522 1_555
Hf2 O33 2.090813 1_555
Hf2 O69 2.107526 1_555
Mg0 O38 2.034565 1_555
Mg0 O0 2.060961 1_555
Mg0 O2 2.078013 1_455
Mg0 O36 2.091683 1_545
Mg0 O37 2.096112 1_445
Mg0 O1 2.194879 1_445
Mg1 O5 1.977990 1_555
Mg1 O3 2.043371 1_655
Mg1 O4 2.049625 1_545
Mg1 O39 2.147599 1_655
Mg1 O41 2.161641 1_545
Mg1 O40 2.193869 1_645
Mg2 O6 2.005770 1_545
Mg2 O8 2.019527 1_645
Mg2 O7 2.036297 1_655
Mg2 O42 2.194845 1_555
Mg2 O44 2.245050 1_545
Mg2 O43 2.329670 1_655
Mg3 O11 2.016191 1_555
Mg3 O45 2.085226 1_455
Mg3 O47 2.087092 1_565
Mg3 O46 2.115179 1_465
Mg3 O9 2.141472 1_455
Mg3 O10 2.149204 1_565
Mg4 O14 2.051633 1_555
Mg4 O48 2.059563 1_555
Mg4 O12 2.078636 1_555
Mg4 O49 2.091451 1_555
Mg4 O50 2.098192 1_555
Mg4 O13 2.124550 1_555
Mg5 O17 1.984341 1_555
Mg5 O16 1.985919 1_555
Mg5 O15 2.023812 1_555
Mg5 O53 2.143269 1_555
Mg5 O52 2.259723 1_555
Mg5 O51 2.269433 1_555
Mg6 O26 2.015623 1_554
Mg6 O24 2.022131 1_554
Mg6 O25 2.030853 1_554
Mg6 O60 2.129689 1_555
Mg6 O62 2.152994 1_555
Mg6 O61 2.187396 1_555
Mg7 O28 1.977565 1_555
Mg7 O29 2.034814 1_555
Mg7 O27 2.041232 1_555
Mg7 O65 2.146637 1_555
Mg7 O64 2.154311 1_555
Mg7 O63 2.281538 1_555
Mg8 O30 1.987243 1_555
Mg8 O31 2.001242 1_555
Mg8 O32 2.041920 1_555
Mg8 O66 2.163439 1_555
Mg8 O68 2.290787 1_555
Mg8 O67 2.317753 1_555
O0 P0 1.540625 1_545
O1 S0 1.476919 1_555
O2 S1 1.472250 1_555
O3 P1 1.534557 1_555
O4 P2 1.537169 1_555
O5 P3 1.529760 1_555
O6 P3 1.543059 1_565
O7 P1 1.542593 1_555
O8 P2 1.531179 1_455
O9 S0 1.488773 1_555
O10 S1 1.488291 1_455
O11 P0 1.548582 1_555
O12 P4 1.526374 1_555
O13 S2 1.460666 1_555
O14 P5 1.527467 1_555
O15 P6 1.535741 1_555
O16 P7 1.533849 1_555
O17 P8 1.534712 1_555
O18 P8 1.579272 1_555
O19 P6 1.579472 1_555
O20 P7 1.573883 1_555
O21 S2 1.512500 1_555
O22 P5 1.589326 1_555
O23 P4 1.583852 1_555
O24 P9 1.521006 1_555
O25 P10 1.530023 1_555
O26 P11 1.523656 1_555
O27 P12 1.537253 1_555
O28 P13 1.526703 1_555
O29 P14 1.533423 1_555
O30 P14 1.529721 1_555
O31 P12 1.543029 1_555
O32 P13 1.545174 1_555
O33 P10 1.566547 1_555
O34 P11 1.549883 1_555
O35 P9 1.564586 1_555
O36 P14 1.548727 1_555
O37 P12 1.536644 1_555
O38 P13 1.534347 1_555
O39 P10 1.524071 1_555
O40 P11 1.539256 1_555
O41 P9 1.527343 1_555
O42 P4 1.546216 1_555
O43 S2 1.480492 1_555
O44 P5 1.547879 1_555
O45 P6 1.549176 1_555
O46 P7 1.547769 1_555
O47 P8 1.548188 1_555
O48 P3 1.530231 1_555
O49 P1 1.533509 1_555
O50 P2 1.552882 1_555
O51 S0 1.494846 1_555
O52 S1 1.494811 1_555
O53 P0 1.571527 1_545
O54 P9 1.597330 1_555
O55 P10 1.578271 1_655
O56 P11 1.574550 1_545
O57 P12 1.585064 1_545
O58 P13 1.608562 1_555
O59 P14 1.590364 1_655
O60 P8 1.539747 1_555
O61 P6 1.541879 1_455
O62 P7 1.539445 1_565
O63 S2 1.487171 1_565
O64 P5 1.551084 1_555
O65 P4 1.552239 1_455
O66 P0 1.567524 1_555
O67 S0 1.492246 1_555
O68 S1 1.493130 1_455
O69 P1 1.614157 1_555
O70 P2 1.588634 1_455
O71 P3 1.590048 1_565
