# generated using pymatgen
data_Ba4Sn3O10
_symmetry_space_group_name_H-M   'P 1'
_cell_length_a   15.26757868
_cell_length_b   15.26757868
_cell_length_c   5.87562169
_cell_angle_alpha   90.00000000
_cell_angle_beta   90.00000000
_cell_angle_gamma   157.81356793
_symmetry_Int_Tables_number   1
_chemical_formula_structural   Ba4Sn3O10
_chemical_formula_sum   'Ba8 Sn6 O20'
_cell_volume   517.19093167
_cell_formula_units_Z   2
loop_
 _symmetry_equiv_pos_site_id
 _symmetry_equiv_pos_as_xyz
  1  'x, y, z'
loop_
 _atom_site_type_symbol
 _atom_site_label
 _atom_site_symmetry_multiplicity
 _atom_site_fract_x
 _atom_site_fract_y
 _atom_site_fract_z
 _atom_site_occupancy
  Ba  Ba0  1  0.93146551  0.06853449  0.00000000  1
  Ba  Ba1  1  0.20296155  0.79703845  0.00000000  1
  Ba  Ba2  1  0.79703845  0.20296155  0.00000000  1
  Ba  Ba3  1  0.06853449  0.93146551  0.00000000  1
  Ba  Ba4  1  0.43146551  0.56853449  0.50000000  1
  Ba  Ba5  1  0.29703845  0.70296155  0.50000000  1
  Ba  Ba6  1  0.70296155  0.29703845  0.50000000  1
  Ba  Ba7  1  0.56853449  0.43146551  0.50000000  1
  Sn  Sn0  1  0.50000000  0.50000000  0.00000000  1
  Sn  Sn1  1  0.36155798  0.63844202  0.00000000  1
  Sn  Sn2  1  0.63844202  0.36155798  0.00000000  1
  Sn  Sn3  1  0.00000000  0.00000000  0.50000000  1
  Sn  Sn4  1  0.13844202  0.86155798  0.50000000  1
  Sn  Sn5  1  0.86155798  0.13844202  0.50000000  1
  O  O0  1  0.43094308  0.56905692  0.00000000  1
  O  O1  1  0.29259627  0.70740373  0.00000000  1
  O  O2  1  0.70740373  0.29259627  0.00000000  1
  O  O3  1  0.56905692  0.43094308  0.00000000  1
  O  O4  1  0.24804267  0.24804267  0.24808776  1
  O  O5  1  0.88800821  0.61273580  0.24963875  1
  O  O6  1  0.61273580  0.88800821  0.24963875  1
  O  O7  1  0.11273580  0.38800821  0.25036125  1
  O  O8  1  0.38800821  0.11273580  0.25036125  1
  O  O9  1  0.74804267  0.74804267  0.25191224  1
  O  O10  1  0.93094308  0.06905692  0.50000000  1
  O  O11  1  0.20740373  0.79259627  0.50000000  1
  O  O12  1  0.79259627  0.20740373  0.50000000  1
  O  O13  1  0.06905692  0.93094308  0.50000000  1
  O  O14  1  0.25195733  0.25195733  0.74808776  1
  O  O15  1  0.88726420  0.61199179  0.74963875  1
  O  O16  1  0.61199179  0.88726420  0.74963875  1
  O  O17  1  0.11199179  0.38726420  0.75036125  1
  O  O18  1  0.38726420  0.11199179  0.75036125  1
  O  O19  1  0.75195733  0.75195733  0.75191224  1
loop_
_geom_bond_atom_site_label_1
_geom_bond_atom_site_label_2
_geom_bond_distance
_geom_bond_site_symmetry_2
Ba0 O4 2.909604 1_655
Ba0 O19 2.909604 1_544
Ba0 O17 2.930832 1_654
Ba0 O6 2.930832 1_545
Ba0 O9 2.932469 1_545
Ba0 O14 2.932469 1_654
Ba0 O16 2.935147 1_544
Ba0 O7 2.935147 1_655
Ba0 O0 2.937612 1_655
Ba0 O0 2.937612 1_545
Ba0 O10 2.937853 1_554
Ba0 O10 2.937853 1_555
Ba1 O1 2.685870 1_555
Ba1 O5 2.852012 1_455
Ba1 O18 2.852012 1_564
Ba1 O8 2.856446 1_565
Ba1 O15 2.856446 1_454
Ba1 O2 2.940585 1_455
Ba1 O2 2.940585 1_565
Ba1 O11 2.940825 1_555
Ba1 O11 2.940825 1_554
Ba2 O2 2.685870 1_555
Ba2 O6 2.852012 1_545
Ba2 O17 2.852012 1_654
Ba2 O7 2.856446 1_655
Ba2 O16 2.856446 1_544
Ba2 O1 2.940585 1_655
Ba2 O1 2.940585 1_545
Ba2 O12 2.940825 1_554
Ba2 O12 2.940825 1_555
Ba3 O19 2.909604 1_454
Ba3 O4 2.909604 1_565
Ba3 O18 2.930832 1_564
Ba3 O5 2.930832 1_455
Ba3 O14 2.932469 1_564
Ba3 O9 2.932469 1_455
Ba3 O15 2.935147 1_454
Ba3 O8 2.935147 1_565
Ba3 O3 2.937612 1_565
Ba3 O3 2.937612 1_455
Ba3 O13 2.937853 1_554
Ba3 O13 2.937853 1_555
Ba4 O9 2.909604 1_555
Ba4 O14 2.909604 1_555
Ba4 O16 2.930832 1_555
Ba4 O7 2.930832 1_555
Ba4 O4 2.932469 1_555
Ba4 O19 2.932469 1_555
Ba4 O17 2.935147 1_555
Ba4 O6 2.935147 1_555
Ba4 O10 2.937612 1_455
Ba4 O10 2.937612 1_565
Ba4 O0 2.937853 1_555
Ba4 O0 2.937853 1_556
Ba5 O11 2.685870 1_555
Ba5 O7 2.852012 1_555
Ba5 O16 2.852012 1_555
Ba5 O6 2.856446 1_555
Ba5 O17 2.856446 1_555
Ba5 O12 2.940585 1_565
Ba5 O12 2.940585 1_455
Ba5 O1 2.940825 1_555
Ba5 O1 2.940825 1_556
Ba6 O12 2.685870 1_555
Ba6 O8 2.852012 1_555
Ba6 O15 2.852012 1_555
Ba6 O5 2.856446 1_555
Ba6 O18 2.856446 1_555
Ba6 O11 2.940585 1_545
Ba6 O11 2.940585 1_655
Ba6 O2 2.940825 1_555
Ba6 O2 2.940825 1_556
Ba7 O14 2.909604 1_555
Ba7 O9 2.909604 1_555
Ba7 O15 2.930832 1_555
Ba7 O8 2.930832 1_555
Ba7 O4 2.932469 1_555
Ba7 O19 2.932469 1_555
Ba7 O18 2.935147 1_555
Ba7 O5 2.935147 1_555
Ba7 O13 2.937612 1_545
Ba7 O13 2.937612 1_655
Ba7 O3 2.937853 1_556
Ba7 O3 2.937853 1_555
O0 Sn0 2.069264 1_555
O0 Sn1 2.079098 1_555
O1 Sn1 2.066412 1_555
O2 Sn2 2.066412 1_555
O3 Sn0 2.069264 1_555
O3 Sn2 2.079098 1_555
O4 Sn3 2.077137 1_555
O4 Sn0 2.077509 1_555
O5 Sn4 2.077359 1_655
O5 Sn2 2.077448 1_555
O6 Sn5 2.077359 1_565
O6 Sn1 2.077448 1_555
O7 Sn1 2.077359 1_555
O7 Sn5 2.077448 1_455
O8 Sn2 2.077359 1_555
O8 Sn4 2.077448 1_545
O9 Sn0 2.077137 1_555
O9 Sn3 2.077509 1_665
O10 Sn3 2.069264 1_655
O10 Sn5 2.079098 1_555
O11 Sn4 2.066412 1_555
O12 Sn5 2.066412 1_555
O13 Sn3 2.069264 1_565
O13 Sn4 2.079098 1_555
O14 Sn0 2.077137 1_556
O14 Sn3 2.077509 1_555
O15 Sn2 2.077359 1_556
O15 Sn4 2.077448 1_655
O16 Sn1 2.077359 1_556
O16 Sn5 2.077448 1_565
O17 Sn5 2.077359 1_455
O17 Sn1 2.077448 1_556
O18 Sn4 2.077359 1_545
O18 Sn2 2.077448 1_556
O19 Sn3 2.077137 1_665
O19 Sn0 2.077509 1_556
