# generated using pymatgen
data_Sr2MgCu3(ClO2)2
_symmetry_space_group_name_H-M   'P 1'
_cell_length_a   5.64733154
_cell_length_b   5.64657802
_cell_length_c   8.85188949
_cell_angle_alpha   108.64173920
_cell_angle_beta   108.65206153
_cell_angle_gamma   90.25699755
_symmetry_Int_Tables_number   1
_chemical_formula_structural   Sr2MgCu3(ClO2)2
_chemical_formula_sum   'Sr2 Mg1 Cu3 Cl2 O4'
_cell_volume   251.61665108
_cell_formula_units_Z   1
loop_
 _symmetry_equiv_pos_site_id
 _symmetry_equiv_pos_as_xyz
  1  'x, y, z'
loop_
 _atom_site_type_symbol
 _atom_site_label
 _atom_site_symmetry_multiplicity
 _atom_site_fract_x
 _atom_site_fract_y
 _atom_site_fract_z
 _atom_site_occupancy
  Sr  Sr0  1  0.31861100  0.31858100  0.63631900  1
  Sr  Sr1  1  0.68139000  0.68140900  0.36368200  1
  Mg  Mg0  1  0.50000700  0.50002200  0.00000100  1
  Cu  Cu0  1  0.99999100  0.00008000  0.00000500  1
  Cu  Cu1  1  0.50000100  0.00000800  0.99999900  1
  Cu  Cu2  1  0.99999500  0.49991300  0.99999300  1
  Cl  Cl0  1  0.74998000  0.24999000  0.49997100  1
  Cl  Cl1  1  0.25002100  0.75000400  0.50003000  1
  O  O0  1  0.74461600  0.25517400  0.99997700  1
  O  O1  1  0.25529800  0.74483000  0.00002700  1
  O  O2  1  0.25418000  0.25414700  0.00031800  1
  O  O3  1  0.74591100  0.74584300  0.99967900  1
loop_
_geom_bond_atom_site_label_1
_geom_bond_atom_site_label_2
_geom_bond_distance
_geom_bond_site_symmetry_2
Mg0 O0 1.958780 1_554
Mg0 O1 1.959020 1_555
Mg0 O2 1.960231 1_555
Mg0 O3 1.960343 1_554
Mg0 Sr1 2.869727 1_555
Mg0 Sr0 2.869734 1_554
Cu0 O2 2.023656 1_655
Cu0 O3 2.023846 1_544
Cu0 O0 2.042869 1_554
Cu0 O1 2.043221 1_645
Cu1 O0 1.991675 1_555
Cu1 O1 1.992091 1_546
Cu1 O2 2.001064 1_556
Cu1 O3 2.001520 1_545
Cu2 O0 1.992884 1_555
Cu2 O1 1.993196 1_656
Cu2 O2 2.001042 1_656
Cu2 O3 2.001278 1_555
Cl0 Sr1 3.021060 1_545
Cl0 Sr1 3.021283 1_555
Cl0 Sr0 3.021541 1_655
Cl0 Sr0 3.021837 1_555
Cl1 Sr0 3.021039 1_565
Cl1 Sr0 3.021304 1_555
Cl1 Sr1 3.021541 1_455
Cl1 Sr1 3.021837 1_555
