# generated using pymatgen
data_BaH2Cl2O7
_symmetry_space_group_name_H-M   'P 1'
_cell_length_a   7.58914369
_cell_length_b   7.58914369
_cell_length_c   9.05811587
_cell_angle_alpha   55.40309199
_cell_angle_beta   55.40309199
_cell_angle_gamma   63.89851456
_symmetry_Int_Tables_number   1
_chemical_formula_structural   BaH2Cl2O7
_chemical_formula_sum   'Ba2 H4 Cl4 O14'
_cell_volume   348.14653191
_cell_formula_units_Z   2
loop_
 _symmetry_equiv_pos_site_id
 _symmetry_equiv_pos_as_xyz
  1  'x, y, z'
loop_
 _atom_site_type_symbol
 _atom_site_label
 _atom_site_symmetry_multiplicity
 _atom_site_fract_x
 _atom_site_fract_y
 _atom_site_fract_z
 _atom_site_occupancy
  Ba  Ba0  1  0.14481000  0.85519000  0.25000000  1
  Ba  Ba1  1  0.85519000  0.14481000  0.75000000  1
  H  H0  1  0.69383200  0.22218000  0.36570100  1
  H  H1  1  0.77782000  0.30616800  0.13429900  1
  H  H2  1  0.30616800  0.77782000  0.63429900  1
  H  H3  1  0.22218000  0.69383200  0.86570100  1
  Cl  Cl0  1  0.32385600  0.28693200  0.18905500  1
  Cl  Cl1  1  0.71306800  0.67614400  0.31094500  1
  Cl  Cl2  1  0.67614400  0.71306800  0.81094500  1
  Cl  Cl3  1  0.28693200  0.32385600  0.68905500  1
  O  O0  1  0.80739900  0.19260100  0.25000000  1
  O  O1  1  0.19260100  0.80739900  0.75000000  1
  O  O2  1  0.22256600  0.39669500  0.52928800  1
  O  O3  1  0.60330500  0.77743400  0.97071200  1
  O  O4  1  0.77743400  0.60330500  0.47071200  1
  O  O5  1  0.39669400  0.22256600  0.02928800  1
  O  O6  1  0.52878000  0.24257200  0.61135100  1
  O  O7  1  0.75742800  0.47122000  0.88864900  1
  O  O8  1  0.47122000  0.75742800  0.38864900  1
  O  O9  1  0.24257200  0.52878000  0.11135100  1
  O  O10  1  0.17798100  0.13066500  0.86005400  1
  O  O11  1  0.86933500  0.82201900  0.63994600  1
  O  O12  1  0.82201900  0.86933500  0.13994600  1
  O  O13  1  0.13066500  0.17798100  0.36005400  1
loop_
_geom_bond_atom_site_label_1
_geom_bond_atom_site_label_2
_geom_bond_distance
_geom_bond_site_symmetry_2
Ba0 O0 2.710039 1_465
Ba0 O11 2.824520 1_455
Ba0 O10 2.824520 1_564
Ba0 O3 2.957682 1_554
Ba0 O2 2.957682 1_555
Ba0 O8 3.020218 1_555
Ba0 O9 3.020218 1_555
Ba0 O13 3.070285 1_565
Ba0 O12 3.070285 1_455
Ba0 O5 3.073164 1_565
Ba0 O4 3.073169 1_455
Ba1 O1 2.710039 1_645
Ba1 O12 2.824520 1_546
Ba1 O13 2.824520 1_655
Ba1 O4 2.957682 1_555
Ba1 O5 2.957687 1_556
Ba1 O7 3.020218 1_555
Ba1 O6 3.020218 1_555
Ba1 O10 3.070285 1_655
Ba1 O11 3.070285 1_545
Ba1 O2 3.073169 1_655
Ba1 O3 3.073169 1_545
H0 O0 0.981202 1_555
H1 O0 0.981202 1_555
H2 O1 0.981202 1_555
H3 O1 0.981202 1_555
Cl0 O13 1.505284 1_555
Cl0 O9 1.508131 1_555
Cl0 O5 1.515014 1_555
Cl1 O12 1.505284 1_555
Cl1 O8 1.508131 1_555
Cl1 O4 1.515012 1_555
Cl2 O11 1.505284 1_555
Cl2 O7 1.508131 1_555
Cl2 O3 1.515012 1_555
Cl3 O10 1.505284 1_555
Cl3 O6 1.508131 1_555
Cl3 O2 1.515012 1_555
