# generated using pymatgen
data_AlIn(SO4)3
_symmetry_space_group_name_H-M   'P 1'
_cell_length_a   8.56949214
_cell_length_b   8.56949187
_cell_length_c   22.33607163
_cell_angle_alpha   90.00000000
_cell_angle_beta   90.00000000
_cell_angle_gamma   120.00000104
_symmetry_Int_Tables_number   1
_chemical_formula_structural   AlIn(SO4)3
_chemical_formula_sum   'Al6 In6 S18 O72'
_cell_volume   1420.52073291
_cell_formula_units_Z   6
loop_
 _symmetry_equiv_pos_site_id
 _symmetry_equiv_pos_as_xyz
  1  'x, y, z'
loop_
 _atom_site_type_symbol
 _atom_site_label
 _atom_site_symmetry_multiplicity
 _atom_site_fract_x
 _atom_site_fract_y
 _atom_site_fract_z
 _atom_site_occupancy
  Al  Al0  1  -0.00000000  -0.00000000  0.35103845  1
  Al  Al1  1  -0.00000000  -0.00000000  0.64448870  1
  Al  Al2  1  -0.00000000  -0.00000000  0.14871076  1
  Al  Al3  1  0.66666700  0.33333300  0.68462224  1
  Al  Al4  1  0.66666700  0.33333300  0.18884430  1
  Al  Al5  1  0.66666700  0.33333300  0.48229455  1
  In  In0  1  -0.00000000  -0.00000000  0.84873577  1
  In  In1  1  0.66666700  0.33333300  0.98459723  1
  In  In2  1  0.33333300  0.66666700  0.02515196  1
  In  In3  1  0.33333300  0.66666700  0.52080163  1
  In  In4  1  0.33333300  0.66666700  0.31253237  1
  In  In5  1  0.33333300  0.66666700  0.80818204  1
  S  S0  1  0.28712549  0.01061986  0.24806477  1
  S  S1  1  0.72349436  0.71287451  0.24806477  1
  S  S2  1  0.98938014  0.27650564  0.24806477  1
  S  S3  1  0.29738192  0.28547894  0.74322333  1
  S  S4  1  0.98809702  0.70261808  0.74322333  1
  S  S5  1  0.71452106  0.01190298  0.74322333  1
  S  S6  1  0.94317264  0.32271314  0.58526823  1
  S  S7  1  0.37954151  0.05682736  0.58526823  1
  S  S8  1  0.67728686  0.62045849  0.58526823  1
  S  S9  1  0.95214594  0.63071492  0.09010967  1
  S  S10  1  0.67856998  0.04785406  0.09010967  1
  S  S11  1  0.36928508  0.32143002  0.09010967  1
  S  S12  1  0.62775184  0.66666700  0.91666700  1
  S  S13  1  0.03891416  0.37224816  0.91666700  1
  S  S14  1  0.33333300  0.96108584  0.91666700  1
  S  S15  1  0.64062725  0.97396125  0.41666700  1
  S  S16  1  0.33333300  0.35937275  0.41666700  1
  S  S17  1  0.02603875  0.66666700  0.41666700  1
  O  O0  1  0.20474294  0.03795183  0.30285704  1
  O  O1  1  0.83320889  0.79525706  0.30285704  1
  O  O2  1  0.96204817  0.16679111  0.30285704  1
  O  O3  1  0.23337597  0.18437790  0.80022643  1
  O  O4  1  0.95100193  0.76662403  0.80022643  1
  O  O5  1  0.81562210  0.04899807  0.80022643  1
  O  O6  1  0.80920903  0.98103622  0.69332655  1
  O  O7  1  0.17182719  0.19079097  0.69332655  1
  O  O8  1  0.01896378  0.82817281  0.69332655  1
  O  O9  1  0.80805627  0.82849536  0.19529141  1
  O  O10  1  0.02043908  0.19194373  0.19529141  1
  O  O11  1  0.17150464  0.97956092  0.19529141  1
  O  O12  1  0.85861073  0.35377208  0.63804159  1
  O  O13  1  0.49516236  0.14138927  0.63804159  1
  O  O14  1  0.64622792  0.50483764  0.63804159  1
  O  O15  1  0.85745797  0.50516019  0.14000645  1
  O  O16  1  0.64770322  0.14254203  0.14000645  1
  O  O17  1  0.49483981  0.35229678  0.14000645  1
  O  O18  1  0.43329103  0.28433493  0.03310657  1
  O  O19  1  0.85104490  0.56670897  0.03310657  1
  O  O20  1  0.71566507  0.14895510  0.03310657  1
  O  O21  1  0.46192406  0.16654189  0.53047596  1
  O  O22  1  0.70461883  0.53807594  0.53047596  1
  O  O23  1  0.83345811  0.29538117  0.53047596  1
  O  O24  1  0.54812960  0.69563243  0.97121430  1
  O  O25  1  0.14750183  0.45187040  0.97121430  1
  O  O26  1  0.30436757  0.85249817  0.97121430  1
  O  O27  1  0.56629722  0.85336093  0.46948352  1
  O  O28  1  0.28706271  0.43370278  0.46948352  1
  O  O29  1  0.14663907  0.71293729  0.46948352  1
  O  O30  1  0.10036878  0.62039671  0.36385048  1
  O  O31  1  0.52002693  0.89963122  0.36385048  1
  O  O32  1  0.37960329  0.47997307  0.36385048  1
  O  O33  1  0.11853640  0.48083583  0.86211970  1
  O  O34  1  0.36229843  0.88146360  0.86211970  1
  O  O35  1  0.51916417  0.63770157  0.86211970  1
  O  O36  1  0.00771763  0.82608033  0.40341386  1
  O  O37  1  0.81836270  0.99228237  0.40341386  1
  O  O38  1  0.17391967  0.18163730  0.40341386  1
  O  O39  1  0.02272311  0.19374458  0.91118767  1
  O  O40  1  0.17102147  0.97727689  0.91118767  1
  O  O41  1  0.80625542  0.82897853  0.91118767  1
  O  O42  1  0.96125005  0.16082848  0.59406872  1
  O  O43  1  0.19957843  0.03874995  0.59406872  1
  O  O44  1  0.83917152  0.80042157  0.59406872  1
  O  O45  1  0.97384687  0.81035726  0.10008484  1
  O  O46  1  0.83651039  0.02615313  0.10008484  1
  O  O47  1  0.18964274  0.16348961  0.10008484  1
  O  O48  1  0.69282013  0.16984339  0.73324816  1
  O  O49  1  0.47702426  0.30717987  0.73324816  1
  O  O50  1  0.83015661  0.52297574  0.73324816  1
  O  O51  1  0.70541695  0.53291143  0.23926428  1
  O  O52  1  0.82749548  0.29458305  0.23926428  1
  O  O53  1  0.46708857  0.17250452  0.23926428  1
  O  O54  1  0.64394389  0.50435447  0.92214533  1
  O  O55  1  0.86041158  0.35605611  0.92214533  1
  O  O56  1  0.49564553  0.13958842  0.92214533  1
  O  O57  1  0.65894937  0.15169570  0.42991914  1
  O  O58  1  0.49274733  0.34105063  0.42991914  1
  O  O59  1  0.84830430  0.50725267  0.42991914  1
  O  O60  1  0.35535609  0.48571704  0.08539735  1
  O  O61  1  0.13035994  0.64464391  0.08539735  1
  O  O62  1  0.51428296  0.86964006  0.08539735  1
  O  O63  1  0.36118908  0.87660483  0.57976070  1
  O  O64  1  0.51541475  0.63881092  0.57976070  1
  O  O65  1  0.12339517  0.48458525  0.57976070  1
  O  O66  1  0.30547692  0.84874875  0.25357330  1
  O  O67  1  0.54327083  0.69452308  0.25357330  1
  O  O68  1  0.15125125  0.45672917  0.25357330  1
  O  O69  1  0.31130991  0.46369394  0.74793665  1
  O  O70  1  0.15238304  0.68869009  0.74793665  1
  O  O71  1  0.53630606  0.84761696  0.74793665  1
loop_
_geom_bond_atom_site_label_1
_geom_bond_atom_site_label_2
_geom_bond_distance
_geom_bond_site_symmetry_2
Al0 O38 1.921671 1_555
Al0 O36 1.921671 1_545
Al0 O37 1.921671 1_445
Al0 O1 1.942096 1_445
Al0 O2 1.942096 1_455
Al0 O0 1.942096 1_555
Al1 O7 1.903633 1_555
Al1 O8 1.903633 1_545
Al1 O6 1.903633 1_445
Al1 O44 1.932798 1_445
Al1 O42 1.932798 1_455
Al1 O43 1.932798 1_555
Al2 O45 1.872626 1_445
Al2 O47 1.872626 1_555
Al2 O46 1.872626 1_455
Al2 O11 1.878998 1_545
Al2 O9 1.878998 1_445
Al2 O10 1.878998 1_555
Al3 O50 1.872626 1_555
Al3 O48 1.872626 1_555
Al3 O49 1.872626 1_555
Al3 O14 1.878998 1_555
Al3 O13 1.878998 1_555
Al3 O12 1.878998 1_555
Al4 O16 1.903633 1_555
Al4 O15 1.903633 1_555
Al4 O17 1.903633 1_555
Al4 O51 1.932798 1_555
Al4 O53 1.932798 1_555
Al4 O52 1.932798 1_555
Al5 O57 1.921671 1_555
Al5 O59 1.921671 1_555
Al5 O58 1.921671 1_555
Al5 O22 1.942096 1_555
Al5 O21 1.942096 1_555
Al5 O23 1.942096 1_555
In0 O39 2.101670 1_555
In0 O41 2.101670 1_445
In0 O40 2.101670 1_545
In0 O4 2.123725 1_445
In0 O3 2.123725 1_555
In0 O5 2.123725 1_455
In1 O56 2.101670 1_555
In1 O54 2.101670 1_555
In1 O55 2.101670 1_555
In1 O19 2.123725 1_556
In1 O20 2.123725 1_556
In1 O18 2.123725 1_556
In2 O25 2.108156 1_554
In2 O26 2.108156 1_554
In2 O24 2.108156 1_554
In2 O60 2.131558 1_555
In2 O62 2.131558 1_555
In2 O61 2.131558 1_555
In3 O63 2.144390 1_555
In3 O65 2.144390 1_555
In3 O64 2.144390 1_555
In3 O28 2.159875 1_555
In3 O27 2.159875 1_555
In3 O29 2.159875 1_555
In4 O68 2.144390 1_555
In4 O66 2.144390 1_555
In4 O67 2.144390 1_555
In4 O31 2.159875 1_555
In4 O32 2.159875 1_555
In4 O30 2.159875 1_555
In5 O34 2.108156 1_555
In5 O33 2.108156 1_555
In5 O35 2.108156 1_555
In5 O70 2.131558 1_555
In5 O71 2.131558 1_555
In5 O69 2.131558 1_555
O0 S0 1.488762 1_555
O1 S1 1.488762 1_555
O2 S2 1.488762 1_555
O3 S3 1.482351 1_555
O4 S4 1.482351 1_555
O5 S5 1.482351 1_555
O6 S5 1.478215 1_565
O7 S3 1.478215 1_555
O8 S4 1.478215 1_455
O9 S1 1.475902 1_555
O10 S2 1.475902 1_455
O11 S0 1.475902 1_565
O12 S6 1.475902 1_555
O13 S7 1.475902 1_555
O14 S8 1.475902 1_555
O15 S9 1.478215 1_555
O16 S10 1.478215 1_555
O17 S11 1.478215 1_555
O18 S11 1.482351 1_555
O19 S9 1.482351 1_555
O20 S10 1.482351 1_555
O21 S7 1.488762 1_555
O22 S8 1.488762 1_555
O23 S6 1.488762 1_555
O24 S12 1.476812 1_555
O25 S13 1.476812 1_555
O26 S14 1.476812 1_555
O27 S15 1.485680 1_555
O28 S16 1.485680 1_555
O29 S17 1.485680 1_555
O30 S17 1.485680 1_555
O31 S15 1.485680 1_555
O32 S16 1.485680 1_555
O33 S13 1.476812 1_555
O34 S14 1.476812 1_555
O35 S12 1.476812 1_555
O36 S17 1.480866 1_555
O37 S15 1.480875 1_555
O38 S16 1.480871 1_555
O39 S13 1.470348 1_555
O40 S14 1.470340 1_555
O41 S12 1.470344 1_555
O42 S6 1.483934 1_555
O43 S7 1.483943 1_555
O44 S8 1.483939 1_555
O45 S9 1.472355 1_555
O46 S10 1.472346 1_555
O47 S11 1.472351 1_555
O48 S5 1.472346 1_555
O49 S3 1.472355 1_555
O50 S4 1.472351 1_555
O51 S1 1.483943 1_555
O52 S2 1.483934 1_555
O53 S0 1.483939 1_555
O54 S12 1.470351 1_555
O55 S13 1.470334 1_655
O56 S14 1.470341 1_545
O57 S15 1.480858 1_545
O58 S16 1.480875 1_555
O59 S17 1.480865 1_655
O60 S11 1.474935 1_555
O61 S9 1.474918 1_455
O62 S10 1.474925 1_565
O63 S7 1.477225 1_565
O64 S8 1.477242 1_555
O65 S6 1.477233 1_455
O66 S0 1.477231 1_565
O67 S1 1.477239 1_555
O68 S2 1.477236 1_455
O69 S3 1.474932 1_555
O70 S4 1.474923 1_455
O71 S5 1.474928 1_565
