# generated using pymatgen
data_Ge2Pt3
_symmetry_space_group_name_H-M   'P 1'
_cell_length_a   6.91237385
_cell_length_b   7.58531432
_cell_length_c   12.29927885
_cell_angle_alpha   90.00000000
_cell_angle_beta   90.00000000
_cell_angle_gamma   90.00000000
_symmetry_Int_Tables_number   1
_chemical_formula_structural   Ge2Pt3
_chemical_formula_sum   'Ge16 Pt24'
_cell_volume   644.88228698
_cell_formula_units_Z   8
loop_
 _symmetry_equiv_pos_site_id
 _symmetry_equiv_pos_as_xyz
  1  'x, y, z'
loop_
 _atom_site_type_symbol
 _atom_site_label
 _atom_site_symmetry_multiplicity
 _atom_site_fract_x
 _atom_site_fract_y
 _atom_site_fract_z
 _atom_site_occupancy
  Ge  Ge0  1  0.87253930  0.75000000  0.99374998  1
  Ge  Ge1  1  0.37253930  0.25000000  0.50625002  1
  Ge  Ge2  1  0.12746070  0.25000000  0.00625002  1
  Ge  Ge3  1  0.62746070  0.75000000  0.49374998  1
  Ge  Ge4  1  0.37834181  0.75000000  0.99136037  1
  Ge  Ge5  1  0.87834181  0.25000000  0.50863963  1
  Ge  Ge6  1  0.62165819  0.25000000  0.00863963  1
  Ge  Ge7  1  0.12165819  0.75000000  0.49136037  1
  Ge  Ge8  1  0.62579585  0.47530942  0.74622904  1
  Ge  Ge9  1  0.12579585  0.52469058  0.75377096  1
  Ge  Ge10  1  0.37420415  0.97530942  0.25377096  1
  Ge  Ge11  1  0.87420415  0.02469058  0.24622904  1
  Ge  Ge12  1  0.37420415  0.52469058  0.25377096  1
  Ge  Ge13  1  0.87420415  0.47530942  0.24622904  1
  Ge  Ge14  1  0.62579585  0.02469058  0.74622904  1
  Ge  Ge15  1  0.12579585  0.97530942  0.75377096  1
  Pt  Pt0  1  0.84857789  0.75000000  0.78527534  1
  Pt  Pt1  1  0.34857789  0.25000000  0.71472466  1
  Pt  Pt2  1  0.15142211  0.25000000  0.21472466  1
  Pt  Pt3  1  0.65142211  0.75000000  0.28527534  1
  Pt  Pt4  1  0.40692707  0.75000000  0.78353446  1
  Pt  Pt5  1  0.90692707  0.25000000  0.71646554  1
  Pt  Pt6  1  0.59307293  0.25000000  0.21646554  1
  Pt  Pt7  1  0.09307293  0.75000000  0.28353446  1
  Pt  Pt8  1  0.87285253  0.05935545  0.91101913  1
  Pt  Pt9  1  0.37285253  0.94064455  0.58898087  1
  Pt  Pt10  1  0.12714747  0.55935545  0.08898087  1
  Pt  Pt11  1  0.62714747  0.44064455  0.41101913  1
  Pt  Pt12  1  0.12714747  0.94064455  0.08898087  1
  Pt  Pt13  1  0.62714747  0.05935545  0.41101913  1
  Pt  Pt14  1  0.87285253  0.44064455  0.91101913  1
  Pt  Pt15  1  0.37285253  0.55935545  0.58898087  1
  Pt  Pt16  1  0.37615988  0.05820697  0.90880050  1
  Pt  Pt17  1  0.87615988  0.94179303  0.59119950  1
  Pt  Pt18  1  0.62384012  0.55820697  0.09119950  1
  Pt  Pt19  1  0.12384012  0.44179303  0.40880050  1
  Pt  Pt20  1  0.62384012  0.94179303  0.09119950  1
  Pt  Pt21  1  0.12384012  0.05820697  0.40880050  1
  Pt  Pt22  1  0.37615988  0.44179303  0.90880050  1
  Pt  Pt23  1  0.87615988  0.55820697  0.59119950  1
loop_
_geom_bond_atom_site_label_1
_geom_bond_atom_site_label_2
_geom_bond_distance
_geom_bond_site_symmetry_2
Ge0 Pt18 2.551142 1_556
Ge0 Pt20 2.551142 1_556
Ge0 Pt14 2.557676 1_555
Ge0 Pt8 2.557676 1_565
Ge0 Pt10 2.561346 1_656
Ge0 Pt12 2.561346 1_656
Ge0 Pt0 2.569432 1_555
Ge1 Pt21 2.551142 1_555
Ge1 Pt19 2.551142 1_555
Ge1 Pt15 2.557676 1_555
Ge1 Pt9 2.557676 1_545
Ge1 Pt13 2.561346 1_555
Ge1 Pt11 2.561346 1_555
Ge1 Pt1 2.569432 1_555
Ge2 Pt16 2.551142 1_554
Ge2 Pt22 2.551142 1_554
Ge2 Pt12 2.557676 1_545
Ge2 Pt10 2.557676 1_555
Ge2 Pt8 2.561346 1_454
Ge2 Pt14 2.561346 1_454
Ge2 Pt2 2.569432 1_555
Ge3 Pt23 2.551142 1_555
Ge3 Pt17 2.551142 1_555
Ge3 Pt11 2.557676 1_555
Ge3 Pt13 2.557676 1_565
Ge3 Pt15 2.561346 1_555
Ge3 Pt9 2.561346 1_555
Ge3 Pt3 2.569432 1_555
Ge4 Pt22 2.548891 1_555
Ge4 Pt16 2.548891 1_565
Ge4 Pt18 2.550306 1_556
Ge4 Pt20 2.550306 1_556
Ge4 Pt12 2.558847 1_556
Ge4 Pt10 2.558847 1_556
Ge4 Pt4 2.563735 1_555
Ge5 Pt23 2.548891 1_555
Ge5 Pt17 2.548891 1_545
Ge5 Pt21 2.550306 1_655
Ge5 Pt19 2.550306 1_655
Ge5 Pt13 2.558847 1_555
Ge5 Pt11 2.558847 1_555
Ge5 Pt5 2.563735 1_555
Ge6 Pt18 2.548891 1_555
Ge6 Pt20 2.548891 1_545
Ge6 Pt22 2.550306 1_554
Ge6 Pt16 2.550306 1_554
Ge6 Pt8 2.558847 1_554
Ge6 Pt14 2.558847 1_554
Ge6 Pt6 2.563735 1_555
Ge7 Pt19 2.548891 1_555
Ge7 Pt21 2.548891 1_565
Ge7 Pt23 2.550306 1_455
Ge7 Pt17 2.550306 1_455
Ge7 Pt15 2.558847 1_555
Ge7 Pt9 2.558847 1_555
Ge7 Pt7 2.563735 1_555
Ge8 Pt1 2.596714 1_555
Ge8 Pt5 2.613654 1_555
Ge8 Pt4 2.615502 1_555
Ge8 Pt0 2.635059 1_555
Ge8 Pt23 2.650680 1_555
Ge8 Pt22 2.653356 1_555
Ge8 Pt14 2.663355 1_555
Ge8 Pt15 2.684022 1_555
Ge9 Pt0 2.596714 1_455
Ge9 Pt4 2.613654 1_555
Ge9 Pt5 2.615502 1_455
Ge9 Pt1 2.635059 1_555
Ge9 Pt22 2.650680 1_555
Ge9 Pt23 2.653356 1_455
Ge9 Pt15 2.663355 1_555
Ge9 Pt14 2.684022 1_455
Ge10 Pt3 2.596714 1_555
Ge10 Pt7 2.613654 1_555
Ge10 Pt6 2.615502 1_565
Ge10 Pt2 2.635059 1_565
Ge10 Pt21 2.650680 1_565
Ge10 Pt20 2.653356 1_555
Ge10 Pt12 2.663355 1_555
Ge10 Pt13 2.684022 1_565
Ge11 Pt2 2.596714 1_655
Ge11 Pt6 2.613654 1_555
Ge11 Pt7 2.615502 1_645
Ge11 Pt3 2.635059 1_545
Ge11 Pt20 2.650680 1_545
Ge11 Pt21 2.653356 1_655
Ge11 Pt13 2.663355 1_555
Ge11 Pt12 2.684022 1_645
Ge12 Pt3 2.596714 1_555
Ge12 Pt7 2.613654 1_555
Ge12 Pt6 2.615502 1_555
Ge12 Pt2 2.635059 1_555
Ge12 Pt19 2.650680 1_555
Ge12 Pt18 2.653356 1_555
Ge12 Pt10 2.663355 1_555
Ge12 Pt11 2.684022 1_555
Ge13 Pt2 2.596714 1_655
Ge13 Pt6 2.613654 1_555
Ge13 Pt7 2.615502 1_655
Ge13 Pt3 2.635059 1_555
Ge13 Pt18 2.650680 1_555
Ge13 Pt19 2.653356 1_655
Ge13 Pt11 2.663355 1_555
Ge13 Pt10 2.684022 1_655
Ge14 Pt1 2.596714 1_555
Ge14 Pt5 2.613654 1_555
Ge14 Pt4 2.615502 1_545
Ge14 Pt0 2.635059 1_545
Ge14 Pt17 2.650680 1_545
Ge14 Pt16 2.653356 1_555
Ge14 Pt8 2.663355 1_555
Ge14 Pt9 2.684022 1_545
Ge15 Pt0 2.596714 1_455
Ge15 Pt4 2.613654 1_555
Ge15 Pt5 2.615502 1_465
Ge15 Pt1 2.635059 1_565
Ge15 Pt16 2.650680 1_565
Ge15 Pt17 2.653356 1_455
Ge15 Pt9 2.663355 1_555
Ge15 Pt8 2.684022 1_465
