# generated using pymatgen
data_Na3TiZn3PS5O24
_symmetry_space_group_name_H-M   'P 1'
_cell_length_a   8.76569292
_cell_length_b   8.74458984
_cell_length_c   22.43174422
_cell_angle_alpha   90.21303704
_cell_angle_beta   90.04493956
_cell_angle_gamma   120.20690391
_symmetry_Int_Tables_number   1
_chemical_formula_structural   Na3TiZn3PS5O24
_chemical_formula_sum   'Na9 Ti3 Zn9 P3 S15 O72'
_cell_volume   1485.95301905
_cell_formula_units_Z   3
loop_
 _symmetry_equiv_pos_site_id
 _symmetry_equiv_pos_as_xyz
  1  'x, y, z'
loop_
 _atom_site_type_symbol
 _atom_site_label
 _atom_site_symmetry_multiplicity
 _atom_site_fract_x
 _atom_site_fract_y
 _atom_site_fract_z
 _atom_site_occupancy
  Na  Na0  1  0.36284834  0.36272768  0.25087412  1
  Na  Na1  1  0.03297083  0.70067938  0.58480256  1
  Na  Na2  1  0.29892840  0.96482219  0.08084423  1
  Na  Na3  1  0.99317685  0.00550053  0.49932182  1
  Na  Na4  1  0.99594683  0.00616640  0.99398408  1
  Na  Na5  1  0.66440234  0.33047327  0.82807066  1
  Na  Na6  1  0.67817362  0.33021091  0.33246002  1
  Na  Na7  1  0.33240401  0.66536192  0.16729856  1
  Na  Na8  1  0.35228627  0.66407273  0.66531228  1
  Ti  Ti0  1  0.67177399  0.32973772  0.97423232  1
  Ti  Ti1  1  0.66691717  0.34139840  0.48308398  1
  Ti  Ti2  1  0.32456649  0.66841855  0.81704535  1
  Zn  Zn0  1  0.99471914  0.99690923  0.35001747  1
  Zn  Zn1  1  0.00648869  0.00777656  0.85135001  1
  Zn  Zn2  1  0.98968814  0.00068054  0.65103079  1
  Zn  Zn3  1  0.99000320  0.99738174  0.15128471  1
  Zn  Zn4  1  0.66031696  0.33483608  0.68444538  1
  Zn  Zn5  1  0.67627376  0.33644358  0.18341992  1
  Zn  Zn6  1  0.32985846  0.66059356  0.01248495  1
  Zn  Zn7  1  0.34844790  0.66752182  0.51572593  1
  Zn  Zn8  1  0.33431728  0.67604076  0.31975325  1
  P  P0  1  0.66347598  0.62739323  0.58554298  1
  P  P1  1  0.04350283  0.37279355  0.91812358  1
  P  P2  1  0.32917670  0.95681008  0.91973097  1
  S  S0  1  0.29467040  0.99719552  0.24869867  1
  S  S1  1  0.70356412  0.70432544  0.25015757  1
  S  S2  1  0.99956483  0.29570850  0.25061191  1
  S  S3  1  0.29467719  0.29743626  0.75083239  1
  S  S4  1  0.00106080  0.70471008  0.75049076  1
  S  S5  1  0.70168167  0.99778840  0.75145093  1
  S  S6  1  0.95661189  0.33182039  0.58291412  1
  S  S7  1  0.37623640  0.04289515  0.58299723  1
  S  S8  1  0.95695419  0.62408793  0.08278566  1
  S  S9  1  0.66891064  0.04303650  0.08225361  1
  S  S10  1  0.37737785  0.33718147  0.08346148  1
  S  S11  1  0.62476132  0.66591376  0.91747520  1
  S  S12  1  0.63083695  0.96696211  0.41737227  1
  S  S13  1  0.33321176  0.36763166  0.41625600  1
  S  S14  1  0.03727918  0.66598777  0.41887983  1
  O  O0  1  0.20996129  0.02842003  0.30083601  1
  O  O1  1  0.80994795  0.78521255  0.30398806  1
  O  O2  1  0.97517975  0.18942119  0.30430772  1
  O  O3  1  0.21370620  0.19057644  0.80408778  1
  O  O4  1  0.97792960  0.79164008  0.80283034  1
  O  O5  1  0.80985490  0.02369282  0.80453950  1
  O  O6  1  0.77185512  0.96196149  0.69644467  1
  O  O7  1  0.18825840  0.22384328  0.69598037  1
  O  O8  1  0.03534400  0.80639565  0.69446685  1
  O  O9  1  0.78154514  0.80729439  0.19543141  1
  O  O10  1  0.03262287  0.21764791  0.19625211  1
  O  O11  1  0.19428138  0.97373643  0.19221670  1
  O  O12  1  0.87840626  0.36065511  0.63655951  1
  O  O13  1  0.48109532  0.11856902  0.63714399  1
  O  O14  1  0.64166855  0.51713194  0.63990122  1
  O  O15  1  0.87789475  0.52288828  0.13731551  1
  O  O16  1  0.63687647  0.12113911  0.13591352  1
  O  O17  1  0.47452929  0.35718672  0.13995588  1
  O  O18  1  0.47157579  0.31213424  0.03139727  1
  O  O19  1  0.84662796  0.53088688  0.02910872  1
  O  O20  1  0.68779030  0.15518578  0.02832676  1
  O  O21  1  0.47051902  0.15417843  0.52911224  1
  O  O22  1  0.68637777  0.52230021  0.52888346  1
  O  O23  1  0.84309488  0.31028590  0.52855938  1
  O  O24  1  0.55154624  0.69398928  0.97218318  1
  O  O25  1  0.14857583  0.44955741  0.97449490  1
  O  O26  1  0.30899413  0.85947215  0.97791617  1
  O  O27  1  0.55009867  0.85977062  0.47072032  1
  O  O28  1  0.30646296  0.45190121  0.46877225  1
  O  O29  1  0.13962321  0.68945816  0.47390892  1
  O  O30  1  0.11286448  0.63160536  0.36538290  1
  O  O31  1  0.52376524  0.89315653  0.36286975  1
  O  O32  1  0.36815410  0.47178258  0.36084004  1
  O  O33  1  0.13574702  0.49761590  0.86285989  1
  O  O34  1  0.36259322  0.86312105  0.86495952  1
  O  O35  1  0.50938273  0.63370157  0.86428445  1
  O  O36  1  0.01288184  0.82007286  0.41264857  1
  O  O37  1  0.80934360  0.98983115  0.41179399  1
  O  O38  1  0.17930949  0.18779983  0.41104264  1
  O  O39  1  0.00616204  0.18613456  0.90863139  1
  O  O40  1  0.17360748  0.98326946  0.90973331  1
  O  O41  1  0.80278676  0.81566830  0.90916343  1
  O  O42  1  0.97163280  0.17199842  0.58491237  1
  O  O43  1  0.20144066  0.03096248  0.58477262  1
  O  O44  1  0.84114272  0.80501159  0.58438012  1
  O  O45  1  0.97388384  0.80289971  0.08459454  1
  O  O46  1  0.83074355  0.03202220  0.08527247  1
  O  O47  1  0.20175978  0.16981956  0.08516532  1
  O  O48  1  0.67768149  0.15259597  0.74531487  1
  O  O49  1  0.47345960  0.32111189  0.74608459  1
  O  O50  1  0.84958027  0.52385300  0.74621161  1
  O  O51  1  0.67945076  0.52198109  0.24578163  1
  O  O52  1  0.84189381  0.31448164  0.24490290  1
  O  O53  1  0.47247130  0.16226693  0.24486257  1
  O  O54  1  0.63551773  0.49778928  0.92328452  1
  O  O55  1  0.85793272  0.36637742  0.92412772  1
  O  O56  1  0.50634651  0.14492208  0.92483050  1
  O  O57  1  0.64830079  0.14716059  0.42528016  1
  O  O58  1  0.49732895  0.35145824  0.42508651  1
  O  O59  1  0.85524356  0.49995671  0.42515096  1
  O  O60  1  0.35900010  0.49431283  0.07753145  1
  O  O61  1  0.13725072  0.64873181  0.07878225  1
  O  O62  1  0.50828493  0.86578491  0.07629103  1
  O  O63  1  0.34815334  0.86162407  0.57578190  1
  O  O64  1  0.50148323  0.64561669  0.57692576  1
  O  O65  1  0.13075895  0.49518995  0.57519865  1
  O  O66  1  0.31296038  0.83923756  0.25491892  1
  O  O67  1  0.52217661  0.68072234  0.25503708  1
  O  O68  1  0.16407551  0.47376945  0.25603858  1
  O  O69  1  0.31368144  0.47972272  0.75905615  1
  O  O70  1  0.16769460  0.69003783  0.75877646  1
  O  O71  1  0.52039797  0.83282383  0.75966965  1
loop_
_geom_bond_atom_site_label_1
_geom_bond_atom_site_label_2
_geom_bond_distance
_geom_bond_site_symmetry_2
Na0 O68 2.386234 1_555
Na0 O53 2.389098 1_555
Na0 O51 2.401473 1_555
Na0 O67 2.404520 1_555
Na0 O32 2.633255 1_555
Na0 O17 2.683646 1_555
Na0 O0 2.771765 1_555
Na0 O10 2.788799 1_555
Na1 O44 2.281152 1_455
Na1 O65 2.357417 1_555
Na1 O63 2.396892 1_555
Na1 O43 2.496130 1_565
Na1 O8 2.621087 1_555
Na1 O29 2.676867 1_555
Na1 O12 2.828245 1_455
Na1 O22 2.906479 1_455
Na2 O47 2.341707 1_565
Na2 O61 2.389132 1_555
Na2 O62 2.393144 1_555
Na2 O45 2.464110 1_455
Na2 O26 2.500717 1_554
Na2 O11 2.676381 1_555
Na2 O16 2.842016 1_565
Na2 O18 2.854341 1_565
Na3 O42 2.469436 1_555
Na3 O44 2.483553 1_545
Na3 O37 2.498254 1_545
Na3 O38 2.556573 1_655
Na3 O43 2.576585 1_655
Na3 O36 2.588051 1_645
Na4 O39 2.455872 1_655
Na4 O40 2.520434 1_645
Na4 O41 2.528878 1_545
Na4 O46 2.583052 1_556
Na4 O47 2.619299 1_656
Na4 O45 2.647582 1_546
Na5 O48 2.457668 1_555
Na5 O49 2.458975 1_555
Na5 O50 2.476266 1_555
Na5 O56 2.651817 1_555
Na5 O55 2.659432 1_555
Na5 O54 2.667746 1_555
Na6 O52 2.477309 1_555
Na6 O57 2.563180 1_555
Na6 O53 2.564662 1_555
Na6 O59 2.566958 1_555
Na6 O51 2.568690 1_555
Na6 O58 2.676432 1_555
Na7 O67 2.535118 1_555
Na7 O66 2.538316 1_555
Na7 O68 2.547244 1_555
Na7 O61 2.575305 1_555
Na7 O60 2.583714 1_555
Na7 O62 2.632248 1_555
Na8 O64 2.425172 1_555
Na8 O69 2.571496 1_555
Na8 O71 2.571546 1_555
Na8 O63 2.666010 1_555
Na8 O65 2.669043 1_555
Na8 O70 2.727044 1_555
O0 S0 1.482132 1_545
O0 Zn0 2.082122 1_445
O1 S1 1.468388 1_555
O1 Zn0 2.020504 1_555
O2 S2 1.472808 1_555
O2 Zn0 2.053615 1_545
O3 S3 1.465026 1_555
O3 Zn1 2.018036 1_555
O4 S4 1.465003 1_655
O4 Zn1 2.080290 1_665
O5 S5 1.465837 1_545
O5 Zn1 2.081468 1_655
O6 S5 1.480280 1_555
O6 Zn2 2.038016 1_565
O7 S3 1.478688 1_555
O7 Zn2 2.102202 1_455
O8 S4 1.483350 1_555
O8 Zn2 2.166054 1_465
O9 S1 1.474863 1_555
O9 Zn3 2.010318 1_555
O10 S2 1.493395 1_455
O10 Zn3 2.031729 1_445
O11 S0 1.495453 1_555
O11 Zn3 2.112720 1_455
O12 S6 1.467846 1_555
O12 Zn4 2.104786 1_555
O13 S7 1.462276 1_555
O13 Zn4 2.040408 1_555
O14 P0 1.508861 1_555
O14 Zn4 1.959615 1_555
O15 S8 1.466930 1_555
O15 Zn5 1.991780 1_555
O16 S9 1.477010 1_555
O16 Zn5 2.032207 1_555
O17 S10 1.486117 1_555
O17 Zn5 2.105282 1_555
O18 S10 1.508421 1_555
O18 Ti0 2.116784 1_554
O19 S8 1.499012 1_555
O19 Ti0 2.055864 1_554
O20 S9 1.516012 1_555
O20 Ti0 2.012740 1_554
O21 S7 1.513963 1_555
O21 Ti1 1.972156 1_555
O22 P0 1.636331 1_555
O22 Ti1 1.817449 1_555
O23 S6 1.523174 1_555
O23 Ti1 1.980380 1_555
O24 S11 1.461406 1_555
O24 Zn6 2.027920 1_556
O25 P1 1.505863 1_555
O25 Zn6 1.921535 1_556
O26 P2 1.521985 1_555
O26 Zn6 1.997279 1_556
O27 S12 1.467549 1_555
O27 Zn7 1.998780 1_555
O28 S13 1.467515 1_555
O28 Zn7 2.021464 1_555
O29 S14 1.477087 1_555
O29 Zn7 2.149272 1_555
O30 S14 1.472570 1_555
O30 Zn8 2.052786 1_555
O31 S12 1.474772 1_555
O31 Zn8 2.027080 1_555
O32 S13 1.482177 1_555
O32 Zn8 2.161633 1_555
O33 P1 1.582883 1_555
O33 Ti2 1.884941 1_555
O34 P2 1.581478 1_555
O34 Ti2 1.892058 1_555
O35 S11 1.494924 1_555
O35 Ti2 2.081866 1_555
O36 S14 1.473805 1_555
O36 Zn0 2.157297 1_455
O37 S12 1.479752 1_555
O37 Zn0 2.113660 1_555
O38 S13 1.473169 1_555
O38 Zn0 2.130759 1_445
O39 P1 1.508786 1_555
O39 Zn1 2.018215 1_555
O40 P2 1.510242 1_555
O40 Zn1 2.054757 1_565
O41 S11 1.459732 1_555
O41 Zn1 2.166499 1_665
O42 S6 1.469079 1_555
O42 Zn2 2.173440 1_555
O43 S7 1.483029 1_555
O43 Zn2 2.288483 1_455
O44 P0 1.550761 1_555
O44 Zn2 2.143476 1_565
O45 S8 1.494875 1_555
O45 Zn3 2.211136 1_555
O46 S9 1.470921 1_555
O46 Zn3 2.158454 1_545
O47 S10 1.498867 1_555
O47 Zn3 2.263520 1_445
O48 S5 1.477735 1_545
O48 Zn4 2.164961 1_555
O49 S3 1.477875 1_555
O49 Zn4 2.101430 1_555
O50 S4 1.469393 1_655
O50 Zn4 2.150373 1_555
O51 S1 1.502162 1_555
O51 Zn5 2.127812 1_555
O52 S2 1.477066 1_555
O52 Zn5 2.079910 1_555
O53 S0 1.502484 1_545
O53 Zn5 2.166201 1_555
O54 S11 1.525841 1_555
O54 Ti0 2.012097 1_555
O55 P1 1.604944 1_655
O55 Ti0 1.873004 1_555
O56 P2 1.599548 1_545
O56 Ti0 1.889092 1_555
O57 S12 1.514291 1_545
O57 Ti1 2.072991 1_555
O58 S13 1.527516 1_555
O58 Ti1 2.009866 1_555
O59 S14 1.531199 1_655
O59 Ti1 2.012462 1_555
O60 S10 1.468236 1_555
O60 Zn6 2.167365 1_555
O61 S8 1.486574 1_455
O61 Zn6 2.213995 1_555
O62 S9 1.484911 1_565
O62 Zn6 2.206313 1_555
O63 S7 1.484873 1_565
O63 Zn7 2.164079 1_555
O64 P0 1.518748 1_555
O64 Zn7 1.994611 1_555
O65 S6 1.486255 1_455
O65 Zn7 2.194838 1_555
O66 S0 1.475579 1_555
O66 Zn8 2.114378 1_555
O67 S1 1.500953 1_555
O67 Zn8 2.181085 1_555
O68 S2 1.502567 1_455
O68 Zn8 2.172565 1_555
O69 S3 1.527497 1_555
O69 Ti2 2.061389 1_555
O70 S4 1.540411 1_555
O70 Ti2 1.973743 1_555
O71 S5 1.528363 1_555
O71 Ti2 2.050356 1_555
