# generated using pymatgen
data_Mg(BiO2)4
_symmetry_space_group_name_H-M   'P 1'
_cell_length_a   3.43551811
_cell_length_b   8.66287398
_cell_length_c   9.71958185
_cell_angle_alpha   89.11457732
_cell_angle_beta   80.12467999
_cell_angle_gamma   78.43535373
_symmetry_Int_Tables_number   1
_chemical_formula_structural   Mg(BiO2)4
_chemical_formula_sum   'Mg1 Bi4 O8'
_cell_volume   279.14383801
_cell_formula_units_Z   1
loop_
 _symmetry_equiv_pos_site_id
 _symmetry_equiv_pos_as_xyz
  1  'x, y, z'
loop_
 _atom_site_type_symbol
 _atom_site_label
 _atom_site_symmetry_multiplicity
 _atom_site_fract_x
 _atom_site_fract_y
 _atom_site_fract_z
 _atom_site_occupancy
  Mg  Mg0  1  0.34136211  0.61610816  0.69843000  1
  Bi  Bi0  1  0.64389409  0.22406590  0.49484455  1
  Bi  Bi1  1  0.14273501  0.51083277  0.20775060  1
  Bi  Bi2  1  0.88412536  0.35766329  0.87681184  1
  Bi  Bi3  1  0.35010681  0.84933949  0.47129771  1
  O  O0  1  0.82228268  0.71542267  0.63409715  1
  O  O1  1  0.47992358  0.38218852  0.66456543  1
  O  O2  1  0.52090184  0.65435336  0.31254635  1
  O  O3  1  0.14759661  0.33116458  0.37766518  1
  O  O4  1  0.15608462  0.10588868  0.59194330  1
  O  O5  1  0.77129972  0.36238124  0.10054616  1
  O  O6  1  0.81347508  0.99734827  0.38180862  1
  O  O7  1  0.28835051  0.52823006  0.89582210  1
loop_
_geom_bond_atom_site_label_1
_geom_bond_atom_site_label_2
_geom_bond_distance
_geom_bond_site_symmetry_2
Mg0 O1 2.005345 1_555
Mg0 O0 2.014928 1_555
Mg0 O0 2.015457 1_455
Mg0 O7 2.045535 1_555
Bi0 O1 2.087250 1_555
Bi0 O6 2.189117 1_545
Bi0 O4 2.202856 1_655
Bi0 O4 2.205187 1_555
Bi0 O3 2.250398 1_555
Bi0 O3 2.255557 1_655
Bi1 O3 2.251630 1_555
Bi1 O2 2.318393 1_455
Bi1 O2 2.326349 1_555
Bi1 O5 2.350191 1_455
Bi1 O5 2.357735 1_555
Bi2 O5 2.141982 1_556
Bi2 O7 2.250594 1_655
Bi2 O7 2.252315 1_555
Bi2 O1 2.660826 1_555
Bi2 O1 2.683843 1_655
Bi3 O2 2.225070 1_555
Bi3 O6 2.289909 1_555
Bi3 O6 2.316727 1_455
Bi3 O4 2.444816 1_565
Bi3 O0 2.559347 1_555
Bi3 O0 2.634465 1_455
