# generated using pymatgen
data_Li3Bi2(PO4)3
_symmetry_space_group_name_H-M   'P 1'
_cell_length_a   9.36366800
_cell_length_b   8.87366500
_cell_length_c   15.56377790
_cell_angle_alpha   56.68106809
_cell_angle_beta   90.00000000
_cell_angle_gamma   90.00000000
_symmetry_Int_Tables_number   1
_chemical_formula_structural   Li3Bi2(PO4)3
_chemical_formula_sum   'Li12 Bi8 P12 O48'
_cell_volume   1080.62735197
_cell_formula_units_Z   4
loop_
 _symmetry_equiv_pos_site_id
 _symmetry_equiv_pos_as_xyz
  1  'x, y, z'
loop_
 _atom_site_type_symbol
 _atom_site_label
 _atom_site_symmetry_multiplicity
 _atom_site_fract_x
 _atom_site_fract_y
 _atom_site_fract_z
 _atom_site_occupancy
  Li  Li0  1  0.50751600  0.59401200  0.35076000  1
  Li  Li1  1  0.49248400  0.40598800  0.64924000  1
  Li  Li2  1  0.91552800  0.77502500  0.31703100  1
  Li  Li3  1  0.21880000  0.36096700  0.81531100  1
  Li  Li4  1  0.71880000  0.63903300  0.68468900  1
  Li  Li5  1  0.41552800  0.22497500  0.18296900  1
  Li  Li6  1  0.99248400  0.59401200  0.85076000  1
  Li  Li7  1  0.00751600  0.40598800  0.14924000  1
  Li  Li8  1  0.58447200  0.77502500  0.81703100  1
  Li  Li9  1  0.08447200  0.22497500  0.68296900  1
  Li  Li10  1  0.78120000  0.63903300  0.18468900  1
  Li  Li11  1  0.28120000  0.36096700  0.31531100  1
  Bi  Bi0  1  0.54283300  0.33491500  0.90546500  1
  Bi  Bi1  1  0.95991400  0.12952300  0.09215000  1
  Bi  Bi2  1  0.04283300  0.66508500  0.59453500  1
  Bi  Bi3  1  0.45991400  0.87047700  0.40785000  1
  Bi  Bi4  1  0.54008600  0.12952300  0.59215000  1
  Bi  Bi5  1  0.95716700  0.33491500  0.40546500  1
  Bi  Bi6  1  0.04008600  0.87047700  0.90785000  1
  Bi  Bi7  1  0.45716700  0.66508500  0.09453500  1
  P  P0  1  0.60074500  0.29129500  0.33534600  1
  P  P1  1  0.88086600  0.93436400  0.67486500  1
  P  P2  1  0.75908700  0.55221000  0.00771700  1
  P  P3  1  0.24091300  0.44779000  0.99228300  1
  P  P4  1  0.11913400  0.06563600  0.32513500  1
  P  P5  1  0.39925500  0.70870500  0.66465400  1
  P  P6  1  0.89925500  0.29129500  0.83534600  1
  P  P7  1  0.61913400  0.93436400  0.17486500  1
  P  P8  1  0.25908700  0.44779000  0.49228300  1
  P  P9  1  0.38086600  0.06563600  0.82513500  1
  P  P10  1  0.10074500  0.70870500  0.16465400  1
  P  P11  1  0.74091300  0.55221000  0.50771700  1
  O  O0  1  0.20078800  0.35355900  0.43919300  1
  O  O1  1  0.77899800  0.90980300  0.20554800  1
  O  O2  1  0.00205500  0.36344200  0.74092100  1
  O  O3  1  0.62995100  0.67789300  0.42266800  1
  O  O4  1  0.43092500  0.25785000  0.79664100  1
  O  O5  1  0.32870200  0.62938800  0.41077000  1
  O  O6  1  0.11639700  0.91598600  0.10436100  1
  O  O7  1  0.13493400  0.46552400  0.55262600  1
  O  O8  1  0.86506600  0.53447600  0.44737400  1
  O  O9  1  0.88360300  0.08401400  0.89563900  1
  O  O10  1  0.67129800  0.37061200  0.58923000  1
  O  O11  1  0.56907500  0.74215000  0.20335900  1
  O  O12  1  0.37004900  0.32210700  0.57733200  1
  O  O13  1  0.99794500  0.63655800  0.25907900  1
  O  O14  1  0.22100200  0.09019700  0.79445200  1
  O  O15  1  0.39314800  0.92733800  0.94205500  1
  O  O16  1  0.24877800  0.61442200  0.19915700  1
  O  O17  1  0.60685200  0.07266200  0.05794500  1
  O  O18  1  0.47512100  0.00577200  0.76665000  1
  O  O19  1  0.02663400  0.65936100  0.09310100  1
  O  O20  1  0.52663400  0.34063900  0.40689900  1
  O  O21  1  0.97512100  0.99422800  0.73335000  1
  O  O22  1  0.70078800  0.64644100  0.06080700  1
  O  O23  1  0.74877800  0.38557800  0.30084300  1
  O  O24  1  0.89314800  0.07266200  0.55794500  1
  O  O25  1  0.72100200  0.90980300  0.70554800  1
  O  O26  1  0.49794500  0.36344200  0.24092100  1
  O  O27  1  0.87004900  0.67789300  0.92266800  1
  O  O28  1  0.06907500  0.25785000  0.29664100  1
  O  O29  1  0.17129800  0.62938800  0.91077000  1
  O  O30  1  0.36506600  0.46552400  0.05262600  1
  O  O31  1  0.38360300  0.91598600  0.60436100  1
  O  O32  1  0.61639700  0.08401400  0.39563900  1
  O  O33  1  0.63493400  0.53447600  0.94737400  1
  O  O34  1  0.82870200  0.37061200  0.08923000  1
  O  O35  1  0.93092500  0.74215000  0.70335900  1
  O  O36  1  0.12995100  0.32210700  0.07733200  1
  O  O37  1  0.50205500  0.63655800  0.75907900  1
  O  O38  1  0.27899800  0.09019700  0.29445200  1
  O  O39  1  0.10685200  0.92733800  0.44205500  1
  O  O40  1  0.75122200  0.38557800  0.80084300  1
  O  O41  1  0.29921200  0.35355900  0.93919300  1
  O  O42  1  0.02487900  0.00577200  0.26665000  1
  O  O43  1  0.47336600  0.65936100  0.59310100  1
  O  O44  1  0.97336600  0.34063900  0.90689900  1
  O  O45  1  0.52487900  0.99422800  0.23335000  1
  O  O46  1  0.79921200  0.64644100  0.56080700  1
  O  O47  1  0.25122200  0.61442200  0.69915700  1
loop_
_geom_bond_atom_site_label_1
_geom_bond_atom_site_label_2
_geom_bond_distance
_geom_bond_site_symmetry_2
Li0 O20 1.921555 1_555
Li0 O11 2.002546 1_555
Li0 O3 2.008989 1_555
Li0 O5 2.023964 1_555
Li1 O43 1.921555 1_555
Li1 O4 2.002546 1_555
Li1 O12 2.008989 1_555
Li1 O10 2.023964 1_555
Li2 O1 1.948215 1_555
Li2 O42 2.022863 1_665
Li2 O13 2.033793 1_555
Li2 O8 2.034146 1_555
Li3 O47 1.987932 1_555
Li3 O41 2.037027 1_555
Li3 O4 2.271358 1_555
Li3 O2 2.330667 1_555
Li4 O40 1.987932 1_555
Li4 O46 2.037027 1_555
Li4 O35 2.271358 1_555
Li4 O37 2.330667 1_555
Li5 O38 1.948215 1_555
Li5 O45 2.022863 1_545
Li5 O26 2.033793 1_555
Li5 O30 2.034146 1_555
Li6 O44 1.921555 1_555
Li6 O35 2.002546 1_555
Li6 O27 2.008989 1_555
Li6 O29 2.023964 1_655
Li7 O19 1.921555 1_555
Li7 O28 2.002546 1_555
Li7 O36 2.008989 1_555
Li7 O34 2.023964 1_455
Li8 O25 1.948215 1_555
Li8 O18 2.022863 1_565
Li8 O37 2.033793 1_555
Li8 O33 2.034146 1_555
Li9 O14 1.948215 1_555
Li9 O21 2.022863 1_445
Li9 O2 2.033793 1_555
Li9 O7 2.034146 1_555
Li10 O23 1.987932 1_555
Li10 O22 2.037027 1_555
Li10 O11 2.271358 1_555
Li10 O13 2.330667 1_555
Li11 O16 1.987932 1_555
Li11 O0 2.037027 1_555
Li11 O28 2.271358 1_555
Li11 O26 2.330667 1_555
Bi0 O17 2.310765 1_556
Bi0 O33 2.360929 1_555
Bi0 O41 2.366885 1_555
Bi0 O4 2.388888 1_555
Bi0 O37 2.408637 1_555
Bi0 O40 2.420086 1_555
Bi1 O36 2.252918 1_655
Bi1 O6 2.319040 1_645
Bi1 O42 2.382329 1_655
Bi1 O44 2.429895 1_554
Bi1 O34 2.445724 1_555
Bi1 O1 2.450654 1_545
Bi2 O39 2.310765 1_555
Bi2 O7 2.360929 1_555
Bi2 O46 2.366885 1_455
Bi2 O35 2.388888 1_455
Bi2 O2 2.408637 1_555
Bi2 O47 2.420086 1_555
Bi3 O3 2.252918 1_555
Bi3 O32 2.319040 1_565
Bi3 O45 2.382329 1_555
Bi3 O43 2.429895 1_555
Bi3 O5 2.445724 1_555
Bi3 O38 2.450654 1_565
Bi4 O12 2.252918 1_555
Bi4 O31 2.319040 1_545
Bi4 O18 2.382329 1_555
Bi4 O20 2.429895 1_555
Bi4 O10 2.445724 1_555
Bi4 O25 2.450654 1_545
Bi5 O24 2.310765 1_555
Bi5 O8 2.360929 1_555
Bi5 O0 2.366885 1_655
Bi5 O28 2.388888 1_655
Bi5 O13 2.408637 1_555
Bi5 O23 2.420086 1_555
Bi6 O27 2.252918 1_455
Bi6 O9 2.319040 1_465
Bi6 O21 2.382329 1_455
Bi6 O19 2.429895 1_556
Bi6 O29 2.445724 1_555
Bi6 O14 2.450654 1_565
Bi7 O15 2.310765 1_554
Bi7 O30 2.360929 1_555
Bi7 O22 2.366885 1_555
Bi7 O11 2.388888 1_555
Bi7 O26 2.408637 1_555
Bi7 O16 2.420086 1_555
O0 P8 1.561718 1_555
O1 P7 1.549825 1_555
O2 P6 1.569257 1_455
O3 P11 1.566425 1_555
O4 P9 1.579434 1_555
O5 P8 1.544409 1_555
O6 P10 1.545650 1_555
O7 P8 1.555837 1_555
O8 P11 1.555837 1_555
O9 P6 1.545650 1_555
O10 P11 1.544409 1_555
O11 P7 1.579434 1_555
O12 P8 1.566425 1_555
O13 P10 1.569257 1_655
O14 P9 1.549825 1_555
O15 P9 1.541843 1_565
O16 P10 1.554387 1_555
O17 P7 1.541843 1_545
O18 P9 1.555919 1_555
O19 P10 1.564983 1_555
O20 P0 1.564983 1_555
O21 P1 1.555919 1_555
O22 P2 1.561718 1_555
O23 P0 1.554387 1_555
O24 P1 1.541843 1_545
O25 P1 1.549825 1_555
O26 P0 1.569257 1_555
O27 P2 1.566425 1_556
O28 P4 1.579434 1_555
O29 P3 1.544409 1_555
O30 P3 1.555837 1_554
O31 P5 1.545650 1_555
O32 P0 1.545650 1_555
O33 P2 1.555837 1_556
O34 P2 1.544409 1_555
O35 P1 1.579434 1_555
O36 P3 1.566425 1_554
O37 P5 1.569257 1_555
O38 P4 1.549825 1_555
O39 P4 1.541843 1_565
O40 P6 1.554387 1_555
O41 P3 1.561718 1_555
O42 P4 1.555919 1_555
O43 P5 1.564983 1_555
O44 P6 1.564983 1_555
O45 P7 1.555919 1_555
O46 P11 1.561718 1_555
O47 P5 1.554387 1_555
