# generated using pymatgen
data_Tl3Cd2I7
_symmetry_space_group_name_H-M   'P 1'
_cell_length_a   4.54071787
_cell_length_b   14.07168429
_cell_length_c   15.16443428
_cell_angle_alpha   90.00000000
_cell_angle_beta   90.00000000
_cell_angle_gamma   90.00000000
_symmetry_Int_Tables_number   1
_chemical_formula_structural   Tl3Cd2I7
_chemical_formula_sum   'Tl6 Cd4 I14'
_cell_volume   968.93984323
_cell_formula_units_Z   2
loop_
 _symmetry_equiv_pos_site_id
 _symmetry_equiv_pos_as_xyz
  1  'x, y, z'
loop_
 _atom_site_type_symbol
 _atom_site_label
 _atom_site_symmetry_multiplicity
 _atom_site_fract_x
 _atom_site_fract_y
 _atom_site_fract_z
 _atom_site_occupancy
  Tl  Tl0  1  0.00000000  0.00000000  0.50000000  1
  Tl  Tl1  1  -0.00000000  0.50000000  0.00000000  1
  Tl  Tl2  1  -0.00000000  0.60767391  0.36338005  1
  Tl  Tl3  1  0.00000000  0.39232609  0.63661995  1
  Tl  Tl4  1  -0.00000000  0.10767391  0.13661995  1
  Tl  Tl5  1  0.00000000  0.89232609  0.86338005  1
  Cd  Cd0  1  0.50000000  0.24543037  0.88618367  1
  Cd  Cd1  1  0.50000000  0.75456963  0.11381633  1
  Cd  Cd2  1  0.50000000  0.25456963  0.38618367  1
  Cd  Cd3  1  0.50000000  0.74543037  0.61381633  1
  I  I0  1  -0.00000000  0.34024572  0.30568241  1
  I  I1  1  -0.00000000  0.65975428  0.69431759  1
  I  I2  1  -0.00000000  0.15975428  0.80568241  1
  I  I3  1  0.00000000  0.84024572  0.19431759  1
  I  I4  1  0.50000000  0.50000000  0.50000000  1
  I  I5  1  0.50000000  0.00000000  0.00000000  1
  I  I6  1  0.50000000  0.70409295  0.93652388  1
  I  I7  1  0.50000000  0.29590705  0.06347612  1
  I  I8  1  0.50000000  0.20409295  0.56347612  1
  I  I9  1  0.50000000  0.79590705  0.43652388  1
  I  I10  1  0.50000000  0.93498481  0.68258303  1
  I  I11  1  0.50000000  0.06501519  0.31741697  1
  I  I12  1  0.50000000  0.43498481  0.81741697  1
  I  I13  1  0.50000000  0.56501519  0.18258303  1
loop_
_geom_bond_atom_site_label_1
_geom_bond_atom_site_label_2
_geom_bond_distance
_geom_bond_site_symmetry_2
Cd0 I7 2.780784 1_556
Cd0 I2 2.845745 1_555
Cd0 I2 2.845745 1_655
Cd0 I12 2.863949 1_555
Cd1 I6 2.780784 1_554
Cd1 I3 2.845745 1_555
Cd1 I3 2.845745 1_655
Cd1 I13 2.863949 1_555
Cd2 I8 2.780784 1_555
Cd2 I0 2.845745 1_655
Cd2 I0 2.845745 1_555
Cd2 I11 2.863949 1_555
Cd3 I9 2.780784 1_555
Cd3 I1 2.845745 1_555
Cd3 I1 2.845745 1_655
Cd3 I10 2.863949 1_555
I4 Tl2 3.426722 1_555
I4 Tl3 3.426722 1_655
I4 Tl3 3.426722 1_555
I4 Tl2 3.426722 1_655
I5 Tl5 3.426722 1_644
I5 Tl5 3.426722 1_544
I5 Tl4 3.426722 1_655
I5 Tl4 3.426722 1_555
