# generated using pymatgen
data_MgFe4(CoO4)2
_symmetry_space_group_name_H-M   'P 1'
_cell_length_a   6.15186101
_cell_length_b   6.63926502
_cell_length_c   6.15186205
_cell_angle_alpha   57.01335609
_cell_angle_beta   58.90072791
_cell_angle_gamma   57.01335969
_symmetry_Int_Tables_number   1
_chemical_formula_structural   MgFe4(CoO4)2
_chemical_formula_sum   'Mg1 Fe4 Co2 O8'
_cell_volume   167.91257187
_cell_formula_units_Z   1
loop_
 _symmetry_equiv_pos_site_id
 _symmetry_equiv_pos_as_xyz
  1  'x, y, z'
loop_
 _atom_site_type_symbol
 _atom_site_label
 _atom_site_symmetry_multiplicity
 _atom_site_fract_x
 _atom_site_fract_y
 _atom_site_fract_z
 _atom_site_occupancy
  Mg  Mg0  1  0.05291912  0.44205966  0.05291912  1
  Fe  Fe0  1  0.91980785  0.07587603  0.91980785  1
  Fe  Fe1  1  0.38069310  0.11775684  0.38069311  1
  Fe  Fe2  1  0.08274115  0.69322809  0.53311541  1
  Fe  Fe3  1  0.53311541  0.69322809  0.08274115  1
  Co  Co0  1  0.62710461  0.15869633  0.62710461  1
  Co  Co1  1  0.63086323  0.59242417  0.63086323  1
  O  O0  1  0.38627541  0.41063521  0.38627541  1
  O  O1  1  0.45901537  0.29266772  0.94554483  1
  O  O2  1  0.39304142  0.80607159  0.39304143  1
  O  O3  1  0.94554483  0.29266772  0.45901537  1
  O  O4  1  0.33098271  0.93332670  0.79362335  1
  O  O5  1  0.87011468  0.42293751  0.87011467  1
  O  O6  1  0.79362335  0.93332670  0.33098271  1
  O  O7  1  0.87019977  0.82780566  0.87019977  1
loop_
_geom_bond_atom_site_label_1
_geom_bond_atom_site_label_2
_geom_bond_distance
_geom_bond_site_symmetry_2
Mg0 O1 1.992950 1_554
Mg0 O3 1.992950 1_455
Mg0 O7 2.030271 1_454
Mg0 O5 2.040326 1_454
Fe0 O5 2.014668 1_555
Fe0 O4 2.015292 1_645
Fe0 O6 2.015293 1_546
Fe0 O7 2.022310 1_545
Fe0 O1 2.339690 1_555
Fe0 O3 2.339690 1_555
Fe1 O0 1.982441 1_555
Fe1 O2 1.989325 1_545
Fe1 O6 2.064981 1_545
Fe1 O4 2.064981 1_545
Fe1 O3 2.153759 1_455
Fe1 O1 2.153760 1_554
Fe2 O2 2.025547 1_555
Fe2 O0 2.027583 1_555
Fe2 O6 2.071211 1_455
Fe2 O7 2.180043 1_455
Fe2 O5 2.221007 1_455
Fe3 O2 2.025547 1_555
Fe3 O0 2.027583 1_555
Fe3 O4 2.071211 1_554
Fe3 O7 2.180042 1_554
Fe3 O5 2.221007 1_554
Co0 O0 2.014568 1_555
Co0 O7 2.110628 1_545
Co0 O3 2.121625 1_555
Co0 O1 2.121625 1_555
Co0 O4 2.445012 1_545
Co0 O6 2.445013 1_545
Co1 O2 1.996197 1_555
Co1 O5 2.056673 1_555
Co1 O1 2.192628 1_555
Co1 O3 2.192628 1_555
Co1 O6 2.354037 1_555
Co1 O4 2.354037 1_555
