# generated using pymatgen
data_Ba2MgNb4O12
_symmetry_space_group_name_H-M   'P 1'
_cell_length_a   4.03250156
_cell_length_b   6.54433268
_cell_length_c   10.25352935
_cell_angle_alpha   83.98619352
_cell_angle_beta   90.00128516
_cell_angle_gamma   90.00283623
_symmetry_Int_Tables_number   1
_chemical_formula_structural   Ba2MgNb4O12
_chemical_formula_sum   'Ba2 Mg1 Nb4 O12'
_cell_volume   269.10181543
_cell_formula_units_Z   1
loop_
 _symmetry_equiv_pos_site_id
 _symmetry_equiv_pos_as_xyz
  1  'x, y, z'
loop_
 _atom_site_type_symbol
 _atom_site_label
 _atom_site_symmetry_multiplicity
 _atom_site_fract_x
 _atom_site_fract_y
 _atom_site_fract_z
 _atom_site_occupancy
  Ba  Ba0  1  0.00019297  0.98779964  0.00104273  1
  Ba  Ba1  1  0.99989115  0.57988657  0.57860779  1
  Mg  Mg0  1  0.00003972  0.19329973  0.38980559  1
  Nb  Nb0  1  0.50006785  0.39330393  0.17188835  1
  Nb  Nb1  1  0.49994549  0.87604303  0.34296471  1
  Nb  Nb2  1  0.49996908  0.56492988  0.86473088  1
  Nb  Nb3  1  0.50004556  0.10367026  0.63738179  1
  O  O0  1  0.00007054  0.35053368  0.20273178  1
  O  O1  1  0.99997285  0.89339761  0.35103981  1
  O  O2  1  -0.00007347  0.61593493  0.84313645  1
  O  O3  1  0.00000480  0.14561310  0.59566914  1
  O  O4  1  0.50007137  0.06197173  0.18164417  1
  O  O5  1  0.49999876  0.59647895  0.31027259  1
  O  O6  1  0.50003357  0.20274065  0.41588584  1
  O  O7  1  0.50014195  0.65438890  0.05114193  1
  O  O8  1  0.49992522  0.83281869  0.54011230  1
  O  O9  1  0.49978577  0.30660758  0.97729765  1
  O  O10  1  0.49988394  0.37680013  0.71427292  1
  O  O11  1  0.50003289  0.92003099  0.79287359  1
loop_
_geom_bond_atom_site_label_1
_geom_bond_atom_site_label_2
_geom_bond_distance
_geom_bond_site_symmetry_2
Ba0 O4 2.813568 1_565
Ba0 O4 2.814365 1_465
Ba0 O9 2.892075 1_564
Ba0 O9 2.894500 1_464
Ba0 O7 2.975694 1_555
Ba0 O7 2.975843 1_455
Ba0 O11 3.002324 1_554
Ba0 O11 3.003097 1_454
Ba0 O2 3.060970 1_554
Ba1 O8 2.612246 1_555
Ba1 O8 2.612345 1_655
Ba1 O10 2.716483 1_555
Ba1 O10 2.716491 1_655
Ba1 O2 2.747105 1_655
Ba1 O3 2.829057 1_655
Ba1 O1 2.941268 1_555
Mg0 O6 2.035662 1_555
Mg0 O6 2.035729 1_455
Mg0 O1 2.042913 1_445
Mg0 O0 2.079569 1_555
Mg0 O3 2.101180 1_555
Nb0 O7 2.002245 1_555
Nb0 O5 2.043682 1_555
Nb0 O0 2.055483 1_555
Nb0 O0 2.055517 1_655
Nb0 O9 2.130751 1_554
Nb0 O4 2.160160 1_555
Nb0 O6 2.675948 1_555
Nb1 O5 1.894245 1_555
Nb1 O4 1.948047 1_565
Nb1 O8 2.011590 1_555
Nb1 O1 2.021529 1_455
Nb1 O1 2.021734 1_555
Nb1 O6 2.337763 1_565
Nb2 O9 1.944553 1_555
Nb2 O2 2.051703 1_655
Nb2 O2 2.052063 1_555
Nb2 O7 2.056834 1_556
Nb2 O10 2.072149 1_555
Nb2 O11 2.363175 1_555
Nb3 O11 1.893343 1_545
Nb3 O10 2.027772 1_555
Nb3 O3 2.073225 1_655
Nb3 O3 2.073552 1_555
Nb3 O8 2.122983 1_545
Nb3 O6 2.295601 1_555
