# generated using pymatgen
data_NaNbGa(PO4)3
_symmetry_space_group_name_H-M   'P 1'
_cell_length_a   8.66469743
_cell_length_b   8.66469716
_cell_length_c   22.54657176
_cell_angle_alpha   90.00000000
_cell_angle_beta   90.00000000
_cell_angle_gamma   120.00000106
_symmetry_Int_Tables_number   1
_chemical_formula_structural   NaNbGa(PO4)3
_chemical_formula_sum   'Na6 Nb6 Ga6 P18 O72'
_cell_volume   1465.94586719
_cell_formula_units_Z   6
loop_
 _symmetry_equiv_pos_site_id
 _symmetry_equiv_pos_as_xyz
  1  'x, y, z'
loop_
 _atom_site_type_symbol
 _atom_site_label
 _atom_site_symmetry_multiplicity
 _atom_site_fract_x
 _atom_site_fract_y
 _atom_site_fract_z
 _atom_site_occupancy
  Na  Na0  1  -0.00000000  0.00000000  0.49636548  1
  Na  Na1  1  -0.00000000  0.00000000  0.99636548  1
  Na  Na2  1  0.66666700  0.33333300  0.82969848  1
  Na  Na3  1  0.66666700  0.33333300  0.32969848  1
  Na  Na4  1  0.33333300  0.66666700  0.16303248  1
  Na  Na5  1  0.33333300  0.66666700  0.66303248  1
  Nb  Nb0  1  -0.00000000  0.00000000  0.64496159  1
  Nb  Nb1  1  -0.00000000  0.00000000  0.14496159  1
  Nb  Nb2  1  0.66666700  0.33333300  0.97829459  1
  Nb  Nb3  1  0.66666700  0.33333300  0.47829459  1
  Nb  Nb4  1  0.33333300  0.66666700  0.31162859  1
  Nb  Nb5  1  0.33333300  0.66666700  0.81162859  1
  Ga  Ga0  1  -0.00000000  0.00000000  0.35208207  1
  Ga  Ga1  1  -0.00000000  0.00000000  0.85208207  1
  Ga  Ga2  1  0.66666700  0.33333300  0.68541507  1
  Ga  Ga3  1  0.66666700  0.33333300  0.18541507  1
  Ga  Ga4  1  0.33333300  0.66666700  0.01874907  1
  Ga  Ga5  1  0.33333300  0.66666700  0.51874907  1
  P  P0  1  0.29267283  0.00859743  0.25129128  1
  P  P1  1  0.71592459  0.70732717  0.25129128  1
  P  P2  1  0.99140257  0.28407541  0.25129128  1
  P  P3  1  0.29267283  0.28407541  0.75129128  1
  P  P4  1  0.99140257  0.70732717  0.75129128  1
  P  P5  1  0.71592459  0.00859743  0.75129128  1
  P  P6  1  0.95933983  0.34193043  0.58462428  1
  P  P7  1  0.38259159  0.04066017  0.58462428  1
  P  P8  1  0.65806957  0.61740841  0.58462428  1
  P  P9  1  0.95933983  0.61740841  0.08462428  1
  P  P10  1  0.65806957  0.04066017  0.08462428  1
  P  P11  1  0.38259159  0.34193043  0.08462428  1
  P  P12  1  0.62600583  0.67526443  0.91795828  1
  P  P13  1  0.04925759  0.37399417  0.91795828  1
  P  P14  1  0.32473557  0.95074241  0.91795828  1
  P  P15  1  0.62600583  0.95074241  0.41795828  1
  P  P16  1  0.32473557  0.37399417  0.41795828  1
  P  P17  1  0.04925759  0.67526443  0.41795828  1
  O  O0  1  0.20645899  0.03332134  0.30628684  1
  O  O1  1  0.82686235  0.79354101  0.30628684  1
  O  O2  1  0.96667866  0.17313765  0.30628684  1
  O  O3  1  0.20645899  0.17313765  0.80628684  1
  O  O4  1  0.96667866  0.79354101  0.80628684  1
  O  O5  1  0.82686235  0.03332134  0.80628684  1
  O  O6  1  0.79812329  0.96982594  0.69488008  1
  O  O7  1  0.17170265  0.20187671  0.69488008  1
  O  O8  1  0.03017406  0.82829735  0.69488008  1
  O  O9  1  0.79812329  0.82829735  0.19488008  1
  O  O10  1  0.03017406  0.20187671  0.19488008  1
  O  O11  1  0.17170265  0.96982594  0.19488008  1
  O  O12  1  0.87312599  0.36665434  0.63961984  1
  O  O13  1  0.49352935  0.12687401  0.63961984  1
  O  O14  1  0.63334566  0.50647065  0.63961984  1
  O  O15  1  0.87312599  0.50647065  0.13961984  1
  O  O16  1  0.63334566  0.12687401  0.13961984  1
  O  O17  1  0.49352935  0.36665434  0.13961984  1
  O  O18  1  0.46479029  0.30315894  0.02821308  1
  O  O19  1  0.83836965  0.53520971  0.02821308  1
  O  O20  1  0.69684106  0.16163035  0.02821308  1
  O  O21  1  0.46479029  0.16163035  0.52821308  1
  O  O22  1  0.69684106  0.53520971  0.52821308  1
  O  O23  1  0.83836965  0.30315894  0.52821308  1
  O  O24  1  0.53979199  0.69998834  0.97295384  1
  O  O25  1  0.16019535  0.46020801  0.97295384  1
  O  O26  1  0.30001166  0.83980465  0.97295384  1
  O  O27  1  0.53979199  0.83980465  0.47295384  1
  O  O28  1  0.30001166  0.46020801  0.47295384  1
  O  O29  1  0.16019535  0.69998834  0.47295384  1
  O  O30  1  0.13145629  0.63649294  0.36154708  1
  O  O31  1  0.50503565  0.86854371  0.36154708  1
  O  O32  1  0.36350706  0.49496435  0.36154708  1
  O  O33  1  0.13145629  0.49496435  0.86154708  1
  O  O34  1  0.36350706  0.86854371  0.86154708  1
  O  O35  1  0.50503565  0.63649294  0.86154708  1
  O  O36  1  0.02351631  0.83444116  0.40924356  1
  O  O37  1  0.81092486  0.97648369  0.40924356  1
  O  O38  1  0.16555884  0.18907514  0.40924356  1
  O  O39  1  0.02351631  0.18907514  0.90924356  1
  O  O40  1  0.16555884  0.97648369  0.90924356  1
  O  O41  1  0.81092486  0.83444116  0.90924356  1
  O  O42  1  0.97349681  0.16799565  0.59049519  1
  O  O43  1  0.19449883  0.02650319  0.59049519  1
  O  O44  1  0.83200435  0.80550117  0.59049519  1
  O  O45  1  0.97349681  0.80550117  0.09049519  1
  O  O46  1  0.83200435  0.02650319  0.09049519  1
  O  O47  1  0.19449883  0.16799565  0.09049519  1
  O  O48  1  0.69018331  0.16777416  0.74257656  1
  O  O49  1  0.47759186  0.30981669  0.74257656  1
  O  O50  1  0.83222584  0.52240814  0.74257656  1
  O  O51  1  0.69018331  0.52240814  0.24257656  1
  O  O52  1  0.83222584  0.30981669  0.24257656  1
  O  O53  1  0.47759186  0.16777416  0.24257656  1
  O  O54  1  0.64016381  0.50132865  0.92382819  1
  O  O55  1  0.86116583  0.35983619  0.92382819  1
  O  O56  1  0.49867135  0.13883417  0.92382819  1
  O  O57  1  0.64016381  0.13883417  0.42382819  1
  O  O58  1  0.49867135  0.35983619  0.42382819  1
  O  O59  1  0.86116583  0.50132865  0.42382819  1
  O  O60  1  0.35684931  0.50110816  0.07591056  1
  O  O61  1  0.14425786  0.64315069  0.07591056  1
  O  O62  1  0.49889184  0.85574214  0.07591056  1
  O  O63  1  0.35684931  0.85574214  0.57591056  1
  O  O64  1  0.49889184  0.64315069  0.57591056  1
  O  O65  1  0.14425786  0.50110816  0.57591056  1
  O  O66  1  0.30682981  0.83466265  0.25716219  1
  O  O67  1  0.52783183  0.69317019  0.25716219  1
  O  O68  1  0.16533735  0.47216817  0.25716219  1
  O  O69  1  0.30682981  0.47216817  0.75716219  1
  O  O70  1  0.16533735  0.69317019  0.75716219  1
  O  O71  1  0.52783183  0.83466265  0.75716219  1
loop_
_geom_bond_atom_site_label_1
_geom_bond_atom_site_label_2
_geom_bond_distance
_geom_bond_site_symmetry_2
Na0 O38 2.500027 1_555
Na0 O37 2.500027 1_445
Na0 O36 2.500027 1_545
Na0 O44 2.647648 1_445
Na0 O43 2.647648 1_555
Na0 O42 2.647648 1_455
Na1 O39 2.500027 1_555
Na1 O41 2.500027 1_445
Na1 O40 2.500027 1_545
Na1 O45 2.647648 1_446
Na1 O47 2.647648 1_556
Na1 O46 2.647648 1_456
Na2 O50 2.500027 1_555
Na2 O49 2.500027 1_555
Na2 O48 2.500027 1_555
Na2 O56 2.647648 1_555
Na2 O55 2.647648 1_555
Na2 O54 2.647648 1_555
Na3 O51 2.500027 1_555
Na3 O53 2.500027 1_555
Na3 O52 2.500027 1_555
Na3 O57 2.647648 1_555
Na3 O59 2.647648 1_555
Na3 O58 2.647648 1_555
Na4 O62 2.500027 1_555
Na4 O61 2.500027 1_555
Na4 O60 2.500027 1_555
Na4 O68 2.647648 1_555
Na4 O67 2.647648 1_555
Na4 O66 2.647648 1_555
Na5 O63 2.500027 1_555
Na5 O65 2.500027 1_555
Na5 O64 2.500027 1_555
Na5 O69 2.647648 1_555
Na5 O71 2.647648 1_555
Na5 O70 2.647648 1_555
Nb0 O7 1.984304 1_555
Nb0 O8 1.984304 1_545
Nb0 O6 1.984304 1_445
Nb0 O44 2.003480 1_445
Nb0 O43 2.003480 1_555
Nb0 O42 2.003480 1_455
Nb1 O10 1.984304 1_555
Nb1 O9 1.984304 1_445
Nb1 O11 1.984304 1_545
Nb1 O45 2.003480 1_445
Nb1 O47 2.003480 1_555
Nb1 O46 2.003480 1_455
Nb2 O19 1.984304 1_556
Nb2 O20 1.984304 1_556
Nb2 O18 1.984304 1_556
Nb2 O56 2.003480 1_555
Nb2 O55 2.003480 1_555
Nb2 O54 2.003480 1_555
Nb3 O22 1.984304 1_555
Nb3 O21 1.984304 1_555
Nb3 O23 1.984304 1_555
Nb3 O57 2.003480 1_555
Nb3 O59 2.003480 1_555
Nb3 O58 2.003480 1_555
Nb4 O31 1.984304 1_555
Nb4 O32 1.984304 1_555
Nb4 O30 1.984304 1_555
Nb4 O68 2.003480 1_555
Nb4 O67 2.003480 1_555
Nb4 O66 2.003480 1_555
Nb5 O34 1.984304 1_555
Nb5 O33 1.984304 1_555
Nb5 O35 1.984304 1_555
Nb5 O69 2.003480 1_555
Nb5 O71 2.003480 1_555
Nb5 O70 2.003480 1_555
Ga0 O1 1.957845 1_445
Ga0 O2 1.957845 1_455
Ga0 O0 1.957845 1_555
Ga0 O38 2.013120 1_555
Ga0 O37 2.013120 1_445
Ga0 O36 2.013120 1_545
Ga1 O4 1.957845 1_445
Ga1 O3 1.957845 1_555
Ga1 O5 1.957845 1_455
Ga1 O39 2.013120 1_555
Ga1 O41 2.013120 1_445
Ga1 O40 2.013120 1_545
Ga2 O13 1.957845 1_555
Ga2 O14 1.957845 1_555
Ga2 O12 1.957845 1_555
Ga2 O50 2.013120 1_555
Ga2 O49 2.013120 1_555
Ga2 O48 2.013120 1_555
Ga3 O16 1.957845 1_555
Ga3 O15 1.957845 1_555
Ga3 O17 1.957845 1_555
Ga3 O51 2.013120 1_555
Ga3 O53 2.013120 1_555
Ga3 O52 2.013120 1_555
Ga4 O25 1.957845 1_554
Ga4 O26 1.957845 1_554
Ga4 O24 1.957845 1_554
Ga4 O62 2.013120 1_555
Ga4 O61 2.013120 1_555
Ga4 O60 2.013120 1_555
Ga5 O28 1.957845 1_555
Ga5 O27 1.957845 1_555
Ga5 O29 1.957845 1_555
Ga5 O63 2.013120 1_555
Ga5 O65 2.013120 1_555
Ga5 O64 2.013120 1_555
O0 P0 1.517057 1_555
O1 P1 1.517057 1_555
O2 P2 1.517057 1_555
O3 P3 1.517057 1_555
O4 P4 1.517057 1_555
O5 P5 1.517057 1_555
O6 P5 1.573871 1_565
O7 P3 1.573871 1_555
O8 P4 1.573871 1_455
O9 P1 1.573871 1_555
O10 P2 1.573871 1_455
O11 P0 1.573871 1_565
O12 P6 1.517057 1_555
O13 P7 1.517057 1_555
O14 P8 1.517057 1_555
O15 P9 1.517057 1_555
O16 P10 1.517057 1_555
O17 P11 1.517057 1_555
O18 P11 1.573871 1_555
O19 P9 1.573871 1_555
O20 P10 1.573871 1_555
O21 P7 1.573871 1_555
O22 P8 1.573871 1_555
O23 P6 1.573871 1_555
O24 P12 1.517057 1_555
O25 P13 1.517057 1_555
O26 P14 1.517057 1_555
O27 P15 1.517057 1_555
O28 P16 1.517057 1_555
O29 P17 1.517057 1_555
O30 P17 1.573871 1_555
O31 P15 1.573871 1_555
O32 P16 1.573871 1_555
O33 P13 1.573871 1_555
O34 P14 1.573871 1_555
O35 P12 1.573871 1_555
O36 P17 1.515988 1_555
O37 P15 1.515996 1_555
O38 P16 1.515993 1_555
O39 P13 1.515996 1_555
O40 P14 1.515988 1_555
O41 P12 1.515993 1_555
O42 P6 1.577582 1_555
O43 P7 1.577590 1_555
O44 P8 1.577587 1_555
O45 P9 1.577590 1_555
O46 P10 1.577582 1_555
O47 P11 1.577587 1_555
O48 P5 1.515988 1_555
O49 P3 1.515996 1_555
O50 P4 1.515993 1_555
O51 P1 1.515996 1_555
O52 P2 1.515988 1_555
O53 P0 1.515993 1_555
O54 P12 1.577593 1_555
O55 P13 1.577576 1_655
O56 P14 1.577584 1_545
O57 P15 1.577576 1_545
O58 P16 1.577593 1_555
O59 P17 1.577584 1_655
O60 P11 1.515998 1_555
O61 P9 1.515982 1_455
O62 P10 1.515988 1_565
O63 P7 1.515981 1_565
O64 P8 1.515998 1_555
O65 P6 1.515988 1_455
O66 P0 1.577582 1_565
O67 P1 1.577590 1_555
O68 P2 1.577587 1_455
O69 P3 1.577590 1_555
O70 P4 1.577582 1_455
O71 P5 1.577587 1_565
