# generated using pymatgen
data_Na4Zn3SiSnS5O24
_symmetry_space_group_name_H-M   'P 1'
_cell_length_a   8.87922168
_cell_length_b   8.87871379
_cell_length_c   22.54211523
_cell_angle_alpha   90.50260744
_cell_angle_beta   90.38091300
_cell_angle_gamma   120.10918852
_symmetry_Int_Tables_number   1
_chemical_formula_structural   Na4Zn3SiSnS5O24
_chemical_formula_sum   'Na12 Zn9 Si3 Sn3 S15 O72'
_cell_volume   1537.16054427
_cell_formula_units_Z   3
loop_
 _symmetry_equiv_pos_site_id
 _symmetry_equiv_pos_as_xyz
  1  'x, y, z'
loop_
 _atom_site_type_symbol
 _atom_site_label
 _atom_site_symmetry_multiplicity
 _atom_site_fract_x
 _atom_site_fract_y
 _atom_site_fract_z
 _atom_site_occupancy
  Na  Na0  1  0.36344679  0.36392170  0.24989438  1
  Na  Na1  1  0.31144100  0.34183703  0.58839324  1
  Na  Na2  1  0.02410130  0.69913277  0.58180919  1
  Na  Na3  1  0.98738642  0.67701299  0.91654272  1
  Na  Na4  1  0.70031418  0.03216215  0.91097876  1
  Na  Na5  1  0.31002289  0.28708791  0.91906412  1
  Na  Na6  1  0.97356484  0.98320412  0.49858541  1
  Na  Na7  1  0.01479810  0.01375032  0.00210423  1
  Na  Na8  1  0.66776275  0.32367148  0.82630349  1
  Na  Na9  1  0.68040021  0.33172016  0.32899800  1
  Na  Na10  1  0.33261057  0.67893476  0.16503907  1
  Na  Na11  1  0.36202167  0.67867878  0.66282560  1
  Zn  Zn0  1  0.99767892  0.99716162  0.34715322  1
  Zn  Zn1  1  0.01338103  0.01406003  0.84917855  1
  Zn  Zn2  1  0.97062028  0.98221934  0.65170967  1
  Zn  Zn3  1  0.99505455  0.99461423  0.15287693  1
  Zn  Zn4  1  0.66300996  0.34566637  0.68226681  1
  Zn  Zn5  1  0.67471994  0.33179197  0.18417175  1
  Zn  Zn6  1  0.31090254  0.66140979  0.01514128  1
  Zn  Zn7  1  0.35938941  0.67596446  0.51391026  1
  Zn  Zn8  1  0.33243233  0.67845703  0.31783771  1
  Si  Si0  1  0.66505977  0.63276464  0.58456173  1
  Si  Si1  1  0.04022005  0.37075929  0.91865672  1
  Si  Si2  1  0.33294683  0.96181739  0.91881290  1
  Sn  Sn0  1  0.66858958  0.32596591  0.98680267  1
  Sn  Sn1  1  0.67081293  0.34056141  0.48211433  1
  Sn  Sn2  1  0.32567314  0.67090135  0.81687046  1
  S  S0  1  0.29413015  0.99900639  0.24975404  1
  S  S1  1  0.70266199  0.70344261  0.25034356  1
  S  S2  1  0.00051448  0.29499069  0.25068050  1
  S  S3  1  0.29922621  0.30092855  0.74971660  1
  S  S4  1  0.00020711  0.70253484  0.75004997  1
  S  S5  1  0.69711671  0.99788788  0.75185043  1
  S  S6  1  0.95904906  0.33058460  0.58404453  1
  S  S7  1  0.37536335  0.03905861  0.58406304  1
  S  S8  1  0.96033961  0.63200947  0.08611464  1
  S  S9  1  0.66799244  0.03031946  0.08580313  1
  S  S10  1  0.37070382  0.33541928  0.08602790  1
  S  S11  1  0.62482345  0.66448487  0.91815475  1
  S  S12  1  0.63316167  0.96902157  0.41651175  1
  S  S13  1  0.32949463  0.36391814  0.41525086  1
  S  S14  1  0.03987897  0.66632634  0.41786595  1
  O  O0  1  0.21503085  0.03021594  0.30303624  1
  O  O1  1  0.80757696  0.78419301  0.30461660  1
  O  O2  1  0.97607406  0.19089613  0.30429697  1
  O  O3  1  0.21633095  0.20697761  0.80459839  1
  O  O4  1  0.98679116  0.78670344  0.80493970  1
  O  O5  1  0.79330271  0.01327193  0.80750647  1
  O  O6  1  0.77969573  0.97524489  0.69875702  1
  O  O7  1  0.19406400  0.21774839  0.69530641  1
  O  O8  1  0.02066864  0.80431838  0.69600676  1
  O  O9  1  0.78207311  0.80596931  0.19669553  1
  O  O10  1  0.02999748  0.21434465  0.19703282  1
  O  O11  1  0.18906150  0.97390908  0.19534735  1
  O  O12  1  0.87328265  0.35272846  0.63594029  1
  O  O13  1  0.48685321  0.11548393  0.63648680  1
  O  O14  1  0.61860774  0.50038666  0.63876955  1
  O  O15  1  0.86398917  0.51842979  0.13497116  1
  O  O16  1  0.64591094  0.12567389  0.13514988  1
  O  O17  1  0.47859321  0.35074106  0.13837772  1
  O  O18  1  0.45269635  0.31073980  0.02840260  1
  O  O19  1  0.85821551  0.55577522  0.02678503  1
  O  O20  1  0.69646921  0.13234390  0.02711925  1
  O  O21  1  0.45603545  0.14682017  0.52872653  1
  O  O22  1  0.71690628  0.55131144  0.52489094  1
  O  O23  1  0.84827218  0.29075397  0.52801396  1
  O  O24  1  0.54951572  0.69814777  0.97056151  1
  O  O25  1  0.17380512  0.44419497  0.97359401  1
  O  O26  1  0.29770549  0.84318041  0.97529847  1
  O  O27  1  0.55401516  0.87251440  0.47102587  1
  O  O28  1  0.31290422  0.44555074  0.47056378  1
  O  O29  1  0.13525765  0.68176302  0.47407462  1
  O  O30  1  0.12322853  0.64263304  0.36526897  1
  O  O31  1  0.52635164  0.89063950  0.36279377  1
  O  O32  1  0.35642441  0.47015707  0.36194651  1
  O  O33  1  0.11433346  0.49732650  0.85910528  1
  O  O34  1  0.39944651  0.89441830  0.86024740  1
  O  O35  1  0.51137306  0.62241494  0.86317179  1
  O  O36  1  0.01445234  0.81813014  0.41303052  1
  O  O37  1  0.80938280  0.99273372  0.41158692  1
  O  O38  1  0.17530374  0.18769145  0.41005569  1
  O  O39  1  0.99619186  0.17141410  0.90924577  1
  O  O40  1  0.16068398  0.97835415  0.90891005  1
  O  O41  1  0.79959933  0.81400040  0.90880506  1
  O  O42  1  0.99435490  0.18471972  0.58853671  1
  O  O43  1  0.20586643  0.03503080  0.58855176  1
  O  O44  1  0.84652816  0.81966229  0.58758012  1
  O  O45  1  0.97547533  0.80522098  0.08926390  1
  O  O46  1  0.82872992  0.01997930  0.09046212  1
  O  O47  1  0.19769737  0.17618992  0.08735193  1
  O  O48  1  0.67429713  0.15078795  0.74649736  1
  O  O49  1  0.47318016  0.31756062  0.74751640  1
  O  O50  1  0.84863214  0.52407192  0.74657019  1
  O  O51  1  0.67856453  0.52307010  0.24534735  1
  O  O52  1  0.84532206  0.31607241  0.24448130  1
  O  O53  1  0.46969531  0.16201529  0.24511597  1
  O  O54  1  0.64065706  0.50385028  0.92392549  1
  O  O55  1  0.85094305  0.36758865  0.92533774  1
  O  O56  1  0.50343033  0.16371766  0.92405319  1
  O  O57  1  0.64801195  0.14954873  0.42130546  1
  O  O58  1  0.49307939  0.34632589  0.41926341  1
  O  O59  1  0.86055833  0.49815602  0.41854699  1
  O  O60  1  0.36253231  0.49585552  0.08134829  1
  O  O61  1  0.13078201  0.64283360  0.08256077  1
  O  O62  1  0.51150963  0.85800359  0.07968938  1
  O  O63  1  0.33935598  0.85836014  0.57563623  1
  O  O64  1  0.48652460  0.64074368  0.57677321  1
  O  O65  1  0.12743905  0.49581479  0.57679006  1
  O  O66  1  0.31478734  0.84378200  0.25534592  1
  O  O67  1  0.52260886  0.67916294  0.25520598  1
  O  O68  1  0.16333517  0.47067168  0.25640643  1
  O  O69  1  0.31861016  0.48255139  0.75313200  1
  O  O70  1  0.16699919  0.69132032  0.75111783  1
  O  O71  1  0.51962548  0.82919086  0.75305866  1
loop_
_geom_bond_atom_site_label_1
_geom_bond_atom_site_label_2
_geom_bond_distance
_geom_bond_site_symmetry_2
Na0 O68 2.401603 1_555
Na0 O53 2.410401 1_555
Na0 O67 2.422578 1_555
Na0 O51 2.423968 1_555
Na0 O32 2.700557 1_555
Na0 O17 2.743606 1_555
Na0 O10 2.816047 1_555
Na0 O0 2.848889 1_555
Na1 O64 2.325264 1_555
Na1 O43 2.395288 1_555
Na1 O42 2.435693 1_455
Na1 O14 2.605503 1_555
Na1 O65 2.616923 1_555
Na1 O7 2.652609 1_555
Na1 O28 2.816823 1_555
Na1 O21 2.944146 1_555
Na2 O44 2.311130 1_455
Na2 O65 2.402730 1_555
Na2 O63 2.427313 1_555
Na2 O43 2.584928 1_565
Na2 O29 2.659673 1_555
Na2 O22 2.672275 1_455
Na2 O8 2.736299 1_555
Na2 O12 2.949069 1_455
Na3 O40 2.331700 1_655
Na3 O55 2.393338 1_555
Na3 O41 2.514863 1_555
Na3 O54 2.670603 1_555
Na3 O33 2.698077 1_655
Na3 O4 2.706583 1_555
Na3 O26 2.713246 1_655
Na3 O19 2.737887 1_556
Na4 O39 2.274967 1_555
Na4 O41 2.498735 1_545
Na4 O5 2.511577 1_555
Na4 O56 2.560625 1_555
Na4 O34 2.568491 1_545
Na4 O55 2.596923 1_555
Na4 O20 2.763575 1_556
Na4 O24 2.915737 1_545
Na5 O40 2.379665 1_545
Na5 O39 2.446477 1_455
Na5 O56 2.459372 1_555
Na5 O25 2.569448 1_555
Na5 O54 2.580316 1_555
Na5 O3 2.683566 1_555
Na5 O18 2.721451 1_556
Na5 O35 2.898838 1_555
Na6 O44 2.417279 1_555
Na6 O37 2.463138 1_555
Na6 O36 2.548126 1_655
Na6 O42 2.635687 1_565
Na6 O38 2.708467 1_665
Na6 O43 2.748626 1_665
Na7 O47 2.443400 1_555
Na7 O40 2.573534 1_544
Na7 O39 2.578239 1_454
Na7 O46 2.614055 1_455
Na7 O45 2.614290 1_445
Na7 O41 2.775053 1_444
Na8 O48 2.374496 1_555
Na8 O49 2.450667 1_555
Na8 O50 2.490604 1_555
Na8 O56 2.649516 1_555
Na8 O55 2.661104 1_555
Na8 O54 2.791306 1_555
Na9 O52 2.455607 1_555
Na9 O59 2.520024 1_555
Na9 O53 2.533907 1_555
Na9 O51 2.554598 1_555
Na9 O57 2.574667 1_555
Na9 O58 2.679615 1_555
Na10 O61 2.477898 1_555
Na10 O62 2.512596 1_555
Na10 O66 2.548680 1_555
Na10 O60 2.580340 1_555
Na10 O67 2.632162 1_555
Na10 O68 2.690698 1_555
Na11 O64 2.342864 1_555
Na11 O71 2.433043 1_555
Na11 O69 2.593099 1_555
Na11 O63 2.611592 1_555
Na11 O70 2.685029 1_555
Na11 O65 2.689615 1_555
O0 S0 1.487727 1_545
O0 Zn0 2.064485 1_445
O1 S1 1.475798 1_555
O1 Zn0 2.021999 1_555
O2 S2 1.477811 1_655
O2 Zn0 2.070420 1_545
O3 S3 1.477275 1_555
O3 Zn1 2.036804 1_555
O4 S4 1.476042 1_655
O4 Zn1 2.146740 1_665
O5 S5 1.479124 1_545
O5 Zn1 2.159360 1_655
O6 S5 1.471672 1_555
O6 Zn2 1.980464 1_555
O7 S3 1.482796 1_555
O7 Zn2 2.247351 1_445
O8 S4 1.480322 1_555
O8 Zn2 2.101314 1_455
O9 S1 1.474791 1_555
O9 Zn3 2.057496 1_555
O10 S2 1.490236 1_555
O10 Zn3 2.060982 1_445
O11 S0 1.481752 1_555
O11 Zn3 2.053460 1_455
O12 S6 1.464634 1_555
O12 Zn4 2.118965 1_555
O13 S7 1.460606 1_555
O13 Zn4 2.103006 1_555
O14 Si0 1.609429 1_555
O14 Zn4 1.888341 1_555
O15 S8 1.458841 1_555
O15 Zn5 2.015770 1_555
O16 S9 1.464761 1_555
O16 Zn5 2.031453 1_555
O17 S10 1.476550 1_555
O17 Zn5 2.097545 1_555
O18 S10 1.559829 1_555
O18 Sn0 2.082912 1_554
O19 S8 1.556045 1_555
O19 Sn0 2.076359 1_554
O20 S9 1.558883 1_555
O20 Sn0 2.072192 1_554
O21 S7 1.526352 1_555
O21 Sn1 2.113522 1_555
O22 Si0 1.693945 1_555
O22 Sn1 1.947671 1_555
O23 S6 1.521347 1_555
O23 Sn1 2.105804 1_555
O24 S11 1.461810 1_555
O24 Zn6 2.223925 1_556
O25 Si1 1.598765 1_555
O25 Zn6 1.917334 1_556
O26 Si2 1.589618 1_555
O26 Zn6 1.907563 1_556
O27 S12 1.471050 1_555
O27 Zn7 1.998108 1_555
O28 S13 1.481694 1_555
O28 Zn7 2.103026 1_555
O29 S14 1.485827 1_555
O29 Zn7 2.202141 1_555
O30 S14 1.470110 1_555
O30 Zn8 2.033347 1_555
O31 S12 1.468958 1_555
O31 Zn8 2.056615 1_555
O32 S13 1.479244 1_555
O32 Zn8 2.208885 1_555
O33 Si1 1.671593 1_555
O33 Sn2 1.987672 1_555
O34 Si2 1.673520 1_555
O34 Sn2 1.994188 1_555
O35 S11 1.512691 1_555
O35 Sn2 2.165791 1_555
O36 S14 1.478861 1_555
O36 Zn0 2.242805 1_455
O37 S12 1.475522 1_555
O37 Zn0 2.207689 1_555
O38 S13 1.477067 1_555
O38 Zn0 2.147352 1_445
O39 Si1 1.621290 1_655
O39 Zn1 1.998028 1_655
O40 Si2 1.622436 1_555
O40 Zn1 2.006060 1_565
O41 S11 1.468790 1_555
O41 Zn1 2.293018 1_665
O42 S6 1.481556 1_555
O42 Zn2 2.230177 1_545
O43 S7 1.491521 1_555
O43 Zn2 2.382962 1_445
O44 Si0 1.633551 1_555
O44 Zn2 1.932266 1_555
O45 S8 1.476081 1_555
O45 Zn3 2.138984 1_555
O46 S9 1.478534 1_555
O46 Zn3 2.126716 1_545
O47 S10 1.477096 1_555
O47 Zn3 2.277079 1_445
O48 S5 1.475499 1_545
O48 Zn4 2.305705 1_555
O49 S3 1.477256 1_555
O49 Zn4 2.164292 1_555
O50 S4 1.478190 1_655
O50 Zn4 2.152985 1_555
O51 S1 1.508613 1_555
O51 Zn5 2.165003 1_555
O52 S2 1.486638 1_655
O52 Zn5 2.085776 1_555
O53 S0 1.508954 1_545
O53 Zn5 2.188619 1_555
O54 S11 1.508311 1_555
O54 Sn0 2.234403 1_555
O55 Si1 1.674506 1_655
O55 Sn0 2.028905 1_555
O56 Si2 1.670407 1_545
O56 Sn0 2.010909 1_555
O57 S12 1.543669 1_545
O57 Sn1 2.099345 1_555
O58 S13 1.538985 1_555
O58 Sn1 2.133779 1_555
O59 S14 1.542839 1_655
O59 Sn1 2.133492 1_555
O60 S10 1.466878 1_555
O60 Zn6 2.302966 1_555
O61 S8 1.470321 1_455
O61 Zn6 2.160289 1_555
O62 S9 1.466713 1_565
O62 Zn6 2.266786 1_555
O63 S7 1.480377 1_565
O63 Zn7 2.200702 1_555
O64 Si0 1.630357 1_555
O64 Zn7 1.928956 1_555
O65 S6 1.490377 1_455
O65 Zn7 2.362781 1_555
O66 S0 1.485029 1_555
O66 Zn8 2.104211 1_555
O67 S1 1.507114 1_555
O67 Zn8 2.205909 1_555
O68 S2 1.507081 1_555
O68 Zn8 2.173466 1_555
O69 S3 1.534646 1_555
O69 Sn2 2.171717 1_555
O70 S4 1.533403 1_555
O70 Sn2 2.109031 1_555
O71 S5 1.536516 1_555
O71 Sn2 2.156434 1_555
