# generated using pymatgen
data_MgNb3SiO10
_symmetry_space_group_name_H-M   'P 1'
_cell_length_a   4.89956539
_cell_length_b   5.51854153
_cell_length_c   6.94916243
_cell_angle_alpha   102.16049911
_cell_angle_beta   112.19350358
_cell_angle_gamma   88.78273312
_symmetry_Int_Tables_number   1
_chemical_formula_structural   MgNb3SiO10
_chemical_formula_sum   'Mg1 Nb3 Si1 O10'
_cell_volume   169.71692956
_cell_formula_units_Z   1
loop_
 _symmetry_equiv_pos_site_id
 _symmetry_equiv_pos_as_xyz
  1  'x, y, z'
loop_
 _atom_site_type_symbol
 _atom_site_label
 _atom_site_symmetry_multiplicity
 _atom_site_fract_x
 _atom_site_fract_y
 _atom_site_fract_z
 _atom_site_occupancy
  Mg  Mg0  1  0.77924000  0.16104600  0.07728200  1
  Nb  Nb0  1  0.60480600  0.71136900  0.69959400  1
  Nb  Nb1  1  0.10587500  0.23590600  0.73398500  1
  Nb  Nb2  1  0.88237300  0.76700600  0.29102500  1
  Si  Si0  1  0.40124200  0.27830500  0.30795600  1
  O  O0  1  0.27409200  0.59170300  0.38922200  1
  O  O1  1  0.64765000  0.46934100  0.22124000  1
  O  O2  1  0.46117500  0.04353900  0.78014800  1
  O  O3  1  0.88252100  0.86976800  0.59332300  1
  O  O4  1  0.31923700  0.52720900  0.77174900  1
  O  O5  1  0.69998500  0.35579900  0.56961500  1
  O  O6  1  0.12468100  0.25894800  0.02195800  1
  O  O7  1  0.86419500  0.75903600  0.00153600  1
  O  O8  1  0.56000800  0.01462000  0.22509300  1
  O  O9  1  0.14292100  0.13140500  0.37183200  1
loop_
_geom_bond_atom_site_label_1
_geom_bond_atom_site_label_2
_geom_bond_distance
_geom_bond_site_symmetry_2
Mg0 O6 1.980465 1_655
Mg0 O1 2.008636 1_555
Mg0 O8 2.020368 1_555
Mg0 O2 2.039721 1_554
Mg0 O9 2.182843 1_655
Mg0 O7 2.237502 1_545
Nb0 O7 1.963183 1_556
Nb0 O2 1.994821 1_565
Nb0 O4 2.011728 1_555
Nb0 O3 2.059753 1_555
Nb0 O5 2.101498 1_555
Nb0 O0 2.125724 1_555
Nb1 O4 1.852667 1_555
Nb1 O6 1.945080 1_556
Nb1 O2 1.975697 1_555
Nb1 O5 2.060031 1_455
Nb1 O3 2.165500 1_445
Nb1 O9 2.535408 1_555
Nb2 O1 1.891949 1_555
Nb2 O7 1.970878 1_555
Nb2 O8 2.048702 1_565
Nb2 O3 2.057081 1_555
Nb2 O0 2.072413 1_655
Nb2 O9 2.254031 1_665
O0 Si0 1.872623 1_555
O1 Si0 1.950244 1_555
O5 Si0 1.822061 1_555
O6 Si0 1.918240 1_555
O8 Si0 1.729581 1_555
O9 Si0 1.753781 1_555
