# generated using pymatgen
data_MgCr2O6
_symmetry_space_group_name_H-M   'P 1'
_cell_length_a   5.38733926
_cell_length_b   6.04559745
_cell_length_c   5.48155400
_cell_angle_alpha   90.00000000
_cell_angle_beta   90.00000000
_cell_angle_gamma   120.97802490
_symmetry_Int_Tables_number   1
_chemical_formula_structural   MgCr2O6
_chemical_formula_sum   'Mg1 Cr2 O6'
_cell_volume   153.06746321
_cell_formula_units_Z   1
loop_
 _symmetry_equiv_pos_site_id
 _symmetry_equiv_pos_as_xyz
  1  'x, y, z'
loop_
 _atom_site_type_symbol
 _atom_site_label
 _atom_site_symmetry_multiplicity
 _atom_site_fract_x
 _atom_site_fract_y
 _atom_site_fract_z
 _atom_site_occupancy
  Mg  Mg0  1  0.18168500  0.86214400  0.75000000  1
  Cr  Cr0  1  0.55976900  0.82193000  0.25000000  1
  Cr  Cr1  1  0.79956600  0.18782000  0.75000000  1
  O  O0  1  0.87319500  0.84302200  0.25000000  1
  O  O1  1  0.05381600  0.11232000  0.75000000  1
  O  O2  1  0.52705000  0.00092400  0.98118100  1
  O  O3  1  0.52705000  0.00092400  0.51881900  1
  O  O4  1  0.89222700  0.49648000  0.75000000  1
  O  O5  1  0.27314000  0.53693500  0.25000000  1
loop_
_geom_bond_atom_site_label_1
_geom_bond_atom_site_label_2
_geom_bond_distance
_geom_bond_site_symmetry_2
Mg0 O4 1.941656 1_455
Mg0 O1 1.958224 1_565
Mg0 O2 2.040749 1_565
Mg0 O3 2.040749 1_565
Cr0 O5 1.616863 1_555
Cr0 O0 1.626578 1_555
Cr0 O2 1.889381 1_564
Cr0 O3 1.889381 1_565
Cr1 O1 1.651696 1_655
Cr1 O4 1.665040 1_555
Cr1 O3 1.824917 1_555
Cr1 O2 1.824917 1_555
