# generated using pymatgen
data_MgH6(SO4)4
_symmetry_space_group_name_H-M   'P 1'
_cell_length_a   15.38558900
_cell_length_b   5.21175900
_cell_length_c   8.29597772
_cell_angle_alpha   76.46719418
_cell_angle_beta   90.00000000
_cell_angle_gamma   90.00000000
_symmetry_Int_Tables_number   1
_chemical_formula_structural   MgH6(SO4)4
_chemical_formula_sum   'Mg2 H12 S8 O32'
_cell_volume   646.75198506
_cell_formula_units_Z   2
loop_
 _symmetry_equiv_pos_site_id
 _symmetry_equiv_pos_as_xyz
  1  'x, y, z'
loop_
 _atom_site_type_symbol
 _atom_site_label
 _atom_site_symmetry_multiplicity
 _atom_site_fract_x
 _atom_site_fract_y
 _atom_site_fract_z
 _atom_site_occupancy
  Mg  Mg0  1  0.00000000  0.00000000  0.00000000  1
  Mg  Mg1  1  0.50000000  0.00000000  0.50000000  1
  H  H0  1  0.02380300  0.28803400  0.38533100  1
  H  H1  1  0.52380300  0.71196600  0.11466900  1
  H  H2  1  0.97619700  0.71196600  0.61466900  1
  H  H3  1  0.47619700  0.28803400  0.88533100  1
  H  H4  1  0.26532700  0.80677800  0.30207600  1
  H  H5  1  0.76532700  0.19322200  0.19792400  1
  H  H6  1  0.73467300  0.19322200  0.69792400  1
  H  H7  1  0.23467300  0.80677800  0.80207600  1
  H  H8  1  0.76414800  0.58407100  0.33495600  1
  H  H9  1  0.26414800  0.41592900  0.16504400  1
  H  H10  1  0.23585200  0.41592900  0.66504400  1
  H  H11  1  0.73585200  0.58407100  0.83495600  1
  S  S0  1  0.66575500  0.88304300  0.25019800  1
  S  S1  1  0.16575500  0.11695700  0.24980200  1
  S  S2  1  0.58470300  0.42435900  0.72570600  1
  S  S3  1  0.08470300  0.57564100  0.77429400  1
  S  S4  1  0.41529700  0.57564100  0.27429400  1
  S  S5  1  0.91529700  0.42435900  0.22570600  1
  S  S6  1  0.83424500  0.88304300  0.75019800  1
  S  S7  1  0.33424500  0.11695700  0.74980200  1
  O  O0  1  0.17913200  0.60780100  0.73642100  1
  O  O1  1  0.82086800  0.39219900  0.26357900  1
  O  O2  1  0.54192000  0.29767700  0.89655900  1
  O  O3  1  0.04192000  0.70232300  0.60344100  1
  O  O4  1  0.45808000  0.70232300  0.10344100  1
  O  O5  1  0.95808000  0.29767700  0.39655900  1
  O  O6  1  0.06032300  0.29756300  0.82172100  1
  O  O7  1  0.56032300  0.70243700  0.67827900  1
  O  O8  1  0.93967700  0.70243700  0.17827900  1
  O  O9  1  0.32086800  0.60780100  0.23642100  1
  O  O10  1  0.05900700  0.72368300  0.89542800  1
  O  O11  1  0.55900700  0.27631700  0.60457200  1
  O  O12  1  0.94099300  0.27631700  0.10457200  1
  O  O13  1  0.44099300  0.72368300  0.39542800  1
  O  O14  1  0.89107000  0.02192500  0.84014500  1
  O  O15  1  0.39107000  0.97807500  0.65985500  1
  O  O16  1  0.10893000  0.97807500  0.15985500  1
  O  O17  1  0.60893000  0.02192500  0.34014500  1
  O  O18  1  0.37428000  0.26580000  0.85694800  1
  O  O19  1  0.87428000  0.73420000  0.64305200  1
  O  O20  1  0.62572000  0.73420000  0.14305200  1
  O  O21  1  0.12572000  0.26580000  0.35694800  1
  O  O22  1  0.27135500  0.92292100  0.86136400  1
  O  O23  1  0.77135500  0.07707900  0.63863600  1
  O  O24  1  0.72864500  0.07707900  0.13863600  1
  O  O25  1  0.22864500  0.92292100  0.36136400  1
  O  O26  1  0.77752300  0.70096900  0.88392700  1
  O  O27  1  0.27752300  0.29903100  0.61607300  1
  O  O28  1  0.22247700  0.29903100  0.11607300  1
  O  O29  1  0.72247700  0.70096900  0.38392700  1
  O  O30  1  0.43967700  0.29756300  0.32172100  1
  O  O31  1  0.67913200  0.39219900  0.76357900  1
loop_
_geom_bond_atom_site_label_1
_geom_bond_atom_site_label_2
_geom_bond_distance
_geom_bond_site_symmetry_2
Mg0 O10 2.058003 1_544
Mg0 O12 2.058003 1_455
Mg0 O6 2.092948 1_554
Mg0 O8 2.092948 1_445
Mg0 O16 2.123590 1_545
Mg0 O14 2.123590 1_454
Mg1 O11 2.058003 1_555
Mg1 O13 2.058003 1_545
Mg1 O30 2.092948 1_555
Mg1 O7 2.092948 1_545
Mg1 O15 2.123590 1_545
Mg1 O17 2.123590 1_555
H0 O5 1.017788 1_455
H0 O21 1.593873 1_555
H1 O4 1.017788 1_555
H1 O20 1.593873 1_555
H2 O3 1.017788 1_655
H2 O19 1.593873 1_555
H3 O2 1.017788 1_555
H3 O18 1.593873 1_555
H4 O25 1.032556 1_555
H4 O9 1.538391 1_555
H5 O24 1.032556 1_555
H5 O1 1.538391 1_555
H6 O23 1.032556 1_555
H6 O31 1.538391 1_555
H7 O22 1.032556 1_555
H7 O0 1.538391 1_555
H8 O29 1.031075 1_555
H8 O1 1.545733 1_555
H9 O28 1.031075 1_555
H9 O9 1.545733 1_555
H10 O27 1.031075 1_555
H10 O0 1.545733 1_555
H11 O26 1.031075 1_555
H11 O31 1.545733 1_555
O0 S3 1.487591 1_555
O1 S5 1.487591 1_555
O2 S2 1.562124 1_555
O3 S3 1.562124 1_555
O4 S4 1.562124 1_555
O5 S5 1.562124 1_555
O6 S3 1.459123 1_555
O7 S2 1.459123 1_555
O8 S5 1.459123 1_555
O9 S4 1.487591 1_555
O10 S3 1.457515 1_555
O11 S2 1.457515 1_555
O12 S5 1.457515 1_555
O13 S4 1.457515 1_555
O14 S6 1.448405 1_545
O15 S7 1.448405 1_565
O16 S1 1.448405 1_565
O17 S0 1.448405 1_545
O18 S7 1.447061 1_555
O19 S6 1.447061 1_555
O20 S0 1.447061 1_555
O21 S1 1.447061 1_555
O22 S7 1.541904 1_565
O23 S6 1.541904 1_545
O24 S0 1.541904 1_545
O25 S1 1.541904 1_565
O26 S6 1.549249 1_555
O27 S7 1.549249 1_555
O28 S1 1.549249 1_555
O29 S0 1.549249 1_555
O30 S4 1.459123 1_555
O31 S2 1.487591 1_555
