# generated using pymatgen
data_SrPbO3
_symmetry_space_group_name_H-M   'P 1'
_cell_length_a   5.88572476
_cell_length_b   6.02726206
_cell_length_c   8.36942630
_cell_angle_alpha   90.00000000
_cell_angle_beta   90.00000000
_cell_angle_gamma   90.00000000
_symmetry_Int_Tables_number   1
_chemical_formula_structural   SrPbO3
_chemical_formula_sum   'Sr4 Pb4 O12'
_cell_volume   296.90377049
_cell_formula_units_Z   4
loop_
 _symmetry_equiv_pos_site_id
 _symmetry_equiv_pos_as_xyz
  1  'x, y, z'
loop_
 _atom_site_type_symbol
 _atom_site_label
 _atom_site_symmetry_multiplicity
 _atom_site_fract_x
 _atom_site_fract_y
 _atom_site_fract_z
 _atom_site_occupancy
  Sr  Sr0  1  0.48709749  0.04949718  0.75000000  1
  Sr  Sr1  1  0.98709749  0.45050282  0.25000000  1
  Sr  Sr2  1  0.51290251  0.95050282  0.25000000  1
  Sr  Sr3  1  0.01290251  0.54949718  0.75000000  1
  Pb  Pb0  1  -0.00000000  0.00000000  0.50000000  1
  Pb  Pb1  1  0.50000000  0.50000000  -0.00000000  1
  Pb  Pb2  1  0.50000000  0.50000000  0.50000000  1
  Pb  Pb3  1  -0.00000000  0.00000000  -0.00000000  1
  O  O0  1  0.59717708  0.46392500  0.75000000  1
  O  O1  1  0.29846560  0.79567828  0.94866885  1
  O  O2  1  0.09717708  0.03607500  0.25000000  1
  O  O3  1  0.20153440  0.29567828  0.94866885  1
  O  O4  1  0.29846560  0.79567828  0.55133115  1
  O  O5  1  0.90282292  0.96392500  0.75000000  1
  O  O6  1  0.79846560  0.70432172  0.05133115  1
  O  O7  1  0.70153440  0.20432172  0.05133115  1
  O  O8  1  0.40282292  0.53607500  0.25000000  1
  O  O9  1  0.79846560  0.70432172  0.44866885  1
  O  O10  1  0.70153440  0.20432172  0.44866885  1
  O  O11  1  0.20153440  0.29567828  0.55133115  1
loop_
_geom_bond_atom_site_label_1
_geom_bond_atom_site_label_2
_geom_bond_distance
_geom_bond_site_symmetry_2
O0 Pb2 2.179993 1_555
O0 Pb1 2.179993 1_556
O0 Sr3 2.500613 1_655
O0 Sr0 2.580524 1_555
O1 Pb1 2.183476 1_556
O1 Pb3 2.187946 1_566
O1 Sr0 2.517485 1_565
O1 Sr3 2.791287 1_555
O1 Sr2 2.970533 1_556
O2 Pb3 2.179993 1_555
O2 Pb0 2.179993 1_555
O2 Sr2 2.500613 1_545
O2 Sr1 2.580524 1_455
O3 Pb3 2.183476 1_556
O3 Pb1 2.187946 1_556
O3 Sr3 2.517485 1_555
O3 Sr0 2.791287 1_555
O3 Sr1 2.970533 1_456
O4 Pb2 2.183476 1_555
O4 Pb0 2.187946 1_565
O4 Sr0 2.517485 1_565
O4 Sr3 2.791287 1_555
O4 Sr2 2.970533 1_555
O5 Pb0 2.179993 1_665
O5 Pb3 2.179993 1_666
O5 Sr0 2.500613 1_565
O5 Sr3 2.580524 1_655
O6 Pb3 2.183476 1_665
O6 Pb1 2.187946 1_555
O6 Sr1 2.517485 1_555
O6 Sr2 2.791287 1_555
O6 Sr3 2.970533 1_654
O7 Pb1 2.183476 1_555
O7 Pb3 2.187946 1_655
O7 Sr2 2.517485 1_545
O7 Sr1 2.791287 1_555
O7 Sr0 2.970533 1_554
O8 Pb2 2.179993 1_555
O8 Pb1 2.179993 1_555
O8 Sr1 2.500613 1_455
O8 Sr2 2.580524 1_555
O9 Pb0 2.183476 1_665
O9 Pb2 2.187946 1_555
O9 Sr1 2.517485 1_555
O9 Sr2 2.791287 1_555
O9 Sr3 2.970533 1_655
O10 Pb2 2.183476 1_555
O10 Pb0 2.187946 1_655
O10 Sr2 2.517485 1_545
O10 Sr1 2.791287 1_555
O10 Sr0 2.970533 1_555
O11 Pb0 2.183476 1_555
O11 Pb2 2.187946 1_555
O11 Sr3 2.517485 1_555
O11 Sr0 2.791287 1_555
O11 Sr1 2.970533 1_455
