# generated using pymatgen
data_Fe7P6(HO6)4
_symmetry_space_group_name_H-M   'P 1'
_cell_length_a   6.67537400
_cell_length_b   8.10758902
_cell_length_c   9.58312758
_cell_angle_alpha   103.41336389
_cell_angle_beta   108.96053982
_cell_angle_gamma   101.62690951
_symmetry_Int_Tables_number   1
_chemical_formula_structural   Fe7P6(HO6)4
_chemical_formula_sum   'Fe7 P6 H4 O24'
_cell_volume   455.00093997
_cell_formula_units_Z   1
loop_
 _symmetry_equiv_pos_site_id
 _symmetry_equiv_pos_as_xyz
  1  'x, y, z'
loop_
 _atom_site_type_symbol
 _atom_site_label
 _atom_site_symmetry_multiplicity
 _atom_site_fract_x
 _atom_site_fract_y
 _atom_site_fract_z
 _atom_site_occupancy
  Fe  Fe0  1  0.05577800  0.70967500  0.51637000  1
  Fe  Fe1  1  0.94422200  0.29032500  0.48363000  1
  Fe  Fe2  1  0.26859200  0.80391600  0.28048900  1
  Fe  Fe3  1  0.73140800  0.19608400  0.71951100  1
  Fe  Fe4  1  0.61353900  0.54602200  0.88677900  1
  Fe  Fe5  1  0.38646100  0.45397800  0.11322100  1
  Fe  Fe6  1  0.00000000  0.00000000  0.00000000  1
  P  P0  1  0.59320400  0.77919900  0.63318300  1
  P  P1  1  0.40679600  0.22080100  0.36681700  1
  P  P2  1  0.91219900  0.41516400  0.17098000  1
  P  P3  1  0.08780100  0.58483600  0.82902000  1
  P  P4  1  0.77788100  0.85434500  0.22645300  1
  P  P5  1  0.22211900  0.14565500  0.77354700  1
  H  H0  1  0.66082400  0.73420300  0.42071500  1
  H  H1  1  0.17760400  0.87935400  0.80541100  1
  H  H2  1  0.82239600  0.12064600  0.19458900  1
  H  H3  1  0.33917600  0.26579700  0.57928500  1
  O  O0  1  0.74052000  0.73875900  0.53170000  1
  O  O1  1  0.25948000  0.26124100  0.46830000  1
  O  O2  1  0.55007100  0.63265400  0.70104600  1
  O  O3  1  0.44992900  0.36734600  0.29895400  1
  O  O4  1  0.38229300  0.79203500  0.51145900  1
  O  O5  1  0.61770700  0.20796500  0.48854100  1
  O  O6  1  0.88028900  0.46287300  0.83487900  1
  O  O7  1  0.11971100  0.53712700  0.16512100  1
  O  O8  1  0.89790200  0.21568500  0.10407800  1
  O  O9  1  0.01442100  0.16983500  0.65949000  1
  O  O10  1  0.98557900  0.83016500  0.34051000  1
  O  O11  1  0.22511700  0.18800800  0.93975300  1
  O  O12  1  0.77488300  0.81199200  0.06024700  1
  O  O13  1  0.56904000  0.75271400  0.24567300  1
  O  O14  1  0.43096000  0.24728600  0.75432700  1
  O  O15  1  0.78963900  0.05925600  0.27499800  1
  O  O16  1  0.21036100  0.94074400  0.72500200  1
  O  O17  1  0.27380700  0.03872800  0.23551200  1
  O  O18  1  0.72619300  0.96127200  0.76448800  1
  O  O19  1  0.30257100  0.54906800  0.92243400  1
  O  O20  1  0.69742900  0.45093200  0.07756600  1
  O  O21  1  0.06353500  0.54553500  0.65642100  1
  O  O22  1  0.93646500  0.45446500  0.34357900  1
  O  O23  1  0.10209800  0.78431500  0.89592200  1
loop_
_geom_bond_atom_site_label_1
_geom_bond_atom_site_label_2
_geom_bond_distance
_geom_bond_site_symmetry_2
Fe0 O21 2.094331 1_555
Fe0 O10 2.109319 1_455
Fe0 O22 2.132304 1_455
Fe0 O4 2.166423 1_555
Fe0 O16 2.171222 1_555
Fe0 O0 2.211518 1_455
Fe1 O22 2.094331 1_555
Fe1 O9 2.109319 1_655
Fe1 O21 2.132304 1_655
Fe1 O5 2.166423 1_555
Fe1 O15 2.171222 1_555
Fe1 O1 2.211518 1_655
Fe2 O17 2.043288 1_565
Fe2 O7 2.049067 1_555
Fe2 O4 2.126322 1_555
Fe2 O10 2.180984 1_455
Fe2 O13 2.238809 1_555
Fe3 O18 2.043288 1_545
Fe3 O6 2.049067 1_555
Fe3 O5 2.126322 1_555
Fe3 O9 2.180984 1_655
Fe3 O14 2.238809 1_555
Fe4 O2 2.012662 1_555
Fe4 O20 2.100814 1_556
Fe4 O6 2.185493 1_555
Fe4 O12 2.193328 1_556
Fe4 O19 2.214517 1_555
Fe4 O14 2.311131 1_555
Fe5 O3 2.012662 1_555
Fe5 O19 2.100814 1_554
Fe5 O7 2.185493 1_555
Fe5 O11 2.193328 1_554
Fe5 O20 2.214517 1_555
Fe5 O13 2.311131 1_555
Fe6 O8 2.151773 1_455
Fe6 O23 2.151773 1_544
Fe6 O12 2.227969 1_445
Fe6 O11 2.227969 1_554
Fe6 O17 2.300505 1_555
Fe6 O18 2.300505 1_444
H0 O0 1.010820 1_555
H0 O13 1.642481 1_555
H1 O16 1.064372 1_555
H1 O23 1.427499 1_555
H2 O15 1.064372 1_555
H2 O8 1.427499 1_555
H3 O1 1.010820 1_555
H3 O14 1.642481 1_555
O0 P0 1.619835 1_555
O1 P1 1.619835 1_555
O2 P0 1.503253 1_555
O3 P1 1.503253 1_555
O4 P0 1.549806 1_555
O5 P1 1.549806 1_555
O6 P3 1.556906 1_655
O7 P2 1.556906 1_455
O8 P2 1.566126 1_555
O9 P5 1.542595 1_555
O10 P4 1.542595 1_555
O11 P5 1.542079 1_555
O12 P4 1.542079 1_555
O13 P4 1.559045 1_555
O14 P5 1.559045 1_555
O15 P4 1.596168 1_545
O16 P5 1.596168 1_565
O17 P1 1.560330 1_555
O18 P0 1.560330 1_555
O19 P3 1.547546 1_555
O20 P2 1.547546 1_555
O21 P3 1.556977 1_555
O22 P2 1.556977 1_555
O23 P3 1.566126 1_555
