# generated using pymatgen
data_LiP(HO2)2
_symmetry_space_group_name_H-M   'P 1'
_cell_length_a   6.39377300
_cell_length_b   6.92610800
_cell_length_c   7.70195200
_cell_angle_alpha   90.00000000
_cell_angle_beta   90.00000000
_cell_angle_gamma   90.00000000
_symmetry_Int_Tables_number   1
_chemical_formula_structural   LiP(HO2)2
_chemical_formula_sum   'Li4 P4 H8 O16'
_cell_volume   341.07295220
_cell_formula_units_Z   4
loop_
 _symmetry_equiv_pos_site_id
 _symmetry_equiv_pos_as_xyz
  1  'x, y, z'
loop_
 _atom_site_type_symbol
 _atom_site_label
 _atom_site_symmetry_multiplicity
 _atom_site_fract_x
 _atom_site_fract_y
 _atom_site_fract_z
 _atom_site_occupancy
  Li  Li0  1  0.01308100  0.50454500  0.72719500  1
  Li  Li1  1  0.51308100  0.50454500  0.77280500  1
  Li  Li2  1  0.48691900  0.00454500  0.22719500  1
  Li  Li3  1  0.98691900  0.00454500  0.27280500  1
  P  P0  1  0.19867000  0.67813800  0.07106500  1
  P  P1  1  0.80133000  0.17813800  0.92893500  1
  P  P2  1  0.30133000  0.17813800  0.57106500  1
  P  P3  1  0.69867000  0.67813800  0.42893500  1
  H  H0  1  0.03767100  0.39102100  0.14002500  1
  H  H1  1  0.96232900  0.89102100  0.85997500  1
  H  H2  1  0.46232900  0.89102100  0.64002500  1
  H  H3  1  0.53767100  0.39102100  0.35997500  1
  H  H4  1  0.98841600  0.06458600  0.61232700  1
  H  H5  1  0.01158400  0.56458600  0.38767300  1
  H  H6  1  0.48841600  0.06458600  0.88767300  1
  H  H7  1  0.51158400  0.56458600  0.11232700  1
  O  O0  1  0.72727200  0.85438600  0.31561500  1
  O  O1  1  0.07685600  0.09905900  0.50823300  1
  O  O2  1  0.93126700  0.20092900  0.09259700  1
  O  O3  1  0.06873300  0.70092900  0.90740300  1
  O  O4  1  0.92314400  0.59905900  0.49176700  1
  O  O5  1  0.56873300  0.70092900  0.59259700  1
  O  O6  1  0.57685600  0.09905900  0.99176700  1
  O  O7  1  0.42314400  0.59905900  0.00823300  1
  O  O8  1  0.60588600  0.51290600  0.30619300  1
  O  O9  1  0.39411400  0.01290600  0.69380700  1
  O  O10  1  0.89411400  0.01290600  0.80619300  1
  O  O11  1  0.10588600  0.51290600  0.19380700  1
  O  O12  1  0.77272800  0.35438600  0.81561500  1
  O  O13  1  0.27272800  0.35438600  0.68438500  1
  O  O14  1  0.43126700  0.20092900  0.40740300  1
  O  O15  1  0.22727200  0.85438600  0.18438500  1
loop_
_geom_bond_atom_site_label_1
_geom_bond_atom_site_label_2
_geom_bond_distance
_geom_bond_site_symmetry_2
Li0 O3 1.975628 1_555
Li0 O12 1.976625 1_455
Li0 O13 1.986546 1_555
Li0 O4 2.011736 1_455
Li1 O5 1.975628 1_555
Li1 O13 1.976625 1_555
Li1 O12 1.986546 1_555
Li1 O7 2.011736 1_556
Li2 O14 1.975628 1_555
Li2 O0 1.976625 1_545
Li2 O15 1.986546 1_545
Li2 O6 2.011736 1_554
Li3 O2 1.975628 1_555
Li3 O15 1.976625 1_645
Li3 O0 1.986546 1_545
Li3 O1 2.011736 1_655
H0 O11 1.036564 1_555
H0 O2 1.526337 1_455
H1 O10 1.036564 1_565
H1 O3 1.526337 1_655
H2 O9 1.036564 1_565
H2 O5 1.526337 1_555
H3 O8 1.036564 1_555
H3 O14 1.526337 1_555
H4 O1 1.009715 1_655
H4 O10 1.649592 1_555
H5 O4 1.009715 1_455
H5 O11 1.649592 1_555
H6 O6 1.009715 1_555
H6 O9 1.649592 1_555
H7 O7 1.009715 1_555
H7 O8 1.649592 1_555
O0 P3 1.511733 1_555
O1 P2 1.610613 1_555
O2 P1 1.517903 1_554
O3 P0 1.517903 1_556
O4 P3 1.610613 1_555
O5 P3 1.517903 1_555
O6 P1 1.610613 1_555
O7 P0 1.610613 1_555
O8 P3 1.598534 1_555
O9 P2 1.598534 1_555
O10 P1 1.598534 1_555
O11 P0 1.598534 1_555
O12 P1 1.511733 1_555
O13 P2 1.511733 1_555
O14 P2 1.517903 1_555
O15 P0 1.511733 1_555
