# generated using pymatgen
data_Na3Ca2La2PS5O24
_symmetry_space_group_name_H-M   'P 1'
_cell_length_a   9.38825924
_cell_length_b   9.40232369
_cell_length_c   24.73588269
_cell_angle_alpha   90.13894653
_cell_angle_beta   89.89703168
_cell_angle_gamma   119.93536870
_symmetry_Int_Tables_number   1
_chemical_formula_structural   Na3Ca2La2PS5O24
_chemical_formula_sum   'Na9 Ca6 La6 P3 S15 O72'
_cell_volume   1892.16678005
_cell_formula_units_Z   3
loop_
 _symmetry_equiv_pos_site_id
 _symmetry_equiv_pos_as_xyz
  1  'x, y, z'
loop_
 _atom_site_type_symbol
 _atom_site_label
 _atom_site_symmetry_multiplicity
 _atom_site_fract_x
 _atom_site_fract_y
 _atom_site_fract_z
 _atom_site_occupancy
  Na  Na0  1  0.36965560  0.99223385  0.75001776  1
  Na  Na1  1  0.65786195  0.96591101  0.58886488  1
  Na  Na2  1  0.67446719  0.69846509  0.08211064  1
  Na  Na3  1  0.03063102  0.00129555  0.50767613  1
  Na  Na4  1  0.01688532  0.00123335  0.00555277  1
  Na  Na5  1  0.68170730  0.33443853  0.83330450  1
  Na  Na6  1  0.66690843  0.33352593  0.33342663  1
  Na  Na7  1  0.30295965  0.66462654  0.16629443  1
  Na  Na8  1  0.33476135  0.66317426  0.66697448  1
  Ca  Ca0  1  0.00292079  0.00015893  0.65118028  1
  Ca  Ca1  1  0.00880429  0.00254030  0.15167871  1
  Ca  Ca2  1  0.31792287  0.66832169  0.01670668  1
  Ca  Ca3  1  0.32610614  0.66641757  0.51571904  1
  Ca  Ca4  1  0.33331914  0.66732967  0.31612450  1
  Ca  Ca5  1  0.34108870  0.66469639  0.81686975  1
  La  La0  1  0.00005464  0.99916759  0.35124276  1
  La  La1  1  0.98276764  0.99958115  0.85035639  1
  La  La2  1  0.67041290  0.33428949  0.68145672  1
  La  La3  1  0.67555143  0.33546003  0.18304400  1
  La  La4  1  0.67370994  0.33503528  0.98344657  1
  La  La5  1  0.65602799  0.32946533  0.48314079  1
  P  P0  1  0.68954579  0.99488043  0.74580684  1
  P  P1  1  0.36241056  0.02497446  0.58514479  1
  P  P2  1  0.96759472  0.64148834  0.08380216  1
  S  S0  1  0.30020415  0.99540695  0.24968465  1
  S  S1  1  0.69555690  0.70247197  0.24782067  1
  S  S2  1  0.00716563  0.30264423  0.24978000  1
  S  S3  1  0.29606247  0.29802880  0.74966515  1
  S  S4  1  0.00815621  0.70565240  0.75052718  1
  S  S5  1  0.97148500  0.32972731  0.58207658  1
  S  S6  1  0.66711460  0.64474204  0.58281581  1
  S  S7  1  0.66716874  0.02201431  0.08326660  1
  S  S8  1  0.36503831  0.33748148  0.08287127  1
  S  S9  1  0.62557094  0.66446015  0.91967238  1
  S  S10  1  0.04101749  0.37468232  0.91588901  1
  S  S11  1  0.33318105  0.96370684  0.91398736  1
  S  S12  1  0.62673575  0.95971249  0.41781222  1
  S  S13  1  0.33261770  0.37499476  0.41598960  1
  S  S14  1  0.03699756  0.66420748  0.41614531  1
  O  O0  1  0.21802390  0.01196544  0.29913543  1
  O  O1  1  0.79927586  0.78925889  0.29586973  1
  O  O2  1  0.99293008  0.20551640  0.29912345  1
  O  O3  1  0.21546731  0.19605332  0.79853148  1
  O  O4  1  0.99006349  0.78530418  0.80008541  1
  O  O5  1  0.79636002  0.00961345  0.79598595  1
  O  O6  1  0.77158614  0.98646489  0.69300920  1
  O  O7  1  0.20093721  0.21648627  0.70079343  1
  O  O8  1  0.02314294  0.80445965  0.70235132  1
  O  O9  1  0.77597135  0.79279927  0.19764101  1
  O  O10  1  0.01506065  0.21699407  0.20097074  1
  O  O11  1  0.20464660  0.98461612  0.20108706  1
  O  O12  1  0.89396974  0.35322506  0.63156564  1
  O  O13  1  0.46553009  0.11034644  0.63767834  1
  O  O14  1  0.65248605  0.54788424  0.63198281  1
  O  O15  1  0.87768046  0.53409756  0.13429700  1
  O  O16  1  0.64601683  0.10283042  0.13179543  1
  O  O17  1  0.46760634  0.35489246  0.13134128  1
  O  O18  1  0.44450937  0.31350666  0.03407359  1
  O  O19  1  0.85611400  0.54933506  0.03382218  1
  O  O20  1  0.68308337  0.12100505  0.03454421  1
  O  O21  1  0.45932310  0.13859333  0.53629062  1
  O  O22  1  0.68594205  0.56148014  0.53452021  1
  O  O23  1  0.86660019  0.31328472  0.53449666  1
  O  O24  1  0.54650000  0.67318735  0.97035153  1
  O  O25  1  0.13048499  0.45631247  0.96557893  1
  O  O26  1  0.32370524  0.86706827  0.96206700  1
  O  O27  1  0.55092819  0.87302174  0.46866399  1
  O  O28  1  0.32419117  0.45608803  0.46563177  1
  O  O29  1  0.12893061  0.67623684  0.46556162  1
  O  O30  1  0.11975668  0.65390385  0.36701206  1
  O  O31  1  0.52911210  0.87293086  0.36995807  1
  O  O32  1  0.34112371  0.46664301  0.36696856  1
  O  O33  1  0.12358470  0.46556234  0.86682504  1
  O  O34  1  0.34397862  0.88560312  0.86329931  1
  O  O35  1  0.53149718  0.65674185  0.87140130  1
  O  O36  1  0.01800125  0.81414680  0.41405285  1
  O  O37  1  0.79504767  0.97887042  0.41409717  1
  O  O38  1  0.18416366  0.20551197  0.41429967  1
  O  O39  1  0.02150938  0.20615627  0.91495139  1
  O  O40  1  0.18395122  0.98296297  0.91312817  1
  O  O41  1  0.79425823  0.81366910  0.91730799  1
  O  O42  1  0.97217882  0.17216697  0.58645041  1
  O  O43  1  0.19009677  0.00441913  0.58725696  1
  O  O44  1  0.81268715  0.81302479  0.58629086  1
  O  O45  1  0.96815751  0.80682337  0.08719931  1
  O  O46  1  0.81665479  0.00595670  0.08790814  1
  O  O47  1  0.19797555  0.19528285  0.08809509  1
  O  O48  1  0.66681906  0.15140322  0.74729167  1
  O  O49  1  0.46182250  0.30833757  0.74663819  1
  O  O50  1  0.86172806  0.53794966  0.74705268  1
  O  O51  1  0.67857526  0.53474208  0.24671302  1
  O  O52  1  0.85526171  0.31834549  0.24862180  1
  O  O53  1  0.46743988  0.14552641  0.24728055  1
  O  O54  1  0.64503411  0.51514111  0.91970289  1
  O  O55  1  0.87104842  0.35405123  0.91696453  1
  O  O56  1  0.48373299  0.13135446  0.91742224  1
  O  O57  1  0.64659392  0.12891329  0.41878550  1
  O  O58  1  0.48260153  0.35531212  0.41695831  1
  O  O59  1  0.86814649  0.51569540  0.41836896  1
  O  O60  1  0.36364013  0.49461535  0.07796415  1
  O  O61  1  0.13955473  0.66195396  0.08018500  1
  O  O62  1  0.52280934  0.85329468  0.07866720  1
  O  O63  1  0.36423154  0.86134718  0.58023235  1
  O  O64  1  0.51812204  0.66158984  0.57869492  1
  O  O65  1  0.13810027  0.47099370  0.57702767  1
  O  O66  1  0.31620227  0.84689566  0.25321400  1
  O  O67  1  0.53174316  0.68674683  0.25302446  1
  O  O68  1  0.15434847  0.46793599  0.25282112  1
  O  O69  1  0.31721476  0.46346311  0.75457064  1
  O  O70  1  0.16145252  0.69588187  0.75442125  1
  O  O71  1  0.51346066  0.84422732  0.75074756  1
loop_
_geom_bond_atom_site_label_1
_geom_bond_atom_site_label_2
_geom_bond_distance
_geom_bond_site_symmetry_2
Na0 O71 2.373799 1_555
Na0 O48 2.420803 1_565
Na0 O70 2.482230 1_555
Na0 O49 2.650168 1_565
Na0 O34 2.947054 1_555
Na0 O13 2.962028 1_565
Na1 O63 2.430561 1_555
Na1 O64 2.494556 1_555
Na1 O44 2.503553 1_555
Na1 O42 2.600122 1_565
Na1 O6 2.759549 1_555
Na2 O45 2.419339 1_555
Na2 O62 2.494675 1_555
Na2 O46 2.511580 1_565
Na2 O60 2.572462 1_555
Na3 O43 2.466499 1_555
Na3 O44 2.736621 1_445
Na3 O42 2.745908 1_455
Na3 O36 2.871679 1_545
Na3 O38 2.889067 1_555
Na4 O45 2.609465 1_445
Na4 O47 2.699374 1_555
Na4 O46 2.784728 1_455
Na4 O40 2.823192 1_544
Na4 O41 2.926119 1_444
Na4 O39 2.945152 1_554
Na5 O55 2.675904 1_555
Na5 O48 2.692798 1_555
Na5 O50 2.801586 1_555
Na5 O56 2.809502 1_555
Na5 O54 2.852396 1_555
Na5 O49 2.902617 1_555
Na6 O58 2.764800 1_555
Na6 O59 2.772179 1_555
Na6 O52 2.790133 1_555
Na6 O57 2.801374 1_555
Na6 O53 2.804369 1_555
Na6 O51 2.829144 1_555
Na7 O61 2.619912 1_555
Na7 O66 2.710256 1_555
Na7 O68 2.716784 1_555
Na7 O62 2.907485 1_555
Na7 O60 2.922516 1_555
Na7 O67 2.971143 1_555
Na8 O71 2.674235 1_555
Na8 O63 2.766751 1_555
Na8 O64 2.782790 1_555
Na8 O70 2.811463 1_555
Na8 O69 2.820938 1_555
Na8 O65 2.879192 1_555
Ca0 O7 2.306816 1_555
Ca0 O8 2.320497 1_545
Ca0 O43 2.347300 1_555
Ca0 O6 2.348926 1_445
Ca0 O44 2.392108 1_445
Ca0 O42 2.396380 1_455
Ca1 O11 2.284934 1_545
Ca1 O45 2.315797 1_445
Ca1 O10 2.329367 1_555
Ca1 O9 2.378945 1_445
Ca1 O47 2.388216 1_555
Ca1 O46 2.410774 1_455
Ca2 O61 2.272488 1_555
Ca2 O25 2.272542 1_554
Ca2 O26 2.287437 1_554
Ca2 O62 2.394275 1_555
Ca2 O24 2.411506 1_554
Ca2 O60 2.421089 1_555
Ca3 O29 2.270223 1_555
Ca3 O63 2.316664 1_555
Ca3 O28 2.323551 1_555
Ca3 O27 2.343785 1_555
Ca3 O65 2.357643 1_555
Ca3 O64 2.402187 1_555
Ca4 O32 2.301610 1_555
Ca4 O31 2.310602 1_555
Ca4 O30 2.315043 1_555
Ca4 O66 2.362694 1_555
Ca4 O67 2.364587 1_555
Ca4 O68 2.375116 1_555
Ca5 O35 2.272269 1_555
Ca5 O33 2.321333 1_555
Ca5 O71 2.328281 1_555
Ca5 O34 2.359261 1_555
Ca5 O69 2.359817 1_555
Ca5 O70 2.412760 1_555
La0 O2 2.360663 1_465
La0 O1 2.368037 1_455
La0 O0 2.368305 1_565
La0 O36 2.403151 1_555
La0 O37 2.404601 1_455
La0 O38 2.415090 1_565
La1 O5 2.248140 1_565
La1 O4 2.394842 1_555
La1 O39 2.395778 1_665
La1 O3 2.408766 1_665
La1 O41 2.417911 1_555
La1 O40 2.511777 1_655
La2 O13 2.293522 1_555
La2 O48 2.359122 1_555
La2 O12 2.361889 1_555
La2 O14 2.430881 1_555
La2 O49 2.451064 1_555
La2 O50 2.467453 1_555
La3 O15 2.237993 1_555
La3 O52 2.405365 1_555
La3 O17 2.417924 1_555
La3 O16 2.418784 1_555
La3 O51 2.434073 1_555
La3 O53 2.459987 1_555
La4 O19 2.257632 1_556
La4 O18 2.407548 1_556
La4 O55 2.414242 1_555
La4 O20 2.417532 1_556
La4 O54 2.428120 1_555
La4 O56 2.470253 1_555
La5 O21 2.248234 1_555
La5 O58 2.407583 1_555
La5 O22 2.414401 1_555
La5 O23 2.419748 1_555
La5 O57 2.432468 1_555
La5 O59 2.474013 1_555
O0 S0 1.493755 1_545
O1 S1 1.494349 1_555
O2 S2 1.491511 1_655
O3 S3 1.493713 1_555
O4 S4 1.488029 1_655
O5 P0 1.558985 1_545
O6 P0 1.536824 1_555
O7 S3 1.470645 1_555
O8 S4 1.475555 1_555
O9 S1 1.481128 1_555
O10 S2 1.471810 1_555
O11 S0 1.473979 1_555
O12 S5 1.494295 1_555
O13 P1 1.579256 1_555
O14 S6 1.485690 1_555
O15 P2 1.563280 1_555
O16 S7 1.484286 1_555
O17 S8 1.495791 1_555
O18 S8 1.492564 1_555
O19 P2 1.571292 1_555
O20 S7 1.485629 1_555
O21 P1 1.568959 1_555
O22 S6 1.484610 1_555
O23 S5 1.493326 1_555
O24 S9 1.478596 1_555
O25 S10 1.470053 1_555
O26 S11 1.473811 1_555
O27 S12 1.475094 1_555
O28 S13 1.466549 1_555
O29 S14 1.468866 1_555
O30 S14 1.470137 1_555
O31 S12 1.469626 1_555
O32 S13 1.468095 1_555
O33 S10 1.464419 1_555
O34 S11 1.480195 1_555
O35 S9 1.466422 1_555
O36 S14 1.507739 1_555
O37 S12 1.501088 1_555
O38 S13 1.505604 1_555
O39 S10 1.501678 1_555
O40 S11 1.499781 1_555
O41 S9 1.504084 1_555
O42 S5 1.488893 1_555
O43 P1 1.531281 1_555
O44 S6 1.490056 1_555
O45 P2 1.553974 1_555
O46 S7 1.489188 1_555
O47 S8 1.473584 1_555
O48 P0 1.589279 1_545
O49 S3 1.511896 1_555
O50 S4 1.489919 1_655
O51 S1 1.504037 1_555
O52 S2 1.505558 1_655
O53 S0 1.499724 1_545
O54 S9 1.503494 1_555
O55 S10 1.508502 1_655
O56 S11 1.505264 1_545
O57 S12 1.506670 1_545
O58 S13 1.509221 1_555
O59 S14 1.502202 1_655
O60 S8 1.489267 1_555
O61 P2 1.529986 1_455
O62 S7 1.490028 1_565
O63 P1 1.551549 1_565
O64 S6 1.487887 1_555
O65 S5 1.467348 1_455
O66 S0 1.479841 1_555
O67 S1 1.475156 1_555
O68 S2 1.478797 1_555
O69 S3 1.471231 1_555
O70 S4 1.490459 1_555
O71 P0 1.554758 1_555
