# generated using pymatgen
data_K3Ir(NO2)6
_symmetry_space_group_name_H-M   'P 1'
_cell_length_a   7.37596377
_cell_length_b   7.37596377
_cell_length_c   7.37596377
_cell_angle_alpha   60.00000000
_cell_angle_beta   60.00000000
_cell_angle_gamma   60.00000000
_symmetry_Int_Tables_number   1
_chemical_formula_structural   K3Ir(NO2)6
_chemical_formula_sum   'K3 Ir1 N6 O12'
_cell_volume   283.75356514
_cell_formula_units_Z   1
loop_
 _symmetry_equiv_pos_site_id
 _symmetry_equiv_pos_as_xyz
  1  'x, y, z'
loop_
 _atom_site_type_symbol
 _atom_site_label
 _atom_site_symmetry_multiplicity
 _atom_site_fract_x
 _atom_site_fract_y
 _atom_site_fract_z
 _atom_site_occupancy
  K  K0  1  0.50000000  0.50000000  0.50000000  1
  K  K1  1  0.25000000  0.25000000  0.25000000  1
  K  K2  1  0.75000000  0.75000000  0.75000000  1
  Ir  Ir0  1  0.00000000  0.00000000  0.00000000  1
  N  N0  1  0.80599800  0.19400200  0.80599800  1
  N  N1  1  0.80599800  0.80599800  0.19400200  1
  N  N2  1  0.19400200  0.80599800  0.19400200  1
  N  N3  1  0.80599800  0.19400200  0.19400200  1
  N  N4  1  0.19400200  0.19400200  0.80599800  1
  N  N5  1  0.19400200  0.80599800  0.80599800  1
  O  O0  1  0.58981700  0.00000000  0.41018300  1
  O  O1  1  0.00000000  0.00000000  0.41018300  1
  O  O2  1  0.00000000  0.58981700  0.41018300  1
  O  O3  1  0.00000000  0.58981700  0.00000000  1
  O  O4  1  0.00000000  0.41018300  0.58981700  1
  O  O5  1  0.00000000  0.00000000  0.58981700  1
  O  O6  1  0.58981700  0.41018300  0.00000000  1
  O  O7  1  0.00000000  0.41018300  0.00000000  1
  O  O8  1  0.41018300  0.00000000  0.58981700  1
  O  O9  1  0.41018300  0.00000000  0.00000000  1
  O  O10  1  0.58981700  0.00000000  0.00000000  1
  O  O11  1  0.41018300  0.58981700  0.00000000  1
loop_
_geom_bond_atom_site_label_1
_geom_bond_atom_site_label_2
_geom_bond_distance
_geom_bond_site_symmetry_2
K0 N2 3.191923 1_555
K0 N3 3.191923 1_555
K0 N0 3.191923 1_555
K0 N4 3.191923 1_555
K0 N1 3.191923 1_555
K0 N5 3.191923 1_555
K1 O1 2.690631 1_555
K1 O3 2.690631 1_555
K1 O10 2.690631 1_555
K1 O7 2.690631 1_555
K1 O6 2.690631 1_555
K1 O5 2.690631 1_555
K1 O11 2.690631 1_555
K1 O0 2.690631 1_555
K1 O9 2.690631 1_555
K1 O2 2.690631 1_555
K1 O8 2.690631 1_555
K1 O4 2.690631 1_555
K2 O1 2.690631 1_665
K2 O0 2.690631 1_565
K2 O2 2.690631 1_655
K2 O6 2.690631 1_556
K2 O3 2.690631 1_656
K2 O10 2.690631 1_566
K2 O9 2.690631 1_566
K2 O7 2.690631 1_656
K2 O4 2.690631 1_655
K2 O11 2.690631 1_556
K2 O5 2.690631 1_665
K2 O8 2.690631 1_565
Ir0 N3 2.023671 1_455
Ir0 N5 2.023671 1_544
Ir0 N1 2.023671 1_445
Ir0 N0 2.023671 1_454
Ir0 N4 2.023671 1_554
Ir0 N2 2.023671 1_545
N0 O5 2.142473 1_655
N0 O10 2.142473 1_556
N0 O4 2.142473 1_655
N0 O6 2.142473 1_556
N1 O10 2.142473 1_565
N1 O0 2.142473 1_565
N1 O2 2.142473 1_655
N1 O3 2.142473 1_655
N2 O2 2.142473 1_555
N2 O9 2.142473 1_565
N2 O1 2.142473 1_565
N2 O11 2.142473 1_555
N3 O7 2.142473 1_655
N3 O0 2.142473 1_555
N3 O1 2.142473 1_655
N3 O6 2.142473 1_555
N4 O8 2.142473 1_555
N4 O4 2.142473 1_555
N4 O7 2.142473 1_556
N4 O9 2.142473 1_556
N5 O3 2.142473 1_556
N5 O5 2.142473 1_565
N5 O11 2.142473 1_556
N5 O8 2.142473 1_565
O0 O8 1.324974 1_555
O1 O5 1.324974 1_555
O2 O4 1.324974 1_555
O3 O7 1.324974 1_555
O10 O9 1.324974 1_555
O11 O6 1.324974 1_555
