# generated using pymatgen
data_MgTi6(H2O7)2
_symmetry_space_group_name_H-M   'P 1'
_cell_length_a   8.46555547
_cell_length_b   8.28948259
_cell_length_c   9.64015474
_cell_angle_alpha   78.90235338
_cell_angle_beta   100.87396657
_cell_angle_gamma   153.45449967
_symmetry_Int_Tables_number   1
_chemical_formula_structural   MgTi6(H2O7)2
_chemical_formula_sum   'Mg1 Ti6 H4 O14'
_cell_volume   296.47040759
_cell_formula_units_Z   1
loop_
 _symmetry_equiv_pos_site_id
 _symmetry_equiv_pos_as_xyz
  1  'x, y, z'
loop_
 _atom_site_type_symbol
 _atom_site_label
 _atom_site_symmetry_multiplicity
 _atom_site_fract_x
 _atom_site_fract_y
 _atom_site_fract_z
 _atom_site_occupancy
  Mg  Mg0  1  0.31436200  0.71973600  0.97526400  1
  Ti  Ti0  1  0.78954600  0.25668100  0.75896800  1
  Ti  Ti1  1  0.25576400  0.80947800  0.22314000  1
  Ti  Ti2  1  0.83940600  0.19040400  0.48260700  1
  Ti  Ti3  1  0.21006500  0.87867700  0.50827400  1
  Ti  Ti4  1  0.87272000  0.13350300  0.20301700  1
  Ti  Ti5  1  0.17386600  0.92612600  0.81594500  1
  H  H0  1  0.67873000  0.67693400  0.13486800  1
  H  H1  1  0.03707300  0.94115000  0.22341900  1
  H  H2  1  0.02979900  0.04276300  0.95220900  1
  H  H3  1  0.99770300  0.09520600  0.78231400  1
  O  O0  1  0.83800400  0.18453600  0.96054300  1
  O  O1  1  0.22094700  0.85773900  0.03469000  1
  O  O2  1  0.87540900  0.14641300  0.67550100  1
  O  O3  1  0.17808100  0.92592000  0.31344900  1
  O  O4  1  0.91409700  0.08623700  0.39520100  1
  O  O5  1  0.14570100  0.97144300  0.61151700  1
  O  O6  1  0.92088600  0.93459700  0.14807900  1
  O  O7  1  0.07725400  0.06760800  0.85655600  1
  O  O8  1  0.69533400  0.39624600  0.81643600  1
  O  O9  1  0.35966900  0.65246000  0.17539600  1
  O  O10  1  0.74052800  0.33302800  0.54585300  1
  O  O11  1  0.31006600  0.73258600  0.45453700  1
  O  O12  1  0.78216700  0.27148900  0.26090600  1
  O  O13  1  0.27417900  0.78024000  0.76440300  1
loop_
_geom_bond_atom_site_label_1
_geom_bond_atom_site_label_2
_geom_bond_distance
_geom_bond_site_symmetry_2
Mg0 O9 1.967140 1_556
Mg0 O0 1.995458 1_455
Mg0 O0 1.996118 1_565
Mg0 O13 2.037438 1_555
Mg0 O1 2.074621 1_556
H0 O6 0.976211 1_555
H1 O6 1.071427 1_455
H1 O3 1.425027 1_555
H2 O7 0.986265 1_555
H3 O7 1.024139 1_655
H3 O2 1.589987 1_555
O0 Ti0 1.998204 1_555
O0 Ti4 2.304725 1_556
O1 Ti1 1.810091 1_555
O1 Ti5 2.133995 1_554
O2 Ti2 1.845993 1_555
O2 Ti0 1.924539 1_555
O3 Ti3 1.862471 1_555
O3 Ti1 1.948673 1_555
O4 Ti2 1.820267 1_555
O4 Ti4 1.851999 1_555
O5 Ti3 1.768532 1_555
O5 Ti5 1.944137 1_555
O6 Ti4 2.187670 1_565
O7 Ti5 2.052176 1_545
O8 Ti5 1.966591 1_655
O8 Ti5 1.973379 1_545
O8 Ti0 2.084659 1_555
O9 Ti4 1.953279 1_455
O9 Ti4 1.954837 1_565
O9 Ti1 2.260863 1_555
O10 Ti3 2.033067 1_545
O10 Ti3 2.033478 1_655
O10 Ti0 2.107420 1_555
O10 Ti2 2.170450 1_555
O11 Ti2 2.011858 1_455
O11 Ti2 2.016775 1_565
O11 Ti3 2.166292 1_555
O11 Ti1 2.276755 1_555
O12 Ti1 2.007709 1_655
O12 Ti1 2.011969 1_545
O12 Ti4 2.045331 1_555
O12 Ti2 2.212085 1_555
O13 Ti0 1.952748 1_565
O13 Ti0 1.954405 1_455
O13 Ti5 2.158332 1_555
O13 Ti3 2.562840 1_555
