# generated using pymatgen
data_Ca3Al2(HO)12
_symmetry_space_group_name_H-M   'P 1'
_cell_length_a   11.01069028
_cell_length_b   11.01069028
_cell_length_c   11.01069028
_cell_angle_alpha   109.47122063
_cell_angle_beta   109.47122063
_cell_angle_gamma   109.47122063
_symmetry_Int_Tables_number   1
_chemical_formula_structural   Ca3Al2(HO)12
_chemical_formula_sum   'Ca12 Al8 H48 O48'
_cell_volume   1027.59444865
_cell_formula_units_Z   4
loop_
 _symmetry_equiv_pos_site_id
 _symmetry_equiv_pos_as_xyz
  1  'x, y, z'
loop_
 _atom_site_type_symbol
 _atom_site_label
 _atom_site_symmetry_multiplicity
 _atom_site_fract_x
 _atom_site_fract_y
 _atom_site_fract_z
 _atom_site_occupancy
  Ca  Ca0  1  0.25000000  0.37500000  0.12500000  1
  Ca  Ca1  1  0.75000000  0.12500000  0.37500000  1
  Ca  Ca2  1  0.37500000  0.12500000  0.25000000  1
  Ca  Ca3  1  0.37500000  0.75000000  0.12500000  1
  Ca  Ca4  1  0.12500000  0.37500000  0.75000000  1
  Ca  Ca5  1  0.12500000  0.25000000  0.37500000  1
  Ca  Ca6  1  0.62500000  0.25000000  0.87500000  1
  Ca  Ca7  1  0.75000000  0.62500000  0.87500000  1
  Ca  Ca8  1  0.25000000  0.87500000  0.62500000  1
  Ca  Ca9  1  0.62500000  0.87500000  0.75000000  1
  Ca  Ca10  1  0.87500000  0.62500000  0.25000000  1
  Ca  Ca11  1  0.87500000  0.75000000  0.62500000  1
  Al  Al0  1  0.50000000  0.00000000  0.00000000  1
  Al  Al1  1  0.50000000  0.50000000  0.00000000  1
  Al  Al2  1  0.00000000  0.50000000  0.50000000  1
  Al  Al3  1  0.00000000  0.00000000  0.00000000  1
  Al  Al4  1  0.00000000  0.00000000  0.50000000  1
  Al  Al5  1  0.50000000  0.50000000  0.50000000  1
  Al  Al6  1  0.00000000  0.50000000  0.00000000  1
  Al  Al7  1  0.50000000  0.00000000  0.50000000  1
  H  H0  1  0.73929900  0.78958500  0.34966300  1
  H  H1  1  0.34966300  0.73929900  0.78958500  1
  H  H2  1  0.11036400  0.05028700  0.76070100  1
  H  H3  1  0.56007800  0.71041500  0.44971300  1
  H  H4  1  0.05028700  0.78958500  0.93992200  1
  H  H5  1  0.15033700  0.93992200  0.38963600  1
  H  H6  1  0.34966300  0.11036400  0.56007800  1
  H  H7  1  0.78958500  0.34966300  0.73929900  1
  H  H8  1  0.44971300  0.38963600  0.73929900  1
  H  H9  1  0.56007800  0.34966300  0.11036400  1
  H  H10  1  0.78958500  0.93992200  0.05028700  1
  H  H11  1  0.71041500  0.76070100  0.15033700  1
  H  H12  1  0.76070100  0.15033700  0.71041500  1
  H  H13  1  0.11036400  0.56007800  0.34966300  1
  H  H14  1  0.73929900  0.44971300  0.38963600  1
  H  H15  1  0.38963600  0.73929900  0.44971300  1
  H  H16  1  0.93992200  0.05028700  0.78958500  1
  H  H17  1  0.76070100  0.11036400  0.05028700  1
  H  H18  1  0.93992200  0.38963600  0.15033700  1
  H  H19  1  0.44971300  0.56007800  0.71041500  1
  H  H20  1  0.38963600  0.15033700  0.93992200  1
  H  H21  1  0.15033700  0.71041500  0.76070100  1
  H  H22  1  0.26070100  0.21041500  0.65033700  1
  H  H23  1  0.65033700  0.26070100  0.21041500  1
  H  H24  1  0.88963600  0.94971300  0.23929900  1
  H  H25  1  0.43992200  0.28958500  0.55028700  1
  H  H26  1  0.94971300  0.21041500  0.06007800  1
  H  H27  1  0.84966300  0.06007800  0.61036400  1
  H  H28  1  0.65033700  0.88963600  0.43992200  1
  H  H29  1  0.21041500  0.65033700  0.26070100  1
  H  H30  1  0.55028700  0.61036400  0.26070100  1
  H  H31  1  0.43992200  0.65033700  0.88963600  1
  H  H32  1  0.21041500  0.06007800  0.94971300  1
  H  H33  1  0.28958500  0.23929900  0.84966300  1
  H  H34  1  0.23929900  0.84966300  0.28958500  1
  H  H35  1  0.88963600  0.43992200  0.65033700  1
  H  H36  1  0.26070100  0.55028700  0.61036400  1
  H  H37  1  0.61036400  0.26070100  0.55028700  1
  H  H38  1  0.06007800  0.94971300  0.21041500  1
  H  H39  1  0.23929900  0.88963600  0.94971300  1
  H  H40  1  0.06007800  0.61036400  0.84966300  1
  H  H41  1  0.55028700  0.43992200  0.28958500  1
  H  H42  1  0.94971300  0.23929900  0.88963600  1
  H  H43  1  0.28958500  0.55028700  0.43992200  1
  H  H44  1  0.61036400  0.84966300  0.06007800  1
  H  H45  1  0.84966300  0.28958500  0.23929900  1
  H  H46  1  0.05028700  0.76070100  0.11036400  1
  H  H47  1  0.71041500  0.44971300  0.56007800  1
  O  O0  1  0.16671300  0.47492800  0.58801600  1
  O  O1  1  0.02507200  0.19178500  0.11308800  1
  O  O2  1  0.92130300  0.30821500  0.33328700  1
  O  O3  1  0.02507200  0.33328700  0.91198400  1
  O  O4  1  0.19178500  0.57869700  0.16671300  1
  O  O5  1  0.57869700  0.16671300  0.19178500  1
  O  O6  1  0.30821500  0.47492800  0.38691200  1
  O  O7  1  0.92130300  0.11308800  0.58801600  1
  O  O8  1  0.58801600  0.92130300  0.11308800  1
  O  O9  1  0.91198400  0.02507200  0.33328700  1
  O  O10  1  0.58801600  0.16671300  0.47492800  1
  O  O11  1  0.16671300  0.19178500  0.57869700  1
  O  O12  1  0.91198400  0.38691200  0.57869700  1
  O  O13  1  0.38691200  0.30821500  0.47492800  1
  O  O14  1  0.11308800  0.02507200  0.19178500  1
  O  O15  1  0.33328700  0.91198400  0.02507200  1
  O  O16  1  0.47492800  0.58801600  0.16671300  1
  O  O17  1  0.30821500  0.33328700  0.92130300  1
  O  O18  1  0.38691200  0.57869700  0.91198400  1
  O  O19  1  0.57869700  0.91198400  0.38691200  1
  O  O20  1  0.19178500  0.11308800  0.02507200  1
  O  O21  1  0.11308800  0.58801600  0.92130300  1
  O  O22  1  0.42130300  0.08801600  0.61308800  1
  O  O23  1  0.61308800  0.42130300  0.08801600  1
  O  O24  1  0.69178500  0.66671300  0.07869700  1
  O  O25  1  0.52507200  0.41198400  0.83328700  1
  O  O26  1  0.66671300  0.08801600  0.97492800  1
  O  O27  1  0.88691200  0.97492800  0.80821500  1
  O  O28  1  0.61308800  0.69178500  0.52507200  1
  O  O29  1  0.08801600  0.61308800  0.42130300  1
  O  O30  1  0.83328700  0.80821500  0.42130300  1
  O  O31  1  0.52507200  0.61308800  0.69178500  1
  O  O32  1  0.08801600  0.97492800  0.66671300  1
  O  O33  1  0.41198400  0.07869700  0.88691200  1
  O  O34  1  0.07869700  0.88691200  0.41198400  1
  O  O35  1  0.69178500  0.52507200  0.61308800  1
  O  O36  1  0.42130300  0.83328700  0.80821500  1
  O  O37  1  0.80821500  0.42130300  0.83328700  1
  O  O38  1  0.97492800  0.66671300  0.08801600  1
  O  O39  1  0.07869700  0.69178500  0.66671300  1
  O  O40  1  0.97492800  0.80821500  0.88691200  1
  O  O41  1  0.83328700  0.52507200  0.41198400  1
  O  O42  1  0.66671300  0.07869700  0.69178500  1
  O  O43  1  0.41198400  0.83328700  0.52507200  1
  O  O44  1  0.80821500  0.88691200  0.97492800  1
  O  O45  1  0.88691200  0.41198400  0.07869700  1
  O  O46  1  0.33328700  0.92130300  0.30821500  1
  O  O47  1  0.47492800  0.38691200  0.30821500  1
loop_
_geom_bond_atom_site_label_1
_geom_bond_atom_site_label_2
_geom_bond_distance
_geom_bond_site_symmetry_2
Ca0 O4 2.473885 1_555
Ca0 O6 2.473885 1_555
Ca0 O20 2.473885 1_555
Ca0 O17 2.473885 1_554
Ca0 O1 2.548864 1_555
Ca0 O3 2.548864 1_554
Ca0 O16 2.548864 1_555
Ca0 O47 2.548864 1_555
Ca1 O12 2.473885 1_555
Ca1 O8 2.473885 1_545
Ca1 O9 2.473885 1_555
Ca1 O10 2.473885 1_555
Ca1 O7 2.548864 1_555
Ca1 O2 2.548864 1_555
Ca1 O5 2.548864 1_555
Ca1 O19 2.548864 1_545
Ca2 O47 2.473885 1_555
Ca2 O5 2.473885 1_555
Ca2 O46 2.473885 1_545
Ca2 O14 2.473885 1_555
Ca2 O20 2.548864 1_555
Ca2 O10 2.548864 1_555
Ca2 O15 2.548864 1_545
Ca2 O13 2.548864 1_555
Ca3 O19 2.473885 1_555
Ca3 O16 2.473885 1_555
Ca3 O21 2.473885 1_554
Ca3 O15 2.473885 1_555
Ca3 O4 2.548864 1_555
Ca3 O18 2.548864 1_554
Ca3 O8 2.548864 1_555
Ca3 O46 2.548864 1_555
Ca4 O18 2.473885 1_555
Ca4 O3 2.473885 1_555
Ca4 O0 2.473885 1_555
Ca4 O7 2.473885 1_455
Ca4 O11 2.548864 1_555
Ca4 O12 2.548864 1_455
Ca4 O21 2.548864 1_555
Ca4 O17 2.548864 1_555
Ca5 O13 2.473885 1_555
Ca5 O2 2.473885 1_455
Ca5 O11 2.473885 1_555
Ca5 O1 2.473885 1_555
Ca5 O14 2.548864 1_555
Ca5 O0 2.548864 1_555
Ca5 O6 2.548864 1_555
Ca5 O9 2.548864 1_455
Ca6 O22 2.473885 1_555
Ca6 O25 2.473885 1_555
Ca6 O45 2.473885 1_556
Ca6 O26 2.473885 1_555
Ca6 O37 2.548864 1_555
Ca6 O42 2.548864 1_555
Ca6 O33 2.548864 1_555
Ca6 O23 2.548864 1_556
Ca7 O35 2.473885 1_555
Ca7 O44 2.473885 1_555
Ca7 O37 2.473885 1_555
Ca7 O24 2.473885 1_556
Ca7 O31 2.548864 1_555
Ca7 O40 2.548864 1_555
Ca7 O25 2.548864 1_555
Ca7 O38 2.548864 1_556
Ca8 O32 2.473885 1_555
Ca8 O33 2.473885 1_565
Ca8 O43 2.473885 1_555
Ca8 O29 2.473885 1_555
Ca8 O39 2.548864 1_555
Ca8 O34 2.548864 1_555
Ca8 O36 2.548864 1_555
Ca8 O22 2.548864 1_565
Ca9 O27 2.473885 1_555
Ca9 O42 2.473885 1_565
Ca9 O31 2.473885 1_555
Ca9 O36 2.473885 1_555
Ca9 O28 2.548864 1_555
Ca9 O44 2.548864 1_555
Ca9 O43 2.548864 1_555
Ca9 O26 2.548864 1_565
Ca10 O23 2.473885 1_555
Ca10 O41 2.473885 1_555
Ca10 O34 2.473885 1_655
Ca10 O38 2.473885 1_555
Ca10 O24 2.548864 1_555
Ca10 O30 2.548864 1_555
Ca10 O45 2.548864 1_555
Ca10 O29 2.548864 1_655
Ca11 O39 2.473885 1_655
Ca11 O40 2.473885 1_555
Ca11 O30 2.473885 1_555
Ca11 O28 2.473885 1_555
Ca11 O35 2.548864 1_555
Ca11 O41 2.548864 1_555
Ca11 O27 2.548864 1_555
Ca11 O32 2.548864 1_655
Al0 O33 1.927471 1_554
Al0 O36 1.927471 1_544
Al0 O26 1.927471 1_554
Al0 O15 1.927471 1_545
Al0 O5 1.927471 1_555
Al0 O8 1.927471 1_545
Al1 O17 1.927471 1_554
Al1 O25 1.927471 1_554
Al1 O16 1.927471 1_555
Al1 O23 1.927471 1_555
Al1 O24 1.927471 1_555
Al1 O18 1.927471 1_554
Al2 O0 1.927471 1_555
Al2 O2 1.927471 1_455
Al2 O39 1.927471 1_555
Al2 O41 1.927471 1_455
Al2 O29 1.927471 1_555
Al2 O12 1.927471 1_455
Al3 O40 1.927471 1_444
Al3 O44 1.927471 1_444
Al3 O27 1.927471 1_444
Al3 O20 1.927471 1_555
Al3 O1 1.927471 1_555
Al3 O14 1.927471 1_555
Al4 O11 1.927471 1_555
Al4 O9 1.927471 1_455
Al4 O30 1.927471 1_445
Al4 O32 1.927471 1_545
Al4 O34 1.927471 1_545
Al4 O7 1.927471 1_455
Al5 O35 1.927471 1_555
Al5 O31 1.927471 1_555
Al5 O28 1.927471 1_555
Al5 O13 1.927471 1_555
Al5 O47 1.927471 1_555
Al5 O6 1.927471 1_555
Al6 O45 1.927471 1_455
Al6 O3 1.927471 1_554
Al6 O37 1.927471 1_454
Al6 O4 1.927471 1_555
Al6 O21 1.927471 1_554
Al6 O38 1.927471 1_455
Al7 O10 1.927471 1_555
Al7 O42 1.927471 1_555
Al7 O43 1.927471 1_545
Al7 O46 1.927471 1_545
Al7 O22 1.927471 1_555
Al7 O19 1.927471 1_545
H0 O30 0.970388 1_555
H1 O36 0.970388 1_555
H2 O32 0.970392 1_545
H3 O28 0.970396 1_555
H4 O40 0.970396 1_455
H5 O34 0.970388 1_555
H6 O22 0.970388 1_555
H7 O37 0.970388 1_555
H8 O25 0.970392 1_555
H9 O23 0.970388 1_555
H10 O44 0.970396 1_554
H11 O24 0.970388 1_555
H12 O42 0.970388 1_555
H13 O29 0.970388 1_555
H14 O41 0.970392 1_555
H15 O43 0.970392 1_555
H16 O27 0.970396 1_545
H17 O26 0.970392 1_554
H18 O45 0.970388 1_555
H19 O31 0.970396 1_555
H20 O33 0.970388 1_555
H21 O39 0.970388 1_555
H22 O11 0.970388 1_555
H23 O5 0.970388 1_555
H24 O9 0.970392 1_565
H25 O13 0.970396 1_555
H26 O1 0.970396 1_655
H27 O7 0.970388 1_555
H28 O19 0.970388 1_555
H29 O4 0.970388 1_555
H30 O16 0.970392 1_555
H31 O18 0.970388 1_555
H32 O20 0.970396 1_556
H33 O17 0.970388 1_555
H34 O46 0.970388 1_555
H35 O12 0.970388 1_555
H36 O0 0.970392 1_555
H37 O10 0.970392 1_555
H38 O14 0.970396 1_565
H39 O15 0.970392 1_556
H40 O21 0.970388 1_555
H41 O47 0.970396 1_555
H42 O3 0.970392 1_655
H43 O6 0.970396 1_555
H44 O8 0.970388 1_555
H45 O2 0.970388 1_555
H46 O38 0.970392 1_455
H47 O35 0.970396 1_555
