# generated using pymatgen
data_K2In3CuSe6
_symmetry_space_group_name_H-M   'P 1'
_cell_length_a   8.24992595
_cell_length_b   8.24992595
_cell_length_c   21.72278683
_cell_angle_alpha   84.59961231
_cell_angle_beta   84.59961231
_cell_angle_gamma   90.01928004
_symmetry_Int_Tables_number   1
_chemical_formula_structural   K2In3CuSe6
_chemical_formula_sum   'K8 In12 Cu4 Se24'
_cell_volume   1465.32173402
_cell_formula_units_Z   4
loop_
 _symmetry_equiv_pos_site_id
 _symmetry_equiv_pos_as_xyz
  1  'x, y, z'
loop_
 _atom_site_type_symbol
 _atom_site_label
 _atom_site_symmetry_multiplicity
 _atom_site_fract_x
 _atom_site_fract_y
 _atom_site_fract_z
 _atom_site_occupancy
  K  K0  1  0.76247700  0.39478600  0.41676600  1
  K  K1  1  0.60521400  0.23752300  0.08323400  1
  K  K2  1  0.23752300  0.60521400  0.58323400  1
  K  K3  1  0.39478600  0.76247700  0.91676600  1
  K  K4  1  0.78002000  0.89609300  0.41687300  1
  K  K5  1  0.10390700  0.21998000  0.08312700  1
  K  K6  1  0.21998000  0.10390700  0.58312700  1
  K  K7  1  0.89609300  0.78002000  0.91687300  1
  In  In0  1  0.27916000  0.15403200  0.38500500  1
  In  In1  1  0.84596800  0.72084000  0.11499500  1
  In  In2  1  0.72084000  0.84596800  0.61499500  1
  In  In3  1  0.15403200  0.27916000  0.88500500  1
  In  In4  1  0.34620100  0.72167500  0.11522800  1
  In  In5  1  0.27832500  0.65379900  0.38477200  1
  In  In6  1  0.65379900  0.27832500  0.88477200  1
  In  In7  1  0.72167500  0.34620100  0.61522800  1
  In  In8  1  0.56114100  0.43885900  0.25000000  1
  In  In9  1  0.43885900  0.56114100  0.75000000  1
  In  In10  1  0.06348500  0.93651500  0.25000000  1
  In  In11  1  0.93651500  0.06348500  0.75000000  1
  Cu  Cu0  1  0.06316300  0.43821600  0.24995700  1
  Cu  Cu1  1  0.56178400  0.93683700  0.25004300  1
  Cu  Cu2  1  0.93683700  0.56178400  0.75004300  1
  Cu  Cu3  1  0.43821600  0.06316300  0.74995700  1
  Se  Se0  1  0.18266800  0.02697900  0.81968600  1
  Se  Se1  1  0.97302100  0.81733200  0.68031400  1
  Se  Se2  1  0.81733200  0.97302100  0.18031400  1
  Se  Se3  1  0.02697900  0.18266800  0.31968600  1
  Se  Se4  1  0.15782400  0.56367900  0.81968700  1
  Se  Se5  1  0.43632100  0.84217600  0.68031300  1
  Se  Se6  1  0.84217600  0.43632100  0.18031300  1
  Se  Se7  1  0.56367900  0.15782400  0.31968700  1
  Se  Se8  1  0.97391200  0.34305100  0.68072600  1
  Se  Se9  1  0.65694900  0.02608800  0.81927400  1
  Se  Se10  1  0.02608800  0.65694900  0.31927400  1
  Se  Se11  1  0.34305100  0.97391200  0.18072600  1
  Se  Se12  1  0.88498100  0.26598700  0.95979500  1
  Se  Se13  1  0.73401300  0.11501900  0.54020500  1
  Se  Se14  1  0.11501900  0.73401300  0.04020500  1
  Se  Se15  1  0.26598700  0.88498100  0.45979500  1
  Se  Se16  1  0.43646300  0.31630700  0.68057100  1
  Se  Se17  1  0.68369300  0.56353700  0.81942900  1
  Se  Se18  1  0.56353700  0.68369300  0.31942900  1
  Se  Se19  1  0.31630700  0.43646300  0.18057100  1
  Se  Se20  1  0.38551000  0.25356500  0.95996900  1
  Se  Se21  1  0.74643500  0.61449000  0.54003100  1
  Se  Se22  1  0.61449000  0.74643500  0.04003100  1
  Se  Se23  1  0.25356500  0.38551000  0.45996900  1
loop_
_geom_bond_atom_site_label_1
_geom_bond_atom_site_label_2
_geom_bond_distance
_geom_bond_site_symmetry_2
K0 Se13 3.359845 1_555
K0 Se21 3.364475 1_555
K0 Se3 3.478832 1_655
K0 Se10 3.487153 1_655
K0 Se7 3.519025 1_555
K0 Se18 3.542966 1_555
K1 Se12 3.359845 1_554
K1 Se20 3.364475 1_554
K1 Se2 3.478832 1_545
K1 Se11 3.487153 1_545
K1 Se6 3.519025 1_555
K1 Se19 3.542966 1_555
K2 Se15 3.359845 1_555
K2 Se23 3.364475 1_555
K2 Se1 3.478832 1_455
K2 Se8 3.487153 1_455
K2 Se5 3.519025 1_555
K2 Se16 3.542966 1_555
K3 Se14 3.359845 1_556
K3 Se22 3.364475 1_556
K3 Se0 3.478832 1_565
K3 Se9 3.487153 1_565
K3 Se4 3.519025 1_555
K3 Se17 3.542966 1_555
K4 Se13 3.362092 1_565
K4 Se21 3.364756 1_555
K4 Se18 3.485470 1_555
K4 Se7 3.486927 1_565
K4 Se3 3.527774 1_665
K4 Se10 3.533880 1_655
K5 Se12 3.362092 1_454
K5 Se20 3.364756 1_554
K5 Se19 3.485470 1_555
K5 Se6 3.486927 1_455
K5 Se2 3.527774 1_445
K5 Se11 3.533880 1_545
K6 Se15 3.362092 1_545
K6 Se23 3.364756 1_555
K6 Se16 3.485470 1_555
K6 Se5 3.486927 1_545
K6 Se1 3.527774 1_445
K6 Se8 3.533880 1_455
K7 Se14 3.362092 1_656
K7 Se22 3.364756 1_556
K7 Se17 3.485470 1_555
K7 Se4 3.486927 1_655
K7 Se0 3.527774 1_665
K7 Se9 3.533880 1_565
In0 Se23 2.619948 1_555
In0 Se15 2.620297 1_545
In0 Se7 2.624605 1_555
In0 Se3 2.624954 1_555
In1 Se22 2.619948 1_555
In1 Se14 2.620297 1_655
In1 Se6 2.624605 1_555
In1 Se2 2.624954 1_555
In2 Se21 2.619948 1_555
In2 Se13 2.620297 1_565
In2 Se5 2.624605 1_555
In2 Se1 2.624954 1_555
In3 Se20 2.619948 1_555
In3 Se12 2.620297 1_455
In3 Se4 2.624605 1_555
In3 Se0 2.624954 1_555
In4 Se14 2.618745 1_555
In4 Se22 2.620178 1_555
In4 Se11 2.627872 1_555
In4 Se19 2.630050 1_555
In5 Se15 2.618745 1_555
In5 Se23 2.620178 1_555
In5 Se10 2.627872 1_555
In5 Se18 2.630050 1_555
In6 Se12 2.618745 1_555
In6 Se20 2.620178 1_555
In6 Se9 2.627872 1_555
In6 Se17 2.630050 1_555
In7 Se13 2.618745 1_555
In7 Se21 2.620178 1_555
In7 Se8 2.627872 1_555
In7 Se16 2.630050 1_555
In8 Se19 2.633225 1_555
In8 Se18 2.633225 1_555
In8 Se6 2.648188 1_555
In8 Se7 2.648188 1_555
In9 Se17 2.633225 1_555
In9 Se16 2.633225 1_555
In9 Se5 2.648188 1_555
In9 Se4 2.648188 1_555
In10 Se10 2.634007 1_555
In10 Se11 2.634007 1_555
In10 Se2 2.645632 1_455
In10 Se3 2.645632 1_565
In11 Se8 2.634007 1_555
In11 Se9 2.634007 1_555
In11 Se1 2.645632 1_545
In11 Se0 2.645632 1_655
Cu0 Se10 2.458115 1_555
Cu0 Se19 2.458687 1_555
Cu0 Se6 2.477172 1_455
Cu0 Se3 2.478216 1_555
Cu1 Se11 2.458115 1_555
Cu1 Se18 2.458687 1_555
Cu1 Se7 2.477172 1_565
Cu1 Se2 2.478216 1_555
Cu2 Se8 2.458115 1_555
Cu2 Se17 2.458687 1_555
Cu2 Se4 2.477172 1_655
Cu2 Se1 2.478216 1_555
Cu3 Se9 2.458115 1_555
Cu3 Se16 2.458687 1_555
Cu3 Se5 2.477172 1_545
Cu3 Se0 2.478216 1_555
