# generated using pymatgen
data_Na14La4Si9Sn4(SO16)3
_symmetry_space_group_name_H-M   'P 1'
_cell_length_a   18.93702442
_cell_length_b   9.45473344
_cell_length_c   23.13358858
_cell_angle_alpha   89.95328265
_cell_angle_beta   89.41737020
_cell_angle_gamma   119.95779370
_symmetry_Int_Tables_number   1
_chemical_formula_structural   Na14La4Si9Sn4(SO16)3
_chemical_formula_sum   'Na42 La12 Si27 Sn12 S9 O144'
_cell_volume   3588.28320993
_cell_formula_units_Z   3
loop_
 _symmetry_equiv_pos_site_id
 _symmetry_equiv_pos_as_xyz
  1  'x, y, z'
loop_
 _atom_site_type_symbol
 _atom_site_label
 _atom_site_symmetry_multiplicity
 _atom_site_fract_x
 _atom_site_fract_y
 _atom_site_fract_z
 _atom_site_occupancy
  Na  Na0  1  0.82351222  0.01542986  0.25489928  1
  Na  Na1  1  0.17831955  0.35802652  0.25317916  1
  Na  Na2  1  0.69521289  0.36997729  0.25242885  1
  Na  Na3  1  0.00023841  0.63126363  0.24407174  1
  Na  Na4  1  0.49902116  0.64902072  0.24563542  1
  Na  Na5  1  0.32287630  0.63065918  0.74932069  1
  Na  Na6  1  0.99628588  0.34820064  0.73598703  1
  Na  Na7  1  0.50340466  0.37282045  0.73975837  1
  Na  Na8  1  0.19311805  0.01819551  0.74626952  1
  Na  Na9  1  0.68210964  0.00328479  0.74450288  1
  Na  Na10  1  0.14141186  0.31222702  0.58031802  1
  Na  Na11  1  0.65654769  0.33175482  0.58426740  1
  Na  Na12  1  0.33548674  0.98516400  0.58723514  1
  Na  Na13  1  0.83253035  0.96824867  0.58589011  1
  Na  Na14  1  0.14898844  0.97931697  0.08043795  1
  Na  Na15  1  0.64447285  0.97093193  0.07956196  1
  Na  Na16  1  0.33244477  0.68687572  0.08370726  1
  Na  Na17  1  0.83561099  0.68822303  0.08827959  1
  Na  Na18  1  0.47917789  0.67700214  0.91657948  1
  Na  Na19  1  0.97912833  0.68199561  0.92835041  1
  Na  Na20  1  0.34209964  0.01827285  0.90635597  1
  Na  Na21  1  0.84132306  0.01925545  0.90830166  1
  Na  Na22  1  0.17341848  0.29193237  0.91020317  1
  Na  Na23  1  0.66987456  0.28791773  0.90817733  1
  Na  Na24  1  0.48405771  0.28606865  0.43306916  1
  Na  Na25  1  0.97730535  0.27851741  0.42285362  1
  Na  Na26  1  0.16839134  0.05220918  0.41315808  1
  Na  Na27  1  0.67693083  0.05606599  0.41899655  1
  Na  Na28  1  0.34319069  0.66626853  0.41280066  1
  Na  Na29  1  0.84369474  0.66680863  0.42337838  1
  Na  Na30  1  0.99481360  0.99487227  0.50603635  1
  Na  Na31  1  0.50951713  0.01491634  0.50744404  1
  Na  Na32  1  0.00467349  0.99689963  0.00439397  1
  Na  Na33  1  0.50480618  0.99239110  0.99945379  1
  Na  Na34  1  0.32984203  0.33501380  0.82346364  1
  Na  Na35  1  0.81680925  0.32645858  0.82422030  1
  Na  Na36  1  0.31568113  0.30409302  0.33232956  1
  Na  Na37  1  0.82794066  0.32045244  0.33242727  1
  Na  Na38  1  0.15721050  0.65223872  0.16807162  1
  Na  Na39  1  0.66499181  0.66087785  0.16577950  1
  Na  Na40  1  0.16249286  0.66774175  0.66300710  1
  Na  Na41  1  0.66514173  0.66474236  0.66447694  1
  La  La0  1  0.00334765  0.01023572  0.34804443  1
  La  La1  1  0.49886784  0.00625536  0.34921266  1
  La  La2  1  0.99594084  0.99205938  0.84517799  1
  La  La3  1  0.50401007  0.99699431  0.84550862  1
  La  La4  1  0.33723033  0.32985717  0.67492222  1
  La  La5  1  0.83697317  0.34410862  0.17609047  1
  La  La6  1  0.32989312  0.33505448  0.99021024  1
  La  La7  1  0.82380965  0.33815093  0.98839261  1
  La  La8  1  0.32572470  0.31241232  0.48860535  1
  La  La9  1  0.83102119  0.33552444  0.49466367  1
  La  La10  1  0.67491447  0.67602670  0.31624015  1
  La  La11  1  0.17310761  0.66995318  0.81263781  1
  Si  Si0  1  0.15999511  0.00418735  0.24852162  1
  Si  Si1  1  0.64899752  0.99554889  0.24810625  1
  Si  Si2  1  0.35114691  0.69686691  0.24789596  1
  Si  Si3  1  0.85364582  0.70883388  0.24611427  1
  Si  Si4  1  0.00491246  0.30748976  0.25288535  1
  Si  Si5  1  0.14648414  0.29572075  0.74775739  1
  Si  Si6  1  0.66007484  0.31707604  0.75040863  1
  Si  Si7  1  0.50449709  0.70155105  0.75410383  1
  Si  Si8  1  0.35348659  -0.00057476  0.74732684  1
  Si  Si9  1  0.85065353  0.01492007  0.74850517  1
  Si  Si10  1  0.49426399  0.32693342  0.58287957  1
  Si  Si11  1  0.98769089  0.33769257  0.58481737  1
  Si  Si12  1  0.16912892  0.00563726  0.58463710  1
  Si  Si13  1  0.67595264  0.01597357  0.58442875  1
  Si  Si14  1  0.83715605  0.64219554  0.58281681  1
  Si  Si15  1  0.48661369  0.63873798  0.08486866  1
  Si  Si16  1  0.99505755  0.66059193  0.08246562  1
  Si  Si17  1  0.17631732  0.33644982  0.08442756  1
  Si  Si18  1  0.66639849  0.32893455  0.08501744  1
  Si  Si19  1  0.31673039  0.67263648  0.92288215  1
  Si  Si20  1  0.80480882  0.66440073  0.91724694  1
  Si  Si21  1  0.16519625  0.96075304  0.91840734  1
  Si  Si22  1  0.66759261  0.94942750  0.91816479  1
  Si  Si23  1  0.30442657  0.94646946  0.41693581  1
  Si  Si24  1  0.81756900  0.96765647  0.42176928  1
  Si  Si25  1  0.16871640  0.38691384  0.41728726  1
  Si  Si26  1  0.66597400  0.36801974  0.41774677  1
  Sn  Sn0  1  0.99541539  0.00062190  0.64870193  1
  Sn  Sn1  1  0.51267585  0.01854628  0.65698061  1
  Sn  Sn2  1  0.01211944  0.00712229  0.15664283  1
  Sn  Sn3  1  0.49999221  0.99033172  0.15164536  1
  Sn  Sn4  1  0.82893366  0.32403786  0.67569060  1
  Sn  Sn5  1  0.33064341  0.34719550  0.17964415  1
  Sn  Sn6  1  0.16472673  0.66391417  0.01914458  1
  Sn  Sn7  1  0.66190649  0.66072488  0.01945814  1
  Sn  Sn8  1  0.16161608  0.66252663  0.51915345  1
  Sn  Sn9  1  0.67406312  0.66476486  0.52383769  1
  Sn  Sn10  1  0.17652254  0.67303747  0.30856281  1
  Sn  Sn11  1  0.67742159  0.68325169  0.80784274  1
  S  S0  1  0.49154866  0.29537831  0.24313383  1
  S  S1  1  0.99251236  0.68798936  0.74471019  1
  S  S2  1  0.33292306  0.65612182  0.58164985  1
  S  S3  1  0.33522797  0.02816481  0.08585542  1
  S  S4  1  0.83288192  0.01026476  0.08146065  1
  S  S5  1  0.01885259  0.36956374  0.92100818  1
  S  S6  1  0.52562992  0.38500617  0.91559968  1
  S  S7  1  0.02590706  0.66390275  0.41405558  1
  S  S8  1  0.51954831  0.66670294  0.42049327  1
  O  O0  1  0.13133752  0.05793248  0.30703623  1
  O  O1  1  0.61064449  0.02011542  0.30820088  1
  O  O2  1  0.40389951  0.76384576  0.30605023  1
  O  O3  1  0.90051388  0.78581822  0.30592426  1
  O  O4  1  0.48140413  0.21562069  0.29969848  1
  O  O5  1  0.98711738  0.21405250  0.31455301  1
  O  O6  1  0.11249804  0.20699069  0.81101513  1
  O  O7  1  0.62920357  0.21107847  0.81026097  1
  O  O8  1  0.48621046  0.75537990  0.81659069  1
  O  O9  1  0.98397517  0.74589926  0.80279802  1
  O  O10  1  0.39579640  0.01138286  0.80920499  1
  O  O11  1  0.89965081  0.04997365  0.80912166  1
  O  O12  1  0.40752173  0.98417860  0.69293078  1
  O  O13  1  0.90037051  0.98938938  0.69470639  1
  O  O14  1  0.08621586  0.17625603  0.69615135  1
  O  O15  1  0.59562494  0.22662936  0.69648840  1
  O  O16  1  -0.00002015  0.80352721  0.69920248  1
  O  O17  1  0.52199811  0.84476404  0.70516507  1
  O  O18  1  0.39697324  0.81563786  0.19088708  1
  O  O19  1  0.90538611  0.82785783  0.18970668  1
  O  O20  1  0.02357880  0.20363689  0.20254403  1
  O  O21  1  0.49897189  0.19565717  0.19579124  1
  O  O22  1  0.09815805  0.96825220  0.19322586  1
  O  O23  1  0.59103629  0.98829242  0.19276462  1
  O  O24  1  0.45677338  0.35765352  0.64167309  1
  O  O25  1  0.93883662  0.36104295  0.64039464  1
  O  O26  1  0.23189259  0.08410168  0.63848094  1
  O  O27  1  0.74264307  0.11125076  0.63720611  1
  O  O28  1  0.32035090  0.55392571  0.63410558  1
  O  O29  1  0.81780444  0.49345397  0.62936228  1
  O  O30  1  0.43778371  0.51371056  0.14048038  1
  O  O31  1  0.95812460  0.55462603  0.14153289  1
  O  O32  1  0.32485675  0.12681056  0.13257599  1
  O  O33  1  0.82056779  0.08727849  0.13376179  1
  O  O34  1  0.24568554  0.37764016  0.13612842  1
  O  O35  1  0.72816180  0.37226554  0.13919123  1
  O  O36  1  0.20723561  0.28677438  0.02602785  1
  O  O37  1  0.70187459  0.27848400  0.02818982  1
  O  O38  1  0.43572143  0.57220962  0.02632070  1
  O  O39  1  0.93633297  0.57753035  0.02641301  1
  O  O40  1  0.34920591  0.11010884  0.02952502  1
  O  O41  1  0.84082075  0.10815570  0.02922065  1
  O  O42  1  0.20561816  0.12488028  0.52709049  1
  O  O43  1  0.70547423  0.12698147  0.52548020  1
  O  O44  1  0.34137049  0.57484516  0.52965217  1
  O  O45  1  0.85524349  0.59504561  0.51883860  1
  O  O46  1  0.43354704  0.28788149  0.52740461  1
  O  O47  1  0.93847314  0.30393164  0.52493608  1
  O  O48  1  0.26438162  0.67979556  0.98075256  1
  O  O49  1  0.76009581  0.67546055  0.97762159  1
  O  O50  1  0.07165973  0.46234838  0.97070225  1
  O  O51  1  0.57129568  0.46972346  0.96877213  1
  O  O52  1  0.15976629  0.84401123  0.97472852  1
  O  O53  1  0.65822526  0.84465707  0.97874878  1
  O  O54  1  0.25908787  0.84398604  0.47661671  1
  O  O55  1  0.76262914  0.85000521  0.47702314  1
  O  O56  1  0.16010088  0.47551766  0.47697582  1
  O  O57  1  0.66041225  0.47858944  0.47155015  1
  O  O58  1  0.07269536  0.67160841  0.46681253  1
  O  O59  1  0.57268697  0.67467799  0.46790644  1
  O  O60  1  0.06691507  0.65429367  0.36018491  1
  O  O61  1  0.55138483  0.65055214  0.36310314  1
  O  O62  1  0.24874319  0.85766989  0.35969833  1
  O  O63  1  0.76919129  0.89495681  0.36074772  1
  O  O64  1  0.17578383  0.49303825  0.35806428  1
  O  O65  1  0.66584785  0.44638717  0.35441916  1
  O  O66  1  0.05347689  0.45747834  0.86590907  1
  O  O67  1  0.56530338  0.47733705  0.86241395  1
  O  O68  1  0.16926797  0.88000020  0.85708915  1
  O  O69  1  0.67460871  0.85442432  0.86037085  1
  O  O70  1  0.26454078  0.64493551  0.86413451  1
  O  O71  1  0.74831530  0.64181647  0.86076303  1
  O  O72  1  0.02097300  0.81571428  0.41508541  1
  O  O73  1  0.51224152  0.81634069  0.42195558  1
  O  O74  1  0.39405153  0.95880679  0.41634091  1
  O  O75  1  0.90433777  0.96762182  0.42462601  1
  O  O76  1  0.08958502  0.20316822  0.41989200  1
  O  O77  1  0.58219657  0.18707860  0.42468988  1
  O  O78  1  0.01275513  0.20705754  0.92157184  1
  O  O79  1  0.52013806  0.22195048  0.91664860  1
  O  O80  1  0.08235599  0.97694756  0.92297858  1
  O  O81  1  0.58823849  0.97420341  0.92019651  1
  O  O82  1  0.40348696  0.84446898  0.92501273  1
  O  O83  1  0.89492844  0.83043707  0.91624732  1
  O  O84  1  0.50193009  0.15903953  0.58977984  1
  O  O85  1  0.99694552  0.17228231  0.59292268  1
  O  O86  1  0.08082207  -0.00203379  0.59399280  1
  O  O87  1  0.58661783  0.00211436  0.59714991  1
  O  O88  1  0.40474682  0.82092147  0.58655401  1
  O  O89  1  0.91111951  0.82857291  0.59638353  1
  O  O90  1  0.49170409  0.82046137  0.09252809  1
  O  O91  1  0.00302836  0.84434216  0.08858490  1
  O  O92  1  0.40538996  0.00056517  0.09579495  1
  O  O93  1  0.90499132  0.98940566  0.08570327  1
  O  O94  1  0.08765642  0.17170627  0.09672265  1
  O  O95  1  0.57518315  0.16121961  0.09341908  1
  O  O96  1  0.34280371  0.16082813  0.74570408  1
  O  O97  1  0.84274007  0.18163292  0.73906036  1
  O  O98  1  0.23961940  0.32729046  0.74318522  1
  O  O99  1  0.74767287  0.32330375  0.73709049  1
  O  O100  1  0.42407592  0.52407429  0.74269132  1
  O  O101  1  0.92067390  0.52110737  0.73827663  1
  O  O102  1  0.34443105  0.51319514  0.24055452  1
  O  O103  1  0.84266733  0.52570072  0.24452670  1
  O  O104  1  0.41930153  0.31729863  0.23596693  1
  O  O105  1  0.92510128  0.32544023  0.24181353  1
  O  O106  1  0.25033810  0.17140348  0.23414015  1
  O  O107  1  0.74162739  0.15073144  0.24367937  1
  O  O108  1  0.32912325  0.51237402  0.92362514  1
  O  O109  1  0.81629048  0.50168814  0.91670477  1
  O  O110  1  0.44198379  0.36282560  0.91869551  1
  O  O111  1  0.93654764  0.35126156  0.92721730  1
  O  O112  1  0.25063516  0.13796961  0.92056010  1
  O  O113  1  0.75276628  0.12823065  0.91826998  1
  O  O114  1  0.31589131  0.13211890  0.41610020  1
  O  O115  1  0.82944672  0.15151088  0.42363816  1
  O  O116  1  0.25399781  0.37866341  0.41717781  1
  O  O117  1  0.75006639  0.35827714  0.41875695  1
  O  O118  1  0.43614912  0.51993196  0.42577508  1
  O  O119  1  0.94372774  0.51765370  0.41624000  1
  O  O120  1  0.17495277  0.51072476  0.07997322  1
  O  O121  1  0.66402215  0.50074685  0.07633596  1
  O  O122  1  0.08942247  0.68698516  0.07648223  1
  O  O123  1  0.58188503  0.67492990  0.08170085  1
  O  O124  1  0.25862503  0.86525513  0.08590540  1
  O  O125  1  0.75666995  0.84415938  0.07908491  1
  O  O126  1  0.16605925  0.82870520  0.57611755  1
  O  O127  1  0.67351734  0.83885913  0.57965043  1
  O  O128  1  0.25678213  0.66934682  0.57891625  1
  O  O129  1  0.75167902  0.65288686  0.58395419  1
  O  O130  1  0.08332304  0.49373076  0.58128434  1
  O  O131  1  0.58671995  0.48753540  0.57517104  1
  O  O132  1  0.15857575  0.82759075  0.25374906  1
  O  O133  1  0.64550388  0.81896779  0.24344912  1
  O  O134  1  0.25723173  0.66494780  0.24966935  1
  O  O135  1  0.76346335  0.69433975  0.24090924  1
  O  O136  1  0.08914406  0.49220924  0.25374352  1
  O  O137  1  0.56707525  0.45836117  0.24158887  1
  O  O138  1  0.14386916  0.46608244  0.74136885  1
  O  O139  1  0.65907155  0.49210108  0.75453361  1
  O  O140  1  0.06857073  0.67648057  0.74257213  1
  O  O141  1  0.58869589  0.68574186  0.75427279  1
  O  O142  1  0.26369576  0.83313407  0.74007354  1
  O  O143  1  0.75732719  0.85513384  0.75032920  1
loop_
_geom_bond_atom_site_label_1
_geom_bond_atom_site_label_2
_geom_bond_distance
_geom_bond_site_symmetry_2
Na0 O107 2.469237 1_555
Na0 O105 2.595940 1_555
Na0 O63 2.669366 1_545
Na0 O135 2.678689 1_545
Na0 O33 2.890607 1_555
Na0 O133 2.940948 1_545
Na0 O5 3.051271 1_555
Na1 O134 2.515303 1_555
Na1 O136 2.569183 1_555
Na1 O102 2.739408 1_555
Na1 O106 2.749498 1_555
Na1 O64 2.753711 1_555
Na1 O0 2.800845 1_555
Na1 O20 2.808971 1_555
Na1 O34 2.947319 1_555
Na2 O103 2.425191 1_555
Na2 O65 2.602929 1_555
Na2 O107 2.631961 1_555
Na2 O135 2.679467 1_555
Na2 O35 2.684257 1_555
Na2 O137 2.947285 1_555
Na3 O31 2.500403 1_455
Na3 O105 2.506142 1_455
Na3 O136 2.613604 1_555
Na3 O103 2.631550 1_455
Na3 O132 2.634763 1_555
Na3 O60 2.941475 1_555
Na3 O22 3.003744 1_555
Na4 O133 2.413436 1_555
Na4 O102 2.546700 1_555
Na4 O137 2.690186 1_555
Na4 O104 2.728552 1_555
Na4 O30 2.734930 1_555
Na4 O2 2.877682 1_555
Na4 O61 2.899753 1_555
Na5 O98 2.494328 1_555
Na5 O100 2.575802 1_555
Na5 O142 2.667085 1_555
Na5 O28 2.757491 1_555
Na5 O70 2.895350 1_555
Na5 O138 2.948116 1_555
Na6 O138 2.442318 1_655
Na6 O25 2.503796 1_555
Na6 O97 2.522339 1_555
Na6 O101 2.657439 1_555
Na6 O140 2.700430 1_655
Na7 O24 2.421533 1_555
Na7 O100 2.539705 1_555
Na7 O141 2.591309 1_555
Na7 O139 2.603741 1_555
Na7 O96 2.681200 1_555
Na7 O15 2.887862 1_555
Na8 O96 2.456667 1_555
Na8 O26 2.578457 1_555
Na8 O98 2.597927 1_555
Na8 O142 2.683357 1_545
Na8 O68 2.804485 1_545
Na8 O140 2.898711 1_545
Na9 O143 2.450582 1_545
Na9 O141 2.623097 1_545
Na9 O99 2.639835 1_555
Na9 O97 2.642212 1_555
Na9 O27 2.699356 1_555
Na9 O17 2.790612 1_545
Na9 O69 2.995373 1_545
Na9 O7 3.019498 1_555
Na10 O85 2.384972 1_455
Na10 O130 2.457710 1_555
Na10 O86 2.613651 1_555
Na10 O56 2.766802 1_555
Na10 O42 2.873356 1_555
Na10 O14 2.919093 1_555
Na10 O128 2.967460 1_555
Na11 O131 2.431552 1_555
Na11 O84 2.544182 1_555
Na11 O129 2.645942 1_555
Na11 O87 2.724797 1_555
Na11 O15 2.801458 1_555
Na11 O29 2.855792 1_555
Na11 O43 2.868193 1_555
Na11 O57 2.936115 1_555
Na12 O88 2.483068 1_555
Na12 O128 2.595475 1_555
Na12 O84 2.733072 1_565
Na12 O126 2.797471 1_555
Na12 O26 2.813578 1_565
Na12 O12 2.814255 1_555
Na12 O46 2.861633 1_565
Na12 O54 2.928395 1_555
Na13 O89 2.446930 1_555
Na13 O129 2.584336 1_555
Na13 O127 2.629636 1_555
Na13 O85 2.730226 1_565
Na13 O13 2.799531 1_555
Na13 O55 2.817667 1_555
Na13 O27 2.897379 1_565
Na14 O91 2.402129 1_555
Na14 O122 2.410144 1_555
Na14 O94 2.627124 1_565
Na14 O22 2.755589 1_555
Na14 O124 2.780439 1_555
Na14 O52 2.813201 1_554
Na14 O36 2.831024 1_565
Na15 O123 2.434194 1_555
Na15 O90 2.520808 1_555
Na15 O53 2.689786 1_554
Na15 O95 2.722384 1_565
Na15 O37 2.803687 1_565
Na15 O23 2.832254 1_555
Na15 O125 2.914441 1_555
Na16 O92 2.588464 1_565
Na16 O120 2.592451 1_555
Na16 O90 2.634608 1_555
Na16 O124 2.674789 1_555
Na16 O48 2.704598 1_554
Na16 O18 2.775572 1_555
Na16 O34 2.806141 1_555
Na16 O38 2.971510 1_555
Na17 O93 2.469852 1_555
Na17 O125 2.580853 1_555
Na17 O19 2.705593 1_555
Na17 O91 2.748985 1_655
Na17 O121 2.836101 1_555
Na17 O35 2.885512 1_555
Na17 O49 2.918106 1_554
Na17 O39 2.953352 1_555
Na18 O8 2.410329 1_555
Na18 O108 2.469163 1_555
Na18 O81 2.525115 1_555
Na18 O82 2.619358 1_555
Na18 O110 2.689165 1_555
Na18 O38 2.691285 1_556
Na19 O39 2.436826 1_556
Na19 O80 2.482667 1_655
Na19 O83 2.614185 1_555
Na19 O109 2.693551 1_555
Na19 O111 2.812712 1_555
Na19 O9 2.957329 1_555
Na20 O10 2.471678 1_555
Na20 O82 2.480907 1_545
Na20 O112 2.517038 1_555
Na20 O110 2.851330 1_555
Na20 O79 2.943634 1_555
Na20 O40 2.964104 1_556
Na21 O113 2.375980 1_555
Na21 O83 2.462617 1_545
Na21 O11 2.489096 1_555
Na21 O111 2.767989 1_555
Na21 O78 2.837320 1_655
Na21 O41 2.922788 1_556
Na21 O69 2.964033 1_545
Na22 O6 2.524378 1_555
Na22 O112 2.539094 1_555
Na22 O80 2.605631 1_545
Na22 O108 2.648877 1_555
Na22 O78 2.741321 1_555
Na22 O36 2.767266 1_556
Na23 O7 2.394005 1_555
Na23 O109 2.495323 1_555
Na23 O81 2.583656 1_545
Na23 O79 2.586511 1_555
Na23 O113 2.678032 1_555
Na23 O37 2.858482 1_556
Na24 O46 2.377335 1_555
Na24 O77 2.469316 1_555
Na24 O74 2.716073 1_545
Na24 O118 2.783266 1_555
Na24 O114 2.794850 1_555
Na25 O115 2.433770 1_555
Na25 O47 2.513448 1_555
Na25 O75 2.548226 1_545
Na25 O76 2.557940 1_655
Na25 O5 2.605587 1_555
Na25 O119 2.641392 1_555
Na26 O114 2.504751 1_555
Na26 O76 2.532083 1_555
Na26 O72 2.560894 1_545
Na26 O0 2.568065 1_555
Na26 O116 2.677623 1_555
Na26 O42 2.733639 1_555
Na27 O117 2.475892 1_555
Na27 O43 2.545119 1_555
Na27 O115 2.563399 1_555
Na27 O77 2.642895 1_555
Na27 O73 2.793572 1_545
Na27 O1 2.810951 1_555
Na28 O116 2.380414 1_555
Na28 O74 2.434303 1_555
Na28 O2 2.674064 1_555
Na28 O118 2.746954 1_555
Na28 O73 2.790037 1_555
Na28 O44 2.831986 1_555
Na29 O45 2.353831 1_555
Na29 O75 2.479397 1_555
Na29 O117 2.550164 1_555
Na29 O119 2.875151 1_555
Na29 O3 2.921139 1_555
Na29 O72 2.924941 1_655
Na30 O75 2.484821 1_555
Na30 O89 2.605941 1_555
Na30 O85 2.606678 1_565
Na30 O86 2.610321 1_665
Na30 O76 2.731608 1_665
Na30 O72 2.892100 1_655
Na31 O84 2.387386 1_555
Na31 O77 2.431595 1_555
Na31 O87 2.586631 1_555
Na31 O88 2.633649 1_545
Na31 O73 2.745802 1_545
Na31 O74 2.905395 1_545
Na32 O91 2.413309 1_555
Na32 O80 2.443019 1_554
Na32 O93 2.626868 1_455
Na32 O94 2.691319 1_565
Na32 O78 2.706772 1_564
Na32 O83 2.789084 1_454
Na33 O82 2.448279 1_555
Na33 O81 2.469925 1_555
Na33 O90 2.630706 1_556
Na33 O95 2.643723 1_566
Na33 O79 2.795896 1_565
Na33 O92 2.928783 1_566
Na34 O98 2.512676 1_555
Na34 O96 2.531387 1_555
Na34 O100 2.571411 1_555
Na34 O112 2.810657 1_555
Na34 O108 2.865236 1_555
Na34 O110 2.995128 1_555
Na35 O99 2.406762 1_555
Na35 O97 2.579430 1_555
Na35 O109 2.709976 1_555
Na35 O113 2.717855 1_555
Na35 O101 2.740033 1_555
Na36 O114 2.529978 1_555
Na36 O116 2.548026 1_555
Na36 O106 2.603085 1_555
Na36 O102 2.758101 1_555
Na36 O104 2.915708 1_555
Na37 O117 2.599828 1_555
Na37 O107 2.629783 1_555
Na37 O115 2.654364 1_555
Na37 O103 2.723978 1_555
Na37 O105 2.759794 1_555
Na37 O119 2.837737 1_555
Na38 O136 2.423641 1_555
Na38 O120 2.548751 1_555
Na38 O132 2.577081 1_555
Na38 O122 2.592385 1_555
Na38 O134 2.647841 1_555
Na38 O124 2.722890 1_555
Na39 O135 2.464900 1_555
Na39 O133 2.478008 1_555
Na39 O123 2.558969 1_555
Na39 O121 2.559691 1_555
Na39 O137 2.561757 1_555
Na39 O125 2.637821 1_555
Na40 O130 2.475462 1_555
Na40 O126 2.500122 1_555
Na40 O138 2.521038 1_555
Na40 O142 2.525396 1_555
Na40 O140 2.576548 1_555
Na40 O128 2.622018 1_555
Na41 O129 2.507939 1_555
Na41 O127 2.512695 1_555
Na41 O141 2.583966 1_555
Na41 O139 2.611516 1_555
Na41 O131 2.619892 1_555
Na41 O143 2.677733 1_555
La0 O5 2.236545 1_455
La0 O3 2.271351 1_445
La0 O0 2.416362 1_555
La0 O76 2.417010 1_555
La0 O75 2.448099 1_445
La0 O72 2.553058 1_545
La1 O1 2.253823 1_555
La1 O2 2.325486 1_545
La1 O74 2.366332 1_545
La1 O77 2.414166 1_555
La1 O4 2.449002 1_555
La1 O73 2.564767 1_545
La2 O6 2.260149 1_665
La2 O11 2.312551 1_565
La2 O83 2.389521 1_555
La2 O9 2.431206 1_555
La2 O80 2.496131 1_655
La2 O78 2.593753 1_665
La3 O8 2.240018 1_555
La3 O10 2.288333 1_565
La3 O7 2.355405 1_565
La3 O81 2.444292 1_555
La3 O82 2.503769 1_555
La3 O79 2.586998 1_565
La4 O24 2.270576 1_555
La4 O96 2.326811 1_555
La4 O26 2.344581 1_555
La4 O100 2.361242 1_555
La4 O98 2.409759 1_555
La4 O28 2.482140 1_555
La5 O31 2.294299 1_555
La5 O103 2.299748 1_555
La5 O105 2.339515 1_555
La5 O35 2.372489 1_555
La5 O107 2.385076 1_555
La5 O33 2.491679 1_555
La6 O36 2.278484 1_556
La6 O108 2.281280 1_555
La6 O38 2.300218 1_556
La6 O112 2.362617 1_555
La6 O40 2.502930 1_556
La6 O110 2.585130 1_555
La7 O37 2.269951 1_556
La7 O109 2.319870 1_555
La7 O39 2.379360 1_556
La7 O113 2.400735 1_555
La7 O111 2.500005 1_555
La7 O41 2.535142 1_556
La8 O42 2.244591 1_555
La8 O114 2.334046 1_555
La8 O46 2.353381 1_555
La8 O116 2.421023 1_555
La8 O118 2.484132 1_555
La8 O44 2.534031 1_555
La9 O43 2.308641 1_555
La9 O47 2.314264 1_555
La9 O45 2.329637 1_555
La9 O115 2.383555 1_555
La9 O117 2.421470 1_555
La9 O119 2.656604 1_555
La10 O63 2.209565 1_555
La10 O65 2.268273 1_555
La10 O135 2.351348 1_555
La10 O133 2.395693 1_555
La10 O61 2.467963 1_555
La10 O137 2.695957 1_555
La11 O70 2.218935 1_555
La11 O68 2.269957 1_555
La11 O142 2.331312 1_555
La11 O138 2.387065 1_555
La11 O66 2.465879 1_555
La11 O140 2.595578 1_555
O0 Si0 1.626867 1_555
O1 Si1 1.631745 1_545
O2 Si2 1.614240 1_555
O3 Si3 1.616587 1_555
O4 S0 1.471882 1_555
O5 Si4 1.618646 1_655
O6 Si5 1.642889 1_555
O7 Si6 1.630762 1_555
O8 Si7 1.623445 1_555
O9 S1 1.488909 1_555
O10 Si8 1.623868 1_555
O11 Si9 1.630107 1_555
O12 Si8 1.665169 1_565
O12 Sn1 2.020444 1_565
O13 Si9 1.642325 1_565
O13 Sn0 2.037985 1_565
O14 Si5 1.657118 1_555
O14 Sn0 2.026994 1_455
O15 Si6 1.663471 1_555
O15 Sn1 2.029535 1_555
O16 S1 1.470512 1_455
O16 Sn0 2.237012 1_465
O17 Si7 1.663331 1_555
O17 Sn1 2.064956 1_565
O18 Si2 1.659651 1_555
O18 Sn3 2.025214 1_555
O19 Si3 1.673199 1_555
O19 Sn2 2.021904 1_665
O20 Si4 1.668968 1_555
O20 Sn2 2.057182 1_555
O21 S0 1.496361 1_555
O21 Sn3 2.202784 1_545
O22 Si0 1.660375 1_565
O22 Sn2 2.032610 1_565
O23 Si1 1.673922 1_555
O23 Sn3 1.986021 1_555
O24 Si10 1.620260 1_555
O25 Si11 1.654672 1_555
O25 Sn4 2.087677 1_555
O26 Si12 1.632650 1_555
O27 Si13 1.671542 1_555
O27 Sn4 2.063866 1_555
O28 S2 1.491750 1_555
O29 Si14 1.657176 1_555
O29 Sn4 2.024278 1_555
O30 Si15 1.670072 1_555
O30 Sn5 2.045988 1_555
O31 Si16 1.624373 1_555
O32 S3 1.502290 1_555
O32 Sn5 2.305954 1_555
O33 S4 1.487865 1_555
O34 Si17 1.682125 1_555
O34 Sn5 2.044412 1_555
O35 Si18 1.630497 1_555
O36 Si17 1.627321 1_555
O37 Si18 1.646270 1_555
O38 Si15 1.606683 1_555
O39 Si16 1.641227 1_555
O40 S3 1.467982 1_555
O41 S4 1.481620 1_555
O42 Si12 1.649723 1_555
O43 Si13 1.633985 1_555
O44 S2 1.477640 1_555
O45 Si14 1.627836 1_555
O46 Si10 1.646846 1_555
O47 Si11 1.618458 1_555
O48 Si19 1.679208 1_555
O48 Sn6 2.013812 1_556
O49 Si20 1.656268 1_555
O49 Sn7 2.029280 1_556
O50 S5 1.496683 1_555
O50 Sn6 2.164034 1_556
O51 S6 1.494634 1_555
O51 Sn7 2.128375 1_556
O52 Si21 1.675715 1_555
O52 Sn6 2.030485 1_556
O53 Si22 1.671576 1_555
O53 Sn7 2.008911 1_556
O54 Si23 1.650766 1_555
O54 Sn8 2.028890 1_555
O55 Si24 1.663862 1_555
O55 Sn9 2.019776 1_555
O56 Si25 1.663985 1_555
O56 Sn8 2.007938 1_555
O57 Si26 1.662101 1_555
O57 Sn9 2.045427 1_555
O58 S7 1.495842 1_555
O58 Sn8 2.120068 1_555
O59 S8 1.472465 1_555
O59 Sn9 2.366104 1_555
O60 S7 1.488405 1_555
O60 Sn10 2.312506 1_555
O61 S8 1.491783 1_555
O62 Si23 1.648059 1_555
O62 Sn10 1.992235 1_555
O63 Si24 1.644227 1_555
O64 Si25 1.661807 1_555
O64 Sn10 2.044640 1_555
O65 Si26 1.641731 1_555
O66 S5 1.477327 1_555
O67 S6 1.471316 1_555
O67 Sn11 2.388541 1_555
O68 Si21 1.630760 1_555
O69 Si22 1.652127 1_555
O69 Sn11 2.046128 1_555
O70 Si19 1.631485 1_555
O71 Si20 1.642634 1_555
O71 Sn11 2.003121 1_555
O72 S7 1.484400 1_555
O73 S8 1.489094 1_555
O74 Si23 1.642006 1_555
O75 Si24 1.645305 1_555
O76 Si25 1.632564 1_555
O77 Si26 1.659267 1_555
O78 S5 1.482209 1_555
O79 S6 1.492597 1_555
O80 Si21 1.652919 1_555
O81 Si22 1.632614 1_555
O82 Si19 1.636176 1_555
O83 Si20 1.643431 1_555
O84 Si10 1.672298 1_555
O84 Sn1 2.120295 1_555
O85 Si11 1.669015 1_555
O85 Sn0 2.061286 1_555
O86 Si12 1.649263 1_555
O86 Sn0 2.053586 1_455
O87 Si13 1.653530 1_555
O87 Sn1 2.019589 1_555
O88 S2 1.475627 1_555
O88 Sn1 2.565461 1_565
O89 Si14 1.646306 1_555
O89 Sn0 2.026890 1_565
O90 Si15 1.681709 1_555
O90 Sn3 2.056849 1_555
O91 Si16 1.673321 1_455
O91 Sn2 2.149871 1_565
O92 S3 1.496223 1_555
O92 Sn3 2.260106 1_545
O93 S4 1.478133 1_565
O93 Sn2 2.562337 1_665
O94 Si17 1.644297 1_555
O94 Sn2 2.030311 1_555
O95 Si18 1.671245 1_555
O95 Sn3 2.027835 1_545
O96 Si8 1.636906 1_555
O97 Si9 1.670537 1_555
O97 Sn4 2.094365 1_555
O98 Si5 1.637475 1_555
O99 Si6 1.655955 1_555
O99 Sn4 2.080978 1_555
O100 Si7 1.631376 1_555
O101 S1 1.491021 1_555
O101 Sn4 2.325676 1_555
O102 Si2 1.685536 1_555
O102 Sn5 2.029474 1_555
O103 Si3 1.638085 1_555
O104 S0 1.493321 1_555
O104 Sn5 2.261461 1_555
O105 Si4 1.625631 1_655
O106 Si0 1.680284 1_555
O106 Sn5 2.024278 1_555
O107 Si1 1.632753 1_545
O108 Si19 1.645147 1_555
O109 Si20 1.657758 1_555
O110 S6 1.491342 1_555
O111 S5 1.485223 1_655
O112 Si21 1.649841 1_545
O113 Si22 1.654183 1_545
O114 Si23 1.657628 1_545
O115 Si24 1.638279 1_545
O116 Si25 1.655286 1_555
O117 Si26 1.640796 1_555
O118 S8 1.497286 1_555
O119 S7 1.478363 1_655
O120 Si17 1.663905 1_555
O120 Sn6 2.097086 1_555
O121 Si18 1.659465 1_555
O121 Sn7 2.019668 1_555
O122 Si16 1.680572 1_455
O122 Sn6 2.028112 1_555
O123 Si15 1.660765 1_555
O123 Sn7 2.132342 1_555
O124 S3 1.498403 1_565
O124 Sn6 2.418858 1_555
O125 S4 1.513415 1_565
O125 Sn7 2.253185 1_555
O126 Si12 1.656589 1_565
O126 Sn8 2.021342 1_555
O127 Si13 1.655840 1_565
O127 Sn9 2.096836 1_555
O128 S2 1.510153 1_555
O128 Sn8 2.257894 1_555
O129 Si14 1.671403 1_555
O129 Sn9 2.076827 1_555
O130 Si11 1.670724 1_455
O130 Sn8 2.097809 1_555
O131 Si10 1.655587 1_555
O131 Sn9 2.035338 1_555
O132 Si0 1.660705 1_565
O132 Sn10 2.088166 1_555
O133 Si1 1.641167 1_555
O134 Si2 1.648693 1_555
O134 Sn10 2.067023 1_555
O135 Si3 1.649331 1_555
O136 Si4 1.677307 1_555
O136 Sn10 2.118982 1_555
O137 S0 1.489689 1_555
O138 Si5 1.642604 1_555
O139 Si6 1.667184 1_555
O139 Sn11 2.071955 1_555
O140 S1 1.497962 1_455
O141 Si7 1.674174 1_555
O141 Sn11 2.107419 1_555
O142 Si8 1.651547 1_565
O143 Si9 1.655102 1_565
O143 Sn11 2.049505 1_555
