# generated using pymatgen
data_KMgAg2SbS4
_symmetry_space_group_name_H-M   'P 1'
_cell_length_a   6.20979396
_cell_length_b   6.58464962
_cell_length_c   7.63503151
_cell_angle_alpha   91.02312367
_cell_angle_beta   99.42131228
_cell_angle_gamma   118.49208358
_symmetry_Int_Tables_number   1
_chemical_formula_structural   KMgAg2SbS4
_chemical_formula_sum   'K1 Mg1 Ag2 Sb1 S4'
_cell_volume   269.01620071
_cell_formula_units_Z   1
loop_
 _symmetry_equiv_pos_site_id
 _symmetry_equiv_pos_as_xyz
  1  'x, y, z'
loop_
 _atom_site_type_symbol
 _atom_site_label
 _atom_site_symmetry_multiplicity
 _atom_site_fract_x
 _atom_site_fract_y
 _atom_site_fract_z
 _atom_site_occupancy
  K  K0  1  0.88475521  0.86796741  0.90707256  1
  Mg  Mg0  1  0.38791875  0.21642808  0.36959777  1
  Ag  Ag0  1  0.54651256  0.17960463  0.76775782  1
  Ag  Ag1  1  0.47876803  0.82370019  0.26745343  1
  Sb  Sb0  1  0.02145068  0.52597801  0.52374972  1
  S  S0  1  0.99759925  0.43764417  0.82641824  1
  S  S1  1  0.46496781  0.11468993  0.09816160  1
  S  S2  1  0.45050051  0.58525815  0.50454364  1
  S  S3  1  0.13752721  0.94872943  0.56524522  1
loop_
_geom_bond_atom_site_label_1
_geom_bond_atom_site_label_2
_geom_bond_distance
_geom_bond_site_symmetry_2
K0 S3 3.186277 1_655
K0 S1 3.218590 1_666
K0 S0 3.297340 1_555
K0 S2 3.532075 1_555
K0 S0 3.557679 1_565
Mg0 S1 2.356585 1_555
Mg0 S2 2.447416 1_555
Mg0 S3 2.448601 1_545
Ag0 S0 2.440335 1_555
Ag0 S3 2.469569 1_545
Ag0 S1 2.655759 1_556
Ag0 K0 3.634917 1_545
Ag1 S1 2.357578 1_565
Ag1 S2 2.390662 1_555
Ag1 K0 3.950988 1_554
S0 Sb0 2.403809 1_655
S2 Sb0 2.531827 1_555
S3 Sb0 2.519554 1_555
