# generated using pymatgen
data_Pu(CuSi)2
_symmetry_space_group_name_H-M   'P 1'
_cell_length_a   5.73981367
_cell_length_b   5.73981367
_cell_length_c   5.73981367
_cell_angle_alpha   139.39237929
_cell_angle_beta   139.39237929
_cell_angle_gamma   58.77705668
_symmetry_Int_Tables_number   1
_chemical_formula_structural   Pu(CuSi)2
_chemical_formula_sum   'Pu1 Cu2 Si2'
_cell_volume   79.35624563
_cell_formula_units_Z   1
loop_
 _symmetry_equiv_pos_site_id
 _symmetry_equiv_pos_as_xyz
  1  'x, y, z'
loop_
 _atom_site_type_symbol
 _atom_site_label
 _atom_site_symmetry_multiplicity
 _atom_site_fract_x
 _atom_site_fract_y
 _atom_site_fract_z
 _atom_site_occupancy
  Pu  Pu0  1  0.00000000  0.00000000  0.00000000  1
  Cu  Cu0  1  0.75000000  0.25000000  0.50000000  1
  Cu  Cu1  1  0.25000000  0.75000000  0.50000000  1
  Si  Si0  1  0.61767100  0.61767100  0.00000000  1
  Si  Si1  1  0.38232900  0.38232900  0.00000000  1
loop_
_geom_bond_atom_site_label_1
_geom_bond_atom_site_label_2
_geom_bond_distance
_geom_bond_site_symmetry_2
Pu0 Si1 3.052714 1_545
Pu0 Si0 3.052714 1_444
Pu0 Si0 3.052714 1_455
Pu0 Si1 3.052714 1_444
Pu0 Si1 3.052714 1_556
Pu0 Si0 3.052714 1_545
Pu0 Si0 3.052714 1_556
Pu0 Si1 3.052714 1_455
Cu0 Si1 2.391401 1_656
Cu0 Si0 2.391401 1_545
Cu0 Si0 2.391401 1_556
Cu0 Si1 2.391401 1_555
Cu0 Cu1 2.816695 1_645
Cu0 Cu1 2.816695 1_656
Cu0 Cu1 2.816695 1_544
Cu0 Cu1 2.816695 1_555
Cu0 Pu0 3.196843 1_655
Cu0 Pu0 3.196843 1_555
Cu0 Pu0 3.196843 1_656
Cu0 Pu0 3.196843 1_666
Cu1 Si1 2.391401 1_566
Cu1 Si0 2.391401 1_556
Cu1 Si1 2.391401 1_555
Cu1 Si0 2.391401 1_455
Cu1 Pu0 3.196843 1_565
Cu1 Pu0 3.196843 1_555
Cu1 Pu0 3.196843 1_566
Cu1 Pu0 3.196843 1_666
Si0 Si1 2.353970 1_555
