# generated using pymatgen
data_MgVSbO4
_symmetry_space_group_name_H-M   'P 1'
_cell_length_a   3.12597300
_cell_length_b   5.17931572
_cell_length_c   5.58003136
_cell_angle_alpha   86.25574658
_cell_angle_beta   90.00000000
_cell_angle_gamma   90.00000000
_symmetry_Int_Tables_number   1
_chemical_formula_structural   MgVSbO4
_chemical_formula_sum   'Mg1 V1 Sb1 O4'
_cell_volume   90.15010692
_cell_formula_units_Z   1
loop_
 _symmetry_equiv_pos_site_id
 _symmetry_equiv_pos_as_xyz
  1  'x, y, z'
loop_
 _atom_site_type_symbol
 _atom_site_label
 _atom_site_symmetry_multiplicity
 _atom_site_fract_x
 _atom_site_fract_y
 _atom_site_fract_z
 _atom_site_occupancy
  Mg  Mg0  1  0.41518000  0.50000000  0.00000000  1
  V  V0  1  0.94630400  0.00000000  0.00000000  1
  Sb  Sb0  1  0.60508600  0.50000000  0.50000000  1
  O  O0  1  0.46038100  0.18118800  0.81217000  1
  O  O1  1  0.46038100  0.81881200  0.18783000  1
  O  O2  1  0.93133400  0.33064000  0.21688700  1
  O  O3  1  0.93133400  0.66936000  0.78311300  1
loop_
_geom_bond_atom_site_label_1
_geom_bond_atom_site_label_2
_geom_bond_distance
_geom_bond_site_symmetry_2
Mg0 O0 2.017687 1_554
Mg0 O1 2.017687 1_555
Mg0 O2 2.093579 1_455
Mg0 O3 2.093579 1_454
Mg0 O2 2.167666 1_555
Mg0 O3 2.167666 1_554
O0 V0 2.039119 1_556
O0 V0 2.105497 1_456
O0 Sb0 2.364273 1_555
O1 V0 2.039119 1_565
O1 V0 2.105497 1_465
O1 Sb0 2.364273 1_555
O2 Sb0 2.118063 1_555
O2 V0 2.161056 1_555
O3 Sb0 2.118063 1_555
O3 V0 2.161056 1_566
