# generated using pymatgen
data_MgFe6(OF)6
_symmetry_space_group_name_H-M   'P 1'
_cell_length_a   5.08032333
_cell_length_b   14.44798012
_cell_length_c   3.12520944
_cell_angle_alpha   90.07327520
_cell_angle_beta   89.99161473
_cell_angle_gamma   84.07943760
_symmetry_Int_Tables_number   1
_chemical_formula_structural   MgFe6(OF)6
_chemical_formula_sum   'Mg1 Fe6 O6 F6'
_cell_volume   228.16785341
_cell_formula_units_Z   1
loop_
 _symmetry_equiv_pos_site_id
 _symmetry_equiv_pos_as_xyz
  1  'x, y, z'
loop_
 _atom_site_type_symbol
 _atom_site_label
 _atom_site_symmetry_multiplicity
 _atom_site_fract_x
 _atom_site_fract_y
 _atom_site_fract_z
 _atom_site_occupancy
  Mg  Mg0  1  0.63575137  0.65975730  0.47586098  1
  Fe  Fe0  1  0.01005896  -0.00048655  -0.00990877  1
  Fe  Fe1  1  0.91719101  0.30998810  0.99545966  1
  Fe  Fe2  1  0.15297566  0.67704521  0.97620874  1
  Fe  Fe3  1  0.45080679  0.18181498  0.49377033  1
  Fe  Fe4  1  0.30644263  0.45929095  0.49304772  1
  Fe  Fe5  1  0.50806860  0.85101446  0.48110895  1
  O  O0  1  0.09830476  0.25416230  0.49488847  1
  O  O1  1  0.32602279  0.58549514  0.47897251  1
  O  O2  1  0.18000631  0.94471356  0.49015285  1
  O  O3  1  0.46252786  0.75067624  0.98130802  1
  O  O4  1  0.15024538  0.41534127  0.99300452  1
  O  O5  1  0.60575129  0.23600340  -0.00564042  1
  F  F0  1  0.29026791  0.10082884  -0.00785187  1
  F  F1  1  0.82870421  0.59750184  0.97440039  1
  F  F2  1  0.70829369  0.92278605  -0.01461806  1
  F  F3  1  0.78665784  0.07655615  0.49052136  1
  F  F4  1  0.67909901  0.39531589  0.49382004  1
  F  F5  1  0.91671191  0.74886187  0.47549458  1
loop_
_geom_bond_atom_site_label_1
_geom_bond_atom_site_label_2
_geom_bond_distance
_geom_bond_site_symmetry_2
Mg0 O1 1.993884 1_555
Mg0 O3 2.157758 1_554
Mg0 O3 2.179682 1_555
Fe0 O2 1.915425 1_544
Fe0 O2 1.917596 1_545
Fe1 O0 1.945216 1_656
Fe1 O0 1.946210 1_655
Fe1 O5 1.998731 1_556
Fe1 O4 2.022530 1_655
Fe2 O3 1.987515 1_555
Fe2 O1 2.166036 1_555
Fe2 O1 2.181073 1_556
Fe3 O5 1.948967 1_555
Fe3 O5 1.950499 1_556
Fe3 O0 1.978251 1_555
Fe4 O1 1.836906 1_555
Fe4 O4 1.891251 1_554
Fe4 O4 1.892177 1_555
Fe5 O2 2.036089 1_555
Fe5 O3 2.158335 1_554
Fe5 O3 2.161869 1_555
F0 Fe0 2.144557 1_555
F0 Fe3 2.159020 1_554
F0 Fe3 2.164358 1_555
F1 Mg0 2.004888 1_555
F1 Mg0 2.009981 1_556
F1 Fe2 2.103638 1_655
F2 Fe0 1.982415 1_665
F2 Fe5 2.175182 1_555
F2 Fe5 2.192607 1_554
F3 Fe3 2.165351 1_555
F3 Fe0 2.169670 1_655
F3 Fe0 2.170024 1_656
F4 Fe4 2.019311 1_555
F4 Fe1 2.257338 1_554
F4 Fe1 2.266841 1_555
F5 Mg0 2.018373 1_555
F5 Fe2 2.165751 1_654
F5 Fe2 2.171134 1_655
F5 Fe5 2.419989 1_555
