# generated using pymatgen
data_MgTiV4CoO12
_symmetry_space_group_name_H-M   'P 1'
_cell_length_a   7.17158989
_cell_length_b   7.16557674
_cell_length_c   5.56598561
_cell_angle_alpha   79.35863625
_cell_angle_beta   100.63329633
_cell_angle_gamma   98.42465956
_symmetry_Int_Tables_number   1
_chemical_formula_structural   MgTiV4CoO12
_chemical_formula_sum   'Mg1 Ti1 V4 Co1 O12'
_cell_volume   274.40385131
_cell_formula_units_Z   1
loop_
 _symmetry_equiv_pos_site_id
 _symmetry_equiv_pos_as_xyz
  1  'x, y, z'
loop_
 _atom_site_type_symbol
 _atom_site_label
 _atom_site_symmetry_multiplicity
 _atom_site_fract_x
 _atom_site_fract_y
 _atom_site_fract_z
 _atom_site_occupancy
  Mg  Mg0  1  0.56778993  0.56765087  0.24928355  1
  Ti  Ti0  1  0.89940485  0.90024670  0.24977357  1
  V  V0  1  0.21325589  0.62685158  0.65902729  1
  V  V1  1  0.36785674  0.87007364  0.11306599  1
  V  V2  1  0.62672610  0.21297127  0.84103015  1
  V  V3  1  0.87032733  0.36840729  0.38820230  1
  Co  Co0  1  0.09550444  0.09464414  0.74954185  1
  O  O0  1  0.06784484  0.80759026  0.60291556  1
  O  O1  1  0.08173859  0.39838365  0.68997174  1
  O  O2  1  0.12702049  0.95639519  0.09589265  1
  O  O3  1  0.33974333  0.64554789  0.41675114  1
  O  O4  1  0.39820223  0.08183711  0.81145703  1
  O  O5  1  0.36875750  0.65169925  0.94385783  1
  O  O6  1  0.64709056  0.33983130  0.08328627  1
  O  O7  1  0.63126693  0.86909065  0.25927412  1
  O  O8  1  0.65088159  0.36809601  0.55570735  1
  O  O9  1  0.80681889  0.06696702  0.89640653  1
  O  O10  1  0.86811635  0.63177469  0.24159852  1
  O  O11  1  0.95807444  0.12836249  0.40295456  1
loop_
_geom_bond_atom_site_label_1
_geom_bond_atom_site_label_2
_geom_bond_distance
_geom_bond_site_symmetry_2
Mg0 O5 2.066004 1_554
Mg0 O8 2.069440 1_555
Mg0 O10 2.142112 1_555
Mg0 O7 2.150065 1_555
Mg0 O6 2.205678 1_555
Mg0 O3 2.208475 1_555
Co0 O11 1.986747 1_455
Co0 O2 1.987031 1_546
Co0 O4 2.147154 1_555
Co0 O1 2.154312 1_555
Co0 O0 2.318823 1_545
Co0 O9 2.331999 1_455
O0 V0 1.728719 1_555
O0 Ti0 2.154142 1_455
O1 V0 1.761462 1_555
O1 V3 2.064964 1_455
O2 V1 1.898725 1_555
O2 Ti0 1.938129 1_455
O3 V0 1.734468 1_555
O3 V1 2.124282 1_555
O4 V2 1.761333 1_555
O4 V1 2.065276 1_546
O5 V0 1.783910 1_555
O5 V1 1.971057 1_556
O6 V2 1.734051 1_554
O6 V3 2.124833 1_555
O7 Ti0 1.912549 1_555
O7 V1 1.914507 1_555
O8 V2 1.783478 1_555
O8 V3 1.971220 1_555
O9 V2 1.728462 1_555
O9 Ti0 2.149231 1_546
O10 Ti0 1.911893 1_555
O10 V3 1.913847 1_555
O11 V3 1.899285 1_555
O11 Ti0 1.938198 1_545
