# generated using pymatgen
data_Sr3Mg(FeO3)2
_symmetry_space_group_name_H-M   'P 1'
_cell_length_a   3.96450513
_cell_length_b   3.99511600
_cell_length_c   11.58341825
_cell_angle_alpha   89.48135368
_cell_angle_beta   89.71108886
_cell_angle_gamma   90.05601455
_symmetry_Int_Tables_number   1
_chemical_formula_structural   Sr3Mg(FeO3)2
_chemical_formula_sum   'Sr3 Mg1 Fe2 O6'
_cell_volume   183.45585351
_cell_formula_units_Z   1
loop_
 _symmetry_equiv_pos_site_id
 _symmetry_equiv_pos_as_xyz
  1  'x, y, z'
loop_
 _atom_site_type_symbol
 _atom_site_label
 _atom_site_symmetry_multiplicity
 _atom_site_fract_x
 _atom_site_fract_y
 _atom_site_fract_z
 _atom_site_occupancy
  Sr  Sr0  1  0.89091721  0.89800402  0.42842639  1
  Sr  Sr1  1  0.41512254  0.42181383  0.66049225  1
  Sr  Sr2  1  0.41652481  0.41873362  0.95496050  1
  Mg  Mg0  1  0.40689624  0.40768881  0.23972798  1
  Fe  Fe0  1  0.91641738  0.91992685  0.80971666  1
  Fe  Fe1  1  0.90926698  0.91000787  0.14811578  1
  O  O0  1  0.87332989  0.86580193  0.62210675  1
  O  O1  1  0.41297871  0.41072312  0.41016381  1
  O  O2  1  0.91552578  0.40957464  0.83246117  1
  O  O3  1  0.40854414  0.91856545  0.83503799  1
  O  O4  1  0.90894847  0.40950004  0.16590149  1
  O  O5  1  0.40885985  0.90965883  0.17413723  1
loop_
_geom_bond_atom_site_label_1
_geom_bond_atom_site_label_2
_geom_bond_distance
_geom_bond_site_symmetry_2
Mg0 O1 1.974645 1_555
Mg0 O5 2.136235 1_545
Mg0 O5 2.138077 1_555
Mg0 O4 2.155327 1_455
Mg0 O4 2.162336 1_555
Fe0 O3 1.974430 1_655
Fe0 O2 1.976227 1_565
Fe0 O3 2.033248 1_555
Fe0 O2 2.053498 1_555
Fe0 O0 2.193344 1_555
Fe1 O5 2.004944 1_655
Fe1 O5 2.005128 1_555
Fe1 O4 2.007991 1_565
Fe1 O4 2.008315 1_555
O0 Sr0 2.246730 1_555
O0 Sr1 2.572002 1_555
O0 Sr1 2.821428 1_655
O0 Sr1 2.906811 1_565
O0 Sr1 3.124715 1_665
O1 Sr0 2.725633 1_555
O1 Sr0 2.799034 1_545
O1 Sr0 2.851176 1_455
O1 Sr1 2.900454 1_555
O1 Sr0 2.916119 1_445
O2 Sr2 2.429239 1_555
O2 Sr2 2.447254 1_655
O2 Sr1 2.802080 1_655
O2 Sr1 2.818573 1_555
O3 Sr2 2.422506 1_555
O3 Sr2 2.444203 1_565
O3 Sr1 2.838403 1_565
O3 Sr1 2.845922 1_555
