# generated using pymatgen
data_CaAl2O4
_symmetry_space_group_name_H-M   'P 1'
_cell_length_a   8.10965035
_cell_length_b   8.69306437
_cell_length_c   15.19462662
_cell_angle_alpha   90.20600451
_cell_angle_beta   90.00000000
_cell_angle_gamma   90.00000000
_symmetry_Int_Tables_number   1
_chemical_formula_structural   CaAl2O4
_chemical_formula_sum   'Ca12 Al24 O48'
_cell_volume   1071.17949548
_cell_formula_units_Z   12
loop_
 _symmetry_equiv_pos_site_id
 _symmetry_equiv_pos_as_xyz
  1  'x, y, z'
loop_
 _atom_site_type_symbol
 _atom_site_label
 _atom_site_symmetry_multiplicity
 _atom_site_fract_x
 _atom_site_fract_y
 _atom_site_fract_z
 _atom_site_occupancy
  Ca  Ca0  1  0.03424775  0.76143622  0.25309978  1
  Ca  Ca1  1  0.53424775  0.73856378  0.24690022  1
  Ca  Ca2  1  0.96575225  0.23856378  0.74690022  1
  Ca  Ca3  1  0.46575225  0.26143622  0.75309978  1
  Ca  Ca4  1  0.96794735  0.23193500  0.42909701  1
  Ca  Ca5  1  0.46794735  0.26806500  0.07090299  1
  Ca  Ca6  1  0.03205265  0.76806500  0.57090299  1
  Ca  Ca7  1  0.53205265  0.73193500  0.92909701  1
  Ca  Ca8  1  0.53572938  0.26033067  0.41048728  1
  Ca  Ca9  1  0.03572938  0.23966933  0.08951272  1
  Ca  Ca10  1  0.46427062  0.73966933  0.58951272  1
  Ca  Ca11  1  0.96427062  0.76033067  0.91048728  1
  Al  Al0  1  0.83563630  0.56104671  0.40756228  1
  Al  Al1  1  0.33563630  0.93895329  0.09243772  1
  Al  Al2  1  0.16436370  0.43895329  0.59243772  1
  Al  Al3  1  0.66436370  0.06104671  0.90756228  1
  Al  Al4  1  0.22712287  0.56408720  0.40861763  1
  Al  Al5  1  0.72712287  0.93591280  0.09138237  1
  Al  Al6  1  0.77287713  0.43591280  0.59138237  1
  Al  Al7  1  0.27287713  0.06408720  0.90861763  1
  Al  Al8  1  0.72013614  0.88762491  0.41960443  1
  Al  Al9  1  0.22013614  0.61237509  0.08039557  1
  Al  Al10  1  0.27986386  0.11237509  0.58039557  1
  Al  Al11  1  0.77986386  0.38762491  0.91960443  1
  Al  Al12  1  0.33059174  0.90086882  0.42192347  1
  Al  Al13  1  0.83059174  0.59913118  0.07807653  1
  Al  Al14  1  0.66940826  0.09913118  0.57807653  1
  Al  Al15  1  0.16940826  0.40086882  0.92192347  1
  Al  Al16  1  0.22493891  0.08090521  0.26716286  1
  Al  Al17  1  0.72493891  0.41909479  0.23283714  1
  Al  Al18  1  0.77506109  0.91909479  0.73283714  1
  Al  Al19  1  0.27506109  0.58090521  0.76716286  1
  Al  Al20  1  0.82920904  0.07559879  0.26176675  1
  Al  Al21  1  0.32920904  0.42440121  0.23823325  1
  Al  Al22  1  0.17079096  0.92440121  0.73823325  1
  Al  Al23  1  0.67079096  0.57559879  0.76176675  1
  O  O0  1  0.74438955  0.57888905  0.30369732  1
  O  O1  1  0.24438955  0.92111095  0.19630268  1
  O  O2  1  0.25561045  0.42111095  0.69630268  1
  O  O3  1  0.75561045  0.07888905  0.80369732  1
  O  O4  1  0.22631055  0.75304120  0.36623483  1
  O  O5  1  0.72631055  0.74695880  0.13376517  1
  O  O6  1  0.77368945  0.24695880  0.63376517  1
  O  O7  1  0.27368945  0.25304120  0.86623483  1
  O  O8  1  0.85801548  0.74492001  0.45375533  1
  O  O9  1  0.35801548  0.75507999  0.04624467  1
  O  O10  1  0.14198452  0.25507999  0.54624467  1
  O  O11  1  0.64198452  0.24492001  0.95375533  1
  O  O12  1  0.52352138  0.82007618  0.44558467  1
  O  O13  1  0.02352138  0.67992382  0.05441533  1
  O  O14  1  0.47647862  0.17992382  0.55441533  1
  O  O15  1  0.97647862  0.32007618  0.94558467  1
  O  O16  1  0.72698746  0.91532080  0.30472872  1
  O  O17  1  0.22698746  0.58467920  0.19527128  1
  O  O18  1  0.27301254  0.08467920  0.69527128  1
  O  O19  1  0.77301254  0.41532080  0.80472872  1
  O  O20  1  0.36565335  0.44576498  0.35130727  1
  O  O21  1  0.02538468  0.06559189  0.31190929  1
  O  O22  1  0.97461532  0.93440811  0.68809071  1
  O  O23  1  0.47461532  0.56559189  0.81190929  1
  O  O24  1  0.35554294  0.06813043  0.35883690  1
  O  O25  1  0.85554294  0.43186957  0.14116310  1
  O  O26  1  0.64445706  0.93186957  0.64116310  1
  O  O27  1  0.14445706  0.56813043  0.85883690  1
  O  O28  1  0.75798263  0.06466742  0.47341930  1
  O  O29  1  0.25798263  0.43533258  0.02658070  1
  O  O30  1  0.24201737  0.93533258  0.52658070  1
  O  O31  1  0.74201737  0.56466742  0.97341930  1
  O  O32  1  0.74621844  0.25179918  0.29689205  1
  O  O33  1  0.24621844  0.24820082  0.20310795  1
  O  O34  1  0.25378156  0.74820082  0.70310795  1
  O  O35  1  0.75378156  0.75179918  0.79689205  1
  O  O36  1  0.75934729  0.92335449  0.97634876  1
  O  O37  1  0.25934729  0.57664551  0.52365124  1
  O  O38  1  0.24065271  0.07664551  0.02365124  1
  O  O39  1  0.74065271  0.42335449  0.47634876  1
  O  O40  1  0.46756963  0.98370809  0.88889020  1
  O  O41  1  0.96756963  0.51629191  0.61110980  1
  O  O42  1  0.53243037  0.01629191  0.11110980  1
  O  O43  1  0.03243037  0.48370809  0.38889020  1
  O  O44  1  0.13434665  0.94576498  0.85130727  1
  O  O45  1  0.63434665  0.55423502  0.64869273  1
  O  O46  1  0.86565335  0.05423502  0.14869273  1
  O  O47  1  0.52538468  0.43440811  0.18809071  1
loop_
_geom_bond_atom_site_label_1
_geom_bond_atom_site_label_2
_geom_bond_distance
_geom_bond_site_symmetry_2
Ca0 O4 2.321065 1_555
Ca0 O17 2.359348 1_555
Ca0 O1 2.363120 1_555
Ca0 O21 2.788844 1_565
Ca0 O0 2.940004 1_455
Ca1 O5 2.321065 1_555
Ca1 O16 2.359348 1_555
Ca1 O0 2.363120 1_555
Ca1 O47 2.788844 1_555
Ca1 O1 2.940004 1_555
Ca2 O6 2.321065 1_555
Ca2 O19 2.359348 1_555
Ca2 O3 2.363120 1_555
Ca2 O22 2.788844 1_545
Ca2 O2 2.940004 1_655
Ca3 O7 2.321065 1_555
Ca3 O18 2.359348 1_555
Ca3 O2 2.363120 1_555
Ca3 O23 2.788844 1_555
Ca3 O3 2.940004 1_555
Ca4 O10 2.279990 1_655
Ca4 O43 2.333801 1_655
Ca4 O21 2.336681 1_655
Ca4 O28 2.339707 1_555
Ca4 O39 2.583320 1_555
Ca4 O32 2.702024 1_555
Ca5 O11 2.279990 1_554
Ca5 O42 2.333801 1_555
Ca5 O47 2.336681 1_555
Ca5 O29 2.339707 1_555
Ca5 O38 2.583320 1_555
Ca5 O33 2.702024 1_555
Ca6 O8 2.279990 1_455
Ca6 O41 2.333801 1_455
Ca6 O22 2.336681 1_455
Ca6 O30 2.339707 1_555
Ca6 O37 2.583320 1_555
Ca6 O34 2.702024 1_555
Ca7 O9 2.279990 1_556
Ca7 O40 2.333801 1_555
Ca7 O23 2.336681 1_555
Ca7 O31 2.339707 1_555
Ca7 O36 2.583320 1_555
Ca7 O35 2.702024 1_555
Ca8 O20 2.306488 1_555
Ca8 O14 2.348005 1_555
Ca8 O24 2.352307 1_555
Ca8 O39 2.400300 1_555
Ca8 O32 2.428499 1_555
Ca8 O28 2.658535 1_555
Ca9 O46 2.306488 1_455
Ca9 O15 2.348005 1_454
Ca9 O25 2.352307 1_455
Ca9 O38 2.400300 1_555
Ca9 O33 2.428499 1_555
Ca9 O29 2.658535 1_555
Ca10 O45 2.306488 1_555
Ca10 O12 2.348005 1_555
Ca10 O26 2.352307 1_555
Ca10 O37 2.400300 1_555
Ca10 O34 2.428499 1_555
Ca10 O30 2.658535 1_555
Ca11 O44 2.306488 1_655
Ca11 O13 2.348005 1_656
Ca11 O27 2.352307 1_655
Ca11 O36 2.400300 1_555
Ca11 O35 2.428499 1_555
Ca11 O31 2.658535 1_555
Al0 O0 1.750448 1_555
Al0 O8 1.752846 1_555
Al0 O43 1.754457 1_655
Al0 O39 1.768467 1_555
Al1 O1 1.750448 1_555
Al1 O9 1.752846 1_555
Al1 O42 1.754457 1_565
Al1 O38 1.768467 1_565
Al2 O2 1.750448 1_555
Al2 O10 1.752846 1_555
Al2 O41 1.754457 1_455
Al2 O37 1.768467 1_555
Al3 O3 1.750448 1_555
Al3 O11 1.752846 1_555
Al3 O40 1.754457 1_545
Al3 O36 1.768467 1_545
Al4 O43 1.751991 1_555
Al4 O20 1.752699 1_555
Al4 O4 1.766486 1_555
Al4 O37 1.770302 1_555
Al5 O42 1.751991 1_565
Al5 O46 1.752699 1_565
Al5 O5 1.766486 1_555
Al5 O36 1.770302 1_554
Al6 O41 1.751991 1_555
Al6 O45 1.752699 1_555
Al6 O6 1.766486 1_555
Al6 O39 1.770302 1_555
Al7 O40 1.751991 1_545
Al7 O44 1.752699 1_545
Al7 O7 1.766486 1_555
Al7 O38 1.770302 1_556
Al8 O12 1.744898 1_555
Al8 O8 1.750174 1_555
Al8 O16 1.763753 1_555
Al8 O28 1.767040 1_565
Al9 O13 1.744898 1_555
Al9 O9 1.750174 1_555
Al9 O17 1.763753 1_555
Al9 O29 1.767040 1_555
Al10 O14 1.744898 1_555
Al10 O10 1.750174 1_555
Al10 O18 1.763753 1_555
Al10 O30 1.767040 1_545
Al11 O15 1.744898 1_555
Al11 O11 1.750174 1_555
Al11 O19 1.763753 1_555
Al11 O31 1.767040 1_555
Al12 O12 1.752797 1_555
Al12 O4 1.753505 1_555
Al12 O24 1.756132 1_565
Al12 O30 1.769497 1_555
Al13 O13 1.752797 1_655
Al13 O5 1.753505 1_555
Al13 O25 1.756132 1_555
Al13 O31 1.769497 1_554
Al14 O14 1.752797 1_555
Al14 O6 1.753505 1_555
Al14 O26 1.756132 1_545
Al14 O28 1.769497 1_555
Al15 O15 1.752797 1_455
Al15 O7 1.753505 1_555
Al15 O27 1.756132 1_555
Al15 O29 1.769497 1_556
Al16 O24 1.753730 1_555
Al16 O21 1.760564 1_555
Al16 O33 1.761328 1_555
Al16 O1 1.761533 1_545
Al17 O25 1.753730 1_555
Al17 O47 1.760564 1_555
Al17 O32 1.761328 1_555
Al17 O0 1.761533 1_555
Al18 O26 1.753730 1_555
Al18 O22 1.760564 1_555
Al18 O35 1.761328 1_555
Al18 O3 1.761533 1_565
Al19 O27 1.753730 1_555
Al19 O23 1.760564 1_555
Al19 O34 1.761328 1_555
Al19 O2 1.761533 1_555
Al20 O16 1.749626 1_545
Al20 O46 1.752562 1_555
Al20 O32 1.754453 1_555
Al20 O21 1.766223 1_655
Al21 O17 1.749626 1_555
Al21 O20 1.752562 1_555
Al21 O33 1.754453 1_555
Al21 O47 1.766223 1_555
Al22 O18 1.749626 1_565
Al22 O44 1.752562 1_555
Al22 O34 1.754453 1_555
Al22 O22 1.766223 1_455
Al23 O19 1.749626 1_555
Al23 O45 1.752562 1_555
Al23 O35 1.754453 1_555
Al23 O23 1.766223 1_555
