# generated using pymatgen
data_Ba2YMg(CuO2)4
_symmetry_space_group_name_H-M   'P 1'
_cell_length_a   3.73250400
_cell_length_b   4.04881045
_cell_length_c   15.00274406
_cell_angle_alpha   98.76761811
_cell_angle_beta   90.00000000
_cell_angle_gamma   90.00000000
_symmetry_Int_Tables_number   1
_chemical_formula_structural   Ba2YMg(CuO2)4
_chemical_formula_sum   'Ba2 Y1 Mg1 Cu4 O8'
_cell_volume   224.07514027
_cell_formula_units_Z   1
loop_
 _symmetry_equiv_pos_site_id
 _symmetry_equiv_pos_as_xyz
  1  'x, y, z'
loop_
 _atom_site_type_symbol
 _atom_site_label
 _atom_site_symmetry_multiplicity
 _atom_site_fract_x
 _atom_site_fract_y
 _atom_site_fract_z
 _atom_site_occupancy
  Ba  Ba0  1  0.50000000  0.63232900  0.24705500  1
  Ba  Ba1  1  0.50000000  0.36767100  0.75294500  1
  Y  Y0  1  0.50000000  0.50000000  0.00000000  1
  Mg  Mg0  1  0.50000000  0.00000000  0.50000000  1
  Cu  Cu0  1  0.00000000  0.94260500  0.89073300  1
  Cu  Cu1  1  0.00000000  0.05739500  0.10926700  1
  Cu  Cu2  1  0.00000000  0.74881900  0.58969200  1
  Cu  Cu3  1  0.00000000  0.25118100  0.41030800  1
  O  O0  1  0.00000000  0.84414700  0.71409500  1
  O  O1  1  0.00000000  0.15585300  0.28590500  1
  O  O2  1  0.00000000  0.44749400  0.89921300  1
  O  O3  1  0.00000000  0.55250600  0.10078700  1
  O  O4  1  0.50000000  0.95037800  0.90499800  1
  O  O5  1  0.50000000  0.04962200  0.09500200  1
  O  O6  1  0.00000000  0.25961600  0.55070600  1
  O  O7  1  0.00000000  0.74038400  0.44929400  1
loop_
_geom_bond_atom_site_label_1
_geom_bond_atom_site_label_2
_geom_bond_distance
_geom_bond_site_symmetry_2
Ba0 O1 2.808392 1_555
Ba0 O1 2.808392 1_655
Ba0 O1 2.817605 1_565
Ba0 O1 2.817605 1_665
Ba0 O3 2.861228 1_555
Ba0 O3 2.861228 1_655
Ba0 O5 3.021483 1_555
Ba0 O5 3.038659 1_565
Ba1 O0 2.808392 1_555
Ba1 O0 2.808392 1_655
Ba1 O0 2.817605 1_545
Ba1 O0 2.817605 1_645
Ba1 O2 2.861228 1_655
Ba1 O2 2.861228 1_555
Ba1 O4 3.021483 1_555
Ba1 O4 3.038659 1_545
Mg0 O6 2.218721 1_655
Mg0 O6 2.218721 1_555
Mg0 O7 2.218721 1_645
Mg0 O7 2.218721 1_545
Cu0 O4 1.878200 1_455
Cu0 O4 1.878200 1_555
Cu0 O2 2.027905 1_555
Cu0 O2 2.028708 1_565
Cu0 O0 2.619093 1_555
Cu1 O5 1.878200 1_555
Cu1 O5 1.878200 1_455
Cu1 O3 2.027905 1_555
Cu1 O3 2.028708 1_545
Cu1 O1 2.619093 1_555
Cu2 O0 1.847366 1_555
Cu2 O6 1.977894 1_555
Cu2 O7 2.101421 1_555
Cu2 O6 2.233381 1_565
Cu3 O1 1.847366 1_555
Cu3 O7 1.977894 1_555
Cu3 O6 2.101421 1_555
Cu3 O7 2.233381 1_545
O2 Y0 2.390917 1_456
O2 Y0 2.390917 1_556
O3 Y0 2.390917 1_455
O3 Y0 2.390917 1_555
O4 Y0 2.452869 1_566
O4 Y0 2.479699 1_556
O5 Y0 2.452869 1_545
O5 Y0 2.479699 1_555
