# generated using pymatgen
data_Th2FeB10
_symmetry_space_group_name_H-M   'P 1'
_cell_length_a   4.17910787
_cell_length_b   5.62580973
_cell_length_c   11.23057438
_cell_angle_alpha   89.99991834
_cell_angle_beta   90.00000087
_cell_angle_gamma   90.00000140
_symmetry_Int_Tables_number   1
_chemical_formula_structural   Th2FeB10
_chemical_formula_sum   'Th4 Fe2 B20'
_cell_volume   264.04052618
_cell_formula_units_Z   2
loop_
 _symmetry_equiv_pos_site_id
 _symmetry_equiv_pos_as_xyz
  1  'x, y, z'
loop_
 _atom_site_type_symbol
 _atom_site_label
 _atom_site_symmetry_multiplicity
 _atom_site_fract_x
 _atom_site_fract_y
 _atom_site_fract_z
 _atom_site_occupancy
  Th  Th0  1  0.49999954  0.28953443  0.86939711  1
  Th  Th1  1  0.49999977  0.71046511  0.13066077  1
  Th  Th2  1  0.50000005  0.78951471  0.63058919  1
  Th  Th3  1  0.50000005  0.21048292  0.36935294  1
  Fe  Fe0  1  0.00000000  0.50000518  0.49998460  1
  Fe  Fe1  1  -0.00000001  0.00000529  0.00001559  1
  B  B0  1  0.00000006  0.12756820  0.53989378  1
  B  B1  1  0.00000010  0.87243303  0.46008399  1
  B  B2  1  -0.00000008  0.62756866  0.96010469  1
  B  B3  1  -0.00000007  0.37243275  0.03991767  1
  B  B4  1  0.00000006  0.14913577  0.69689422  1
  B  B5  1  0.00000008  0.85086438  0.30309726  1
  B  B6  1  0.29907028  0.20386435  0.11338521  1
  B  B7  1  0.29906877  0.79613246  0.88663516  1
  B  B8  1  0.70093068  0.70385393  0.38661244  1
  B  B9  1  0.70093111  0.29614252  0.61336716  1
  B  B10  1  0.70093121  0.79613247  0.88663516  1
  B  B11  1  0.70092970  0.20386431  0.11338520  1
  B  B12  1  0.29906910  0.29614252  0.61336717  1
  B  B13  1  0.29906953  0.70385397  0.38661242  1
  B  B14  1  -0.00000006  0.03854134  0.18731425  1
  B  B15  1  -0.00000002  0.96146034  0.81269187  1
  B  B16  1  0.00000007  0.53854437  0.31268516  1
  B  B17  1  0.00000010  0.46145684  0.68730893  1
  B  B18  1  0.00000000  0.35087212  0.19690246  1
  B  B19  1  -0.00000003  0.64912803  0.80310560  1
loop_
_geom_bond_atom_site_label_1
_geom_bond_atom_site_label_2
_geom_bond_distance
_geom_bond_site_symmetry_2
Fe0 Th2 3.028265 1_455
Fe0 Th2 3.028265 1_555
Fe0 Th3 3.028450 1_455
Fe0 Th3 3.028451 1_555
Fe1 Th0 3.028396 1_554
Fe1 Th0 3.028399 1_454
Fe1 Th1 3.028575 1_545
Fe1 Th1 3.028577 1_445
B0 B1 1.692212 1_545
B0 B4 1.767375 1_555
B0 B9 1.772675 1_455
B0 B12 1.772675 1_555
B0 Fe0 2.142661 1_555
B0 Th3 2.872644 1_555
B0 Th3 2.872644 1_455
B0 Th2 3.003437 1_545
B0 Th2 3.003437 1_445
B1 B5 1.767222 1_555
B1 B8 1.772681 1_455
B1 B13 1.772681 1_555
B1 Fe0 2.142591 1_555
B1 Th2 2.872381 1_555
B1 Th2 2.872381 1_455
B1 Th3 3.003560 1_565
B1 Th3 3.003560 1_465
B2 B3 1.692232 1_556
B2 B7 1.772621 1_555
B2 Fe1 2.142664 1_566
B2 Th1 2.872742 1_556
B2 Th1 2.872743 1_456
B2 Th0 3.003416 1_555
B2 Th0 3.003418 1_455
B3 B6 1.772629 1_555
B3 Fe1 2.142593 1_555
B3 Th0 2.872477 1_554
B3 Th0 2.872480 1_454
B3 Th1 3.003545 1_555
B3 Th1 3.003546 1_455
B4 B9 1.768059 1_455
B4 Th0 2.956900 1_555
B4 Th0 2.956904 1_455
B4 Th2 3.002317 1_445
B4 Th2 3.002317 1_545
B5 B8 1.768000 1_455
B5 Th1 2.956414 1_555
B5 Th1 2.956415 1_455
B5 Th3 3.002170 1_565
B5 Th3 3.002170 1_465
B6 Fe1 2.120965 1_555
B6 Th0 2.906146 1_554
B6 Th1 2.906484 1_545
B6 Th1 2.977495 1_555
B6 Th3 2.995028 1_555
B7 Fe1 2.121076 1_566
B7 Th0 2.906472 1_565
B7 Th1 2.906542 1_556
B7 Th0 2.977454 1_555
B7 Th2 2.995873 1_555
B8 Fe0 2.120946 1_655
B8 Th2 2.906020 1_555
B8 Th3 2.906322 1_555
B8 Th3 2.977636 1_565
B8 Th1 2.994855 1_555
B9 Fe0 2.121057 1_655
B9 Th2 2.906301 1_555
B9 Th3 2.906416 1_555
B9 Th2 2.977603 1_545
B9 Th0 2.995700 1_555
B10 B7 1.679426 1_555
B10 B15 1.765446 1_655
B10 B19 1.768069 1_655
B10 B2 1.772621 1_655
B10 Fe1 2.121076 1_666
B10 Th0 2.906473 1_565
B10 Th1 2.906543 1_556
B10 Th0 2.977455 1_555
B10 Th2 2.995873 1_555
B11 B6 1.679414 1_555
B11 B14 1.765360 1_655
B11 B18 1.768009 1_655
B11 B3 1.772629 1_655
B11 Fe1 2.120965 1_655
B11 Th0 2.906147 1_554
B11 Th1 2.906484 1_545
B11 Th1 2.977495 1_555
B11 Th3 2.995028 1_555
B12 B9 1.679425 1_555
B12 B17 1.765399 1_555
B12 B4 1.768060 1_555
B12 Fe0 2.121058 1_555
B12 Th2 2.906300 1_555
B12 Th3 2.906416 1_555
B12 Th2 2.977602 1_545
B12 Th0 2.995698 1_555
B13 B8 1.679421 1_555
B13 B16 1.765310 1_555
B13 B5 1.768000 1_555
B13 Fe0 2.120947 1_555
B13 Th2 2.906020 1_555
B13 Th3 2.906322 1_555
B13 Th3 2.977635 1_565
B13 Th1 2.994854 1_555
B14 B5 1.674989 1_545
B14 B18 1.760410 1_555
B14 B6 1.765361 1_555
B14 Fe1 2.114615 1_555
B14 Th1 2.859657 1_545
B14 Th1 2.859658 1_445
B14 Th3 3.079204 1_455
B14 Th3 3.079204 1_555
B15 B4 1.675111 1_565
B15 B19 1.760417 1_555
B15 B7 1.765446 1_555
B15 Fe1 2.114900 1_566
B15 Th0 2.859778 1_565
B15 Th0 2.859781 1_465
B15 Th2 3.079688 1_455
B15 Th2 3.079689 1_555
B16 B18 1.674972 1_555
B16 B5 1.760349 1_555
B16 B8 1.765310 1_455
B16 Fe0 2.114624 1_555
B16 Th3 2.859639 1_555
B16 Th3 2.859639 1_455
B16 Th1 3.079058 1_555
B16 Th1 3.079060 1_455
B17 B19 1.675090 1_555
B17 B4 1.760353 1_555
B17 B9 1.765399 1_455
B17 Fe0 2.114908 1_555
B17 Th2 2.859755 1_555
B17 Th2 2.859756 1_455
B17 Th0 3.079536 1_555
B17 Th0 3.079539 1_455
B18 B3 1.767197 1_555
B18 B6 1.768009 1_555
B18 Th3 2.956501 1_455
B18 Th3 2.956501 1_555
B18 Th1 3.002032 1_555
B18 Th1 3.002034 1_455
B19 B2 1.767357 1_555
B19 B7 1.768069 1_555
B19 Th2 2.956982 1_455
B19 Th2 2.956982 1_555
B19 Th0 3.002173 1_555
B19 Th0 3.002175 1_455
