# generated using pymatgen
data_Na5Y2Mg2P3(SO8)3
_symmetry_space_group_name_H-M   'P 1'
_cell_length_a   9.16114007
_cell_length_b   9.12148005
_cell_length_c   23.20105605
_cell_angle_alpha   89.74290121
_cell_angle_beta   90.17003248
_cell_angle_gamma   120.09183380
_symmetry_Int_Tables_number   1
_chemical_formula_structural   Na5Y2Mg2P3(SO8)3
_chemical_formula_sum   'Na15 Y6 Mg6 P9 S9 O72'
_cell_volume   1677.43642160
_cell_formula_units_Z   3
loop_
 _symmetry_equiv_pos_site_id
 _symmetry_equiv_pos_as_xyz
  1  'x, y, z'
loop_
 _atom_site_type_symbol
 _atom_site_label
 _atom_site_symmetry_multiplicity
 _atom_site_fract_x
 _atom_site_fract_y
 _atom_site_fract_z
 _atom_site_occupancy
  Na  Na0  1  0.63853662  0.01538051  0.25282097  1
  Na  Na1  1  0.00124897  0.63262405  0.24275877  1
  Na  Na2  1  0.62925982  0.62907059  0.74390094  1
  Na  Na3  1  0.99590286  0.35132549  0.74560791  1
  Na  Na4  1  0.30471184  0.34734625  0.58572580  1
  Na  Na5  1  0.66860357  0.96556023  0.57845031  1
  Na  Na6  1  0.29593107  0.95556780  0.07996351  1
  Na  Na7  1  0.69053649  0.02670744  0.91125187  1
  Na  Na8  1  0.96165981  0.28739588  0.41370128  1
  Na  Na9  1  0.98148137  0.97384355  0.49434835  1
  Na  Na10  1  0.00834180  0.98713094  0.99430243  1
  Na  Na11  1  0.63472269  0.31028332  0.82772671  1
  Na  Na12  1  0.64201063  0.31572062  0.32885752  1
  Na  Na13  1  0.31466038  0.64035323  0.16119872  1
  Na  Na14  1  0.32859363  0.66686394  0.66155691  1
  Y  Y0  1  0.99838059  0.99948791  0.65063514  1
  Y  Y1  1  0.00359649  0.00546496  0.14975067  1
  Y  Y2  1  0.67196129  0.34658606  0.98301225  1
  Y  Y3  1  0.67018366  0.33725782  0.48305976  1
  Y  Y4  1  0.33746338  0.67081633  0.31714691  1
  Y  Y5  1  0.33562808  0.67679918  0.81716352  1
  Mg  Mg0  1  0.00431172  0.00575543  0.34747334  1
  Mg  Mg1  1  0.02573648  0.01165202  0.84925611  1
  Mg  Mg2  1  0.66208830  0.32841236  0.68221842  1
  Mg  Mg3  1  0.67134105  0.33683415  0.18294619  1
  Mg  Mg4  1  0.31233138  0.66240411  0.01613250  1
  Mg  Mg5  1  0.33941329  0.67004188  0.51603719  1
  P  P0  1  0.30071729  0.00916703  0.25049729  1
  P  P1  1  0.99160747  0.29519695  0.25251811  1
  P  P2  1  0.30369534  0.29648128  0.74996650  1
  P  P3  1  0.70808721  0.00772294  0.75248289  1
  P  P4  1  0.97042455  0.34355071  0.58484133  1
  P  P5  1  0.65871445  0.62717818  0.58562292  1
  P  P6  1  0.97030724  0.62902652  0.08690523  1
  P  P7  1  0.32682561  0.96340137  0.92077809  1
  P  P8  1  0.63995541  0.96290009  0.41836281  1
  S  S0  1  0.70911782  0.70235164  0.25129739  1
  S  S1  1  0.99179882  0.69908789  0.75171406  1
  S  S2  1  0.37467760  0.03479835  0.58430355  1
  S  S3  1  0.65932734  0.03265365  0.08348035  1
  S  S4  1  0.37760245  0.34312124  0.08453901  1
  S  S5  1  0.63237508  0.67584048  0.91699603  1
  S  S6  1  0.03841997  0.36302507  0.91691956  1
  S  S7  1  0.32546807  0.36496660  0.41878722  1
  S  S8  1  0.04331605  0.67533160  0.41745865  1
  O  O0  1  0.20483325  0.02179814  0.30227049  1
  O  O1  1  0.81567216  0.78589014  0.30196396  1
  O  O2  1  0.96830940  0.18757079  0.30695739  1
  O  O3  1  0.20912281  0.18422751  0.80117123  1
  O  O4  1  0.97350110  0.78625815  0.80204695  1
  O  O5  1  0.81690034  0.02670394  0.80604046  1
  O  O6  1  0.78607332  0.97593310  0.69755746  1
  O  O7  1  0.20146120  0.22387985  0.69313996  1
  O  O8  1  0.02140854  0.79952737  0.69877186  1
  O  O9  1  0.78281871  0.80743731  0.19892032  1
  O  O10  1  0.01370052  0.20962636  0.19892229  1
  O  O11  1  0.19444857  0.97348607  0.19441267  1
  O  O12  1  0.88109995  0.35662245  0.63903610  1
  O  O13  1  0.48150614  0.11804572  0.63496619  1
  O  O14  1  0.63657955  0.52031835  0.64016065  1
  O  O15  1  0.88259010  0.52889412  0.14206310  1
  O  O16  1  0.63841212  0.11792132  0.13472976  1
  O  O17  1  0.47871848  0.35929713  0.13578972  1
  O  O18  1  0.45236683  0.31207676  0.03253157  1
  O  O19  1  0.86229910  0.54284521  0.03331850  1
  O  O20  1  0.68161863  0.13399063  0.03057340  1
  O  O21  1  0.44890262  0.13989084  0.53194722  1
  O  O22  1  0.67804389  0.54013582  0.53196915  1
  O  O23  1  0.85866166  0.30904122  0.53032810  1
  O  O24  1  0.53977214  0.69114118  0.96665132  1
  O  O25  1  0.14567115  0.45446012  0.96690248  1
  O  O26  1  0.31139266  0.85962626  0.97565858  1
  O  O27  1  0.54615829  0.85890092  0.47222242  1
  O  O28  1  0.30551915  0.44837655  0.47057044  1
  O  O29  1  0.14750395  0.68960456  0.46743304  1
  O  O30  1  0.11466761  0.64564863  0.36375970  1
  O  O31  1  0.53740223  0.88290034  0.36239423  1
  O  O32  1  0.34772066  0.46856605  0.36684344  1
  O  O33  1  0.11060868  0.45991309  0.86295207  1
  O  O34  1  0.35890622  0.87940946  0.86780121  1
  O  O35  1  0.53501226  0.65025090  0.86273017  1
  O  O36  1  0.02391776  0.82561997  0.41126813  1
  O  O37  1  0.81943233  0.98519050  0.41349133  1
  O  O38  1  0.16881707  0.19749346  0.41294686  1
  O  O39  1  0.01562103  0.19093331  0.91326117  1
  O  O40  1  0.16975863  0.98048727  0.91252442  1
  O  O41  1  0.79840229  0.83373102  0.91227159  1
  O  O42  1  0.98969048  0.18052039  0.58797389  1
  O  O43  1  0.20557491  0.01844133  0.58971769  1
  O  O44  1  0.81426468  0.80995405  0.58776877  1
  O  O45  1  0.99748889  0.81348668  0.08773810  1
  O  O46  1  0.80959621  0.01312677  0.08825872  1
  O  O47  1  0.20673519  0.18603865  0.08835100  1
  O  O48  1  0.69790686  0.17089167  0.74480494  1
  O  O49  1  0.48509339  0.32688965  0.74490837  1
  O  O50  1  0.83637106  0.53032880  0.74632774  1
  O  O51  1  0.69406091  0.53394715  0.24456423  1
  O  O52  1  0.83028724  0.31182489  0.24585114  1
  O  O53  1  0.48123236  0.16263282  0.24375795  1
  O  O54  1  0.65506826  0.52650506  0.92133504  1
  O  O55  1  0.86537933  0.34133460  0.92226137  1
  O  O56  1  0.49484635  0.13951132  0.92356964  1
  O  O57  1  0.66468015  0.14674029  0.42060680  1
  O  O58  1  0.47523882  0.34430181  0.42246895  1
  O  O59  1  0.87317377  0.51761109  0.42171670  1
  O  O60  1  0.35891236  0.49396150  0.07685145  1
  O  O61  1  0.14974050  0.65023034  0.08089462  1
  O  O62  1  0.50353502  0.86399582  0.07825588  1
  O  O63  1  0.36107489  0.86686318  0.57759942  1
  O  O64  1  0.49813314  0.64573396  0.57946193  1
  O  O65  1  0.14970980  0.49765785  0.57710232  1
  O  O66  1  0.32117327  0.84677607  0.25538596  1
  O  O67  1  0.53929392  0.68585301  0.25648124  1
  O  O68  1  0.14642746  0.47828839  0.25586160  1
  O  O69  1  0.31605729  0.47537416  0.75536146  1
  O  O70  1  0.13726836  0.66856575  0.75673525  1
  O  O71  1  0.53104403  0.84388650  0.75561474  1
loop_
_geom_bond_atom_site_label_1
_geom_bond_atom_site_label_2
_geom_bond_distance
_geom_bond_site_symmetry_2
Na0 O52 2.378703 1_555
Na0 O53 2.421088 1_555
Na0 O66 2.517580 1_545
Na0 O67 2.669517 1_545
Na0 O31 2.765003 1_545
Na0 O16 2.891299 1_555
Na0 O2 2.899737 1_555
Na1 O68 2.390486 1_555
Na1 O51 2.488356 1_455
Na1 O52 2.534496 1_455
Na1 O15 2.551144 1_455
Na1 O66 2.598188 1_555
Na2 O49 2.385665 1_555
Na2 O50 2.475273 1_555
Na2 O69 2.497282 1_555
Na2 O71 2.548923 1_555
Na2 O14 2.621203 1_555
Na3 O48 2.378303 1_555
Na3 O70 2.522724 1_655
Na3 O69 2.569893 1_655
Na3 O50 2.682442 1_555
Na3 O12 2.693799 1_555
Na3 O33 2.908756 1_655
Na3 O5 2.920609 1_555
Na3 O7 2.932749 1_655
Na4 O64 2.393868 1_555
Na4 O65 2.425777 1_555
Na4 O42 2.498692 1_455
Na4 O43 2.664535 1_555
Na4 O7 2.700794 1_555
Na4 O28 2.821100 1_555
Na4 O14 2.917643 1_555
Na5 O44 2.395165 1_555
Na5 O63 2.490901 1_555
Na5 O64 2.526077 1_555
Na5 O42 2.600453 1_565
Na5 O27 2.681383 1_555
Na5 O23 2.933269 1_565
Na5 O6 2.947219 1_555
Na5 O13 3.002022 1_565
Na6 O45 2.373802 1_455
Na6 O61 2.410456 1_555
Na6 O62 2.431086 1_555
Na6 O26 2.605299 1_554
Na6 O47 2.617664 1_565
Na6 O11 2.848298 1_555
Na7 O41 2.412299 1_545
Na7 O56 2.491936 1_555
Na7 O55 2.502312 1_555
Na7 O39 2.577147 1_655
Na7 O5 2.704716 1_555
Na7 O34 2.819983 1_545
Na7 O24 2.943551 1_545
Na7 O20 2.955348 1_556
Na8 O57 2.360985 1_555
Na8 O37 2.386374 1_545
Na8 O38 2.415643 1_655
Na8 O59 2.610111 1_555
Na8 O2 2.653861 1_555
Na8 O23 2.908229 1_555
Na9 O37 2.422742 1_555
Na9 O36 2.499890 1_655
Na9 O44 2.640747 1_555
Na9 O38 2.673520 1_665
Na9 O42 2.858626 1_565
Na9 O43 2.901666 1_665
Na10 O40 2.428547 1_555
Na10 O41 2.565666 1_455
Na10 O39 2.615459 1_565
Na10 O45 2.651516 1_456
Na10 O47 2.839306 1_566
Na10 O46 2.929903 1_466
Na11 O49 2.404994 1_555
Na11 O48 2.533677 1_555
Na11 O56 2.645247 1_555
Na11 O50 2.697476 1_555
Na11 O54 2.882488 1_555
Na11 O55 2.955303 1_555
Na12 O53 2.441852 1_555
Na12 O52 2.601332 1_555
Na12 O51 2.652016 1_555
Na12 O57 2.690557 1_555
Na12 O58 2.746537 1_555
Na12 O59 2.935203 1_555
Na13 O61 2.424947 1_555
Na13 O60 2.519530 1_555
Na13 O68 2.662809 1_555
Na13 O62 2.702504 1_555
Na13 O66 2.871862 1_555
Na13 O67 2.901547 1_555
Na14 O65 2.525640 1_555
Na14 O64 2.529503 1_555
Na14 O63 2.576451 1_555
Na14 O69 2.750786 1_555
Na14 O71 2.795320 1_555
Na14 O70 2.828300 1_555
Mg0 O0 2.058248 1_555
Mg0 O2 2.067717 1_455
Mg0 O1 2.157808 1_445
Mg0 O37 2.223538 1_445
Mg0 O38 2.237123 1_555
Mg0 O36 2.279320 1_545
Mg1 O3 1.971915 1_555
Mg1 O40 2.082598 1_545
Mg1 O4 2.164728 1_445
Mg1 O5 2.221527 1_455
Mg1 O39 2.250018 1_555
Mg1 O41 2.390858 1_445
Mg2 O13 2.108456 1_555
Mg2 O14 2.112917 1_555
Mg2 O12 2.141844 1_555
Mg2 O48 2.175289 1_555
Mg2 O49 2.176258 1_555
Mg2 O50 2.283732 1_555
Mg3 O15 2.076124 1_555
Mg3 O52 2.149388 1_555
Mg3 O17 2.168422 1_555
Mg3 O16 2.177999 1_555
Mg3 O53 2.183596 1_555
Mg3 O51 2.228406 1_555
Mg4 O26 2.029389 1_554
Mg4 O61 2.081964 1_555
Mg4 O25 2.082903 1_554
Mg4 O60 2.271962 1_555
Mg4 O24 2.278579 1_554
Mg4 O62 2.303440 1_555
Mg5 O27 2.076576 1_555
Mg5 O64 2.153248 1_555
Mg5 O28 2.164476 1_555
Mg5 O29 2.166895 1_555
Mg5 O65 2.180448 1_555
Mg5 O63 2.228593 1_555
O0 P0 1.528636 1_555
O1 S0 1.473330 1_555
O2 P1 1.544331 1_555
O3 P2 1.521846 1_555
O4 S1 1.472131 1_555
O5 P3 1.545715 1_555
O6 P3 1.560411 1_565
O6 Y0 2.146083 1_555
O7 P2 1.559667 1_555
O7 Y0 2.193588 1_445
O8 S1 1.471175 1_455
O8 Y0 2.232647 1_455
O9 S0 1.482166 1_555
O9 Y1 2.233075 1_665
O10 P1 1.537873 1_455
O10 Y1 2.150266 1_555
O11 P0 1.557383 1_565
O11 Y1 2.171116 1_565
O12 P4 1.539527 1_555
O13 S2 1.473770 1_555
O14 P5 1.544188 1_555
O15 P6 1.541841 1_555
O16 S3 1.488134 1_555
O17 S4 1.466881 1_555
O18 S4 1.485841 1_555
O18 Y2 2.200365 1_554
O19 P6 1.537602 1_555
O19 Y2 2.117540 1_554
O20 S3 1.484884 1_555
O20 Y2 2.266752 1_554
O21 S2 1.482448 1_555
O21 Y3 2.229952 1_555
O22 P5 1.537033 1_555
O22 Y3 2.145251 1_555
O23 P4 1.555550 1_555
O23 Y3 2.163841 1_555
O24 S5 1.480668 1_555
O25 S6 1.478502 1_555
O26 P7 1.547034 1_555
O27 P8 1.542108 1_555
O28 S7 1.484793 1_555
O29 S8 1.463729 1_555
O30 S8 1.496032 1_555
O30 Y4 2.220185 1_555
O31 P8 1.554067 1_555
O31 Y4 2.157083 1_555
O32 S7 1.478173 1_555
O32 Y4 2.212631 1_555
O33 S6 1.481573 1_555
O33 Y5 2.279579 1_555
O34 P7 1.555778 1_555
O34 Y5 2.112825 1_555
O35 S5 1.490775 1_555
O35 Y5 2.223176 1_555
O36 S8 1.474387 1_555
O37 P8 1.556668 1_555
O38 S7 1.487886 1_555
O39 S6 1.478920 1_555
O40 P7 1.534405 1_555
O41 S5 1.484107 1_555
O42 P4 1.584292 1_555
O42 Y0 2.226259 1_545
O43 S2 1.485660 1_555
O43 Y0 2.305435 1_445
O44 P5 1.559046 1_555
O44 Y0 2.246144 1_555
O45 P6 1.572729 1_555
O45 Y1 2.250217 1_665
O46 S3 1.477813 1_555
O46 Y1 2.303816 1_655
O47 S4 1.503895 1_555
O47 Y1 2.264166 1_555
O48 P3 1.546707 1_555
O49 P2 1.546279 1_555
O50 S1 1.488415 1_555
O51 S0 1.480736 1_555
O52 P1 1.566607 1_555
O53 P0 1.548223 1_555
O54 S5 1.480356 1_555
O54 Y2 2.235450 1_555
O55 S6 1.501318 1_655
O55 Y2 2.286748 1_555
O56 P7 1.573158 1_545
O56 Y2 2.244828 1_555
O57 P8 1.576649 1_545
O57 Y3 2.248628 1_555
O58 S7 1.477805 1_555
O58 Y3 2.295468 1_555
O59 S8 1.503330 1_655
O59 Y3 2.262087 1_555
O60 S4 1.479204 1_555
O61 P6 1.562460 1_455
O62 S3 1.489053 1_565
O63 S2 1.482158 1_565
O64 P5 1.568903 1_555
O65 P4 1.546013 1_455
O66 P0 1.587071 1_565
O66 Y4 2.206780 1_555
O67 S0 1.491218 1_555
O67 Y4 2.275542 1_555
O68 P1 1.559495 1_455
O68 Y4 2.257063 1_555
O69 P2 1.583540 1_555
O69 Y5 2.270590 1_555
O70 S1 1.495969 1_455
O70 Y5 2.263280 1_555
O71 P3 1.561530 1_565
O71 Y5 2.196940 1_555
