# generated using pymatgen
data_K4MgNb2(CuS4)2
_symmetry_space_group_name_H-M   'P 1'
_cell_length_a   5.66781436
_cell_length_b   7.34898266
_cell_length_c   12.24707131
_cell_angle_alpha   84.39619991
_cell_angle_beta   76.61511395
_cell_angle_gamma   65.08785831
_symmetry_Int_Tables_number   1
_chemical_formula_structural   K4MgNb2(CuS4)2
_chemical_formula_sum   'K4 Mg1 Nb2 Cu2 S8'
_cell_volume   450.09146794
_cell_formula_units_Z   1
loop_
 _symmetry_equiv_pos_site_id
 _symmetry_equiv_pos_as_xyz
  1  'x, y, z'
loop_
 _atom_site_type_symbol
 _atom_site_label
 _atom_site_symmetry_multiplicity
 _atom_site_fract_x
 _atom_site_fract_y
 _atom_site_fract_z
 _atom_site_occupancy
  K  K0  1  0.95085300  0.75015200  0.09798200  1
  K  K1  1  0.30652400  0.75031700  0.38743000  1
  K  K2  1  0.05082800  0.24974100  0.89966700  1
  K  K3  1  0.67366600  0.25006700  0.65336800  1
  Mg  Mg0  1  0.25111900  0.25010600  0.49831900  1
  Nb  Nb0  1  0.12731600  0.75000900  0.74570800  1
  Nb  Nb1  1  0.87900300  0.25002500  0.24206600  1
  Cu  Cu0  1  0.62511000  0.74969700  0.75077000  1
  Cu  Cu1  1  0.37887200  0.25000600  0.24197900  1
  S  S0  1  0.71956100  0.94733300  0.85653800  1
  S  S1  1  0.05860600  0.53867300  0.63209300  1
  S  S2  1  0.67021800  0.06594300  0.36819600  1
  S  S3  1  0.57440400  0.45311500  0.13727800  1
  S  S4  1  0.28838400  0.04699200  0.13721400  1
  S  S5  1  0.96165000  0.43391800  0.36831800  1
  S  S6  1  0.30967800  0.96148800  0.63213400  1
  S  S7  1  0.42420600  0.55241600  0.85649600  1
loop_
_geom_bond_atom_site_label_1
_geom_bond_atom_site_label_2
_geom_bond_distance
_geom_bond_site_symmetry_2
K0 S4 3.399533 1_565
K0 S3 3.401474 1_655
K0 S0 3.452476 1_554
K0 S7 3.455083 1_654
K0 S3 3.576647 1_555
K0 S4 3.577090 1_665
K1 S5 3.417461 1_555
K1 S2 3.417822 1_465
K1 S6 3.513776 1_555
K1 S1 3.514790 1_555
K1 S4 3.578677 1_565
K1 S3 3.580644 1_555
K1 S2 3.658065 1_565
K1 S5 3.664600 1_455
K2 S4 3.431265 1_556
K2 S0 3.433662 1_545
K2 S3 3.435838 1_456
K2 S7 3.438796 1_455
K2 S7 3.594955 1_555
K2 S0 3.598188 1_445
K2 S6 3.726532 1_545
K2 S1 3.728585 1_555
K3 S7 3.151085 1_555
K3 S0 3.152722 1_545
K3 S6 3.285272 1_645
K3 S1 3.286725 1_555
K3 Mg0 3.382448 1_655
K3 Mg0 3.383232 1_555
K3 S1 3.585216 1_655
K3 S6 3.586542 1_545
Mg0 S5 2.444102 1_455
Mg0 S2 2.444180 1_555
Mg0 S1 2.504693 1_555
Mg0 S6 2.504935 1_545
Nb0 S7 2.322689 1_555
Nb0 S0 2.322721 1_455
Nb0 S1 2.383780 1_555
Nb0 S6 2.384102 1_555
Nb1 S3 2.309980 1_555
Nb1 S4 2.310226 1_655
Nb1 S2 2.389735 1_555
Nb1 S5 2.390253 1_555
Cu0 S7 2.327382 1_555
Cu0 S0 2.327564 1_555
Cu0 S1 2.476104 1_655
Cu0 S6 2.479230 1_555
Cu1 S4 2.336307 1_555
Cu1 S3 2.337155 1_555
Cu1 S5 2.415497 1_455
Cu1 S2 2.416119 1_555
