# generated using pymatgen
data_PdSO4
_symmetry_space_group_name_H-M   'P 1'
_cell_length_a   4.91319080
_cell_length_b   4.91319080
_cell_length_c   7.77764086
_cell_angle_alpha   81.86487341
_cell_angle_beta   81.86487341
_cell_angle_gamma   80.67133058
_symmetry_Int_Tables_number   1
_chemical_formula_structural   PdSO4
_chemical_formula_sum   'Pd2 S2 O8'
_cell_volume   182.04454599
_cell_formula_units_Z   2
loop_
 _symmetry_equiv_pos_site_id
 _symmetry_equiv_pos_as_xyz
  1  'x, y, z'
loop_
 _atom_site_type_symbol
 _atom_site_label
 _atom_site_symmetry_multiplicity
 _atom_site_fract_x
 _atom_site_fract_y
 _atom_site_fract_z
 _atom_site_occupancy
  Pd  Pd0  1  -0.00000000  0.50000000  0.50000000  1
  Pd  Pd1  1  0.50000000  0.00000000  0.00000000  1
  S  S0  1  0.07424208  0.92575792  0.75000000  1
  S  S1  1  0.92575792  0.07424208  0.25000000  1
  O  O0  1  0.77579660  0.88402459  0.79046052  1
  O  O1  1  0.11597541  0.22420340  0.70953948  1
  O  O2  1  0.22420340  0.11597541  0.20953948  1
  O  O3  1  0.88402459  0.77579660  0.29046052  1
  O  O4  1  0.80759153  0.22315971  0.40511447  1
  O  O5  1  0.77684129  0.19240847  0.09488553  1
  O  O6  1  0.19240847  0.77684129  0.59488553  1
  O  O7  1  0.22315871  0.80759153  0.90511447  1
loop_
_geom_bond_atom_site_label_1
_geom_bond_atom_site_label_2
_geom_bond_distance
_geom_bond_site_symmetry_2
O0 S0 1.496590 1_655
O0 Pd1 2.050444 1_566
O1 S0 1.496590 1_545
O1 Pd0 2.050444 1_555
O2 S1 1.496590 1_455
O2 Pd1 2.050444 1_555
O3 S1 1.496590 1_565
O3 Pd0 2.050444 1_655
O4 S1 1.497240 1_555
O4 Pd0 2.046152 1_655
O5 S1 1.497237 1_555
O5 Pd1 2.046156 1_555
O6 S0 1.497237 1_555
O6 Pd0 2.046156 1_555
O7 S0 1.497237 1_555
O7 Pd1 2.046156 1_566
