# generated using pymatgen
data_MgMnVP2(O4F)2
_symmetry_space_group_name_H-M   'P 1'
_cell_length_a   5.44948195
_cell_length_b   5.27460613
_cell_length_c   7.36378096
_cell_angle_alpha   108.72132720
_cell_angle_beta   110.95848255
_cell_angle_gamma   89.94934126
_symmetry_Int_Tables_number   1
_chemical_formula_structural   MgMnVP2(O4F)2
_chemical_formula_sum   'Mg1 Mn1 V1 P2 O8 F2'
_cell_volume   185.64237337
_cell_formula_units_Z   1
loop_
 _symmetry_equiv_pos_site_id
 _symmetry_equiv_pos_as_xyz
  1  'x, y, z'
loop_
 _atom_site_type_symbol
 _atom_site_label
 _atom_site_symmetry_multiplicity
 _atom_site_fract_x
 _atom_site_fract_y
 _atom_site_fract_z
 _atom_site_occupancy
  Mg  Mg0  1  -0.00000000  0.50000000  0.50000000  1
  Mn  Mn0  1  0.50000000  0.50000000  0.50000000  1
  V  V0  1  -0.00000000  -0.00000000  0.00000000  1
  P  P0  1  0.37194799  0.10623609  0.74925425  1
  P  P1  1  0.62805201  0.89376391  0.25074575  1
  O  O0  1  0.20000086  0.14698621  0.88705418  1
  O  O1  1  0.28557709  0.81430616  0.59299269  1
  O  O2  1  0.30512552  0.31548178  0.63964412  1
  O  O3  1  0.32767551  0.84560612  0.12382434  1
  O  O4  1  0.67232449  0.15439388  0.87617566  1
  O  O5  1  0.69487448  0.68451822  0.36035588  1
  O  O6  1  0.71442291  0.18569384  0.40700731  1
  O  O7  1  0.79999914  0.85301379  0.11294582  1
  F  F0  1  0.10774252  0.33267814  0.24887230  1
  F  F1  1  0.89225748  0.66732186  0.75112770  1
loop_
_geom_bond_atom_site_label_1
_geom_bond_atom_site_label_2
_geom_bond_distance
_geom_bond_site_symmetry_2
Mg0 O1 2.037817 1_555
Mg0 O6 2.037817 1_455
Mg0 O5 2.045941 1_455
Mg0 O2 2.045941 1_555
Mn0 O1 2.103087 1_555
Mn0 O6 2.103087 1_555
Mn0 O5 2.134929 1_555
Mn0 O2 2.134929 1_555
O0 P0 1.579152 1_555
O0 V0 1.882713 1_556
O1 P0 1.546953 1_565
O2 P0 1.537236 1_555
O3 P1 1.539921 1_555
O3 V0 1.998125 1_565
O4 P0 1.539921 1_555
O4 V0 1.998125 1_656
O5 P1 1.537236 1_555
O6 P1 1.546953 1_545
O7 P1 1.579152 1_555
O7 V0 1.882713 1_665
F0 V0 1.987502 1_555
F0 Mg0 2.066764 1_555
F0 Mn0 2.212634 1_555
F1 V0 1.987502 1_666
F1 Mg0 2.066764 1_655
F1 Mn0 2.212634 1_555
