# generated using pymatgen
data_Na2InSn(PO4)3
_symmetry_space_group_name_H-M   'P 1'
_cell_length_a   8.92229955
_cell_length_b   8.92229924
_cell_length_c   22.90983402
_cell_angle_alpha   89.97234897
_cell_angle_beta   90.02765103
_cell_angle_gamma   120.36792940
_symmetry_Int_Tables_number   1
_chemical_formula_structural   Na2InSn(PO4)3
_chemical_formula_sum   'Na12 In6 Sn6 P18 O72'
_cell_volume   1573.56242309
_cell_formula_units_Z   6
loop_
 _symmetry_equiv_pos_site_id
 _symmetry_equiv_pos_as_xyz
  1  'x, y, z'
loop_
 _atom_site_type_symbol
 _atom_site_label
 _atom_site_symmetry_multiplicity
 _atom_site_fract_x
 _atom_site_fract_y
 _atom_site_fract_z
 _atom_site_occupancy
  Na  Na0  1  0.36569715  0.36170466  0.24941452  1
  Na  Na1  1  0.63829534  0.63430285  0.74941452  1
  Na  Na2  1  0.03236415  0.69503766  0.58274752  1
  Na  Na3  1  0.30496234  0.96763585  0.08274752  1
  Na  Na4  1  0.69903015  0.02837166  0.91608152  1
  Na  Na5  1  0.97162834  0.30096985  0.41608152  1
  Na  Na6  1  0.99983144  0.99941947  0.49843550  1
  Na  Na7  1  0.00058053  0.00016856  0.99843550  1
  Na  Na8  1  0.66649844  0.33275247  0.83176850  1
  Na  Na9  1  0.66724753  0.33350156  0.33176850  1
  Na  Na10  1  0.33316444  0.66608647  0.16510250  1
  Na  Na11  1  0.33391353  0.66683556  0.66510250  1
  In  In0  1  0.99846408  0.99220998  0.35119003  1
  In  In1  1  0.00779002  0.00153592  0.85119003  1
  In  In2  1  0.66513108  0.32554298  0.68452303  1
  In  In3  1  0.67445702  0.33486892  0.18452303  1
  In  In4  1  0.33179708  0.65887698  0.01785703  1
  In  In5  1  0.34112302  0.66820292  0.51785703  1
  Sn  Sn0  1  0.00169896  0.00715716  0.64910314  1
  Sn  Sn1  1  0.99284284  0.99830104  0.14910314  1
  Sn  Sn2  1  0.66836596  0.34049016  0.98243614  1
  Sn  Sn3  1  0.65950984  0.33163404  0.48243614  1
  Sn  Sn4  1  0.33503196  0.67382416  0.31577014  1
  Sn  Sn5  1  0.32617584  0.66496804  0.81577014  1
  P  P0  1  0.29211069  0.99693482  0.24930701  1
  P  P1  1  0.70371382  0.70617137  0.25047128  1
  P  P2  1  0.00057871  0.29433420  0.25187214  1
  P  P3  1  0.29382863  0.29628618  0.75047128  1
  P  P4  1  0.00306518  0.70788931  0.74930701  1
  P  P5  1  0.70566580  -0.00057871  0.75187214  1
  P  P6  1  0.95877769  0.33026782  0.58264001  1
  P  P7  1  0.37038082  0.03950437  0.58380428  1
  P  P8  1  0.66724571  0.62766720  0.58520514  1
  P  P9  1  0.96049563  0.62961918  0.08380428  1
  P  P10  1  0.66973218  0.04122231  0.08264001  1
  P  P11  1  0.37233280  0.33275429  0.08520514  1
  P  P12  1  0.62544369  0.66360182  0.91597401  1
  P  P13  1  0.03704682  0.37283837  0.91713828  1
  P  P14  1  0.33391171  0.96100120  0.91853914  1
  P  P15  1  0.62716163  0.96295318  0.41713828  1
  P  P16  1  0.33639818  0.37455631  0.41597401  1
  P  P17  1  0.03899880  0.66608829  0.41853914  1
  O  O0  1  0.21343888  0.03437864  0.30256956  1
  O  O1  1  0.81247134  0.78349206  0.30485587  1
  O  O2  1  0.97487246  0.19042164  0.30783944  1
  O  O3  1  0.21650794  0.18752866  0.80485587  1
  O  O4  1  0.96562136  0.78656112  0.80256956  1
  O  O5  1  0.80957836  0.02512754  0.80783944  1
  O  O6  1  0.78611070  0.95882225  0.69732739  1
  O  O7  1  0.18070040  0.21720853  0.69481757  1
  O  O8  1  0.03410539  0.81785270  0.69233321  1
  O  O9  1  0.78279147  0.81929960  0.19481757  1
  O  O10  1  0.04117775  0.21388930  0.19732739  1
  O  O11  1  0.18214730  0.96589461  0.19233321  1
  O  O12  1  0.88010588  0.36771164  0.63590256  1
  O  O13  1  0.47913834  0.11682506  0.63818887  1
  O  O14  1  0.64153946  0.52375464  0.64117244  1
  O  O15  1  0.88317494  0.52086166  0.13818887  1
  O  O16  1  0.63228836  0.11989412  0.13590256  1
  O  O17  1  0.47624536  0.35846054  0.14117244  1
  O  O18  1  0.45277770  0.29215525  0.03066039  1
  O  O19  1  0.84736740  0.55054153  0.02815057  1
  O  O20  1  0.70077239  0.15118570  0.02566621  1
  O  O21  1  0.44945847  0.15263260  0.52815057  1
  O  O22  1  0.70784475  0.54722230  0.53066039  1
  O  O23  1  0.84881430  0.29922761  0.52566621  1
  O  O24  1  0.54677188  0.70104564  0.96923656  1
  O  O25  1  0.14580434  0.45015906  0.97152287  1
  O  O26  1  0.30820546  0.85708864  0.97450644  1
  O  O27  1  0.54984094  0.85419566  0.47152287  1
  O  O28  1  0.29895436  0.45322812  0.46923656  1
  O  O29  1  0.14291136  0.69179454  0.47450644  1
  O  O30  1  0.11944370  0.62548925  0.36399439  1
  O  O31  1  0.51403340  0.88387553  0.36148457  1
  O  O32  1  0.36743839  0.48451970  0.35900021  1
  O  O33  1  0.11612447  0.48596660  0.86148457  1
  O  O34  1  0.37451075  0.88055630  0.86399439  1
  O  O35  1  0.51548030  0.63256161  0.85900021  1
  O  O36  1  0.01811254  0.82437024  0.41212544  1
  O  O37  1  0.81226218  0.99277368  0.41132528  1
  O  O38  1  0.17050675  0.19510645  0.41046095  1
  O  O39  1  0.00722632  0.18773782  0.91132528  1
  O  O40  1  0.17562976  0.98188746  0.91212544  1
  O  O41  1  0.80489355  0.82949325  0.91046095  1
  O  O42  1  0.97356255  0.16436138  0.58852446  1
  O  O43  1  0.18434406  0.01814505  0.58871249  1
  O  O44  1  0.84115164  0.80886946  0.58931473  1
  O  O45  1  0.98185495  0.81565594  0.08871249  1
  O  O46  1  0.83563862  0.02643745  0.08852446  1
  O  O47  1  0.19113054  0.15884836  0.08931473  1
  O  O48  1  0.68477954  0.15770324  0.74545844  1
  O  O49  1  0.47892918  0.32610668  0.74465828  1
  O  O50  1  0.83717375  0.52843945  0.74379395  1
  O  O51  1  0.67389332  0.52107082  0.24465828  1
  O  O52  1  0.84229676  0.31522046  0.24545844  1
  O  O53  1  0.47156055  0.16282625  0.24379395  1
  O  O54  1  0.64022955  0.49769438  0.92185746  1
  O  O55  1  0.85101106  0.35147805  0.92204549  1
  O  O56  1  0.50781864  0.14220246  0.92264773  1
  O  O57  1  0.64852195  0.14898894  0.42204549  1
  O  O58  1  0.50230562  0.35977045  0.42185746  1
  O  O59  1  0.85779754  0.49218136  0.42264773  1
  O  O60  1  0.35144554  0.49103724  0.07879244  1
  O  O61  1  0.14559518  0.65944068  0.07799228  1
  O  O62  1  0.50383975  0.86177345  0.07712795  1
  O  O63  1  0.34055932  0.85440482  0.57799228  1
  O  O64  1  0.50896276  0.64855446  0.57879244  1
  O  O65  1  0.13822655  0.49616025  0.57712795  1
  O  O66  1  0.30689555  0.83102838  0.25519146  1
  O  O67  1  0.51767706  0.68481205  0.25537949  1
  O  O68  1  0.17448464  0.47553646  0.25598173  1
  O  O69  1  0.31518795  0.48232294  0.75537949  1
  O  O70  1  0.16897162  0.69310445  0.75519146  1
  O  O71  1  0.52446354  0.82551536  0.75598173  1
loop_
_geom_bond_atom_site_label_1
_geom_bond_atom_site_label_2
_geom_bond_distance
_geom_bond_site_symmetry_2
Na0 O51 2.375277 1_555
Na0 O68 2.391058 1_555
Na0 O53 2.398421 1_555
Na0 O67 2.493178 1_555
Na0 O17 2.674782 1_555
Na0 O32 2.736689 1_555
Na0 O10 2.772029 1_555
Na0 O0 2.800792 1_555
Na1 O49 2.375277 1_555
Na1 O71 2.391058 1_555
Na1 O50 2.398421 1_555
Na1 O69 2.493179 1_555
Na1 O14 2.674782 1_555
Na1 O35 2.736689 1_555
Na1 O6 2.772029 1_555
Na1 O4 2.800792 1_555
Na2 O63 2.375268 1_555
Na2 O44 2.391058 1_455
Na2 O65 2.398405 1_555
Na2 O43 2.493178 1_565
Na2 O29 2.674755 1_555
Na2 O8 2.736689 1_555
Na2 O22 2.772029 1_455
Na2 O12 2.800792 1_455
Na3 O61 2.375268 1_555
Na3 O47 2.391058 1_565
Na3 O62 2.398405 1_555
Na3 O45 2.493179 1_455
Na3 O26 2.674755 1_554
Na3 O11 2.736689 1_555
Na3 O18 2.772029 1_565
Na3 O16 2.800792 1_565
Na4 O39 2.375277 1_655
Na4 O56 2.391042 1_555
Na4 O41 2.398421 1_545
Na4 O55 2.493169 1_555
Na4 O5 2.674782 1_555
Na4 O20 2.736663 1_556
Na4 O34 2.772029 1_545
Na4 O24 2.800792 1_545
Na5 O37 2.375277 1_545
Na5 O59 2.391042 1_555
Na5 O38 2.398421 1_655
Na5 O57 2.493169 1_555
Na5 O2 2.674782 1_555
Na5 O23 2.736663 1_555
Na5 O30 2.772029 1_655
Na5 O28 2.800792 1_655
Na6 O36 2.576186 1_655
Na6 O37 2.585262 1_555
Na6 O43 2.595123 1_665
Na6 O38 2.596309 1_665
Na6 O44 2.606808 1_555
Na6 O42 2.613934 1_565
Na7 O40 2.576186 1_545
Na7 O39 2.585262 1_555
Na7 O45 2.595123 1_446
Na7 O41 2.596309 1_445
Na7 O47 2.606808 1_556
Na7 O46 2.613934 1_456
Na8 O48 2.576186 1_555
Na8 O49 2.585262 1_555
Na8 O55 2.595123 1_555
Na8 O50 2.596309 1_555
Na8 O56 2.606808 1_555
Na8 O54 2.613934 1_555
Na9 O52 2.576186 1_555
Na9 O51 2.585262 1_555
Na9 O57 2.595123 1_555
Na9 O53 2.596309 1_555
Na9 O59 2.606808 1_555
Na9 O58 2.613934 1_555
Na10 O60 2.576186 1_555
Na10 O61 2.585262 1_555
Na10 O67 2.595123 1_555
Na10 O62 2.596309 1_555
Na10 O68 2.606808 1_555
Na10 O66 2.613934 1_555
Na11 O64 2.576186 1_555
Na11 O63 2.585262 1_555
Na11 O69 2.595123 1_555
Na11 O65 2.596309 1_555
Na11 O71 2.606808 1_555
Na11 O70 2.613934 1_555
In0 O1 2.055279 1_555
In0 O0 2.081653 1_665
In0 O36 2.117865 1_655
In0 O2 2.129028 1_565
In0 O38 2.160554 1_665
In0 O37 2.160740 1_555
In1 O3 2.055279 1_555
In1 O4 2.081653 1_445
In1 O40 2.117865 1_545
In1 O5 2.129028 1_455
In1 O41 2.160554 1_445
In1 O39 2.160740 1_555
In2 O13 2.055279 1_555
In2 O12 2.081653 1_555
In2 O48 2.117865 1_555
In2 O14 2.129028 1_555
In2 O50 2.160554 1_555
In2 O49 2.160740 1_555
In3 O15 2.055279 1_555
In3 O16 2.081653 1_555
In3 O52 2.117865 1_555
In3 O17 2.129028 1_555
In3 O53 2.160554 1_555
In3 O51 2.160740 1_555
In4 O25 2.055279 1_554
In4 O24 2.081653 1_554
In4 O60 2.117865 1_555
In4 O26 2.129028 1_554
In4 O62 2.160554 1_555
In4 O61 2.160740 1_555
In5 O27 2.055279 1_555
In5 O28 2.081653 1_555
In5 O64 2.117865 1_555
In5 O29 2.129028 1_555
In5 O65 2.160554 1_555
In5 O63 2.160740 1_555
O0 P0 1.526967 1_545
O1 P1 1.514170 1_555
O2 P2 1.529824 1_655
O3 P3 1.514170 1_555
O4 P4 1.526967 1_655
O5 P5 1.529824 1_555
O6 P5 1.572291 1_565
O6 Sn0 2.066263 1_665
O7 P3 1.556230 1_555
O7 Sn0 2.033189 1_555
O8 P4 1.570792 1_555
O8 Sn0 2.099811 1_565
O9 P1 1.556230 1_555
O9 Sn1 2.033189 1_555
O10 P2 1.572291 1_555
O10 Sn1 2.066263 1_445
O11 P0 1.570792 1_555
O11 Sn1 2.099811 1_455
O12 P6 1.526967 1_555
O13 P7 1.514170 1_555
O14 P8 1.529824 1_555
O15 P9 1.514170 1_555
O16 P10 1.526967 1_555
O17 P11 1.529824 1_555
O18 P11 1.572291 1_555
O18 Sn2 2.066263 1_554
O19 P9 1.556230 1_555
O19 Sn2 2.033189 1_554
O20 P10 1.570792 1_555
O20 Sn2 2.099811 1_554
O21 P7 1.556230 1_555
O21 Sn3 2.033189 1_555
O22 P8 1.572291 1_555
O22 Sn3 2.066263 1_555
O23 P6 1.570792 1_555
O23 Sn3 2.099811 1_555
O24 P12 1.526967 1_555
O25 P13 1.514170 1_555
O26 P14 1.529824 1_555
O27 P15 1.514170 1_555
O28 P16 1.526967 1_555
O29 P17 1.529824 1_555
O30 P17 1.572291 1_555
O30 Sn4 2.066263 1_555
O31 P15 1.556230 1_555
O31 Sn4 2.033189 1_555
O32 P16 1.570792 1_555
O32 Sn4 2.099811 1_555
O33 P13 1.556230 1_555
O33 Sn5 2.033189 1_555
O34 P14 1.572291 1_555
O34 Sn5 2.066263 1_555
O35 P12 1.570792 1_555
O35 Sn5 2.099811 1_555
O36 P17 1.522041 1_555
O37 P15 1.540110 1_555
O38 P16 1.540825 1_555
O39 P13 1.540110 1_555
O40 P14 1.522041 1_555
O41 P12 1.540825 1_555
O42 P6 1.556918 1_555
O42 Sn0 2.076127 1_655
O43 P7 1.576220 1_555
O43 Sn0 2.102367 1_555
O44 P8 1.579196 1_555
O44 Sn0 2.120415 1_665
O45 P9 1.576220 1_555
O45 Sn1 2.102366 1_555
O46 P10 1.556918 1_555
O46 Sn1 2.076127 1_545
O47 P11 1.579196 1_555
O47 Sn1 2.120415 1_445
O48 P5 1.522041 1_555
O49 P3 1.540110 1_555
O50 P4 1.540825 1_655
O51 P1 1.540110 1_555
O52 P2 1.522041 1_655
O53 P0 1.540825 1_545
O54 P12 1.556930 1_555
O54 Sn2 2.076127 1_555
O55 P13 1.576205 1_655
O55 Sn2 2.102367 1_555
O56 P14 1.579194 1_545
O56 Sn2 2.120415 1_555
O57 P15 1.576205 1_545
O57 Sn3 2.102366 1_555
O58 P16 1.556930 1_555
O58 Sn3 2.076127 1_555
O59 P17 1.579194 1_655
O59 Sn3 2.120415 1_555
O60 P11 1.522052 1_555
O61 P9 1.540096 1_455
O62 P10 1.540822 1_565
O63 P7 1.540095 1_565
O64 P8 1.522053 1_555
O65 P6 1.540822 1_455
O66 P0 1.556918 1_555
O66 Sn4 2.076127 1_555
O67 P1 1.576220 1_555
O67 Sn4 2.102367 1_555
O68 P2 1.579196 1_555
O68 Sn4 2.120415 1_555
O69 P3 1.576220 1_555
O69 Sn5 2.102366 1_555
O70 P4 1.556918 1_555
O70 Sn5 2.076127 1_555
O71 P5 1.579196 1_565
O71 Sn5 2.120415 1_555
