# generated using pymatgen
data_MgFe6O7F5
_symmetry_space_group_name_H-M   'P 1'
_cell_length_a   5.15803731
_cell_length_b   5.06483628
_cell_length_c   8.97168963
_cell_angle_alpha   90.33489095
_cell_angle_beta   87.58889731
_cell_angle_gamma   99.75099181
_symmetry_Int_Tables_number   1
_chemical_formula_structural   MgFe6O7F5
_chemical_formula_sum   'Mg1 Fe6 O7 F5'
_cell_volume   230.79115072
_cell_formula_units_Z   1
loop_
 _symmetry_equiv_pos_site_id
 _symmetry_equiv_pos_as_xyz
  1  'x, y, z'
loop_
 _atom_site_type_symbol
 _atom_site_label
 _atom_site_symmetry_multiplicity
 _atom_site_fract_x
 _atom_site_fract_y
 _atom_site_fract_z
 _atom_site_occupancy
  Mg  Mg0  1  0.00625790  0.50995284  0.32716474  1
  Fe  Fe0  1  0.96738096  0.00401547  0.00861070  1
  Fe  Fe1  1  0.05291063  0.02744837  0.33294343  1
  Fe  Fe2  1  0.01133630  0.98304081  0.65567810  1
  Fe  Fe3  1  0.54406505  0.40091544  0.13668255  1
  Fe  Fe4  1  0.45098468  0.53515528  0.83272577  1
  Fe  Fe5  1  0.44338550  0.55925740  0.51536727  1
  O  O0  1  0.17054277  0.78329003  0.49172537  1
  O  O1  1  0.30840028  0.25998131  0.98792672  1
  O  O2  1  0.33639572  0.35222189  0.32572716  1
  O  O3  1  0.29753397  0.30128263  0.66662354  1
  O  O4  1  0.67371315  0.69363098  0.00037124  1
  O  O5  1  0.67408504  0.72383881  0.66605222  1
  O  O6  1  0.83938709  0.22023799  0.17458427  1
  F  F0  1  0.14161657  0.78069734  0.15822850  1
  F  F1  1  0.16595256  0.78639969  0.82883029  1
  F  F2  1  0.71796421  0.71615213  0.34029137  1
  F  F3  1  0.84203255  0.16272303  0.83306010  1
  F  F4  1  0.85605106  0.22753356  0.49597966  1
loop_
_geom_bond_atom_site_label_1
_geom_bond_atom_site_label_2
_geom_bond_distance
_geom_bond_site_symmetry_2
Mg0 O2 1.999240 1_555
Mg0 O6 2.101363 1_455
Mg0 O0 2.120934 1_555
Fe0 O4 1.993167 1_545
Fe0 O6 1.998902 1_555
Fe0 O1 2.003023 1_654
Fe1 O2 2.006643 1_555
Fe1 O0 2.067408 1_545
Fe1 O6 2.167287 1_455
Fe2 O5 1.993097 1_455
Fe2 O3 1.997812 1_565
Fe2 O0 2.005976 1_555
Fe3 O1 1.897290 1_554
Fe3 O4 1.938380 1_555
Fe3 O6 1.947518 1_555
Fe3 O2 1.961466 1_555
Fe4 O5 1.993233 1_555
Fe4 O3 2.002837 1_555
Fe4 O1 2.002863 1_555
Fe4 O4 2.011272 1_556
Fe5 O3 1.927836 1_555
Fe5 O5 1.929939 1_555
Fe5 O0 1.970264 1_555
Fe5 O2 2.039846 1_555
F0 Mg0 2.067847 1_555
F0 Fe1 2.082956 1_565
F0 Fe0 2.086244 1_465
F1 Fe4 2.102517 1_555
F1 Fe2 2.105374 1_555
F1 Fe0 2.255673 1_466
F2 Mg0 1.955941 1_655
F2 Fe1 2.131663 1_665
F2 Fe5 2.133238 1_555
F2 Fe3 2.511836 1_555
F3 Fe0 1.954807 1_556
F3 Fe2 2.063678 1_645
F4 Fe1 2.098528 1_655
F4 Mg0 2.119295 1_655
F4 Fe2 2.163576 1_645
