# generated using pymatgen
data_Na4MgSn3(PO4)6
_symmetry_space_group_name_H-M   'P 1'
_cell_length_a   8.82691249
_cell_length_b   8.83741867
_cell_length_c   22.55990314
_cell_angle_alpha   90.00424850
_cell_angle_beta   89.98309822
_cell_angle_gamma   120.01044273
_symmetry_Int_Tables_number   1
_chemical_formula_structural   Na4MgSn3(PO4)6
_chemical_formula_sum   'Na12 Mg3 Sn9 P18 O72'
_cell_volume   1523.89969897
_cell_formula_units_Z   3
loop_
 _symmetry_equiv_pos_site_id
 _symmetry_equiv_pos_as_xyz
  1  'x, y, z'
loop_
 _atom_site_type_symbol
 _atom_site_label
 _atom_site_symmetry_multiplicity
 _atom_site_fract_x
 _atom_site_fract_y
 _atom_site_fract_z
 _atom_site_occupancy
  Na  Na0  1  0.64018735  0.00943060  0.24631026  1
  Na  Na1  1  0.36883364  0.35909182  0.24614006  1
  Na  Na2  1  0.99055966  0.63019580  0.24589245  1
  Na  Na3  1  0.98924713  0.36274174  0.74403241  1
  Na  Na4  1  0.37237198  0.00762637  0.74431044  1
  Na  Na5  1  0.70582130  0.67530364  0.41582534  1
  Na  Na6  1  0.01077017  0.01157100  0.49674495  1
  Na  Na7  1  0.99985104  0.99989268  0.00216886  1
  Na  Na8  1  0.66565327  0.34406025  0.83250063  1
  Na  Na9  1  0.66568566  0.32326369  0.33329644  1
  Na  Na10  1  0.33307229  0.66666452  0.16127985  1
  Na  Na11  1  0.34345992  0.66555475  0.66169221  1
  Mg  Mg0  1  0.00564757  0.00638758  0.35373441  1
  Mg  Mg1  1  0.66574673  0.33968531  0.68266766  1
  Mg  Mg2  1  0.66669441  0.33319330  0.18111572  1
  Sn  Sn0  1  0.99888132  0.99814943  0.85408739  1
  Sn  Sn1  1  0.99747533  0.99703176  0.64533340  1
  Sn  Sn2  1  0.00050818  0.00037292  0.14701913  1
  Sn  Sn3  1  0.66700364  0.33293067  0.98374465  1
  Sn  Sn4  1  0.66612306  0.32876010  0.48466081  1
  Sn  Sn5  1  0.33335827  0.66662384  0.01984184  1
  Sn  Sn6  1  0.33082394  0.66628518  0.52018123  1
  Sn  Sn7  1  0.33105451  0.66656027  0.31857770  1
  Sn  Sn8  1  0.33751894  0.66593387  0.81727948  1
  P  P0  1  0.29136631  0.00045258  0.25160383  1
  P  P1  1  0.70797400  0.70772541  0.25271222  1
  P  P2  1  0.99896109  0.29037356  0.25172161  1
  P  P3  1  0.29261054  0.29214946  0.75049184  1
  P  P4  1  0.99738427  0.70595052  0.75113467  1
  P  P5  1  0.70720269  0.99831301  0.75032793  1
  P  P6  1  0.96028069  0.33307631  0.58603256  1
  P  P7  1  0.37343599  0.03945099  0.58597522  1
  P  P8  1  0.66591941  0.62561405  0.58345659  1
  P  P9  1  0.96023088  0.62747162  0.08509994  1
  P  P10  1  0.66694790  0.03951335  0.08508624  1
  P  P11  1  0.37275687  0.33315273  0.08505192  1
  P  P12  1  0.62750653  0.66487808  0.91775116  1
  P  P13  1  0.03795556  0.37260109  0.91651944  1
  P  P14  1  0.33520020  0.96220134  0.91661562  1
  P  P15  1  0.62868653  0.96382469  0.41683420  1
  P  P16  1  0.33180023  0.36929073  0.41782580  1
  P  P17  1  0.03646855  0.66638788  0.41741967  1
  O  O0  1  0.20625854  0.03012362  0.30467106  1
  O  O1  1  0.81687237  0.78831921  0.30796729  1
  O  O2  1  0.96802098  0.17519256  0.30470399  1
  O  O3  1  0.21019316  0.17527196  0.80638138  1
  O  O4  1  0.96983061  0.78901521  0.80745824  1
  O  O5  1  0.82416136  0.03401834  0.80594620  1
  O  O6  1  0.78782287  0.96183602  0.69542601  1
  O  O7  1  0.16779626  0.21193253  0.69643557  1
  O  O8  1  0.04374374  0.83057376  0.69705742  1
  O  O9  1  0.78533254  0.82885988  0.19698508  1
  O  O10  1  0.04546075  0.21874518  0.19486004  1
  O  O11  1  0.17338557  0.95467840  0.19475851  1
  O  O12  1  0.88162732  0.35732335  0.64236788  1
  O  O13  1  0.47682578  0.11726660  0.64232184  1
  O  O14  1  0.64013794  0.51451920  0.63671880  1
  O  O15  1  0.88298366  0.52465234  0.14138418  1
  O  O16  1  0.64158854  0.11719185  0.14131467  1
  O  O17  1  0.47567615  0.35860799  0.14134423  1
  O  O18  1  0.45393824  0.30342765  0.02798606  1
  O  O19  1  0.84962318  0.54637125  0.02800359  1
  O  O20  1  0.69714428  0.15022763  0.02797789  1
  O  O21  1  0.45278866  0.15004737  0.52895767  1
  O  O22  1  0.69549192  0.55234802  0.52375405  1
  O  O23  1  0.85030563  0.30330512  0.52895689  1
  O  O24  1  0.54350072  0.69750567  0.97199731  1
  O  O25  1  0.15664808  0.45962087  0.97007562  1
  O  O26  1  0.30351030  0.84354603  0.97012616  1
  O  O27  1  0.53749891  0.83925595  0.46975583  1
  O  O28  1  0.30733430  0.46289612  0.47142002  1
  O  O29  1  0.15484844  0.69370653  0.47088492  1
  O  O30  1  0.10969871  0.62900987  0.35886315  1
  O  O31  1  0.51725068  0.88889138  0.35823988  1
  O  O32  1  0.37702120  0.48793090  0.35993250  1
  O  O33  1  0.11366197  0.47914583  0.85791904  1
  O  O34  1  0.36539226  0.88630094  0.85793837  1
  O  O35  1  0.51747231  0.63142515  0.86040011  1
  O  O36  1  0.01214711  0.82407187  0.41210423  1
  O  O37  1  0.80514365  0.97459510  0.41123985  1
  O  O38  1  0.17299317  0.19201826  0.41183150  1
  O  O39  1  0.02176132  0.18994313  0.91173259  1
  O  O40  1  0.16865554  0.97867371  0.91212223  1
  O  O41  1  0.81001364  0.83167318  0.91242461  1
  O  O42  1  0.98139350  0.16761993  0.58768335  1
  O  O43  1  0.18704416  0.01919077  0.58795190  1
  O  O44  1  0.83270601  0.81181837  0.58658596  1
  O  O45  1  0.98065966  0.81363453  0.08740408  1
  O  O46  1  0.83268445  0.01872989  0.08744212  1
  O  O47  1  0.18639804  0.16731843  0.08723221  1
  O  O48  1  0.68627848  0.15956086  0.74494953  1
  O  O49  1  0.47071773  0.30833867  0.74413494  1
  O  O50  1  0.84324877  0.52327613  0.74491610  1
  O  O51  1  0.68309634  0.52413445  0.24400777  1
  O  O52  1  0.84106933  0.31743333  0.24355671  1
  O  O53  1  0.47620697  0.15858792  0.24356586  1
  O  O54  1  0.64580707  0.50041250  0.92302904  1
  O  O55  1  0.85562626  0.35577029  0.92220077  1
  O  O56  1  0.50047327  0.14454245  0.92226064  1
  O  O57  1  0.64083739  0.14383684  0.42297120  1
  O  O58  1  0.50724790  0.36545483  0.42329859  1
  O  O59  1  0.85181031  0.49837447  0.42291000  1
  O  O60  1  0.35445040  0.49953812  0.07803087  1
  O  O61  1  0.14505798  0.64556466  0.07796779  1
  O  O62  1  0.50010609  0.85516073  0.07800570  1
  O  O63  1  0.35478840  0.85492141  0.57885336  1
  O  O64  1  0.50083994  0.64686109  0.57782823  1
  O  O65  1  0.14495571  0.49947572  0.57926379  1
  O  O66  1  0.30923463  0.82981459  0.25590368  1
  O  O67  1  0.51933932  0.68985516  0.25608477  1
  O  O68  1  0.16992818  0.47887831  0.25632152  1
  O  O69  1  0.29986099  0.47269001  0.75674159  1
  O  O70  1  0.17114790  0.69423919  0.75663334  1
  O  O71  1  0.52031794  0.83312932  0.75608735  1
loop_
_geom_bond_atom_site_label_1
_geom_bond_atom_site_label_2
_geom_bond_distance
_geom_bond_site_symmetry_2
Na0 O52 2.393523 1_555
Na0 O53 2.396896 1_555
Na0 O67 2.479738 1_545
Na0 O66 2.541960 1_545
Na0 O16 2.550748 1_555
Na0 O9 2.733172 1_545
Na0 O31 2.744269 1_545
Na0 O2 2.831388 1_555
Na1 O53 2.391922 1_555
Na1 O51 2.403595 1_555
Na1 O68 2.472829 1_555
Na1 O67 2.544651 1_555
Na1 O17 2.545883 1_555
Na1 O10 2.735787 1_555
Na1 O32 2.794503 1_555
Na1 O0 2.842722 1_555
Na2 O51 2.387748 1_555
Na2 O52 2.394864 1_555
Na2 O66 2.472256 1_655
Na2 O15 2.538783 1_555
Na2 O68 2.543330 1_655
Na2 O11 2.743787 1_655
Na2 O30 2.759357 1_655
Na2 O1 2.899282 1_555
Na3 O50 2.345803 1_555
Na3 O48 2.360696 1_555
Na3 O69 2.424687 1_655
Na3 O12 2.474025 1_555
Na3 O70 2.556588 1_655
Na3 O7 2.741003 1_655
Na3 O33 2.781480 1_655
Na3 O5 2.877257 1_555
Na4 O49 2.346980 1_555
Na4 O48 2.399788 1_555
Na4 O70 2.445711 1_545
Na4 O71 2.483708 1_545
Na4 O13 2.487627 1_555
Na4 O8 2.731387 1_545
Na4 O34 2.767463 1_545
Na4 O3 2.885354 1_555
Na5 O37 2.335711 1_555
Na5 O36 2.343191 1_655
Na5 O58 2.407813 1_555
Na5 O59 2.479244 1_555
Na5 O1 2.626558 1_555
Na5 O22 2.649291 1_555
Na5 O27 2.817665 1_555
Na5 O32 2.819518 1_555
Na6 O38 2.444945 1_555
Na6 O36 2.532119 1_545
Na6 O37 2.555552 1_445
Na6 O42 2.556356 1_455
Na6 O43 2.560545 1_555
Na6 O44 2.630169 1_445
Na7 O47 2.479434 1_665
Na7 O46 2.479887 1_565
Na7 O45 2.481337 1_555
Na7 O41 2.574239 1_554
Na7 O40 2.580649 1_654
Na7 O39 2.587703 1_664
Na8 O54 2.520409 1_555
Na8 O50 2.526875 1_555
Na8 O49 2.548153 1_555
Na8 O55 2.597319 1_555
Na8 O56 2.600477 1_555
Na8 O48 2.624712 1_555
Na9 O57 2.511477 1_555
Na9 O52 2.564345 1_555
Na9 O53 2.565119 1_555
Na9 O59 2.576702 1_555
Na9 O58 2.595648 1_555
Na9 O51 2.638164 1_555
Na10 O61 2.452303 1_555
Na10 O62 2.453594 1_555
Na10 O60 2.454064 1_555
Na10 O66 2.642508 1_555
Na10 O67 2.642846 1_555
Na10 O68 2.652031 1_555
Na11 O64 2.400960 1_555
Na11 O65 2.472114 1_555
Na11 O63 2.477125 1_555
Na11 O71 2.618023 1_555
Na11 O69 2.644830 1_555
Na11 O70 2.710887 1_555
Mg0 O0 2.008011 1_555
Mg0 O2 2.013794 1_455
Mg0 O38 2.041527 1_555
Mg0 O1 2.084478 1_445
Mg0 O37 2.096558 1_445
Mg0 O36 2.103828 1_545
Mg1 O14 1.965365 1_555
Mg1 O12 2.045458 1_555
Mg1 O13 2.048095 1_555
Mg1 O49 2.117745 1_555
Mg1 O50 2.125428 1_555
Mg1 O48 2.197744 1_555
Mg2 O16 2.018894 1_555
Mg2 O17 2.019447 1_555
Mg2 O15 2.019677 1_555
Mg2 O52 2.142100 1_555
Mg2 O53 2.143989 1_555
Mg2 O51 2.153337 1_555
O0 P0 1.504279 1_555
O1 P1 1.516863 1_555
O2 P2 1.503764 1_555
O3 P3 1.560091 1_555
O3 Sn0 2.041092 1_445
O4 P4 1.546240 1_555
O4 Sn0 2.028302 1_555
O5 P5 1.553900 1_545
O5 Sn0 2.036804 1_545
O6 P5 1.540556 1_555
O6 Sn1 2.054636 1_555
O7 P3 1.556578 1_555
O7 Sn1 2.083443 1_445
O8 P4 1.554942 1_455
O8 Sn1 2.072187 1_455
O9 P1 1.568851 1_555
O9 Sn2 2.072380 1_665
O10 P2 1.572957 1_455
O10 Sn2 2.068953 1_555
O11 P0 1.572286 1_565
O11 Sn2 2.066165 1_565
O12 P6 1.513741 1_555
O13 P7 1.514736 1_555
O14 P8 1.495339 1_555
O15 P9 1.510889 1_555
O16 P10 1.511253 1_555
O17 P11 1.511583 1_555
O18 P11 1.558076 1_555
O18 Sn3 2.027223 1_554
O19 P9 1.557787 1_555
O19 Sn3 2.027930 1_554
O20 P10 1.557994 1_555
O20 Sn3 2.025757 1_554
O21 P7 1.554134 1_555
O21 Sn4 2.015730 1_555
O22 P8 1.571687 1_555
O22 Sn4 2.058358 1_555
O23 P6 1.553941 1_555
O23 Sn4 2.014740 1_555
O24 P12 1.530990 1_555
O24 Sn5 2.042713 1_556
O25 P13 1.530853 1_555
O25 Sn5 2.046084 1_556
O26 P14 1.530265 1_555
O26 Sn5 2.045606 1_556
O27 P15 1.548692 1_555
O27 Sn6 2.041655 1_555
O28 P16 1.539878 1_555
O28 Sn6 2.027537 1_555
O29 P17 1.534066 1_555
O29 Sn6 2.021371 1_555
O30 P17 1.576414 1_555
O30 Sn7 2.025878 1_555
O31 P15 1.581927 1_555
O31 Sn7 2.032909 1_555
O32 P16 1.595522 1_555
O32 Sn7 2.041630 1_555
O33 P13 1.565606 1_555
O33 Sn8 2.050914 1_555
O34 P14 1.565805 1_555
O34 Sn8 2.053079 1_555
O35 P12 1.555060 1_555
O35 Sn8 2.011961 1_555
O36 P17 1.517124 1_555
O37 P15 1.517433 1_555
O38 P16 1.496969 1_555
O39 P13 1.551445 1_555
O39 Sn0 2.064536 1_445
O40 P14 1.551370 1_555
O40 Sn0 2.061246 1_455
O41 P12 1.551448 1_555
O41 Sn0 2.054596 1_555
O42 P6 1.564214 1_555
O42 Sn1 2.049112 1_545
O43 P7 1.564041 1_555
O43 Sn1 2.045744 1_445
O44 P8 1.567461 1_555
O44 Sn1 2.042164 1_555
O45 P9 1.563692 1_555
O45 Sn2 2.067246 1_665
O46 P10 1.563839 1_555
O46 Sn2 2.066117 1_655
O47 P11 1.563522 1_555
O47 Sn2 2.065348 1_555
O48 P5 1.530627 1_545
O49 P3 1.512455 1_555
O50 P4 1.509938 1_555
O51 P1 1.537132 1_555
O52 P2 1.538524 1_555
O53 P0 1.538489 1_555
O54 P12 1.545215 1_555
O54 Sn3 2.092695 1_555
O55 P13 1.545690 1_655
O55 Sn3 2.098345 1_555
O56 P14 1.545853 1_545
O56 Sn3 2.099838 1_555
O57 P15 1.546205 1_545
O57 Sn4 2.071813 1_555
O58 P16 1.570787 1_555
O58 Sn4 2.108153 1_555
O59 P17 1.567078 1_655
O59 Sn4 2.101278 1_555
O60 P11 1.565585 1_555
O60 Sn5 2.052740 1_555
O61 P9 1.565886 1_455
O61 Sn5 2.050882 1_555
O62 P10 1.564824 1_565
O62 Sn5 2.052313 1_555
O63 P7 1.563256 1_565
O63 Sn6 2.054978 1_555
O64 P8 1.564752 1_555
O64 Sn6 2.057139 1_555
O65 P6 1.563667 1_455
O65 Sn6 2.054542 1_555
O66 P0 1.595713 1_565
O66 Sn7 2.096714 1_555
O67 P1 1.593752 1_555
O67 Sn7 2.109165 1_555
O68 P2 1.596448 1_455
O68 Sn7 2.094645 1_555
O69 P3 1.570816 1_555
O69 Sn8 2.079491 1_555
O70 P4 1.592966 1_455
O70 Sn8 2.111820 1_555
O71 P5 1.568489 1_555
O71 Sn8 2.075239 1_555
