# generated using pymatgen
data_NaAlI4
_symmetry_space_group_name_H-M   'P 1'
_cell_length_a   8.24989302
_cell_length_b   8.23746097
_cell_length_c   14.90678739
_cell_angle_alpha   90.00000000
_cell_angle_beta   90.00000000
_cell_angle_gamma   90.00000000
_symmetry_Int_Tables_number   1
_chemical_formula_structural   NaAlI4
_chemical_formula_sum   'Na4 Al4 I16'
_cell_volume   1013.03801782
_cell_formula_units_Z   4
loop_
 _symmetry_equiv_pos_site_id
 _symmetry_equiv_pos_as_xyz
  1  'x, y, z'
loop_
 _atom_site_type_symbol
 _atom_site_label
 _atom_site_symmetry_multiplicity
 _atom_site_fract_x
 _atom_site_fract_y
 _atom_site_fract_z
 _atom_site_occupancy
  Na  Na0  1  0.25000000  0.44677437  0.15236803  1
  Na  Na1  1  0.75000000  0.94677437  0.34763197  1
  Na  Na2  1  0.75000000  0.55322563  0.84763197  1
  Na  Na3  1  0.25000000  0.05322563  0.65236803  1
  Al  Al0  1  0.25000000  0.30430142  0.89807517  1
  Al  Al1  1  0.75000000  0.80430142  0.60192483  1
  Al  Al2  1  0.75000000  0.69569858  0.10192483  1
  Al  Al3  1  0.25000000  0.19569858  0.39807517  1
  I  I0  1  0.25000000  0.12300644  0.03529859  1
  I  I1  1  0.75000000  0.62300644  0.46470141  1
  I  I2  1  0.75000000  0.87699356  0.96470141  1
  I  I3  1  0.25000000  0.37699356  0.53529859  1
  I  I4  1  0.25000000  0.90009415  0.44837537  1
  I  I5  1  0.75000000  0.40009415  0.05162463  1
  I  I6  1  0.75000000  0.09990585  0.55162463  1
  I  I7  1  0.25000000  0.59990585  0.94837537  1
  I  I8  1  -0.00358319  0.75672508  0.20113910  1
  I  I9  1  0.00358319  0.25672508  0.29886090  1
  I  I10  1  0.49641681  0.24327492  0.79886090  1
  I  I11  1  0.50358319  0.74327492  0.70113910  1
  I  I12  1  0.00358319  0.24327492  0.79886090  1
  I  I13  1  -0.00358319  0.74327492  0.70113910  1
  I  I14  1  0.50358319  0.75672508  0.20113910  1
  I  I15  1  0.49641681  0.25672508  0.29886090  1
loop_
_geom_bond_atom_site_label_1
_geom_bond_atom_site_label_2
_geom_bond_distance
_geom_bond_site_symmetry_2
Al0 I0 2.532704 1_556
Al0 I7 2.547860 1_555
Al0 I12 2.563744 1_555
Al0 I10 2.563744 1_555
Al1 I1 2.532704 1_555
Al1 I6 2.547860 1_565
Al1 I11 2.563744 1_555
Al1 I13 2.563744 1_655
Al2 I2 2.532704 1_554
Al2 I5 2.547860 1_555
Al2 I8 2.563744 1_655
Al2 I14 2.563744 1_555
Al3 I3 2.532704 1_555
Al3 I4 2.547860 1_545
Al3 I15 2.563744 1_555
Al3 I9 2.563744 1_555
I0 Na0 3.187241 1_555
I1 Na1 3.187241 1_555
I2 Na2 3.187241 1_555
I3 Na3 3.187241 1_555
I4 Na3 3.292125 1_565
I5 Na2 3.292125 1_554
I6 Na1 3.292125 1_545
I7 Na0 3.292125 1_556
I8 Na1 3.369319 1_455
I8 Na0 3.379945 1_555
I9 Na0 3.369319 1_555
I9 Na1 3.379945 1_445
I10 Na3 3.369319 1_555
I10 Na2 3.379945 1_555
I11 Na2 3.369319 1_555
I11 Na3 3.379945 1_565
I12 Na3 3.369319 1_555
I12 Na2 3.379945 1_455
I13 Na2 3.369319 1_455
I13 Na3 3.379945 1_565
I14 Na1 3.369319 1_555
I14 Na0 3.379945 1_555
I15 Na0 3.369319 1_555
I15 Na1 3.379945 1_545
