# generated using pymatgen
data_Na2Y4Si3Sn4(S3O16)3
_symmetry_space_group_name_H-M   'P 1'
_cell_length_a   18.03831279
_cell_length_b   9.04098213
_cell_length_c   23.66911727
_cell_angle_alpha   89.92442905
_cell_angle_beta   89.44228945
_cell_angle_gamma   120.18505184
_symmetry_Int_Tables_number   1
_chemical_formula_structural   Na2Y4Si3Sn4(S3O16)3
_chemical_formula_sum   'Na6 Y12 Si9 Sn12 S27 O144'
_cell_volume   3336.41118180
_cell_formula_units_Z   3
loop_
 _symmetry_equiv_pos_site_id
 _symmetry_equiv_pos_as_xyz
  1  'x, y, z'
loop_
 _atom_site_type_symbol
 _atom_site_label
 _atom_site_symmetry_multiplicity
 _atom_site_fract_x
 _atom_site_fract_y
 _atom_site_fract_z
 _atom_site_occupancy
  Na  Na0  1  0.99410592  0.01468480  0.50079616  1
  Na  Na1  1  0.49508362  0.97536560  0.00608242  1
  Na  Na2  1  0.32350005  0.31279942  0.83906968  1
  Na  Na3  1  0.82625712  0.32945479  0.82810754  1
  Na  Na4  1  0.32888964  0.32571330  0.32605537  1
  Na  Na5  1  0.81410218  0.32209090  0.33351521  1
  Y  Y0  1  0.00592434  0.00307210  0.34911901  1
  Y  Y1  1  0.50666784  0.00979838  0.85053714  1
  Y  Y2  1  0.99923536  0.00704765  0.64477313  1
  Y  Y3  1  0.50328191  0.98972861  0.14759147  1
  Y  Y4  1  0.32672430  0.32817676  0.98281937  1
  Y  Y5  1  0.84086678  0.34392929  0.98410764  1
  Y  Y6  1  0.34141591  0.33498809  0.48161998  1
  Y  Y7  1  0.82693330  0.32559479  0.48046698  1
  Y  Y8  1  0.16341743  0.67301891  0.30431023  1
  Y  Y9  1  0.66826782  0.66554922  0.30856035  1
  Y  Y10  1  0.16927043  0.67756610  0.81177452  1
  Y  Y11  1  0.66241894  0.65267354  0.80519896  1
  Si  Si0  1  0.15290435  0.02054651  0.24592402  1
  Si  Si1  1  0.65345910  0.01417641  0.24829675  1
  Si  Si2  1  0.65322868  0.28606470  0.74599955  1
  Si  Si3  1  0.48347773  0.33537948  0.58476179  1
  Si  Si4  1  0.98182311  0.34263188  0.58099053  1
  Si  Si5  1  0.48039121  0.62457209  0.08045858  1
  Si  Si6  1  0.97987824  0.62765000  0.08642132  1
  Si  Si7  1  0.16605524  0.96121558  0.91438929  1
  Si  Si8  1  0.66458255  0.37067105  0.41392249  1
  Sn  Sn0  1  0.51446884  0.02118487  0.35185846  1
  Sn  Sn1  1  0.00312032  0.99519192  0.85529078  1
  Sn  Sn2  1  0.50574317  0.01845934  0.64520178  1
  Sn  Sn3  1  0.00452993  0.99235385  0.14643308  1
  Sn  Sn4  1  0.33702705  0.33646929  0.67945268  1
  Sn  Sn5  1  0.83404387  0.33497512  0.67912465  1
  Sn  Sn6  1  0.33690183  0.33762548  0.18171106  1
  Sn  Sn7  1  0.83238537  0.33194277  0.18313708  1
  Sn  Sn8  1  0.15870526  0.67681468  0.02154057  1
  Sn  Sn9  1  0.66467115  0.66930055  0.02345561  1
  Sn  Sn10  1  0.16540000  0.66225140  0.52024265  1
  Sn  Sn11  1  0.65766304  0.64339309  0.51692085  1
  S  S0  1  0.35969696  0.70488291  0.25399321  1
  S  S1  1  0.85756369  0.70533796  0.24604288  1
  S  S2  1  0.99380743  0.28178451  0.24538614  1
  S  S3  1  0.49242925  0.28329670  0.25040181  1
  S  S4  1  0.15240617  0.28768588  0.74940996  1
  S  S5  1  0.99391176  0.70256184  0.75071391  1
  S  S6  1  0.49087726  0.70208294  0.74542483  1
  S  S7  1  0.35632776  0.01122292  0.74562737  1
  S  S8  1  0.86075909  0.01501888  0.75421472  1
  S  S9  1  0.18916777  0.03519310  0.58240754  1
  S  S10  1  0.68323045  0.02510783  0.58474635  1
  S  S11  1  0.33371493  0.63247782  0.58582929  1
  S  S12  1  0.82878472  0.62637586  0.58227439  1
  S  S13  1  0.32964426  0.03236576  0.08272992  1
  S  S14  1  0.83443367  0.03389762  0.08539758  1
  S  S15  1  0.18275084  0.34074406  0.08491319  1
  S  S16  1  0.68777533  0.34309479  0.08105480  1
  S  S17  1  0.31028463  0.67070857  0.91955715  1
  S  S18  1  0.81097266  0.67355217  0.91639996  1
  S  S19  1  0.02123380  0.36571070  0.91438799  1
  S  S20  1  0.52364714  0.37757985  0.91958297  1
  S  S21  1  0.66675594  0.95355032  0.91831087  1
  S  S22  1  0.31212796  0.94720703  0.41618850  1
  S  S23  1  0.81109869  0.94928275  0.42006237  1
  S  S24  1  0.16589485  0.37746050  0.41869309  1
  S  S25  1  0.02411888  0.67144819  0.41931427  1
  S  S26  1  0.52185471  0.67840601  0.41512558  1
  O  O0  1  0.11500338  0.05805729  0.30371651  1
  O  O1  1  0.61149147  0.05122264  0.30592886  1
  O  O2  1  0.41326796  0.78957486  0.30485057  1
  O  O3  1  0.90950746  0.78403988  0.29744843  1
  O  O4  1  0.47474102  0.17224964  0.30234051  1
  O  O5  1  0.97901600  0.17743569  0.29733551  1
  O  O6  1  0.11298343  0.17949000  0.80117607  1
  O  O7  1  0.61482356  0.17110298  0.80343613  1
  O  O8  1  0.47634893  0.77650333  0.79714050  1
  O  O9  1  0.97861402  0.78203703  0.80276432  1
  O  O10  1  0.40774271  0.03911722  0.79706191  1
  O  O11  1  0.91595123  0.04032086  0.80552265  1
  O  O12  1  0.39804297  0.98773985  0.69478886  1
  O  O13  1  0.89890513  0.98689884  0.70330271  1
  O  O14  1  0.10092132  0.20714993  0.69909446  1
  O  O15  1  0.59206658  0.19414454  0.69210426  1
  O  O16  1  0.00665934  0.80800161  0.70051262  1
  O  O17  1  0.50132757  0.80592117  0.69422006  1
  O  O18  1  0.39433253  0.80612758  0.20207411  1
  O  O19  1  0.89839515  0.81605924  0.19523810  1
  O  O20  1  0.00428991  0.19754875  0.19430332  1
  O  O21  1  0.50202315  0.20295764  0.19929497  1
  O  O22  1  0.09241878  0.99056845  0.19179786  1
  O  O23  1  0.59869933  0.99274652  0.19343527  1
  O  O24  1  0.44077642  0.37305349  0.64219779  1
  O  O25  1  0.93743820  0.36904658  0.64098479  1
  O  O26  1  0.24010654  0.11461091  0.63523718  1
  O  O27  1  0.73723480  0.10511279  0.63634423  1
  O  O28  1  0.31081202  0.51513444  0.63726845  1
  O  O29  1  0.81399741  0.51993522  0.63502764  1
  O  O30  1  0.43604664  0.50659418  0.13937714  1
  O  O31  1  0.93310690  0.49902156  0.14127337  1
  O  O32  1  0.31399890  0.10981410  0.13420749  1
  O  O33  1  0.81318520  0.10719163  0.13505899  1
  O  O34  1  0.23727403  0.36928436  0.13529631  1
  O  O35  1  0.73888702  0.36583372  0.13255708  1
  O  O36  1  0.21720290  0.29769070  0.03498993  1
  O  O37  1  0.72577593  0.30891387  0.03059431  1
  O  O38  1  0.42413238  0.53289653  0.02591509  1
  O  O39  1  0.92415765  0.54534239  0.03024948  1
  O  O40  1  0.34096695  0.13533342  0.03181422  1
  O  O41  1  0.84971299  0.13943746  0.03408531  1
  O  O42  1  0.22653617  0.14707600  0.53292431  1
  O  O43  1  0.71829308  0.14038862  0.53604256  1
  O  O44  1  0.34917575  0.55473079  0.53613263  1
  O  O45  1  0.84309860  0.54702062  0.53285256  1
  O  O46  1  0.42265645  0.30284227  0.53159485  1
  O  O47  1  0.92308902  0.31198998  0.52765323  1
  O  O48  1  0.26608032  0.68357331  0.97157563  1
  O  O49  1  0.77191270  0.69638524  0.96944641  1
  O  O50  1  0.07189834  0.44058039  0.96637586  1
  O  O51  1  0.57806073  0.46021274  0.96999962  1
  O  O52  1  0.15224295  0.84461432  0.97177165  1
  O  O53  1  0.65828490  0.85245577  0.97090491  1
  O  O54  1  0.27241561  0.84532823  0.47111741  1
  O  O55  1  0.76758614  0.85014023  0.47365918  1
  O  O56  1  0.15681987  0.46044807  0.47217239  1
  O  O57  1  0.65258074  0.45644692  0.47352069  1
  O  O58  1  0.07810542  0.69771491  0.47095851  1
  O  O59  1  0.57181370  0.70398903  0.46843932  1
  O  O60  1  0.06567511  0.65316455  0.36827903  1
  O  O61  1  0.56248567  0.65148098  0.36601272  1
  O  O62  1  0.25591263  0.86348737  0.36825936  1
  O  O63  1  0.76226717  0.86846281  0.36937305  1
  O  O64  1  0.17415495  0.47795519  0.36824937  1
  O  O65  1  0.67859487  0.48599365  0.35953123  1
  O  O66  1  0.06224252  0.47023605  0.86365777  1
  O  O67  1  0.56456418  0.47743845  0.86756686  1
  O  O68  1  0.17748343  0.87248657  0.85839376  1
  O  O69  1  0.67456368  0.87041259  0.86716697  1
  O  O70  1  0.26131867  0.65252820  0.86763922  1
  O  O71  1  0.75807347  0.65006191  0.86671291  1
  O  O72  1  0.01566117  0.82649757  0.41630187  1
  O  O73  1  0.51051760  0.82920483  0.40915747  1
  O  O74  1  0.39639738  0.96102578  0.40924208  1
  O  O75  1  0.89745014  0.96506465  0.41786658  1
  O  O76  1  0.08661494  0.20617536  0.41786472  1
  O  O77  1  0.57261665  0.18496111  0.41218176  1
  O  O78  1  0.01135540  0.19163839  0.90757621  1
  O  O79  1  0.51494561  0.20454361  0.91578912  1
  O  O80  1  0.07600312  0.96974104  0.90897160  1
  O  O81  1  0.58696948  0.96561899  0.91695669  1
  O  O82  1  0.39626967  0.82843556  0.91577724  1
  O  O83  1  0.89685326  0.83223816  0.90962043  1
  O  O84  1  0.48776011  0.15981275  0.59209373  1
  O  O85  1  0.99600554  0.17895028  0.58831845  1
  O  O86  1  0.10130112  0.00408592  0.59002337  1
  O  O87  1  0.59406424  0.99315931  0.59460360  1
  O  O88  1  0.41141557  0.79936547  0.59744745  1
  O  O89  1  0.90748905  0.79604939  0.58928996  1
  O  O90  1  0.49207596  0.81375526  0.08395462  1
  O  O91  1  0.98776373  0.81458946  0.09323451  1
  O  O92  1  0.40697084  0.01850788  0.08865132  1
  O  O93  1  0.91181343  0.02025857  0.09577038  1
  O  O94  1  0.09365071  0.19479278  0.09409599  1
  O  O95  1  0.59911757  0.20101670  0.08653807  1
  O  O96  1  0.34577367  0.16655903  0.74035617  1
  O  O97  1  0.85479612  0.17259363  0.74872310  1
  O  O98  1  0.24021440  0.30193183  0.74255928  1
  O  O99  1  0.74979978  0.30425936  0.73756393  1
  O  O100  1  0.41119124  0.52644776  0.74115092  1
  O  O101  1  0.91504840  0.53045112  0.74624140  1
  O  O102  1  0.35371727  0.53391003  0.24821703  1
  O  O103  1  0.85237212  0.53637511  0.24046635  1
  O  O104  1  0.41380694  0.30140349  0.24630449  1
  O  O105  1  0.91737124  0.30214384  0.24058954  1
  O  O106  1  0.24914602  0.19480707  0.23758988  1
  O  O107  1  0.74967745  0.19611971  0.24239589  1
  O  O108  1  0.32055062  0.51863356  0.92190834  1
  O  O109  1  0.82192048  0.52138409  0.92115223  1
  O  O110  1  0.43820395  0.35942057  0.92383515  1
  O  O111  1  0.93412268  0.34398002  0.91923629  1
  O  O112  1  0.24819258  0.15199632  0.91711240  1
  O  O113  1  0.74296263  0.12700670  0.92240292  1
  O  O114  1  0.32053031  0.11937617  0.42232932  1
  O  O115  1  0.82161961  0.12236286  0.42315230  1
  O  O116  1  0.24235193  0.35816431  0.42379865  1
  O  O117  1  0.74665759  0.34242276  0.41861184  1
  O  O118  1  0.43442513  0.52353731  0.42105528  1
  O  O119  1  0.93916105  0.51785849  0.42449281  1
  O  O120  1  0.17896886  0.49925262  0.07457029  1
  O  O121  1  0.68787410  0.50756064  0.07355180  1
  O  O122  1  0.07299639  0.63647584  0.07978395  1
  O  O123  1  0.57604998  0.63875843  0.07684348  1
  O  O124  1  0.25311757  0.85715530  0.07709897  1
  O  O125  1  0.75922405  0.85886932  0.07633627  1
  O  O126  1  0.18681406  0.86982430  0.57510354  1
  O  O127  1  0.67896051  0.86002406  0.57509265  1
  O  O128  1  0.25896952  0.65694579  0.57726322  1
  O  O129  1  0.75412055  0.65010245  0.57643000  1
  O  O130  1  0.07823904  0.51780787  0.57615573  1
  O  O131  1  0.57596404  0.51089264  0.57789909  1
  O  O132  1  0.16276725  0.85456760  0.25341287  1
  O  O133  1  0.66842979  0.85772221  0.25890575  1
  O  O134  1  0.27235405  0.67563875  0.26255539  1
  O  O135  1  0.77258496  0.68398555  0.25076702  1
  O  O136  1  0.07150611  0.44979976  0.25143933  1
  O  O137  1  0.56773663  0.45200254  0.25726742  1
  O  O138  1  0.16389828  0.45812503  0.75692149  1
  O  O139  1  0.66351263  0.47203463  0.75355449  1
  O  O140  1  0.06887573  0.68204878  0.75789147  1
  O  O141  1  0.56669299  0.68363894  0.75136827  1
  O  O142  1  0.27138566  0.85772044  0.75046661  1
  O  O143  1  0.77512756  0.86667613  0.76249954  1
loop_
_geom_bond_atom_site_label_1
_geom_bond_atom_site_label_2
_geom_bond_distance
_geom_bond_site_symmetry_2
Na0 O75 2.525142 1_545
Na0 O85 2.540966 1_555
Na0 O76 2.580124 1_655
Na0 O89 2.748699 1_545
Na0 O72 2.775721 1_645
Na0 O86 2.910946 1_655
Na1 O90 2.333731 1_555
Na1 O92 2.657577 1_565
Na1 O82 2.685335 1_554
Na1 O81 2.698955 1_554
Na1 O95 2.745911 1_565
Na1 O79 2.866340 1_564
Na2 O112 2.308502 1_555
Na2 O98 2.720978 1_555
Na2 O108 2.723510 1_555
Na2 O110 2.773100 1_555
Na2 O96 2.809383 1_555
Na2 O100 2.906716 1_555
Na3 O99 2.507929 1_555
Na3 O97 2.555208 1_555
Na3 O101 2.574041 1_555
Na3 O113 2.783421 1_555
Na3 O109 2.830270 1_555
Na3 O111 2.877660 1_555
Na4 O106 2.491482 1_555
Na4 O104 2.498222 1_555
Na4 O102 2.503005 1_555
Na4 O116 2.875252 1_555
Na4 O114 2.897341 1_555
Na4 O118 2.923866 1_555
Na5 O117 2.397682 1_555
Na5 O107 2.454254 1_555
Na5 O103 2.773916 1_555
Na5 O115 2.832334 1_555
Na5 O105 2.932458 1_555
Na5 O119 2.991334 1_555
O0 Si0 1.633930 1_555
O0 Y0 2.060887 1_555
O1 Si1 1.667967 1_555
O1 Sn0 1.950063 1_555
O2 S0 1.500041 1_555
O2 Sn0 2.270884 1_565
O3 S1 1.489527 1_555
O3 Y0 2.241977 1_665
O4 S3 1.512626 1_555
O4 Sn0 2.179202 1_555
O5 S2 1.486795 1_555
O5 Y0 2.235817 1_655
O6 S4 1.498063 1_555
O6 Sn1 2.229052 1_545
O7 Si2 1.631640 1_555
O7 Y1 2.065951 1_555
O8 S6 1.480864 1_555
O8 Y1 2.281605 1_565
O9 S5 1.518331 1_555
O9 Sn1 2.148322 1_655
O10 S7 1.481020 1_555
O10 Y1 2.318460 1_555
O11 S8 1.521036 1_555
O11 Sn1 2.169422 1_645
O12 S7 1.484225 1_565
O12 Sn2 2.154307 1_565
O13 S8 1.466563 1_565
O13 Y2 2.201521 1_565
O14 S4 1.467916 1_555
O14 Y2 2.237325 1_455
O15 Si2 1.625831 1_555
O15 Sn2 1.931621 1_555
O16 S5 1.464496 1_455
O16 Y2 2.288334 1_465
O17 S6 1.483357 1_555
O17 Sn2 2.209804 1_565
O18 S0 1.464703 1_555
O18 Y3 2.223774 1_555
O19 S1 1.492892 1_555
O19 Sn3 2.103263 1_655
O20 S2 1.490108 1_455
O20 Sn3 2.176918 1_545
O21 S3 1.464729 1_555
O21 Y3 2.294397 1_545
O22 Si0 1.623543 1_565
O22 Sn3 1.930130 1_555
O23 Si1 1.591409 1_565
O23 Y3 2.032187 1_555
O24 Si3 1.673949 1_555
O24 Sn4 1.932350 1_555
O25 Si4 1.698677 1_555
O25 Sn5 1.943460 1_555
O26 S9 1.511525 1_555
O26 Sn4 2.165610 1_555
O27 S10 1.510167 1_555
O27 Sn5 2.187289 1_555
O28 S11 1.524664 1_555
O28 Sn4 2.145415 1_555
O29 S12 1.512781 1_555
O29 Sn5 2.151110 1_555
O30 Si5 1.684848 1_555
O30 Sn6 1.936457 1_555
O31 Si6 1.654644 1_555
O31 Sn7 1.940558 1_555
O32 S13 1.499593 1_555
O32 Sn6 2.199202 1_555
O33 S14 1.488746 1_555
O33 Sn7 2.202252 1_555
O34 S15 1.491452 1_555
O34 Sn6 2.252406 1_555
O35 S16 1.486683 1_555
O35 Sn7 2.220269 1_555
O36 S15 1.471109 1_555
O36 Y4 2.215344 1_554
O37 S16 1.479830 1_555
O37 Y5 2.216880 1_554
O38 Si5 1.601874 1_555
O38 Y4 2.079204 1_554
O39 Si6 1.614979 1_555
O39 Y5 2.012961 1_554
O40 S13 1.470283 1_555
O40 Y4 2.213931 1_554
O41 S14 1.479003 1_555
O41 Y5 2.266591 1_554
O42 S9 1.464644 1_555
O42 Y6 2.249534 1_555
O43 S10 1.461150 1_555
O43 Y7 2.240259 1_555
O44 S11 1.465745 1_555
O44 Y6 2.315589 1_555
O45 S12 1.460266 1_555
O45 Y7 2.248697 1_555
O46 Si3 1.605339 1_555
O46 Y6 2.022935 1_555
O47 Si4 1.588961 1_555
O47 Y7 2.126694 1_555
O48 S17 1.496591 1_555
O48 Sn8 2.233828 1_556
O49 S18 1.498400 1_555
O49 Sn9 2.216067 1_556
O50 S19 1.486462 1_555
O50 Sn8 2.324323 1_556
O51 S20 1.494427 1_555
O51 Sn9 2.165663 1_556
O52 Si7 1.656378 1_555
O52 Sn8 1.969402 1_556
O53 S21 1.503745 1_555
O53 Sn9 2.119333 1_556
O54 S22 1.538526 1_555
O54 Sn10 2.134536 1_555
O55 S23 1.516232 1_555
O55 Sn11 2.168507 1_555
O56 S24 1.521177 1_555
O56 Sn10 2.090992 1_555
O57 Si8 1.674494 1_555
O57 Sn11 1.941888 1_555
O58 S25 1.513379 1_555
O58 Sn10 2.117907 1_555
O59 S26 1.507078 1_555
O59 Sn11 2.213838 1_555
O60 S25 1.468298 1_555
O60 Y8 2.249952 1_555
O61 S26 1.453031 1_555
O61 Y9 2.282828 1_555
O62 S22 1.463203 1_555
O62 Y8 2.281888 1_555
O63 S23 1.457706 1_555
O63 Y9 2.288853 1_555
O64 S24 1.459719 1_555
O64 Y8 2.404198 1_555
O65 Si8 1.591685 1_555
O65 Y9 2.104468 1_555
O66 S19 1.469278 1_555
O66 Y10 2.248913 1_555
O67 S20 1.478153 1_555
O67 Y11 2.221671 1_555
O68 Si7 1.614431 1_555
O68 Y10 2.022597 1_555
O69 S21 1.468239 1_555
O69 Y11 2.377977 1_555
O70 S17 1.480850 1_555
O70 Y10 2.230797 1_555
O71 S18 1.468821 1_555
O71 Y11 2.277584 1_555
O72 S25 1.486070 1_555
O72 Y0 2.321350 1_565
O73 S26 1.483569 1_555
O73 Sn0 2.173597 1_565
O74 S22 1.468805 1_555
O74 Sn0 2.335282 1_565
O75 S23 1.491375 1_555
O75 Y0 2.419690 1_665
O76 S24 1.489051 1_555
O76 Y0 2.346131 1_555
O77 Si8 1.665340 1_555
O77 Sn0 1.950438 1_555
O78 S19 1.501257 1_555
O78 Sn1 2.109998 1_545
O79 S20 1.494598 1_555
O79 Y1 2.292369 1_555
O80 Si7 1.670615 1_555
O80 Sn1 1.931749 1_555
O81 S21 1.497688 1_555
O81 Y1 2.313798 1_565
O82 S17 1.489969 1_555
O82 Y1 2.385093 1_565
O83 S18 1.497832 1_555
O83 Sn1 2.146094 1_655
O84 Si3 1.636589 1_555
O84 Sn2 1.933679 1_555
O85 Si4 1.632896 1_555
O85 Y2 2.071579 1_555
O86 S9 1.473012 1_555
O86 Y2 2.252302 1_455
O87 S10 1.500060 1_565
O87 Sn2 2.086816 1_565
O88 S11 1.482786 1_555
O88 Sn2 2.179565 1_565
O89 S12 1.487133 1_555
O89 Y2 2.230863 1_565
O90 Si5 1.617077 1_555
O90 Y3 2.128293 1_555
O91 Si6 1.631609 1_555
O91 Sn3 1.945228 1_655
O92 S13 1.469835 1_555
O92 Y3 2.352201 1_545
O93 S14 1.484389 1_555
O93 Sn3 2.182020 1_645
O94 S15 1.493779 1_555
O94 Sn3 2.113108 1_545
O95 S16 1.467714 1_555
O95 Y3 2.312817 1_545
O96 S7 1.514260 1_555
O96 Sn4 2.169098 1_555
O97 S8 1.487250 1_555
O97 Sn5 2.359528 1_555
O98 S4 1.530183 1_555
O98 Sn4 2.185843 1_555
O99 Si2 1.675234 1_555
O99 Sn5 1.957890 1_555
O100 S6 1.518505 1_555
O100 Sn4 2.146262 1_555
O101 S5 1.494523 1_555
O101 Sn5 2.288633 1_555
O102 S0 1.500963 1_555
O102 Sn6 2.279148 1_555
O103 S1 1.488839 1_555
O103 Sn7 2.175640 1_555
O104 S3 1.511170 1_555
O104 Sn6 2.205883 1_555
O105 S2 1.485263 1_555
O105 Sn7 2.174120 1_555
O106 Si0 1.666439 1_555
O106 Sn6 1.954908 1_555
O107 Si1 1.691580 1_555
O107 Sn7 1.952811 1_555
O108 S17 1.477765 1_555
O108 Y4 2.290269 1_555
O109 S18 1.489148 1_555
O109 Y5 2.337983 1_555
O110 S20 1.467999 1_555
O110 Y4 2.333611 1_555
O111 S19 1.485550 1_655
O111 Y5 2.266333 1_555
O112 Si7 1.614542 1_545
O112 Y4 2.177843 1_555
O113 S21 1.481057 1_545
O113 Y5 2.381820 1_555
O114 S22 1.493593 1_545
O114 Y6 2.278222 1_555
O115 S23 1.480524 1_545
O115 Y7 2.248916 1_555
O116 S24 1.480624 1_555
O116 Y6 2.352333 1_555
O117 Si8 1.628728 1_555
O117 Y7 2.127356 1_555
O118 S26 1.497333 1_555
O118 Y6 2.201456 1_555
O119 S25 1.465523 1_655
O119 Y7 2.297410 1_555
O120 S15 1.488622 1_555
O120 Sn8 2.209034 1_555
O121 S16 1.496377 1_555
O121 Sn9 2.083257 1_555
O122 Si6 1.646958 1_455
O122 Sn8 1.952920 1_555
O123 Si5 1.666058 1_555
O123 Sn9 1.935035 1_555
O124 S13 1.495940 1_565
O124 Sn8 2.131902 1_555
O125 S14 1.496109 1_565
O125 Sn9 2.126197 1_555
O126 S9 1.484586 1_565
O126 Sn10 2.155094 1_555
O127 S10 1.473567 1_565
O127 Sn11 2.267179 1_555
O128 S11 1.487627 1_555
O128 Sn10 2.190473 1_555
O129 S12 1.474155 1_555
O129 Sn11 2.226386 1_555
O130 Si4 1.664918 1_455
O130 Sn10 1.954230 1_555
O131 Si3 1.630812 1_555
O131 Sn11 1.966913 1_555
O132 Si0 1.607261 1_565
O132 Y8 2.039600 1_555
O133 Si1 1.587856 1_565
O133 Y9 2.095091 1_555
O134 S0 1.472409 1_555
O134 Y8 2.180362 1_555
O135 S1 1.448622 1_555
O135 Y9 2.252484 1_555
O136 S2 1.468299 1_455
O136 Y8 2.251667 1_555
O137 S3 1.455873 1_555
O137 Y9 2.240149 1_555
O138 S4 1.459209 1_555
O138 Y10 2.333893 1_555
O139 Si2 1.606588 1_555
O139 Y11 2.049143 1_555
O140 S5 1.465720 1_455
O140 Y10 2.241957 1_555
O141 S6 1.466594 1_555
O141 Y11 2.282846 1_555
O142 S7 1.464471 1_565
O142 Y10 2.253065 1_555
O143 S8 1.460588 1_565
O143 Y11 2.213035 1_555
