# generated using pymatgen
data_MgFe4(OF)4
_symmetry_space_group_name_H-M   'P 1'
_cell_length_a   5.85914646
_cell_length_b   5.40981597
_cell_length_c   5.42221729
_cell_angle_alpha   105.73625860
_cell_angle_beta   69.81517038
_cell_angle_gamma   73.64358439
_symmetry_Int_Tables_number   1
_chemical_formula_structural   MgFe4(OF)4
_chemical_formula_sum   'Mg1 Fe4 O4 F4'
_cell_volume   141.24268018
_cell_formula_units_Z   1
loop_
 _symmetry_equiv_pos_site_id
 _symmetry_equiv_pos_as_xyz
  1  'x, y, z'
loop_
 _atom_site_type_symbol
 _atom_site_label
 _atom_site_symmetry_multiplicity
 _atom_site_fract_x
 _atom_site_fract_y
 _atom_site_fract_z
 _atom_site_occupancy
  Mg  Mg0  1  0.74703844  0.43317227  0.69282736  1
  Fe  Fe0  1  0.25761751  0.94143882  0.12438931  1
  Fe  Fe1  1  0.77596081  0.71666721  0.30845680  1
  Fe  Fe2  1  0.24188587  0.38701019  0.68103649  1
  Fe  Fe3  1  0.73347776  0.08030360  0.98028986  1
  O  O0  1  0.59904054  0.84698071  0.78546239  1
  O  O1  1  0.90897266  0.36263881  0.95468137  1
  O  O2  1  0.02337751  0.80330129  0.97597398  1
  O  O3  1  0.48269875  0.00719065  0.32781132  1
  F  F0  1  0.44592631  0.39486407  0.95199708  1
  F  F1  1  0.05806883  0.42028358  0.39065431  1
  F  F2  1  0.55752018  0.46341094  0.44876943  1
  F  F3  1  0.93602383  0.00100686  0.49044630  1
loop_
_geom_bond_atom_site_label_1
_geom_bond_atom_site_label_2
_geom_bond_distance
_geom_bond_site_symmetry_2
Mg0 O0 2.002962 1_555
Mg0 O1 2.020233 1_555
Fe0 O0 2.004509 1_554
Fe0 O2 2.025665 1_554
Fe0 O3 2.034096 1_565
Fe1 O3 1.923200 1_565
Fe1 O1 2.022378 1_554
Fe1 O2 2.146777 1_654
Fe1 O0 2.238370 1_555
Fe2 O3 2.061223 1_555
Fe2 O1 2.068185 1_455
Fe2 O2 2.068326 1_555
Fe3 O2 1.910815 1_645
Fe3 O0 1.934065 1_545
Fe3 O1 2.076184 1_555
Fe3 O3 2.164958 1_556
F0 Mg0 1.945074 1_555
F0 Fe3 2.112608 1_555
F0 Fe2 2.190084 1_555
F0 Fe0 2.604951 1_556
F1 Mg0 1.953546 1_455
F1 Fe2 2.210485 1_555
F1 Fe1 2.214706 1_455
F1 Fe0 2.294017 1_545
F2 Mg0 2.010020 1_555
F2 Fe2 2.069437 1_555
F2 Fe1 2.230480 1_555
F2 Fe3 2.438144 1_554
F3 Mg0 2.051348 1_555
F3 Fe0 2.079425 1_645
F3 Fe1 2.201642 1_545
F3 Fe3 2.359438 1_555
