# generated using pymatgen
data_Na3B20
_symmetry_space_group_name_H-M   'P 1'
_cell_length_a   4.12626307
_cell_length_b   5.67533883
_cell_length_c   9.73792650
_cell_angle_alpha   106.94201992
_cell_angle_beta   90.00000000
_cell_angle_gamma   90.00000000
_symmetry_Int_Tables_number   1
_chemical_formula_structural   Na3B20
_chemical_formula_sum   'Na3 B20'
_cell_volume   218.14518711
_cell_formula_units_Z   1
loop_
 _symmetry_equiv_pos_site_id
 _symmetry_equiv_pos_as_xyz
  1  'x, y, z'
loop_
 _atom_site_type_symbol
 _atom_site_label
 _atom_site_symmetry_multiplicity
 _atom_site_fract_x
 _atom_site_fract_y
 _atom_site_fract_z
 _atom_site_occupancy
  Na  Na0  1  -0.00000000  0.63598387  0.27196774  1
  Na  Na1  1  -0.00000000  0.36401613  0.72803226  1
  Na  Na2  1  -0.00000000  -0.00000000  0.00000000  1
  B  B0  1  0.50000000  0.25582188  0.51164476  1
  B  B1  1  0.50000000  0.74417812  0.48835524  1
  B  B2  1  0.50000000  0.02677356  0.59527472  1
  B  B3  1  0.20783500  0.82603582  0.65207465  1
  B  B4  1  0.20783500  0.17396418  0.34792535  1
  B  B5  1  0.79216500  0.17396418  0.34792535  1
  B  B6  1  0.79216500  0.82603582  0.65207465  1
  B  B7  1  0.20095249  0.50000000  0.00000000  1
  B  B8  1  0.79904751  0.50000000  0.00000000  1
  B  B9  1  0.50000000  0.60899829  0.90612134  1
  B  B10  1  0.50000000  0.39100171  0.09387866  1
  B  B11  1  0.50000000  0.70287795  0.09387866  1
  B  B12  1  0.50000000  0.29712205  0.90612134  1
  B  B13  1  0.50000000  0.73473930  0.76949466  1
  B  B14  1  0.50000000  0.26526070  0.23050534  1
  B  B15  1  0.50000000  0.96524464  0.23050534  1
  B  B16  1  0.50000000  0.03475536  0.76949466  1
  B  B17  1  0.50000000  0.56850416  0.59527472  1
  B  B18  1  0.50000000  0.43149584  0.40472528  1
  B  B19  1  0.50000000  0.97322644  0.40472528  1
loop_
_geom_bond_atom_site_label_1
_geom_bond_atom_site_label_2
_geom_bond_distance
_geom_bond_site_symmetry_2
B0 B18 1.638005 1_555
B0 B19 1.638014 1_545
B0 B2 1.723372 1_555
B0 B17 1.723392 1_555
B0 B4 1.944034 1_555
B0 B5 1.944034 1_555
B0 Na1 2.884375 1_555
B0 Na1 2.884375 1_655
B1 B17 1.638005 1_555
B1 B2 1.638014 1_565
B1 B19 1.723372 1_555
B1 B18 1.723392 1_555
B1 B3 1.944034 1_555
B1 B6 1.944034 1_555
B1 Na0 2.884375 1_555
B1 Na0 2.884375 1_655
B2 B6 1.850523 1_545
B2 B3 1.850523 1_545
B2 Na1 2.854645 1_555
B2 Na1 2.854645 1_655
B3 B6 1.715164 1_455
B3 Na1 3.047691 1_555
B3 Na1 3.047707 1_565
B4 B5 1.715164 1_455
B4 Na0 3.047691 1_555
B4 Na0 3.047707 1_545
B5 Na0 3.047691 1_655
B5 Na0 3.047707 1_645
B6 Na1 3.047691 1_655
B6 Na1 3.047707 1_665
B7 B8 1.658366 1_455
B7 B9 1.752317 1_554
B7 Na0 2.665703 1_555
B7 Na1 2.665703 1_554
B7 Na2 2.956334 1_555
B7 Na2 2.956334 1_565
B8 B9 1.752317 1_554
B8 Na0 2.665703 1_655
B8 Na1 2.665703 1_654
B8 Na2 2.956334 1_665
B8 Na2 2.956334 1_655
B9 Na1 2.791391 1_555
B9 Na1 2.791391 1_655
B9 Na2 2.972238 1_566
B9 Na2 2.972238 1_666
B10 B14 1.683071 1_555
B10 B12 1.749016 1_554
B10 B7 1.752317 1_555
B10 B8 1.752317 1_555
B10 B11 1.770003 1_555
B10 Na0 2.791391 1_655
B10 Na0 2.791391 1_555
B10 Na2 2.972238 1_555
B10 Na2 2.972238 1_655
B11 B15 1.683067 1_555
B11 B9 1.749016 1_554
B11 B7 1.752320 1_555
B11 B8 1.752320 1_555
B11 Na0 2.791392 1_655
B11 Na0 2.791392 1_555
B11 Na2 2.972234 1_565
B11 Na2 2.972234 1_665
B12 B16 1.683067 1_555
B12 B8 1.752320 1_556
B12 B7 1.752320 1_556
B12 B9 1.770003 1_555
B12 Na1 2.791392 1_555
B12 Na1 2.791392 1_655
B12 Na2 2.972234 1_556
B12 Na2 2.972234 1_656
B13 B9 1.683071 1_555
B13 B17 1.683894 1_555
B13 B16 1.702693 1_565
B13 B3 1.836990 1_555
B13 B6 1.836990 1_555
B13 Na1 2.889839 1_555
B13 Na1 2.889839 1_655
B13 Na2 3.097077 1_666
B13 Na2 3.097077 1_566
B14 B18 1.683894 1_555
B14 B15 1.702693 1_545
B14 B4 1.836990 1_555
B14 B5 1.836990 1_555
B14 Na0 2.889839 1_555
B14 Na0 2.889839 1_655
B14 Na2 3.097077 1_555
B14 Na2 3.097077 1_655
B15 B19 1.683898 1_555
B15 B4 1.836998 1_565
B15 B5 1.836998 1_565
B15 Na0 2.889839 1_655
B15 Na0 2.889839 1_555
B15 Na2 3.097077 1_565
B15 Na2 3.097077 1_665
B16 B2 1.683898 1_555
B16 B6 1.836998 1_545
B16 B3 1.836998 1_545
B16 Na1 2.889839 1_555
B16 Na1 2.889839 1_655
B16 Na2 3.097077 1_556
B16 Na2 3.097077 1_656
B17 B18 1.790758 1_555
B17 B3 1.850499 1_555
B17 B6 1.850499 1_555
B17 Na1 2.854654 1_555
B17 Na1 2.854654 1_655
B18 B4 1.850499 1_555
B18 B5 1.850499 1_555
B18 Na0 2.854654 1_555
B18 Na0 2.854654 1_655
B19 B2 1.790754 1_565
B19 B4 1.850523 1_565
B19 B5 1.850523 1_565
B19 Na0 2.854645 1_555
B19 Na0 2.854645 1_655
