# generated using pymatgen
data_YSiRu
_symmetry_space_group_name_H-M   'P 1'
_cell_length_a   4.32603968
_cell_length_b   6.99756996
_cell_length_c   7.08043516
_cell_angle_alpha   90.00000000
_cell_angle_beta   90.00000000
_cell_angle_gamma   90.00000000
_symmetry_Int_Tables_number   1
_chemical_formula_structural   YSiRu
_chemical_formula_sum   'Y4 Si4 Ru4'
_cell_volume   214.33727146
_cell_formula_units_Z   4
loop_
 _symmetry_equiv_pos_site_id
 _symmetry_equiv_pos_as_xyz
  1  'x, y, z'
loop_
 _atom_site_type_symbol
 _atom_site_label
 _atom_site_symmetry_multiplicity
 _atom_site_fract_x
 _atom_site_fract_y
 _atom_site_fract_z
 _atom_site_occupancy
  Y  Y0  1  0.75000000  0.01387125  0.81318779  1
  Y  Y1  1  0.25000000  0.48612875  0.31318779  1
  Y  Y2  1  0.75000000  0.51387125  0.68681221  1
  Y  Y3  1  0.25000000  0.98612875  0.18681221  1
  Si  Si0  1  0.25000000  0.30559629  0.89401745  1
  Si  Si1  1  0.25000000  0.80559629  0.60598255  1
  Si  Si2  1  0.75000000  0.69440371  0.10598255  1
  Si  Si3  1  0.75000000  0.19440371  0.39401745  1
  Ru  Ru0  1  0.25000000  0.65205960  0.93253722  1
  Ru  Ru1  1  0.25000000  0.15205960  0.56746278  1
  Ru  Ru2  1  0.75000000  0.84794040  0.43253722  1
  Ru  Ru3  1  0.75000000  0.34794040  0.06746278  1
loop_
_geom_bond_atom_site_label_1
_geom_bond_atom_site_label_2
_geom_bond_distance
_geom_bond_site_symmetry_2
Si0 Y2 2.992510 1_455
Si0 Y2 2.992510 1_555
Si0 Y0 3.028757 1_555
Si0 Y0 3.028757 1_455
Si0 Y3 3.048811 1_546
Si0 Y1 3.225582 1_556
Si1 Y0 2.992510 1_565
Si1 Y0 2.992510 1_465
Si1 Y2 3.028757 1_455
Si1 Y2 3.028757 1_555
Si1 Y1 3.048811 1_555
Si1 Y3 3.225582 1_555
Si2 Y1 2.992510 1_555
Si2 Y1 2.992510 1_655
Si2 Y3 3.028757 1_655
Si2 Y3 3.028757 1_555
Si2 Y0 3.048811 1_564
Si2 Y2 3.225582 1_554
Si3 Y3 2.992510 1_545
Si3 Y3 2.992510 1_645
Si3 Y1 3.028757 1_555
Si3 Y1 3.028757 1_655
Si3 Y2 3.048811 1_555
Si3 Y0 3.225582 1_555
Ru0 Si0 2.439694 1_555
Ru0 Si2 2.504916 1_556
Ru0 Si2 2.504916 1_456
Ru0 Si1 2.549575 1_555
Ru0 Y1 2.934644 1_556
Ru0 Y2 2.939516 1_455
Ru0 Y2 2.939516 1_555
Ru0 Y3 2.950605 1_556
Ru1 Si1 2.439694 1_545
Ru1 Si3 2.504916 1_455
Ru1 Si3 2.504916 1_555
Ru1 Si0 2.549575 1_555
Ru1 Y3 2.934644 1_545
Ru1 Y0 2.939516 1_455
Ru1 Y0 2.939516 1_555
Ru1 Y1 2.950605 1_555
Ru2 Si3 2.439694 1_565
Ru2 Si1 2.504916 1_655
Ru2 Si1 2.504916 1_555
Ru2 Si2 2.549575 1_555
Ru2 Y0 2.934644 1_565
Ru2 Y3 2.939516 1_555
Ru2 Y3 2.939516 1_655
Ru2 Y2 2.950605 1_555
Ru3 Si2 2.439694 1_555
Ru3 Si0 2.504916 1_654
Ru3 Si0 2.504916 1_554
Ru3 Si3 2.549575 1_555
Ru3 Y2 2.934644 1_554
Ru3 Y1 2.939516 1_555
Ru3 Y1 2.939516 1_655
Ru3 Y0 2.950605 1_554
