# generated using pymatgen
data_InNi3
_symmetry_space_group_name_H-M   'P 1'
_cell_length_a   3.70045155
_cell_length_b   3.70045155
_cell_length_c   3.70045155
_cell_angle_alpha   90.00000000
_cell_angle_beta   90.00000000
_cell_angle_gamma   90.00000000
_symmetry_Int_Tables_number   1
_chemical_formula_structural   InNi3
_chemical_formula_sum   'In1 Ni3'
_cell_volume   50.67154742
_cell_formula_units_Z   1
loop_
 _symmetry_equiv_pos_site_id
 _symmetry_equiv_pos_as_xyz
  1  'x, y, z'
loop_
 _atom_site_type_symbol
 _atom_site_label
 _atom_site_symmetry_multiplicity
 _atom_site_fract_x
 _atom_site_fract_y
 _atom_site_fract_z
 _atom_site_occupancy
  In  In0  1  0.00000000  0.00000000  -0.00000000  1
  Ni  Ni0  1  0.50000000  0.00000000  0.50000000  1
  Ni  Ni1  1  0.00000000  0.50000000  0.50000000  1
  Ni  Ni2  1  0.50000000  0.50000000  -0.00000000  1
loop_
_geom_bond_atom_site_label_1
_geom_bond_atom_site_label_2
_geom_bond_distance
_geom_bond_site_symmetry_2
In0 Ni2 2.616614 1_455
In0 Ni1 2.616614 1_555
In0 Ni0 2.616614 1_455
In0 Ni0 2.616614 1_554
In0 Ni2 2.616614 1_545
In0 Ni2 2.616614 1_555
In0 Ni1 2.616614 1_545
In0 Ni2 2.616614 1_445
In0 Ni1 2.616614 1_554
In0 Ni0 2.616614 1_454
In0 Ni1 2.616614 1_544
In0 Ni0 2.616614 1_555
Ni0 Ni1 2.616614 1_555
Ni0 Ni2 2.616614 1_546
Ni0 Ni2 2.616614 1_545
Ni0 Ni2 2.616614 1_555
Ni0 Ni1 2.616614 1_545
Ni0 Ni1 2.616614 1_655
Ni0 Ni1 2.616614 1_645
Ni0 Ni2 2.616614 1_556
Ni1 Ni2 2.616614 1_455
Ni1 Ni2 2.616614 1_555
Ni1 Ni2 2.616614 1_556
Ni1 Ni2 2.616614 1_456
