# generated using pymatgen
data_Na2TaGaSi(PO6)2
_symmetry_space_group_name_H-M   'P 1'
_cell_length_a   8.78017912
_cell_length_b   8.78017882
_cell_length_c   22.40470457
_cell_angle_alpha   89.58001487
_cell_angle_beta   90.41998513
_cell_angle_gamma   119.70381892
_symmetry_Int_Tables_number   1
_chemical_formula_structural   Na2TaGaSi(PO6)2
_chemical_formula_sum   'Na12 Ta6 Ga6 Si6 P12 O72'
_cell_volume   1500.20090856
_cell_formula_units_Z   6
loop_
 _symmetry_equiv_pos_site_id
 _symmetry_equiv_pos_as_xyz
  1  'x, y, z'
loop_
 _atom_site_type_symbol
 _atom_site_label
 _atom_site_symmetry_multiplicity
 _atom_site_fract_x
 _atom_site_fract_y
 _atom_site_fract_z
 _atom_site_occupancy
  Na  Na0  1  0.99217905  0.62909780  0.24795679  1
  Na  Na1  1  0.37090220  0.00782095  0.74795679  1
  Na  Na2  1  0.65864215  0.96497909  0.58301401  1
  Na  Na3  1  0.03502091  0.34135785  0.08301401  1
  Na  Na4  1  0.97428049  0.67464904  0.91649266  1
  Na  Na5  1  0.32535096  0.02571951  0.41649266  1
  Na  Na6  1  0.00072166  0.99785161  0.49576940  1
  Na  Na7  1  0.00214839  0.99927834  0.99576940  1
  Na  Na8  1  0.66771966  0.33047774  0.82915130  1
  Na  Na9  1  0.66952226  0.33228034  0.32915130  1
  Na  Na10  1  0.34253837  0.67246656  0.16235020  1
  Na  Na11  1  0.32753344  0.65746163  0.66235020  1
  Ta  Ta0  1  0.00288278  0.00015513  0.64612277  1
  Ta  Ta1  1  0.99984487  0.99711722  0.14612277  1
  Ta  Ta2  1  0.66157270  0.33036679  0.97925516  1
  Ta  Ta3  1  0.66963321  0.33842730  0.47925516  1
  Ta  Ta4  1  0.32942005  0.66025217  0.31244208  1
  Ta  Ta5  1  0.33974783  0.67057995  0.81244208  1
  Ga  Ga0  1  0.99148309  0.99760587  0.35219977  1
  Ga  Ga1  1  0.00239413  0.00851691  0.85219977  1
  Ga  Ga2  1  0.66930498  0.32912936  0.68484957  1
  Ga  Ga3  1  0.67087064  0.33069502  0.18484957  1
  Ga  Ga4  1  0.33160809  0.67504692  0.01862651  1
  Ga  Ga5  1  0.32495308  0.66839191  0.51862651  1
  Si  Si0  1  0.99123301  0.28119424  0.25143117  1
  Si  Si1  1  0.71880576  0.00876699  0.75143117  1
  Si  Si2  1  0.37670609  0.03961085  0.58401879  1
  Si  Si3  1  0.96038915  0.62329391  0.08401879  1
  Si  Si4  1  0.32804828  0.95745337  0.91694856  1
  Si  Si5  1  0.04254663  0.67195172  0.41694856  1
  P  P0  1  0.29652137  0.01002214  0.25194128  1
  P  P1  1  0.71037293  0.70927975  0.25111664  1
  P  P2  1  0.29072025  0.28962707  0.75111664  1
  P  P3  1  0.98997786  0.70347863  0.75194128  1
  P  P4  1  0.96147853  0.34215954  0.58487020  1
  P  P5  1  0.66108308  0.61727822  0.58511039  1
  P  P6  1  0.65784046  0.03852147  0.08487020  1
  P  P7  1  0.38272178  0.33891692  0.08511039  1
  P  P8  1  0.62232413  0.67196770  0.91915652  1
  P  P9  1  0.04816765  0.37375935  0.91837577  1
  P  P10  1  0.62624065  0.95183235  0.41837577  1
  P  P11  1  0.32803230  0.37767587  0.41915652  1
  O  O0  1  0.21266762  0.03053556  0.30789881  1
  O  O1  1  0.82968230  0.78945791  0.30524049  1
  O  O2  1  0.96889121  0.16531190  0.30897933  1
  O  O3  1  0.21054209  0.17031770  0.80524049  1
  O  O4  1  0.96946444  0.78733238  0.80789881  1
  O  O5  1  0.83468810  0.03110879  0.80897933  1
  O  O6  1  0.79982951  0.96928630  0.69039149  1
  O  O7  1  0.17058703  0.20060965  0.69468274  1
  O  O8  1  0.03415361  0.83109485  0.69628401  1
  O  O9  1  0.79939035  0.82941297  0.19468274  1
  O  O10  1  0.03071370  0.20017049  0.19039149  1
  O  O11  1  0.16890515  0.96584639  0.19628401  1
  O  O12  1  0.87631287  0.36749551  0.63956652  1
  O  O13  1  0.49756898  0.12670249  0.64249417  1
  O  O14  1  0.63778908  0.50643289  0.64031952  1
  O  O15  1  0.87329751  0.50243102  0.14249417  1
  O  O16  1  0.63250449  0.12368713  0.13956652  1
  O  O17  1  0.49356711  0.36221092  0.14031952  1
  O  O18  1  0.46503049  0.30191009  0.02854567  1
  O  O19  1  0.83514749  0.53259433  0.02412312  1
  O  O20  1  0.69857606  0.16297631  0.02884028  1
  O  O21  1  0.46740567  0.16485251  0.52412312  1
  O  O22  1  0.69808991  0.53496951  0.52854567  1
  O  O23  1  0.83702369  0.30142394  0.52884028  1
  O  O24  1  0.53449498  0.69435838  0.97372229  1
  O  O25  1  0.15409442  0.45471343  0.97506304  1
  O  O26  1  0.29019030  0.83017845  0.97313035  1
  O  O27  1  0.54528657  0.84590558  0.47506304  1
  O  O28  1  0.30564162  0.46550502  0.47372229  1
  O  O29  1  0.16982155  0.70980970  0.47313035  1
  O  O30  1  0.13390460  0.63675479  0.35713291  1
  O  O31  1  0.50280720  0.86837286  0.36285856  1
  O  O32  1  0.36507641  0.49610313  0.36196788  1
  O  O33  1  0.13162714  0.49719280  0.86285856  1
  O  O34  1  0.36324521  0.86609540  0.85713291  1
  O  O35  1  0.50389687  0.63492359  0.86196788  1
  O  O36  1  0.02749507  0.84707042  0.40742474  1
  O  O37  1  0.80953101  0.97756132  0.41068117  1
  O  O38  1  0.17494934  0.19283007  0.41097008  1
  O  O39  1  0.02243868  0.19046899  0.91068117  1
  O  O40  1  0.15292958  0.97250493  0.90742474  1
  O  O41  1  0.80716993  0.82505066  0.91097008  1
  O  O42  1  0.96787011  0.16529922  0.58992386  1
  O  O43  1  0.18210230  0.02344330  0.59022552  1
  O  O44  1  0.82983689  0.80574638  0.59029047  1
  O  O45  1  0.97655670  0.81789770  0.09022552  1
  O  O46  1  0.83470078  0.03212989  0.08992386  1
  O  O47  1  0.19425362  0.17016311  0.09029047  1
  O  O48  1  0.68055589  0.17067160  0.74441626  1
  O  O49  1  0.47256964  0.31034196  0.74240008  1
  O  O50  1  0.83170075  0.52343772  0.74158449  1
  O  O51  1  0.68965804  0.52743036  0.24240008  1
  O  O52  1  0.82932840  0.31944411  0.24441626  1
  O  O53  1  0.47656228  0.16829925  0.24158449  1
  O  O54  1  0.64128595  0.50180688  0.92341750  1
  O  O55  1  0.86312403  0.36467235  0.92358753  1
  O  O56  1  0.50681521  0.14982469  0.92338760  1
  O  O57  1  0.63532765  0.13687597  0.42358753  1
  O  O58  1  0.49819312  0.35871405  0.42341750  1
  O  O59  1  0.85017531  0.49318479  0.42338760  1
  O  O60  1  0.35374981  0.49441806  0.07586016  1
  O  O61  1  0.15012352  0.63623977  0.07699134  1
  O  O62  1  0.50442669  0.85561173  0.07611836  1
  O  O63  1  0.36376023  0.84987648  0.57699134  1
  O  O64  1  0.50558194  0.64625019  0.57586016  1
  O  O65  1  0.14438827  0.49557331  0.57611836  1
  O  O66  1  0.30766746  0.83574260  0.25655120  1
  O  O67  1  0.52944683  0.69830210  0.25686711  1
  O  O68  1  0.17197391  0.48230451  0.25686182  1
  O  O69  1  0.30169790  0.47055317  0.75686711  1
  O  O70  1  0.16425740  0.69233254  0.75655120  1
  O  O71  1  0.51769549  0.82802609  0.75686182  1
loop_
_geom_bond_atom_site_label_1
_geom_bond_atom_site_label_2
_geom_bond_distance
_geom_bond_site_symmetry_2
Na0 O51 2.348329 1_555
Na0 O52 2.364652 1_555
Na0 O66 2.453294 1_655
Na0 O68 2.490199 1_655
Na0 O15 2.600274 1_555
Na0 O30 2.722329 1_655
Na0 O1 2.776582 1_555
Na0 O11 2.814175 1_655
Na1 O49 2.348329 1_555
Na1 O48 2.364652 1_555
Na1 O70 2.453294 1_545
Na1 O71 2.490199 1_545
Na1 O13 2.600274 1_555
Na1 O34 2.722329 1_545
Na1 O3 2.776582 1_555
Na1 O8 2.814176 1_545
Na2 O63 2.268658 1_555
Na2 O42 2.398832 1_565
Na2 O64 2.437126 1_555
Na2 O44 2.513231 1_555
Na2 O27 2.627519 1_555
Na2 O6 2.690167 1_555
Na2 O13 2.799617 1_565
Na2 O23 2.835969 1_565
Na3 O61 2.268658 1_555
Na3 O46 2.398832 1_455
Na3 O60 2.437126 1_555
Na3 O47 2.513231 1_555
Na3 O25 2.627519 1_554
Na3 O10 2.690167 1_555
Na3 O15 2.799617 1_455
Na3 O20 2.835969 1_455
Na4 O40 2.296215 1_655
Na4 O55 2.397638 1_555
Na4 O41 2.413957 1_555
Na4 O54 2.545860 1_555
Na4 O4 2.627713 1_555
Na4 O19 2.711471 1_556
Na4 O26 2.718217 1_655
Na4 O33 2.822290 1_655
Na5 O36 2.296215 1_545
Na5 O57 2.397638 1_555
Na5 O38 2.413957 1_555
Na5 O58 2.545860 1_555
Na5 O0 2.627713 1_555
Na5 O21 2.711471 1_555
Na5 O29 2.718217 1_545
Na5 O31 2.822290 1_545
Na6 O36 2.465637 1_555
Na6 O37 2.479050 1_455
Na6 O38 2.506010 1_565
Na6 O43 2.582287 1_565
Na6 O44 2.658401 1_455
Na6 O42 2.677575 1_465
Na7 O40 2.465637 1_555
Na7 O39 2.479050 1_565
Na7 O41 2.506010 1_455
Na7 O45 2.582287 1_456
Na7 O47 2.658401 1_566
Na7 O46 2.677575 1_466
Na8 O48 2.405107 1_555
Na8 O50 2.523429 1_555
Na8 O49 2.529999 1_555
Na8 O56 2.596810 1_555
Na8 O55 2.637423 1_555
Na8 O54 2.679016 1_555
Na9 O52 2.405107 1_555
Na9 O53 2.523429 1_555
Na9 O51 2.529999 1_555
Na9 O59 2.596810 1_555
Na9 O57 2.637423 1_555
Na9 O58 2.679016 1_555
Na10 O61 2.458006 1_555
Na10 O62 2.463403 1_555
Na10 O60 2.531464 1_555
Na10 O67 2.610772 1_555
Na10 O68 2.651598 1_555
Na10 O66 2.663110 1_555
Na11 O63 2.458006 1_555
Na11 O65 2.463403 1_555
Na11 O64 2.531464 1_555
Na11 O69 2.610772 1_555
Na11 O71 2.651598 1_555
Na11 O70 2.663110 1_555
Ga0 O2 1.846890 1_565
Ga0 O36 1.939668 1_655
Ga0 O1 1.974441 1_555
Ga0 O37 2.012126 1_555
Ga0 O0 2.075538 1_665
Ga0 O38 2.128939 1_665
Ga1 O5 1.846890 1_455
Ga1 O40 1.939668 1_545
Ga1 O3 1.974441 1_555
Ga1 O39 2.012126 1_555
Ga1 O4 2.075538 1_445
Ga1 O41 2.128940 1_445
Ga2 O13 1.918575 1_555
Ga2 O48 1.957953 1_555
Ga2 O12 1.965092 1_555
Ga2 O14 1.973710 1_555
Ga2 O50 2.038119 1_555
Ga2 O49 2.102553 1_555
Ga3 O15 1.918575 1_555
Ga3 O52 1.957953 1_555
Ga3 O16 1.965092 1_555
Ga3 O17 1.973710 1_555
Ga3 O53 2.038119 1_555
Ga3 O51 2.102553 1_555
Ga4 O26 1.868594 1_554
Ga4 O61 1.962425 1_555
Ga4 O24 1.984610 1_554
Ga4 O62 2.022941 1_555
Ga4 O25 2.035096 1_554
Ga4 O60 2.114104 1_555
Ga5 O29 1.868594 1_555
Ga5 O63 1.962425 1_555
Ga5 O28 1.984610 1_555
Ga5 O65 2.022941 1_555
Ga5 O27 2.035096 1_555
Ga5 O64 2.114104 1_555
O0 P0 1.514780 1_555
O1 P1 1.525280 1_555
O2 Si0 1.588338 1_555
O3 P2 1.525280 1_555
O4 P3 1.514780 1_555
O5 Si1 1.588338 1_555
O6 Si1 1.661966 1_565
O6 Ta0 1.943918 1_665
O7 P2 1.581155 1_555
O7 Ta0 1.971240 1_555
O8 P3 1.586448 1_455
O8 Ta0 1.979071 1_565
O9 P1 1.581155 1_555
O9 Ta1 1.971240 1_555
O10 Si0 1.661966 1_455
O10 Ta1 1.943918 1_445
O11 P0 1.586448 1_565
O11 Ta1 1.979071 1_455
O12 P4 1.514156 1_555
O13 Si2 1.617840 1_555
O14 P5 1.519162 1_555
O15 Si3 1.617840 1_555
O16 P6 1.514156 1_555
O17 P7 1.519162 1_555
O18 P7 1.576743 1_555
O18 Ta2 1.963808 1_554
O19 Si3 1.664450 1_555
O19 Ta2 1.951367 1_554
O20 P6 1.580190 1_555
O20 Ta2 1.985904 1_554
O21 Si2 1.664450 1_555
O21 Ta3 1.951367 1_555
O22 P5 1.576743 1_555
O22 Ta3 1.963808 1_555
O23 P4 1.580190 1_555
O23 Ta3 1.985904 1_555
O24 P8 1.515091 1_555
O25 P9 1.524485 1_555
O26 Si4 1.600342 1_555
O27 P10 1.524485 1_555
O28 P11 1.515091 1_555
O29 Si5 1.600342 1_555
O30 Si5 1.674048 1_555
O30 Ta4 1.913959 1_555
O31 P10 1.570107 1_555
O31 Ta4 2.044701 1_555
O32 P11 1.574841 1_555
O32 Ta4 1.955787 1_555
O33 P9 1.570107 1_555
O33 Ta5 2.044701 1_555
O34 Si4 1.674048 1_555
O34 Ta5 1.913959 1_555
O35 P8 1.574841 1_555
O35 Ta5 1.955787 1_555
O36 Si5 1.619655 1_555
O37 P10 1.521142 1_555
O38 P11 1.520910 1_555
O39 P9 1.521142 1_555
O40 Si4 1.619655 1_555
O41 P8 1.520910 1_555
O42 P4 1.584630 1_555
O42 Ta0 2.047362 1_655
O43 Si2 1.649792 1_555
O43 Ta0 1.947469 1_555
O44 P5 1.586690 1_555
O44 Ta0 2.054295 1_665
O45 Si3 1.649792 1_555
O45 Ta1 1.947469 1_555
O46 P6 1.584630 1_555
O46 Ta1 2.047362 1_545
O47 P7 1.586690 1_555
O47 Ta1 2.054295 1_445
O48 Si1 1.620921 1_555
O49 P2 1.528668 1_555
O50 P3 1.519057 1_555
O51 P1 1.528668 1_555
O52 Si0 1.620921 1_555
O53 P0 1.519057 1_555
O54 P8 1.585301 1_555
O54 Ta2 2.024226 1_555
O55 P9 1.591817 1_655
O55 Ta2 2.067983 1_555
O56 Si4 1.646285 1_545
O56 Ta2 1.948184 1_555
O57 P10 1.591817 1_545
O57 Ta3 2.067983 1_555
O58 P11 1.585302 1_555
O58 Ta3 2.024226 1_555
O59 Si5 1.646285 1_655
O59 Ta3 1.948184 1_555
O60 P7 1.520216 1_555
O61 Si3 1.621376 1_455
O62 P6 1.512917 1_565
O63 Si2 1.621376 1_565
O64 P5 1.520216 1_555
O65 P4 1.512917 1_455
O66 P0 1.583578 1_565
O66 Ta4 2.058778 1_555
O67 P1 1.549355 1_555
O67 Ta4 2.047182 1_555
O68 Si0 1.695413 1_455
O68 Ta4 1.940519 1_555
O69 P2 1.549355 1_555
O69 Ta5 2.047182 1_555
O70 P3 1.583578 1_455
O70 Ta5 2.058778 1_555
O71 Si1 1.695413 1_565
O71 Ta5 1.940519 1_555
