# generated using pymatgen
data_BaYMgCoCuO5
_symmetry_space_group_name_H-M   'P 1'
_cell_length_a   3.91698464
_cell_length_b   3.91698764
_cell_length_c   10.80566961
_cell_angle_alpha   90.00000000
_cell_angle_beta   90.00000000
_cell_angle_gamma   90.00000000
_symmetry_Int_Tables_number   1
_chemical_formula_structural   BaYMgCoCuO5
_chemical_formula_sum   'Ba1 Y1 Mg1 Co1 Cu1 O5'
_cell_volume   165.78901613
_cell_formula_units_Z   1
loop_
 _symmetry_equiv_pos_site_id
 _symmetry_equiv_pos_as_xyz
  1  'x, y, z'
loop_
 _atom_site_type_symbol
 _atom_site_label
 _atom_site_symmetry_multiplicity
 _atom_site_fract_x
 _atom_site_fract_y
 _atom_site_fract_z
 _atom_site_occupancy
  Ba  Ba0  1  0.00000000  -0.00000000  0.86837179  1
  Y  Y0  1  0.00000000  -0.00000000  0.52214599  1
  Mg  Mg0  1  -0.00000000  -0.00000000  0.25181504  1
  Co  Co0  1  0.49999900  0.49999900  0.67555804  1
  Cu  Cu0  1  0.49999900  0.49999900  0.33570105  1
  O  O0  1  0.00000000  0.49999900  0.62392117  1
  O  O1  1  0.49999900  -0.00000000  0.62392017  1
  O  O2  1  -0.00000000  0.49999900  0.33036300  1
  O  O3  1  0.49999900  0.00000000  0.33036300  1
  O  O4  1  0.49999900  0.49999900  0.86742577  1
loop_
_geom_bond_atom_site_label_1
_geom_bond_atom_site_label_2
_geom_bond_distance
_geom_bond_site_symmetry_2
Ba0 O4 2.769741 1_555
Ba0 O4 2.769746 1_455
Ba0 O4 2.769746 1_545
Ba0 O4 2.769752 1_445
Mg0 O3 2.134497 1_555
Mg0 O2 2.134498 1_555
Mg0 O3 2.134504 1_455
Mg0 O2 2.134505 1_545
Co0 O0 2.036420 1_555
Co0 O1 2.036425 1_555
Co0 O0 2.036428 1_655
Co0 O1 2.036432 1_565
Co0 O4 2.073259 1_555
Cu0 O2 1.959338 1_555
Cu0 O3 1.959339 1_555
Cu0 O2 1.959345 1_655
Cu0 O3 1.959347 1_565
O0 Y0 2.246137 1_555
O0 Y0 2.246144 1_565
O1 Y0 2.246130 1_555
O1 Y0 2.246137 1_655
O2 Y0 2.851366 1_555
O2 Y0 2.851372 1_565
O3 Y0 2.851365 1_555
O3 Y0 2.851371 1_655
