# generated using pymatgen
data_Li2Mn3(P2O7)2
_symmetry_space_group_name_H-M   'P 1'
_cell_length_a   5.66697800
_cell_length_b   6.99597710
_cell_length_c   7.50974043
_cell_angle_alpha   73.95862277
_cell_angle_beta   81.95472474
_cell_angle_gamma   67.66943656
_symmetry_Int_Tables_number   1
_chemical_formula_structural   Li2Mn3(P2O7)2
_chemical_formula_sum   'Li2 Mn3 P4 O14'
_cell_volume   264.47545230
_cell_formula_units_Z   1
loop_
 _symmetry_equiv_pos_site_id
 _symmetry_equiv_pos_as_xyz
  1  'x, y, z'
loop_
 _atom_site_type_symbol
 _atom_site_label
 _atom_site_symmetry_multiplicity
 _atom_site_fract_x
 _atom_site_fract_y
 _atom_site_fract_z
 _atom_site_occupancy
  Li  Li0  1  0.64670700  0.02656900  0.69145900  1
  Li  Li1  1  0.35329300  0.97343100  0.30854100  1
  Mn  Mn0  1  0.00000000  0.00000000  0.00000000  1
  Mn  Mn1  1  0.20726000  0.50750400  0.31599800  1
  Mn  Mn2  1  0.79274000  0.49249600  0.68400200  1
  P  P0  1  0.80580000  0.26663800  0.34113900  1
  P  P1  1  0.65015700  0.68893000  0.06625700  1
  P  P2  1  0.34984300  0.31107000  0.93374300  1
  P  P3  1  0.19420000  0.73336200  0.65886100  1
  O  O0  1  0.82977200  0.76361300  0.14345600  1
  O  O1  1  0.94186900  0.35622400  0.44449200  1
  O  O2  1  0.66721200  0.72927200  0.85624300  1
  O  O3  1  0.17022800  0.23638700  0.85654400  1
  O  O4  1  0.05813100  0.64377600  0.55550800  1
  O  O5  1  0.33278800  0.27072800  0.14375700  1
  O  O6  1  0.02744000  0.93730900  0.71540100  1
  O  O7  1  0.26036300  0.56568500  0.86115700  1
  O  O8  1  0.55476400  0.26236500  0.44663900  1
  O  O9  1  0.37083200  0.77236800  0.14560800  1
  O  O10  1  0.62916800  0.22763200  0.85439200  1
  O  O11  1  0.44523600  0.73763500  0.55336100  1
  O  O12  1  0.73963700  0.43431500  0.13884300  1
  O  O13  1  0.97256000  0.06269100  0.28459900  1
loop_
_geom_bond_atom_site_label_1
_geom_bond_atom_site_label_2
_geom_bond_distance
_geom_bond_site_symmetry_2
Li0 O6 2.024903 1_645
Li0 O10 2.072818 1_555
Li0 O2 2.074831 1_545
Li0 O8 2.076482 1_555
Li1 O13 2.024903 1_465
Li1 O9 2.072818 1_555
Li1 O5 2.074831 1_565
Li1 O11 2.076482 1_555
Mn0 O3 2.182406 1_554
Mn0 O0 2.182406 1_445
Mn0 O13 2.271043 1_455
Mn0 O6 2.271043 1_544
Mn0 O10 2.299081 1_454
Mn0 O9 2.299081 1_545
Mn1 O1 2.133558 1_455
Mn1 O4 2.183627 1_555
Mn1 O8 2.196891 1_555
Mn1 O5 2.225810 1_555
Mn1 O9 2.364945 1_555
Mn1 O0 2.458798 1_455
Mn2 O4 2.133558 1_655
Mn2 O1 2.183627 1_555
Mn2 O11 2.196891 1_555
Mn2 O2 2.225810 1_555
Mn2 O10 2.364945 1_555
Mn2 O3 2.458798 1_655
O0 P1 1.543330 1_555
O1 P0 1.547070 1_555
O2 P1 1.519361 1_556
O3 P2 1.543330 1_555
O4 P3 1.547070 1_555
O5 P2 1.519361 1_554
O6 P3 1.518886 1_555
O7 P2 1.606733 1_555
O7 P3 1.632455 1_555
O8 P0 1.534982 1_555
O9 P1 1.558065 1_555
O10 P2 1.558065 1_555
O11 P3 1.534982 1_555
O12 P1 1.606733 1_555
O12 P0 1.632455 1_555
O13 P0 1.518886 1_555
