# generated using pymatgen
data_Na3In2Sn2P5SO24
_symmetry_space_group_name_H-M   'P 1'
_cell_length_a   8.87225481
_cell_length_b   8.85853102
_cell_length_c   23.01056842
_cell_angle_alpha   90.30010252
_cell_angle_beta   89.87084875
_cell_angle_gamma   119.89556078
_symmetry_Int_Tables_number   1
_chemical_formula_structural   Na3In2Sn2P5SO24
_chemical_formula_sum   'Na9 In6 Sn6 P15 S3 O72'
_cell_volume   1567.84740344
_cell_formula_units_Z   3
loop_
 _symmetry_equiv_pos_site_id
 _symmetry_equiv_pos_as_xyz
  1  'x, y, z'
loop_
 _atom_site_type_symbol
 _atom_site_label
 _atom_site_symmetry_multiplicity
 _atom_site_fract_x
 _atom_site_fract_y
 _atom_site_fract_z
 _atom_site_occupancy
  Na  Na0  1  0.00395278  0.36502357  0.75059078  1
  Na  Na1  1  0.66780735  0.96480690  0.58338219  1
  Na  Na2  1  0.03631439  0.33317986  0.08351262  1
  Na  Na3  1  0.00498495  0.99426162  0.50124195  1
  Na  Na4  1  0.00578534  0.99523099  0.00075345  1
  Na  Na5  1  0.65812758  0.32710629  0.83395068  1
  Na  Na6  1  0.67745772  0.33733830  0.33336870  1
  Na  Na7  1  0.34350660  0.66997018  0.16713026  1
  Na  Na8  1  0.33371253  0.66712976  0.66668157  1
  In  In0  1  0.00689645  0.99840006  0.64778463  1
  In  In1  1  0.99430456  0.99397689  0.14775746  1
  In  In2  1  0.33327275  0.67229664  0.01759941  1
  In  In3  1  0.32632091  0.66707241  0.51746681  1
  In  In4  1  0.33165402  0.66584475  0.31653612  1
  In  In5  1  0.33456957  0.67478246  0.81697652  1
  Sn  Sn0  1  0.98543536  0.99134788  0.35034813  1
  Sn  Sn1  1  0.00711715  0.00449442  0.84988764  1
  Sn  Sn2  1  0.66276227  0.33635705  0.68536934  1
  Sn  Sn3  1  0.67096360  0.33811278  0.18538596  1
  Sn  Sn4  1  0.66498173  0.32787240  0.98212861  1
  Sn  Sn5  1  0.67344386  0.33557932  0.48187665  1
  P  P0  1  0.70286731  0.70226598  0.24922017  1
  P  P1  1  0.99910014  0.29332356  0.24898288  1
  P  P2  1  0.29657132  0.29476447  0.74999589  1
  P  P3  1  0.99714646  0.70583852  0.74996938  1
  P  P4  1  0.70638689  0.99901390  0.74850156  1
  P  P5  1  0.95999785  0.33549960  0.58484127  1
  P  P6  1  0.37822480  0.04732526  0.58226904  1
  P  P7  1  0.66446824  0.62274231  0.58248475  1
  P  P8  1  0.95512614  0.62400922  0.08222894  1
  P  P9  1  0.66342450  0.04151857  0.08432216  1
  P  P10  1  0.37804097  0.33390482  0.08352726  1
  P  P11  1  0.03421792  0.36733085  0.91670472  1
  P  P12  1  0.33270253  0.96587578  0.91696568  1
  P  P13  1  0.62887322  0.96408438  0.41775780  1
  P  P14  1  0.03578609  0.66823369  0.41592726  1
  S  S0  1  0.29421548  0.00336690  0.24992530  1
  S  S1  1  0.63256517  0.66732620  0.91670837  1
  S  S2  1  0.33226379  0.36574176  0.41667261  1
  O  O0  1  0.21507980  0.03274353  0.30339282  1
  O  O1  1  0.81827209  0.77924174  0.30468014  1
  O  O2  1  0.97020712  0.17812376  0.30389670  1
  O  O3  1  0.21821160  0.18175186  0.80520085  1
  O  O4  1  0.96376886  0.78542809  0.80551917  1
  O  O5  1  0.82848320  0.03888325  0.80262814  1
  O  O6  1  0.78362129  0.97392313  0.69214010  1
  O  O7  1  0.18074064  0.21825721  0.69637147  1
  O  O8  1  0.02797993  0.81293016  0.69548588  1
  O  O9  1  0.78413356  0.81044622  0.19525778  1
  O  O10  1  0.02811866  0.21735151  0.19288334  1
  O  O11  1  0.19130663  0.97703312  0.19750482  1
  O  O12  1  0.87820597  0.36287866  0.64142187  1
  O  O13  1  0.49479862  0.12765939  0.63729223  1
  O  O14  1  0.63623221  0.51312497  0.63781763  1
  O  O15  1  0.87595534  0.50736113  0.13701603  1
  O  O16  1  0.63478675  0.12585047  0.13951844  1
  O  O17  1  0.48888653  0.36198327  0.13882634  1
  O  O18  1  0.46007465  0.30537072  0.02813420  1
  O  O19  1  0.84251729  0.53998652  0.02738321  1
  O  O20  1  0.70123333  0.15858277  0.02983296  1
  O  O21  1  0.46283008  0.15840175  0.52740256  1
  O  O22  1  0.69357855  0.53962759  0.52744405  1
  O  O23  1  0.84077707  0.29870115  0.53088219  1
  O  O24  1  0.55782726  0.69742637  0.96932294  1
  O  O25  1  0.14306529  0.44320636  0.97227861  1
  O  O26  1  0.30152016  0.85749826  0.97164417  1
  O  O27  1  0.55711673  0.85818595  0.47377452  1
  O  O28  1  0.30124663  0.44021209  0.46901980  1
  O  O29  1  0.14255406  0.70020727  0.47114080  1
  O  O30  1  0.11148384  0.63190116  0.36128709  1
  O  O31  1  0.51903649  0.88320511  0.36317656  1
  O  O32  1  0.36390676  0.47200241  0.36385546  1
  O  O33  1  0.11200939  0.47339274  0.86094418  1
  O  O34  1  0.37027390  0.89256656  0.86208036  1
  O  O35  1  0.52653530  0.63585756  0.86395454  1
  O  O36  1  0.02027708  0.83667209  0.40900881  1
  O  O37  1  0.81603829  0.98782463  0.41142815  1
  O  O38  1  0.17511218  0.18866475  0.40914271  1
  O  O39  1  0.01078263  0.18028927  0.91033369  1
  O  O40  1  0.16545076  0.98199440  0.91045034  1
  O  O41  1  0.80877941  0.82529055  0.91018948  1
  O  O42  1  0.96684328  0.16497871  0.58822642  1
  O  O43  1  0.19832993  0.02947659  0.58611576  1
  O  O44  1  0.82617420  0.80674388  0.58632612  1
  O  O45  1  0.97464299  0.80458789  0.08690196  1
  O  O46  1  0.83396762  0.03482994  0.08775442  1
  O  O47  1  0.19417992  0.17191793  0.08781104  1
  O  O48  1  0.69821344  0.17303881  0.74484735  1
  O  O49  1  0.47813006  0.31016949  0.74472813  1
  O  O50  1  0.83199764  0.51875122  0.74548040  1
  O  O51  1  0.68614515  0.51743311  0.24513769  1
  O  O52  1  0.82800844  0.30484092  0.24536076  1
  O  O53  1  0.46992607  0.16376865  0.24584593  1
  O  O54  1  0.65195856  0.50939679  0.92235956  1
  O  O55  1  0.85064699  0.35121947  0.92267619  1
  O  O56  1  0.49575908  0.15280566  0.92277442  1
  O  O57  1  0.64794721  0.14931987  0.42278927  1
  O  O58  1  0.48996523  0.34674413  0.42245713  1
  O  O59  1  0.84887934  0.50517340  0.42207593  1
  O  O60  1  0.35570055  0.49600443  0.07875128  1
  O  O61  1  0.13228504  0.63067693  0.07833116  1
  O  O62  1  0.50263722  0.86154720  0.07923935  1
  O  O63  1  0.37035584  0.86919777  0.57889144  1
  O  O64  1  0.50238541  0.64421446  0.57794139  1
  O  O65  1  0.13865400  0.49753284  0.57935034  1
  O  O66  1  0.31448418  0.84839557  0.25544078  1
  O  O67  1  0.52245193  0.68421043  0.25635402  1
  O  O68  1  0.15893598  0.47567337  0.25596675  1
  O  O69  1  0.31129579  0.47484111  0.75756383  1
  O  O70  1  0.15298300  0.67494634  0.75557886  1
  O  O71  1  0.52658372  0.83983928  0.75588864  1
loop_
_geom_bond_atom_site_label_1
_geom_bond_atom_site_label_2
_geom_bond_distance
_geom_bond_site_symmetry_2
Na0 O48 2.380872 1_455
Na0 O70 2.382801 1_555
Na0 O69 2.400772 1_555
Na0 O50 2.503878 1_455
Na0 O33 2.712326 1_555
Na0 O12 2.747070 1_455
Na0 O7 2.777432 1_555
Na0 O5 2.783651 1_455
Na1 O63 2.337708 1_555
Na1 O42 2.346350 1_565
Na1 O44 2.429401 1_555
Na1 O64 2.465223 1_555
Na1 O6 2.692956 1_555
Na1 O27 2.698016 1_555
Na1 O23 2.840318 1_565
Na1 O13 2.855919 1_565
Na2 O61 2.334619 1_555
Na2 O46 2.343026 1_455
Na2 O47 2.451306 1_555
Na2 O60 2.459291 1_555
Na2 O10 2.709916 1_555
Na2 O25 2.737398 1_554
Na2 O15 2.842762 1_455
Na2 O20 2.858167 1_455
Na3 O43 2.515831 1_565
Na3 O44 2.549980 1_455
Na3 O36 2.574498 1_555
Na3 O42 2.623588 1_465
Na3 O37 2.646454 1_455
Na3 O38 2.677296 1_565
Na4 O45 2.534860 1_455
Na4 O40 2.547159 1_554
Na4 O47 2.575070 1_565
Na4 O46 2.639430 1_465
Na4 O39 2.642199 1_564
Na4 O41 2.650420 1_454
Na5 O56 2.537577 1_555
Na5 O49 2.561374 1_555
Na5 O48 2.577648 1_555
Na5 O55 2.603622 1_555
Na5 O54 2.608138 1_555
Na5 O50 2.611043 1_555
Na6 O52 2.516570 1_555
Na6 O59 2.533427 1_555
Na6 O51 2.565874 1_555
Na6 O57 2.583645 1_555
Na6 O53 2.640556 1_555
Na6 O58 2.664116 1_555
Na7 O67 2.562041 1_555
Na7 O62 2.568702 1_555
Na7 O60 2.579680 1_555
Na7 O68 2.652332 1_555
Na7 O66 2.657741 1_555
Na7 O61 2.677273 1_555
Na8 O65 2.585081 1_555
Na8 O64 2.595200 1_555
Na8 O63 2.616391 1_555
Na8 O70 2.618154 1_555
Na8 O71 2.618342 1_555
Na8 O69 2.648051 1_555
In0 O8 2.065282 1_555
In0 O7 2.100615 1_565
In0 O43 2.121628 1_565
In0 O6 2.139612 1_455
In0 O44 2.173658 1_455
In0 O42 2.174419 1_465
In1 O9 2.074216 1_555
In1 O10 2.114679 1_665
In1 O45 2.119147 1_555
In1 O46 2.142019 1_565
In1 O11 2.158756 1_655
In1 O47 2.181163 1_665
In2 O26 2.090320 1_554
In2 O62 2.133965 1_555
In2 O61 2.146509 1_555
In2 O25 2.150754 1_554
In2 O60 2.189193 1_555
In2 O24 2.191658 1_554
In3 O29 2.090204 1_555
In3 O65 2.138831 1_555
In3 O27 2.150069 1_555
In3 O63 2.152914 1_555
In3 O64 2.178441 1_555
In3 O28 2.205205 1_555
In4 O30 2.091709 1_555
In4 O31 2.102052 1_555
In4 O67 2.127689 1_555
In4 O68 2.130822 1_555
In4 O32 2.174146 1_555
In4 O66 2.210216 1_555
In5 O34 2.066592 1_555
In5 O71 2.131603 1_555
In5 O33 2.145617 1_555
In5 O70 2.145738 1_555
In5 O69 2.158723 1_555
In5 O35 2.187660 1_555
O0 S0 1.499751 1_555
O0 Sn0 2.168544 1_445
O1 P0 1.562926 1_555
O1 Sn0 2.010673 1_555
O2 P1 1.566872 1_555
O2 Sn0 2.034780 1_545
O3 P2 1.553956 1_555
O3 Sn1 2.026655 1_555
O4 P3 1.554235 1_555
O4 Sn1 2.047734 1_665
O5 P4 1.571474 1_545
O5 Sn1 2.068762 1_655
O6 P4 1.531579 1_555
O7 P2 1.529932 1_555
O8 P3 1.516175 1_455
O9 P0 1.516482 1_555
O10 P1 1.532226 1_455
O11 S0 1.460386 1_565
O12 P5 1.564734 1_555
O12 Sn2 2.068252 1_555
O13 P6 1.562677 1_555
O13 Sn2 2.025380 1_555
O14 P7 1.547855 1_555
O14 Sn2 2.022683 1_555
O15 P8 1.560962 1_555
O15 Sn3 2.021051 1_555
O16 P9 1.553583 1_555
O16 Sn3 2.032667 1_555
O17 P10 1.551350 1_555
O17 Sn3 2.037855 1_555
O18 P10 1.547296 1_555
O18 Sn4 2.024296 1_554
O19 P8 1.549023 1_555
O19 Sn4 2.032901 1_554
O20 P9 1.557232 1_555
O20 Sn4 2.014206 1_554
O21 P6 1.548567 1_555
O21 Sn5 2.034058 1_555
O22 P7 1.546347 1_555
O22 Sn5 2.014383 1_555
O23 P5 1.557151 1_555
O23 Sn5 2.019231 1_555
O24 S1 1.464860 1_555
O25 P11 1.539221 1_555
O26 P12 1.525649 1_555
O27 P13 1.536369 1_555
O28 S2 1.460478 1_555
O29 P14 1.525092 1_555
O30 P14 1.530649 1_555
O31 P13 1.529861 1_555
O32 S2 1.479521 1_555
O33 P11 1.538711 1_555
O34 P12 1.527475 1_555
O35 S1 1.475264 1_555
O36 P14 1.574149 1_555
O36 Sn0 2.058759 1_455
O37 P13 1.572915 1_555
O37 Sn0 2.044346 1_555
O38 S2 1.500904 1_555
O38 Sn0 2.184235 1_445
O39 P11 1.569795 1_555
O39 Sn1 2.070705 1_555
O40 P12 1.567567 1_555
O40 Sn1 2.060592 1_565
O41 S1 1.498405 1_555
O41 Sn1 2.183902 1_665
O42 P5 1.544108 1_555
O43 P6 1.525854 1_555
O44 P7 1.546264 1_555
O45 P8 1.524016 1_555
O46 P9 1.545699 1_555
O47 P10 1.548291 1_555
O48 P4 1.581676 1_545
O48 Sn2 2.131072 1_555
O49 P2 1.551860 1_555
O49 Sn2 2.053594 1_555
O50 P3 1.575594 1_555
O50 Sn2 2.084687 1_555
O51 P0 1.571000 1_555
O51 Sn3 2.048560 1_555
O52 P1 1.573731 1_555
O52 Sn3 2.086894 1_555
O53 S0 1.500248 1_555
O53 Sn3 2.183455 1_555
O54 S1 1.498581 1_555
O54 Sn4 2.167889 1_555
O55 P11 1.568233 1_655
O55 Sn4 2.069053 1_555
O56 P12 1.569510 1_545
O56 Sn4 2.047094 1_555
O57 P13 1.567140 1_545
O57 Sn5 2.056221 1_555
O58 S2 1.496498 1_555
O58 Sn5 2.168209 1_555
O59 P14 1.571538 1_655
O59 Sn5 2.062585 1_555
O60 P10 1.548817 1_555
O61 P8 1.545625 1_455
O62 P9 1.523848 1_565
O63 P6 1.545884 1_565
O64 P7 1.545517 1_555
O65 P5 1.523729 1_455
O66 S0 1.476854 1_565
O67 P0 1.535779 1_555
O68 P1 1.536559 1_455
O69 P2 1.543229 1_555
O70 P3 1.543224 1_455
O71 P4 1.523479 1_555
