# generated using pymatgen
data_Si3N4
_symmetry_space_group_name_H-M   'P 1'
_cell_length_a   5.50654880
_cell_length_b   5.50654880
_cell_length_c   5.50654880
_cell_angle_alpha   60.00000000
_cell_angle_beta   60.00000000
_cell_angle_gamma   60.00000000
_symmetry_Int_Tables_number   1
_chemical_formula_structural   Si3N4
_chemical_formula_sum   'Si6 N8'
_cell_volume   118.06562763
_cell_formula_units_Z   2
loop_
 _symmetry_equiv_pos_site_id
 _symmetry_equiv_pos_as_xyz
  1  'x, y, z'
loop_
 _atom_site_type_symbol
 _atom_site_label
 _atom_site_symmetry_multiplicity
 _atom_site_fract_x
 _atom_site_fract_y
 _atom_site_fract_z
 _atom_site_occupancy
  Si  Si0  1  0.62500000  0.62500000  0.12500000  1
  Si  Si1  1  0.62500000  0.12500000  0.62500000  1
  Si  Si2  1  0.12500000  0.62500000  0.62500000  1
  Si  Si3  1  0.62500000  0.62500000  0.62500000  1
  Si  Si4  1  0.25000000  0.25000000  0.25000000  1
  Si  Si5  1  0.00000000  0.00000000  0.00000000  1
  N  N0  1  0.86756300  0.86756300  0.86756300  1
  N  N1  1  0.85268800  0.38243700  0.38243700  1
  N  N2  1  0.38243700  0.38243700  0.85268800  1
  N  N3  1  0.38243700  0.85268800  0.38243700  1
  N  N4  1  0.86756300  0.86756300  0.39731200  1
  N  N5  1  0.86756300  0.39731200  0.86756300  1
  N  N6  1  0.38243700  0.38243700  0.38243700  1
  N  N7  1  0.39731200  0.86756300  0.86756300  1
loop_
_geom_bond_atom_site_label_1
_geom_bond_atom_site_label_2
_geom_bond_distance
_geom_bond_site_symmetry_2
N0 Si5 1.786341 1_666
N0 Si0 1.890719 1_556
N0 Si2 1.890719 1_655
N0 Si1 1.890719 1_565
N1 Si4 1.786346 1_655
N1 Si0 1.890715 1_555
N1 Si1 1.890715 1_555
N1 Si3 1.890719 1_555
N2 Si4 1.786346 1_556
N2 Si1 1.890715 1_555
N2 Si2 1.890715 1_555
N2 Si3 1.890719 1_555
N3 Si4 1.786346 1_565
N3 Si0 1.890715 1_555
N3 Si2 1.890715 1_555
N3 Si3 1.890719 1_555
N4 Si5 1.786346 1_665
N4 Si2 1.890715 1_655
N4 Si1 1.890715 1_565
N4 Si3 1.890719 1_555
N5 Si5 1.786346 1_656
N5 Si2 1.890715 1_655
N5 Si0 1.890715 1_556
N5 Si3 1.890719 1_555
N6 Si4 1.786341 1_555
N6 Si0 1.890719 1_555
N6 Si1 1.890719 1_555
N6 Si2 1.890719 1_555
N7 Si5 1.786346 1_566
N7 Si0 1.890715 1_556
N7 Si1 1.890715 1_565
N7 Si3 1.890719 1_555
