# generated using pymatgen
data_Na7Ca3TaSi3(SO8)3
_symmetry_space_group_name_H-M   'P 1'
_cell_length_a   9.40455191
_cell_length_b   9.42835710
_cell_length_c   22.92867688
_cell_angle_alpha   89.66407824
_cell_angle_beta   90.21478051
_cell_angle_gamma   119.94824782
_symmetry_Int_Tables_number   1
_chemical_formula_structural   Na7Ca3TaSi3(SO8)3
_chemical_formula_sum   'Na21 Ca9 Ta3 Si9 S9 O72'
_cell_volume   1761.57987908
_cell_formula_units_Z   3
loop_
 _symmetry_equiv_pos_site_id
 _symmetry_equiv_pos_as_xyz
  1  'x, y, z'
loop_
 _atom_site_type_symbol
 _atom_site_label
 _atom_site_symmetry_multiplicity
 _atom_site_fract_x
 _atom_site_fract_y
 _atom_site_fract_z
 _atom_site_occupancy
  Na  Na0  1  0.63668314  0.99641291  0.23482232  1
  Na  Na1  1  0.37731201  0.33949656  0.25987915  1
  Na  Na2  1  0.98374862  0.66793890  0.25377766  1
  Na  Na3  1  0.68350450  0.64866809  0.75542699  1
  Na  Na4  1  0.97875280  0.32920736  0.75612951  1
  Na  Na5  1  0.34954958  0.01683167  0.75529770  1
  Na  Na6  1  0.29096042  0.32874916  0.58952953  1
  Na  Na7  1  0.04064068  0.71044632  0.58943200  1
  Na  Na8  1  0.67388524  0.96856303  0.59889380  1
  Na  Na9  1  0.31628461  0.96944319  0.09563452  1
  Na  Na10  1  0.66469441  0.72869712  0.07700884  1
  Na  Na11  1  0.02373652  0.31728733  0.07655534  1
  Na  Na12  1  0.99189792  0.31856943  0.42000791  1
  Na  Na13  1  0.30854474  0.03836950  0.40656654  1
  Na  Na14  1  0.71485617  0.65793325  0.40077969  1
  Na  Na15  1  0.02274899  0.99878358  0.49035726  1
  Na  Na16  1  0.95267444  0.97971104  0.98826148  1
  Na  Na17  1  0.66656446  0.33687914  0.81668957  1
  Na  Na18  1  0.65298425  0.34510875  0.33110448  1
  Na  Na19  1  0.37467836  0.71022737  0.16761869  1
  Na  Na20  1  0.32608013  0.66805914  0.67339043  1
  Ca  Ca0  1  0.00042436  0.99634779  0.34574702  1
  Ca  Ca1  1  0.99269257  0.99136705  0.84740150  1
  Ca  Ca2  1  0.00272801  0.99416944  0.67405446  1
  Ca  Ca3  1  0.98704332  0.98431624  0.15377842  1
  Ca  Ca4  1  0.66677217  0.33577942  0.68371115  1
  Ca  Ca5  1  0.66216308  0.32857626  0.18453384  1
  Ca  Ca6  1  0.66624186  0.34161980  0.47682893  1
  Ca  Ca7  1  0.34441218  0.67490324  0.01060057  1
  Ca  Ca8  1  0.32785381  0.65989990  0.51452582  1
  Ta  Ta0  1  0.66513525  0.32825504  0.97583623  1
  Ta  Ta1  1  0.32928932  0.66383377  0.31915150  1
  Ta  Ta2  1  0.34977886  0.66335431  0.81706126  1
  Si  Si0  1  0.30887529  0.99178121  0.25114574  1
  Si  Si1  1  0.67891135  0.69131848  0.25177949  1
  Si  Si2  1  0.30756261  0.31058467  0.74878470  1
  Si  Si3  1  0.01410158  0.69053445  0.75000875  1
  Si  Si4  1  0.68888932  0.99708371  0.74848362  1
  Si  Si5  1  0.66860677  0.03929474  0.08281581  1
  Si  Si6  1  0.63538367  0.66073759  0.92476801  1
  Si  Si7  1  0.32874918  0.36423829  0.41970093  1
  Si  Si8  1  0.03224052  0.66533832  0.41903992  1
  S  S0  1  0.01470169  0.32001039  0.25151004  1
  S  S1  1  0.96797165  0.32624421  0.58165663  1
  S  S2  1  0.36295523  0.03050561  0.58067190  1
  S  S3  1  0.67455763  0.64660759  0.58156300  1
  S  S4  1  0.95240596  0.61820523  0.07866820  1
  S  S5  1  0.37235981  0.32802407  0.07907911  1
  S  S6  1  0.02409482  0.37002406  0.92158002  1
  S  S7  1  0.34740473  0.97884244  0.91970675  1
  S  S8  1  0.62285286  0.95850216  0.41476754  1
  O  O0  1  0.22343223  0.02868336  0.30535116  1
  O  O1  1  0.79107537  0.77852835  0.30805021  1
  O  O2  1  0.98687731  0.21833622  0.30348834  1
  O  O3  1  0.21257592  0.17366291  0.79746430  1
  O  O4  1  0.95637794  0.78742184  0.79223544  1
  O  O5  1  0.83144418  0.05022604  0.79575933  1
  O  O6  1  0.73552078  0.93650200  0.68864302  1
  O  O7  1  0.20598080  0.26279397  0.68721527  1
  O  O8  1  0.07875070  0.79180119  0.68802614  1
  O  O9  1  0.74620538  0.80583721  0.19271695  1
  O  O10  1  0.04315912  0.24590036  0.19904198  1
  O  O11  1  0.19613250  0.94784443  0.19133088  1
  O  O12  1  0.87661229  0.33057591  0.63310163  1
  O  O13  1  0.45569929  0.12083113  0.63270414  1
  O  O14  1  0.66234789  0.54961798  0.63404627  1
  O  O15  1  0.88167725  0.53538616  0.13419662  1
  O  O16  1  0.66315484  0.12148199  0.14332516  1
  O  O17  1  0.46321653  0.35420779  0.13405163  1
  O  O18  1  0.47700807  0.32489746  0.02928928  1
  O  O19  1  0.84185457  0.51574864  0.02882527  1
  O  O20  1  0.66866883  0.16888677  0.02852628  1
  O  O21  1  0.44976890  0.11994088  0.52667444  1
  O  O22  1  0.67865267  0.55964704  0.52821153  1
  O  O23  1  0.87923882  0.32246455  0.52704937  1
  O  O24  1  0.55632406  0.66437424  0.98605090  1
  O  O25  1  0.10642544  0.44613557  0.97661951  1
  O  O26  1  0.33235805  0.89226444  0.97462795  1
  O  O27  1  0.55551287  0.86836486  0.46916381  1
  O  O28  1  0.32347227  0.44391097  0.48085659  1
  O  O29  1  0.12983161  0.68683815  0.47905875  1
  O  O30  1  0.15940374  0.66885818  0.36339668  1
  O  O31  1  0.51665305  0.85561476  0.36363886  1
  O  O32  1  0.33151240  0.49363033  0.36492517  1
  O  O33  1  0.10990433  0.47645157  0.87096314  1
  O  O34  1  0.37103046  0.89527155  0.86939098  1
  O  O35  1  0.50021374  0.64250707  0.87097741  1
  O  O36  1  0.00074176  0.81903621  0.41252489  1
  O  O37  1  0.79100959  0.98915328  0.40731246  1
  O  O38  1  0.16004578  0.18903096  0.41346699  1
  O  O39  1  0.99678701  0.20398542  0.91647510  1
  O  O40  1  0.21432345  0.01432668  0.91316107  1
  O  O41  1  0.81730643  0.80826487  0.91578039  1
  O  O42  1  0.98372242  0.17639131  0.58253536  1
  O  O43  1  0.19559412  0.01243613  0.58012062  1
  O  O44  1  0.82782968  0.81014380  0.58286411  1
  O  O45  1  0.96326690  0.78059341  0.07544827  1
  O  O46  1  0.83890709  0.03231786  0.07484034  1
  O  O47  1  0.21635934  0.16825123  0.07870232  1
  O  O48  1  0.63032920  0.13187956  0.74372634  1
  O  O49  1  0.50110980  0.36689744  0.74600513  1
  O  O50  1  0.87034427  0.49923387  0.74554341  1
  O  O51  1  0.65878404  0.50941600  0.24750722  1
  O  O52  1  0.87903257  0.35463447  0.24474495  1
  O  O53  1  0.49780681  0.14266058  0.24917608  1
  O  O54  1  0.64060679  0.47980839  0.92698590  1
  O  O55  1  0.85196572  0.35789124  0.92378198  1
  O  O56  1  0.50924432  0.14893072  0.92314004  1
  O  O57  1  0.61958372  0.11378543  0.41206623  1
  O  O58  1  0.49459459  0.35323241  0.40795681  1
  O  O59  1  0.86491685  0.48792152  0.40888542  1
  O  O60  1  0.33426155  0.46215830  0.07284117  1
  O  O61  1  0.11677911  0.63427047  0.07288547  1
  O  O62  1  0.50012816  0.85872357  0.08048022  1
  O  O63  1  0.35041331  0.86519762  0.58304630  1
  O  O64  1  0.52776184  0.66973079  0.58159615  1
  O  O65  1  0.13469951  0.47751424  0.58400038  1
  O  O66  1  0.32266333  0.82034781  0.26176542  1
  O  O67  1  0.48994639  0.66599103  0.26228683  1
  O  O68  1  0.16994411  0.48539113  0.25853991  1
  O  O69  1  0.31188066  0.49060837  0.76819885  1
  O  O70  1  0.18109477  0.68648100  0.77735827  1
  O  O71  1  0.51020033  0.82223371  0.76912995  1
loop_
_geom_bond_atom_site_label_1
_geom_bond_atom_site_label_2
_geom_bond_distance
_geom_bond_site_symmetry_2
Na0 O53 2.349907 1_565
Na0 O16 2.352765 1_565
Na0 O66 2.639263 1_555
Na0 O9 2.664044 1_555
Na0 O67 2.774409 1_555
Na1 O51 2.328175 1_555
Na1 O53 2.625963 1_555
Na1 O67 2.710529 1_555
Na1 O0 2.740470 1_555
Na1 O68 2.893754 1_555
Na1 O32 2.961819 1_555
Na1 O17 2.982682 1_555
Na2 O52 2.615275 1_555
Na2 O51 2.652016 1_555
Na2 O66 2.771883 1_655
Na2 O11 2.778203 1_655
Na2 O1 2.799565 1_555
Na2 O15 2.970465 1_555
Na2 O30 3.000191 1_655
Na2 O68 3.007653 1_655
Na3 O49 2.345382 1_555
Na3 O4 2.377838 1_555
Na3 O50 2.757262 1_555
Na4 O50 2.300784 1_555
Na4 O5 2.450858 1_555
Na5 O48 2.315569 1_555
Na5 O3 2.590073 1_555
Na5 O70 2.743662 1_545
Na5 O8 2.824987 1_545
Na5 O49 2.875339 1_555
Na5 O34 2.896539 1_545
Na5 O71 2.916638 1_545
Na5 O13 2.978362 1_555
Na6 O7 2.354362 1_555
Na6 O65 2.489483 1_555
Na6 O42 2.508613 1_455
Na6 O43 2.660945 1_555
Na6 O28 2.669015 1_555
Na6 O64 2.859371 1_555
Na7 O8 2.359459 1_555
Na7 O43 2.475603 1_565
Na7 O63 2.528667 1_555
Na7 O44 2.605039 1_455
Na7 O29 2.714143 1_555
Na7 O65 2.750422 1_555
Na8 O6 2.195621 1_555
Na8 O64 2.475336 1_555
Na8 O44 2.575185 1_555
Na8 O42 2.601877 1_565
Na8 O63 2.715144 1_555
Na9 O11 2.432363 1_555
Na9 O62 2.451653 1_555
Na9 O47 2.508951 1_565
Na9 O26 2.896025 1_554
Na10 O24 2.266668 1_554
Na10 O62 2.408524 1_555
Na10 O46 2.489515 1_565
Na10 O45 2.598847 1_555
Na10 O9 2.757882 1_555
Na10 O60 2.860915 1_555
Na11 O46 2.362123 1_455
Na11 O25 2.523595 1_554
Na11 O60 2.533616 1_555
Na11 O61 2.662936 1_555
Na11 O47 2.792597 1_555
Na11 O10 2.910420 1_555
Na12 O59 2.436676 1_555
Na12 O38 2.438668 1_655
Na12 O23 2.684584 1_555
Na12 O37 2.729150 1_545
Na12 O2 2.831446 1_555
Na13 O0 2.439351 1_555
Na13 O38 2.445039 1_555
Na13 O58 2.586482 1_555
Na13 O36 2.587949 1_545
Na13 O57 2.645709 1_555
Na13 O21 2.986147 1_555
Na14 O1 2.344466 1_555
Na14 O36 2.351661 1_655
Na14 O58 2.574208 1_555
Na14 O59 2.617004 1_555
Na14 O37 2.838881 1_555
Na14 O22 3.028616 1_555
Na15 O38 2.379147 1_565
Na15 O36 2.404617 1_555
Na15 O43 2.581479 1_565
Na15 O44 2.784282 1_455
Na15 O42 2.840204 1_465
Na15 O37 2.856049 1_455
Na16 O41 2.226328 1_555
Na16 O46 2.426697 1_566
Na16 O39 2.537919 1_565
Na16 O45 2.769821 1_556
Na16 O40 2.889634 1_665
Na16 O47 3.035305 1_666
Na17 O49 2.354445 1_555
Na17 O50 2.396293 1_555
Na17 O48 2.454925 1_555
Na17 O54 2.940105 1_555
Na17 O56 2.940266 1_555
Na17 O55 2.955940 1_555
Na18 O58 2.337729 1_555
Na18 O51 2.440995 1_555
Na18 O59 2.507618 1_555
Na18 O53 2.557768 1_555
Na18 O57 2.752149 1_555
Na18 O52 2.878736 1_555
Na19 O62 2.383206 1_555
Na19 O67 2.546338 1_555
Na19 O66 2.553111 1_555
Na20 O69 2.697961 1_555
Na20 O63 2.707734 1_555
Na20 O71 2.725062 1_555
Na20 O65 2.730367 1_555
Na20 O70 2.799600 1_555
Na20 O64 2.833260 1_555
Ca0 O0 2.173087 1_565
Ca0 O1 2.193631 1_455
Ca0 O36 2.261430 1_555
Ca0 O38 2.292932 1_565
Ca0 O2 2.361608 1_465
Ca0 O37 2.400486 1_455
Ca1 O4 2.187144 1_555
Ca1 O5 2.197447 1_565
Ca1 O3 2.233242 1_665
Ca1 O41 2.302962 1_555
Ca1 O40 2.488875 1_665
Ca1 O39 2.547172 1_565
Ca2 O7 2.308762 1_565
Ca2 O6 2.315703 1_455
Ca2 O8 2.367991 1_555
Ca2 O44 2.693513 1_455
Ca2 O42 2.765593 1_465
Ca2 O43 2.769731 1_565
Ca3 O9 2.225084 1_555
Ca3 O11 2.320617 1_655
Ca3 O46 2.454103 1_565
Ca3 O10 2.482872 1_665
Ca3 O45 2.563907 1_555
Ca3 O47 2.623037 1_665
Ca4 O48 2.240865 1_555
Ca4 O49 2.243091 1_555
Ca4 O50 2.260472 1_555
Ca4 O12 2.314730 1_555
Ca4 O13 2.325749 1_555
Ca4 O14 2.328048 1_555
Ca5 O16 2.178352 1_555
Ca5 O53 2.222633 1_555
Ca5 O51 2.253055 1_555
Ca5 O17 2.308845 1_555
Ca5 O15 2.316978 1_555
Ca5 O52 2.368264 1_555
Ca6 O59 2.289992 1_555
Ca6 O58 2.294967 1_555
Ca6 O22 2.327034 1_555
Ca6 O21 2.358021 1_555
Ca6 O23 2.390103 1_555
Ca6 O57 2.470485 1_555
Ca7 O24 2.122521 1_554
Ca7 O26 2.259306 1_554
Ca7 O62 2.279558 1_555
Ca7 O25 2.335667 1_554
Ca7 O60 2.417718 1_555
Ca7 O61 2.442721 1_555
Ca8 O29 2.156966 1_555
Ca8 O28 2.163121 1_555
Ca8 O27 2.306529 1_555
Ca8 O65 2.380143 1_555
Ca8 O64 2.390419 1_555
Ca8 O63 2.425506 1_555
O0 Si0 1.613427 1_545
O1 Si1 1.609254 1_555
O2 S0 1.465021 1_655
O3 Si2 1.596723 1_555
O4 Si3 1.604997 1_655
O5 Si4 1.596311 1_545
O6 Si4 1.632465 1_555
O7 Si2 1.635898 1_555
O8 Si3 1.646811 1_555
O9 Si1 1.645381 1_555
O10 S0 1.485295 1_555
O11 Si0 1.653479 1_555
O12 S1 1.474604 1_555
O13 S2 1.473709 1_555
O14 S3 1.476755 1_555
O15 S4 1.466051 1_555
O16 Si5 1.606477 1_555
O17 S5 1.471308 1_555
O18 S5 1.520042 1_555
O18 Ta0 2.143187 1_554
O19 S4 1.523627 1_555
O19 Ta0 2.107115 1_554
O20 Si5 1.738921 1_555
O20 Ta0 1.935629 1_554
O21 S2 1.489445 1_555
O22 S3 1.487872 1_555
O23 S1 1.492759 1_555
O24 Si6 1.600705 1_555
O25 S6 1.468198 1_555
O26 S7 1.464946 1_555
O27 S8 1.461174 1_555
O28 Si7 1.607186 1_555
O29 Si8 1.607884 1_555
O30 Si8 1.740792 1_555
O30 Ta1 1.916336 1_555
O31 S8 1.532994 1_555
O31 Ta1 2.059583 1_555
O32 Si7 1.736941 1_555
O32 Ta1 1.921125 1_555
O33 S6 1.479843 1_555
O33 Ta2 2.397527 1_555
O34 S7 1.479376 1_555
O34 Ta2 2.419387 1_555
O35 Si6 1.714422 1_555
O35 Ta2 1.957078 1_555
O36 Si8 1.623498 1_555
O37 S8 1.469294 1_555
O38 Si7 1.628118 1_555
O39 S6 1.459750 1_655
O40 S7 1.454975 1_545
O41 Si6 1.589846 1_555
O42 S1 1.492362 1_555
O43 S2 1.496219 1_555
O44 S3 1.495733 1_555
O45 S4 1.484116 1_555
O46 Si5 1.646332 1_555
O47 S5 1.488351 1_555
O48 Si4 1.620850 1_545
O49 Si2 1.623186 1_555
O50 Si3 1.630314 1_655
O51 Si1 1.632328 1_555
O52 S0 1.473892 1_655
O53 Si0 1.630629 1_545
O54 Si6 1.731358 1_555
O54 Ta0 1.912571 1_555
O55 S6 1.565821 1_655
O55 Ta0 2.027677 1_555
O56 S7 1.567822 1_545
O56 Ta0 2.000914 1_555
O57 S8 1.480586 1_545
O58 Si7 1.637381 1_555
O59 Si8 1.643844 1_655
O60 S5 1.482607 1_555
O61 S4 1.482468 1_455
O62 Si5 1.648935 1_565
O63 S2 1.503849 1_565
O64 S3 1.501320 1_555
O65 S1 1.504354 1_455
O66 Si0 1.700898 1_555
O66 Ta1 1.995297 1_555
O67 Si1 1.688812 1_555
O67 Ta1 1.991735 1_555
O68 S0 1.522200 1_555
O68 Ta1 2.121830 1_555
O69 Si2 1.737995 1_555
O69 Ta2 1.863794 1_555
O70 Si3 1.706874 1_555
O70 Ta2 1.930060 1_555
O71 Si4 1.731080 1_555
O71 Ta2 1.861333 1_555
