# generated using pymatgen
data_MgNi2(BiO3)4
_symmetry_space_group_name_H-M   'P 1'
_cell_length_a   5.43689272
_cell_length_b   5.43068738
_cell_length_c   9.74824399
_cell_angle_alpha   90.00000000
_cell_angle_beta   90.00000000
_cell_angle_gamma   101.06756140
_symmetry_Int_Tables_number   1
_chemical_formula_structural   MgNi2(BiO3)4
_chemical_formula_sum   'Mg1 Ni2 Bi4 O12'
_cell_volume   282.47412800
_cell_formula_units_Z   1
loop_
 _symmetry_equiv_pos_site_id
 _symmetry_equiv_pos_as_xyz
  1  'x, y, z'
loop_
 _atom_site_type_symbol
 _atom_site_label
 _atom_site_symmetry_multiplicity
 _atom_site_fract_x
 _atom_site_fract_y
 _atom_site_fract_z
 _atom_site_occupancy
  Mg  Mg0  1  0.71168105  0.29052198  0.00000000  1
  Ni  Ni0  1  0.03216210  0.96779386  0.00000000  1
  Ni  Ni1  1  0.56064992  0.43831443  0.50000000  1
  Bi  Bi0  1  0.98717040  0.01168033  0.33516068  1
  Bi  Bi1  1  0.98717040  0.01168033  0.66483932  1
  Bi  Bi2  1  0.42424872  0.57390958  0.18257769  1
  Bi  Bi3  1  0.42424872  0.57390958  0.81742231  1
  O  O0  1  0.17287259  0.82456378  0.17150221  1
  O  O1  1  0.17287259  0.82456378  0.82849779  1
  O  O2  1  0.15294012  0.84501195  0.50000000  1
  O  O3  1  0.33447995  0.29074872  0.00000000  1
  O  O4  1  0.31305113  0.30681717  0.34550714  1
  O  O5  1  0.31305113  0.30681717  0.65449286  1
  O  O6  1  0.69115762  0.68657264  0.34532742  1
  O  O7  1  0.69115762  0.68657264  0.65467258  1
  O  O8  1  0.70722037  0.66708932  0.00000000  1
  O  O9  1  0.80816052  0.19107533  0.50000000  1
  O  O10  1  0.85785253  0.14492869  0.15225718  1
  O  O11  1  0.85785253  0.14492869  0.84774282  1
loop_
_geom_bond_atom_site_label_1
_geom_bond_atom_site_label_2
_geom_bond_distance
_geom_bond_site_symmetry_2
Mg0 O11 1.923787 1_554
Mg0 O10 1.923787 1_555
Mg0 O8 2.049813 1_555
Mg0 O3 2.051039 1_555
Ni0 O0 2.052762 1_555
Ni0 O1 2.052762 1_554
Ni0 O11 2.092008 1_464
Ni0 O10 2.092008 1_465
Ni0 O3 2.161228 1_565
Ni0 O8 2.163393 1_455
Ni1 O5 2.054554 1_555
Ni1 O4 2.054554 1_555
Ni1 O7 2.056036 1_555
Ni1 O6 2.056036 1_555
Ni1 O9 2.075419 1_555
Bi0 O10 2.095794 1_555
Bi0 O2 2.127639 1_645
Bi0 O6 2.150865 1_545
Bi0 O4 2.151287 1_655
Bi0 O9 2.200572 1_555
Bi0 O0 2.234084 1_645
Bi1 O11 2.095794 1_555
Bi1 O2 2.127639 1_645
Bi1 O7 2.150865 1_545
Bi1 O5 2.151287 1_655
Bi1 O9 2.200572 1_555
Bi1 O1 2.234084 1_645
Bi2 O0 2.108729 1_555
Bi2 O4 2.157633 1_555
Bi2 O6 2.157863 1_555
Bi2 O3 2.341471 1_555
Bi2 O8 2.343467 1_555
Bi3 O1 2.108729 1_555
Bi3 O5 2.157633 1_555
Bi3 O7 2.157863 1_555
Bi3 O3 2.341471 1_556
Bi3 O8 2.343467 1_556
