# generated using pymatgen
data_MgMn3CoO8
_symmetry_space_group_name_H-M   'P 1'
_cell_length_a   5.69546292
_cell_length_b   5.85704141
_cell_length_c   5.85705269
_cell_angle_alpha   59.66353052
_cell_angle_beta   63.53504069
_cell_angle_gamma   63.53506120
_symmetry_Int_Tables_number   1
_chemical_formula_structural   MgMn3CoO8
_chemical_formula_sum   'Mg1 Mn3 Co1 O8'
_cell_volume   144.67696861
_cell_formula_units_Z   1
loop_
 _symmetry_equiv_pos_site_id
 _symmetry_equiv_pos_as_xyz
  1  'x, y, z'
loop_
 _atom_site_type_symbol
 _atom_site_label
 _atom_site_symmetry_multiplicity
 _atom_site_fract_x
 _atom_site_fract_y
 _atom_site_fract_z
 _atom_site_occupancy
  Mg  Mg0  1  0.50000000  0.00000000  0.00000000  1
  Mn  Mn0  1  0.50000000  0.00000000  0.50000000  1
  Mn  Mn1  1  0.50000000  0.50000000  0.00000000  1
  Mn  Mn2  1  0.00000000  0.50000000  0.50000000  1
  Co  Co0  1  0.50000000  0.50000000  0.50000000  1
  O  O0  1  0.29547700  0.23394900  0.23395100  1
  O  O1  1  0.69845600  0.27707200  0.27707300  1
  O  O2  1  0.27965700  0.70045300  0.24586500  1
  O  O3  1  0.27965600  0.24586400  0.70045300  1
  O  O4  1  0.72034400  0.75413600  0.29954700  1
  O  O5  1  0.72034300  0.29954700  0.75413500  1
  O  O6  1  0.30154400  0.72292800  0.72292700  1
  O  O7  1  0.70452300  0.76605100  0.76604900  1
loop_
_geom_bond_atom_site_label_1
_geom_bond_atom_site_label_2
_geom_bond_distance
_geom_bond_site_symmetry_2
Mg0 O7 2.040456 1_544
Mg0 O0 2.040456 1_555
Mg0 O5 2.127510 1_554
Mg0 O2 2.127510 1_545
Mg0 O4 2.127517 1_545
Mg0 O3 2.127517 1_554
Mn0 O0 1.923789 1_555
Mn0 O7 1.923789 1_545
Mn0 O1 1.948082 1_555
Mn0 O6 1.948082 1_545
Mn0 O4 1.952159 1_545
Mn0 O3 1.952159 1_555
Mn1 O7 1.923795 1_554
Mn1 O0 1.923795 1_555
Mn1 O1 1.948089 1_555
Mn1 O6 1.948089 1_554
Mn1 O5 1.952163 1_554
Mn1 O2 1.952163 1_555
Mn2 O3 1.979709 1_555
Mn2 O4 1.979709 1_455
Mn2 O2 1.979711 1_555
Mn2 O5 1.979711 1_455
Mn2 O0 2.338093 1_555
Mn2 O7 2.338093 1_455
Co0 O5 1.937857 1_555
Co0 O2 1.937857 1_555
Co0 O3 1.937863 1_555
Co0 O4 1.937863 1_555
Co0 O1 1.943864 1_555
Co0 O6 1.943864 1_555
