# generated using pymatgen
data_MgCo2(PO4)2
_symmetry_space_group_name_H-M   'P 1'
_cell_length_a   4.98545245
_cell_length_b   8.48485075
_cell_length_c   5.06861097
_cell_angle_alpha   76.74363963
_cell_angle_beta   61.50520705
_cell_angle_gamma   74.15824655
_symmetry_Int_Tables_number   1
_chemical_formula_structural   MgCo2(PO4)2
_chemical_formula_sum   'Mg1 Co2 P2 O8'
_cell_volume   180.02758097
_cell_formula_units_Z   1
loop_
 _symmetry_equiv_pos_site_id
 _symmetry_equiv_pos_as_xyz
  1  'x, y, z'
loop_
 _atom_site_type_symbol
 _atom_site_label
 _atom_site_symmetry_multiplicity
 _atom_site_fract_x
 _atom_site_fract_y
 _atom_site_fract_z
 _atom_site_occupancy
  Mg  Mg0  1  0.93240500  0.00582900  0.05363900  1
  Co  Co0  1  0.18501300  0.27242100  0.30678300  1
  Co  Co1  1  0.83029400  0.72350500  0.68312800  1
  P  P0  1  0.18014100  0.62714700  0.04719700  1
  P  P1  1  0.58307400  0.12453000  0.68987600  1
  O  O0  1  0.02861300  0.78080900  0.23855500  1
  O  O1  1  0.28579900  0.48136800  0.24464000  1
  O  O2  1  0.24664000  0.14957500  0.95965900  1
  O  O3  1  0.54790500  0.10959000  0.40547000  1
  O  O4  1  0.43846100  0.68666900  0.74790900  1
  O  O5  1  0.75636100  0.26079000  0.63848200  1
  O  O6  1  0.94205400  0.58051900  0.98232700  1
  O  O7  1  0.77922000  0.96117700  0.77581500  1
loop_
_geom_bond_atom_site_label_1
_geom_bond_atom_site_label_2
_geom_bond_distance
_geom_bond_site_symmetry_2
Mg0 O0 1.965219 1_645
Mg0 O7 2.034334 1_544
Mg0 O3 2.041252 1_555
Mg0 O2 2.057531 1_654
Co0 O1 1.890512 1_555
Co0 O5 2.003522 1_455
Co0 O2 2.104020 1_554
Co0 O3 2.148027 1_555
Co1 O6 1.917175 1_555
Co1 O4 1.922442 1_555
Co1 O0 1.981366 1_655
Co1 O7 2.095775 1_555
O0 P0 1.598254 1_555
O1 P0 1.545481 1_555
O2 P1 1.574333 1_555
O3 P1 1.569064 1_555
O4 P0 1.534433 1_556
O5 P1 1.530797 1_555
O6 P0 1.536869 1_656
O7 P1 1.567359 1_565
