# generated using pymatgen
data_Na10ScTa7(SiO4)12
_symmetry_space_group_name_H-M   'P 1'
_cell_length_a   18.08338218
_cell_length_b   9.05218508
_cell_length_c   22.48932048
_cell_angle_alpha   89.99842565
_cell_angle_beta   90.01594931
_cell_angle_gamma   120.05393586
_symmetry_Int_Tables_number   1
_chemical_formula_structural   Na10ScTa7(SiO4)12
_chemical_formula_sum   'Na30 Sc3 Ta21 Si36 O144'
_cell_volume   3186.42526970
_cell_formula_units_Z   3
loop_
 _symmetry_equiv_pos_site_id
 _symmetry_equiv_pos_as_xyz
  1  'x, y, z'
loop_
 _atom_site_type_symbol
 _atom_site_label
 _atom_site_symmetry_multiplicity
 _atom_site_fract_x
 _atom_site_fract_y
 _atom_site_fract_z
 _atom_site_occupancy
  Na  Na0  1  0.81497963  0.01201285  0.24606474  1
  Na  Na1  1  0.18414442  0.36686135  0.24867463  1
  Na  Na2  1  0.68885704  0.36573064  0.24524630  1
  Na  Na3  1  0.99393340  0.61769761  0.24611841  1
  Na  Na4  1  0.31558102  0.61868068  0.74708215  1
  Na  Na5  1  0.81609863  0.61901028  0.74631068  1
  Na  Na6  1  0.99319944  0.36682273  0.74601073  1
  Na  Na7  1  0.49305730  0.36585164  0.74613693  1
  Na  Na8  1  0.19052195  0.01365206  0.74752266  1
  Na  Na9  1  0.69059057  0.01415662  0.74668566  1
  Na  Na10  1  0.15483498  0.33891003  0.58473368  1
  Na  Na11  1  0.65631583  0.33878646  0.58389407  1
  Na  Na12  1  0.33297334  0.97419794  0.58401164  1
  Na  Na13  1  0.83362394  0.97690676  0.58358051  1
  Na  Na14  1  0.65280444  0.97063460  0.08551880  1
  Na  Na15  1  0.83135161  0.68922301  0.08386426  1
  Na  Na16  1  0.01579314  0.33786309  0.08267531  1
  Na  Na17  1  0.48360940  0.29982702  0.41674470  1
  Na  Na18  1  0.99977106  0.98795753  0.49632920  1
  Na  Na19  1  0.50183913  0.97919030  0.49772188  1
  Na  Na20  1  0.00715283  0.99973871  0.99674689  1
  Na  Na21  1  0.49317625  0.00089044  0.99926455  1
  Na  Na22  1  0.33272540  0.33281214  0.83460454  1
  Na  Na23  1  0.83363105  0.33320653  0.83346693  1
  Na  Na24  1  0.33318388  0.33335394  0.33181273  1
  Na  Na25  1  0.83271221  0.33175303  0.33227321  1
  Na  Na26  1  0.17856064  0.69276005  0.16327897  1
  Na  Na27  1  0.65375727  0.65068698  0.16573454  1
  Na  Na28  1  0.16005486  0.66680762  0.66502780  1
  Na  Na29  1  0.66041421  0.66738140  0.66465217  1
  Sc  Sc0  1  0.33409422  0.33378395  0.68633407  1
  Sc  Sc1  1  0.83410193  0.33429273  0.68595928  1
  Sc  Sc2  1  0.83245249  0.33296453  0.18608914  1
  Ta  Ta0  1  0.00100693  0.00144346  0.35728074  1
  Ta  Ta1  1  0.49822697  0.99548164  0.35548469  1
  Ta  Ta2  1  0.00002126  0.00110185  0.85876662  1
  Ta  Ta3  1  0.50005346  0.99929712  0.85858892  1
  Ta  Ta4  1  0.99981391  0.99648222  0.64448382  1
  Ta  Ta5  1  0.50035242  0.99771582  0.64451896  1
  Ta  Ta6  1  0.00322147  0.00077133  0.14416488  1
  Ta  Ta7  1  0.49659132  0.99788937  0.14345065  1
  Ta  Ta8  1  0.33648612  0.33406572  0.18823839  1
  Ta  Ta9  1  0.33273387  0.33280876  0.97661668  1
  Ta  Ta10  1  0.83364414  0.33407718  0.97767671  1
  Ta  Ta11  1  0.33075978  0.33541152  0.47861133  1
  Ta  Ta12  1  0.83438545  0.33376163  0.47733403  1
  Ta  Ta13  1  0.17070537  0.67354255  0.02131832  1
  Ta  Ta14  1  0.66281351  0.65995150  0.01939913  1
  Ta  Ta15  1  0.16481220  0.66621471  0.51836887  1
  Ta  Ta16  1  0.66580295  0.66832245  0.51859775  1
  Ta  Ta17  1  0.16945261  0.67154867  0.31186264  1
  Ta  Ta18  1  0.66444804  0.66591158  0.31145893  1
  Ta  Ta19  1  0.16675507  0.66618759  0.81393024  1
  Ta  Ta20  1  0.66678677  0.66658584  0.81385369  1
  Si  Si0  1  0.14467387  0.99988803  0.25120139  1
  Si  Si1  1  0.64145648  0.99601047  0.24915183  1
  Si  Si2  1  0.35654490  0.71194659  0.24999934  1
  Si  Si3  1  0.85637568  0.71467917  0.25047897  1
  Si  Si4  1  0.00082817  0.28874207  0.25083079  1
  Si  Si5  1  0.49854473  0.28436085  0.25121347  1
  Si  Si6  1  0.14233131  0.28770359  0.75076846  1
  Si  Si7  1  0.64265350  0.28808847  0.75088032  1
  Si  Si8  1  0.00126675  0.71504374  0.75223069  1
  Si  Si9  1  0.50138887  0.71476999  0.75185042  1
  Si  Si10  1  0.35583718  0.99711117  0.75108007  1
  Si  Si11  1  0.85584092  0.99765447  0.75119204  1
  Si  Si12  1  0.47976081  0.33677296  0.58419325  1
  Si  Si13  1  0.97947772  0.33674275  0.58534522  1
  Si  Si14  1  0.18735469  0.03969583  0.58495403  1
  Si  Si15  1  0.68854300  0.04243545  0.58436534  1
  Si  Si16  1  0.33387895  0.62552124  0.58448346  1
  Si  Si17  1  0.83422201  0.62342829  0.58361005  1
  Si  Si18  1  0.47603864  0.62094418  0.08210179  1
  Si  Si19  1  0.97945710  0.62338541  0.08453433  1
  Si  Si20  1  0.33327151  0.04870047  0.08256997  1
  Si  Si21  1  0.83282166  0.04200791  0.08437406  1
  Si  Si22  1  0.19191871  0.33705329  0.08413725  1
  Si  Si23  1  0.68701795  0.33212910  0.08428253  1
  Si  Si24  1  0.31158528  0.66445404  0.91636123  1
  Si  Si25  1  0.81131395  0.66554732  0.91746775  1
  Si  Si26  1  0.02254211  0.37931821  0.91863950  1
  Si  Si27  1  0.51941761  0.37498974  0.91512533  1
  Si  Si28  1  0.16737562  0.95647239  0.91649524  1
  Si  Si29  1  0.66743124  0.95780968  0.91742164  1
  Si  Si30  1  0.31148926  0.95820858  0.41752572  1
  Si  Si31  1  0.81160128  0.95656011  0.41571455  1
  Si  Si32  1  0.16694581  0.37716533  0.41578869  1
  Si  Si33  1  0.66881242  0.37741205  0.41514043  1
  Si  Si34  1  0.02144674  0.66445703  0.41415759  1
  Si  Si35  1  0.52104118  0.66856372  0.41645181  1
  O  O0  1  0.09906656  0.03103697  0.30833429  1
  O  O1  1  0.58956723  0.01842380  0.30532082  1
  O  O2  1  0.41350714  0.80801428  0.30880096  1
  O  O3  1  0.91949484  0.81729003  0.30596798  1
  O  O4  1  0.48633658  0.17448994  0.31202962  1
  O  O5  1  0.99147058  0.16651385  0.30687432  1
  O  O6  1  0.09195220  0.16448831  0.80664723  1
  O  O7  1  0.59213993  0.16385637  0.80655248  1
  O  O8  1  0.48967908  0.81213527  0.80837531  1
  O  O9  1  0.98974908  0.81337183  0.80852101  1
  O  O10  1  0.41775275  0.01893342  0.80670602  1
  O  O11  1  0.91729831  0.01880303  0.80699895  1
  O  O12  1  0.40034918  0.96919686  0.69027501  1
  O  O13  1  0.90013092  0.96910242  0.69050094  1
  O  O14  1  0.08370807  0.20018162  0.69005826  1
  O  O15  1  0.58382014  0.20091886  0.69007058  1
  O  O16  1  0.01592135  0.83856317  0.69329512  1
  O  O17  1  0.51599908  0.83897137  0.69319699  1
  O  O18  1  0.40355558  0.83023552  0.19209842  1
  O  O19  1  0.90103041  0.83367647  0.19050979  1
  O  O20  1  0.01569193  0.19861449  0.19099682  1
  O  O21  1  0.51481837  0.18939435  0.19480390  1
  O  O22  1  0.08175417  0.96769128  0.19320015  1
  O  O23  1  0.58659206  0.97473986  0.18868033  1
  O  O24  1  0.44206272  0.36535616  0.64537489  1
  O  O25  1  0.94393844  0.36661943  0.64741642  1
  O  O26  1  0.24365173  0.10968377  0.64531122  1
  O  O27  1  0.74379185  0.10969485  0.64531010  1
  O  O28  1  0.31088867  0.51038147  0.64422051  1
  O  O29  1  0.81070895  0.51108914  0.64416793  1
  O  O30  1  0.42932601  0.50312475  0.14107406  1
  O  O31  1  0.94353328  0.51149976  0.14516005  1
  O  O32  1  0.32129650  0.14286269  0.14134658  1
  O  O33  1  0.81089620  0.11066200  0.14475042  1
  O  O34  1  0.24679755  0.35788860  0.14484692  1
  O  O35  1  0.74367764  0.37855733  0.14493512  1
  O  O36  1  0.23865492  0.31027839  0.02678762  1
  O  O37  1  0.73761719  0.30190009  0.02908590  1
  O  O38  1  0.41739944  0.52547590  0.02450135  1
  O  O39  1  0.91342040  0.52697326  0.02897808  1
  O  O40  1  0.34586712  0.16635184  0.02466526  1
  O  O41  1  0.84994019  0.17399030  0.02917514  1
  O  O42  1  0.23781095  0.17021509  0.52885139  1
  O  O43  1  0.73726553  0.17234384  0.52865688  1
  O  O44  1  0.34561227  0.52398889  0.52781183  1
  O  O45  1  0.84584427  0.52249500  0.52738095  1
  O  O46  1  0.41717829  0.30504758  0.52630068  1
  O  O47  1  0.91365220  0.30239214  0.52984957  1
  O  O48  1  0.26220825  0.68721287  0.97314150  1
  O  O49  1  0.76284376  0.68748417  0.97522028  1
  O  O50  1  0.08094209  0.47097182  0.97715945  1
  O  O51  1  0.58096495  0.47709640  0.97152373  1
  O  O52  1  0.15684711  0.83377156  0.97264713  1
  O  O53  1  0.65566881  0.84076646  0.97596128  1
  O  O54  1  0.26640065  0.84410509  0.47663806  1
  O  O55  1  0.76452772  0.83913471  0.47431153  1
  O  O56  1  0.15793979  0.47266536  0.47480508  1
  O  O57  1  0.65347118  0.47054938  0.47289683  1
  O  O58  1  0.08288210  0.68643878  0.47098040  1
  O  O59  1  0.58078759  0.68961867  0.47388740  1
  O  O60  1  0.06800144  0.64145507  0.35491340  1
  O  O61  1  0.56880994  0.63699182  0.35956181  1
  O  O62  1  0.25075329  0.85736345  0.36012663  1
  O  O63  1  0.75136495  0.85932739  0.35732907  1
  O  O64  1  0.17824627  0.49451830  0.35693491  1
  O  O65  1  0.67840393  0.49404136  0.35626418  1
  O  O66  1  0.06998850  0.49662892  0.85873729  1
  O  O67  1  0.56768991  0.49247172  0.85570209  1
  O  O68  1  0.17844827  0.86295870  0.85626669  1
  O  O69  1  0.67826834  0.86073472  0.85811761  1
  O  O70  1  0.25342783  0.64258716  0.85624671  1
  O  O71  1  0.75244749  0.64317907  0.85780321  1
  O  O72  1  0.01362965  0.83585938  0.41000289  1
  O  O73  1  0.51136942  0.83724221  0.41163757  1
  O  O74  1  0.40782091  0.98408461  0.41254158  1
  O  O75  1  0.90577412  0.97386457  0.41024907  1
  O  O76  1  0.08182267  0.18871697  0.41180756  1
  O  O77  1  0.57988374  0.19178511  0.41041991  1
  O  O78  1  0.01325837  0.19065276  0.91141916  1
  O  O79  1  0.51277371  0.18881908  0.91098202  1
  O  O80  1  0.08184276  0.97378788  0.91143680  1
  O  O81  1  0.58201538  0.97472108  0.91117621  1
  O  O82  1  0.40522666  0.83656295  0.91118961  1
  O  O83  1  0.90511123  0.83712696  0.91184958  1
  O  O84  1  0.48730228  0.16044636  0.58743585  1
  O  O85  1  0.98750656  0.16099929  0.58813134  1
  O  O86  1  0.09488234  0.03295649  0.58802671  1
  O  O87  1  0.59498366  0.03255791  0.58838509  1
  O  O88  1  0.41803696  0.81836206  0.58754379  1
  O  O89  1  0.91758386  0.81804301  0.58783248  1
  O  O90  1  0.48930747  0.81381519  0.08856194  1
  O  O91  1  0.98480115  0.81128923  0.08865474  1
  O  O92  1  0.41826735  0.02882410  0.09055951  1
  O  O93  1  0.92022780  0.02616218  0.08805792  1
  O  O94  1  0.09445613  0.16716649  0.09025370  1
  O  O95  1  0.59373309  0.15627321  0.08771192  1
  O  O96  1  0.34483209  0.16395900  0.74951135  1
  O  O97  1  0.84455711  0.16400125  0.74986963  1
  O  O98  1  0.23676981  0.30943793  0.74863507  1
  O  O99  1  0.73696807  0.30954788  0.74875189  1
  O  O100  1  0.41772070  0.52636696  0.74859898  1
  O  O101  1  0.91748711  0.52668631  0.74896230  1
  O  O102  1  0.34236106  0.51837732  0.24560994  1
  O  O103  1  0.84609107  0.52679882  0.24925275  1
  O  O104  1  0.41540583  0.30897756  0.24460228  1
  O  O105  1  0.91640799  0.30693205  0.24945979  1
  O  O106  1  0.23762213  0.17308721  0.24455188  1
  O  O107  1  0.73581133  0.16577625  0.24953266  1
  O  O108  1  0.31909575  0.49310823  0.92144396  1
  O  O109  1  0.81876130  0.49368522  0.92344797  1
  O  O110  1  0.42635284  0.35951120  0.92077479  1
  O  O111  1  0.92867312  0.36380789  0.92392263  1
  O  O112  1  0.25239178  0.14431546  0.92190710  1
  O  O113  1  0.75368219  0.14468709  0.92330483  1
  O  O114  1  0.32357642  0.15024169  0.42262502  1
  O  O115  1  0.81929829  0.14350363  0.42342190  1
  O  O116  1  0.25325691  0.36059473  0.42222701  1
  O  O117  1  0.75299515  0.35784695  0.42214763  1
  O  O118  1  0.42901463  0.49149992  0.42310396  1
  O  O119  1  0.92807422  0.49286934  0.42296114  1
  O  O120  1  0.17627599  0.50095238  0.07877700  1
  O  O121  1  0.67649253  0.50057768  0.07348061  1
  O  O122  1  0.07350717  0.64318057  0.07418502  1
  O  O123  1  0.57391271  0.65007481  0.07776561  1
  O  O124  1  0.24902968  0.85736822  0.07749018  1
  O  O125  1  0.75029176  0.84866049  0.07446806  1
  O  O126  1  0.17672775  0.85136903  0.57395485  1
  O  O127  1  0.67790239  0.85297239  0.57374058  1
  O  O128  1  0.25102860  0.65248984  0.57418906  1
  O  O129  1  0.75112249  0.65124346  0.57292149  1
  O  O130  1  0.07782123  0.49506712  0.57523930  1
  O  O131  1  0.57841826  0.49475922  0.57517139  1
  O  O132  1  0.14998325  0.82420738  0.25541185  1
  O  O133  1  0.65155808  0.82523024  0.25589556  1
  O  O134  1  0.26004620  0.68818448  0.25555869  1
  O  O135  1  0.76163713  0.70124794  0.25508153  1
  O  O136  1  0.08869549  0.47746092  0.25513013  1
  O  O137  1  0.58783651  0.47156902  0.25564070  1
  O  O138  1  0.14770407  0.47570887  0.75487770  1
  O  O139  1  0.64850670  0.47644492  0.75497323  1
  O  O140  1  0.08930868  0.70245624  0.75487339  1
  O  O141  1  0.58990670  0.70400104  0.75473122  1
  O  O142  1  0.26168003  0.82002952  0.75469467  1
  O  O143  1  0.76164971  0.82006320  0.75500600  1
loop_
_geom_bond_atom_site_label_1
_geom_bond_atom_site_label_2
_geom_bond_distance
_geom_bond_site_symmetry_2
Na0 O105 2.364835 1_555
Na0 O107 2.447246 1_555
Na0 O33 2.461756 1_555
Na0 O135 2.483393 1_545
Na0 O133 2.576139 1_545
Na0 O63 2.811371 1_545
Na1 O106 2.391592 1_555
Na1 O136 2.394503 1_555
Na1 O102 2.478170 1_555
Na1 O134 2.523758 1_555
Na1 O34 2.614611 1_555
Na1 O64 2.719971 1_555
Na1 O20 2.938088 1_555
Na1 O0 2.953771 1_555
Na2 O107 2.354945 1_555
Na2 O35 2.443645 1_555
Na2 O137 2.462318 1_555
Na2 O103 2.462907 1_555
Na2 O135 2.646045 1_555
Na2 O65 2.799772 1_555
Na3 O103 2.371972 1_555
Na3 O105 2.436076 1_555
Na3 O31 2.455868 1_555
Na3 O132 2.493450 1_655
Na3 O136 2.601491 1_655
Na3 O60 2.745250 1_655
Na4 O100 2.378427 1_555
Na4 O98 2.423333 1_555
Na4 O142 2.465964 1_555
Na4 O28 2.497253 1_555
Na4 O138 2.643224 1_555
Na4 O70 2.753628 1_555
Na5 O101 2.366060 1_555
Na5 O99 2.425477 1_555
Na5 O143 2.472858 1_555
Na5 O29 2.478966 1_555
Na5 O139 2.640257 1_555
Na5 O71 2.813114 1_555
Na6 O97 2.379181 1_555
Na6 O25 2.388996 1_555
Na6 O101 2.440832 1_555
Na6 O138 2.461473 1_655
Na6 O140 2.646117 1_655
Na6 O66 2.846009 1_655
Na7 O96 2.371469 1_555
Na7 O100 2.439890 1_555
Na7 O24 2.445436 1_555
Na7 O139 2.474805 1_555
Na7 O141 2.665426 1_555
Na7 O67 2.766874 1_555
Na8 O98 2.371961 1_555
Na8 O96 2.415968 1_555
Na8 O26 2.475314 1_555
Na8 O140 2.479635 1_545
Na8 O142 2.648148 1_545
Na8 O68 2.755196 1_545
Na9 O99 2.368385 1_555
Na9 O97 2.411248 1_555
Na9 O27 2.457442 1_555
Na9 O141 2.471898 1_545
Na9 O143 2.652239 1_545
Na9 O69 2.819354 1_545
Na10 O86 2.417395 1_555
Na10 O130 2.440273 1_555
Na10 O128 2.488791 1_555
Na10 O85 2.621912 1_455
Na10 O14 2.688063 1_555
Na10 O56 2.740954 1_555
Na10 O28 2.788053 1_555
Na10 O42 2.908439 1_555
Na11 O87 2.417658 1_555
Na11 O131 2.451156 1_555
Na11 O129 2.478564 1_555
Na11 O84 2.647972 1_555
Na11 O15 2.709379 1_555
Na11 O29 2.775138 1_555
Na11 O57 2.778089 1_555
Na11 O43 2.857676 1_555
Na12 O84 2.433917 1_565
Na12 O126 2.474586 1_555
Na12 O128 2.530374 1_555
Na12 O88 2.556525 1_555
Na12 O54 2.691778 1_555
Na12 O12 2.692810 1_555
Na12 O26 2.828287 1_565
Na12 O46 2.899260 1_565
Na13 O85 2.426124 1_565
Na13 O127 2.464269 1_555
Na13 O129 2.562874 1_555
Na13 O89 2.563045 1_555
Na13 O13 2.704966 1_555
Na13 O55 2.755532 1_555
Na13 O47 2.822307 1_565
Na13 O27 2.822798 1_565
Na14 O95 2.401121 1_565
Na14 O125 2.517657 1_555
Na14 O123 2.517800 1_555
Na14 O90 2.560745 1_555
Na14 O23 2.619863 1_555
Na14 O53 2.741641 1_554
Na14 O33 2.814675 1_565
Na14 O37 2.889518 1_565
Na15 O91 2.421000 1_555
Na15 O121 2.454080 1_555
Na15 O125 2.528865 1_555
Na15 O93 2.642844 1_565
Na15 O19 2.719919 1_555
Na15 O49 2.735626 1_554
Na15 O35 2.800643 1_555
Na15 O39 2.840354 1_555
Na16 O122 2.423869 1_555
Na16 O93 2.465457 1_455
Na16 O120 2.513562 1_555
Na16 O94 2.577119 1_555
Na16 O50 2.655254 1_554
Na16 O20 2.742420 1_555
Na16 O41 2.860956 1_455
Na16 O31 2.865493 1_455
Na17 O77 2.390255 1_555
Na17 O118 2.391944 1_555
Na17 O74 2.476434 1_545
Na17 O114 2.510197 1_555
Na17 O4 2.625231 1_555
Na17 O46 2.752158 1_555
Na17 O61 2.938304 1_555
Na17 O57 2.943029 1_555
Na18 O72 2.464463 1_655
Na18 O76 2.533353 1_665
Na18 O75 2.536565 1_555
Na18 O89 2.553660 1_555
Na18 O86 2.583246 1_665
Na18 O85 2.667144 1_565
Na19 O73 2.377165 1_555
Na19 O88 2.507641 1_555
Na19 O87 2.531979 1_565
Na19 O74 2.576017 1_555
Na19 O77 2.613618 1_565
Na19 O84 2.695262 1_565
Na20 O80 2.424787 1_555
Na20 O78 2.547560 1_565
Na20 O83 2.548462 1_455
Na20 O91 2.579787 1_456
Na20 O94 2.610237 1_566
Na20 O93 2.668980 1_466
Na21 O82 2.508842 1_545
Na21 O79 2.521462 1_555
Na21 O92 2.541462 1_556
Na21 O95 2.584161 1_556
Na21 O90 2.605163 1_546
Na21 O81 2.635247 1_545
Na22 O110 2.503764 1_555
Na22 O108 2.517723 1_555
Na22 O96 2.526259 1_555
Na22 O112 2.528889 1_555
Na22 O98 2.534585 1_555
Na22 O100 2.545088 1_555
Na23 O97 2.494621 1_555
Na23 O101 2.513939 1_555
Na23 O99 2.520769 1_555
Na23 O113 2.571884 1_555
Na23 O109 2.582503 1_555
Na23 O111 2.586531 1_555
Na24 O102 2.512498 1_555
Na24 O106 2.535603 1_555
Na24 O104 2.537006 1_555
Na24 O116 2.577408 1_555
Na24 O114 2.580754 1_555
Na24 O118 2.604020 1_555
Na25 O107 2.480263 1_555
Na25 O105 2.480318 1_555
Na25 O103 2.496803 1_555
Na25 O117 2.561618 1_555
Na25 O119 2.596060 1_555
Na25 O115 2.598215 1_555
Na26 O124 2.380294 1_555
Na26 O134 2.557215 1_555
Na26 O120 2.560497 1_555
Na26 O132 2.567631 1_555
Na26 O122 2.639881 1_555
Na26 O136 2.745087 1_555
Na27 O123 2.447258 1_555
Na27 O137 2.490657 1_555
Na27 O133 2.583126 1_555
Na27 O121 2.622995 1_555
Na27 O135 2.675120 1_555
Na27 O125 2.709261 1_555
Na28 O140 2.497698 1_555
Na28 O130 2.527573 1_555
Na28 O126 2.563728 1_555
Na28 O138 2.595854 1_555
Na28 O142 2.610071 1_555
Na28 O128 2.666851 1_555
Na29 O141 2.502857 1_555
Na29 O131 2.523428 1_555
Na29 O127 2.563314 1_555
Na29 O139 2.605186 1_555
Na29 O143 2.618087 1_555
Na29 O129 2.685086 1_555
O0 Si0 1.626083 1_545
O0 Ta0 1.988252 1_555
O1 Si1 1.645806 1_545
O1 Ta1 1.923939 1_545
O2 Si2 1.633439 1_555
O2 Ta1 1.929835 1_555
O3 Si3 1.631012 1_555
O3 Ta0 1.954802 1_665
O4 Si5 1.639732 1_555
O4 Ta1 1.993949 1_545
O5 Si4 1.629079 1_655
O5 Ta0 1.950764 1_655
O6 Si6 1.623583 1_555
O6 Ta2 1.965513 1_555
O7 Si7 1.624278 1_555
O7 Ta3 1.969231 1_545
O8 Si9 1.620112 1_555
O8 Ta3 1.965316 1_555
O9 Si8 1.619910 1_655
O9 Ta2 1.970542 1_665
O10 Si10 1.623360 1_545
O10 Ta3 1.967741 1_545
O11 Si11 1.622674 1_545
O11 Ta2 1.964164 1_655
O12 Si10 1.669154 1_555
O12 Ta5 1.982231 1_555
O13 Si11 1.667089 1_555
O13 Ta4 1.983771 1_555
O14 Si6 1.665424 1_555
O14 Ta4 1.987309 1_445
O15 Si7 1.668281 1_555
O15 Ta5 1.982296 1_545
O16 Si8 1.667479 1_555
O16 Ta4 1.936534 1_455
O17 Si9 1.666250 1_555
O17 Ta5 1.936600 1_555
O18 Si2 1.628995 1_555
O18 Ta7 1.942716 1_555
O19 Si3 1.661497 1_555
O19 Ta6 1.997600 1_665
O20 Si4 1.663874 1_555
O20 Ta6 1.990713 1_555
O21 Si5 1.639710 1_555
O21 Ta7 1.968545 1_545
O22 Si0 1.657726 1_555
O22 Ta6 1.935876 1_565
O23 Si1 1.636711 1_555
O23 Ta7 2.016945 1_555
O24 Si12 1.613097 1_555
O24 Sc0 2.045548 1_555
O25 Si13 1.615372 1_555
O25 Sc1 2.049587 1_555
O26 Si14 1.622822 1_555
O26 Sc0 2.077812 1_555
O27 Si15 1.624017 1_555
O27 Sc1 2.076016 1_555
O28 Si16 1.621796 1_555
O28 Sc0 2.073697 1_555
O29 Si17 1.623837 1_555
O29 Sc1 2.073970 1_555
O30 Si18 1.645636 1_555
O30 Ta8 1.926937 1_555
O31 Si19 1.627310 1_555
O31 Sc2 2.059949 1_555
O32 Si20 1.644936 1_555
O32 Ta8 1.925354 1_555
O33 Si21 1.623041 1_555
O33 Sc2 2.068792 1_555
O34 Si22 1.642042 1_555
O34 Ta8 1.994663 1_555
O35 Si23 1.629406 1_555
O35 Sc2 2.065638 1_555
O36 Si22 1.625510 1_555
O36 Ta9 1.965325 1_554
O37 Si23 1.644526 1_555
O37 Ta10 1.982783 1_554
O38 Si18 1.621954 1_555
O38 Ta9 1.967265 1_554
O39 Si19 1.644415 1_555
O39 Ta10 1.984264 1_554
O40 Si20 1.624515 1_555
O40 Ta9 1.962831 1_554
O41 Si21 1.641321 1_555
O41 Ta10 1.988879 1_554
O42 Si14 1.655633 1_555
O42 Ta11 1.954826 1_555
O43 Si15 1.640585 1_555
O43 Ta12 1.995582 1_555
O44 Si16 1.646103 1_555
O44 Ta11 1.936784 1_555
O45 Si17 1.634199 1_555
O45 Ta12 1.968227 1_555
O46 Si12 1.652877 1_555
O46 Ta11 2.024165 1_555
O47 Si13 1.643084 1_555
O47 Ta12 1.984160 1_555
O48 Si24 1.629486 1_555
O48 Ta13 1.929527 1_556
O49 Si25 1.633891 1_555
O49 Ta14 1.967422 1_556
O50 Si26 1.630138 1_555
O50 Ta13 2.000356 1_556
O51 Si27 1.634218 1_555
O51 Ta14 1.906583 1_556
O52 Si28 1.628766 1_555
O52 Ta13 1.930925 1_556
O53 Si29 1.635648 1_555
O53 Ta14 1.965115 1_556
O54 Si30 1.629705 1_555
O54 Ta15 1.971414 1_555
O55 Si31 1.638703 1_555
O55 Ta16 1.950882 1_555
O56 Si32 1.636038 1_555
O56 Ta15 1.956244 1_555
O57 Si33 1.646043 1_555
O57 Ta16 1.977689 1_555
O58 Si34 1.638496 1_555
O58 Ta15 1.906607 1_555
O59 Si35 1.632502 1_555
O59 Ta16 1.925533 1_555
O60 Si34 1.644232 1_555
O60 Ta17 1.969179 1_555
O61 Si35 1.647024 1_555
O61 Ta18 1.943553 1_555
O62 Si30 1.643466 1_555
O62 Ta17 1.921226 1_555
O63 Si31 1.650538 1_555
O63 Ta18 1.960315 1_555
O64 Si32 1.644612 1_555
O64 Ta17 1.968724 1_555
O65 Si33 1.647584 1_555
O65 Ta18 1.972966 1_555
O66 Si26 1.663317 1_555
O66 Ta19 1.934939 1_555
O67 Si27 1.658200 1_555
O67 Ta20 1.937270 1_555
O68 Si28 1.661720 1_555
O68 Ta19 1.935632 1_555
O69 Si29 1.661946 1_555
O69 Ta20 1.938364 1_555
O70 Si24 1.662425 1_555
O70 Ta19 1.934528 1_555
O71 Si25 1.660711 1_555
O71 Ta20 1.936289 1_555
O72 Si34 1.629644 1_555
O72 Ta0 2.011740 1_565
O73 Si35 1.625187 1_555
O73 Ta1 2.010912 1_555
O74 Si30 1.641160 1_555
O74 Ta1 2.040127 1_555
O75 Si31 1.634825 1_555
O75 Ta0 2.004387 1_665
O76 Si32 1.630116 1_555
O76 Ta0 2.007720 1_555
O77 Si33 1.647478 1_555
O77 Ta1 2.057990 1_545
O78 Si26 1.638313 1_555
O78 Ta2 1.998034 1_555
O79 Si27 1.631070 1_555
O79 Ta3 1.997298 1_545
O80 Si28 1.634808 1_555
O80 Ta2 2.004719 1_565
O81 Si29 1.632696 1_555
O81 Ta3 1.993539 1_555
O82 Si24 1.632739 1_555
O82 Ta3 1.995186 1_555
O83 Si25 1.632995 1_555
O83 Ta2 2.005843 1_665
O84 Si12 1.670209 1_555
O84 Ta5 2.054649 1_545
O85 Si13 1.669488 1_555
O85 Ta4 2.050661 1_545
O86 Si14 1.643982 1_555
O86 Ta4 2.027131 1_445
O87 Si15 1.651409 1_555
O87 Ta5 2.020427 1_545
O88 Si16 1.645307 1_555
O88 Ta5 2.017886 1_555
O89 Si17 1.650736 1_555
O89 Ta4 2.009153 1_555
O90 Si18 1.645373 1_555
O90 Ta7 2.024296 1_555
O91 Si19 1.657252 1_555
O91 Ta6 2.009735 1_665
O92 Si20 1.644356 1_555
O92 Ta7 1.973749 1_545
O93 Si21 1.659140 1_555
O93 Ta6 2.059574 1_655
O94 Si22 1.665970 1_555
O94 Ta6 1.993138 1_555
O95 Si23 1.641956 1_555
O95 Ta7 2.047237 1_545
O96 Si10 1.619575 1_545
O96 Sc0 2.172185 1_555
O97 Si11 1.617935 1_545
O97 Sc1 2.183914 1_555
O98 Si6 1.618946 1_555
O98 Sc0 2.173009 1_555
O99 Si7 1.617728 1_555
O99 Sc1 2.176459 1_555
O100 Si9 1.618175 1_555
O100 Sc0 2.155265 1_555
O101 Si8 1.618773 1_655
O101 Sc1 2.164019 1_555
O102 Si2 1.641845 1_555
O102 Ta8 2.069338 1_555
O103 Si3 1.615861 1_555
O103 Sc2 2.173445 1_555
O104 Si5 1.633251 1_555
O104 Ta8 2.004663 1_555
O105 Si4 1.615652 1_655
O105 Sc2 2.179145 1_555
O106 Si0 1.632851 1_545
O106 Ta8 2.077328 1_555
O107 Si1 1.626841 1_545
O107 Sc2 2.175411 1_555
O108 Si24 1.627348 1_555
O108 Ta9 2.015975 1_555
O109 Si25 1.632896 1_555
O109 Ta10 2.009086 1_555
O110 Si27 1.622327 1_555
O110 Ta9 2.023101 1_555
O111 Si26 1.636039 1_655
O111 Ta10 2.006193 1_555
O112 Si28 1.628244 1_545
O112 Ta9 2.012986 1_555
O113 Si29 1.633704 1_545
O113 Ta10 2.010305 1_555
O114 Si30 1.643807 1_545
O114 Ta11 2.047863 1_555
O115 Si31 1.636214 1_545
O115 Ta12 2.009950 1_555
O116 Si32 1.647400 1_555
O116 Ta11 1.985738 1_555
O117 Si33 1.625896 1_555
O117 Ta12 2.018536 1_555
O118 Si35 1.639892 1_555
O118 Ta11 2.048956 1_555
O119 Si34 1.635855 1_655
O119 Ta12 1.999237 1_555
O120 Si22 1.648056 1_555
O120 Ta13 2.068390 1_555
O121 Si23 1.646510 1_555
O121 Ta14 1.994738 1_555
O122 Si19 1.635168 1_455
O122 Ta13 2.023807 1_555
O123 Si18 1.656560 1_555
O123 Ta14 2.042704 1_555
O124 Si20 1.640314 1_565
O124 Ta13 2.002330 1_555
O125 Si21 1.650372 1_565
O125 Ta14 2.060733 1_555
O126 Si14 1.635913 1_565
O126 Ta15 2.014084 1_555
O127 Si15 1.644683 1_565
O127 Ta16 2.003321 1_555
O128 Si16 1.650453 1_555
O128 Ta15 2.053052 1_555
O129 Si17 1.660761 1_555
O129 Ta16 2.033410 1_555
O130 Si13 1.647913 1_455
O130 Ta15 2.017552 1_555
O131 Si12 1.647388 1_555
O131 Ta16 2.024478 1_555
O132 Si0 1.643211 1_555
O132 Ta17 2.032804 1_555
O133 Si1 1.652003 1_555
O133 Ta18 2.008016 1_555
O134 Si2 1.652622 1_555
O134 Ta17 2.015912 1_555
O135 Si3 1.658913 1_555
O135 Ta18 2.058354 1_555
O136 Si4 1.653333 1_555
O136 Ta17 2.067957 1_555
O137 Si5 1.657739 1_555
O137 Ta18 2.036655 1_555
O138 Si6 1.657917 1_555
O138 Ta19 2.064056 1_555
O139 Si7 1.657126 1_555
O139 Ta20 2.062817 1_555
O140 Si8 1.653160 1_555
O140 Ta19 2.071867 1_555
O141 Si9 1.652932 1_555
O141 Ta20 2.070263 1_555
O142 Si10 1.655755 1_555
O142 Ta19 2.065767 1_555
O143 Si11 1.658411 1_555
O143 Ta20 2.058743 1_555
