# generated using pymatgen
data_MgCo4(AgO2)4
_symmetry_space_group_name_H-M   'P 1'
_cell_length_a   3.05557543
_cell_length_b   3.05557543
_cell_length_c   26.69112127
_cell_angle_alpha   89.31487179
_cell_angle_beta   90.68512821
_cell_angle_gamma   120.32566487
_symmetry_Int_Tables_number   1
_chemical_formula_structural   MgCo4(AgO2)4
_chemical_formula_sum   'Mg1 Co4 Ag4 O8'
_cell_volume   215.08377076
_cell_formula_units_Z   1
loop_
 _symmetry_equiv_pos_site_id
 _symmetry_equiv_pos_as_xyz
  1  'x, y, z'
loop_
 _atom_site_type_symbol
 _atom_site_label
 _atom_site_symmetry_multiplicity
 _atom_site_fract_x
 _atom_site_fract_y
 _atom_site_fract_z
 _atom_site_occupancy
  Mg  Mg0  1  0.33208800  0.66791200  0.93468394  1
  Co  Co0  1  0.33278729  0.66721271  0.14837467  1
  Co  Co1  1  0.67097768  0.32902232  0.84056708  1
  Co  Co2  1  0.66726066  0.33273934  0.61438089  1
  Co  Co3  1  0.33215562  0.66784438  0.38207550  1
  Ag  Ag0  1  0.00000247  -0.00000247  0.02732012  1
  Ag  Ag1  1  0.00924651  0.99075349  0.49882176  1
  Ag  Ag2  1  0.65555859  0.34444141  0.26538660  1
  Ag  Ag3  1  0.33127581  0.66872419  0.72981575  1
  O  O0  1  0.00627318  0.99372682  0.11085147  1
  O  O1  1  0.99741097  0.00258903  0.90122674  1
  O  O2  1  0.01798706  0.98201294  0.57752938  1
  O  O3  1  0.00577397  0.99422603  0.42018764  1
  O  O4  1  0.66350603  0.33649397  0.18681622  1
  O  O5  1  0.33726019  0.66273981  0.80915028  1
  O  O6  1  0.31647675  0.68352325  0.65120421  1
  O  O7  1  0.65729223  0.34270777  0.34431575  1
loop_
_geom_bond_atom_site_label_1
_geom_bond_atom_site_label_2
_geom_bond_distance
_geom_bond_site_symmetry_2
Mg0 O1 1.974410 1_455
Mg0 O1 1.974410 1_565
Mg0 O1 1.975193 1_465
Co0 O0 1.987766 1_555
Co0 O4 2.019101 1_555
Co0 O0 2.045835 1_655
Co0 O0 2.045835 1_545
Co0 O4 2.048080 1_565
Co0 O4 2.048080 1_455
Co1 O5 1.947266 1_555
Co1 O5 1.952367 1_545
Co1 O5 1.952367 1_655
Co1 O1 2.353425 1_555
Co1 O1 2.412516 1_565
Co1 O1 2.412516 1_455
Co2 O6 1.970141 1_545
Co2 O6 1.970141 1_655
Co2 O2 1.970633 1_545
Co2 O2 1.970633 1_655
Co2 O6 2.115242 1_555
Co2 O2 2.115331 1_645
Co3 O7 2.008571 1_555
Co3 O3 2.019117 1_555
Co3 O7 2.039721 1_455
Co3 O7 2.039721 1_565
Co3 O3 2.041387 1_655
Co3 O3 2.041387 1_545
Ag0 O0 2.229335 1_545
Ag1 O3 2.098660 1_555
Ag1 O2 2.100667 1_555
Ag2 O4 2.098135 1_555
Ag2 O7 2.106601 1_555
Ag3 O6 2.098615 1_555
Ag3 O5 2.117328 1_555
