# generated using pymatgen
data_MgMoW3(Se3S)2
_symmetry_space_group_name_H-M   'P 1'
_cell_length_a   6.57808000
_cell_length_b   6.57796075
_cell_length_c   92.53764020
_cell_angle_alpha   89.99348522
_cell_angle_beta   89.99909349
_cell_angle_gamma   119.99998434
_symmetry_Int_Tables_number   1
_chemical_formula_structural   MgMoW3(Se3S)2
_chemical_formula_sum   'Mg8 Mo8 W24 Se48 S16'
_cell_volume   3467.68424364
_cell_formula_units_Z   8
loop_
 _symmetry_equiv_pos_site_id
 _symmetry_equiv_pos_as_xyz
  1  'x, y, z'
loop_
 _atom_site_type_symbol
 _atom_site_label
 _atom_site_symmetry_multiplicity
 _atom_site_fract_x
 _atom_site_fract_y
 _atom_site_fract_z
 _atom_site_occupancy
  Mg  Mg0_0  1  0.49999800  0.49997950  0.27968750  1
  Mg  Mg0_1  1  0.49999800  0.49997950  0.77968750  1
  Mg  Mg0_2  1  0.49999800  0.99997950  0.27968750  1
  Mg  Mg0_3  1  0.49999800  0.99997950  0.77968750  1
  Mg  Mg0_4  1  0.99999800  0.49997950  0.27968750  1
  Mg  Mg0_5  1  0.99999800  0.49997950  0.77968750  1
  Mg  Mg0_6  1  0.99999800  0.99997950  0.27968750  1
  Mg  Mg0_7  1  0.99999800  0.99997950  0.77968750  1
  Mo  Mo0_0  1  0.33335600  0.16669950  0.14100950  1
  Mo  Mo0_1  1  0.33335600  0.16669950  0.64100950  1
  Mo  Mo0_2  1  0.33335600  0.66669950  0.14100950  1
  Mo  Mo0_3  1  0.33335600  0.66669950  0.64100950  1
  Mo  Mo0_4  1  0.83335600  0.16669950  0.14100950  1
  Mo  Mo0_5  1  0.83335600  0.16669950  0.64100950  1
  Mo  Mo0_6  1  0.83335600  0.66669950  0.14100950  1
  Mo  Mo0_7  1  0.83335600  0.66669950  0.64100950  1
  W  W0_0  1  0.16658650  0.33328900  0.04689700  1
  W  W0_1  1  0.16658650  0.33328900  0.54689700  1
  W  W0_2  1  0.16658650  0.83328900  0.04689700  1
  W  W0_3  1  0.16658650  0.83328900  0.54689700  1
  W  W0_4  1  0.66658650  0.33328900  0.04689700  1
  W  W0_5  1  0.66658650  0.33328900  0.54689700  1
  W  W0_6  1  0.66658650  0.83328900  0.04689700  1
  W  W0_7  1  0.66658650  0.83328900  0.54689700  1
  W  W1_0  1  0.16665550  0.33329100  0.23084600  1
  W  W1_1  1  0.16665550  0.33329100  0.73084600  1
  W  W1_2  1  0.16665550  0.83329100  0.23084600  1
  W  W1_3  1  0.16665550  0.83329100  0.73084600  1
  W  W1_4  1  0.66665550  0.33329100  0.23084600  1
  W  W1_5  1  0.66665550  0.33329100  0.73084600  1
  W  W1_6  1  0.66665550  0.83329100  0.23084600  1
  W  W1_7  1  0.66665550  0.83329100  0.73084600  1
  W  W2_0  1  0.33339800  0.16670950  0.33266700  1
  W  W2_1  1  0.33339800  0.16670950  0.83266700  1
  W  W2_2  1  0.33339800  0.66670950  0.33266700  1
  W  W2_3  1  0.33339800  0.66670950  0.83266700  1
  W  W2_4  1  0.83339800  0.16670950  0.33266700  1
  W  W2_5  1  0.83339800  0.16670950  0.83266700  1
  W  W2_6  1  0.83339800  0.66670950  0.33266700  1
  W  W2_7  1  0.83339800  0.66670950  0.83266700  1
  Se  Se0_0  1  0.16667250  0.33333850  0.15922800  1
  Se  Se0_1  1  0.16667250  0.33333850  0.65922800  1
  Se  Se0_2  1  0.16667250  0.83333850  0.15922800  1
  Se  Se0_3  1  0.16667250  0.83333850  0.65922800  1
  Se  Se0_4  1  0.66667250  0.33333850  0.15922800  1
  Se  Se0_5  1  0.66667250  0.33333850  0.65922800  1
  Se  Se0_6  1  0.66667250  0.83333850  0.15922800  1
  Se  Se0_7  1  0.66667250  0.83333850  0.65922800  1
  Se  Se1_0  1  0.16670700  0.33334200  0.35099150  1
  Se  Se1_1  1  0.16670700  0.33334200  0.85099150  1
  Se  Se1_2  1  0.16670700  0.83334200  0.35099150  1
  Se  Se1_3  1  0.16670700  0.83334200  0.85099150  1
  Se  Se1_4  1  0.66670700  0.33334200  0.35099150  1
  Se  Se1_5  1  0.66670700  0.33334200  0.85099150  1
  Se  Se1_6  1  0.66670700  0.83334200  0.35099150  1
  Se  Se1_7  1  0.66670700  0.83334200  0.85099150  1
  Se  Se2_0  1  0.33326650  0.16671350  0.02858600  1
  Se  Se2_1  1  0.33326650  0.16671350  0.52858600  1
  Se  Se2_2  1  0.33326650  0.66671350  0.02858600  1
  Se  Se2_3  1  0.33326650  0.66671350  0.52858600  1
  Se  Se2_4  1  0.83326650  0.16671350  0.02858600  1
  Se  Se2_5  1  0.83326650  0.16671350  0.52858600  1
  Se  Se2_6  1  0.83326650  0.66671350  0.02858600  1
  Se  Se2_7  1  0.83326650  0.66671350  0.52858600  1
  Se  Se3_0  1  0.33323100  0.16655500  0.06520650  1
  Se  Se3_1  1  0.33323100  0.16655500  0.56520650  1
  Se  Se3_2  1  0.33323100  0.66655500  0.06520650  1
  Se  Se3_3  1  0.33323100  0.66655500  0.56520650  1
  Se  Se3_4  1  0.83323100  0.16655500  0.06520650  1
  Se  Se3_5  1  0.83323100  0.16655500  0.56520650  1
  Se  Se3_6  1  0.83323100  0.66655500  0.06520650  1
  Se  Se3_7  1  0.83323100  0.66655500  0.56520650  1
  Se  Se4_0  1  0.16672950  0.33342450  0.12276850  1
  Se  Se4_1  1  0.16672950  0.33342450  0.62276850  1
  Se  Se4_2  1  0.16672950  0.83342450  0.12276850  1
  Se  Se4_3  1  0.16672950  0.83342450  0.62276850  1
  Se  Se4_4  1  0.66672950  0.33342450  0.12276850  1
  Se  Se4_5  1  0.66672950  0.33342450  0.62276850  1
  Se  Se4_6  1  0.66672950  0.83342450  0.12276850  1
  Se  Se4_7  1  0.66672950  0.83342450  0.62276850  1
  Se  Se5_0  1  0.16676750  0.33342050  0.31422550  1
  Se  Se5_1  1  0.16676750  0.33342050  0.81422550  1
  Se  Se5_2  1  0.16676750  0.83342050  0.31422550  1
  Se  Se5_3  1  0.16676750  0.83342050  0.81422550  1
  Se  Se5_4  1  0.66676750  0.33342050  0.31422550  1
  Se  Se5_5  1  0.66676750  0.33342050  0.81422550  1
  Se  Se5_6  1  0.66676750  0.83342050  0.31422550  1
  Se  Se5_7  1  0.66676750  0.83342050  0.81422550  1
  S  S0_0  1  0.33334200  0.16664350  0.21430350  1
  S  S0_1  1  0.33334200  0.16664350  0.71430350  1
  S  S0_2  1  0.33334200  0.66664350  0.21430350  1
  S  S0_3  1  0.33334200  0.66664350  0.71430350  1
  S  S0_4  1  0.83334200  0.16664350  0.21430350  1
  S  S0_5  1  0.83334200  0.16664350  0.71430350  1
  S  S0_6  1  0.83334200  0.66664350  0.21430350  1
  S  S0_7  1  0.83334200  0.66664350  0.71430350  1
  S  S1_0  1  0.33329050  0.16659450  0.24747150  1
  S  S1_1  1  0.33329050  0.16659450  0.74747150  1
  S  S1_2  1  0.33329050  0.66659450  0.24747150  1
  S  S1_3  1  0.33329050  0.66659450  0.74747150  1
  S  S1_4  1  0.83329050  0.16659450  0.24747150  1
  S  S1_5  1  0.83329050  0.16659450  0.74747150  1
  S  S1_6  1  0.83329050  0.66659450  0.24747150  1
  S  S1_7  1  0.83329050  0.66659450  0.74747150  1
loop_
_geom_bond_atom_site_label_1
_geom_bond_atom_site_label_2
_geom_bond_distance
_geom_bond_site_symmetry_2
Mg0_0 Mg0_2 3.288980 1_545
Mg0_0 Mg0_2 3.288980 1_555
Mg0_0 Mg0_6 3.289011 1_555
Mg0_0 Mg0_6 3.289011 1_445
Mg0_0 Mg0_4 3.289040 1_555
Mg0_0 Mg0_4 3.289040 1_455
Mg0_1 Mg0_3 3.288980 1_555
Mg0_1 Mg0_3 3.288980 1_545
Mg0_1 Mg0_7 3.289011 1_555
Mg0_1 Mg0_7 3.289011 1_445
Mg0_1 Mg0_5 3.289040 1_555
Mg0_1 Mg0_5 3.289040 1_455
Mg0_2 Mg0_4 3.289011 1_565
Mg0_2 Mg0_4 3.289011 1_455
Mg0_2 Mg0_6 3.289040 1_555
Mg0_2 Mg0_6 3.289040 1_455
Mg0_3 Mg0_5 3.289011 1_565
Mg0_3 Mg0_5 3.289011 1_455
Mg0_3 Mg0_7 3.289040 1_555
Mg0_3 Mg0_7 3.289040 1_455
Mg0_4 Mg0_6 3.288980 1_545
Mg0_4 Mg0_6 3.288980 1_555
Mg0_5 Mg0_7 3.288980 1_555
Mg0_5 Mg0_7 3.288980 1_545
Mo0_0 Se0_2 2.539241 1_545
Mo0_0 Se0_0 2.539338 1_555
Mo0_0 Se0_4 2.539360 1_555
Mo0_0 Se4_2 2.540612 1_545
Mo0_0 Se4_0 2.540702 1_555
Mo0_0 Se4_4 2.540774 1_555
Mo0_1 Se0_3 2.539241 1_545
Mo0_1 Se0_1 2.539338 1_555
Mo0_1 Se0_5 2.539360 1_555
Mo0_1 Se4_3 2.540612 1_545
Mo0_1 Se4_1 2.540702 1_555
Mo0_1 Se4_5 2.540774 1_555
Mo0_2 Se0_0 2.539241 1_555
Mo0_2 Se0_2 2.539338 1_555
Mo0_2 Se0_6 2.539360 1_555
Mo0_2 Se4_0 2.540612 1_555
Mo0_2 Se4_2 2.540702 1_555
Mo0_2 Se4_6 2.540774 1_555
Mo0_3 Se0_1 2.539241 1_555
Mo0_3 Se0_3 2.539338 1_555
Mo0_3 Se0_7 2.539360 1_555
Mo0_3 Se4_1 2.540612 1_555
Mo0_3 Se4_3 2.540702 1_555
Mo0_3 Se4_7 2.540774 1_555
Mo0_4 Se0_6 2.539241 1_545
Mo0_4 Se0_4 2.539338 1_555
Mo0_4 Se0_0 2.539360 1_655
Mo0_4 Se4_6 2.540612 1_545
Mo0_4 Se4_4 2.540702 1_555
Mo0_4 Se4_0 2.540774 1_655
Mo0_5 Se0_7 2.539241 1_545
Mo0_5 Se0_5 2.539338 1_555
Mo0_5 Se0_1 2.539360 1_655
Mo0_5 Se4_7 2.540612 1_545
Mo0_5 Se4_5 2.540702 1_555
Mo0_5 Se4_1 2.540774 1_655
Mo0_6 Se0_4 2.539241 1_555
Mo0_6 Se0_6 2.539338 1_555
Mo0_6 Se0_2 2.539360 1_655
Mo0_6 Se4_4 2.540612 1_555
Mo0_6 Se4_6 2.540702 1_555
Mo0_6 Se4_2 2.540774 1_655
Mo0_7 Se0_5 2.539241 1_555
Mo0_7 Se0_7 2.539338 1_555
Mo0_7 Se0_3 2.539360 1_655
Mo0_7 Se4_5 2.540612 1_555
Mo0_7 Se4_7 2.540702 1_555
Mo0_7 Se4_3 2.540774 1_655
Se1_0 W2_2 2.545791 1_555
Se1_0 W2_4 2.545852 1_455
Se1_0 W2_0 2.545866 1_555
Se1_1 W2_3 2.545791 1_555
Se1_1 W2_5 2.545852 1_455
Se1_1 W2_1 2.545866 1_555
Se1_2 W2_0 2.545791 1_565
Se1_2 W2_6 2.545852 1_455
Se1_2 W2_2 2.545866 1_555
Se1_3 W2_1 2.545791 1_565
Se1_3 W2_7 2.545852 1_455
Se1_3 W2_3 2.545866 1_555
Se1_4 W2_6 2.545791 1_555
Se1_4 W2_0 2.545852 1_555
Se1_4 W2_4 2.545866 1_555
Se1_5 W2_7 2.545791 1_555
Se1_5 W2_1 2.545852 1_555
Se1_5 W2_5 2.545866 1_555
Se1_6 W2_4 2.545791 1_565
Se1_6 W2_2 2.545852 1_555
Se1_6 W2_6 2.545866 1_555
Se1_7 W2_5 2.545791 1_565
Se1_7 W2_3 2.545852 1_555
Se1_7 W2_7 2.545866 1_555
Se2_0 W0_0 2.544745 1_555
Se2_0 W0_4 2.545067 1_555
Se2_0 W0_2 2.545202 1_545
Se2_1 W0_1 2.544745 1_555
Se2_1 W0_5 2.545067 1_555
Se2_1 W0_3 2.545202 1_545
Se2_2 W0_2 2.544745 1_555
Se2_2 W0_6 2.545067 1_555
Se2_2 W0_0 2.545202 1_555
Se2_3 W0_3 2.544745 1_555
Se2_3 W0_7 2.545067 1_555
Se2_3 W0_1 2.545202 1_555
Se2_4 W0_4 2.544745 1_555
Se2_4 W0_0 2.545067 1_655
Se2_4 W0_6 2.545202 1_545
Se2_5 W0_5 2.544745 1_555
Se2_5 W0_1 2.545067 1_655
Se2_5 W0_7 2.545202 1_545
Se2_6 W0_6 2.544745 1_555
Se2_6 W0_2 2.545067 1_655
Se2_6 W0_4 2.545202 1_555
Se2_7 W0_7 2.544745 1_555
Se2_7 W0_3 2.545067 1_655
Se2_7 W0_5 2.545202 1_555
Se3_0 W0_2 2.544790 1_545
Se3_0 W0_4 2.544913 1_555
Se3_0 W0_0 2.545032 1_555
Se3_1 W0_3 2.544790 1_545
Se3_1 W0_5 2.544913 1_555
Se3_1 W0_1 2.545032 1_555
Se3_2 W0_0 2.544790 1_555
Se3_2 W0_6 2.544913 1_555
Se3_2 W0_2 2.545032 1_555
Se3_3 W0_1 2.544790 1_555
Se3_3 W0_7 2.544913 1_555
Se3_3 W0_3 2.545032 1_555
Se3_4 W0_6 2.544790 1_545
Se3_4 W0_0 2.544913 1_655
Se3_4 W0_4 2.545032 1_555
Se3_5 W0_7 2.544790 1_545
Se3_5 W0_1 2.544913 1_655
Se3_5 W0_5 2.545032 1_555
Se3_6 W0_4 2.544790 1_555
Se3_6 W0_2 2.544913 1_655
Se3_6 W0_6 2.545032 1_555
Se3_7 W0_5 2.544790 1_555
Se3_7 W0_3 2.544913 1_655
Se3_7 W0_7 2.545032 1_555
Se5_0 W2_0 2.553023 1_555
Se5_0 W2_2 2.553038 1_555
Se5_0 W2_4 2.553120 1_455
Se5_1 W2_1 2.553023 1_555
Se5_1 W2_3 2.553038 1_555
Se5_1 W2_5 2.553120 1_455
Se5_2 W2_2 2.553023 1_555
Se5_2 W2_0 2.553038 1_565
Se5_2 W2_6 2.553120 1_455
Se5_3 W2_3 2.553023 1_555
Se5_3 W2_1 2.553038 1_565
Se5_3 W2_7 2.553120 1_455
Se5_4 W2_4 2.553023 1_555
Se5_4 W2_6 2.553038 1_555
Se5_4 W2_0 2.553120 1_555
Se5_5 W2_5 2.553023 1_555
Se5_5 W2_7 2.553038 1_555
Se5_5 W2_1 2.553120 1_555
Se5_6 W2_6 2.553023 1_555
Se5_6 W2_4 2.553038 1_565
Se5_6 W2_2 2.553120 1_555
Se5_7 W2_7 2.553023 1_555
Se5_7 W2_5 2.553038 1_565
Se5_7 W2_3 2.553120 1_555
S0_0 W1_2 2.439007 1_545
S0_0 W1_4 2.439129 1_555
S0_0 W1_0 2.439173 1_555
S0_1 W1_3 2.439007 1_545
S0_1 W1_5 2.439129 1_555
S0_1 W1_1 2.439173 1_555
S0_2 W1_0 2.439007 1_555
S0_2 W1_6 2.439129 1_555
S0_2 W1_2 2.439173 1_555
S0_3 W1_1 2.439007 1_555
S0_3 W1_7 2.439129 1_555
S0_3 W1_3 2.439173 1_555
S0_4 W1_6 2.439007 1_545
S0_4 W1_0 2.439129 1_655
S0_4 W1_4 2.439173 1_555
S0_5 W1_7 2.439007 1_545
S0_5 W1_1 2.439129 1_655
S0_5 W1_5 2.439173 1_555
S0_6 W1_4 2.439007 1_555
S0_6 W1_2 2.439129 1_655
S0_6 W1_6 2.439173 1_555
S0_7 W1_5 2.439007 1_555
S0_7 W1_3 2.439129 1_655
S0_7 W1_7 2.439173 1_555
S1_0 W1_0 2.443855 1_555
S1_0 W1_2 2.443953 1_545
S1_0 W1_4 2.443984 1_555
S1_1 W1_1 2.443855 1_555
S1_1 W1_3 2.443953 1_545
S1_1 W1_5 2.443984 1_555
S1_2 W1_2 2.443855 1_555
S1_2 W1_0 2.443953 1_555
S1_2 W1_6 2.443984 1_555
S1_3 W1_3 2.443855 1_555
S1_3 W1_1 2.443953 1_555
S1_3 W1_7 2.443984 1_555
S1_4 W1_4 2.443855 1_555
S1_4 W1_6 2.443953 1_545
S1_4 W1_0 2.443984 1_655
S1_5 W1_5 2.443855 1_555
S1_5 W1_7 2.443953 1_545
S1_5 W1_1 2.443984 1_655
S1_6 W1_6 2.443855 1_555
S1_6 W1_4 2.443953 1_555
S1_6 W1_2 2.443984 1_655
S1_7 W1_7 2.443855 1_555
S1_7 W1_5 2.443953 1_555
S1_7 W1_3 2.443984 1_655
