# generated using pymatgen
data_MgTi3(SnO4)3
_symmetry_space_group_name_H-M   'P 1'
_cell_length_a   7.81966864
_cell_length_b   5.90619237
_cell_length_c   6.04946248
_cell_angle_alpha   71.42634633
_cell_angle_beta   67.84953212
_cell_angle_gamma   70.58821744
_symmetry_Int_Tables_number   1
_chemical_formula_structural   MgTi3(SnO4)3
_chemical_formula_sum   'Mg1 Ti3 Sn3 O12'
_cell_volume   238.01649573
_cell_formula_units_Z   1
loop_
 _symmetry_equiv_pos_site_id
 _symmetry_equiv_pos_as_xyz
  1  'x, y, z'
loop_
 _atom_site_type_symbol
 _atom_site_label
 _atom_site_symmetry_multiplicity
 _atom_site_fract_x
 _atom_site_fract_y
 _atom_site_fract_z
 _atom_site_occupancy
  Mg  Mg0  1  0.84980300  0.64848800  0.15234000  1
  Ti  Ti0  1  0.67285000  0.26470200  0.32368300  1
  Ti  Ti1  1  0.21282300  0.34911500  0.34349800  1
  Ti  Ti2  1  0.00961900  0.06354100  0.96694900  1
  Sn  Sn0  1  0.83178000  0.65481000  0.66093400  1
  Sn  Sn1  1  0.33076400  0.67129800  0.66807100  1
  Sn  Sn2  1  0.47800100  0.99522200  0.99814200  1
  O  O0  1  0.32244900  0.39941700  0.00376600  1
  O  O1  1  0.68849700  0.02124500  0.59504300  1
  O  O2  1  0.26929900  0.91403600  0.89061800  1
  O  O3  1  0.63931100  0.57439600  0.52159800  1
  O  O4  1  0.94693000  0.25917900  0.19285500  1
  O  O5  1  0.74254400  0.04366500  0.11971200  1
  O  O6  1  0.38501700  0.42131800  0.44789300  1
  O  O7  1  0.02431300  0.75106900  0.79913500  1
  O  O8  1  0.67365700  0.58116800  0.02141800  1
  O  O9  1  0.00854700  0.29859500  0.68185700  1
  O  O10  1  0.30469800  0.00267100  0.39350000  1
  O  O11  1  0.01980900  0.66939800  0.31422400  1
loop_
_geom_bond_atom_site_label_1
_geom_bond_atom_site_label_2
_geom_bond_distance
_geom_bond_site_symmetry_2
Mg0 O11 1.977242 1_655
Mg0 O8 2.017397 1_555
Mg0 O7 2.078671 1_654
Mg0 O4 2.131759 1_555
Mg0 O5 2.172573 1_565
Mg0 O3 2.230269 1_555
O0 Ti1 1.870491 1_555
O0 Sn1 2.144584 1_554
O0 Sn2 2.295659 1_544
O1 Ti0 1.818828 1_555
O1 Sn0 2.067253 1_545
O1 Sn2 2.362635 1_545
O2 Ti2 1.864707 1_565
O2 Sn1 2.093437 1_555
O2 Sn2 2.199027 1_555
O3 Sn1 2.174176 1_555
O3 Sn0 2.210888 1_555
O3 Ti0 2.384820 1_555
O4 Ti2 1.888735 1_654
O4 Ti0 1.977801 1_555
O5 Ti0 1.889452 1_555
O5 Ti2 1.966687 1_654
O5 Sn2 2.564502 1_544
O6 Ti1 1.894265 1_555
O6 Ti0 2.066328 1_555
O6 Sn1 2.131727 1_555
O7 Sn1 2.155886 1_555
O7 Sn0 2.260477 1_455
O7 Ti2 2.326879 1_565
O8 Sn0 2.047820 1_554
O8 Ti0 2.158483 1_555
O8 Sn2 2.407713 1_554
O9 Ti2 1.838395 1_555
O9 Ti1 2.071847 1_555
O9 Sn0 2.093369 1_455
O10 Ti1 1.893904 1_555
O10 Sn1 2.133103 1_545
O10 Sn2 2.267591 1_544
O11 Ti1 1.994507 1_555
O11 Sn0 2.052316 1_455
O11 Ti2 2.593518 1_564
