# generated using pymatgen
data_GdAlPd
_symmetry_space_group_name_H-M   'P 1'
_cell_length_a   7.08852041
_cell_length_b   7.08852377
_cell_length_c   4.17581356
_cell_angle_alpha   90.00000000
_cell_angle_beta   90.00000000
_cell_angle_gamma   120.00001048
_symmetry_Int_Tables_number   1
_chemical_formula_structural   GdAlPd
_chemical_formula_sum   'Gd3 Al3 Pd3'
_cell_volume   181.71177894
_cell_formula_units_Z   3
loop_
 _symmetry_equiv_pos_site_id
 _symmetry_equiv_pos_as_xyz
  1  'x, y, z'
loop_
 _atom_site_type_symbol
 _atom_site_label
 _atom_site_symmetry_multiplicity
 _atom_site_fract_x
 _atom_site_fract_y
 _atom_site_fract_z
 _atom_site_occupancy
  Gd  Gd0  1  0.00000000  0.58190002  0.50000000  1
  Gd  Gd1  1  0.41809998  0.41809998  0.50000000  1
  Gd  Gd2  1  0.58190002  1.00000000  0.50000000  1
  Al  Al0  1  0.76880542  0.76880642  0.00000000  1
  Al  Al1  1  0.23119458  0.00000100  -0.00000000  1
  Al  Al2  1  1.00000000  0.23119358  -0.00000000  1
  Pd  Pd0  1  0.33333400  0.66666700  0.00000000  1
  Pd  Pd1  1  0.66666600  0.33333200  0.00000000  1
  Pd  Pd2  1  -0.00000000  -0.00000000  0.50000000  1
loop_
_geom_bond_atom_site_label_1
_geom_bond_atom_site_label_2
_geom_bond_distance
_geom_bond_site_symmetry_2
Gd0 Pd2 2.963712 1_565
Gd0 Pd0 2.980548 1_555
Gd0 Pd0 2.980548 1_556
Gd0 Pd1 2.980550 1_456
Gd0 Pd1 2.980550 1_455
Gd1 Pd2 2.963710 1_555
Gd1 Pd0 2.980546 1_555
Gd1 Pd0 2.980546 1_556
Gd1 Pd1 2.980547 1_555
Gd1 Pd1 2.980547 1_556
Gd2 Pd2 2.963710 1_665
Gd2 Pd1 2.980541 1_566
Gd2 Pd1 2.980541 1_565
Gd2 Pd0 2.980544 1_555
Gd2 Pd0 2.980544 1_556
Al0 Pd2 2.654261 1_665
Al0 Pd2 2.654261 1_664
Al0 Pd0 2.796051 1_555
Al0 Pd1 2.796073 1_555
Al1 Pd2 2.654260 1_554
Al1 Pd2 2.654260 1_555
Al1 Pd1 2.796049 1_555
Al1 Pd0 2.796066 1_545
Al2 Pd2 2.654259 1_654
Al2 Pd2 2.654259 1_655
Al2 Pd1 2.796060 1_555
Al2 Pd0 2.796065 1_655
