# generated using pymatgen
data_Mn(SbO3)2
_symmetry_space_group_name_H-M   'P 1'
_cell_length_a   8.83132366
_cell_length_b   9.43861078
_cell_length_c   8.83130810
_cell_angle_alpha   90.00310952
_cell_angle_beta   119.99962598
_cell_angle_gamma   90.00002842
_symmetry_Int_Tables_number   1
_chemical_formula_structural   Mn(SbO3)2
_chemical_formula_sum   'Mn6 Sb12 O36'
_cell_volume   637.51613822
_cell_formula_units_Z   6
loop_
 _symmetry_equiv_pos_site_id
 _symmetry_equiv_pos_as_xyz
  1  'x, y, z'
loop_
 _atom_site_type_symbol
 _atom_site_label
 _atom_site_symmetry_multiplicity
 _atom_site_fract_x
 _atom_site_fract_y
 _atom_site_fract_z
 _atom_site_occupancy
  Mn  Mn0  1  0.63238895  0.50002267  0.00007616  1
  Mn  Mn1  1  0.00008007  0.00006985  0.63239006  1
  Mn  Mn2  1  0.99992406  0.49999454  0.63232926  1
  Mn  Mn3  1  0.36758768  0.00000559  0.36766533  1
  Mn  Mn4  1  0.36768581  0.49993164  0.36760569  1
  Mn  Mn5  1  0.63231077  -0.00002173  -0.00007998  1
  Sb  Sb0  1  -0.00000663  -0.00000370  0.00000602  1
  Sb  Sb1  1  -0.00000188  0.50001189  0.00000442  1
  Sb  Sb2  1  0.33336716  0.24669418  0.66666022  1
  Sb  Sb3  1  0.33329716  0.74661797  0.66665748  1
  Sb  Sb4  1  0.66670847  0.25330237  0.33334176  1
  Sb  Sb5  1  0.66664495  0.75338297  0.33333915  1
  Sb  Sb6  1  0.30502774  0.24999611  0.00000056  1
  Sb  Sb7  1  0.30497990  0.75000234  -0.00000013  1
  Sb  Sb8  1  0.69504922  0.24998716  0.69502499  1
  Sb  Sb9  1  0.69496683  0.74998189  0.69499353  1
  Sb  Sb10  1  0.00002535  0.25001214  0.30497526  1
  Sb  Sb11  1  -0.00002515  0.75001717  0.30500613  1
  O  O0  1  0.22392475  0.35967971  0.77878844  1
  O  O1  1  0.22389984  0.85964639  0.77878091  1
  O  O2  1  0.55492019  0.35968282  0.77611535  1
  O  O3  1  0.55483744  0.85963283  0.77610406  1
  O  O4  1  0.22124847  0.35968674  0.44510828  1
  O  O5  1  0.22117209  0.85967040  0.44515990  1
  O  O6  1  0.77613955  0.14031433  0.55489523  1
  O  O7  1  0.77601094  0.64033289  0.55483953  1
  O  O8  1  0.44513552  0.14031914  0.22121670  1
  O  O9  1  0.44511840  0.64035408  0.22121805  1
  O  O10  1  0.77880422  0.14031752  0.22388719  1
  O  O11  1  0.77872943  0.64037062  0.22389562  1
  O  O12  1  0.47118143  0.13493152  0.58797160  1
  O  O13  1  0.47110072  0.63491444  0.58790646  1
  O  O14  1  0.11683581  0.13494825  0.52883602  1
  O  O15  1  0.11674675  0.63489804  0.52882453  1
  O  O16  1  0.41204421  0.13493430  0.88316395  1
  O  O17  1  0.41202801  0.63490189  0.88319886  1
  O  O18  1  0.52888262  0.36506391  0.11683727  1
  O  O19  1  0.52882818  0.86510055  0.11680275  1
  O  O20  1  0.58800114  0.36505057  0.47116637  1
  O  O21  1  0.58792557  0.86510584  0.47117786  1
  O  O22  1  0.88321046  0.36506752  0.41203108  1
  O  O23  1  0.88319230  0.86508817  0.41209106  1
  O  O24  1  0.88997768  0.38190538  0.10356605  1
  O  O25  1  0.88997134  0.88194223  0.10359604  1
  O  O26  1  0.21362231  0.38192326  0.11002172  1
  O  O27  1  0.21360059  0.88191683  0.11003666  1
  O  O28  1  0.89646542  0.38189460  0.78639875  1
  O  O29  1  0.89641654  0.88188008  0.78640958  1
  O  O30  1  0.11006132  0.11810269  0.21359303  1
  O  O31  1  0.11000323  0.61811659  0.21358405  1
  O  O32  1  0.10359682  0.11807462  0.88997980  1
  O  O33  1  0.10356615  0.61808134  0.88996065  1
  O  O34  1  0.78641084  0.11809461  0.89643495  1
  O  O35  1  0.78637929  0.61805429  0.89640073  1
loop_
_geom_bond_atom_site_label_1
_geom_bond_atom_site_label_2
_geom_bond_distance
_geom_bond_site_symmetry_2
Mn0 O18 2.112861 1_555
Mn0 O17 2.113006 1_554
Mn0 O11 2.185697 1_555
Mn0 O2 2.186593 1_554
Mn0 O35 2.274664 1_554
Mn0 O24 2.274687 1_555
Mn1 O14 2.112652 1_555
Mn1 O23 2.113121 1_445
Mn1 O6 2.185973 1_455
Mn1 O1 2.186303 1_545
Mn1 O32 2.274062 1_555
Mn1 O29 2.275539 1_445
Mn2 O22 2.112762 1_555
Mn2 O15 2.112917 1_655
Mn2 O7 2.186335 1_555
Mn2 O0 2.186738 1_655
Mn2 O28 2.274207 1_555
Mn2 O33 2.274627 1_655
Mn3 O12 2.112804 1_555
Mn3 O21 2.112968 1_545
Mn3 O5 2.186284 1_545
Mn3 O8 2.186684 1_555
Mn3 O30 2.274199 1_555
Mn3 O27 2.274620 1_545
Mn4 O20 2.112710 1_555
Mn4 O13 2.113137 1_555
Mn4 O4 2.185954 1_555
Mn4 O9 2.186284 1_555
Mn4 O26 2.274037 1_555
Mn4 O31 2.275529 1_555
Mn5 O16 2.112849 1_554
Mn5 O19 2.113015 1_545
Mn5 O3 2.185663 1_544
Mn5 O10 2.186629 1_555
Mn5 O34 2.274651 1_554
Mn5 O25 2.274657 1_545
O0 Sb6 2.000570 1_556
O0 Sb2 2.002240 1_555
O1 Sb7 2.000451 1_556
O1 Sb3 2.002134 1_555
O2 Sb8 2.000615 1_555
O2 Sb2 2.002150 1_555
O3 Sb9 2.000518 1_555
O3 Sb3 2.002199 1_555
O4 Sb10 2.000533 1_555
O4 Sb2 2.002246 1_555
O5 Sb11 2.000300 1_555
O5 Sb3 2.002197 1_555
O6 Sb8 2.000493 1_555
O6 Sb4 2.002234 1_555
O7 Sb9 2.000275 1_555
O7 Sb5 2.002204 1_555
O8 Sb6 2.000563 1_555
O8 Sb4 2.002252 1_555
O9 Sb7 2.000470 1_555
O9 Sb5 2.002182 1_555
O10 Sb10 2.000631 1_655
O10 Sb4 2.002105 1_555
O11 Sb11 2.000542 1_655
O11 Sb5 2.002098 1_555
O12 Sb2 1.980576 1_555
O12 Sb8 2.027962 1_555
O13 Sb3 1.980567 1_555
O13 Sb9 2.028004 1_555
O14 Sb2 1.980662 1_555
O14 Sb10 2.028041 1_555
O15 Sb3 1.980653 1_555
O15 Sb11 2.028044 1_555
O16 Sb2 1.980661 1_555
O16 Sb6 2.027892 1_556
O17 Sb3 1.980641 1_555
O17 Sb7 2.028056 1_556
O18 Sb4 1.980676 1_555
O18 Sb6 2.027943 1_555
O19 Sb5 1.980630 1_555
O19 Sb7 2.028048 1_555
O20 Sb4 1.980668 1_555
O20 Sb8 2.028025 1_555
O21 Sb5 1.980709 1_555
O21 Sb9 2.028051 1_555
O22 Sb4 1.980588 1_555
O22 Sb10 2.027971 1_655
O23 Sb5 1.980530 1_555
O23 Sb11 2.028023 1_655
O24 Sb1 1.977865 1_655
O24 Sb10 1.982339 1_655
O25 Sb0 1.977774 1_665
O25 Sb11 1.982516 1_655
O26 Sb1 1.978044 1_555
O26 Sb6 1.982530 1_555
O27 Sb0 1.977891 1_565
O27 Sb7 1.982400 1_555
O28 Sb1 1.977997 1_656
O28 Sb8 1.982373 1_555
O29 Sb0 1.977927 1_666
O29 Sb9 1.982508 1_555
O30 Sb0 1.977822 1_555
O30 Sb10 1.982388 1_555
O31 Sb1 1.977759 1_555
O31 Sb11 1.982518 1_555
O32 Sb0 1.978015 1_556
O32 Sb6 1.982529 1_556
O33 Sb1 1.977858 1_556
O33 Sb7 1.982434 1_556
O34 Sb0 1.977832 1_656
O34 Sb8 1.982338 1_555
O35 Sb1 1.977762 1_656
O35 Sb9 1.982510 1_555
