# generated using pymatgen
data_CoP2O7
_symmetry_space_group_name_H-M   'P 1'
_cell_length_a   6.14724177
_cell_length_b   6.14724177
_cell_length_c   12.92903854
_cell_angle_alpha   75.27262183
_cell_angle_beta   75.27262183
_cell_angle_gamma   80.94715248
_symmetry_Int_Tables_number   1
_chemical_formula_structural   CoP2O7
_chemical_formula_sum   'Co4 P8 O28'
_cell_volume   454.74414247
_cell_formula_units_Z   4
loop_
 _symmetry_equiv_pos_site_id
 _symmetry_equiv_pos_as_xyz
  1  'x, y, z'
loop_
 _atom_site_type_symbol
 _atom_site_label
 _atom_site_symmetry_multiplicity
 _atom_site_fract_x
 _atom_site_fract_y
 _atom_site_fract_z
 _atom_site_occupancy
  Co  Co0  1  0.41435200  0.87784600  0.85617200  1
  Co  Co1  1  0.12215400  0.58564800  0.64382800  1
  Co  Co2  1  0.87784600  0.41435200  0.35617200  1
  Co  Co3  1  0.58564800  0.12215400  0.14382800  1
  P  P0  1  0.07912500  0.24879100  0.13821900  1
  P  P1  1  0.24879100  0.07912500  0.63821900  1
  P  P2  1  0.41429000  0.33242400  0.93055500  1
  P  P3  1  0.33242400  0.41429000  0.43055500  1
  P  P4  1  0.66757600  0.58571000  0.56944500  1
  P  P5  1  0.92087500  0.75120900  0.86178100  1
  P  P6  1  0.75120900  0.92087500  0.36178100  1
  P  P7  1  0.58571000  0.66757600  0.06944500  1
  O  O0  1  0.80580200  0.60559100  0.98050200  1
  O  O1  1  0.35471200  0.18941000  0.86219200  1
  O  O2  1  0.18941000  0.35471200  0.36219200  1
  O  O3  1  0.59974000  0.20472000  0.99252000  1
  O  O4  1  0.56859200  0.03350600  0.29650900  1
  O  O5  1  0.44091200  0.52099700  0.64579100  1
  O  O6  1  0.03350600  0.56859200  0.79650900  1
  O  O7  1  0.52099700  0.44091200  0.14579100  1
  O  O8  1  0.81059000  0.64528800  0.63780800  1
  O  O9  1  0.11420200  0.90924900  0.61885000  1
  O  O10  1  0.72946000  0.91588000  0.82098800  1
  O  O11  1  0.09075100  0.88579800  0.88115000  1
  O  O12  1  0.88579800  0.09075100  0.38115000  1
  O  O13  1  0.55908800  0.47900300  0.35420900  1
  O  O14  1  0.96649400  0.43140800  0.20349100  1
  O  O15  1  0.91588000  0.72946000  0.32098800  1
  O  O16  1  0.79528000  0.40026000  0.50748000  1
  O  O17  1  0.64528800  0.81059000  0.13780800  1
  O  O18  1  0.39440900  0.19419800  0.51949800  1
  O  O19  1  0.19419800  0.39440900  0.01949800  1
  O  O20  1  0.47900300  0.55908800  0.85420900  1
  O  O21  1  0.90924900  0.11420200  0.11885000  1
  O  O22  1  0.20472000  0.59974000  0.49252000  1
  O  O23  1  0.08412000  0.27054000  0.67901200  1
  O  O24  1  0.27054000  0.08412000  0.17901200  1
  O  O25  1  0.40026000  0.79528000  0.00748000  1
  O  O26  1  0.43140800  0.96649400  0.70349100  1
  O  O27  1  0.60559100  0.80580200  0.48050200  1
loop_
_geom_bond_atom_site_label_1
_geom_bond_atom_site_label_2
_geom_bond_distance
_geom_bond_site_symmetry_2
Co0 O25 1.874815 1_556
Co0 O26 1.889579 1_555
Co0 O1 1.910237 1_565
Co0 O10 1.911588 1_555
Co0 O11 1.927332 1_555
Co0 O20 1.942487 1_555
Co1 O22 1.874815 1_555
Co1 O6 1.889579 1_555
Co1 O8 1.910237 1_455
Co1 O23 1.911588 1_555
Co1 O9 1.927332 1_555
Co1 O5 1.942487 1_555
Co2 O16 1.874815 1_555
Co2 O14 1.889579 1_555
Co2 O2 1.910237 1_655
Co2 O15 1.911588 1_555
Co2 O12 1.927332 1_555
Co2 O13 1.942487 1_555
Co3 O3 1.874815 1_554
Co3 O4 1.889579 1_555
Co3 O17 1.910237 1_545
Co3 O24 1.911588 1_555
Co3 O21 1.927332 1_555
Co3 O7 1.942487 1_555
O0 P7 1.602364 1_556
O0 P5 1.614420 1_555
O1 P2 1.532721 1_555
O2 P3 1.532721 1_555
O3 P2 1.555856 1_555
O4 P6 1.546533 1_545
O5 P4 1.532814 1_555
O6 P5 1.546533 1_455
O7 P7 1.532814 1_555
O8 P4 1.532721 1_555
O9 P1 1.532289 1_565
O10 P5 1.535147 1_555
O11 P5 1.532289 1_455
O12 P6 1.532289 1_545
O13 P3 1.532814 1_555
O14 P0 1.546533 1_655
O15 P6 1.535147 1_555
O16 P4 1.555856 1_555
O17 P7 1.532721 1_555
O18 P3 1.602364 1_555
O18 P1 1.614420 1_555
O19 P2 1.602364 1_554
O19 P0 1.614420 1_555
O20 P2 1.532814 1_555
O21 P0 1.532289 1_655
O22 P3 1.555856 1_555
O23 P1 1.535147 1_555
O24 P0 1.535147 1_555
O25 P7 1.555856 1_555
O26 P1 1.546533 1_565
O27 P4 1.602364 1_555
O27 P6 1.614420 1_555
