# generated using pymatgen
data_Na2AlInP2SO12
_symmetry_space_group_name_H-M   'P 1'
_cell_length_a   8.72777130
_cell_length_b   8.73104297
_cell_length_c   22.23774441
_cell_angle_alpha   90.55590890
_cell_angle_beta   89.54175092
_cell_angle_gamma   120.10488500
_symmetry_Int_Tables_number   1
_chemical_formula_structural   Na2AlInP2SO12
_chemical_formula_sum   'Na12 Al6 In6 P12 S6 O72'
_cell_volume   1465.91095095
_cell_formula_units_Z   6
loop_
 _symmetry_equiv_pos_site_id
 _symmetry_equiv_pos_as_xyz
  1  'x, y, z'
loop_
 _atom_site_type_symbol
 _atom_site_label
 _atom_site_symmetry_multiplicity
 _atom_site_fract_x
 _atom_site_fract_y
 _atom_site_fract_z
 _atom_site_occupancy
  Na  Na0  1  0.99699365  0.63669857  0.25387521  1
  Na  Na1  1  0.36974344  0.00785885  0.75011037  1
  Na  Na2  1  0.66178051  0.95712761  0.58657003  1
  Na  Na3  1  0.03828568  0.33461266  0.08703569  1
  Na  Na4  1  0.32711946  0.30065508  0.91954406  1
  Na  Na5  1  0.69718696  0.67170175  0.41960666  1
  Na  Na6  1  0.02648047  0.99885648  0.49961597  1
  Na  Na7  1  0.00448170  0.97701791  0.00141011  1
  Na  Na8  1  0.69068042  0.33000756  0.83116497  1
  Na  Na9  1  0.66630542  0.31096134  0.33513393  1
  Na  Na10  1  0.35648073  0.66450548  0.17240562  1
  Na  Na11  1  0.33444085  0.64640578  0.66368981  1
  Al  Al0  1  0.98427576  0.99631949  0.34895830  1
  Al  Al1  1  0.00402740  0.99797121  0.64526711  1
  Al  Al2  1  0.65666393  0.33222656  0.68169224  1
  Al  Al3  1  0.66763633  0.34720416  0.18835254  1
  Al  Al4  1  0.66688279  0.33066823  0.48211420  1
  Al  Al5  1  0.33300442  0.66704034  0.31970225  1
  In  In0  1  0.99830538  0.00737820  0.84485479  1
  In  In1  1  0.00064506  0.99878965  0.15689227  1
  In  In2  1  0.66739049  0.33055831  0.98355308  1
  In  In3  1  0.32800410  0.67150018  0.02198617  1
  In  In4  1  0.33113225  0.67293975  0.51622131  1
  In  In5  1  0.33572291  0.66404411  0.80971543  1
  P  P0  1  0.69122051  0.69981311  0.25398392  1
  P  P1  1  0.00237458  0.30112512  0.25278557  1
  P  P2  1  0.29752134  0.29136652  0.74313372  1
  P  P3  1  0.71197496  0.01214875  0.74065096  1
  P  P4  1  0.37635295  0.05627475  0.58358398  1
  P  P5  1  0.67765665  0.62107249  0.58236852  1
  P  P6  1  0.95489799  0.62695046  0.08946371  1
  P  P7  1  0.37823355  0.33344102  0.08715701  1
  P  P8  1  0.03377743  0.36828033  0.91709519  1
  P  P9  1  0.33197353  0.96428456  0.91293443  1
  P  P10  1  0.63086879  0.96794334  0.41604818  1
  P  P11  1  0.03454113  0.66972090  0.41388172  1
  S  S0  1  0.30289417  0.00077765  0.25482439  1
  S  S1  1  0.98510796  0.69789630  0.74291303  1
  S  S2  1  0.94850610  0.32991969  0.58384120  1
  S  S3  1  0.66440975  0.04342852  0.09026102  1
  S  S4  1  0.63552393  0.67145787  0.91676229  1
  S  S5  1  0.32451274  0.36289746  0.41463372  1
  O  O0  1  0.20808231  0.02815907  0.30502221  1
  O  O1  1  0.82703650  0.79115580  0.30606893  1
  O  O2  1  0.97727471  0.16806252  0.30183544  1
  O  O3  1  0.23993369  0.19177337  0.80459078  1
  O  O4  1  0.95720809  0.76359574  0.80111034  1
  O  O5  1  0.80591965  0.03510747  0.80068495  1
  O  O6  1  0.80751315  0.98561299  0.68622467  1
  O  O7  1  0.16929478  0.17914652  0.69352510  1
  O  O8  1  0.01005624  0.81893843  0.69327546  1
  O  O9  1  0.76031217  0.80986631  0.19664291  1
  O  O10  1  0.04218450  0.24246993  0.19153161  1
  O  O11  1  0.19469390  0.95163747  0.19874435  1
  O  O12  1  0.86166144  0.34818723  0.63786549  1
  O  O13  1  0.49213103  0.13816008  0.63998280  1
  O  O14  1  0.65838852  0.50680140  0.63617844  1
  O  O15  1  0.85921735  0.51156341  0.14551846  1
  O  O16  1  0.65606773  0.14414074  0.14221575  1
  O  O17  1  0.49366177  0.33877801  0.13969278  1
  O  O18  1  0.44377462  0.31248208  0.02447177  1
  O  O19  1  0.86098849  0.54504632  0.03020059  1
  O  O20  1  0.68682167  0.13351138  0.03225316  1
  O  O21  1  0.47055927  0.16752764  0.52754785  1
  O  O22  1  0.69545279  0.53636103  0.52260698  1
  O  O23  1  0.84217064  0.30537241  0.52880228  1
  O  O24  1  0.55408247  0.69065722  0.97248076  1
  O  O25  1  0.14015988  0.44368405  0.97676777  1
  O  O26  1  0.32014384  0.86146433  0.96989059  1
  O  O27  1  0.57583083  0.85415808  0.47477200  1
  O  O28  1  0.28601646  0.42698362  0.47173482  1
  O  O29  1  0.14273389  0.70876362  0.47161935  1
  O  O30  1  0.12837648  0.64113012  0.35928964  1
  O  O31  1  0.49883379  0.86315913  0.36598651  1
  O  O32  1  0.35990084  0.48996686  0.36519236  1
  O  O33  1  0.12969300  0.47691458  0.86129707  1
  O  O34  1  0.35430829  0.88619922  0.85273424  1
  O  O35  1  0.53010115  0.64831678  0.86250078  1
  O  O36  1  0.00817921  0.83281269  0.40351760  1
  O  O37  1  0.81615845  0.98963922  0.40243900  1
  O  O38  1  0.17331004  0.18499163  0.40257142  1
  O  O39  1  0.01911783  0.18366986  0.91438093  1
  O  O40  1  0.16229502  0.97936906  0.91164893  1
  O  O41  1  0.81255501  0.82778545  0.91315190  1
  O  O42  1  0.96515483  0.16683817  0.58708559  1
  O  O43  1  0.18921163  0.03445694  0.59041743  1
  O  O44  1  0.84093857  0.81280057  0.58871281  1
  O  O45  1  0.97760890  0.81233031  0.09205838  1
  O  O46  1  0.82443111  0.02567509  0.09238697  1
  O  O47  1  0.18705530  0.17410998  0.09080638  1
  O  O48  1  0.68842558  0.17713840  0.73481982  1
  O  O49  1  0.48555103  0.31608007  0.73530809  1
  O  O50  1  0.83372605  0.51898945  0.73513611  1
  O  O51  1  0.68024306  0.51599766  0.24589805  1
  O  O52  1  0.83333617  0.31971491  0.24664186  1
  O  O53  1  0.47782348  0.16099481  0.24661671  1
  O  O54  1  0.64603287  0.50743087  0.91786839  1
  O  O55  1  0.85073521  0.35188898  0.91814620  1
  O  O56  1  0.49273906  0.15557247  0.91532308  1
  O  O57  1  0.64500511  0.15007314  0.42642218  1
  O  O58  1  0.49208859  0.35557252  0.42064336  1
  O  O59  1  0.84615542  0.50233600  0.42179491  1
  O  O60  1  0.36579540  0.50563947  0.08797426  1
  O  O61  1  0.13841539  0.63540240  0.09057286  1
  O  O62  1  0.50253614  0.86844070  0.09024537  1
  O  O63  1  0.36088328  0.87006461  0.58078469  1
  O  O64  1  0.51054567  0.64384992  0.58014319  1
  O  O65  1  0.12742106  0.48778255  0.58063876  1
  O  O66  1  0.32396175  0.84306642  0.26468524  1
  O  O67  1  0.50772819  0.67521984  0.26781691  1
  O  O68  1  0.16180701  0.48993230  0.26478074  1
  O  O69  1  0.30848487  0.47247799  0.74516611  1
  O  O70  1  0.15271186  0.69184572  0.74420991  1
  O  O71  1  0.52112775  0.84740680  0.74253220  1
loop_
_geom_bond_atom_site_label_1
_geom_bond_atom_site_label_2
_geom_bond_distance
_geom_bond_site_symmetry_2
Na0 O68 2.372915 1_655
Na0 O52 2.398972 1_555
Na0 O51 2.422038 1_555
Na0 O66 2.508459 1_655
Na0 O30 2.609267 1_655
Na0 O15 2.668929 1_555
Na0 O11 2.704318 1_655
Na0 O1 2.704617 1_555
Na1 O71 2.363330 1_545
Na1 O49 2.378062 1_555
Na1 O48 2.430414 1_555
Na1 O70 2.443775 1_545
Na1 O34 2.500622 1_545
Na1 O3 2.663673 1_555
Na1 O13 2.688116 1_555
Na2 O63 2.343504 1_555
Na2 O42 2.345220 1_565
Na2 O64 2.370200 1_555
Na2 O44 2.452384 1_555
Na2 O6 2.511527 1_555
Na2 O27 2.619498 1_555
Na2 O13 2.895630 1_565
Na2 O23 2.935154 1_565
Na3 O61 2.315518 1_555
Na3 O47 2.342240 1_555
Na3 O46 2.392856 1_455
Na3 O10 2.472492 1_555
Na3 O60 2.473727 1_555
Na3 O25 2.621320 1_554
Na4 O39 2.351797 1_555
Na4 O56 2.352700 1_555
Na4 O40 2.432183 1_545
Na4 O54 2.442689 1_555
Na4 O18 2.533708 1_556
Na4 O3 2.697355 1_555
Na4 O25 2.796693 1_555
Na4 O35 2.933558 1_555
Na5 O36 2.374455 1_655
Na5 O59 2.410511 1_555
Na5 O58 2.422252 1_555
Na5 O37 2.460160 1_555
Na5 O22 2.583980 1_555
Na5 O27 2.607384 1_555
Na5 O1 2.750719 1_555
Na5 O32 2.825174 1_555
Na6 O43 2.404556 1_565
Na6 O36 2.531226 1_555
Na6 O44 2.561059 1_455
Na6 O38 2.622048 1_565
Na6 O42 2.633735 1_465
Na6 O37 2.820966 1_455
Na7 O40 2.410467 1_554
Na7 O45 2.428255 1_455
Na7 O41 2.483778 1_454
Na7 O47 2.585712 1_565
Na7 O39 2.617227 1_564
Na7 O46 2.710183 1_465
Na8 O55 2.344696 1_555
Na8 O56 2.484087 1_555
Na8 O48 2.508180 1_555
Na8 O50 2.607802 1_555
Na8 O54 2.608569 1_555
Na8 O49 2.757091 1_555
Na9 O52 2.418427 1_555
Na9 O57 2.432327 1_555
Na9 O53 2.477147 1_555
Na9 O59 2.514859 1_555
Na9 O58 2.571586 1_555
Na9 O51 2.646512 1_555
Na10 O60 2.348605 1_555
Na10 O62 2.425375 1_555
Na10 O67 2.483970 1_555
Na10 O61 2.561191 1_555
Na10 O68 2.614732 1_555
Na10 O66 2.663582 1_555
Na11 O69 2.311254 1_555
Na11 O64 2.408848 1_555
Na11 O71 2.434363 1_555
Na11 O65 2.467198 1_555
Na11 O70 2.539945 1_555
Na11 O63 2.622307 1_555
Al0 O37 1.859659 1_555
Al0 O2 1.863802 1_565
Al0 O1 1.877086 1_555
Al0 O36 1.972306 1_655
Al0 O38 2.030757 1_665
Al0 O0 2.068188 1_665
Al1 O7 1.854013 1_565
Al1 O6 1.890543 1_455
Al1 O43 1.913370 1_565
Al1 O8 1.923991 1_555
Al1 O44 1.975394 1_455
Al1 O42 2.123379 1_465
Al2 O13 1.828480 1_555
Al2 O14 1.831542 1_555
Al2 O49 1.853473 1_555
Al2 O48 1.928473 1_555
Al2 O12 1.973586 1_555
Al2 O50 1.980767 1_555
Al3 O15 1.832056 1_555
Al3 O17 1.842433 1_555
Al3 O51 1.903839 1_555
Al3 O16 1.998244 1_555
Al3 O52 2.052678 1_555
Al3 O53 2.090712 1_555
Al4 O21 1.880824 1_555
Al4 O22 1.902971 1_555
Al4 O57 1.928823 1_555
Al4 O23 1.958581 1_555
Al4 O59 2.036359 1_555
Al4 O58 2.148287 1_555
Al5 O67 1.877780 1_555
Al5 O30 1.894513 1_555
Al5 O31 1.894637 1_555
Al5 O68 1.946814 1_555
Al5 O32 1.966440 1_555
Al5 O66 2.006194 1_555
In0 O5 2.069198 1_555
In0 O3 2.105432 1_655
In0 O39 2.114341 1_655
In0 O40 2.169508 1_645
In0 O4 2.192005 1_545
In0 O41 2.202349 1_545
In1 O45 2.097658 1_455
In1 O9 2.104702 1_455
In1 O10 2.109570 1_565
In1 O11 2.153162 1_555
In1 O47 2.157988 1_565
In1 O46 2.209535 1_465
In2 O19 2.062558 1_556
In2 O18 2.080214 1_556
In2 O55 2.092829 1_555
In2 O20 2.119730 1_556
In2 O56 2.148407 1_555
In2 O54 2.211343 1_555
In3 O26 2.061651 1_554
In3 O25 2.090837 1_554
In3 O61 2.146950 1_555
In3 O24 2.184271 1_554
In3 O60 2.210739 1_555
In3 O62 2.222593 1_555
In4 O29 2.081669 1_555
In4 O27 2.126294 1_555
In4 O63 2.144920 1_555
In4 O28 2.205000 1_555
In4 O65 2.224280 1_555
In4 O64 2.231293 1_555
In5 O33 2.067547 1_555
In5 O34 2.086756 1_555
In5 O69 2.115294 1_555
In5 O35 2.131543 1_555
In5 O71 2.196015 1_555
In5 O70 2.272709 1_555
O0 S0 1.471903 1_555
O1 P0 1.561530 1_555
O2 P1 1.533924 1_655
O3 P2 1.565298 1_555
O4 S1 1.477806 1_555
O5 P3 1.530419 1_555
O6 P3 1.544682 1_565
O7 P2 1.525861 1_555
O8 S1 1.473320 1_455
O9 P0 1.530719 1_555
O10 P1 1.547849 1_555
O11 S0 1.494362 1_565
O12 S2 1.465006 1_555
O13 P4 1.543807 1_555
O14 P5 1.518950 1_555
O15 P6 1.558815 1_555
O16 S3 1.468510 1_555
O17 P7 1.533831 1_555
O18 P7 1.546345 1_555
O19 P6 1.526754 1_555
O20 S3 1.477225 1_555
O21 P4 1.542166 1_555
O22 P5 1.558900 1_555
O23 S2 1.489572 1_555
O24 S4 1.473093 1_555
O25 P8 1.563951 1_555
O26 P9 1.532247 1_555
O27 P10 1.568267 1_555
O28 S5 1.485377 1_555
O29 P11 1.531143 1_555
O30 P11 1.546008 1_555
O31 P10 1.532136 1_555
O32 S5 1.486466 1_555
O33 P8 1.532893 1_555
O34 P9 1.551258 1_555
O35 S4 1.473080 1_555
O36 P11 1.571497 1_555
O37 P10 1.558421 1_555
O38 S5 1.472229 1_555
O39 P8 1.552225 1_555
O40 P9 1.551671 1_555
O41 S4 1.463306 1_555
O42 S2 1.504475 1_555
O43 P4 1.552934 1_555
O44 P5 1.567962 1_555
O45 P6 1.529341 1_555
O46 S3 1.481623 1_555
O47 P7 1.548355 1_555
O48 P3 1.560531 1_555
O49 P2 1.552714 1_555
O50 S1 1.464100 1_555
O51 P0 1.567687 1_555
O52 P1 1.570183 1_655
O53 S0 1.476178 1_555
O54 S4 1.480707 1_555
O55 P8 1.530787 1_655
O56 P9 1.552283 1_545
O57 P10 1.547141 1_545
O58 S5 1.502720 1_555
O59 P11 1.568438 1_655
O60 P7 1.560677 1_555
O61 P6 1.566370 1_455
O62 S3 1.471358 1_565
O63 P4 1.563113 1_565
O64 P5 1.568935 1_555
O65 S2 1.477909 1_455
O66 S0 1.496153 1_565
O67 P0 1.534243 1_555
O68 P1 1.556015 1_555
O69 P2 1.535766 1_555
O70 S1 1.490523 1_455
O71 P3 1.562602 1_565
