# generated using pymatgen
data_Na2Ca4Nb4Si3(S3O16)3
_symmetry_space_group_name_H-M   'P 1'
_cell_length_a   18.09774172
_cell_length_b   9.08046259
_cell_length_c   23.55097060
_cell_angle_alpha   89.94567632
_cell_angle_beta   90.02627424
_cell_angle_gamma   120.16306469
_symmetry_Int_Tables_number   1
_chemical_formula_structural   Na2Ca4Nb4Si3(S3O16)3
_chemical_formula_sum   'Na6 Ca12 Nb12 Si9 S27 O144'
_cell_volume   3346.22892279
_cell_formula_units_Z   3
loop_
 _symmetry_equiv_pos_site_id
 _symmetry_equiv_pos_as_xyz
  1  'x, y, z'
loop_
 _atom_site_type_symbol
 _atom_site_label
 _atom_site_symmetry_multiplicity
 _atom_site_fract_x
 _atom_site_fract_y
 _atom_site_fract_z
 _atom_site_occupancy
  Na  Na0  1  0.99835092  0.99690269  0.49963242  1
  Na  Na1  1  0.49853034  0.00158852  0.99690757  1
  Na  Na2  1  0.33289813  0.33229281  0.83524820  1
  Na  Na3  1  0.82951678  0.33125270  0.83387146  1
  Na  Na4  1  0.33804671  0.34258725  0.33776197  1
  Na  Na5  1  0.83135101  0.32862962  0.33870084  1
  Ca  Ca0  1  0.99882043  0.99805202  0.35462929  1
  Ca  Ca1  1  0.50252929  0.00586796  0.85121209  1
  Ca  Ca2  1  0.99977934  0.99984588  0.64747305  1
  Ca  Ca3  1  0.49994359  0.00041906  0.14789651  1
  Ca  Ca4  1  0.32507342  0.32702704  0.98186159  1
  Ca  Ca5  1  0.84151631  0.33936956  0.98251525  1
  Ca  Ca6  1  0.33993289  0.34683462  0.48289696  1
  Ca  Ca7  1  0.82716626  0.32440367  0.48262920  1
  Ca  Ca8  1  0.16169895  0.66367563  0.30790829  1
  Ca  Ca9  1  0.67083399  0.66929241  0.30770189  1
  Ca  Ca10  1  0.17259105  0.67469785  0.80755979  1
  Ca  Ca11  1  0.66073018  0.65124313  0.80443260  1
  Nb  Nb0  1  0.50034808  0.01191850  0.35454341  1
  Nb  Nb1  1  0.00044730  0.98792991  0.85141680  1
  Nb  Nb2  1  0.50550346  0.01180035  0.64264946  1
  Nb  Nb3  1  0.99924082  0.99864220  0.14163647  1
  Nb  Nb4  1  0.33797161  0.34069730  0.68009807  1
  Nb  Nb5  1  0.82909639  0.33040945  0.68912163  1
  Nb  Nb6  1  0.33643678  0.33632097  0.18494596  1
  Nb  Nb7  1  0.83432503  0.33148601  0.17938492  1
  Nb  Nb8  1  0.16120437  0.64863838  0.02435412  1
  Nb  Nb9  1  0.67163438  0.67447172  0.02072813  1
  Nb  Nb10  1  0.16987736  0.66549234  0.52425912  1
  Nb  Nb11  1  0.66385219  0.67497142  0.52662115  1
  Si  Si0  1  0.49622530  0.28971396  0.24783267  1
  Si  Si1  1  0.64197802  0.28192426  0.75099329  1
  Si  Si2  1  0.99785014  0.69934533  0.74568170  1
  Si  Si3  1  0.47907126  0.32982940  0.58010956  1
  Si  Si4  1  0.68963296  0.04725884  0.58452282  1
  Si  Si5  1  0.33517300  0.62979792  0.58467103  1
  Si  Si6  1  0.97948339  0.62873494  0.08139408  1
  Si  Si7  1  0.83175606  0.03823040  0.08317492  1
  Si  Si8  1  0.18861034  0.33290801  0.08520760  1
  S  S0  1  0.14771521  0.01312551  0.24635336  1
  S  S1  1  0.64975479  0.01887358  0.25194763  1
  S  S2  1  0.35793280  0.70077022  0.25147595  1
  S  S3  1  0.85908098  0.70193579  0.24613280  1
  S  S4  1  0.99177242  0.28252726  0.24641350  1
  S  S5  1  0.14972851  0.28127618  0.75173044  1
  S  S6  1  0.49146561  0.70227346  0.74661690  1
  S  S7  1  0.35756646  0.01495566  0.74529707  1
  S  S8  1  0.85916203  0.01570458  0.75210609  1
  S  S9  1  0.98292332  0.34199809  0.58140139  1
  S  S10  1  0.18847769  0.03776897  0.58007909  1
  S  S11  1  0.83006452  0.62355317  0.58095461  1
  S  S12  1  0.48313126  0.61985213  0.08181858  1
  S  S13  1  0.32916437  0.03570339  0.08106365  1
  S  S14  1  0.68891489  0.33961139  0.08018037  1
  S  S15  1  0.31211788  0.67369338  0.92028712  1
  S  S16  1  0.81368802  0.67656064  0.91493552  1
  S  S17  1  0.02565174  0.37303937  0.91499594  1
  S  S18  1  0.52329497  0.37737564  0.92040791  1
  S  S19  1  0.16265338  0.95230845  0.91475886  1
  S  S20  1  0.66436485  0.95172918  0.91883085  1
  S  S21  1  0.31289621  0.95207714  0.41469050  1
  S  S22  1  0.81198670  0.95115917  0.41965069  1
  S  S23  1  0.16485797  0.37983002  0.41891061  1
  S  S24  1  0.66427587  0.37389813  0.41463858  1
  S  S25  1  0.02390178  0.66996316  0.41951775  1
  S  S26  1  0.52571232  0.67848965  0.41503847  1
  O  O0  1  0.11760966  0.04952979  0.29930209  1
  O  O1  1  0.60213676  0.03858292  0.30298019  1
  O  O2  1  0.41463710  0.78582527  0.30246672  1
  O  O3  1  0.90835646  0.76307940  0.29898381  1
  O  O4  1  0.48128676  0.15102543  0.30678840  1
  O  O5  1  0.97589847  0.18686369  0.29940306  1
  O  O6  1  0.10019075  0.16350645  0.80321713  1
  O  O7  1  0.61849690  0.17514675  0.80826502  1
  O  O8  1  0.47225015  0.75938116  0.79979210  1
  O  O9  1  0.98148646  0.80944957  0.80645223  1
  O  O10  1  0.40614222  0.05357097  0.79865479  1
  O  O11  1  0.91727319  0.04063190  0.80340980  1
  O  O12  1  0.40414027  0.00069261  0.69661615  1
  O  O13  1  0.89542281  0.99428806  0.70042559  1
  O  O14  1  0.10038380  0.21125547  0.70029041  1
  O  O15  1  0.58117467  0.16401191  0.69769550  1
  O  O16  1  0.00671967  0.81512615  0.69433009  1
  O  O17  1  0.49634141  0.80411410  0.69747143  1
  O  O18  1  0.39426504  0.79471588  0.19944860  1
  O  O19  1  0.90865948  0.81438539  0.19787713  1
  O  O20  1  0.99893223  0.18807628  0.19771305  1
  O  O21  1  0.50392291  0.19689360  0.19453045  1
  O  O22  1  0.09175142  0.99715400  0.19816101  1
  O  O23  1  0.60065604  0.99033717  0.20028179  1
  O  O24  1  0.42850465  0.36430339  0.63593074  1
  O  O25  1  0.94612141  0.37187932  0.63302924  1
  O  O26  1  0.24222647  0.11680253  0.63219521  1
  O  O27  1  0.75793239  0.14175300  0.63763546  1
  O  O28  1  0.31223657  0.48748259  0.63888384  1
  O  O29  1  0.81754707  0.51661433  0.63237263  1
  O  O30  1  0.44073105  0.51048255  0.13487985  1
  O  O31  1  0.92754475  0.49126539  0.13664812  1
  O  O32  1  0.31854124  0.12480936  0.13298180  1
  O  O33  1  0.81236086  0.13454212  0.13875592  1
  O  O34  1  0.25556703  0.36924696  0.13936760  1
  O  O35  1  0.74370834  0.36485432  0.13293192  1
  O  O36  1  0.21659286  0.28229716  0.02967101  1
  O  O37  1  0.72708682  0.31369342  0.03039435  1
  O  O38  1  0.43022579  0.54166142  0.03254546  1
  O  O39  1  0.92206521  0.57121931  0.02775181  1
  O  O40  1  0.34595729  0.14108558  0.03118647  1
  O  O41  1  0.85559118  0.15020284  0.02895576  1
  O  O42  1  0.22631715  0.13771292  0.52946250  1
  O  O43  1  0.71784358  0.14903096  0.52777352  1
  O  O44  1  0.35308154  0.56108462  0.52888363  1
  O  O45  1  0.84567860  0.55225140  0.53040805  1
  O  O46  1  0.42358236  0.28346197  0.52564291  1
  O  O47  1  0.93282116  0.31842059  0.53066229  1
  O  O48  1  0.25864739  0.67764981  0.97130839  1
  O  O49  1  0.77107066  0.69442991  0.96921235  1
  O  O50  1  0.07658981  0.46218095  0.97065167  1
  O  O51  1  0.58022886  0.48247919  0.97165158  1
  O  O52  1  0.14899531  0.85008898  0.96715139  1
  O  O53  1  0.66366760  0.84137819  0.97236058  1
  O  O54  1  0.27276222  0.85027964  0.46757258  1
  O  O55  1  0.76034347  0.84199166  0.47037740  1
  O  O56  1  0.16314357  0.48259593  0.47120096  1
  O  O57  1  0.64961899  0.44633743  0.46642165  1
  O  O58  1  0.07906251  0.67827439  0.47003140  1
  O  O59  1  0.57558561  0.69564233  0.46940173  1
  O  O60  1  0.06370711  0.65941085  0.36678701  1
  O  O61  1  0.56908793  0.65920764  0.36667208  1
  O  O62  1  0.26216739  0.86858491  0.36449244  1
  O  O63  1  0.76773888  0.87220396  0.36714787  1
  O  O64  1  0.16929844  0.47359684  0.36761369  1
  O  O65  1  0.67352413  0.47095322  0.36375170  1
  O  O66  1  0.07008488  0.48140700  0.86766912  1
  O  O67  1  0.56342136  0.47008921  0.86870900  1
  O  O68  1  0.17326650  0.87431505  0.86462692  1
  O  O69  1  0.66945786  0.86602850  0.86855477  1
  O  O70  1  0.26759641  0.66311102  0.86817692  1
  O  O71  1  0.76135560  0.65784368  0.86602049  1
  O  O72  1  0.01965999  0.82892459  0.42168363  1
  O  O73  1  0.52014020  0.83887419  0.40780591  1
  O  O74  1  0.39984217  0.95853163  0.40736134  1
  O  O75  1  0.89637553  0.96098768  0.42303623  1
  O  O76  1  0.08449051  0.21397613  0.42245436  1
  O  O77  1  0.58199889  0.19319664  0.40594059  1
  O  O78  1  0.02131576  0.20485125  0.91074134  1
  O  O79  1  0.51930590  0.21146321  0.92425046  1
  O  O80  1  0.08128470  0.96830796  0.90629608  1
  O  O81  1  0.58350858  0.95152507  0.92516988  1
  O  O82  1  0.39578905  0.83209338  0.92471438  1
  O  O83  1  0.89934590  0.84181807  0.90917002  1
  O  O84  1  0.49896679  0.18229264  0.60050232  1
  O  O85  1  0.00140622  0.20350299  0.58713609  1
  O  O86  1  0.10146297  0.00473920  0.58739665  1
  O  O87  1  0.59217353  0.99678021  0.60261049  1
  O  O88  1  0.40711508  0.81426667  0.60703970  1
  O  O89  1  0.89883612  0.80010624  0.58795698  1
  O  O90  1  0.49815815  0.79175432  0.09022291  1
  O  O91  1  0.00034608  0.81755897  0.10443435  1
  O  O92  1  0.39867529  -0.00009674  0.08935702  1
  O  O93  1  0.90714539  -0.00010268  0.10495814  1
  O  O94  1  0.09178358  0.18377835  0.10572257  1
  O  O95  1  0.60259156  0.19656369  0.08857706  1
  O  O96  1  0.34504194  0.16884153  0.73457505  1
  O  O97  1  0.85613022  0.18066840  0.74839565  1
  O  O98  1  0.23323480  0.28214440  0.74850281  1
  O  O99  1  0.73936863  0.30153160  0.73193230  1
  O  O100  1  0.41156296  0.51856141  0.73740569  1
  O  O101  1  0.90588004  0.51371452  0.73861845  1
  O  O102  1  0.35324797  0.52611217  0.24551132  1
  O  O103  1  0.84713638  0.52563079  0.23480159  1
  O  O104  1  0.40290226  0.29372412  0.23852888  1
  O  O105  1  0.91185666  0.30033258  0.23689466  1
  O  O106  1  0.23613071  0.16866371  0.23502390  1
  O  O107  1  0.73452371  0.18623932  0.24712487  1
  O  O108  1  0.32169758  0.52275487  0.92486414  1
  O  O109  1  0.82785053  0.53330746  0.92088483  1
  O  O110  1  0.43843013  0.35947013  0.92597904  1
  O  O111  1  0.93951146  0.34849990  0.92005868  1
  O  O112  1  0.23456254  0.12732215  0.91955208  1
  O  O113  1  0.73909499  0.12101299  0.92455950  1
  O  O114  1  0.32891084  0.12563167  0.41922842  1
  O  O115  1  0.82272057  0.12248417  0.42333797  1
  O  O116  1  0.23972617  0.35873048  0.42226217  1
  O  O117  1  0.73540598  0.34111175  0.41874566  1
  O  O118  1  0.43839463  0.53273613  0.41890374  1
  O  O119  1  0.93822929  0.51873466  0.42363888  1
  O  O120  1  0.17828970  0.50580009  0.07276189  1
  O  O121  1  0.68482526  0.50143683  0.07344575  1
  O  O122  1  0.07328877  0.64211220  0.07020916  1
  O  O123  1  0.56864031  0.62910106  0.07503219  1
  O  O124  1  0.24669528  0.86796380  0.07358503  1
  O  O125  1  0.74601916  0.84530980  0.07166316  1
  O  O126  1  0.18348277  0.86492855  0.57178700  1
  O  O127  1  0.68054683  0.85277081  0.57242802  1
  O  O128  1  0.24648405  0.64616737  0.57128084  1
  O  O129  1  0.74711105  0.62837585  0.57166939  1
  O  O130  1  0.07147113  0.50664438  0.57208158  1
  O  O131  1  0.57347055  0.50672348  0.56935269  1
  O  O132  1  0.15796319  0.86460413  0.24885524  1
  O  O133  1  0.66661495  0.88276293  0.26283038  1
  O  O134  1  0.27251820  0.67008279  0.26143748  1
  O  O135  1  0.77591057  0.68752924  0.24789164  1
  O  O136  1  0.06581799  0.45300574  0.24817283  1
  O  O137  1  0.56644268  0.47310136  0.26407762  1
  O  O138  1  0.16462873  0.44876289  0.76362720  1
  O  O139  1  0.65687248  0.46778539  0.74701180  1
  O  O140  1  0.07003477  0.66515163  0.76398297  1
  O  O141  1  0.56544638  0.68040883  0.74917569  1
  O  O142  1  0.27338718  0.86502895  0.74830308  1
  O  O143  1  0.77439422  0.87567973  0.76331016  1
loop_
_geom_bond_atom_site_label_1
_geom_bond_atom_site_label_2
_geom_bond_distance
_geom_bond_site_symmetry_2
Na0 O75 2.481865 1_555
Na0 O72 2.538200 1_655
Na0 O76 2.554832 1_665
Na0 O89 2.743364 1_555
Na0 O86 2.760957 1_665
Na0 O85 2.769909 1_665
Na1 O82 2.417244 1_545
Na1 O79 2.444511 1_555
Na1 O81 2.476417 1_545
Na1 O92 2.825298 1_556
Na1 O95 2.827537 1_556
Na1 O90 2.905078 1_546
Na2 O98 2.609065 1_555
Na2 O112 2.690888 1_555
Na2 O100 2.788039 1_555
Na2 O110 2.792509 1_555
Na2 O108 2.801108 1_555
Na2 O96 2.864882 1_555
Na3 O97 2.611888 1_555
Na3 O101 2.717021 1_555
Na3 O109 2.762142 1_555
Na3 O113 2.782102 1_555
Na3 O111 2.791217 1_555
Na3 O99 2.837851 1_555
Na4 O118 2.604443 1_555
Na4 O102 2.665707 1_555
Na4 O114 2.693573 1_555
Na4 O116 2.722856 1_555
Na4 O104 2.750291 1_555
Na4 O106 2.970931 1_555
Na5 O117 2.604382 1_555
Na5 O107 2.668109 1_555
Na5 O115 2.683464 1_555
Na5 O119 2.714831 1_555
Na5 O105 2.884098 1_555
Na5 O103 2.957681 1_555
Ca0 O3 2.333077 1_555
Ca0 O5 2.348030 1_565
Ca0 O75 2.349637 1_555
Ca0 O0 2.351510 1_665
Ca0 O72 2.360415 1_655
Ca0 O76 2.397591 1_665
Ca1 O7 2.132511 1_555
Ca1 O10 2.349243 1_555
Ca1 O8 2.355498 1_545
Ca1 O79 2.443833 1_555
Ca1 O81 2.479492 1_545
Ca1 O82 2.480486 1_545
Ca2 O16 2.062791 1_655
Ca2 O13 2.242966 1_555
Ca2 O14 2.244446 1_665
Ca2 O89 2.294423 1_555
Ca2 O86 2.304429 1_665
Ca2 O85 2.319557 1_665
Ca3 O21 2.066122 1_555
Ca3 O23 2.240085 1_545
Ca3 O18 2.242470 1_545
Ca3 O95 2.290773 1_555
Ca3 O92 2.291002 1_555
Ca3 O90 2.319357 1_545
Ca4 O36 2.118240 1_556
Ca4 O40 2.231648 1_556
Ca4 O108 2.251430 1_555
Ca4 O38 2.262726 1_556
Ca4 O112 2.267779 1_555
Ca4 O110 2.328503 1_555
Ca5 O39 2.147335 1_556
Ca5 O41 2.155818 1_556
Ca5 O37 2.265162 1_556
Ca5 O111 2.273792 1_555
Ca5 O113 2.353647 1_555
Ca5 O109 2.387820 1_555
Ca6 O46 2.123524 1_555
Ca6 O44 2.133785 1_555
Ca6 O42 2.260715 1_555
Ca6 O118 2.295871 1_555
Ca6 O116 2.352426 1_555
Ca6 O114 2.434241 1_555
Ca7 O43 2.100781 1_555
Ca7 O45 2.228565 1_555
Ca7 O47 2.245240 1_555
Ca7 O115 2.274779 1_555
Ca7 O117 2.301051 1_555
Ca7 O119 2.348959 1_555
Ca8 O60 2.236626 1_555
Ca8 O134 2.260121 1_555
Ca8 O62 2.268620 1_555
Ca8 O64 2.282312 1_555
Ca8 O136 2.305804 1_555
Ca8 O132 2.320932 1_555
Ca9 O137 2.101895 1_555
Ca9 O133 2.241607 1_555
Ca9 O65 2.252118 1_555
Ca9 O61 2.271668 1_555
Ca9 O63 2.277277 1_555
Ca9 O135 2.305074 1_555
Ca10 O140 2.083836 1_555
Ca10 O138 2.237658 1_555
Ca10 O68 2.252635 1_555
Ca10 O142 2.256484 1_555
Ca10 O70 2.276977 1_555
Ca10 O66 2.291667 1_555
Ca11 O139 2.120401 1_555
Ca11 O143 2.260091 1_555
Ca11 O67 2.277133 1_555
Ca11 O141 2.278930 1_555
Ca11 O71 2.304744 1_555
Ca11 O69 2.409383 1_555
Nb0 O4 1.847784 1_555
Nb0 O77 1.978921 1_555
Nb0 O74 2.050768 1_545
Nb0 O1 2.116618 1_555
Nb0 O73 2.175383 1_545
Nb0 O2 2.219912 1_545
Nb1 O9 1.819288 1_455
Nb1 O80 2.025407 1_555
Nb1 O6 2.048226 1_565
Nb1 O11 2.120009 1_465
Nb1 O83 2.125426 1_455
Nb1 O78 2.287295 1_565
Nb2 O15 1.888400 1_555
Nb2 O84 1.891309 1_555
Nb2 O87 1.893317 1_545
Nb2 O88 1.970563 1_545
Nb2 O12 2.192413 1_555
Nb2 O17 2.220893 1_545
Nb3 O91 1.872864 1_655
Nb3 O94 1.875029 1_665
Nb3 O93 1.882021 1_565
Nb3 O19 2.117212 1_555
Nb3 O22 2.143831 1_655
Nb3 O20 2.171877 1_565
Nb4 O24 1.860277 1_555
Nb4 O28 1.885892 1_555
Nb4 O100 2.011147 1_555
Nb4 O96 2.072292 1_555
Nb4 O26 2.207027 1_555
Nb4 O98 2.336520 1_555
Nb5 O99 1.815305 1_555
Nb5 O101 1.933446 1_555
Nb5 O27 1.961885 1_555
Nb5 O97 2.168225 1_555
Nb5 O29 2.244863 1_555
Nb5 O25 2.360624 1_555
Nb6 O104 1.911605 1_555
Nb6 O34 1.954815 1_555
Nb6 O106 2.055561 1_555
Nb6 O30 2.110154 1_555
Nb6 O102 2.138816 1_555
Nb6 O32 2.161108 1_555
Nb7 O31 1.871701 1_555
Nb7 O33 1.886867 1_555
Nb7 O105 2.068742 1_555
Nb7 O103 2.111472 1_555
Nb7 O35 2.115470 1_555
Nb7 O107 2.269725 1_555
Nb8 O120 1.864813 1_555
Nb8 O122 1.899468 1_555
Nb8 O50 2.051341 1_554
Nb8 O48 2.067501 1_554
Nb8 O124 2.147249 1_555
Nb8 O52 2.368788 1_554
Nb9 O125 1.887096 1_555
Nb9 O53 1.957427 1_554
Nb9 O51 2.053203 1_554
Nb9 O49 2.101693 1_554
Nb9 O121 2.107177 1_555
Nb9 O123 2.123482 1_555
Nb10 O128 1.849859 1_555
Nb10 O130 1.984442 1_555
Nb10 O56 2.033442 1_555
Nb10 O126 2.036819 1_555
Nb10 O58 2.129607 1_555
Nb10 O54 2.218811 1_555
Nb11 O127 1.836982 1_555
Nb11 O131 1.873417 1_555
Nb11 O129 2.052655 1_555
Nb11 O55 2.107367 1_555
Nb11 O59 2.168367 1_555
Nb11 O57 2.419591 1_555
O0 S0 1.464077 1_555
O1 S1 1.541274 1_555
O2 S2 1.515219 1_555
O3 S3 1.468166 1_555
O4 Si0 1.800495 1_555
O5 S4 1.463558 1_555
O6 S5 1.566127 1_555
O7 Si1 1.588694 1_555
O8 S6 1.463223 1_555
O9 Si2 1.853724 1_555
O10 S7 1.471376 1_555
O11 S8 1.541840 1_555
O12 S7 1.467146 1_555
O13 S8 1.441976 1_565
O14 S5 1.448887 1_555
O15 Si1 1.658350 1_555
O16 Si2 1.556234 1_455
O17 S6 1.455561 1_555
O18 S2 1.447928 1_555
O19 S3 1.489061 1_555
O20 S4 1.477000 1_555
O21 Si0 1.557496 1_555
O22 S0 1.478733 1_565
O23 S1 1.451030 1_565
O24 Si3 1.718585 1_555
O25 S9 1.476000 1_555
O26 S10 1.505578 1_555
O27 Si4 1.662387 1_555
O28 Si5 1.711938 1_555
O29 S11 1.495864 1_555
O30 S12 1.539296 1_555
O31 Si6 1.718727 1_555
O32 S13 1.531375 1_555
O33 Si7 1.706628 1_555
O34 Si8 1.673849 1_555
O35 S14 1.533072 1_555
O36 Si8 1.553707 1_555
O37 S14 1.439464 1_555
O38 S12 1.443898 1_555
O39 Si6 1.550237 1_555
O40 S13 1.447003 1_555
O41 Si7 1.551669 1_555
O42 S10 1.444910 1_555
O43 Si4 1.557263 1_555
O44 Si5 1.557471 1_555
O45 S11 1.449750 1_555
O46 Si3 1.551164 1_555
O47 S9 1.449252 1_555
O48 S15 1.554880 1_555
O49 S16 1.543451 1_555
O50 S17 1.572934 1_555
O51 S18 1.562629 1_555
O52 S19 1.487513 1_555
O53 S20 1.605758 1_555
O54 S21 1.502345 1_555
O55 S22 1.533340 1_555
O56 S23 1.555515 1_555
O57 S24 1.472236 1_555
O58 S25 1.529998 1_555
O59 S26 1.528452 1_555
O60 S25 1.463136 1_555
O61 S26 1.443501 1_555
O62 S21 1.454826 1_555
O63 S22 1.451899 1_555
O64 S23 1.456119 1_555
O65 S24 1.445997 1_555
O66 S17 1.435555 1_555
O67 S18 1.450194 1_555
O68 S19 1.439063 1_555
O69 S20 1.445683 1_555
O70 S15 1.444330 1_555
O71 S16 1.445886 1_555
O72 S25 1.484426 1_555
O73 S26 1.518975 1_555
O74 S21 1.554594 1_555
O75 S22 1.486517 1_555
O76 S23 1.479589 1_555
O77 S24 1.580067 1_555
O78 S17 1.492805 1_555
O79 S18 1.474306 1_555
O80 S19 1.563337 1_555
O81 S20 1.470054 1_555
O82 S15 1.477861 1_555
O83 S16 1.528241 1_555
O84 Si3 1.624341 1_555
O85 S9 1.460842 1_455
O86 S10 1.457761 1_555
O87 Si4 1.640245 1_565
O88 Si5 1.608701 1_555
O89 S11 1.463419 1_555
O90 S12 1.457273 1_555
O91 Si6 1.651632 1_455
O92 S13 1.461843 1_555
O93 Si7 1.649892 1_555
O94 Si8 1.659155 1_555
O95 S14 1.458602 1_555
O96 S7 1.544445 1_555
O97 S8 1.528672 1_555
O98 S5 1.509279 1_555
O99 Si1 1.739257 1_555
O100 S6 1.580259 1_555
O101 Si2 1.679345 1_555
O102 S2 1.551620 1_555
O103 S3 1.527712 1_555
O104 Si0 1.721421 1_555
O105 S4 1.550093 1_555
O106 S0 1.534581 1_555
O107 S1 1.527402 1_555
O108 S15 1.469249 1_555
O109 S16 1.453304 1_555
O110 S18 1.466874 1_555
O111 S17 1.464653 1_655
O112 S19 1.467576 1_545
O113 S20 1.456455 1_545
O114 S21 1.456139 1_545
O115 S22 1.470392 1_545
O116 S23 1.462726 1_555
O117 S24 1.462902 1_555
O118 S26 1.468089 1_555
O119 S25 1.469487 1_655
O120 Si8 1.696840 1_555
O121 S14 1.516166 1_555
O122 Si6 1.661122 1_455
O123 S12 1.515589 1_555
O124 S13 1.514709 1_565
O125 Si7 1.678951 1_565
O126 S10 1.538681 1_565
O127 Si4 1.713521 1_565
O128 Si5 1.713766 1_555
O129 S11 1.539253 1_555
O130 S9 1.563165 1_455
O131 Si3 1.674787 1_555
O132 S0 1.451862 1_565
O133 S1 1.436897 1_565
O134 S2 1.445530 1_555
O135 S3 1.444512 1_555
O136 S4 1.452329 1_455
O137 Si0 1.551923 1_555
O138 S5 1.432769 1_555
O139 Si1 1.572372 1_555
O140 Si2 1.547791 1_455
O141 S6 1.450069 1_555
O142 S7 1.447415 1_565
O143 S8 1.441985 1_565
