# generated using pymatgen
data_HoCuSb2
_symmetry_space_group_name_H-M   'P 1'
_cell_length_a   4.28493717
_cell_length_b   4.28493717
_cell_length_c   9.79747672
_cell_angle_alpha   90.00000000
_cell_angle_beta   90.00000000
_cell_angle_gamma   90.00000000
_symmetry_Int_Tables_number   1
_chemical_formula_structural   HoCuSb2
_chemical_formula_sum   'Ho2 Cu2 Sb4'
_cell_volume   179.88839905
_cell_formula_units_Z   2
loop_
 _symmetry_equiv_pos_site_id
 _symmetry_equiv_pos_as_xyz
  1  'x, y, z'
loop_
 _atom_site_type_symbol
 _atom_site_label
 _atom_site_symmetry_multiplicity
 _atom_site_fract_x
 _atom_site_fract_y
 _atom_site_fract_z
 _atom_site_occupancy
  Ho  Ho0  1  0.75000000  0.75000000  0.75253302  1
  Ho  Ho1  1  0.25000000  0.25000000  0.24746698  1
  Cu  Cu0  1  0.75000000  0.25000000  0.50000000  1
  Cu  Cu1  1  0.25000000  0.75000000  0.50000000  1
  Sb  Sb0  1  0.75000000  0.75000000  0.34168045  1
  Sb  Sb1  1  0.25000000  0.25000000  0.65831955  1
  Sb  Sb2  1  0.75000000  0.25000000  0.00000000  1
  Sb  Sb3  1  0.25000000  0.75000000  0.00000000  1
loop_
_geom_bond_atom_site_label_1
_geom_bond_atom_site_label_2
_geom_bond_distance
_geom_bond_site_symmetry_2
Ho0 Sb1 3.167392 1_665
Ho0 Sb1 3.167392 1_655
Ho0 Sb1 3.167392 1_565
Ho0 Sb1 3.167392 1_555
Ho0 Sb2 3.235525 1_556
Ho0 Sb3 3.235525 1_556
Ho0 Sb3 3.235525 1_656
Ho0 Sb2 3.235525 1_566
Ho1 Sb0 3.167392 1_555
Ho1 Sb0 3.167392 1_545
Ho1 Sb0 3.167392 1_445
Ho1 Sb0 3.167392 1_455
Ho1 Sb2 3.235525 1_455
Ho1 Sb2 3.235525 1_555
Ho1 Sb3 3.235525 1_545
Ho1 Sb3 3.235525 1_555
Cu0 Sb0 2.645030 1_545
Cu0 Sb1 2.645030 1_655
Cu0 Sb1 2.645030 1_555
Cu0 Sb0 2.645030 1_555
Cu0 Cu1 3.029908 1_655
Cu0 Cu1 3.029908 1_555
Cu0 Cu1 3.029908 1_545
Cu0 Cu1 3.029908 1_645
Cu0 Ho0 3.272884 1_555
Cu0 Ho0 3.272884 1_545
Cu0 Ho1 3.272884 1_655
Cu0 Ho1 3.272884 1_555
Cu1 Sb1 2.645030 1_565
Cu1 Sb1 2.645030 1_555
Cu1 Sb0 2.645030 1_455
Cu1 Sb0 2.645030 1_555
Cu1 Ho0 3.272884 1_555
Cu1 Ho1 3.272884 1_565
Cu1 Ho0 3.272884 1_455
Cu1 Ho1 3.272884 1_555
Sb2 Sb3 3.029908 1_655
Sb2 Sb3 3.029908 1_645
Sb2 Sb3 3.029908 1_545
Sb2 Sb3 3.029908 1_555
