# generated using pymatgen
data_MgV6O5F19
_symmetry_space_group_name_H-M   'P 1'
_cell_length_a   5.46218817
_cell_length_b   5.25410700
_cell_length_c   15.53103564
_cell_angle_alpha   90.08746205
_cell_angle_beta   99.99894590
_cell_angle_gamma   90.16781084
_symmetry_Int_Tables_number   1
_chemical_formula_structural   MgV6O5F19
_chemical_formula_sum   'Mg1 V6 O5 F19'
_cell_volume   438.95102187
_cell_formula_units_Z   1
loop_
 _symmetry_equiv_pos_site_id
 _symmetry_equiv_pos_as_xyz
  1  'x, y, z'
loop_
 _atom_site_type_symbol
 _atom_site_label
 _atom_site_symmetry_multiplicity
 _atom_site_fract_x
 _atom_site_fract_y
 _atom_site_fract_z
 _atom_site_occupancy
  Mg  Mg0  1  0.03698400  0.97377800  0.23381100  1
  V  V0  1  0.99059200  0.98822200  0.99363400  1
  V  V1  1  0.15593600  0.45816300  0.33805300  1
  V  V2  1  0.27823700  0.02525800  0.66458800  1
  V  V3  1  0.46473300  0.47149300  0.99600700  1
  V  V4  1  0.64316500  0.01606800  0.34020700  1
  V  V5  1  0.77891100  0.48084500  0.66472700  1
  O  O0  1  0.03004100  0.20911400  0.64284100  1
  O  O1  1  0.21667800  0.28322300  0.97919600  1
  O  O2  1  0.33782700  0.18163100  0.30554700  1
  O  O3  1  0.53045300  0.29526900  0.64335200  1
  O  O4  1  0.87725400  0.28799500  0.31237900  1
  F  F0  1  0.14251300  0.72652900  0.69231700  1
  F  F1  1  0.04656300  0.08023600  0.11543500  1
  F  F2  1  0.23469400  0.42918300  0.45216100  1
  F  F3  1  0.39568600  0.09363300  0.77589000  1
  F  F4  1  0.13100600  0.61589900  0.22459000  1
  F  F5  1  0.31404300  0.91693100  0.55942200  1
  F  F6  1  0.46629400  0.59140500  0.88964000  1
  F  F7  1  0.69647600  0.21528600  0.97434600  1
  F  F8  1  0.29701900  0.77428700  0.02222800  1
  F  F9  1  0.47116000  0.70377100  0.35535000  1
  F  F10  1  0.64324800  0.77868200  0.69234700  1
  F  F11  1  0.56535700  0.42720500  0.11022100  1
  F  F12  1  0.71350200  0.08145600  0.45240600  1
  F  F13  1  0.89796500  0.41303300  0.77577600  1
  F  F14  1  0.66537100  0.92412400  0.22329200  1
  F  F15  1  0.81452500  0.58631600  0.55929800  1
  F  F16  1  0.96061500  0.91897900  0.88103600  1
  F  F17  1  0.79666400  0.71272100  0.02122900  1
  F  F18  1  0.97791600  0.80176700  0.35421300  1
loop_
_geom_bond_atom_site_label_1
_geom_bond_atom_site_label_2
_geom_bond_distance
_geom_bond_site_symmetry_2
Mg0 O2 2.117605 1_565
Mg0 O4 2.312523 1_465
O0 V2 1.653722 1_555
O0 V5 2.051194 1_455
O1 V3 1.658613 1_555
O1 V0 2.015869 1_445
O2 V4 1.877828 1_555
O2 V1 1.879724 1_555
O3 V5 1.654539 1_555
O3 V2 2.041343 1_555
O4 V1 1.748048 1_655
O4 V4 2.011487 1_555
F0 V2 1.817879 1_565
F0 V5 2.341392 1_455
F1 V0 1.923854 1_444
F1 Mg0 1.931855 1_545
F2 V1 1.756546 1_555
F3 V2 1.772132 1_555
F4 V1 1.931973 1_555
F4 Mg0 1.962216 1_555
F5 V2 1.771646 1_565
F6 V3 1.770344 1_555
F7 V3 1.919389 1_555
F7 V0 1.984723 1_545
F8 V3 1.916290 1_554
F8 V0 2.004141 1_454
F9 V4 1.923346 1_565
F9 V1 2.127762 1_555
F10 V5 1.815780 1_555
F10 V2 2.357478 1_565
F11 V3 1.779400 1_554
F12 V4 1.751310 1_555
F13 V5 1.771495 1_555
F14 V4 1.902472 1_565
F14 Mg0 2.023990 1_655
F15 V5 1.771675 1_555
F16 V0 1.765111 1_555
F17 V0 1.884566 1_554
F17 V3 2.187569 1_554
F18 V1 2.088393 1_655
F18 V4 2.129109 1_565
F18 Mg0 2.151890 1_655
