# generated using pymatgen
data_Na3MgMn2SbO6
_symmetry_space_group_name_H-M   'P 1'
_cell_length_a   6.59280236
_cell_length_b   6.21592549
_cell_length_c   5.63765385
_cell_angle_alpha   86.76514319
_cell_angle_beta   83.89180337
_cell_angle_gamma   57.97323057
_symmetry_Int_Tables_number   1
_chemical_formula_structural   Na3MgMn2SbO6
_chemical_formula_sum   'Na3 Mg1 Mn2 Sb1 O6'
_cell_volume   194.75797848
_cell_formula_units_Z   1
loop_
 _symmetry_equiv_pos_site_id
 _symmetry_equiv_pos_as_xyz
  1  'x, y, z'
loop_
 _atom_site_type_symbol
 _atom_site_label
 _atom_site_symmetry_multiplicity
 _atom_site_fract_x
 _atom_site_fract_y
 _atom_site_fract_z
 _atom_site_occupancy
  Na  Na0  1  0.59380849  -0.00000000  0.53586517  1
  Na  Na1  1  0.28396377  0.54285054  0.52376934  1
  Na  Na2  1  0.82681631  0.45714946  0.52376934  1
  Mg  Mg0  1  0.19617814  -0.00000000  0.60594543  1
  Mn  Mn0  1  0.20506166  0.31656758  0.05619092  1
  Mn  Mn1  1  0.52162924  0.68343242  0.05619092  1
  Sb  Sb0  1  0.86379001  -0.00000000  0.06005328  1
  O  O0  1  0.17833064  0.29821686  0.71144092  1
  O  O1  1  0.26634663  -0.00000000  0.25614563  1
  O  O2  1  0.89182211  -0.00000000  0.70469656  1
  O  O3  1  0.47654750  0.70178314  0.71144092  1
  O  O4  1  0.52515431  0.31206388  0.15328728  1
  O  O5  1  0.83721818  0.68793612  0.15328728  1
loop_
_geom_bond_atom_site_label_1
_geom_bond_atom_site_label_2
_geom_bond_distance
_geom_bond_site_symmetry_2
Na0 O2 2.272475 1_555
Na0 O0 2.482663 1_555
Na0 O3 2.482663 1_545
Na0 O5 2.724682 1_545
Na0 O4 2.724682 1_555
Na0 O1 2.805733 1_555
Na1 O0 2.168303 1_555
Na1 O3 2.332737 1_555
Na1 O4 2.482101 1_555
Na1 O2 2.788017 1_465
Na2 O3 2.168312 1_555
Na2 O0 2.332726 1_655
Na2 O5 2.482098 1_555
Na2 O2 2.788021 1_555
Mg0 O3 1.918838 1_545
Mg0 O0 1.918838 1_555
Mg0 O1 1.977079 1_555
Mg0 O2 2.024472 1_455
Mn0 O0 1.985148 1_554
Mn0 O1 2.075911 1_555
Mn0 O4 2.221547 1_555
Mn0 O5 2.330684 1_455
Mn1 O3 1.985148 1_554
Mn1 O1 2.075911 1_565
Mn1 O5 2.221547 1_555
Mn1 O4 2.330684 1_555
O2 Sb0 1.992206 1_556
O4 Sb0 2.072537 1_555
O5 Sb0 2.072537 1_565
