# generated using pymatgen
data_Ba2Tl2Sn3O10
_symmetry_space_group_name_H-M   'P 1'
_cell_length_a   3.88206753
_cell_length_b   3.91946177
_cell_length_c   18.88461996
_cell_angle_alpha   89.55972144
_cell_angle_beta   89.97256707
_cell_angle_gamma   90.00006327
_symmetry_Int_Tables_number   1
_chemical_formula_structural   Ba2Tl2Sn3O10
_chemical_formula_sum   'Ba2 Tl2 Sn3 O10'
_cell_volume   287.33259575
_cell_formula_units_Z   1
loop_
 _symmetry_equiv_pos_site_id
 _symmetry_equiv_pos_as_xyz
  1  'x, y, z'
loop_
 _atom_site_type_symbol
 _atom_site_label
 _atom_site_symmetry_multiplicity
 _atom_site_fract_x
 _atom_site_fract_y
 _atom_site_fract_z
 _atom_site_occupancy
  Ba  Ba0  1  0.20640364  0.22500765  0.70607924  1
  Ba  Ba1  1  0.70735062  0.74736009  0.29472829  1
  Tl  Tl0  1  0.70610711  0.69607574  0.56082779  1
  Tl  Tl1  1  0.20688863  0.20266325  0.44013953  1
  Sn  Sn0  1  0.20778798  0.25138110  0.16234213  1
  Sn  Sn1  1  0.70630962  0.71993654  0.83838508  1
  Sn  Sn2  1  0.70796670  0.22543744  0.99969873  1
  O  O0  1  0.70769221  0.25058389  0.19235732  1
  O  O1  1  0.20724997  0.25283378  0.33094024  1
  O  O2  1  0.20762169  0.75018782  0.19250461  1
  O  O3  1  0.70676438  0.84730593  0.45252242  1
  O  O4  1  0.70672659  0.71708141  0.94571809  1
  O  O5  1  0.70627008  0.22085924  0.81036884  1
  O  O6  1  0.70646540  0.73251351  0.67017484  1
  O  O7  1  0.20639045  0.72058485  0.80655603  1
  O  O8  1  0.20640298  0.34191686  0.54860551  1
  O  O9  1  0.20830696  0.24873789  0.05499430  1
loop_
_geom_bond_atom_site_label_1
_geom_bond_atom_site_label_2
_geom_bond_distance
_geom_bond_site_symmetry_2
Ba0 O7 2.725788 1_555
Ba0 O7 2.729746 1_545
Ba0 O5 2.764877 1_455
Ba0 O5 2.765473 1_555
Ba0 O6 2.823694 1_545
Ba0 O6 2.823808 1_445
Ba0 O6 2.857097 1_555
Ba0 O6 2.857215 1_455
Ba0 O8 3.005445 1_555
Ba1 O2 2.737438 1_555
Ba1 O2 2.737619 1_655
Ba1 O0 2.751188 1_565
Ba1 O0 2.754348 1_555
Ba1 O1 2.823397 1_655
Ba1 O1 2.823481 1_555
Ba1 O1 2.860231 1_665
Ba1 O1 2.860320 1_565
Ba1 O3 3.008503 1_555
O0 Sn0 2.022003 1_555
O0 Sn0 2.022196 1_655
O1 Tl1 2.070036 1_555
O2 Sn0 2.040540 1_555
O2 Sn0 2.041116 1_565
O3 Tl0 2.125085 1_555
O3 Tl1 2.399120 1_565
O3 Tl1 2.399717 1_665
O4 Sn1 2.026889 1_555
O4 Sn2 2.173079 1_555
O4 Sn2 2.245086 1_565
O5 Sn1 2.029456 1_545
O5 Sn1 2.030323 1_555
O6 Tl0 2.071006 1_555
O7 Sn1 2.031943 1_555
O7 Sn1 2.031992 1_455
O8 Tl1 2.123857 1_555
O8 Tl0 2.397630 1_555
O8 Tl0 2.399313 1_455
O9 Sn0 2.027329 1_555
O9 Sn2 2.204718 1_554
O9 Sn2 2.207922 1_454
