# generated using pymatgen
data_GePtSe
_symmetry_space_group_name_H-M   'P 1'
_cell_length_a   6.02894882
_cell_length_b   6.05269499
_cell_length_c   6.11051989
_cell_angle_alpha   90.00000000
_cell_angle_beta   90.00000000
_cell_angle_gamma   90.00000000
_symmetry_Int_Tables_number   1
_chemical_formula_structural   GePtSe
_chemical_formula_sum   'Ge4 Pt4 Se4'
_cell_volume   222.98135413
_cell_formula_units_Z   4
loop_
 _symmetry_equiv_pos_site_id
 _symmetry_equiv_pos_as_xyz
  1  'x, y, z'
loop_
 _atom_site_type_symbol
 _atom_site_label
 _atom_site_symmetry_multiplicity
 _atom_site_fract_x
 _atom_site_fract_y
 _atom_site_fract_z
 _atom_site_occupancy
  Ge  Ge0  1  0.88147527  0.88247616  0.37477802  1
  Ge  Ge1  1  0.88147527  0.38247616  0.62522198  1
  Ge  Ge2  1  0.38147527  0.61752384  0.37477802  1
  Ge  Ge3  1  0.38147527  0.11752484  0.62522198  1
  Pt  Pt0  1  0.00253165  0.50935953  0.26019834  1
  Pt  Pt1  1  0.50253165  0.49064047  0.73980166  1
  Pt  Pt2  1  0.50253165  0.99064047  0.26019834  1
  Pt  Pt3  1  0.00253165  0.00935953  0.73980166  1
  Se  Se0  1  0.11409208  0.61668083  0.86326167  1
  Se  Se1  1  0.11409208  0.11668083  0.13673833  1
  Se  Se2  1  0.61409208  0.88331917  0.86326167  1
  Se  Se3  1  0.61409208  0.38331917  0.13673833  1
loop_
_geom_bond_atom_site_label_1
_geom_bond_atom_site_label_2
_geom_bond_distance
_geom_bond_site_symmetry_2
Ge0 Se1 2.468204 1_665
Ge0 Pt3 2.469318 1_665
Ge0 Pt0 2.474482 1_655
Ge0 Pt2 2.477570 1_555
Ge1 Se0 2.468204 1_655
Ge1 Pt0 2.469318 1_655
Ge1 Pt3 2.474482 1_655
Ge1 Pt1 2.477570 1_555
Ge2 Se3 2.468204 1_555
Ge2 Pt1 2.469318 1_555
Ge2 Pt2 2.474482 1_555
Ge2 Pt0 2.477570 1_555
Ge3 Se2 2.468208 1_545
Ge3 Pt2 2.469320 1_545
Ge3 Pt1 2.474477 1_555
Ge3 Pt3 2.477572 1_555
Pt0 Se3 2.575952 1_455
Pt0 Se1 2.582734 1_555
Pt0 Se0 2.599488 1_554
Pt1 Se0 2.575952 1_555
Pt1 Se2 2.582734 1_555
Pt1 Se3 2.599488 1_556
Pt2 Se1 2.575952 1_565
Pt2 Se3 2.582734 1_565
Pt2 Se2 2.599488 1_554
Pt3 Se2 2.575952 1_445
Pt3 Se0 2.582734 1_545
Pt3 Se1 2.599488 1_556
