# generated using pymatgen
data_CuO
_symmetry_space_group_name_H-M   'P 1'
_cell_length_a   6.47320517
_cell_length_b   6.47320517
_cell_length_c   6.47320517
_cell_angle_alpha   94.62169353
_cell_angle_beta   94.62169353
_cell_angle_gamma   147.01860258
_symmetry_Int_Tables_number   1
_chemical_formula_structural   CuO
_chemical_formula_sum   'Cu4 O4'
_cell_volume   141.58182880
_cell_formula_units_Z   4
loop_
 _symmetry_equiv_pos_site_id
 _symmetry_equiv_pos_as_xyz
  1  'x, y, z'
loop_
 _atom_site_type_symbol
 _atom_site_label
 _atom_site_symmetry_multiplicity
 _atom_site_fract_x
 _atom_site_fract_y
 _atom_site_fract_z
 _atom_site_occupancy
  Cu  Cu0  1  0.16737400  0.16737400  0.33474800  1
  Cu  Cu1  1  0.83262600  0.16737400  0.00000000  1
  Cu  Cu2  1  0.16737400  0.83262600  0.00000000  1
  Cu  Cu3  1  0.83262600  0.83262600  0.66525200  1
  O  O0  1  0.27340600  0.00000000  0.27340600  1
  O  O1  1  0.00000000  0.27340600  0.27340600  1
  O  O2  1  0.00000000  0.72659400  0.72659400  1
  O  O3  1  0.72659400  0.00000000  0.72659400  1
loop_
_geom_bond_atom_site_label_1
_geom_bond_atom_site_label_2
_geom_bond_distance
_geom_bond_site_symmetry_2
Cu0 O0 1.739201 1_555
Cu0 O1 1.739201 1_555
Cu1 O1 1.739201 1_655
Cu1 O3 1.739201 1_554
Cu2 O0 1.739201 1_565
Cu2 O2 1.739201 1_554
Cu3 O2 1.739201 1_655
Cu3 O3 1.739201 1_565
