# generated using pymatgen
data_NaZrNbSi2SO12
_symmetry_space_group_name_H-M   'P 1'
_cell_length_a   8.99021750
_cell_length_b   8.98459377
_cell_length_c   23.26865118
_cell_angle_alpha   89.90694947
_cell_angle_beta   90.00000000
_cell_angle_gamma   120.02070777
_symmetry_Int_Tables_number   1
_chemical_formula_structural   NaZrNbSi2SO12
_chemical_formula_sum   'Na6 Zr6 Nb6 Si12 S6 O72'
_cell_volume   1627.34285488
_cell_formula_units_Z   6
loop_
 _symmetry_equiv_pos_site_id
 _symmetry_equiv_pos_as_xyz
  1  'x, y, z'
loop_
 _atom_site_type_symbol
 _atom_site_label
 _atom_site_symmetry_multiplicity
 _atom_site_fract_x
 _atom_site_fract_y
 _atom_site_fract_z
 _atom_site_occupancy
  Na  Na0  1  0.01154492  0.00683293  0.49867797  1
  Na  Na1  1  0.99528801  0.00683293  0.99867797  1
  Na  Na2  1  0.67821192  0.34016593  0.83201097  1
  Na  Na3  1  0.66195501  0.34016593  0.33201097  1
  Na  Na4  1  0.34487792  0.67349993  0.16534497  1
  Na  Na5  1  0.32862101  0.67349993  0.66534497  1
  Zr  Zr0  1  0.01098656  0.99200493  0.35413220  1
  Zr  Zr1  1  0.98101836  0.99200493  0.85413220  1
  Zr  Zr2  1  0.67765356  0.32533793  0.68746520  1
  Zr  Zr3  1  0.64768536  0.32533793  0.18746520  1
  Zr  Zr4  1  0.34431956  0.65867193  0.02079920  1
  Zr  Zr5  1  0.31435136  0.65867193  0.52079920  1
  Nb  Nb0  1  0.99689924  0.99257094  0.64539958  1
  Nb  Nb1  1  0.99567170  0.99257094  0.14539958  1
  Nb  Nb2  1  0.66356624  0.32590394  0.97873258  1
  Nb  Nb3  1  0.66233870  0.32590394  0.47873258  1
  Nb  Nb4  1  0.33023224  0.65923794  0.31206658  1
  Nb  Nb5  1  0.32900470  0.65923794  0.81206658  1
  Si  Si0  1  0.28805710  0.99432059  0.24964846  1
  Si  Si1  1  0.71036999  0.71020261  0.25096079  1
  Si  Si2  1  -0.00016738  0.71020261  0.75096079  1
  Si  Si3  1  0.70626349  0.99432059  0.74964846  1
  Si  Si4  1  0.95472410  0.32765359  0.58298146  1
  Si  Si5  1  0.37703699  0.04353561  0.58429379  1
  Si  Si6  1  0.66649962  0.04353561  0.08429379  1
  Si  Si7  1  0.37293049  0.32765359  0.08298146  1
  Si  Si8  1  0.62139010  0.66098759  0.91631546  1
  Si  Si9  1  0.04370299  0.37686961  0.91762779  1
  Si  Si10  1  0.33316562  0.37686961  0.41762779  1
  Si  Si11  1  0.03959649  0.66098759  0.41631546  1
  S  S0  1  0.00068914  0.28848616  0.24968476  1
  S  S1  1  0.28779702  0.28848616  0.74968476  1
  S  S2  1  0.66735614  0.62181916  0.58301776  1
  S  S3  1  0.95446402  0.62181916  0.08301776  1
  S  S4  1  0.33402214  0.95515316  0.91635176  1
  S  S5  1  0.62113002  0.95515316  0.41635176  1
  O  O0  1  0.20474805  0.03059640  0.30539009  1
  O  O1  1  0.82423481  0.80593818  0.30635796  1
  O  O2  1  0.97475125  0.18660241  0.30199485  1
  O  O3  1  0.21185115  0.18660241  0.80199485  1
  O  O4  1  0.98170337  0.80593818  0.80635796  1
  O  O5  1  0.82584835  0.03059640  0.80539009  1
  O  O6  1  0.80799893  0.97182534  0.69329473  1
  O  O7  1  0.17965968  0.20972406  0.69765291  1
  O  O8  1  0.02989619  0.83564622  0.69318718  1
  O  O9  1  0.80575003  0.83564622  0.19318718  1
  O  O10  1  0.03006437  0.20972406  0.19765291  1
  O  O11  1  0.16382641  0.97182534  0.19329473  1
  O  O12  1  0.87141505  0.36392940  0.63872309  1
  O  O13  1  0.49090181  0.13927118  0.63969096  1
  O  O14  1  0.64141825  0.51993541  0.63532785  1
  O  O15  1  0.87851815  0.51993541  0.13532785  1
  O  O16  1  0.64837037  0.13927118  0.13969096  1
  O  O17  1  0.49251535  0.36392940  0.13872309  1
  O  O18  1  0.47466593  0.30515834  0.02662773  1
  O  O19  1  0.84632668  0.54305706  0.03098591  1
  O  O20  1  0.69656319  0.16897922  0.02652018  1
  O  O21  1  0.47241703  0.16897922  0.52652018  1
  O  O22  1  0.69673137  0.54305706  0.53098591  1
  O  O23  1  0.83049341  0.30515834  0.52662773  1
  O  O24  1  0.53808105  0.69726340  0.97205709  1
  O  O25  1  0.15756781  0.47260518  0.97302496  1
  O  O26  1  0.30808425  0.85326941  0.96866185  1
  O  O27  1  0.54518415  0.85326941  0.46866185  1
  O  O28  1  0.31503637  0.47260518  0.47302496  1
  O  O29  1  0.15918135  0.69726340  0.47205709  1
  O  O30  1  0.14133193  0.63849234  0.35996173  1
  O  O31  1  0.51299268  0.87639106  0.36431991  1
  O  O32  1  0.36322919  0.50231322  0.35985418  1
  O  O33  1  0.13908303  0.50231322  0.85985418  1
  O  O34  1  0.36339737  0.87639106  0.86431991  1
  O  O35  1  0.49715941  0.63849234  0.85996173  1
  O  O36  1  0.01358429  0.82650812  0.41142182  1
  O  O37  1  0.79445364  0.98160363  0.40930661  1
  O  O38  1  0.16281391  0.19167578  0.40974492  1
  O  O39  1  0.02886187  0.19167578  0.90974492  1
  O  O40  1  0.18714999  0.98160363  0.90930661  1
  O  O41  1  0.81292383  0.82650812  0.91142182  1
  O  O42  1  0.97102995  0.15419013  0.59214483  1
  O  O43  1  0.18421750  0.02499415  0.59244686  1
  O  O44  1  0.82772813  0.79627743  0.58855348  1
  O  O45  1  0.96854930  0.79627743  0.08855348  1
  O  O46  1  0.84077665  0.02499415  0.09244686  1
  O  O47  1  0.18316019  0.15419013  0.09214483  1
  O  O48  1  0.68025129  0.15984112  0.74475482  1
  O  O49  1  0.46112064  0.31493663  0.74263961  1
  O  O50  1  0.82948091  0.52500878  0.74307792  1
  O  O51  1  0.69552887  0.52500878  0.24307792  1
  O  O52  1  0.85381699  0.31493663  0.24263961  1
  O  O53  1  0.47959083  0.15984112  0.24475482  1
  O  O54  1  0.63769695  0.48752313  0.92547783  1
  O  O55  1  0.85088450  0.35832715  0.92577986  1
  O  O56  1  0.49439513  0.12961043  0.92188648  1
  O  O57  1  0.63521630  0.12961043  0.42188648  1
  O  O58  1  0.50744365  0.35832715  0.42577986  1
  O  O59  1  0.84982719  0.48752313  0.42547783  1
  O  O60  1  0.34691729  0.49317512  0.07808882  1
  O  O61  1  0.12778664  0.64827063  0.07597361  1
  O  O62  1  0.49614691  0.85834278  0.07641192  1
  O  O63  1  0.36219487  0.85834278  0.57641192  1
  O  O64  1  0.52048299  0.64827063  0.57597361  1
  O  O65  1  0.14625683  0.49317512  0.57808882  1
  O  O66  1  0.30436295  0.82085713  0.25881183  1
  O  O67  1  0.51755050  0.69166115  0.25911386  1
  O  O68  1  0.16106113  0.46294443  0.25522048  1
  O  O69  1  0.30188230  0.46294443  0.75522048  1
  O  O70  1  0.17410965  0.69166115  0.75911386  1
  O  O71  1  0.51649319  0.82085713  0.75881183  1
loop_
_geom_bond_atom_site_label_1
_geom_bond_atom_site_label_2
_geom_bond_distance
_geom_bond_site_symmetry_2
Na0 O38 2.572669 1_555
Na0 O36 2.605353 1_545
Na0 O43 2.635287 1_555
Na0 O42 2.665961 1_455
Na0 O44 2.746288 1_445
Na0 O37 2.782785 1_445
Na1 O39 2.572669 1_655
Na1 O41 2.605353 1_545
Na1 O46 2.635287 1_556
Na1 O47 2.665961 1_656
Na1 O45 2.746288 1_546
Na1 O40 2.782785 1_645
Na2 O50 2.572669 1_555
Na2 O48 2.605353 1_555
Na2 O55 2.635287 1_555
Na2 O54 2.665961 1_555
Na2 O56 2.746288 1_555
Na2 O49 2.782785 1_555
Na3 O51 2.572669 1_555
Na3 O53 2.605353 1_555
Na3 O58 2.635287 1_555
Na3 O59 2.665961 1_555
Na3 O57 2.746288 1_555
Na3 O52 2.782785 1_555
Na4 O62 2.572669 1_555
Na4 O60 2.605353 1_555
Na4 O67 2.635287 1_555
Na4 O66 2.665961 1_555
Na4 O68 2.746288 1_555
Na4 O61 2.782785 1_555
Na5 O63 2.572669 1_555
Na5 O65 2.605353 1_555
Na5 O70 2.635287 1_555
Na5 O71 2.665961 1_555
Na5 O69 2.746288 1_555
Na5 O64 2.782785 1_555
Nb0 O8 1.930205 1_655
Nb0 O6 1.960462 1_555
Nb0 O43 1.986691 1_665
Nb0 O42 2.007547 1_565
Nb0 O44 2.120542 1_555
Nb0 O7 2.187357 1_665
Nb1 O9 1.930205 1_555
Nb1 O11 1.960462 1_655
Nb1 O46 1.986691 1_565
Nb1 O47 2.007547 1_665
Nb1 O45 2.120542 1_555
Nb1 O10 2.187357 1_665
Nb2 O20 1.930205 1_556
Nb2 O18 1.960462 1_556
Nb2 O55 1.986691 1_555
Nb2 O54 2.007547 1_555
Nb2 O56 2.120542 1_555
Nb2 O19 2.187357 1_556
Nb3 O21 1.930205 1_555
Nb3 O23 1.960462 1_555
Nb3 O58 1.986691 1_555
Nb3 O59 2.007547 1_555
Nb3 O57 2.120542 1_555
Nb3 O22 2.187357 1_555
Nb4 O32 1.930205 1_555
Nb4 O30 1.960462 1_555
Nb4 O67 1.986691 1_555
Nb4 O66 2.007547 1_555
Nb4 O68 2.120542 1_555
Nb4 O31 2.187357 1_555
Nb5 O33 1.930205 1_555
Nb5 O35 1.960462 1_555
Nb5 O70 1.986691 1_555
Nb5 O71 2.007547 1_555
Nb5 O69 2.120542 1_555
Nb5 O34 2.187357 1_555
O0 Si0 1.610932 1_545
O0 Zr0 1.958398 1_545
O1 Si1 1.603702 1_555
O1 Zr0 2.011671 1_655
O2 S0 1.468549 1_655
O2 Zr0 2.279857 1_645
O3 S1 1.468549 1_555
O3 Zr1 2.279857 1_445
O4 Si2 1.603702 1_655
O4 Zr1 2.011671 1_555
O5 Si3 1.610932 1_545
O5 Zr1 1.958398 1_545
O6 Si3 1.668131 1_555
O7 S1 1.492015 1_555
O8 Si2 1.685456 1_555
O9 Si1 1.685456 1_555
O10 S0 1.492015 1_555
O11 Si0 1.668131 1_555
O12 Si4 1.610932 1_555
O12 Zr2 1.958398 1_555
O13 Si5 1.603702 1_555
O13 Zr2 2.011671 1_555
O14 S2 1.468549 1_555
O14 Zr2 2.279857 1_555
O15 S3 1.468549 1_555
O15 Zr3 2.279857 1_555
O16 Si6 1.603702 1_555
O16 Zr3 2.011671 1_555
O17 Si7 1.610932 1_555
O17 Zr3 1.958398 1_555
O18 Si7 1.668131 1_555
O19 S3 1.492015 1_555
O20 Si6 1.685456 1_555
O21 Si5 1.685456 1_555
O22 S2 1.492015 1_555
O23 Si4 1.668131 1_555
O24 Si8 1.610932 1_555
O24 Zr4 1.958398 1_556
O25 Si9 1.603702 1_555
O25 Zr4 2.011671 1_556
O26 S4 1.468549 1_555
O26 Zr4 2.279857 1_556
O27 S5 1.468549 1_555
O27 Zr5 2.279857 1_555
O28 Si10 1.603702 1_555
O28 Zr5 2.011671 1_555
O29 Si11 1.610932 1_555
O29 Zr5 1.958398 1_555
O30 Si11 1.668131 1_555
O31 S5 1.492015 1_555
O32 Si10 1.685456 1_555
O33 Si9 1.685456 1_555
O34 S4 1.492015 1_555
O35 Si8 1.668131 1_555
O36 Si11 1.620699 1_555
O36 Zr0 2.004200 1_555
O37 S5 1.463122 1_555
O37 Zr0 2.294362 1_655
O38 Si10 1.612084 1_555
O38 Zr0 2.076838 1_545
O39 Si9 1.612088 1_555
O39 Zr1 2.076838 1_445
O40 S4 1.463113 1_555
O40 Zr1 2.294362 1_455
O41 Si8 1.620705 1_555
O41 Zr1 2.004200 1_555
O42 Si4 1.650272 1_555
O43 Si5 1.667233 1_555
O44 S2 1.513777 1_555
O45 S3 1.513781 1_555
O46 Si6 1.667224 1_555
O47 Si7 1.650277 1_555
O48 Si3 1.620699 1_545
O48 Zr2 2.004200 1_555
O49 S1 1.463122 1_555
O49 Zr2 2.294362 1_555
O50 Si2 1.612084 1_655
O50 Zr2 2.076838 1_555
O51 Si1 1.612088 1_555
O51 Zr3 2.076838 1_555
O52 S0 1.463113 1_655
O52 Zr3 2.294362 1_555
O53 Si0 1.620705 1_545
O53 Zr3 2.004200 1_555
O54 Si8 1.650283 1_555
O55 Si9 1.667217 1_655
O56 S4 1.513774 1_545
O57 S5 1.513766 1_545
O58 Si10 1.667235 1_555
O59 Si11 1.650273 1_655
O60 Si7 1.620712 1_555
O60 Zr4 2.004200 1_555
O61 S3 1.463107 1_455
O61 Zr4 2.294362 1_555
O62 Si6 1.612081 1_565
O62 Zr4 2.076838 1_555
O63 Si5 1.612073 1_565
O63 Zr5 2.076838 1_555
O64 S2 1.463125 1_555
O64 Zr5 2.294362 1_555
O65 Si4 1.620701 1_455
O65 Zr5 2.004200 1_555
O66 Si0 1.650272 1_555
O67 Si1 1.667233 1_555
O68 S0 1.513777 1_555
O69 S1 1.513781 1_555
O70 Si2 1.667224 1_555
O71 Si3 1.650277 1_555
