# generated using pymatgen
data_LiV(PO3)4
_symmetry_space_group_name_H-M   'P 1'
_cell_length_a   8.38693000
_cell_length_b   9.41893500
_cell_length_c   12.87040700
_cell_angle_alpha   90.00000000
_cell_angle_beta   90.00000000
_cell_angle_gamma   90.00000000
_symmetry_Int_Tables_number   1
_chemical_formula_structural   LiV(PO3)4
_chemical_formula_sum   'Li4 V4 P16 O48'
_cell_volume   1016.71000880
_cell_formula_units_Z   4
loop_
 _symmetry_equiv_pos_site_id
 _symmetry_equiv_pos_as_xyz
  1  'x, y, z'
loop_
 _atom_site_type_symbol
 _atom_site_label
 _atom_site_symmetry_multiplicity
 _atom_site_fract_x
 _atom_site_fract_y
 _atom_site_fract_z
 _atom_site_occupancy
  Li  Li0  1  0.50061000  0.75000000  0.50000000  1
  Li  Li1  1  0.99939000  0.25000000  0.00000000  1
  Li  Li2  1  0.49939000  0.25000000  0.50000000  1
  Li  Li3  1  0.00061000  0.75000000  0.00000000  1
  V  V0  1  0.86911700  0.75000000  0.50000000  1
  V  V1  1  0.63088300  0.25000000  0.00000000  1
  V  V2  1  0.13088300  0.25000000  0.50000000  1
  V  V3  1  0.36911700  0.75000000  0.00000000  1
  P  P0  1  0.31972700  0.49539100  0.63898900  1
  P  P1  1  0.81972700  0.49539100  0.86101100  1
  P  P2  1  0.46429700  0.48933800  0.84930700  1
  P  P3  1  0.68027300  0.50460900  0.36101100  1
  P  P4  1  0.53570300  0.51066200  0.15069300  1
  P  P5  1  0.68027300  0.99539100  0.63898900  1
  P  P6  1  0.96429700  0.01066200  0.34930700  1
  P  P7  1  0.03570300  0.51066200  0.34930700  1
  P  P8  1  0.81972700  0.00460900  0.13898900  1
  P  P9  1  0.18027300  0.50460900  0.13898900  1
  P  P10  1  0.96429700  0.48933800  0.65069300  1
  P  P11  1  0.46429700  0.01066200  0.15069300  1
  P  P12  1  0.53570300  0.98933800  0.84930700  1
  P  P13  1  0.18027300  0.99539100  0.86101100  1
  P  P14  1  0.31972700  0.00460900  0.36101100  1
  P  P15  1  0.03570300  0.98933800  0.65069300  1
  O  O0  1  0.89708800  0.07346300  0.24300800  1
  O  O1  1  0.85723200  0.46457100  0.32026500  1
  O  O2  1  0.59559600  0.37528300  0.39473200  1
  O  O3  1  0.19065400  0.63149900  0.06589500  1
  O  O4  1  0.59559600  0.12471700  0.60526800  1
  O  O5  1  0.86803800  0.61893300  0.62335900  1
  O  O6  1  0.46491400  0.12929300  0.07244900  1
  O  O7  1  0.96491400  0.12929300  0.42755100  1
  O  O8  1  0.19065400  0.86850100  0.93410500  1
  O  O9  1  0.39708800  0.42653700  0.74300800  1
  O  O10  1  0.60291200  0.92653700  0.74300800  1
  O  O11  1  0.80934600  0.13149900  0.06589500  1
  O  O12  1  0.39708800  0.07346300  0.25699200  1
  O  O13  1  0.09559600  0.37528300  0.10526800  1
  O  O14  1  0.09559600  0.12471700  0.89473200  1
  O  O15  1  0.64276800  0.53542900  0.82026500  1
  O  O16  1  0.14276800  0.53542900  0.67973500  1
  O  O17  1  0.13196200  0.38106700  0.37664100  1
  O  O18  1  0.30934600  0.36850100  0.56589500  1
  O  O19  1  0.46491400  0.37070700  0.92755100  1
  O  O20  1  0.14276800  0.96457100  0.32026500  1
  O  O21  1  0.35723200  0.03542900  0.82026500  1
  O  O22  1  0.85723200  0.03542900  0.67973500  1
  O  O23  1  0.03508600  0.87070700  0.57244900  1
  O  O24  1  0.35723200  0.46457100  0.17973500  1
  O  O25  1  0.63196200  0.11893300  0.87664100  1
  O  O26  1  0.60291200  0.57346300  0.25699200  1
  O  O27  1  0.03508600  0.62929300  0.42755100  1
  O  O28  1  0.40440400  0.87528300  0.39473200  1
  O  O29  1  0.64276800  0.96457100  0.17973500  1
  O  O30  1  0.10291200  0.92653700  0.75699200  1
  O  O31  1  0.36803800  0.88106700  0.12335900  1
  O  O32  1  0.53508600  0.87070700  0.92755100  1
  O  O33  1  0.63196200  0.38106700  0.12335900  1
  O  O34  1  0.53508600  0.62929300  0.07244900  1
  O  O35  1  0.90440400  0.87528300  0.10526800  1
  O  O36  1  0.89708800  0.42653700  0.75699200  1
  O  O37  1  0.90440400  0.62471700  0.89473200  1
  O  O38  1  0.69065400  0.86850100  0.56589500  1
  O  O39  1  0.36803800  0.61893300  0.87664100  1
  O  O40  1  0.96491400  0.37070700  0.57244900  1
  O  O41  1  0.86803800  0.88106700  0.37664100  1
  O  O42  1  0.10291200  0.57346300  0.24300800  1
  O  O43  1  0.13196200  0.11893300  0.62335900  1
  O  O44  1  0.69065400  0.63149900  0.43410500  1
  O  O45  1  0.30934600  0.13149900  0.43410500  1
  O  O46  1  0.40440400  0.62471700  0.60526800  1
  O  O47  1  0.80934600  0.36850100  0.93410500  1
loop_
_geom_bond_atom_site_label_1
_geom_bond_atom_site_label_2
_geom_bond_distance
_geom_bond_site_symmetry_2
Li0 O46 1.969548 1_555
Li0 O28 1.969548 1_555
Li0 O38 2.122625 1_555
Li0 O44 2.122625 1_555
Li1 O13 1.969548 1_655
Li1 O14 1.969548 1_654
Li1 O47 2.122625 1_554
Li1 O11 2.122625 1_555
Li2 O4 1.969548 1_555
Li2 O2 1.969548 1_555
Li2 O18 2.122625 1_555
Li2 O45 2.122625 1_555
Li3 O35 1.969548 1_455
Li3 O37 1.969548 1_454
Li3 O8 2.122625 1_554
Li3 O3 2.122625 1_555
O0 P6 1.593535 1_555
O0 P8 1.622917 1_555
O1 P7 1.602705 1_655
O1 P3 1.618613 1_555
O2 P3 1.475301 1_555
O3 P9 1.523489 1_555
O3 V3 2.050694 1_555
O4 P5 1.475301 1_545
O5 P10 1.505159 1_555
O5 V0 2.011176 1_555
O6 P11 1.504219 1_555
O6 V1 2.024760 1_555
O7 P6 1.504219 1_555
O7 V2 2.024760 1_655
O8 P13 1.523489 1_555
O8 V3 2.050694 1_556
O9 P2 1.593535 1_555
O9 P0 1.622917 1_555
O10 P12 1.593535 1_555
O10 P5 1.622917 1_555
O11 P8 1.523489 1_555
O11 V1 2.050694 1_555
O12 P11 1.593535 1_555
O12 P14 1.622917 1_555
O13 P9 1.475301 1_555
O14 P13 1.475301 1_545
O15 P2 1.602705 1_555
O15 P1 1.618613 1_555
O16 P10 1.602705 1_455
O16 P0 1.618613 1_555
O17 P7 1.505159 1_555
O17 V2 2.011176 1_555
O18 P0 1.523489 1_555
O18 V2 2.050694 1_555
O19 P2 1.504219 1_555
O19 V1 2.024760 1_556
O20 P6 1.602705 1_465
O20 P14 1.618613 1_565
O21 P12 1.602705 1_545
O21 P13 1.618613 1_545
O22 P15 1.602705 1_645
O22 P5 1.618613 1_545
O23 P15 1.504219 1_555
O23 V0 2.024760 1_455
O24 P4 1.602705 1_555
O24 P9 1.618613 1_555
O25 P12 1.505159 1_545
O25 V1 2.011176 1_556
O26 P4 1.593535 1_555
O26 P3 1.622917 1_555
O27 P7 1.504219 1_555
O27 V0 2.024760 1_455
O28 P14 1.475301 1_565
O29 P11 1.602705 1_565
O29 P8 1.618613 1_565
O30 P15 1.593535 1_555
O30 P13 1.622917 1_555
O31 P11 1.505159 1_565
O31 V3 2.011176 1_555
O32 P12 1.504219 1_555
O32 V3 2.024760 1_556
O33 P4 1.505159 1_555
O33 V1 2.011176 1_555
O34 P4 1.504219 1_555
O34 V3 2.024760 1_555
O35 P8 1.475301 1_565
O36 P10 1.593535 1_555
O36 P1 1.622917 1_555
O37 P1 1.475301 1_555
O38 P5 1.523489 1_555
O38 V0 2.050694 1_555
O39 P2 1.505159 1_555
O39 V3 2.011176 1_556
O40 P10 1.504219 1_555
O40 V2 2.024760 1_655
O41 P6 1.505159 1_565
O41 V0 2.011176 1_555
O42 P7 1.593535 1_555
O42 P9 1.622917 1_555
O43 P15 1.505159 1_545
O43 V2 2.011176 1_555
O44 P3 1.523489 1_555
O44 V0 2.050694 1_555
O45 P14 1.523489 1_555
O45 V2 2.050694 1_555
O46 P0 1.475301 1_555
O47 P1 1.523489 1_555
O47 V1 2.050694 1_556
