# generated using pymatgen
data_CaH4SeO6
_symmetry_space_group_name_H-M   'P 1'
_cell_length_a   8.46802690
_cell_length_b   8.46802690
_cell_length_c   5.87994245
_cell_angle_alpha   79.92098616
_cell_angle_beta   79.92098616
_cell_angle_gamma   133.47440966
_symmetry_Int_Tables_number   1
_chemical_formula_structural   CaH4SeO6
_chemical_formula_sum   'Ca2 H8 Se2 O12'
_cell_volume   274.29507289
_cell_formula_units_Z   2
loop_
 _symmetry_equiv_pos_site_id
 _symmetry_equiv_pos_as_xyz
  1  'x, y, z'
loop_
 _atom_site_type_symbol
 _atom_site_label
 _atom_site_symmetry_multiplicity
 _atom_site_fract_x
 _atom_site_fract_y
 _atom_site_fract_z
 _atom_site_occupancy
  Ca  Ca0  1  0.83063400  0.16936600  0.25000000  1
  Ca  Ca1  1  0.16936600  0.83063400  0.75000000  1
  H  H0  1  0.76548100  0.75270000  0.07038500  1
  H  H1  1  0.24730000  0.23451900  0.42961500  1
  H  H2  1  0.23451900  0.24730000  0.92961500  1
  H  H3  1  0.75270000  0.76548100  0.57038500  1
  H  H4  1  0.83537500  0.66340100  0.24215800  1
  H  H5  1  0.33659900  0.16462500  0.25784200  1
  H  H6  1  0.16462500  0.33659900  0.75784200  1
  H  H7  1  0.66340100  0.83537500  0.74215800  1
  Se  Se0  1  0.66815500  0.33184500  0.75000000  1
  Se  Se1  1  0.33184500  0.66815500  0.25000000  1
  O  O0  1  0.17204600  0.38969200  0.44345900  1
  O  O1  1  0.62540900  0.16728700  0.59299600  1
  O  O2  1  0.37459100  0.83271300  0.40700400  1
  O  O3  1  0.16728700  0.62540900  0.09299600  1
  O  O4  1  0.71792600  0.85549800  0.56580000  1
  O  O5  1  0.14450200  0.28207400  0.93420000  1
  O  O6  1  0.28207400  0.14450200  0.43420000  1
  O  O7  1  0.85549800  0.71792600  0.06580000  1
  O  O8  1  0.82795400  0.61030800  0.55654100  1
  O  O9  1  0.38969200  0.17204600  0.94345900  1
  O  O10  1  0.83271300  0.37459100  0.90700400  1
  O  O11  1  0.61030800  0.82795400  0.05654100  1
loop_
_geom_bond_atom_site_label_1
_geom_bond_atom_site_label_2
_geom_bond_distance
_geom_bond_site_symmetry_2
Ca0 O5 2.363198 1_654
Ca0 O4 2.363198 1_545
Ca0 O10 2.409693 1_554
Ca0 O1 2.409693 1_555
Ca0 O3 2.564061 1_655
Ca0 O2 2.564061 1_545
Ca0 O0 2.757673 1_655
Ca0 O11 2.757673 1_545
Ca1 O6 2.363198 1_565
Ca1 O7 2.363198 1_456
Ca1 O2 2.409693 1_555
Ca1 O3 2.409693 1_556
Ca1 O10 2.564061 1_455
Ca1 O1 2.564061 1_565
Ca1 O9 2.757673 1_565
Ca1 O8 2.757673 1_455
H0 O7 0.986381 1_555
H1 O6 0.986381 1_555
H2 O5 0.986381 1_555
H3 O4 0.986381 1_555
H4 O7 0.989870 1_555
H5 O6 0.989870 1_555
H6 O5 0.989870 1_555
H7 O4 0.989870 1_555
O0 Se1 1.678384 1_555
O1 Se0 1.672783 1_555
O2 Se1 1.672783 1_555
O3 Se1 1.672783 1_555
O8 Se0 1.678384 1_555
O9 Se0 1.678384 1_555
O10 Se0 1.672783 1_555
O11 Se1 1.678384 1_555
