# generated using pymatgen
data_Na3Hf3In(PO4)6
_symmetry_space_group_name_H-M   'P 1'
_cell_length_a   8.91872274
_cell_length_b   8.91612418
_cell_length_c   23.11082725
_cell_angle_alpha   89.94846942
_cell_angle_beta   90.03123243
_cell_angle_gamma   120.24587219
_symmetry_Int_Tables_number   1
_chemical_formula_structural   Na3Hf3In(PO4)6
_chemical_formula_sum   'Na9 Hf9 In3 P18 O72'
_cell_volume   1587.60837168
_cell_formula_units_Z   3
loop_
 _symmetry_equiv_pos_site_id
 _symmetry_equiv_pos_as_xyz
  1  'x, y, z'
loop_
 _atom_site_type_symbol
 _atom_site_label
 _atom_site_symmetry_multiplicity
 _atom_site_fract_x
 _atom_site_fract_y
 _atom_site_fract_z
 _atom_site_occupancy
  Na  Na0  1  0.36539376  0.36046547  0.24801379  1
  Na  Na1  1  0.63648834  0.63295476  0.74873322  1
  Na  Na2  1  0.96998288  0.29948330  0.41486225  1
  Na  Na3  1  0.00051807  0.99234442  0.49893563  1
  Na  Na4  1  0.99983229  0.99985394  0.00119561  1
  Na  Na5  1  0.66707172  0.32553226  0.83311207  1
  Na  Na6  1  0.66741821  0.33372641  0.32948705  1
  Na  Na7  1  0.33274450  0.67432758  0.16473800  1
  Na  Na8  1  0.32567651  0.66726122  0.66531224  1
  Hf  Hf0  1  0.00138578  0.00186057  0.85426452  1
  Hf  Hf1  1  0.00208724  0.00256555  0.64575469  1
  Hf  Hf2  1  0.99760893  0.99748871  0.14612085  1
  Hf  Hf3  1  0.66649793  0.33369837  0.98126139  1
  Hf  Hf4  1  0.66088917  0.33401516  0.48183951  1
  Hf  Hf5  1  0.33370585  0.66648592  0.01967520  1
  Hf  Hf6  1  0.33486671  0.66820076  0.51996893  1
  Hf  Hf7  1  0.33510237  0.67424304  0.31295783  1
  Hf  Hf8  1  0.32782468  0.66738146  0.81489627  1
  In  In0  1  0.99859966  0.99206482  0.35091626  1
  In  In1  1  0.66733585  0.32729772  0.68409264  1
  In  In2  1  0.67291138  0.33300961  0.18245349  1
  P  P0  1  0.29220184  0.00088575  0.24953095  1
  P  P1  1  0.70778982  0.70584223  0.24997891  1
  P  P2  1  0.99676092  0.29017026  0.25160513  1
  P  P3  1  0.29066328  0.29043249  0.75039528  1
  P  P4  1  0.00171226  0.71121628  0.74991409  1
  P  P5  1  0.71145887  0.00196239  0.75070525  1
  P  P6  1  0.95904984  0.33351926  0.58266843  1
  P  P7  1  0.37357022  0.03991722  0.58366668  1
  P  P8  1  0.66627882  0.62574482  0.58462244  1
  P  P9  1  0.96001874  0.62619759  0.08290177  1
  P  P10  1  0.66663835  0.04118448  0.08306206  1
  P  P11  1  0.37438881  0.33362092  0.08399836  1
  P  P12  1  0.62327326  0.66549173  0.91612243  1
  P  P13  1  0.04140344  0.37584175  0.91709229  1
  P  P14  1  0.33400493  0.95778429  0.91696145  1
  P  P15  1  0.62481531  0.95812705  0.41721306  1
  P  P16  1  0.33500872  0.37695635  0.41594095  1
  P  P17  1  0.04382092  0.66840838  0.41749349  1
  O  O0  1  0.21837528  0.03782116  0.30412052  1
  O  O1  1  0.81176576  0.78065119  0.30511409  1
  O  O2  1  0.97296344  0.19076569  0.30820886  1
  O  O3  1  0.20055740  0.17828454  0.80394584  1
  O  O4  1  0.97415376  0.79998793  0.80349499  1
  O  O5  1  0.82291074  0.02122865  0.80424778  1
  O  O6  1  0.79487673  0.96842605  0.69675318  1
  O  O7  1  0.17808939  0.20506784  0.69619689  1
  O  O8  1  0.02706372  0.82394487  0.69571494  1
  O  O9  1  0.79431708  0.82142736  0.19646656  1
  O  O10  1  0.03102254  0.20303609  0.19878194  1
  O  O11  1  0.17618578  0.97277929  0.19600731  1
  O  O12  1  0.88548439  0.36906669  0.63687162  1
  O  O13  1  0.48070727  0.11191251  0.63823795  1
  O  O14  1  0.63284192  0.52231518  0.64071715  1
  O  O15  1  0.88920466  0.51994664  0.13775909  1
  O  O16  1  0.63011000  0.11120478  0.13778426  1
  O  O17  1  0.47684917  0.36711246  0.14019496  1
  O  O18  1  0.46484184  0.30721662  0.03096024  1
  O  O19  1  0.84414824  0.53787996  0.02930958  1
  O  O20  1  0.69425771  0.15680157  0.02937907  1
  O  O21  1  0.46149690  0.15557798  0.52981318  1
  O  O22  1  0.69268005  0.53542967  0.53138551  1
  O  O23  1  0.84693708  0.30610993  0.52745259  1
  O  O24  1  0.53542883  0.69254935  0.96886811  1
  O  O25  1  0.15547048  0.46199586  0.97027308  1
  O  O26  1  0.30624383  0.84384856  0.97015685  1
  O  O27  1  0.53496474  0.84589900  0.47056965  1
  O  O28  1  0.30821956  0.46779673  0.46884651  1
  O  O29  1  0.15545302  0.68795942  0.47080871  1
  O  O30  1  0.12762249  0.63517714  0.36362459  1
  O  O31  1  0.51208296  0.87254305  0.36324156  1
  O  O32  1  0.36035214  0.48667945  0.36064060  1
  O  O33  1  0.12853681  0.48894582  0.86287473  1
  O  O34  1  0.36014312  0.87125690  0.86274228  1
  O  O35  1  0.51373022  0.63998139  0.86053242  1
  O  O36  1  0.02351419  0.82780379  0.41365603  1
  O  O37  1  0.80904054  0.98527872  0.41341299  1
  O  O38  1  0.16730895  0.19857036  0.41271916  1
  O  O39  1  0.02334368  0.19513156  0.90950793  1
  O  O40  1  0.17155206  0.97598221  0.90918407  1
  O  O41  1  0.80512577  0.82841338  0.90916598  1
  O  O42  1  0.97622952  0.16952003  0.58920431  1
  O  O43  1  0.19211912  0.02253681  0.58913103  1
  O  O44  1  0.83064793  0.80795923  0.58957280  1
  O  O45  1  0.97744119  0.80778497  0.08881011  1
  O  O46  1  0.83057406  0.02363213  0.08924013  1
  O  O47  1  0.19167533  0.16943776  0.08934232  1
  O  O48  1  0.69078232  0.16103553  0.74679287  1
  O  O49  1  0.47507614  0.31798713  0.74635943  1
  O  O50  1  0.83382666  0.53285601  0.74590184  1
  O  O51  1  0.67465725  0.51989070  0.24405998  1
  O  O52  1  0.84106982  0.31526198  0.24529599  1
  O  O53  1  0.47220447  0.16476326  0.24339355  1
  O  O54  1  0.64154261  0.50337732  0.92341460  1
  O  O55  1  0.86085474  0.35709597  0.92363799  1
  O  O56  1  0.49625334  0.13907230  0.92359845  1
  O  O57  1  0.64578586  0.14264821  0.42404811  1
  O  O58  1  0.49757278  0.36004533  0.42370785  1
  O  O59  1  0.86395962  0.49712827  0.42427638  1
  O  O60  1  0.35257141  0.49369544  0.07406400  1
  O  O61  1  0.14238391  0.64919433  0.07357608  1
  O  O62  1  0.50709058  0.85785026  0.07365536  1
  O  O63  1  0.35066594  0.85770449  0.57434798  1
  O  O64  1  0.50635016  0.64726475  0.57459798  1
  O  O65  1  0.14248554  0.49302318  0.57399120  1
  O  O66  1  0.30767029  0.83574637  0.25616822  1
  O  O67  1  0.52208374  0.68650013  0.25604210  1
  O  O68  1  0.17080125  0.47188208  0.25676060  1
  O  O69  1  0.31209760  0.47545028  0.75715045  1
  O  O70  1  0.16363183  0.69315771  0.75694283  1
  O  O71  1  0.53115362  0.83049344  0.75737467  1
loop_
_geom_bond_atom_site_label_1
_geom_bond_atom_site_label_2
_geom_bond_distance
_geom_bond_site_symmetry_2
Na0 O53 2.374569 1_555
Na0 O51 2.384738 1_555
Na0 O68 2.403611 1_555
Na0 O67 2.519113 1_555
Na0 O17 2.672769 1_555
Na0 O0 2.805598 1_555
Na0 O10 2.817851 1_555
Na0 O32 2.846026 1_555
Na1 O50 2.341181 1_555
Na1 O71 2.385857 1_555
Na1 O49 2.426792 1_555
Na1 O69 2.507455 1_555
Na1 O14 2.679166 1_555
Na1 O35 2.819746 1_555
Na1 O6 2.850272 1_555
Na1 O4 2.893092 1_555
Na2 O38 2.346198 1_655
Na2 O59 2.393022 1_555
Na2 O37 2.420503 1_545
Na2 O57 2.507524 1_555
Na2 O2 2.654455 1_555
Na2 O23 2.836760 1_555
Na2 O30 2.844915 1_655
Na2 O28 2.889179 1_655
Na3 O36 2.527347 1_555
Na3 O37 2.591339 1_455
Na3 O38 2.608656 1_565
Na3 O43 2.621333 1_565
Na3 O44 2.621809 1_455
Na3 O42 2.691796 1_465
Na4 O45 2.592729 1_555
Na4 O47 2.599837 1_665
Na4 O46 2.605882 1_565
Na4 O39 2.681711 1_664
Na4 O41 2.683919 1_554
Na4 O40 2.691739 1_654
Na5 O48 2.548272 1_555
Na5 O49 2.614739 1_555
Na5 O56 2.627492 1_555
Na5 O50 2.630233 1_555
Na5 O55 2.636348 1_555
Na5 O54 2.700346 1_555
Na6 O52 2.544072 1_555
Na6 O51 2.558011 1_555
Na6 O53 2.572729 1_555
Na6 O57 2.716297 1_555
Na6 O59 2.724521 1_555
Na6 O58 2.730186 1_555
Na7 O66 2.629926 1_555
Na7 O62 2.638273 1_555
Na7 O61 2.642923 1_555
Na7 O67 2.669801 1_555
Na7 O68 2.690201 1_555
Na7 O60 2.703668 1_555
Na8 O63 2.639178 1_555
Na8 O70 2.639484 1_555
Na8 O65 2.642380 1_555
Na8 O69 2.688755 1_555
Na8 O64 2.705059 1_555
Na8 O71 2.705143 1_555
Hf0 O3 2.041117 1_555
Hf0 O5 2.043105 1_455
Hf0 O4 2.058758 1_445
Hf0 O39 2.074028 1_555
Hf0 O40 2.077898 1_545
Hf0 O41 2.082597 1_445
Hf1 O7 2.056584 1_555
Hf1 O8 2.067117 1_545
Hf1 O43 2.077172 1_555
Hf1 O42 2.078256 1_455
Hf1 O6 2.081373 1_445
Hf1 O44 2.088923 1_445
Hf2 O9 2.058416 1_555
Hf2 O11 2.065287 1_655
Hf2 O45 2.084426 1_555
Hf2 O46 2.085394 1_565
Hf2 O10 2.093357 1_665
Hf2 O47 2.096109 1_665
Hf3 O19 2.038025 1_556
Hf3 O20 2.043412 1_556
Hf3 O18 2.045385 1_556
Hf3 O56 2.107182 1_555
Hf3 O55 2.111741 1_555
Hf3 O54 2.112076 1_555
Hf4 O21 2.017814 1_555
Hf4 O22 2.026559 1_555
Hf4 O58 2.078041 1_555
Hf4 O23 2.083265 1_555
Hf4 O57 2.117934 1_555
Hf4 O59 2.123833 1_555
Hf5 O62 2.049994 1_555
Hf5 O61 2.055259 1_555
Hf5 O25 2.058319 1_554
Hf5 O60 2.058939 1_555
Hf5 O24 2.061591 1_554
Hf5 O26 2.063271 1_554
Hf6 O27 2.036902 1_555
Hf6 O29 2.040572 1_555
Hf6 O63 2.053757 1_555
Hf6 O28 2.054462 1_555
Hf6 O65 2.059435 1_555
Hf6 O64 2.062279 1_555
Hf7 O31 2.039167 1_555
Hf7 O66 2.051127 1_555
Hf7 O30 2.066140 1_555
Hf7 O67 2.083669 1_555
Hf7 O68 2.104299 1_555
Hf7 O32 2.106568 1_555
Hf8 O33 2.017419 1_555
Hf8 O34 2.021270 1_555
Hf8 O35 2.080108 1_555
Hf8 O70 2.080260 1_555
Hf8 O69 2.119265 1_555
Hf8 O71 2.124403 1_555
In0 O1 2.070662 1_555
In0 O0 2.091418 1_665
In0 O2 2.137722 1_565
In0 O36 2.149519 1_655
In0 O37 2.201699 1_555
In0 O38 2.214864 1_665
In1 O13 2.088788 1_555
In1 O12 2.094440 1_555
In1 O48 2.156186 1_555
In1 O14 2.158330 1_555
In1 O50 2.205720 1_555
In1 O49 2.208399 1_555
In2 O15 2.079955 1_555
In2 O16 2.089310 1_555
In2 O52 2.149397 1_555
In2 O17 2.153415 1_555
In2 O53 2.175285 1_555
In2 O51 2.186754 1_555
O0 P0 1.534195 1_555
O1 P1 1.518417 1_555
O2 P2 1.533157 1_555
O3 P3 1.538390 1_555
O4 P4 1.555103 1_655
O5 P5 1.541354 1_555
O6 P5 1.556732 1_565
O7 P3 1.544920 1_555
O8 P4 1.549009 1_555
O9 P1 1.544221 1_555
O10 P2 1.558377 1_455
O11 P0 1.549671 1_565
O12 P6 1.520279 1_555
O13 P7 1.515883 1_555
O14 P8 1.530107 1_555
O15 P9 1.516448 1_555
O16 P10 1.517259 1_555
O17 P11 1.528228 1_555
O18 P11 1.549721 1_555
O19 P9 1.550036 1_555
O20 P10 1.550740 1_555
O21 P7 1.552904 1_555
O22 P8 1.552664 1_555
O23 P6 1.562342 1_555
O24 P12 1.532953 1_555
O25 P13 1.532535 1_555
O26 P14 1.532769 1_555
O27 P15 1.534620 1_555
O28 P16 1.550845 1_555
O29 P17 1.537550 1_555
O30 P17 1.555984 1_555
O31 P15 1.541566 1_555
O32 P16 1.554621 1_555
O33 P13 1.549261 1_555
O34 P14 1.550134 1_555
O35 P12 1.559505 1_555
O36 P17 1.522992 1_555
O37 P15 1.537969 1_555
O38 P16 1.541379 1_555
O39 P13 1.546536 1_555
O40 P14 1.547372 1_555
O41 P12 1.546894 1_555
O42 P6 1.552326 1_555
O43 P7 1.551270 1_555
O44 P8 1.549971 1_555
O45 P9 1.552759 1_555
O46 P10 1.553336 1_555
O47 P11 1.552541 1_555
O48 P5 1.522184 1_555
O49 P3 1.538582 1_555
O50 P4 1.542999 1_655
O51 P1 1.536777 1_555
O52 P2 1.520560 1_555
O53 P0 1.539192 1_555
O54 P12 1.543056 1_555
O55 P13 1.540407 1_655
O56 P14 1.540790 1_545
O57 P15 1.567516 1_545
O58 P16 1.541740 1_555
O59 P17 1.569049 1_655
O60 P11 1.551368 1_555
O61 P9 1.548617 1_455
O62 P10 1.549554 1_565
O63 P7 1.547185 1_565
O64 P8 1.549278 1_555
O65 P6 1.547640 1_455
O66 P0 1.553944 1_565
O67 P1 1.582730 1_555
O68 P2 1.585919 1_455
O69 P3 1.570022 1_555
O70 P4 1.540041 1_555
O71 P5 1.571671 1_565
