# generated using pymatgen
data_Na6Ta3Al(SiO4)6
_symmetry_space_group_name_H-M   'P 1'
_cell_length_a   8.97460899
_cell_length_b   8.97546374
_cell_length_c   22.25985931
_cell_angle_alpha   90.04564804
_cell_angle_beta   90.00442816
_cell_angle_gamma   119.97078573
_symmetry_Int_Tables_number   1
_chemical_formula_structural   Na6Ta3Al(SiO4)6
_chemical_formula_sum   'Na18 Ta9 Al3 Si18 O72'
_cell_volume   1553.29180058
_cell_formula_units_Z   3
loop_
 _symmetry_equiv_pos_site_id
 _symmetry_equiv_pos_as_xyz
  1  'x, y, z'
loop_
 _atom_site_type_symbol
 _atom_site_label
 _atom_site_symmetry_multiplicity
 _atom_site_fract_x
 _atom_site_fract_y
 _atom_site_fract_z
 _atom_site_occupancy
  Na  Na0  1  0.00902166  0.00062686  0.49781763  1
  Na  Na1  1  0.98883535  0.98966961  0.99661811  1
  Na  Na2  1  0.66661850  0.33249009  0.83278744  1
  Na  Na3  1  0.66678136  0.33285386  0.32566649  1
  Na  Na4  1  0.34498599  0.66771195  0.16336634  1
  Na  Na5  1  0.32262886  0.65628848  0.66502136  1
  Na  Na6  1  0.63625412  0.01275085  0.24459785  1
  Na  Na7  1  0.37579387  0.36292263  0.24375731  1
  Na  Na8  1  0.98786205  0.62347743  0.24419254  1
  Na  Na9  1  0.63536822  0.62371086  0.74521310  1
  Na  Na10  1  0.98735502  0.36354359  0.74564710  1
  Na  Na11  1  0.37706551  0.01156803  0.74613916  1
  Na  Na12  1  0.66615926  0.96932766  0.58693532  1
  Na  Na13  1  0.30452921  0.97400686  0.08380597  1
  Na  Na14  1  0.02896138  0.33603338  0.08389283  1
  Na  Na15  1  0.96591121  0.28826340  0.41136095  1
  Na  Na16  1  0.32299850  0.03301380  0.41152513  1
  Na  Na17  1  0.71122477  0.67837573  0.41185231  1
  Ta  Ta0  1  0.00098291  0.00075427  0.85572599  1
  Ta  Ta1  1  0.00428818  0.00020687  0.64307676  1
  Ta  Ta2  1  0.99608795  0.99657862  0.14548282  1
  Ta  Ta3  1  0.66724263  0.33445824  0.97710936  1
  Ta  Ta4  1  0.66645962  0.33452563  0.48073554  1
  Ta  Ta5  1  0.33750816  0.66695589  0.02166936  1
  Ta  Ta6  1  0.32959115  0.66291755  0.52339324  1
  Ta  Ta7  1  0.33288730  0.66650781  0.31109910  1
  Ta  Ta8  1  0.33390689  0.66692044  0.81302660  1
  Al  Al0  1  0.99950577  0.99973088  0.35197861  1
  Al  Al1  1  0.66715671  0.33395883  0.68739396  1
  Al  Al2  1  0.66613345  0.33331996  0.18730827  1
  Si  Si0  1  0.28959404  0.00649192  0.25286360  1
  Si  Si1  1  0.71661194  0.70986768  0.25354702  1
  Si  Si2  1  0.99371836  0.28290664  0.25254399  1
  Si  Si3  1  0.29415170  0.28896536  0.74875773  1
  Si  Si4  1  0.99436045  0.70517752  0.74917860  1
  Si  Si5  1  0.71098352  0.00511678  0.74828051  1
  Si  Si6  1  0.95209953  0.33700244  0.58792561  1
  Si  Si7  1  0.38238025  0.05048677  0.58669896  1
  Si  Si8  1  0.66541020  0.61575602  0.58776138  1
  Si  Si9  1  0.94676303  0.61554380  0.08685971  1
  Si  Si10  1  0.66566693  0.05091558  0.08707075  1
  Si  Si11  1  0.38783670  0.33738072  0.08782960  1
  Si  Si12  1  0.62489804  0.66673582  0.91603580  1
  Si  Si13  1  0.04238765  0.37605763  0.91700545  1
  Si  Si14  1  0.33298707  0.95710906  0.91742846  1
  Si  Si15  1  0.62871815  0.95695125  0.41666959  1
  Si  Si16  1  0.32860697  0.37162747  0.41546757  1
  Si  Si17  1  0.04363434  0.67193573  0.41591878  1
  O  O0  1  0.19797388  0.03302909  0.31111648  1
  O  O1  1  0.83349643  0.79904309  0.31231266  1
  O  O2  1  0.96619252  0.16466370  0.31088148  1
  O  O3  1  0.19794459  0.16253678  0.80632281  1
  O  O4  1  0.96570029  0.80286924  0.80656007  1
  O  O5  1  0.83944297  0.03393038  0.80510960  1
  O  O6  1  0.79561235  0.96383764  0.68920660  1
  O  O7  1  0.16033054  0.19773016  0.69197744  1
  O  O8  1  0.03482223  0.83811717  0.69221239  1
  O  O9  1  0.80587690  0.83976044  0.19534984  1
  O  O10  1  0.03487351  0.20053762  0.19243139  1
  O  O11  1  0.16643471  0.96676524  0.19267089  1
  O  O12  1  0.86296297  0.35902799  0.64639617  1
  O  O13  1  0.50307704  0.13475651  0.64413486  1
  O  O14  1  0.64002949  0.50253187  0.64580144  1
  O  O15  1  0.86571245  0.49770906  0.14580212  1
  O  O16  1  0.63213861  0.13296923  0.14653764  1
  O  O17  1  0.49567640  0.35984923  0.14796518  1
  O  O18  1  0.47307174  0.29972697  0.02878524  1
  O  O19  1  0.83146321  0.52586902  0.02699577  1
  O  O20  1  0.70042331  0.17219542  0.02793567  1
  O  O21  1  0.47095945  0.16261663  0.52434739  1
  O  O22  1  0.69057692  0.52838188  0.52521398  1
  O  O23  1  0.83412795  0.30587870  0.52602138  1
  O  O24  1  0.52350673  0.68969932  0.97381446  1
  O  O25  1  0.15970758  0.47093907  0.97685067  1
  O  O26  1  0.30898122  0.83920875  0.97711671  1
  O  O27  1  0.53415517  0.83482623  0.47514122  1
  O  O28  1  0.30206429  0.47310330  0.47213862  1
  O  O29  1  0.17252568  0.70010817  0.47235930  1
  O  O30  1  0.13142160  0.63188900  0.35707345  1
  O  O31  1  0.49866153  0.86545902  0.35843503  1
  O  O32  1  0.36760270  0.49922381  0.35681777  1
  O  O33  1  0.13832622  0.49456763  0.85732375  1
  O  O34  1  0.35665427  0.86184140  0.85758301  1
  O  O35  1  0.50781450  0.64275741  0.85583915  1
  O  O36  1  0.02504227  0.84090134  0.41049359  1
  O  O37  1  0.81669532  0.97628162  0.41030910  1
  O  O38  1  0.15960436  0.18401961  0.41027751  1
  O  O39  1  0.02782725  0.18833347  0.91081731  1
  O  O40  1  0.16032279  0.97216992  0.91093172  1
  O  O41  1  0.81206891  0.83989751  0.91079909  1
  O  O42  1  0.96429630  0.15913362  0.58890449  1
  O  O43  1  0.18991360  0.02848759  0.58833506  1
  O  O44  1  0.83350315  0.81301608  0.58864551  1
  O  O45  1  0.98003802  0.81423561  0.08988795  1
  O  O46  1  0.84095747  0.03426521  0.09055726  1
  O  O47  1  0.19065887  0.16365758  0.09076906  1
  O  O48  1  0.68891606  0.17247589  0.74446143  1
  O  O49  1  0.48205530  0.30848155  0.74323404  1
  O  O50  1  0.82686626  0.51664676  0.74433312  1
  O  O51  1  0.69143829  0.51907323  0.24515381  1
  O  O52  1  0.82818170  0.30920908  0.24510357  1
  O  O53  1  0.48192724  0.17113781  0.24613267  1
  O  O54  1  0.63878561  0.49395974  0.92211038  1
  O  O55  1  0.85406706  0.35954791  0.92152254  1
  O  O56  1  0.50554178  0.14452437  0.92242878  1
  O  O57  1  0.64252425  0.14691841  0.42118027  1
  O  O58  1  0.50451091  0.35838638  0.42115472  1
  O  O59  1  0.85483021  0.49593496  0.42190440  1
  O  O60  1  0.35155278  0.50021653  0.07992875  1
  O  O61  1  0.14373290  0.64109615  0.07947449  1
  O  O62  1  0.49278497  0.85883166  0.07918667  1
  O  O63  1  0.36720006  0.86004127  0.57700550  1
  O  O64  1  0.49865428  0.64618243  0.57808938  1
  O  O65  1  0.14469329  0.50517754  0.57785829  1
  O  O66  1  0.30520871  0.82787777  0.25597793  1
  O  O67  1  0.52320670  0.69517203  0.25582366  1
  O  O68  1  0.17199876  0.47701877  0.25595023  1
  O  O69  1  0.30833624  0.47940693  0.75414618  1
  O  O70  1  0.17102908  0.69123451  0.75415028  1
  O  O71  1  0.51977291  0.82899466  0.75433998  1
loop_
_geom_bond_atom_site_label_1
_geom_bond_atom_site_label_2
_geom_bond_distance
_geom_bond_site_symmetry_2
Na0 O36 2.460873 1_545
Na0 O38 2.473040 1_555
Na0 O43 2.520120 1_555
Na0 O37 2.538386 1_445
Na0 O44 2.600057 1_445
Na0 O42 2.619593 1_455
Na1 O41 2.416163 1_555
Na1 O40 2.504563 1_655
Na1 O39 2.516303 1_665
Na1 O45 2.584013 1_556
Na1 O46 2.612269 1_566
Na1 O47 2.698129 1_666
Na2 O48 2.500215 1_555
Na2 O50 2.511542 1_555
Na2 O55 2.526085 1_555
Na2 O49 2.531019 1_555
Na2 O54 2.544276 1_555
Na2 O56 2.546911 1_555
Na3 O53 2.362835 1_555
Na3 O52 2.380363 1_555
Na3 O51 2.385340 1_555
Na3 O57 2.644923 1_555
Na3 O58 2.650376 1_555
Na3 O59 2.665757 1_555
Na4 O60 2.407741 1_555
Na4 O62 2.438316 1_555
Na4 O61 2.524727 1_555
Na4 O67 2.541567 1_555
Na4 O68 2.634061 1_555
Na4 O66 2.636668 1_555
Na5 O65 2.446532 1_555
Na5 O69 2.504873 1_555
Na5 O70 2.512272 1_555
Na5 O64 2.528204 1_555
Na5 O63 2.572532 1_555
Na5 O71 2.596273 1_555
Na6 O52 2.338358 1_555
Na6 O53 2.430541 1_555
Na6 O16 2.444144 1_555
Na6 O67 2.515644 1_545
Na6 O66 2.592232 1_545
Na6 O31 2.840509 1_545
Na6 O9 2.879067 1_545
Na6 O2 2.960798 1_555
Na7 O53 2.347643 1_555
Na7 O17 2.394790 1_555
Na7 O51 2.454204 1_555
Na7 O68 2.517643 1_555
Na7 O67 2.602346 1_555
Na7 O32 2.814398 1_555
Na7 O10 2.886570 1_555
Na7 O0 2.974653 1_555
Na8 O51 2.337744 1_555
Na8 O52 2.443741 1_555
Na8 O15 2.456034 1_555
Na8 O66 2.514897 1_655
Na8 O68 2.588115 1_655
Na8 O30 2.807382 1_655
Na8 O11 2.906823 1_655
Na8 O1 2.979812 1_555
Na9 O50 2.351061 1_555
Na9 O49 2.451632 1_555
Na9 O14 2.474515 1_555
Na9 O71 2.534089 1_555
Na9 O69 2.556107 1_555
Na9 O35 2.756621 1_555
Na9 O4 2.910727 1_555
Na9 O6 2.926078 1_555
Na10 O48 2.350768 1_555
Na10 O50 2.437478 1_555
Na10 O12 2.466425 1_555
Na10 O69 2.534189 1_655
Na10 O70 2.560993 1_655
Na10 O33 2.793088 1_655
Na10 O5 2.889505 1_555
Na10 O7 2.890989 1_655
Na11 O49 2.342088 1_555
Na11 O48 2.425237 1_555
Na11 O70 2.531116 1_545
Na11 O13 2.532228 1_555
Na11 O71 2.540909 1_545
Na11 O34 2.784412 1_545
Na11 O3 2.896334 1_555
Na11 O8 2.918504 1_545
Na12 O42 2.347121 1_565
Na12 O63 2.362166 1_555
Na12 O44 2.516063 1_555
Na12 O64 2.520642 1_555
Na12 O6 2.567452 1_555
Na12 O27 2.760332 1_555
Na12 O13 2.852444 1_565
Na12 O23 2.948375 1_565
Na13 O62 2.382972 1_555
Na13 O47 2.388201 1_565
Na13 O45 2.526554 1_455
Na13 O61 2.590647 1_555
Na13 O26 2.673803 1_554
Na13 O11 2.707933 1_555
Na13 O18 2.814711 1_565
Na13 O16 2.904330 1_565
Na14 O46 2.374791 1_455
Na14 O61 2.397988 1_555
Na14 O60 2.509745 1_555
Na14 O47 2.601260 1_555
Na14 O25 2.665699 1_554
Na14 O10 2.718134 1_555
Na14 O20 2.841147 1_455
Na14 O15 2.876220 1_455
Na15 O38 2.350048 1_655
Na15 O37 2.426567 1_545
Na15 O2 2.496434 1_555
Na15 O59 2.525687 1_555
Na15 O57 2.530268 1_555
Na15 O23 2.850403 1_555
Na15 O30 2.933939 1_655
Na15 O28 2.946056 1_655
Na16 O36 2.348911 1_545
Na16 O38 2.444144 1_555
Na16 O0 2.500870 1_555
Na16 O57 2.526869 1_555
Na16 O58 2.544409 1_555
Na16 O21 2.806267 1_555
Na16 O31 2.917169 1_545
Na16 O29 2.925864 1_545
Na17 O37 2.349049 1_555
Na17 O36 2.440537 1_655
Na17 O1 2.470510 1_555
Na17 O58 2.531954 1_555
Na17 O59 2.549810 1_555
Na17 O22 2.823229 1_555
Na17 O32 2.939133 1_555
Na17 O27 2.951031 1_555
Al0 O0 1.886284 1_665
Al0 O1 1.886761 1_555
Al0 O2 1.887330 1_565
Al0 O37 2.019336 1_555
Al0 O38 2.026400 1_665
Al0 O36 2.027487 1_655
Al1 O14 1.891009 1_555
Al1 O12 1.891309 1_555
Al1 O13 1.912827 1_555
Al1 O49 1.994539 1_555
Al1 O50 1.999442 1_555
Al1 O48 2.009535 1_555
Al2 O17 1.878292 1_555
Al2 O16 1.897264 1_555
Al2 O15 1.897582 1_555
Al2 O51 2.026683 1_555
Al2 O52 2.032634 1_555
Al2 O53 2.040972 1_555
O0 Si0 1.615430 1_555
O1 Si1 1.615993 1_555
O2 Si2 1.616780 1_555
O3 Si3 1.642775 1_555
O3 Ta0 1.969981 1_555
O4 Si4 1.640150 1_555
O4 Ta0 1.971686 1_665
O5 Si5 1.642440 1_555
O5 Ta0 1.972700 1_655
O6 Si5 1.650399 1_565
O6 Ta1 2.014528 1_665
O7 Si3 1.651048 1_555
O7 Ta1 1.950700 1_555
O8 Si4 1.653219 1_455
O8 Ta1 1.946464 1_565
O9 Si1 1.657896 1_555
O9 Ta2 1.931201 1_555
O10 Si2 1.656747 1_455
O10 Ta2 1.981103 1_445
O11 Si0 1.658122 1_565
O11 Ta2 1.980173 1_455
O12 Si6 1.590851 1_555
O13 Si7 1.599904 1_555
O14 Si8 1.588917 1_555
O15 Si9 1.613342 1_555
O16 Si10 1.614031 1_555
O17 Si11 1.604240 1_555
O18 Si11 1.638458 1_555
O18 Ta3 1.978682 1_554
O19 Si9 1.631027 1_555
O19 Ta3 1.955433 1_554
O20 Si10 1.636482 1_555
O20 Ta3 1.981323 1_554
O21 Si7 1.665608 1_555
O21 Ta4 1.923391 1_555
O22 Si8 1.667269 1_555
O22 Ta4 1.917157 1_555
O23 Si6 1.673760 1_555
O23 Ta4 1.932181 1_555
O24 Si12 1.646752 1_555
O24 Ta5 1.903425 1_556
O25 Si13 1.646377 1_555
O25 Ta5 1.956759 1_556
O26 Si14 1.645005 1_555
O26 Ta5 1.958883 1_556
O27 Si15 1.639767 1_555
O27 Ta6 2.019306 1_555
O28 Si16 1.640923 1_555
O28 Ta6 1.959994 1_555
O29 Si17 1.639352 1_555
O29 Ta6 1.964532 1_555
O30 Si17 1.657729 1_555
O30 Ta7 1.962774 1_555
O31 Si15 1.660577 1_555
O31 Ta7 1.963361 1_555
O32 Si16 1.655439 1_555
O32 Ta7 1.963894 1_555
O33 Si13 1.650783 1_555
O33 Ta8 1.932893 1_555
O34 Si14 1.652446 1_555
O34 Ta8 1.930418 1_555
O35 Si12 1.649045 1_555
O35 Ta8 1.931187 1_555
O36 Si17 1.611038 1_555
O37 Si15 1.613638 1_555
O38 Si16 1.611576 1_555
O39 Si13 1.629302 1_555
O39 Ta0 1.996965 1_555
O40 Si14 1.627794 1_555
O40 Ta0 1.996916 1_565
O41 Si12 1.625643 1_555
O41 Ta0 2.004824 1_665
O42 Si6 1.654018 1_555
O42 Ta1 2.032697 1_655
O43 Si7 1.638043 1_555
O43 Ta1 1.975568 1_555
O44 Si8 1.655964 1_555
O44 Ta1 2.015861 1_665
O45 Si9 1.655832 1_555
O45 Ta2 1.997987 1_555
O46 Si10 1.654719 1_555
O46 Ta2 2.004615 1_545
O47 Si11 1.676418 1_555
O47 Ta2 2.041643 1_445
O48 Si5 1.612532 1_555
O49 Si3 1.610760 1_555
O50 Si4 1.610249 1_555
O51 Si1 1.622170 1_555
O52 Si2 1.625019 1_555
O53 Si0 1.624061 1_555
O54 Si12 1.622365 1_555
O54 Ta3 1.995389 1_555
O55 Si13 1.624299 1_655
O55 Ta3 2.004127 1_555
O56 Si14 1.623938 1_545
O56 Ta3 2.004582 1_555
O57 Si15 1.649623 1_545
O57 Ta4 2.067366 1_555
O58 Si16 1.646144 1_555
O58 Ta4 2.056314 1_555
O59 Si17 1.646314 1_655
O59 Ta4 2.056243 1_555
O60 Si11 1.657990 1_555
O60 Ta5 2.031977 1_555
O61 Si9 1.673180 1_455
O61 Ta5 2.081205 1_555
O62 Si10 1.654487 1_565
O62 Ta5 2.036049 1_555
O63 Si7 1.659425 1_565
O63 Ta6 2.017026 1_555
O64 Si8 1.664041 1_555
O64 Ta6 2.008674 1_555
O65 Si6 1.646238 1_455
O65 Ta6 1.970705 1_555
O66 Si0 1.679033 1_565
O66 Ta7 2.006797 1_555
O67 Si1 1.674524 1_555
O67 Ta7 2.014776 1_555
O68 Si2 1.678036 1_455
O68 Ta7 2.006810 1_555
O69 Si3 1.653654 1_555
O69 Ta8 2.052712 1_555
O70 Si4 1.655313 1_455
O70 Ta8 2.054477 1_555
O71 Si5 1.658897 1_565
O71 Ta8 2.045517 1_555
