# generated using pymatgen
data_DyAgSn
_symmetry_space_group_name_H-M   'P 1'
_cell_length_a   4.69477978
_cell_length_b   4.69478071
_cell_length_c   7.41140602
_cell_angle_alpha   90.00000000
_cell_angle_beta   90.00000000
_cell_angle_gamma   119.99998628
_symmetry_Int_Tables_number   1
_chemical_formula_structural   DyAgSn
_chemical_formula_sum   'Dy2 Ag2 Sn2'
_cell_volume   141.46917939
_cell_formula_units_Z   2
loop_
 _symmetry_equiv_pos_site_id
 _symmetry_equiv_pos_as_xyz
  1  'x, y, z'
loop_
 _atom_site_type_symbol
 _atom_site_label
 _atom_site_symmetry_multiplicity
 _atom_site_fract_x
 _atom_site_fract_y
 _atom_site_fract_z
 _atom_site_occupancy
  Dy  Dy0  1  0.00000000  0.00000000  0.72408734  1
  Dy  Dy1  1  -0.00000000  -0.00000000  0.22408734  1
  Ag  Ag0  1  0.66666700  0.33333300  0.53995140  1
  Ag  Ag1  1  0.33333300  0.66666700  0.03995140  1
  Sn  Sn0  1  0.33333300  0.66666700  0.44396127  1
  Sn  Sn1  1  0.66666700  0.33333300  0.94396127  1
loop_
_geom_bond_atom_site_label_1
_geom_bond_atom_site_label_2
_geom_bond_distance
_geom_bond_site_symmetry_2
Dy0 Sn1 3.162671 1_455
Dy0 Sn1 3.162674 1_555
Dy0 Sn1 3.162675 1_445
Dy0 Sn0 3.414276 1_545
Dy0 Sn0 3.414279 1_445
Dy0 Sn0 3.414280 1_555
Dy1 Sn0 3.162671 1_545
Dy1 Sn0 3.162674 1_445
Dy1 Sn0 3.162675 1_555
Dy1 Sn1 3.414276 1_454
Dy1 Sn1 3.414279 1_554
Dy1 Sn1 3.414280 1_444
Ag0 Sn0 2.802337 1_655
Ag0 Sn0 2.802338 1_545
Ag0 Sn0 2.802345 1_555
Ag0 Sn1 2.994281 1_555
Ag0 Dy0 3.034698 1_655
Ag0 Dy0 3.034702 1_555
Ag0 Dy0 3.034703 1_665
Ag0 Dy1 3.581513 1_655
Ag0 Dy1 3.581517 1_555
Ag0 Dy1 3.581517 1_665
Ag1 Sn1 2.802337 1_454
Ag1 Sn1 2.802338 1_564
Ag1 Sn1 2.802345 1_554
Ag1 Sn0 2.994281 1_555
Ag1 Dy1 3.034698 1_565
Ag1 Dy1 3.034702 1_665
Ag1 Dy1 3.034703 1_555
Ag1 Dy0 3.581513 1_564
Ag1 Dy0 3.581517 1_664
Ag1 Dy0 3.581517 1_554
