# generated using pymatgen
data_Cs2PtCl4
_symmetry_space_group_name_H-M   'P 1'
_cell_length_a   7.42608667
_cell_length_b   7.42608759
_cell_length_c   9.50254960
_cell_angle_alpha   90.00000000
_cell_angle_beta   90.00000000
_cell_angle_gamma   89.92348961
_symmetry_Int_Tables_number   1
_chemical_formula_structural   Cs2PtCl4
_chemical_formula_sum   'Cs4 Pt2 Cl8'
_cell_volume   524.03445053
_cell_formula_units_Z   2
loop_
 _symmetry_equiv_pos_site_id
 _symmetry_equiv_pos_as_xyz
  1  'x, y, z'
loop_
 _atom_site_type_symbol
 _atom_site_label
 _atom_site_symmetry_multiplicity
 _atom_site_fract_x
 _atom_site_fract_y
 _atom_site_fract_z
 _atom_site_occupancy
  Cs  Cs0  1  0.50472497  0.99483700  0.75000000  1
  Cs  Cs1  1  0.00516300  0.49527503  0.25000000  1
  Cs  Cs2  1  0.49527503  0.00516300  0.25000000  1
  Cs  Cs3  1  0.99483700  0.50472497  0.75000000  1
  Pt  Pt0  1  0.00000000  -0.00000000  0.50000000  1
  Pt  Pt1  1  0.00000000  -0.00000000  0.00000000  1
  Cl  Cl0  1  0.77948922  0.77948922  0.49342935  1
  Cl  Cl1  1  0.77948922  0.77948922  0.00657065  1
  Cl  Cl2  1  0.22075084  0.77924916  0.00000000  1
  Cl  Cl3  1  0.77924916  0.22075084  0.50000000  1
  Cl  Cl4  1  0.77924916  0.22075084  0.00000000  1
  Cl  Cl5  1  0.22051078  0.22051078  0.50657065  1
  Cl  Cl6  1  0.22051078  0.22051078  0.99342935  1
  Cl  Cl7  1  0.22075084  0.77924916  0.50000000  1
loop_
_geom_bond_atom_site_label_1
_geom_bond_atom_site_label_2
_geom_bond_distance
_geom_bond_site_symmetry_2
Cl0 Pt0 2.318207 1_665
Cl0 Cs2 3.550299 1_565
Cl0 Cs1 3.550299 1_655
Cl0 Cs0 3.557560 1_555
Cl0 Cs3 3.557561 1_555
Cl1 Pt1 2.318207 1_665
Cl1 Cs2 3.550299 1_565
Cl1 Cs1 3.550299 1_655
Cl1 Cs0 3.557560 1_554
Cl1 Cs3 3.557561 1_554
Cl2 Pt1 2.316793 1_565
Cl2 Cs2 3.552938 1_565
Cl2 Cs3 3.552938 1_454
Cl2 Cs0 3.558496 1_554
Cl2 Cs1 3.558496 1_555
Cl3 Pt0 2.316793 1_655
Cl3 Cs0 3.552938 1_545
Cl3 Cs1 3.552938 1_655
Cl3 Cs2 3.558496 1_555
Cl3 Cs3 3.558496 1_555
Cl4 Pt1 2.316793 1_655
Cl4 Cs0 3.552938 1_544
Cl4 Cs1 3.552938 1_655
Cl4 Cs2 3.558496 1_555
Cl4 Cs3 3.558496 1_554
Cl5 Pt0 2.318207 1_555
Cl5 Cs0 3.550299 1_545
Cl5 Cs3 3.550299 1_455
Cl5 Cs2 3.557560 1_555
Cl5 Cs1 3.557561 1_555
Cl6 Pt1 2.318207 1_556
Cl6 Cs0 3.550299 1_545
Cl6 Cs3 3.550299 1_455
Cl6 Cs2 3.557560 1_556
Cl6 Cs1 3.557561 1_556
Cl7 Pt0 2.316793 1_565
Cl7 Cs2 3.552938 1_565
Cl7 Cs3 3.552938 1_455
Cl7 Cs0 3.558496 1_555
Cl7 Cs1 3.558496 1_555
