# generated using pymatgen
data_ScSnP(SO6)2
_symmetry_space_group_name_H-M   'P 1'
_cell_length_a   8.78218990
_cell_length_b   8.79989544
_cell_length_c   22.88832415
_cell_angle_alpha   89.86108600
_cell_angle_beta   90.00000000
_cell_angle_gamma   119.93346530
_symmetry_Int_Tables_number   1
_chemical_formula_structural   ScSnP(SO6)2
_chemical_formula_sum   'Sc6 Sn6 P6 S12 O72'
_cell_volume   1532.90077807
_cell_formula_units_Z   6
loop_
 _symmetry_equiv_pos_site_id
 _symmetry_equiv_pos_as_xyz
  1  'x, y, z'
loop_
 _atom_site_type_symbol
 _atom_site_label
 _atom_site_symmetry_multiplicity
 _atom_site_fract_x
 _atom_site_fract_y
 _atom_site_fract_z
 _atom_site_occupancy
  Sc  Sc0  1  0.00016106  0.00034491  0.35663346  1
  Sc  Sc1  1  0.00018385  0.00034491  0.85663346  1
  Sc  Sc2  1  0.68136008  0.34246136  0.69039355  1
  Sc  Sc3  1  0.66110229  0.34246136  0.19039355  1
  Sc  Sc4  1  0.32715852  0.65092548  0.02309241  1
  Sc  Sc5  1  0.32376596  0.65092548  0.52309241  1
  Sn  Sn0  1  0.00120907  0.00189831  0.64773191  1
  Sn  Sn1  1  0.00068925  0.00189831  0.14773191  1
  Sn  Sn2  1  0.66560336  0.33200138  0.98133364  1
  Sn  Sn3  1  0.66639901  0.33200138  0.48133364  1
  Sn  Sn4  1  0.34253072  0.66259217  0.31432185  1
  Sn  Sn5  1  0.32006045  0.66259217  0.81432185  1
  P  P0  1  0.71379389  0.71776468  0.25063759  1
  P  P1  1  0.00397079  0.71776468  0.75063759  1
  P  P2  1  0.95105455  0.32596355  0.58390430  1
  P  P3  1  0.37491000  0.32596355  0.08390430  1
  P  P4  1  0.03824453  0.37571227  0.91790678  1
  P  P5  1  0.33746674  0.37571227  0.41790678  1
  S  S0  1  0.28905632  0.99332168  0.25141785  1
  S  S1  1  0.00213362  0.29338807  0.25051155  1
  S  S2  1  0.29125445  0.29338807  0.75051155  1
  S  S3  1  0.70426536  0.99332168  0.75141785  1
  S  S4  1  0.37535972  0.04357343  0.58438069  1
  S  S5  1  0.67055966  0.62622152  0.58413316  1
  S  S6  1  0.95566286  0.62622152  0.08413316  1
  S  S7  1  0.66821472  0.04357343  0.08438069  1
  S  S8  1  0.61963353  0.66332893  0.91658212  1
  S  S9  1  0.33805283  0.95820294  0.91781309  1
  S  S10  1  0.62014910  0.95820294  0.41781309  1
  S  S11  1  0.04369440  0.66332893  0.41658212  1
  O  O0  1  0.20689350  0.02435483  0.30226590  1
  O  O1  1  0.82869032  0.80643969  0.30371388  1
  O  O2  1  0.97649509  0.18332897  0.30195004  1
  O  O3  1  0.20683388  0.18332897  0.80195004  1
  O  O4  1  0.97774937  0.80643969  0.80371388  1
  O  O5  1  0.81746132  0.02435483  0.80226590  1
  O  O6  1  0.77883510  0.95887288  0.69729629  1
  O  O7  1  0.17844543  0.22116825  0.69696698  1
  O  O8  1  0.03993349  0.83139556  0.69393499  1
  O  O9  1  0.79146208  0.83139556  0.19393499  1
  O  O10  1  0.04272282  0.22116825  0.19696698  1
  O  O11  1  0.18003778  0.95887288  0.19729629  1
  O  O12  1  0.86259763  0.35352077  0.63676152  1
  O  O13  1  0.48415054  0.12822875  0.63558949  1
  O  O14  1  0.63949394  0.51392179  0.63517463  1
  O  O15  1  0.87442884  0.51392179  0.13517463  1
  O  O16  1  0.64407921  0.12822875  0.13558949  1
  O  O17  1  0.49092414  0.35352077  0.13676152  1
  O  O18  1  0.45271559  0.28951801  0.02745181  1
  O  O19  1  0.84550580  0.55180482  0.03022796  1
  O  O20  1  0.70662432  0.15503198  0.03020828  1
  O  O21  1  0.44840866  0.15503198  0.53020828  1
  O  O22  1  0.70630002  0.55180482  0.53022796  1
  O  O23  1  0.83680343  0.28951801  0.52745181  1
  O  O24  1  0.53797234  0.69217482  0.96802581  1
  O  O25  1  0.15592660  0.46469737  0.97050092  1
  O  O26  1  0.31244876  0.84866967  0.96902262  1
  O  O27  1  0.53621991  0.84866967  0.46902262  1
  O  O28  1  0.30876977  0.46469737  0.47050092  1
  O  O29  1  0.15420148  0.69217482  0.46802581  1
  O  O30  1  0.12063217  0.63096081  0.36259642  1
  O  O31  1  0.50947522  0.88579197  0.36369037  1
  O  O32  1  0.37764097  0.49196545  0.36177731  1
  O  O33  1  0.11432347  0.49196545  0.86177731  1
  O  O34  1  0.37631575  0.88579197  0.86369037  1
  O  O35  1  0.51032765  0.63096081  0.86259642  1
  O  O36  1  0.02410794  0.81755601  0.40825486  1
  O  O37  1  0.79333135  0.97587068  0.40877729  1
  O  O38  1  0.17720998  0.19686035  0.40652928  1
  O  O39  1  0.01965037  0.19686035  0.90652928  1
  O  O40  1  0.18253933  0.97587068  0.90877729  1
  O  O41  1  0.79344807  0.81755601  0.90825486  1
  O  O42  1  0.97185677  0.16148294  0.59226781  1
  O  O43  1  0.19727439  0.02573795  0.59020392  1
  O  O44  1  0.83012802  0.80210138  0.59080556  1
  O  O45  1  0.97197337  0.80210138  0.09080556  1
  O  O46  1  0.82846356  0.02573795  0.09020392  1
  O  O47  1  0.18962617  0.16148294  0.09226781  1
  O  O48  1  0.68190276  0.14547907  0.74236967  1
  O  O49  1  0.46185197  0.30807571  0.74081346  1
  O  O50  1  0.84266461  0.53771775  0.74117499  1
  O  O51  1  0.69505414  0.53771775  0.24117499  1
  O  O52  1  0.84622474  0.30807571  0.24081346  1
  O  O53  1  0.46357731  0.14547907  0.24236967  1
  O  O54  1  0.63733618  0.50427456  0.92351022  1
  O  O55  1  0.85392374  0.35779446  0.92644733  1
  O  O56  1  0.49625469  0.13597519  0.92352252  1
  O  O57  1  0.63972149  0.13597519  0.42352252  1
  O  O58  1  0.50387172  0.35779446  0.42644733  1
  O  O59  1  0.86693937  0.50427456  0.42351022  1
  O  O60  1  0.35751142  0.48793376  0.07429981  1
  O  O61  1  0.13026316  0.64789304  0.07519160  1
  O  O62  1  0.51334489  0.87180182  0.07449397  1
  O  O63  1  0.35845592  0.87180182  0.57449397  1
  O  O64  1  0.51762888  0.64789304  0.57519160  1
  O  O65  1  0.13042134  0.48793376  0.57429981  1
  O  O66  1  0.30355768  0.83272051  0.25936923  1
  O  O67  1  0.52844153  0.69926242  0.25647998  1
  O  O68  1  0.15913228  0.47191530  0.25753935  1
  O  O69  1  0.31278201  0.47191530  0.75753935  1
  O  O70  1  0.17081989  0.69926242  0.75647998  1
  O  O71  1  0.52916183  0.83272051  0.75936923  1
loop_
_geom_bond_atom_site_label_1
_geom_bond_atom_site_label_2
_geom_bond_distance
_geom_bond_site_symmetry_2
O0 S0 1.465582 1_545
O0 Sc0 2.122568 1_555
O1 P0 1.523707 1_555
O1 Sc0 2.022880 1_665
O2 S1 1.466859 1_655
O2 Sc0 2.127635 1_655
O3 S2 1.466859 1_555
O3 Sc1 2.127635 1_555
O4 P1 1.523707 1_655
O4 Sc1 2.022880 1_665
O5 S3 1.465582 1_545
O5 Sc1 2.122568 1_655
O6 S3 1.501741 1_555
O6 Sn0 2.122321 1_665
O7 S2 1.504255 1_555
O7 Sn0 2.104532 1_555
O8 P1 1.569240 1_555
O8 Sn0 1.996685 1_565
O9 P0 1.569240 1_555
O9 Sn1 1.996685 1_665
O10 S1 1.504255 1_555
O10 Sn1 2.104532 1_555
O11 S0 1.501741 1_555
O11 Sn1 2.122320 1_565
O12 P2 1.521635 1_555
O12 Sc2 1.973465 1_555
O13 S4 1.461332 1_555
O13 Sc2 2.209087 1_555
O14 S5 1.463274 1_555
O14 Sc2 2.133900 1_555
O15 S6 1.463274 1_555
O15 Sc3 2.133900 1_555
O16 S7 1.461332 1_555
O16 Sc3 2.209087 1_555
O17 P3 1.521635 1_555
O17 Sc3 1.973465 1_555
O18 P3 1.568441 1_555
O18 Sn2 2.012462 1_554
O19 S6 1.502888 1_555
O19 Sn2 2.109639 1_554
O20 S7 1.509009 1_555
O20 Sn2 2.087547 1_554
O21 S4 1.509009 1_555
O21 Sn3 2.087547 1_555
O22 S5 1.502888 1_555
O22 Sn3 2.109639 1_555
O23 P2 1.568441 1_555
O23 Sn3 2.012463 1_555
O24 S8 1.465708 1_555
O24 Sc4 2.115449 1_556
O25 P4 1.525560 1_555
O25 Sc4 1.986482 1_556
O26 S9 1.460023 1_555
O26 Sc4 2.188654 1_556
O27 S10 1.460023 1_555
O27 Sc5 2.188654 1_555
O28 P5 1.525560 1_555
O28 Sc5 1.986482 1_555
O29 S11 1.465708 1_555
O29 Sc5 2.115449 1_555
O30 S11 1.502753 1_555
O30 Sn4 2.133809 1_555
O31 S10 1.506998 1_555
O31 Sn4 2.102633 1_555
O32 P5 1.566823 1_555
O32 Sn4 1.995868 1_555
O33 P4 1.566823 1_555
O33 Sn5 1.995868 1_555
O34 S9 1.506998 1_555
O34 Sn5 2.102633 1_555
O35 S8 1.502753 1_555
O35 Sn5 2.133810 1_555
O36 S11 1.462733 1_555
O36 Sc0 2.087096 1_565
O37 S10 1.464239 1_555
O37 Sc0 2.092487 1_665
O38 P5 1.522188 1_555
O38 Sc0 2.009608 1_555
O39 P4 1.522192 1_555
O39 Sc1 2.009608 1_555
O40 S9 1.464230 1_555
O40 Sc1 2.092487 1_565
O41 S8 1.462738 1_555
O41 Sc1 2.087096 1_665
O42 P2 1.558067 1_555
O42 Sn0 2.000699 1_655
O43 S4 1.497783 1_555
O43 Sn0 2.093036 1_555
O44 S5 1.489689 1_555
O44 Sn0 2.102646 1_665
O45 S6 1.489693 1_555
O45 Sn1 2.102646 1_665
O46 S7 1.497774 1_555
O46 Sn1 2.093036 1_655
O47 P3 1.558072 1_555
O47 Sn1 2.000699 1_555
O48 S3 1.461297 1_545
O48 Sc2 2.101971 1_555
O49 S2 1.455076 1_555
O49 Sc2 2.134424 1_555
O50 P1 1.525032 1_655
O50 Sc2 1.972453 1_555
O51 P0 1.525036 1_555
O51 Sc3 1.972453 1_555
O52 S1 1.455067 1_655
O52 Sc3 2.134424 1_555
O53 S0 1.461302 1_545
O53 Sc3 2.101971 1_555
O54 S8 1.491462 1_555
O54 Sn2 2.115962 1_555
O55 P4 1.558372 1_655
O55 Sn2 1.997236 1_555
O56 S9 1.492164 1_545
O56 Sn2 2.095028 1_555
O57 S10 1.492157 1_545
O57 Sn3 2.095028 1_555
O58 P5 1.558389 1_555
O58 Sn3 1.997236 1_555
O59 S11 1.491452 1_655
O59 Sn3 2.115962 1_555
O60 P3 1.522840 1_555
O60 Sc4 1.968609 1_555
O61 S6 1.462006 1_455
O61 Sc4 2.089620 1_555
O62 S7 1.461448 1_565
O62 Sc4 2.162177 1_555
O63 S4 1.461441 1_565
O63 Sc5 2.162177 1_555
O64 S5 1.462023 1_555
O64 Sc5 2.089620 1_555
O65 P2 1.522830 1_455
O65 Sc5 1.968609 1_555
O66 S0 1.491663 1_555
O66 Sn4 2.107780 1_555
O67 P0 1.558690 1_555
O67 Sn4 1.998674 1_555
O68 S1 1.494831 1_555
O68 Sn4 2.100523 1_555
O69 S2 1.494835 1_555
O69 Sn5 2.100523 1_555
O70 P1 1.558682 1_555
O70 Sn5 1.998674 1_555
O71 S3 1.491668 1_555
O71 Sn5 2.107780 1_555
