# generated using pymatgen
data_MgTe4Mo4(SeS)2
_symmetry_space_group_name_H-M   'P 1'
_cell_length_a   3.41585111
_cell_length_b   3.41585062
_cell_length_c   42.42576507
_cell_angle_alpha   90.15087513
_cell_angle_beta   89.85083485
_cell_angle_gamma   120.00332021
_symmetry_Int_Tables_number   1
_chemical_formula_structural   MgTe4Mo4(SeS)2
_chemical_formula_sum   'Mg1 Te4 Mo4 Se2 S2'
_cell_volume   428.68826996
_cell_formula_units_Z   1
loop_
 _symmetry_equiv_pos_site_id
 _symmetry_equiv_pos_as_xyz
  1  'x, y, z'
loop_
 _atom_site_type_symbol
 _atom_site_label
 _atom_site_symmetry_multiplicity
 _atom_site_fract_x
 _atom_site_fract_y
 _atom_site_fract_z
 _atom_site_occupancy
  Mg  Mg0  1  0.66351600  0.33657500  0.36546400  1
  Te  Te0  1  0.33233900  0.66778500  0.70151800  1
  Te  Te1  1  0.66763600  0.33223500  0.04991200  1
  Te  Te2  1  0.66564400  0.33427300  0.13795700  1
  Te  Te3  1  0.33441200  0.66566500  0.61357900  1
  Mo  Mo0  1  0.33329800  0.66660500  0.09392400  1
  Mo  Mo1  1  0.33349000  0.66646200  0.47334700  1
  Mo  Mo2  1  0.66553800  0.33447700  0.27706200  1
  Mo  Mo3  1  0.66677100  0.33331000  0.65754500  1
  Se  Se0  1  0.66772800  0.33220100  0.43444400  1
  Se  Se1  1  0.66599300  0.33400100  0.51194500  1
  S  S0  1  0.33163800  0.66841500  0.31266400  1
  S  S1  1  0.33271100  0.66728200  0.24223400  1
loop_
_geom_bond_atom_site_label_1
_geom_bond_atom_site_label_2
_geom_bond_distance
_geom_bond_site_symmetry_2
Mg0 Se0 2.926716 1_555
Mg0 S0 2.983237 1_555
Mg0 S0 2.985103 1_545
Mg0 S0 2.985106 1_655
Mo0 Te1 2.715671 1_455
Mo0 Te1 2.715672 1_565
Mo0 Te1 2.716172 1_555
Mo0 Te2 2.716329 1_555
Mo0 Te2 2.716492 1_565
Mo0 Te2 2.716533 1_455
Mo1 Se1 2.563334 1_555
Mo1 Se1 2.563342 1_455
Mo1 Se1 2.563372 1_565
Mo1 Se0 2.571438 1_455
Mo1 Se0 2.571451 1_565
Mo1 Se0 2.572016 1_555
Mo2 S1 2.463653 1_545
Mo2 S1 2.463662 1_655
Mo2 S1 2.465425 1_555
Mo2 S0 2.483253 1_555
Mo2 S0 2.484473 1_545
Mo2 S0 2.484500 1_655
Mo3 Te0 2.714308 1_545
Mo3 Te0 2.714330 1_655
Mo3 Te3 2.714446 1_555
Mo3 Te3 2.714492 1_545
Mo3 Te3 2.714554 1_655
Mo3 Te0 2.715466 1_555
