# generated using pymatgen
data_DyCoSn2
_symmetry_space_group_name_H-M   'P 1'
_cell_length_a   9.52901715
_cell_length_b   9.52901715
_cell_length_c   4.42680400
_cell_angle_alpha   90.00000000
_cell_angle_beta   90.00000000
_cell_angle_gamma   153.63551480
_symmetry_Int_Tables_number   1
_chemical_formula_structural   DyCoSn2
_chemical_formula_sum   'Dy2 Co2 Sn4'
_cell_volume   178.50386099
_cell_formula_units_Z   2
loop_
 _symmetry_equiv_pos_site_id
 _symmetry_equiv_pos_as_xyz
  1  'x, y, z'
loop_
 _atom_site_type_symbol
 _atom_site_label
 _atom_site_symmetry_multiplicity
 _atom_site_fract_x
 _atom_site_fract_y
 _atom_site_fract_z
 _atom_site_occupancy
  Dy  Dy0  1  0.88427000  0.11573000  0.25000000  1
  Dy  Dy1  1  0.11573000  0.88427000  0.75000000  1
  Co  Co0  1  0.32168200  0.67831800  0.75000000  1
  Co  Co1  1  0.67831800  0.32168200  0.25000000  1
  Sn  Sn0  1  0.25116900  0.74883100  0.25000000  1
  Sn  Sn1  1  0.74883100  0.25116900  0.75000000  1
  Sn  Sn2  1  0.45208200  0.54791800  0.75000000  1
  Sn  Sn3  1  0.54791800  0.45208200  0.25000000  1
loop_
_geom_bond_atom_site_label_1
_geom_bond_atom_site_label_2
_geom_bond_distance
_geom_bond_site_symmetry_2
Dy0 Sn0 3.289714 1_655
Dy0 Sn0 3.289714 1_545
Dy0 Sn2 3.347355 1_655
Dy0 Sn2 3.347355 1_654
Dy0 Sn2 3.347355 1_544
Dy0 Sn2 3.347355 1_545
Dy0 Sn1 3.348918 1_554
Dy0 Sn1 3.348918 1_555
Dy0 Sn3 3.734086 1_545
Dy0 Sn3 3.734086 1_655
Dy1 Sn1 3.289714 1_455
Dy1 Sn1 3.289714 1_565
Dy1 Sn3 3.347355 1_565
Dy1 Sn3 3.347355 1_566
Dy1 Sn3 3.347355 1_456
Dy1 Sn3 3.347355 1_455
Dy1 Sn0 3.348918 1_555
Dy1 Sn0 3.348918 1_556
Dy1 Sn2 3.734086 1_455
Dy1 Sn2 3.734086 1_565
Co0 Sn2 2.419683 1_555
Co0 Sn1 2.559236 1_455
Co0 Sn1 2.559236 1_565
Co0 Sn0 2.571212 1_555
Co0 Sn0 2.571212 1_556
Co0 Dy0 3.312134 1_456
Co0 Dy0 3.312134 1_455
Co0 Dy0 3.312134 1_565
Co0 Dy0 3.312134 1_566
Co1 Sn3 2.419683 1_555
Co1 Sn0 2.559236 1_655
Co1 Sn0 2.559236 1_545
Co1 Sn1 2.571212 1_554
Co1 Sn1 2.571212 1_555
Co1 Dy1 3.312134 1_545
Co1 Dy1 3.312134 1_655
Co1 Dy1 3.312134 1_654
Co1 Dy1 3.312134 1_544
Sn2 Sn3 2.839289 1_555
Sn2 Sn3 2.839289 1_556
