# generated using pymatgen
data_MgCo4(HgO4)2
_symmetry_space_group_name_H-M   'P 1'
_cell_length_a   6.67460906
_cell_length_b   6.60626069
_cell_length_c   6.62967903
_cell_angle_alpha   59.88266716
_cell_angle_beta   90.00000000
_cell_angle_gamma   119.95708792
_symmetry_Int_Tables_number   1
_chemical_formula_structural   MgCo4(HgO4)2
_chemical_formula_sum   'Mg1 Co4 Hg2 O8'
_cell_volume   206.47569582
_cell_formula_units_Z   1
loop_
 _symmetry_equiv_pos_site_id
 _symmetry_equiv_pos_as_xyz
  1  'x, y, z'
loop_
 _atom_site_type_symbol
 _atom_site_label
 _atom_site_symmetry_multiplicity
 _atom_site_fract_x
 _atom_site_fract_y
 _atom_site_fract_z
 _atom_site_occupancy
  Mg  Mg0  1  0.49900200  0.98150600  0.50924700  1
  Co  Co0  1  0.64424300  0.29334800  0.07386500  1
  Co  Co1  1  0.64424300  0.29334800  0.63278700  1
  Co  Co2  1  0.64925800  0.69724600  0.65137700  1
  Co  Co3  1  0.07362100  0.73179200  0.63410400  1
  Hg  Hg0  1  0.00273900  0.03586200  0.98206900  1
  Hg  Hg1  1  0.24399200  0.49096700  0.25451600  1
  O  O0  1  0.83285200  0.21139500  0.39430200  1
  O  O1  1  0.85547700  0.30350600  0.84824700  1
  O  O2  1  0.87344200  0.73116800  0.42045400  1
  O  O3  1  0.37417500  0.19952300  0.40023900  1
  O  O4  1  0.37624200  0.75178100  0.40119800  1
  O  O5  1  0.43103300  0.29560900  0.85219600  1
  O  O6  1  0.87344200  0.73116800  0.84837800  1
  O  O7  1  0.37624200  0.75178100  0.84702100  1
loop_
_geom_bond_atom_site_label_1
_geom_bond_atom_site_label_2
_geom_bond_distance
_geom_bond_site_symmetry_2
Mg0 O0 1.819722 1_565
Mg0 O7 1.826682 1_555
Mg0 O4 1.826682 1_555
Mg0 O3 1.855999 1_565
Co0 O1 2.008595 1_554
Co0 O6 2.045150 1_554
Co0 O5 2.045562 1_554
Co0 Mg0 2.356563 1_545
Co0 O3 2.419423 1_555
Co0 O0 2.432577 1_555
Co0 O4 2.554646 1_545
Co1 O1 2.008595 1_555
Co1 O2 2.045150 1_555
Co1 O5 2.045567 1_555
Co1 Mg0 2.356563 1_545
Co1 O3 2.419418 1_555
Co1 O0 2.432582 1_555
Co1 O7 2.554646 1_545
Co2 O5 1.878680 1_555
Co2 O2 1.988432 1_555
Co2 O6 1.988432 1_555
Co2 O0 2.444788 1_565
Co2 O7 2.501490 1_555
Co2 O4 2.501490 1_555
Co3 O6 1.947270 1_455
Co3 O2 1.947270 1_455
Co3 O1 1.998876 1_455
Co3 O3 2.231056 1_565
Co3 Mg0 2.328052 1_555
Co3 O7 2.451643 1_555
Co3 O4 2.451643 1_555
Hg0 O1 2.245204 1_455
Hg0 O5 2.340141 1_555
Hg0 O2 2.374363 1_446
Hg0 O6 2.374363 1_445
Hg1 O7 2.203659 1_554
Hg1 O4 2.203664 1_555
Hg1 O0 2.240796 1_455
Hg1 O3 2.280240 1_555
