# generated using pymatgen
data_Na14Ti4Zn4Si7S5O48
_symmetry_space_group_name_H-M   'P 1'
_cell_length_a   18.11404326
_cell_length_b   9.08407286
_cell_length_c   22.03458390
_cell_angle_alpha   90.18091964
_cell_angle_beta   89.21886348
_cell_angle_gamma   120.00744810
_symmetry_Int_Tables_number   1
_chemical_formula_structural   Na14Ti4Zn4Si7S5O48
_chemical_formula_sum   'Na42 Ti12 Zn12 Si21 S15 O144'
_cell_volume   3139.45781894
_cell_formula_units_Z   3
loop_
 _symmetry_equiv_pos_site_id
 _symmetry_equiv_pos_as_xyz
  1  'x, y, z'
loop_
 _atom_site_type_symbol
 _atom_site_label
 _atom_site_symmetry_multiplicity
 _atom_site_fract_x
 _atom_site_fract_y
 _atom_site_fract_z
 _atom_site_occupancy
  Na  Na0  1  0.80864229  0.99376601  0.25405849  1
  Na  Na1  1  0.18129212  0.35208702  0.25667126  1
  Na  Na2  1  0.68870492  0.36947138  0.25632597  1
  Na  Na3  1  0.99354489  0.63289367  0.24746655  1
  Na  Na4  1  0.49837720  0.63236119  0.25379835  1
  Na  Na5  1  0.30996727  0.62456459  0.74294461  1
  Na  Na6  1  0.99744738  0.36093439  0.74799294  1
  Na  Na7  1  0.49557155  0.35807892  0.74176391  1
  Na  Na8  1  0.18857050  0.00800576  0.75192801  1
  Na  Na9  1  0.68359363  0.01210197  0.75225482  1
  Na  Na10  1  0.15137197  0.33026231  0.58709890  1
  Na  Na11  1  0.65814972  0.33564952  0.57564500  1
  Na  Na12  1  0.33689581  0.98754996  0.58020908  1
  Na  Na13  1  0.83782233  0.98489266  0.57813055  1
  Na  Na14  1  0.15700536  0.98289082  0.08179112  1
  Na  Na15  1  0.65137728  0.97197881  0.09073048  1
  Na  Na16  1  0.33735541  0.69015014  0.08402387  1
  Na  Na17  1  0.83479519  0.68932854  0.08348096  1
  Na  Na18  1  0.47847168  0.67213749  0.92247475  1
  Na  Na19  1  0.97477979  0.66829085  0.91940117  1
  Na  Na20  1  0.35672192  0.04656595  0.91463206  1
  Na  Na21  1  0.85444307  0.04320450  0.91173851  1
  Na  Na22  1  0.16849431  0.28297270  0.91445152  1
  Na  Na23  1  0.66926103  0.28673631  0.91074636  1
  Na  Na24  1  0.47738817  0.28622730  0.42086799  1
  Na  Na25  1  0.97463771  0.27673631  0.42415007  1
  Na  Na26  1  0.16875680  0.05567693  0.41012760  1
  Na  Na27  1  0.67334148  0.04600982  0.41219203  1
  Na  Na28  1  0.35623848  0.66822468  0.41221662  1
  Na  Na29  1  0.85437756  0.67202301  0.41705651  1
  Na  Na30  1  0.99540735  0.99173693  0.49691662  1
  Na  Na31  1  0.50372126  0.99507679  0.49863864  1
  Na  Na32  1  0.00002456  0.00737166  0.00036244  1
  Na  Na33  1  0.50048271  0.00901283  0.00070949  1
  Na  Na34  1  0.32753296  0.32396823  0.82716475  1
  Na  Na35  1  0.82580151  0.33821411  0.83015341  1
  Na  Na36  1  0.32817730  0.31639112  0.33246711  1
  Na  Na37  1  0.82596750  0.31950686  0.33264988  1
  Na  Na38  1  0.16557921  0.66955432  0.17057642  1
  Na  Na39  1  0.66068811  0.65641013  0.17206147  1
  Na  Na40  1  0.16085268  0.66378583  0.66972617  1
  Na  Na41  1  0.66365181  0.65849407  0.66525464  1
  Ti  Ti0  1  0.99182705  0.00708853  0.64890235  1
  Ti  Ti1  1  0.50508475  0.03264273  0.64950118  1
  Ti  Ti2  1  0.00480137  0.98043080  0.15077636  1
  Ti  Ti3  1  0.49211307  0.97690091  0.15007631  1
  Ti  Ti4  1  0.82812347  0.32800096  0.67870162  1
  Ti  Ti5  1  0.32733658  0.32839832  0.17990717  1
  Ti  Ti6  1  0.16681901  0.66726715  0.02956040  1
  Ti  Ti7  1  0.66443582  0.67772626  0.01605870  1
  Ti  Ti8  1  0.16474799  0.65382814  0.51623571  1
  Ti  Ti9  1  0.67553875  0.67935504  0.52630611  1
  Ti  Ti10  1  0.18211636  0.68452267  0.31290673  1
  Ti  Ti11  1  0.68222153  0.68157698  0.81167236  1
  Zn  Zn0  1  0.99956340  0.00095405  0.35171565  1
  Zn  Zn1  1  0.49558763  0.99063654  0.34383303  1
  Zn  Zn2  1  0.99515480  0.99869906  0.84178085  1
  Zn  Zn3  1  0.50898747  0.01322381  0.84330350  1
  Zn  Zn4  1  0.33472566  0.31992816  0.68526953  1
  Zn  Zn5  1  0.83470716  0.34592768  0.18634577  1
  Zn  Zn6  1  0.33524028  0.33281891  0.00552307  1
  Zn  Zn7  1  0.83044431  0.34463810  0.97933931  1
  Zn  Zn8  1  0.33292462  0.31993863  0.47956002  1
  Zn  Zn9  1  0.83176482  0.31754337  0.49329695  1
  Zn  Zn10  1  0.67718080  0.69688882  0.31197646  1
  Zn  Zn11  1  0.17101314  0.65958336  0.80834825  1
  Si  Si0  1  0.15040593  0.99807422  0.25349656  1
  Si  Si1  1  0.64629031  0.00491732  0.25064909  1
  Si  Si2  1  0.35136070  0.69255940  0.25218277  1
  Si  Si3  1  0.85289926  0.70508264  0.25347950  1
  Si  Si4  1  0.14668719  0.28584321  0.75166162  1
  Si  Si5  1  0.65325988  0.30847894  0.75200637  1
  Si  Si6  1  0.35410450  0.99825278  0.75484071  1
  Si  Si7  1  0.85169397  0.01175318  0.75235930  1
  Si  Si8  1  0.48084918  0.34202881  0.58195605  1
  Si  Si9  1  0.98401066  0.34251100  0.58447797  1
  Si  Si10  1  0.67953664  0.03291858  0.58289392  1
  Si  Si11  1  0.84113962  0.63069297  0.57781292  1
  Si  Si12  1  0.48318808  0.62645959  0.08325747  1
  Si  Si13  1  0.97691960  0.62015090  0.08258429  1
  Si  Si14  1  0.34011204  0.04474328  0.07876849  1
  Si  Si15  1  0.18012396  0.32614235  0.08161355  1
  Si  Si16  1  0.81571276  0.67228946  0.91800843  1
  Si  Si17  1  0.66533655  0.96105302  0.91423238  1
  Si  Si18  1  0.31612765  0.96060796  0.41875247  1
  Si  Si19  1  0.81364802  0.96916831  0.41633955  1
  Si  Si20  1  0.16781866  0.37406774  0.41454921  1
  S  S0  1  0.00111800  0.29087552  0.25098304  1
  S  S1  1  0.49418366  0.28505480  0.24934583  1
  S  S2  1  0.99581775  0.70416056  0.75043995  1
  S  S3  1  0.50057373  0.70943707  0.75281865  1
  S  S4  1  0.18005768  0.02731870  0.58310652  1
  S  S5  1  0.33325425  0.63559109  0.58222589  1
  S  S6  1  0.83306122  0.03264222  0.08098066  1
  S  S7  1  0.67963680  0.33325931  0.08225870  1
  S  S8  1  0.31053870  0.66151826  0.91773427  1
  S  S9  1  0.02655557  0.38656659  0.91864518  1
  S  S10  1  0.52353385  0.38523038  0.91557152  1
  S  S11  1  0.16813041  0.95269412  0.91634260  1
  S  S12  1  0.66589950  0.37947728  0.41511271  1
  S  S13  1  0.02602840  0.66447813  0.41516476  1
  S  S14  1  0.52480131  0.66528523  0.41810789  1
  O  O0  1  0.11417450  0.04878886  0.31241765  1
  O  O1  1  0.60854476  0.04749987  0.31180794  1
  O  O2  1  0.40650874  0.76756235  0.31250772  1
  O  O3  1  0.91132939  0.79087484  0.31250757  1
  O  O4  1  0.48303486  0.19551448  0.30806314  1
  O  O5  1  0.99469621  0.20542959  0.30941943  1
  O  O6  1  0.10983003  0.17129712  0.81381791  1
  O  O7  1  0.62050328  0.19027634  0.81262583  1
  O  O8  1  0.49257132  0.78106696  0.81200268  1
  O  O9  1  0.98653705  0.77296240  0.80988743  1
  O  O10  1  0.40915095  0.02082030  0.81578111  1
  O  O11  1  0.90625547  0.04483525  0.81317823  1
  O  O12  1  0.40678506  0.97810908  0.69523233  1
  O  O13  1  0.90082512  0.98599114  0.69269429  1
  O  O14  1  0.08330165  0.17304812  0.69456539  1
  O  O15  1  0.58634791  0.20750766  0.69506451  1
  O  O16  1  0.00222987  0.81557383  0.69987526  1
  O  O17  1  0.51207816  0.82532911  0.70241254  1
  O  O18  1  0.40001858  0.81409028  0.19195049  1
  O  O19  1  0.90719172  0.83093905  0.19294972  1
  O  O20  1  0.01286473  0.19747404  0.19956372  1
  O  O21  1  0.49937740  0.18443294  0.19791679  1
  O  O22  1  0.08678161  0.96738500  0.19380002  1
  O  O23  1  0.58291401  0.99438801  0.19293613  1
  O  O24  1  0.44197774  0.36960456  0.64453944  1
  O  O25  1  0.93448293  0.35763526  0.64495951  1
  O  O26  1  0.23351562  0.10566086  0.63737402  1
  O  O27  1  0.74762696  0.13047528  0.63938105  1
  O  O28  1  0.32040471  0.53260585  0.63729053  1
  O  O29  1  0.82172793  0.49239795  0.63322087  1
  O  O30  1  0.43095702  0.50595052  0.14141113  1
  O  O31  1  0.94139858  0.51357866  0.14424888  1
  O  O32  1  0.31736150  0.14480493  0.13167805  1
  O  O33  1  0.82025525  0.11092516  0.13531782  1
  O  O34  1  0.24755927  0.36685901  0.13797502  1
  O  O35  1  0.73377167  0.36136436  0.13548626  1
  O  O36  1  0.21705712  0.28344770  0.02047048  1
  O  O37  1  0.71666729  0.29953608  0.02635794  1
  O  O38  1  0.42625283  0.56140590  0.02221452  1
  O  O39  1  0.91821861  0.54970139  0.02286140  1
  O  O40  1  0.35314717  0.13866689  0.01405133  1
  O  O41  1  0.83993046  0.12734268  0.02497032  1
  O  O42  1  0.21814711  0.13630524  0.52828004  1
  O  O43  1  0.71135365  0.15064730  0.52273402  1
  O  O44  1  0.33933456  0.55157939  0.52691046  1
  O  O45  1  0.85236890  0.55409364  0.51471045  1
  O  O46  1  0.41785197  0.28531952  0.52405317  1
  O  O47  1  0.92707794  0.29188866  0.52459455  1
  O  O48  1  0.26292057  0.66954881  0.97255490  1
  O  O49  1  0.75905112  0.68248735  0.97684992  1
  O  O50  1  0.08078295  0.48966134  0.97008390  1
  O  O51  1  0.57476062  0.48173450  0.96965374  1
  O  O52  1  0.16890455  0.85695104  0.97135720  1
  O  O53  1  0.65694251  0.83989398  0.97507809  1
  O  O54  1  0.26044962  0.83816045  0.47774208  1
  O  O55  1  0.75754075  0.83954310  0.47525193  1
  O  O56  1  0.16036798  0.47939669  0.47569848  1
  O  O57  1  0.66382901  0.47238013  0.47066230  1
  O  O58  1  0.07672086  0.66777552  0.46946174  1
  O  O59  1  0.57762383  0.67015947  0.46943154  1
  O  O60  1  0.07130446  0.65617934  0.35935264  1
  O  O61  1  0.55975487  0.64349798  0.35951713  1
  O  O62  1  0.25583476  0.85237944  0.35935581  1
  O  O63  1  0.75768915  0.89403033  0.35561740  1
  O  O64  1  0.17406837  0.49607542  0.35635518  1
  O  O65  1  0.66574942  0.47128358  0.35955039  1
  O  O66  1  0.06389621  0.47904345  0.86073661  1
  O  O67  1  0.56860351  0.48084295  0.85963723  1
  O  O68  1  0.17003257  0.86232090  0.86061263  1
  O  O69  1  0.67204608  0.85109049  0.85644807  1
  O  O70  1  0.26258093  0.64905277  0.86215016  1
  O  O71  1  0.75535238  0.65950581  0.85886872  1
  O  O72  1  0.02260471  0.82317078  0.41879193  1
  O  O73  1  0.52085928  0.82558394  0.42006022  1
  O  O74  1  0.40847483  0.97143931  0.41685693  1
  O  O75  1  0.90445006  0.97107433  0.41915123  1
  O  O76  1  0.08195999  0.19052626  0.41826768  1
  O  O77  1  0.58784570  0.20723736  0.41930140  1
  O  O78  1  0.02269101  0.21951603  0.92147007  1
  O  O79  1  0.51687884  0.21608069  0.91901806  1
  O  O80  1  0.08912603  0.96419613  0.92098193  1
  O  O81  1  0.57841719  0.97273387  0.91684157  1
  O  O82  1  0.39549012  0.81821835  0.91951037  1
  O  O83  1  0.90822153  0.84606333  0.91691331  1
  O  O84  1  0.49239890  0.16589052  0.59056501  1
  O  O85  1  0.99884127  0.17383611  0.59373373  1
  O  O86  1  0.09383729  0.00754818  0.59018853  1
  O  O87  1  0.58478223  0.00693636  0.59910662  1
  O  O88  1  0.40803163  0.81043255  0.58583877  1
  O  O89  1  0.91886747  0.82565907  0.59168115  1
  O  O90  1  0.49766658  0.82270213  0.09234000  1
  O  O91  1  0.99254902  0.81991847  0.08949206  1
  O  O92  1  0.41730642  0.00555572  0.09129484  1
  O  O93  1  0.90730594  0.00496304  0.08474653  1
  O  O94  1  0.08640042  0.16078108  0.09504956  1
  O  O95  1  0.59327237  0.18095238  0.08906540  1
  O  O96  1  0.34468225  0.16759931  0.74977261  1
  O  O97  1  0.83924125  0.17738858  0.74419146  1
  O  O98  1  0.24414589  0.32069861  0.74162790  1
  O  O99  1  0.74611984  0.32654691  0.73801558  1
  O  O100  1  0.42212767  0.54052911  0.74774923  1
  O  O101  1  0.92165558  0.52945624  0.74538552  1
  O  O102  1  0.33915304  0.50165960  0.24275742  1
  O  O103  1  0.84348173  0.51691049  0.24847843  1
  O  O104  1  0.41986169  0.31241884  0.24346217  1
  O  O105  1  0.92259271  0.30182080  0.24556302  1
  O  O106  1  0.24354927  0.16611857  0.23789076  1
  O  O107  1  0.74312706  0.16452356  0.24059030  1
  O  O108  1  0.32011540  0.50791911  0.91864453  1
  O  O109  1  0.81873673  0.49656284  0.91525460  1
  O  O110  1  0.43848793  0.37077234  0.91618511  1
  O  O111  1  0.93899291  0.36163139  0.92277939  1
  O  O112  1  0.24475371  0.12608539  0.91446781  1
  O  O113  1  0.75377980  0.14179901  0.91850961  1
  O  O114  1  0.31834095  0.14116926  0.41572690  1
  O  O115  1  0.82397615  0.15898583  0.42243827  1
  O  O116  1  0.25653318  0.37072565  0.41826138  1
  O  O117  1  0.74385193  0.36454294  0.41346758  1
  O  O118  1  0.43613086  0.51585389  0.42243941  1
  O  O119  1  0.94097709  0.51260669  0.41534346  1
  O  O120  1  0.17704287  0.50627400  0.07633415  1
  O  O121  1  0.67359218  0.49064443  0.07585667  1
  O  O122  1  0.07865755  0.66298467  0.07275786  1
  O  O123  1  0.58058016  0.65375009  0.07869613  1
  O  O124  1  0.25031086  0.84891485  0.07549991  1
  O  O125  1  0.75243585  0.85348517  0.07848520  1
  O  O126  1  0.17411843  0.85818118  0.57682899  1
  O  O127  1  0.67743556  0.84864070  0.57928659  1
  O  O128  1  0.25312712  0.65451663  0.58011865  1
  O  O129  1  0.75206210  0.64832182  0.57682898  1
  O  O130  1  0.08227141  0.50848893  0.57989975  1
  O  O131  1  0.58046389  0.49563569  0.57243255  1
  O  O132  1  0.15130807  0.81714011  0.25658731  1
  O  O133  1  0.64284188  0.82129981  0.24714063  1
  O  O134  1  0.25500482  0.67284512  0.25244077  1
  O  O135  1  0.75855106  0.68814451  0.24861988  1
  O  O136  1  0.07778623  0.46685412  0.25006449  1
  O  O137  1  0.57397690  0.45353514  0.24860957  1
  O  O138  1  0.14592277  0.46641906  0.74998837  1
  O  O139  1  0.65166964  0.48847082  0.75633534  1
  O  O140  1  0.07618195  0.69391143  0.74965854  1
  O  O141  1  0.57719998  0.68654344  0.75254636  1
  O  O142  1  0.25931138  0.82628448  0.75065136  1
  O  O143  1  0.75555610  0.83755228  0.75292442  1
loop_
_geom_bond_atom_site_label_1
_geom_bond_atom_site_label_2
_geom_bond_distance
_geom_bond_site_symmetry_2
Na0 O107 2.399239 1_565
Na0 O63 2.408441 1_555
Na0 O135 2.454923 1_555
Na0 O105 2.518306 1_565
Na0 O133 2.608124 1_555
Na0 O33 2.793054 1_565
Na1 O106 2.487035 1_555
Na1 O102 2.491876 1_555
Na1 O134 2.527561 1_555
Na1 O136 2.566502 1_555
Na1 O64 2.588008 1_555
Na1 O0 2.684809 1_555
Na1 O34 2.838102 1_555
Na1 O20 2.944757 1_555
Na2 O103 2.432380 1_555
Na2 O135 2.518646 1_555
Na2 O107 2.525972 1_555
Na2 O137 2.555137 1_555
Na2 O65 2.558761 1_555
Na2 O35 2.785890 1_555
Na2 O1 2.807809 1_555
Na3 O103 2.373470 1_555
Na3 O132 2.497550 1_655
Na3 O31 2.501736 1_555
Na3 O105 2.614012 1_555
Na3 O136 2.629046 1_655
Na3 O60 2.810716 1_655
Na3 O22 2.884227 1_655
Na3 O3 2.897913 1_555
Na4 O133 2.305192 1_555
Na4 O102 2.525781 1_555
Na4 O104 2.528207 1_555
Na4 O61 2.574758 1_555
Na4 O137 2.597480 1_555
Na4 O30 2.757623 1_555
Na4 O2 2.815444 1_555
Na5 O98 2.398009 1_555
Na5 O142 2.429857 1_555
Na5 O100 2.505864 1_555
Na5 O28 2.507399 1_555
Na5 O138 2.576194 1_555
Na5 O70 2.794879 1_555
Na5 O12 2.972010 1_555
Na6 O138 2.361932 1_655
Na6 O97 2.495192 1_555
Na6 O101 2.517258 1_555
Na6 O25 2.547935 1_555
Na6 O140 2.621171 1_655
Na6 O66 2.746719 1_655
Na6 O11 2.872984 1_555
Na7 O24 2.388024 1_555
Na7 O96 2.398749 1_555
Na7 O139 2.484676 1_555
Na7 O100 2.594895 1_555
Na7 O141 2.595768 1_555
Na7 O15 2.797879 1_555
Na7 O67 2.887805 1_555
Na8 O96 2.448835 1_555
Na8 O98 2.504233 1_555
Na8 O140 2.545579 1_545
Na8 O142 2.546041 1_545
Na8 O26 2.656469 1_555
Na8 O68 2.674497 1_545
Na8 O6 2.853908 1_555
Na9 O97 2.447214 1_555
Na9 O143 2.506323 1_545
Na9 O99 2.510083 1_555
Na9 O141 2.599877 1_545
Na9 O69 2.675092 1_545
Na9 O27 2.716277 1_555
Na9 O7 2.736857 1_555
Na9 O17 2.923370 1_545
Na10 O85 2.395362 1_455
Na10 O130 2.499428 1_555
Na10 O86 2.574535 1_555
Na10 O128 2.581080 1_555
Na10 O14 2.710662 1_555
Na10 O56 2.770658 1_555
Na10 O42 2.884725 1_555
Na10 O28 2.902926 1_555
Na11 O129 2.475867 1_555
Na11 O131 2.479182 1_555
Na11 O43 2.586380 1_555
Na11 O57 2.605436 1_555
Na11 O84 2.616464 1_555
Na11 O87 2.640394 1_555
Na11 O29 2.878847 1_555
Na11 O15 2.895234 1_555
Na12 O84 2.462065 1_565
Na12 O88 2.518687 1_555
Na12 O126 2.572964 1_555
Na12 O128 2.619802 1_555
Na12 O46 2.646215 1_565
Na12 O54 2.653898 1_555
Na12 O26 2.860304 1_565
Na12 O12 2.868997 1_555
Na13 O127 2.524792 1_555
Na13 O89 2.544671 1_555
Na13 O85 2.566640 1_565
Na13 O129 2.648009 1_555
Na13 O55 2.673454 1_555
Na13 O47 2.691045 1_565
Na13 O13 2.782433 1_555
Na13 O27 2.886095 1_565
Na14 O122 2.525417 1_555
Na14 O94 2.527136 1_565
Na14 O124 2.531202 1_555
Na14 O91 2.582901 1_455
Na14 O22 2.732520 1_555
Na14 O36 2.734224 1_565
Na14 O52 2.737030 1_554
Na14 O32 2.759077 1_565
Na15 O90 2.411154 1_555
Na15 O123 2.523505 1_555
Na15 O125 2.556962 1_555
Na15 O95 2.590899 1_565
Na15 O23 2.612401 1_555
Na15 O53 2.835245 1_554
Na15 O33 2.851025 1_565
Na15 O37 2.953909 1_565
Na16 O92 2.487025 1_565
Na16 O120 2.532085 1_555
Na16 O90 2.536086 1_555
Na16 O124 2.624058 1_555
Na16 O18 2.643843 1_555
Na16 O38 2.762164 1_555
Na16 O48 2.778627 1_554
Na16 O34 2.806259 1_555
Na17 O93 2.486099 1_565
Na17 O91 2.491816 1_555
Na17 O121 2.559762 1_555
Na17 O125 2.586923 1_555
Na17 O49 2.721857 1_554
Na17 O39 2.743700 1_555
Na17 O19 2.751744 1_555
Na17 O35 2.837084 1_555
Na18 O38 2.396274 1_556
Na18 O81 2.408467 1_555
Na18 O82 2.454173 1_555
Na18 O110 2.460787 1_555
Na18 O108 2.487243 1_555
Na18 O8 2.591375 1_555
Na19 O80 2.439129 1_655
Na19 O83 2.452397 1_555
Na19 O109 2.455025 1_555
Na19 O39 2.501025 1_556
Na19 O111 2.525815 1_555
Na19 O9 2.563278 1_555
Na20 O40 2.354129 1_556
Na20 O10 2.421459 1_555
Na20 O112 2.470028 1_555
Na20 O82 2.503602 1_545
Na20 O79 2.516994 1_555
Na20 O110 2.550741 1_555
Na21 O11 2.351216 1_555
Na21 O113 2.403023 1_555
Na21 O83 2.432764 1_545
Na21 O111 2.519241 1_555
Na21 O78 2.651927 1_655
Na21 O41 2.655077 1_556
Na22 O78 2.407943 1_555
Na22 O112 2.430730 1_555
Na22 O6 2.459084 1_555
Na22 O108 2.473760 1_555
Na22 O36 2.506650 1_556
Na22 O80 2.511187 1_545
Na23 O7 2.342716 1_555
Na23 O109 2.412097 1_555
Na23 O113 2.476161 1_555
Na23 O81 2.482683 1_545
Na23 O79 2.505829 1_555
Na23 O37 2.682972 1_556
Na24 O77 2.439955 1_555
Na24 O74 2.484785 1_545
Na24 O46 2.501384 1_555
Na24 O114 2.502015 1_555
Na24 O118 2.543417 1_555
Na24 O4 2.632906 1_555
Na25 O115 2.382483 1_555
Na25 O47 2.392553 1_555
Na25 O75 2.410241 1_545
Na25 O76 2.434067 1_655
Na25 O119 2.512574 1_555
Na25 O5 2.672568 1_555
Na26 O0 2.369001 1_555
Na26 O114 2.421545 1_555
Na26 O72 2.429423 1_545
Na26 O76 2.433519 1_555
Na26 O116 2.490759 1_555
Na26 O42 2.740586 1_555
Na27 O115 2.400810 1_555
Na27 O73 2.475029 1_545
Na27 O117 2.511726 1_555
Na27 O1 2.521367 1_555
Na27 O43 2.585914 1_555
Na27 O77 2.613165 1_555
Na27 O63 2.800268 1_545
Na28 O2 2.367820 1_555
Na28 O116 2.386808 1_555
Na28 O74 2.426237 1_555
Na28 O118 2.464818 1_555
Na28 O73 2.591177 1_555
Na28 O44 2.697170 1_555
Na29 O75 2.395942 1_555
Na29 O45 2.398434 1_555
Na29 O117 2.495171 1_555
Na29 O3 2.524632 1_555
Na29 O119 2.613331 1_555
Na29 O72 2.643947 1_655
Na30 O75 2.334873 1_555
Na30 O76 2.415814 1_665
Na30 O72 2.503127 1_655
Na30 O89 2.531256 1_555
Na30 O85 2.677637 1_565
Na30 O86 2.695435 1_665
Na31 O73 2.431356 1_555
Na31 O74 2.445779 1_555
Na31 O77 2.470564 1_565
Na31 O88 2.555626 1_555
Na31 O84 2.615304 1_565
Na31 O87 2.645243 1_565
Na32 O83 2.433651 1_444
Na32 O78 2.472771 1_554
Na32 O93 2.481297 1_455
Na32 O80 2.523896 1_544
Na32 O91 2.560911 1_445
Na32 O94 2.575433 1_555
Na33 O81 2.430429 1_544
Na33 O92 2.475103 1_555
Na33 O79 2.512885 1_554
Na33 O95 2.549349 1_555
Na33 O82 2.568724 1_544
Na33 O90 2.622206 1_545
Na34 O96 2.331073 1_555
Na34 O98 2.422225 1_555
Na34 O112 2.535240 1_555
Na34 O100 2.537047 1_555
Na34 O108 2.658836 1_555
Na34 O110 2.704687 1_555
Na35 O109 2.400484 1_555
Na35 O97 2.471253 1_555
Na35 O99 2.478272 1_555
Na35 O113 2.510049 1_555
Na35 O101 2.537039 1_555
Na35 O111 2.844272 1_555
Na36 O114 2.378432 1_555
Na36 O116 2.463633 1_555
Na36 O102 2.540671 1_555
Na36 O106 2.555839 1_555
Na36 O104 2.564452 1_555
Na36 O118 2.752514 1_555
Na37 O115 2.450618 1_555
Na37 O117 2.466354 1_555
Na37 O103 2.488392 1_555
Na37 O107 2.510079 1_555
Na37 O105 2.638044 1_555
Na37 O119 2.676811 1_555
Na38 O132 2.402777 1_555
Na38 O134 2.430966 1_555
Na38 O136 2.450053 1_555
Na38 O124 2.613789 1_555
Na38 O120 2.613855 1_555
Na38 O122 2.669469 1_555
Na39 O133 2.353517 1_555
Na39 O135 2.374576 1_555
Na39 O137 2.400106 1_555
Na39 O123 2.526770 1_555
Na39 O121 2.670999 1_555
Na39 O125 2.678136 1_555
Na40 O140 2.423310 1_555
Na40 O138 2.436670 1_555
Na40 O142 2.444642 1_555
Na40 O130 2.446332 1_555
Na40 O128 2.597908 1_555
Na40 O126 2.636501 1_555
Na41 O139 2.476438 1_555
Na41 O127 2.492104 1_555
Na41 O129 2.536019 1_555
Na41 O131 2.545133 1_555
Na41 O143 2.551132 1_555
Na41 O141 2.555533 1_555
O0 Si0 1.613681 1_545
O0 Zn0 2.073579 1_455
O1 Si1 1.633796 1_555
O1 Zn1 1.963956 1_545
O2 Si2 1.605834 1_555
O2 Zn1 1.984304 1_555
O3 Si3 1.620308 1_555
O3 Zn0 1.979697 1_565
O4 S1 1.487131 1_555
O4 Zn1 2.138725 1_545
O5 S0 1.478479 1_655
O5 Zn0 2.122152 1_555
O6 Si4 1.641173 1_555
O6 Zn2 1.966321 1_445
O7 Si5 1.624616 1_555
O7 Zn3 1.960657 1_555
O8 S3 1.492952 1_555
O8 Zn3 2.093047 1_565
O9 S2 1.492865 1_555
O9 Zn2 2.096889 1_555
O10 Si6 1.633914 1_545
O10 Zn3 1.948844 1_555
O11 Si7 1.612302 1_555
O11 Zn2 1.967333 1_545
O12 Si6 1.675767 1_555
O12 Ti1 1.871710 1_565
O13 Si7 1.658221 1_565
O13 Ti0 1.823981 1_565
O14 Si4 1.674960 1_555
O14 Ti0 1.888925 1_455
O15 Si5 1.675361 1_555
O15 Ti1 1.841053 1_555
O16 S2 1.471462 1_455
O16 Ti0 2.160949 1_465
O17 S3 1.472072 1_555
O17 Ti1 2.275627 1_565
O18 Si2 1.661681 1_555
O18 Ti3 1.822219 1_555
O19 Si3 1.703649 1_555
O19 Ti2 1.842673 1_655
O20 S0 1.488892 1_555
O20 Ti2 2.183388 1_545
O21 S1 1.484957 1_555
O21 Ti3 2.103748 1_545
O22 Si0 1.689337 1_555
O22 Ti2 1.825675 1_555
O23 Si1 1.695121 1_565
O23 Ti3 1.844577 1_555
O24 Si8 1.614911 1_555
O24 Zn4 1.965086 1_555
O25 Si9 1.639918 1_555
O25 Ti4 1.944348 1_555
O26 S4 1.486911 1_555
O26 Zn4 2.175768 1_555
O27 Si10 1.672552 1_555
O27 Ti4 1.871926 1_555
O28 S5 1.477570 1_555
O28 Zn4 2.332203 1_555
O29 Si11 1.657891 1_555
O29 Ti4 1.853002 1_555
O30 Si12 1.635647 1_555
O30 Ti5 1.944529 1_555
O31 Si13 1.599646 1_555
O31 Zn5 1.982650 1_555
O32 Si14 1.646243 1_555
O32 Ti5 1.906856 1_555
O33 S6 1.464608 1_555
O33 Zn5 2.307366 1_555
O34 Si15 1.660663 1_555
O34 Ti5 1.899340 1_555
O35 S7 1.476952 1_555
O35 Zn5 2.220749 1_555
O36 Si15 1.626272 1_555
O36 Zn6 1.978361 1_555
O37 S7 1.497202 1_555
O37 Zn7 2.142118 1_554
O38 Si12 1.626419 1_555
O38 Zn6 1.937171 1_555
O39 Si13 1.619927 1_555
O39 Zn7 1.996375 1_554
O40 Si14 1.616860 1_555
O40 Zn6 1.956297 1_555
O41 S6 1.474501 1_555
O41 Zn7 2.300733 1_554
O42 S4 1.489048 1_555
O42 Zn8 2.176972 1_555
O43 Si10 1.613917 1_555
O43 Zn9 2.033888 1_555
O44 S5 1.467889 1_555
O44 Zn8 2.296725 1_555
O45 Si11 1.608298 1_555
O45 Zn9 2.043443 1_555
O46 Si8 1.625718 1_555
O46 Zn8 1.988376 1_555
O47 Si9 1.604690 1_555
O47 Zn9 1.986619 1_555
O48 S8 1.497478 1_555
O48 Ti6 2.124381 1_556
O49 Si16 1.673654 1_555
O49 Ti7 1.889798 1_556
O50 S9 1.493361 1_555
O50 Ti6 2.068018 1_556
O51 S10 1.503184 1_555
O51 Ti7 1.998767 1_556
O52 S11 1.498481 1_555
O52 Ti6 2.136071 1_556
O53 Si17 1.693622 1_555
O53 Ti7 1.793240 1_556
O54 Si18 1.671900 1_555
O54 Ti8 1.895769 1_555
O55 Si19 1.697421 1_555
O55 Ti9 1.841795 1_555
O56 Si20 1.692707 1_555
O56 Ti8 1.783866 1_555
O57 S12 1.495234 1_555
O57 Ti9 2.162633 1_555
O58 S13 1.509201 1_555
O58 Ti8 1.966851 1_555
O59 S14 1.477572 1_555
O59 Ti9 2.152915 1_555
O60 S13 1.491461 1_555
O60 Ti10 2.138096 1_555
O61 S14 1.486011 1_555
O61 Zn10 2.183468 1_555
O62 Si18 1.682006 1_555
O62 Ti10 1.773847 1_555
O63 Si19 1.619491 1_555
O63 Zn10 1.916686 1_555
O64 Si20 1.662819 1_555
O64 Ti10 1.904004 1_555
O65 S12 1.484325 1_555
O65 Zn10 2.219242 1_555
O66 S9 1.485350 1_555
O66 Zn11 2.134262 1_555
O67 S10 1.486605 1_555
O67 Ti11 2.208379 1_555
O68 S11 1.484548 1_555
O68 Zn11 2.176492 1_555
O69 Si17 1.656183 1_555
O69 Ti11 1.909955 1_555
O70 S8 1.482325 1_555
O70 Zn11 2.092550 1_555
O71 Si16 1.678677 1_555
O71 Ti11 1.783550 1_555
O72 S13 1.475443 1_555
O72 Zn0 2.381804 1_465
O73 S14 1.493616 1_555
O73 Zn1 2.449931 1_555
O74 Si18 1.625766 1_555
O74 Zn1 2.183285 1_555
O75 Si19 1.638220 1_555
O75 Zn0 2.171395 1_565
O76 Si20 1.615285 1_555
O76 Zn0 2.194672 1_455
O77 S12 1.496764 1_555
O77 Zn1 2.489127 1_545
O78 S9 1.485195 1_555
O78 Zn2 2.521235 1_445
O79 S10 1.482078 1_555
O79 Zn3 2.433761 1_555
O80 S11 1.488250 1_555
O80 Zn2 2.580581 1_455
O81 Si17 1.630365 1_555
O81 Zn3 2.205590 1_565
O82 S8 1.485293 1_555
O82 Zn3 2.542896 1_565
O83 Si16 1.629046 1_555
O83 Zn2 2.214153 1_555
O84 Si8 1.725615 1_555
O84 Ti1 1.871009 1_555
O85 Si9 1.696101 1_555
O85 Ti0 1.898221 1_555
O86 S4 1.486203 1_555
O86 Ti0 2.239494 1_455
O87 Si10 1.645576 1_555
O87 Ti1 1.914034 1_555
O88 S5 1.487946 1_555
O88 Ti1 2.373378 1_565
O89 Si11 1.651247 1_555
O89 Ti0 1.976439 1_565
O90 Si12 1.678787 1_555
O90 Ti3 1.927929 1_555
O91 Si13 1.697651 1_555
O91 Ti2 1.915957 1_655
O92 Si14 1.633151 1_555
O92 Ti3 1.996075 1_545
O93 S6 1.490031 1_555
O93 Ti2 2.398157 1_645
O94 Si15 1.632375 1_555
O94 Ti2 1.979318 1_545
O95 S7 1.487982 1_555
O95 Ti3 2.269826 1_545
O96 Si6 1.634737 1_545
O96 Zn4 2.058266 1_555
O97 Si7 1.639976 1_555
O97 Ti4 2.071428 1_555
O98 Si4 1.642065 1_555
O98 Zn4 2.046995 1_555
O99 Si5 1.631371 1_555
O99 Ti4 1.960186 1_555
O100 S3 1.486067 1_555
O100 Zn4 2.299203 1_555
O101 S2 1.485337 1_555
O101 Ti4 2.308280 1_555
O102 Si2 1.647640 1_555
O102 Ti5 2.024420 1_555
O103 Si3 1.634272 1_555
O103 Zn5 2.014368 1_555
O104 S1 1.493564 1_555
O104 Ti5 2.258279 1_555
O105 S0 1.481069 1_655
O105 Zn5 2.257297 1_555
O106 Si0 1.645156 1_545
O106 Ti5 1.957081 1_555
O107 Si1 1.635778 1_555
O107 Zn5 2.029822 1_555
O108 S8 1.489882 1_555
O109 Si16 1.625317 1_555
O109 Zn7 2.063207 1_555
O110 S10 1.479094 1_555
O111 S9 1.487346 1_655
O111 Zn7 2.252552 1_555
O112 S11 1.490387 1_545
O113 Si17 1.625873 1_545
O113 Zn7 2.143827 1_555
O114 Si18 1.622115 1_545
O114 Zn8 2.062030 1_555
O115 Si19 1.644045 1_545
O115 Zn9 2.078664 1_555
O116 Si20 1.625543 1_555
O116 Zn8 2.155328 1_555
O117 S12 1.484499 1_555
O118 S14 1.499142 1_555
O118 Zn8 2.206486 1_555
O119 S13 1.466558 1_655
O120 Si15 1.669415 1_555
O120 Ti6 1.876426 1_555
O121 S7 1.494723 1_555
O121 Ti7 2.225726 1_555
O122 Si13 1.693200 1_455
O122 Ti6 1.831513 1_555
O123 Si12 1.655811 1_555
O123 Ti7 1.968107 1_555
O124 Si14 1.709914 1_565
O124 Ti6 1.889401 1_555
O125 S6 1.552050 1_565
O125 Ti7 2.117195 1_555
O126 S4 1.491690 1_565
O126 Ti8 2.221004 1_555
O127 Si10 1.656967 1_565
O127 Ti9 1.914616 1_555
O128 S5 1.545906 1_555
O128 Ti8 2.143767 1_555
O129 Si11 1.699736 1_555
O129 Ti9 1.917059 1_555
O130 Si9 1.662334 1_455
O130 Ti8 1.981067 1_555
O131 Si8 1.649293 1_555
O131 Ti9 1.967840 1_555
O132 Si0 1.653478 1_555
O132 Ti10 2.000887 1_555
O133 Si1 1.639264 1_565
O133 Zn10 2.107774 1_555
O134 Si2 1.663008 1_555
O134 Ti10 1.902847 1_555
O135 Si3 1.642492 1_555
O135 Zn10 2.046470 1_555
O136 S0 1.504483 1_555
O136 Ti10 2.390625 1_555
O137 S1 1.489517 1_555
O137 Zn10 2.499876 1_555
O138 Si4 1.647865 1_555
O138 Zn11 2.035494 1_555
O139 Si5 1.652089 1_555
O139 Ti11 1.975877 1_555
O140 S2 1.504313 1_455
O140 Zn11 2.306356 1_555
O141 S3 1.502782 1_555
O141 Ti11 2.339263 1_555
O142 Si6 1.648549 1_555
O142 Zn11 2.000439 1_555
O143 Si7 1.667364 1_565
O143 Ti11 1.878824 1_555
