# generated using pymatgen
data_KMgMn16O32
_symmetry_space_group_name_H-M   'P 1'
_cell_length_a   5.93516300
_cell_length_b   9.64724514
_cell_length_c   10.27502462
_cell_angle_alpha   88.87033763
_cell_angle_beta   89.99953665
_cell_angle_gamma   89.99901900
_symmetry_Int_Tables_number   1
_chemical_formula_structural   KMgMn16O32
_chemical_formula_sum   'K1 Mg1 Mn16 O32'
_cell_volume   588.21272901
_cell_formula_units_Z   1
loop_
 _symmetry_equiv_pos_site_id
 _symmetry_equiv_pos_as_xyz
  1  'x, y, z'
loop_
 _atom_site_type_symbol
 _atom_site_label
 _atom_site_symmetry_multiplicity
 _atom_site_fract_x
 _atom_site_fract_y
 _atom_site_fract_z
 _atom_site_occupancy
  K  K0  1  0.99998600  0.50304800  0.52495200  1
  Mg  Mg0  1  0.50001200  0.47793000  0.34657200  1
  Mn  Mn0  1  0.50000200  0.16554200  0.35307900  1
  Mn  Mn1  1  0.99999600  0.17459800  0.35731700  1
  Mn  Mn2  1  0.50000600  0.34674900  0.83378100  1
  Mn  Mn3  1  0.99999600  0.34323200  0.83712400  1
  Mn  Mn4  1  0.00000300  0.64851000  0.16357000  1
  Mn  Mn5  1  0.49999600  0.66474300  0.14968600  1
  Mn  Mn6  1  0.00000200  0.83321100  0.64706100  1
  Mn  Mn7  1  0.49999700  0.83137500  0.64584400  1
  Mn  Mn8  1  0.74914600  0.67252900  0.85006900  1
  Mn  Mn9  1  0.25085200  0.67253000  0.85006800  1
  Mn  Mn10  1  0.74778700  0.84182200  0.33875700  1
  Mn  Mn11  1  0.25220900  0.84182400  0.33875500  1
  Mn  Mn12  1  0.74973800  0.15646100  0.66295400  1
  Mn  Mn13  1  0.25025400  0.15646500  0.66295300  1
  Mn  Mn14  1  0.75140200  0.32426600  0.14220000  1
  Mn  Mn15  1  0.24862400  0.32426900  0.14221000  1
  O  O0  1  0.74918800  0.95843500  0.64649600  1
  O  O1  1  0.25080800  0.95843400  0.64649500  1
  O  O2  1  0.74680600  0.68043200  0.03584800  1
  O  O3  1  0.25319200  0.68043500  0.03584900  1
  O  O4  1  0.75199000  0.32151700  0.95608100  1
  O  O5  1  0.24801200  0.32148800  0.95609900  1
  O  O6  1  0.74690000  0.03963600  0.35188600  1
  O  O7  1  0.25309300  0.03964200  0.35189000  1
  O  O8  1  0.00001400  0.45187200  0.15036100  1
  O  O9  1  0.49999500  0.45791600  0.14818000  1
  O  O10  1  0.99999600  0.18553200  0.54358300  1
  O  O11  1  0.49999600  0.18359100  0.54254200  1
  O  O12  1  0.49999700  0.81619500  0.45837400  1
  O  O13  1  0.00000100  0.81269700  0.45837000  1
  O  O14  1  0.49999800  0.54542600  0.84146300  1
  O  O15  1  0.00000300  0.54449400  0.84237300  1
  O  O16  1  0.49999800  0.80440700  0.83372100  1
  O  O17  1  0.99999800  0.80469000  0.83482200  1
  O  O18  1  0.00000000  0.84031300  0.21609000  1
  O  O19  1  0.49999900  0.85153400  0.21147800  1
  O  O20  1  0.00002900  0.19542800  0.16793600  1
  O  O21  1  0.50000000  0.19364700  0.16237000  1
  O  O22  1  0.49999700  0.15198800  0.78607900  1
  O  O23  1  0.99999700  0.14898300  0.78728100  1
  O  O24  1  0.72844700  0.31579700  0.34300800  1
  O  O25  1  0.27155800  0.31581400  0.34296400  1
  O  O26  1  0.75664300  0.35065800  0.70691300  1
  O  O27  1  0.24332900  0.35065600  0.70689300  1
  O  O28  1  0.75172300  0.69935000  0.65721200  1
  O  O29  1  0.24827900  0.69934900  0.65721500  1
  O  O30  1  0.72694400  0.63809600  0.29350700  1
  O  O31  1  0.27306100  0.63810400  0.29351200  1
loop_
_geom_bond_atom_site_label_1
_geom_bond_atom_site_label_2
_geom_bond_distance
_geom_bond_site_symmetry_2
K0 O27 2.762927 1_655
K0 O26 2.763064 1_555
K0 O28 2.775912 1_555
K0 O29 2.776061 1_655
K0 O13 3.051422 1_655
K0 O10 3.065362 1_555
K0 O24 3.080404 1_555
K0 O25 3.080640 1_655
K0 O30 3.139550 1_555
K0 O31 3.139646 1_655
Mg0 O9 2.051392 1_555
Mg0 O24 2.070807 1_555
Mg0 O25 2.070807 1_555
Mg0 O30 2.113228 1_555
Mg0 O31 2.113316 1_555
Mn0 O6 1.903518 1_555
Mn0 O7 1.903562 1_555
Mn0 O11 1.957925 1_555
Mn0 O21 1.972907 1_555
Mn0 O24 1.986050 1_555
Mn0 O25 1.986150 1_555
Mn1 O10 1.918868 1_555
Mn1 O20 1.952298 1_655
Mn1 O7 1.989349 1_655
Mn1 O6 1.989418 1_555
Mn1 O24 2.113462 1_555
Mn1 O25 2.113686 1_655
Mn2 O14 1.919865 1_555
Mn2 O22 1.951113 1_555
Mn2 O4 1.965467 1_555
Mn2 O5 1.965652 1_555
Mn2 O26 2.004704 1_555
Mn2 O27 2.005033 1_555
Mn3 O4 1.922085 1_555
Mn3 O5 1.922284 1_655
Mn3 O15 1.943435 1_655
Mn3 O23 1.952404 1_555
Mn3 O26 1.969145 1_555
Mn3 O27 1.969183 1_655
Mn4 O8 1.904531 1_555
Mn4 O18 1.937643 1_555
Mn4 O3 2.014768 1_555
Mn4 O2 2.014814 1_455
Mn4 O30 2.100902 1_455
Mn4 O31 2.100941 1_555
Mn5 O3 1.878778 1_555
Mn5 O2 1.878799 1_555
Mn5 O19 1.922368 1_555
Mn5 O9 1.995676 1_555
Mn5 O31 2.012242 1_555
Mn5 O30 2.012275 1_555
Mn6 O1 1.917048 1_555
Mn6 O0 1.917059 1_455
Mn6 O17 1.943393 1_455
Mn6 O13 1.952757 1_555
Mn6 O29 1.960769 1_555
Mn6 O28 1.960802 1_455
Mn7 O1 1.920987 1_555
Mn7 O0 1.921035 1_555
Mn7 O12 1.934694 1_555
Mn7 O16 1.942803 1_555
Mn7 O28 1.965225 1_555
Mn7 O29 1.965228 1_555
Mn8 O2 1.911957 1_556
Mn8 O14 1.924153 1_555
Mn8 O15 1.937131 1_655
Mn8 O16 1.955768 1_555
Mn8 O17 1.964432 1_555
Mn8 O28 1.993426 1_555
Mn9 O3 1.911979 1_556
Mn9 O14 1.924116 1_555
Mn9 O15 1.937134 1_555
Mn9 O16 1.955783 1_555
Mn9 O17 1.964403 1_455
Mn9 O29 1.993383 1_555
Mn10 O6 1.915780 1_565
Mn10 O12 1.929408 1_555
Mn10 O13 1.953626 1_655
Mn10 O18 1.957119 1_655
Mn10 O19 1.969048 1_555
Mn10 O30 2.032312 1_555
Mn11 O7 1.915825 1_565
Mn11 O12 1.929423 1_555
Mn11 O13 1.953607 1_555
Mn11 O18 1.957104 1_555
Mn11 O19 1.969029 1_555
Mn11 O31 2.032237 1_555
Mn12 O0 1.921196 1_545
Mn12 O26 1.936218 1_555
Mn12 O10 1.943105 1_555
Mn12 O11 1.945147 1_555
Mn12 O22 1.948658 1_555
Mn12 O23 1.959517 1_555
Mn13 O1 1.921244 1_545
Mn13 O27 1.936113 1_555
Mn13 O10 1.943102 1_455
Mn13 O11 1.945127 1_555
Mn13 O22 1.948688 1_555
Mn13 O23 1.959502 1_455
Mn14 O4 1.913087 1_554
Mn14 O8 1.924551 1_655
Mn14 O20 1.944045 1_655
Mn14 O21 1.961376 1_555
Mn14 O9 1.973766 1_555
Mn14 O24 2.067806 1_555
Mn15 O5 1.913016 1_554
Mn15 O8 1.924484 1_555
Mn15 O20 1.943935 1_555
Mn15 O21 1.961238 1_555
Mn15 O9 1.973615 1_555
Mn15 O25 2.067244 1_555
