# generated using pymatgen
data_MgZn(CoS2)4
_symmetry_space_group_name_H-M   'P 1'
_cell_length_a   6.95595951
_cell_length_b   6.83170106
_cell_length_c   6.83170124
_cell_angle_alpha   60.02057251
_cell_angle_beta   59.12591136
_cell_angle_gamma   59.12591839
_symmetry_Int_Tables_number   1
_chemical_formula_structural   MgZn(CoS2)4
_chemical_formula_sum   'Mg1 Zn1 Co4 S8'
_cell_volume   226.51627978
_cell_formula_units_Z   1
loop_
 _symmetry_equiv_pos_site_id
 _symmetry_equiv_pos_as_xyz
  1  'x, y, z'
loop_
 _atom_site_type_symbol
 _atom_site_label
 _atom_site_symmetry_multiplicity
 _atom_site_fract_x
 _atom_site_fract_y
 _atom_site_fract_z
 _atom_site_occupancy
  Mg  Mg0  1  0.00000000  0.00000000  0.00000000  1
  Zn  Zn0  1  0.50000000  0.00000000  0.00000000  1
  Co  Co0  1  0.00000000  0.50000000  0.50000000  1
  Co  Co1  1  0.50000000  0.50000000  0.00000000  1
  Co  Co2  1  0.50000000  0.50000000  0.50000000  1
  Co  Co3  1  0.50000000  0.00000000  0.50000000  1
  S  S0  1  0.28208100  0.25590700  0.25590700  1
  S  S1  1  0.26687600  0.26420600  0.70453600  1
  S  S2  1  0.26687600  0.70453600  0.26420600  1
  S  S3  1  0.70567500  0.26133400  0.26133400  1
  S  S4  1  0.29432500  0.73866600  0.73866600  1
  S  S5  1  0.73312400  0.73579400  0.29546400  1
  S  S6  1  0.73312400  0.29546400  0.73579400  1
  S  S7  1  0.71791900  0.74409300  0.74409300  1
loop_
_geom_bond_atom_site_label_1
_geom_bond_atom_site_label_2
_geom_bond_distance
_geom_bond_site_symmetry_2
Mg0 S4 2.499864 1_544
Mg0 S3 2.499864 1_455
Mg0 S1 2.594329 1_554
Mg0 S5 2.594329 1_445
Mg0 S2 2.594329 1_545
Mg0 S6 2.594329 1_454
Co0 S6 2.310241 1_455
Co0 S2 2.310241 1_555
Co0 S5 2.310241 1_455
Co0 S1 2.310241 1_555
Co0 S0 2.339760 1_555
Co0 S7 2.339760 1_455
Co1 S6 2.243027 1_554
Co1 S2 2.243027 1_555
Co1 S0 2.257411 1_555
Co1 S7 2.257411 1_554
Co1 S4 2.282761 1_554
Co1 S3 2.282761 1_555
Co2 S3 2.287482 1_555
Co2 S4 2.287482 1_555
Co2 S5 2.298457 1_555
Co2 S1 2.298457 1_555
Co2 S6 2.298458 1_555
Co2 S2 2.298458 1_555
Co3 S5 2.243027 1_545
Co3 S1 2.243027 1_555
Co3 S0 2.257411 1_555
Co3 S7 2.257411 1_545
Co3 S4 2.282761 1_545
Co3 S3 2.282761 1_555
S0 Zn0 2.454724 1_555
S1 Zn0 2.583842 1_556
S2 Zn0 2.583841 1_565
S5 Zn0 2.583842 1_565
S6 Zn0 2.583841 1_556
S7 Zn0 2.454724 1_566
