# generated using pymatgen
data_LiMnO2
_symmetry_space_group_name_H-M   'P 1'
_cell_length_a   3.17210091
_cell_length_b   10.18371795
_cell_length_c   4.95497051
_cell_angle_alpha   89.99437355
_cell_angle_beta   89.99921841
_cell_angle_gamma   98.82563795
_symmetry_Int_Tables_number   1
_chemical_formula_structural   LiMnO2
_chemical_formula_sum   'Li4 Mn4 O8'
_cell_volume   158.16909217
_cell_formula_units_Z   4
loop_
 _symmetry_equiv_pos_site_id
 _symmetry_equiv_pos_as_xyz
  1  'x, y, z'
loop_
 _atom_site_type_symbol
 _atom_site_label
 _atom_site_symmetry_multiplicity
 _atom_site_fract_x
 _atom_site_fract_y
 _atom_site_fract_z
 _atom_site_occupancy
  Li  Li0  1  0.68699715  0.24772134  0.15750107  1
  Li  Li1  1  0.18699506  0.24772084  0.65749966  1
  Li  Li2  1  0.18679063  0.74771163  0.34248113  1
  Li  Li3  1  0.68678892  0.74771117  0.84248038  1
  Mn  Mn0  1  0.93761785  0.49777627  0.74964829  1
  Mn  Mn1  1  0.93774649  0.99777577  0.25034856  1
  Mn  Mn2  1  0.43760823  0.49777952  0.24964521  1
  Mn  Mn3  1  0.43775862  0.99777184  0.75037050  1
  O  O0  1  0.45117923  0.88538874  0.06983912  1
  O  O1  1  0.95117766  0.88538566  0.56983698  1
  O  O2  1  0.95103974  0.38537983  0.43021544  1
  O  O3  1  0.45103768  0.38537872  0.93021594  1
  O  O4  1  0.92432834  0.11018951  0.93089470  1
  O  O5  1  0.42433852  0.11019112  0.43089493  1
  O  O6  1  0.42420131  0.61017987  0.56906374  1
  O  O7  1  0.92419658  0.61018216  0.06906133  1
loop_
_geom_bond_atom_site_label_1
_geom_bond_atom_site_label_2
_geom_bond_distance
_geom_bond_site_symmetry_2
Li0 O4 2.028050 1_554
Li0 O3 2.028658 1_554
Li0 O5 2.032831 1_555
Li0 O2 2.032946 1_555
Li1 O5 2.028048 1_555
Li1 O2 2.028661 1_455
Li1 O4 2.032849 1_455
Li1 O3 2.032948 1_555
Li2 O6 2.027964 1_555
Li2 O1 2.028599 1_455
Li2 O0 2.032964 1_555
Li2 O7 2.033048 1_455
Li3 O7 2.027934 1_556
Li3 O0 2.028629 1_556
Li3 O1 2.032952 1_555
Li3 O6 2.033043 1_555
Mn0 O7 1.957643 1_556
Mn0 O2 1.957666 1_555
Mn0 O3 1.987621 1_555
Mn0 O6 1.987694 1_655
Mn0 O3 2.309748 1_655
Mn0 O6 2.309810 1_555
Mn1 O4 1.957671 1_564
Mn1 O1 1.957673 1_555
Mn1 O0 1.987535 1_555
Mn1 O5 1.987803 1_665
Mn1 O0 2.309673 1_655
Mn1 O5 2.309857 1_565
Mn2 O6 1.957626 1_555
Mn2 O3 1.957680 1_554
Mn2 O2 1.987612 1_455
Mn2 O7 1.987699 1_555
Mn2 O7 2.309790 1_455
Mn2 O2 2.309795 1_555
Mn3 O0 1.957548 1_556
Mn3 O5 1.957792 1_565
Mn3 O1 1.987614 1_455
Mn3 O4 1.987715 1_565
Mn3 O1 2.309681 1_555
Mn3 O4 2.309884 1_465
