# generated using pymatgen
data_Na14Al4Si9Ge4(SO16)3
_symmetry_space_group_name_H-M   'P 1'
_cell_length_a   17.55222114
_cell_length_b   8.76418499
_cell_length_c   21.55691479
_cell_angle_alpha   90.07465792
_cell_angle_beta   89.36388051
_cell_angle_gamma   120.01293575
_symmetry_Int_Tables_number   1
_chemical_formula_structural   Na14Al4Si9Ge4(SO16)3
_chemical_formula_sum   'Na42 Al12 Si27 Ge12 S9 O144'
_cell_volume   2871.25808348
_cell_formula_units_Z   3
loop_
 _symmetry_equiv_pos_site_id
 _symmetry_equiv_pos_as_xyz
  1  'x, y, z'
loop_
 _atom_site_type_symbol
 _atom_site_label
 _atom_site_symmetry_multiplicity
 _atom_site_fract_x
 _atom_site_fract_y
 _atom_site_fract_z
 _atom_site_occupancy
  Na  Na0  1  0.81912487  0.00741004  0.25344310  1
  Na  Na1  1  0.17750492  0.35974898  0.25397833  1
  Na  Na2  1  0.68905410  0.37151830  0.25427357  1
  Na  Na3  1  0.99875955  0.63030276  0.24713063  1
  Na  Na4  1  0.50213746  0.63855868  0.25123848  1
  Na  Na5  1  0.31776250  0.62861180  0.74989083  1
  Na  Na6  1  0.00061115  0.36402926  0.74411956  1
  Na  Na7  1  0.49996409  0.36888915  0.74339710  1
  Na  Na8  1  0.18788803  0.00625599  0.74983574  1
  Na  Na9  1  0.68086135  0.99693918  0.74895619  1
  Na  Na10  1  0.14853308  0.32814132  0.58194530  1
  Na  Na11  1  0.65196700  0.33288167  0.58215949  1
  Na  Na12  1  0.33537717  0.97843972  0.58683413  1
  Na  Na13  1  0.83298199  0.96756216  0.58281468  1
  Na  Na14  1  0.14671130  0.96427580  0.07993643  1
  Na  Na15  1  0.65156756  0.97198430  0.08000008  1
  Na  Na16  1  0.33225325  0.69520438  0.08168420  1
  Na  Na17  1  0.83517384  0.69295710  0.08688971  1
  Na  Na18  1  0.48070811  0.67343598  0.91490993  1
  Na  Na19  1  0.98093981  0.67299441  0.92164196  1
  Na  Na20  1  0.34772943  0.02760235  0.90911526  1
  Na  Na21  1  0.84804673  0.02847158  0.91131755  1
  Na  Na22  1  0.16973380  0.29543579  0.90969050  1
  Na  Na23  1  0.66728996  0.29246742  0.91092085  1
  Na  Na24  1  0.48325230  0.29428419  0.42551780  1
  Na  Na25  1  0.97930779  0.28629787  0.41984819  1
  Na  Na26  1  0.16713319  0.04329083  0.41479668  1
  Na  Na27  1  0.67162554  0.04551435  0.41609835  1
  Na  Na28  1  0.34878170  0.66777337  0.41518429  1
  Na  Na29  1  0.84787045  0.66716610  0.41908226  1
  Na  Na30  1  0.99875754  0.99402893  0.50053379  1
  Na  Na31  1  0.50404514  0.00678019  0.50237814  1
  Na  Na32  1  0.00157372  0.99864624  0.00111448  1
  Na  Na33  1  0.50246975  0.00300826  0.99864195  1
  Na  Na34  1  0.33040088  0.33589996  0.82897176  1
  Na  Na35  1  0.82691461  0.33538714  0.83057256  1
  Na  Na36  1  0.32736450  0.31763556  0.33426513  1
  Na  Na37  1  0.83051755  0.32579140  0.33282475  1
  Na  Na38  1  0.16000994  0.65710123  0.16692870  1
  Na  Na39  1  0.66450081  0.65924709  0.16833435  1
  Na  Na40  1  0.16264557  0.66866240  0.66690125  1
  Na  Na41  1  0.66487412  0.66411615  0.66543957  1
  Al  Al0  1  0.00016334  0.01488002  0.35081646  1
  Al  Al1  1  0.50220997  0.00475298  0.35342821  1
  Al  Al2  1  0.00104766  0.99725008  0.85118443  1
  Al  Al3  1  0.50010938  0.98590748  0.84981448  1
  Al  Al4  1  0.33528715  0.32016856  0.68946988  1
  Al  Al5  1  0.83562582  0.34992442  0.19032515  1
  Al  Al6  1  0.32370209  0.33640692  0.98012035  1
  Al  Al7  1  0.82172840  0.33931778  0.98199568  1
  Al  Al8  1  0.32386184  0.30685670  0.48188936  1
  Al  Al9  1  0.82511642  0.32336581  0.48373013  1
  Al  Al10  1  0.68221911  0.68963230  0.31453280  1
  Al  Al11  1  0.18015616  0.67519665  0.81195580  1
  Si  Si0  1  0.14940355  0.00191851  0.25145546  1
  Si  Si1  1  0.64656569  0.99653904  0.25231520  1
  Si  Si2  1  0.36052209  0.72347354  0.24989613  1
  Si  Si3  1  0.85932695  0.71899075  0.25139754  1
  Si  Si4  1  0.99953207  0.28990953  0.25053066  1
  Si  Si5  1  0.14304109  0.28964420  0.75008874  1
  Si  Si6  1  0.64833232  0.29563627  0.75314517  1
  Si  Si7  1  0.49958344  0.70947140  0.75080048  1
  Si  Si8  1  0.35893134  0.99909936  0.75137689  1
  Si  Si9  1  0.86074622  0.00508390  0.74988635  1
  Si  Si10  1  0.47653510  0.33707853  0.58268383  1
  Si  Si11  1  0.97692086  0.34455541  0.58164401  1
  Si  Si12  1  0.18659967  0.03841691  0.58526465  1
  Si  Si13  1  0.68201775  0.03097882  0.58198140  1
  Si  Si14  1  0.83939146  0.61877172  0.58293192  1
  Si  Si15  1  0.47650327  0.61002308  0.08183210  1
  Si  Si16  1  0.97611332  0.61495717  0.08251791  1
  Si  Si17  1  0.18208957  0.33266459  0.08216620  1
  Si  Si18  1  0.68430786  0.33301692  0.08604911  1
  Si  Si19  1  0.31199673  0.66892796  0.91757644  1
  Si  Si20  1  0.81009038  0.66838246  0.91586759  1
  Si  Si21  1  0.16717420  0.95453777  0.91501157  1
  Si  Si22  1  0.66830546  0.95628456  0.91734925  1
  Si  Si23  1  0.31051789  0.95240517  0.41561172  1
  Si  Si24  1  0.81351166  0.96026507  0.41822748  1
  Si  Si25  1  0.16812207  0.38031004  0.41678646  1
  Si  Si26  1  0.66636641  0.37936779  0.41406026  1
  Ge  Ge0  1  0.99827963  0.01167112  0.64121891  1
  Ge  Ge1  1  0.50977279  0.01912209  0.65219307  1
  Ge  Ge2  1  0.00929826  0.00119949  0.15239195  1
  Ge  Ge3  1  0.50643086  0.98222846  0.14776198  1
  Ge  Ge4  1  0.82525347  0.31372572  0.68152275  1
  Ge  Ge5  1  0.32782947  0.35170754  0.18537397  1
  Ge  Ge6  1  0.16134236  0.66094732  0.01885654  1
  Ge  Ge7  1  0.66451672  0.66259981  0.02028339  1
  Ge  Ge8  1  0.16419917  0.66691433  0.52023616  1
  Ge  Ge9  1  0.67301592  0.65819684  0.52575596  1
  Ge  Ge10  1  0.17773657  0.67605214  0.30774232  1
  Ge  Ge11  1  0.67898647  0.68243310  0.80659546  1
  S  S0  1  0.49665764  0.28098685  0.25020006  1
  S  S1  1  -0.00071646  0.71210755  0.75227198  1
  S  S2  1  0.33511624  0.61669505  0.58176070  1
  S  S3  1  0.33597845  0.05527203  0.08298084  1
  S  S4  1  0.83539461  0.05317488  0.08179087  1
  S  S5  1  0.02216119  0.37805955  0.91606106  1
  S  S6  1  0.52054383  0.37705445  0.91823271  1
  S  S7  1  0.02336037  0.66709926  0.41541327  1
  S  S8  1  0.52291917  0.66727961  0.41603889  1
  O  O0  1  0.10618686  0.04810254  0.31011755  1
  O  O1  1  0.60015994  0.03956036  0.30973490  1
  O  O2  1  0.42251684  0.80855346  0.30886329  1
  O  O3  1  0.92352222  0.81104082  0.30976436  1
  O  O4  1  0.48570416  0.17961878  0.30744639  1
  O  O5  1  0.98060241  0.17315739  0.31259069  1
  O  O6  1  0.10038442  0.16200939  0.81098026  1
  O  O7  1  0.60223540  0.16522165  0.81243241  1
  O  O8  1  0.47963903  0.78564159  0.81382000  1
  O  O9  1  0.98819262  0.79306322  0.81007638  1
  O  O10  1  0.42091696  0.03257264  0.81130175  1
  O  O11  1  0.92058819  0.03916322  0.81082804  1
  O  O12  1  0.40243118  0.95825999  0.68877372  1
  O  O13  1  0.90219726  0.97138558  0.68709407  1
  O  O14  1  0.07897406  0.20439254  0.68898122  1
  O  O15  1  0.58746506  0.22231334  0.69027871  1
  O  O16  1  0.01582408  0.82380199  0.69723780  1
  O  O17  1  0.52573658  0.85222773  0.69355156  1
  O  O18  1  0.40200113  0.83907198  0.18524367  1
  O  O19  1  0.90221487  0.84576693  0.18782350  1
  O  O20  1  0.02665512  0.20164314  0.19239514  1
  O  O21  1  0.51268165  0.19893245  0.19448223  1
  O  O22  1  0.08956834  0.95633026  0.18802810  1
  O  O23  1  0.58358348  0.94538892  0.18899355  1
  O  O24  1  0.43174334  0.36003823  0.64471615  1
  O  O25  1  0.93413706  0.36999134  0.64657287  1
  O  O26  1  0.25017364  0.12444559  0.64456106  1
  O  O27  1  0.74553570  0.10872442  0.64414333  1
  O  O28  1  0.32264905  0.51179298  0.63795114  1
  O  O29  1  0.81412110  0.48355410  0.64234209  1
  O  O30  1  0.43317172  0.49580984  0.14655396  1
  O  O31  1  0.93225936  0.50284530  0.14447768  1
  O  O32  1  0.32173277  0.13871490  0.13878895  1
  O  O33  1  0.82269487  0.13325434  0.13788923  1
  O  O34  1  0.24725963  0.38360395  0.14365703  1
  O  O35  1  0.74743851  0.37025208  0.14498073  1
  O  O36  1  0.22597301  0.28903203  0.02347299  1
  O  O37  1  0.72139069  0.28488235  0.02369590  1
  O  O38  1  0.41279558  0.51843809  0.02391485  1
  O  O39  1  0.91468653  0.52551779  0.02143589  1
  O  O40  1  0.34417773  0.15364413  0.02554642  1
  O  O41  1  0.84177951  0.15262464  0.02469870  1
  O  O42  1  0.22461861  0.15927375  0.52275765  1
  O  O43  1  0.72455934  0.16190226  0.52298584  1
  O  O44  1  0.34197967  0.53051983  0.52455724  1
  O  O45  1  0.84993053  0.53371725  0.51938290  1
  O  O46  1  0.41433315  0.30081910  0.52170792  1
  O  O47  1  0.91475247  0.30726861  0.52279935  1
  O  O48  1  0.26460316  0.70631321  0.97929588  1
  O  O49  1  0.76736216  0.71031846  0.97867378  1
  O  O50  1  0.07781639  0.45403999  0.97265988  1
  O  O51  1  0.57818532  0.45687162  0.97389378  1
  O  O52  1  0.14572470  0.82745519  0.97808261  1
  O  O53  1  0.64596722  0.82515323  0.97907231  1
  O  O54  1  0.26697160  0.82329673  0.47751188  1
  O  O55  1  0.76617601  0.82534982  0.47801354  1
  O  O56  1  0.14630676  0.46862336  0.47772738  1
  O  O57  1  0.64518468  0.46288192  0.47670729  1
  O  O58  1  0.07949511  0.70140741  0.47139928  1
  O  O59  1  0.57764624  0.69788060  0.47062740  1
  O  O60  1  0.06303547  0.63630008  0.35921361  1
  O  O61  1  0.56133399  0.63704127  0.35872601  1
  O  O62  1  0.24227672  0.86477409  0.35771796  1
  O  O63  1  0.75115609  0.88092317  0.35761604  1
  O  O64  1  0.18869242  0.50844397  0.35499703  1
  O  O65  1  0.67847926  0.50367690  0.35394460  1
  O  O66  1  0.06217837  0.48884328  0.86122317  1
  O  O67  1  0.55711670  0.48641766  0.86241937  1
  O  O68  1  0.18187350  0.85703465  0.85579919  1
  O  O69  1  0.68815392  0.86656151  0.85672707  1
  O  O70  1  0.24832743  0.62392082  0.85849601  1
  O  O71  1  0.74088927  0.62002189  0.85906708  1
  O  O72  1  0.01512232  0.82737490  0.41154878  1
  O  O73  1  0.51305942  0.82800930  0.41127999  1
  O  O74  1  0.40775986  0.97074039  0.40826794  1
  O  O75  1  0.90975973  0.97116244  0.41310745  1
  O  O76  1  0.08126498  0.18398333  0.41183171  1
  O  O77  1  0.57789984  0.18047460  0.41044237  1
  O  O78  1  0.01342374  0.19993558  0.91277355  1
  O  O79  1  0.51281156  0.20069075  0.91447709  1
  O  O80  1  0.07969710  0.97806579  0.91162918  1
  O  O81  1  0.58145054  0.97869270  0.91276937  1
  O  O82  1  0.40867826  0.84854713  0.91445077  1
  O  O83  1  0.90790925  0.84392011  0.90861212  1
  O  O84  1  0.48637081  0.15486691  0.58839194  1
  O  O85  1  0.98838790  0.16606877  0.58498064  1
  O  O86  1  0.08936603  0.02143766  0.59298707  1
  O  O87  1  0.58680566  0.02389686  0.59045137  1
  O  O88  1  0.41238550  0.79717021  0.58291598  1
  O  O89  1  0.92272540  0.82034494  0.58969590  1
  O  O90  1  0.48526010  0.81084764  0.08619631  1
  O  O91  1  0.98724863  0.81747666  0.08757809  1
  O  O92  1  0.41412431  0.03280370  0.08610492  1
  O  O93  1  0.91239289  0.02719100  0.08269122  1
  O  O94  1  0.08692472  0.15103287  0.08969016  1
  O  O95  1  0.58409575  0.15292634  0.09361183  1
  O  O96  1  0.34622789  0.17117867  0.74754357  1
  O  O97  1  0.84945286  0.18334162  0.74486916  1
  O  O98  1  0.24157219  0.31577017  0.74043416  1
  O  O99  1  0.74380966  0.30392049  0.74434299  1
  O  O100  1  0.41278375  0.51694666  0.74165156  1
  O  O101  1  0.91975830  0.53433870  0.74960655  1
  O  O102  1  0.35067978  0.52243780  0.24536461  1
  O  O103  1  0.84619338  0.52122640  0.24654356  1
  O  O104  1  0.41675046  0.29881265  0.24622743  1
  O  O105  1  0.91292361  0.30868518  0.24121798  1
  O  O106  1  0.24745782  0.18413128  0.24030460  1
  O  O107  1  0.74323787  0.16821251  0.24085104  1
  O  O108  1  0.32341989  0.49423866  0.92356081  1
  O  O109  1  0.82055181  0.49282383  0.92208229  1
  O  O110  1  0.43122665  0.35394072  0.92700798  1
  O  O111  1  0.93295417  0.35625309  0.92367259  1
  O  O112  1  0.25761191  0.14797570  0.92290155  1
  O  O113  1  0.75848190  0.14962801  0.92439755  1
  O  O114  1  0.32128788  0.14904967  0.42133524  1
  O  O115  1  0.82461063  0.15708307  0.42485589  1
  O  O116  1  0.25805564  0.36692927  0.42351353  1
  O  O117  1  0.75545809  0.36368269  0.41929739  1
  O  O118  1  0.43235156  0.51036522  0.42165646  1
  O  O119  1  0.93521373  0.50841097  0.42088269  1
  O  O120  1  0.17798036  0.51527242  0.07523497  1
  O  O121  1  0.67952138  0.51627464  0.07649942  1
  O  O122  1  0.07902489  0.64967627  0.07699944  1
  O  O123  1  0.57839766  0.64702964  0.07895863  1
  O  O124  1  0.25479091  0.87415702  0.08253585  1
  O  O125  1  0.75260602  0.86994231  0.08097887  1
  O  O126  1  0.18183408  0.84502652  0.57587896  1
  O  O127  1  0.67657357  0.84037114  0.57501177  1
  O  O128  1  0.25263384  0.63395260  0.58075224  1
  O  O129  1  0.74908160  0.63862489  0.58112022  1
  O  O130  1  0.07929847  0.51415548  0.57833502  1
  O  O131  1  0.57781462  0.50552869  0.57734041  1
  O  O132  1  0.15376219  0.82048500  0.25657873  1
  O  O133  1  0.65136157  0.81487877  0.25879806  1
  O  O134  1  0.26036308  0.68959570  0.25071718  1
  O  O135  1  0.76061100  0.69787087  0.25390267  1
  O  O136  1  0.08849975  0.48913255  0.25692672  1
  O  O137  1  0.57534579  0.46159101  0.25304392  1
  O  O138  1  0.14930560  0.48341269  0.75794221  1
  O  O139  1  0.65248442  0.48659756  0.75858168  1
  O  O140  1  0.07844416  0.68975585  0.75710985  1
  O  O141  1  0.58863761  0.68895254  0.75776340  1
  O  O142  1  0.26007514  0.82235687  0.75338043  1
  O  O143  1  0.76051797  0.83459904  0.75167147  1
loop_
_geom_bond_atom_site_label_1
_geom_bond_atom_site_label_2
_geom_bond_distance
_geom_bond_site_symmetry_2
Na0 O105 2.322761 1_555
Na0 O135 2.372139 1_545
Na0 O107 2.391847 1_555
Na0 O63 2.513773 1_545
Na0 O133 2.560016 1_545
Na0 O33 2.712919 1_555
Na0 O5 2.779512 1_555
Na0 O19 2.854954 1_545
Na1 O136 2.345259 1_555
Na1 O106 2.417591 1_555
Na1 O64 2.495021 1_555
Na1 O134 2.503866 1_555
Na1 O34 2.622801 1_555
Na1 O102 2.638023 1_555
Na1 O0 2.654482 1_555
Na1 O20 2.663821 1_555
Na2 O103 2.393057 1_555
Na2 O107 2.418852 1_555
Na2 O135 2.482828 1_555
Na2 O137 2.486888 1_555
Na2 O65 2.488420 1_555
Na2 O35 2.561016 1_555
Na2 O1 2.784712 1_555
Na3 O103 2.350491 1_555
Na3 O132 2.386727 1_655
Na3 O105 2.446680 1_555
Na3 O136 2.452363 1_655
Na3 O31 2.500724 1_555
Na3 O60 2.667261 1_655
Na3 O22 2.781468 1_655
Na3 O3 2.850186 1_555
Na4 O133 2.287916 1_555
Na4 O102 2.327991 1_555
Na4 O137 2.460324 1_555
Na4 O61 2.552660 1_555
Na4 O30 2.580962 1_555
Na4 O104 2.581151 1_555
Na4 O23 2.682629 1_555
Na4 O2 2.784854 1_555
Na5 O100 2.323106 1_555
Na5 O142 2.373210 1_555
Na5 O98 2.384105 1_555
Na5 O138 2.572387 1_555
Na5 O70 2.618200 1_555
Na5 O28 2.637292 1_555
Na5 O12 2.821782 1_555
Na5 O8 2.834847 1_555
Na6 O138 2.297789 1_555
Na6 O97 2.311545 1_455
Na6 O25 2.429326 1_455
Na6 O140 2.489810 1_555
Na6 O101 2.524042 1_455
Na6 O14 2.673306 1_555
Na6 O66 2.758216 1_555
Na6 O11 2.848227 1_455
Na7 O139 2.365137 1_555
Na7 O96 2.368417 1_555
Na7 O24 2.434805 1_555
Na7 O100 2.452451 1_555
Na7 O141 2.455145 1_555
Na7 O15 2.692781 1_555
Na7 O67 2.768928 1_555
Na7 O10 2.937813 1_555
Na8 O98 2.393222 1_555
Na8 O96 2.407105 1_555
Na8 O140 2.464327 1_545
Na8 O26 2.497295 1_555
Na8 O142 2.500859 1_545
Na8 O68 2.608368 1_545
Na8 O6 2.829734 1_555
Na8 O16 2.864216 1_545
Na9 O99 2.343843 1_565
Na9 O141 2.359181 1_555
Na9 O143 2.444304 1_555
Na9 O27 2.487926 1_565
Na9 O97 2.567421 1_565
Na9 O69 2.622818 1_555
Na9 O17 2.657485 1_555
Na9 O7 2.818006 1_565
Na10 O86 2.358836 1_555
Na10 O128 2.371224 1_555
Na10 O85 2.434130 1_455
Na10 O130 2.474856 1_555
Na10 O14 2.571017 1_555
Na10 O56 2.573321 1_555
Na10 O42 2.745226 1_555
Na10 O28 2.923029 1_555
Na11 O129 2.348668 1_555
Na11 O87 2.360429 1_555
Na11 O131 2.442919 1_555
Na11 O84 2.521058 1_555
Na11 O15 2.550062 1_555
Na11 O57 2.574543 1_555
Na11 O43 2.713875 1_555
Na11 O29 2.800925 1_555
Na12 O84 2.306126 1_565
Na12 O126 2.355225 1_555
Na12 O88 2.550169 1_555
Na12 O12 2.551897 1_555
Na12 O128 2.618853 1_555
Na12 O54 2.695456 1_555
Na12 O26 2.700281 1_565
Na12 O46 2.815040 1_565
Na13 O85 2.392608 1_565
Na13 O127 2.399158 1_555
Na13 O89 2.491350 1_555
Na13 O129 2.496950 1_555
Na13 O13 2.559301 1_555
Na13 O55 2.573283 1_555
Na13 O27 2.735800 1_565
Na13 O47 2.879544 1_565
Na14 O94 2.353069 1_565
Na14 O124 2.393131 1_555
Na14 O122 2.396227 1_555
Na14 O91 2.429870 1_455
Na14 O52 2.496457 1_554
Na14 O22 2.513754 1_555
Na14 O36 2.743749 1_565
Na14 O32 2.960947 1_565
Na15 O125 2.352209 1_555
Na15 O95 2.423481 1_565
Na15 O123 2.470269 1_555
Na15 O53 2.504036 1_554
Na15 O90 2.530021 1_555
Na15 O23 2.580620 1_555
Na15 O37 2.666242 1_565
Na15 O33 2.899754 1_565
Na16 O90 2.351966 1_555
Na16 O120 2.361029 1_555
Na16 O124 2.537985 1_555
Na16 O48 2.542725 1_554
Na16 O92 2.564628 1_565
Na16 O18 2.565426 1_555
Na16 O34 2.712532 1_555
Na16 O38 2.845399 1_555
Na17 O91 2.324391 1_555
Na17 O121 2.385906 1_555
Na17 O19 2.526891 1_555
Na17 O93 2.540097 1_565
Na17 O125 2.603082 1_555
Na17 O49 2.669373 1_554
Na17 O35 2.747351 1_555
Na17 O39 2.844612 1_555
Na18 O81 2.356316 1_555
Na18 O8 2.396084 1_555
Na18 O108 2.403103 1_555
Na18 O82 2.428007 1_555
Na18 O110 2.495389 1_555
Na18 O38 2.667220 1_556
Na18 O67 2.815333 1_555
Na18 O53 2.884582 1_555
Na19 O80 2.357275 1_655
Na19 O83 2.428207 1_555
Na19 O109 2.443577 1_555
Na19 O111 2.465334 1_555
Na19 O39 2.469583 1_556
Na19 O9 2.602577 1_555
Na19 O52 2.799181 1_655
Na19 O66 2.930854 1_655
Na20 O82 2.302811 1_545
Na20 O112 2.315466 1_555
Na20 O10 2.445861 1_555
Na20 O110 2.508617 1_555
Na20 O79 2.513992 1_555
Na20 O40 2.753528 1_556
Na20 O68 2.783284 1_545
Na20 O48 2.863320 1_545
Na21 O113 2.310343 1_555
Na21 O83 2.328535 1_545
Na21 O11 2.478411 1_555
Na21 O111 2.503689 1_555
Na21 O78 2.514601 1_655
Na21 O41 2.697548 1_556
Na21 O69 2.712888 1_545
Na21 O49 2.811281 1_545
Na22 O108 2.390927 1_555
Na22 O80 2.416056 1_545
Na22 O78 2.435385 1_555
Na22 O6 2.450321 1_555
Na22 O112 2.476974 1_555
Na22 O36 2.665207 1_556
Na22 O70 2.722224 1_555
Na22 O50 2.927059 1_555
Na23 O109 2.380250 1_555
Na23 O81 2.384964 1_545
Na23 O79 2.412158 1_555
Na23 O7 2.414302 1_555
Na23 O113 2.495876 1_555
Na23 O37 2.632703 1_556
Na23 O71 2.725040 1_555
Na23 O51 2.926961 1_555
Na24 O77 2.346316 1_555
Na24 O46 2.404076 1_555
Na24 O118 2.467017 1_555
Na24 O114 2.468899 1_555
Na24 O74 2.486777 1_545
Na24 O57 2.709892 1_555
Na24 O4 2.743040 1_555
Na25 O115 2.363159 1_555
Na25 O76 2.373730 1_655
Na25 O75 2.401969 1_545
Na25 O119 2.428085 1_555
Na25 O5 2.518958 1_555
Na25 O47 2.528723 1_555
Na25 O56 2.844715 1_655
Na25 O60 2.955628 1_655
Na26 O72 2.378565 1_545
Na26 O76 2.378571 1_555
Na26 O114 2.387325 1_555
Na26 O116 2.470702 1_555
Na26 O0 2.517373 1_555
Na26 O42 2.547081 1_555
Na26 O62 2.779336 1_545
Na26 O58 2.861814 1_545
Na27 O115 2.363537 1_555
Na27 O117 2.417148 1_555
Na27 O77 2.464080 1_555
Na27 O73 2.467609 1_545
Na27 O43 2.511218 1_555
Na27 O1 2.613715 1_555
Na27 O63 2.754896 1_545
Na27 O59 2.885115 1_545
Na28 O116 2.305337 1_555
Na28 O74 2.322084 1_555
Na28 O118 2.470559 1_555
Na28 O73 2.497495 1_555
Na28 O2 2.606609 1_555
Na28 O44 2.622533 1_555
Na28 O54 2.763232 1_555
Na28 O64 2.771263 1_555
Na29 O117 2.321506 1_555
Na29 O75 2.323247 1_555
Na29 O45 2.468770 1_555
Na29 O119 2.534370 1_555
Na29 O72 2.546041 1_655
Na29 O3 2.677648 1_555
Na29 O55 2.745106 1_555
Na29 O65 2.947926 1_555
Na30 O89 2.389735 1_555
Na30 O75 2.404876 1_555
Na30 O85 2.424972 1_565
Na30 O76 2.461710 1_665
Na30 O86 2.499208 1_665
Na30 O72 2.509111 1_655
Na31 O87 2.362154 1_555
Na31 O84 2.366949 1_555
Na31 O77 2.429447 1_555
Na31 O88 2.442734 1_545
Na31 O73 2.563085 1_545
Na31 O74 2.571402 1_545
Na32 O91 2.378306 1_455
Na32 O94 2.393568 1_565
Na32 O80 2.412833 1_554
Na32 O93 2.436139 1_465
Na32 O83 2.520609 1_454
Na32 O78 2.532767 1_564
Na33 O81 2.373076 1_545
Na33 O82 2.380562 1_545
Na33 O90 2.444695 1_546
Na33 O79 2.452075 1_555
Na33 O95 2.478956 1_556
Na33 O92 2.523187 1_556
Na34 O96 2.371978 1_555
Na34 O100 2.409133 1_555
Na34 O98 2.427924 1_555
Na34 O108 2.501130 1_555
Na34 O112 2.508200 1_555
Na34 O110 2.724964 1_555
Na35 O99 2.305543 1_555
Na35 O101 2.417536 1_555
Na35 O97 2.418713 1_555
Na35 O109 2.439246 1_555
Na35 O113 2.486447 1_555
Na35 O111 2.695728 1_555
Na36 O114 2.358507 1_555
Na36 O116 2.416542 1_555
Na36 O106 2.419505 1_555
Na36 O104 2.506481 1_555
Na36 O102 2.513685 1_555
Na36 O118 2.598623 1_555
Na37 O117 2.387955 1_555
Na37 O115 2.445933 1_555
Na37 O103 2.448347 1_555
Na37 O107 2.475668 1_555
Na37 O105 2.483343 1_555
Na37 O119 2.582477 1_555
Na38 O136 2.368831 1_555
Na38 O122 2.398184 1_555
Na38 O120 2.433852 1_555
Na38 O132 2.437717 1_555
Na38 O134 2.452268 1_555
Na38 O124 2.544003 1_555
Na39 O135 2.420555 1_555
Na39 O121 2.423049 1_555
Na39 O123 2.431001 1_555
Na39 O133 2.452422 1_555
Na39 O137 2.452985 1_555
Na39 O125 2.536750 1_555
Na40 O130 2.385882 1_555
Na40 O126 2.413523 1_555
Na40 O142 2.444185 1_555
Na40 O138 2.481981 1_555
Na40 O140 2.491695 1_555
Na40 O128 2.539736 1_555
Na41 O131 2.409659 1_555
Na41 O129 2.409981 1_555
Na41 O127 2.431035 1_555
Na41 O141 2.455612 1_555
Na41 O143 2.461494 1_555
Na41 O139 2.481791 1_555
Al0 O5 1.790773 1_455
Al0 O3 1.844574 1_445
Al0 O0 1.933905 1_555
Al0 O75 1.952849 1_445
Al0 O76 1.969476 1_555
Al0 O72 2.219992 1_545
Al1 O1 1.837424 1_555
Al1 O2 1.858935 1_545
Al1 O77 1.905737 1_555
Al1 O74 1.922955 1_545
Al1 O4 1.967156 1_555
Al1 O73 2.072773 1_545
Al2 O6 1.824092 1_565
Al2 O11 1.852909 1_465
Al2 O9 1.906564 1_455
Al2 O83 1.942319 1_455
Al2 O80 1.975980 1_555
Al2 O78 2.140007 1_565
Al3 O8 1.784247 1_555
Al3 O10 1.839524 1_565
Al3 O7 1.866921 1_565
Al3 O82 1.997036 1_555
Al3 O81 2.004418 1_555
Al3 O79 2.261942 1_565
Al4 O24 1.814376 1_555
Al4 O96 1.889339 1_555
Al4 O26 1.890936 1_555
Al4 O100 1.942157 1_555
Al4 O98 1.952113 1_555
Al4 O28 2.118046 1_555
Al5 O31 1.828117 1_555
Al5 O103 1.865136 1_555
Al5 O35 1.921739 1_555
Al5 O105 1.923447 1_555
Al5 O107 1.932348 1_555
Al5 O33 2.122291 1_555
Al6 O36 1.800322 1_556
Al6 O108 1.846998 1_555
Al6 O38 1.847959 1_556
Al6 O112 1.924670 1_555
Al6 O40 2.059498 1_556
Al6 O110 2.135118 1_555
Al7 O37 1.806309 1_556
Al7 O39 1.847060 1_556
Al7 O109 1.873878 1_555
Al7 O113 1.927904 1_555
Al7 O41 2.058071 1_556
Al7 O111 2.251705 1_555
Al8 O42 1.788411 1_555
Al8 O46 1.837305 1_555
Al8 O114 1.884921 1_555
Al8 O116 1.958890 1_555
Al8 O44 2.041520 1_555
Al8 O118 2.246479 1_555
Al9 O43 1.818012 1_555
Al9 O45 1.838362 1_555
Al9 O47 1.859116 1_555
Al9 O115 1.927983 1_555
Al9 O117 2.005034 1_555
Al9 O119 2.238830 1_555
Al10 O63 1.768860 1_555
Al10 O65 1.810400 1_555
Al10 O135 1.862157 1_555
Al10 O133 1.885320 1_555
Al10 O61 2.144754 1_555
Al10 O137 2.359656 1_555
Al11 O70 1.790531 1_555
Al11 O142 1.838638 1_555
Al11 O68 1.839180 1_555
Al11 O138 1.890116 1_555
Al11 O66 2.157734 1_555
Al11 O140 2.208276 1_555
Ge0 O13 1.820710 1_545
Ge0 O86 1.863021 1_655
Ge0 O14 1.885118 1_655
Ge0 O85 1.890746 1_555
Ge0 O89 1.899279 1_545
Ge0 O16 2.187422 1_645
Ge1 O15 1.815652 1_555
Ge1 O12 1.849016 1_545
Ge1 O17 1.852516 1_545
Ge1 O87 1.872154 1_555
Ge1 O84 1.995336 1_555
Ge1 O88 2.378821 1_545
Ge2 O22 1.819042 1_545
Ge2 O19 1.838811 1_445
Ge2 O20 1.840930 1_555
Ge2 O94 1.892527 1_555
Ge2 O91 2.019239 1_445
Ge2 O93 2.376514 1_455
Ge3 O23 1.786893 1_555
Ge3 O18 1.804412 1_555
Ge3 O95 1.840666 1_565
Ge3 O90 1.898129 1_555
Ge3 O21 2.102969 1_565
Ge3 O92 2.314272 1_565
Ge4 O29 1.806875 1_555
Ge4 O27 1.827970 1_555
Ge4 O25 1.868017 1_555
Ge4 O99 1.928529 1_555
Ge4 O97 1.963019 1_555
Ge4 O101 2.341404 1_555
Ge5 O34 1.819656 1_555
Ge5 O30 1.829318 1_555
Ge5 O106 1.855807 1_555
Ge5 O102 1.865025 1_555
Ge5 O32 2.074172 1_555
Ge5 O104 2.267731 1_555
Ge6 O52 1.840155 1_554
Ge6 O48 1.848247 1_554
Ge6 O122 1.866992 1_555
Ge6 O120 1.891370 1_555
Ge6 O50 1.948731 1_554
Ge6 O124 2.245797 1_555
Ge7 O53 1.843529 1_554
Ge7 O49 1.856845 1_554
Ge7 O121 1.879240 1_555
Ge7 O123 1.911807 1_555
Ge7 O51 1.960322 1_554
Ge7 O125 2.152366 1_555
Ge8 O56 1.847902 1_555
Ge8 O54 1.863810 1_555
Ge8 O126 1.868507 1_555
Ge8 O130 1.883809 1_555
Ge8 O58 1.973660 1_555
Ge8 O128 2.165459 1_555
Ge9 O55 1.857218 1_555
Ge9 O57 1.859300 1_555
Ge9 O129 1.871201 1_555
Ge9 O131 1.882812 1_555
Ge9 O127 1.891508 1_555
Ge9 O59 2.227788 1_555
Ge10 O62 1.824183 1_555
Ge10 O134 1.848546 1_555
Ge10 O64 1.877048 1_555
Ge10 O132 1.882204 1_555
Ge10 O136 1.950247 1_555
Ge10 O60 2.157648 1_555
Ge11 O143 1.812610 1_555
Ge11 O71 1.839195 1_555
Ge11 O139 1.854952 1_555
Ge11 O69 1.880813 1_555
Ge11 O141 1.937545 1_555
Ge11 O67 2.290654 1_555
O0 Si0 1.619537 1_555
O1 Si1 1.619065 1_545
O2 Si2 1.603879 1_555
O3 Si3 1.619567 1_555
O4 S0 1.475073 1_555
O5 Si4 1.612689 1_555
O6 Si5 1.636776 1_555
O7 Si6 1.627930 1_555
O8 Si7 1.623145 1_555
O9 S1 1.491480 1_655
O10 Si8 1.627706 1_545
O11 Si9 1.622986 1_555
O12 Si8 1.667800 1_555
O13 Si9 1.625075 1_565
O14 Si5 1.657663 1_555
O15 Si6 1.653479 1_555
O16 S1 1.470064 1_555
O17 Si7 1.648028 1_555
O18 Si2 1.655946 1_555
O19 Si3 1.680383 1_555
O20 Si4 1.657796 1_455
O21 S0 1.493824 1_555
O22 Si0 1.656148 1_565
O23 Si1 1.680020 1_555
O24 Si10 1.606544 1_555
O25 Si11 1.648031 1_555
O26 Si12 1.623282 1_555
O27 Si13 1.665451 1_555
O28 S2 1.468376 1_555
O29 Si14 1.645242 1_555
O30 Si15 1.656952 1_555
O31 Si16 1.601844 1_555
O32 S3 1.489504 1_555
O33 S4 1.467306 1_555
O34 Si17 1.669164 1_555
O35 Si18 1.617605 1_555
O36 Si17 1.616207 1_555
O37 Si18 1.631602 1_555
O38 Si15 1.607468 1_555
O39 Si16 1.641362 1_555
O40 S3 1.473645 1_555
O41 S4 1.479511 1_555
O42 Si12 1.630807 1_555
O43 Si13 1.617759 1_555
O44 S2 1.480145 1_555
O45 Si14 1.611283 1_555
O46 Si10 1.644521 1_555
O47 Si11 1.606093 1_555
O48 Si19 1.678239 1_555
O49 Si20 1.668088 1_555
O50 S5 1.503307 1_555
O51 S6 1.506459 1_555
O52 Si21 1.674482 1_555
O53 Si22 1.669291 1_555
O54 Si23 1.661689 1_555
O55 Si24 1.657360 1_555
O56 Si25 1.659564 1_555
O57 Si26 1.660194 1_555
O58 S7 1.498953 1_555
O59 S8 1.464911 1_555
O60 S7 1.481212 1_555
O61 S8 1.486845 1_555
O62 Si23 1.640879 1_555
O63 Si24 1.629919 1_555
O64 Si25 1.659296 1_555
O65 Si26 1.636265 1_555
O66 S5 1.461443 1_555
O67 S6 1.465844 1_555
O68 Si21 1.623728 1_555
O69 Si22 1.645839 1_555
O70 Si19 1.617351 1_555
O71 Si20 1.634288 1_555
O72 S7 1.484841 1_555
O73 S8 1.506473 1_555
O74 Si23 1.638224 1_555
O75 Si24 1.646130 1_555
O76 Si25 1.635591 1_555
O77 Si26 1.658406 1_555
O78 S5 1.491997 1_555
O79 S6 1.484645 1_555
O80 Si21 1.650637 1_555
O81 Si22 1.635638 1_555
O82 Si19 1.639423 1_555
O83 Si20 1.640539 1_555
O84 Si10 1.694679 1_555
O85 Si11 1.675790 1_555
O86 Si12 1.643854 1_555
O87 Si13 1.649100 1_555
O88 S2 1.482048 1_555
O89 Si14 1.643388 1_555
O90 Si15 1.691023 1_555
O91 Si16 1.689189 1_555
O92 S3 1.482221 1_555
O93 S4 1.478935 1_555
O94 Si17 1.638611 1_555
O95 Si18 1.681855 1_555
O96 Si8 1.633449 1_545
O97 Si9 1.674049 1_555
O98 Si5 1.637891 1_555
O99 Si6 1.649536 1_555
O100 Si7 1.625179 1_555
O101 S1 1.484930 1_655
O102 Si2 1.684980 1_555
O103 Si3 1.633578 1_555
O104 S0 1.490231 1_555
O105 Si4 1.623394 1_555
O106 Si0 1.677017 1_555
O107 Si1 1.625322 1_545
O108 Si19 1.645908 1_555
O109 Si20 1.644007 1_555
O110 S6 1.486729 1_555
O111 S5 1.486652 1_655
O112 Si21 1.654056 1_545
O113 Si22 1.649615 1_545
O114 Si23 1.641709 1_545
O115 Si24 1.642444 1_545
O116 Si25 1.648292 1_555
O117 Si26 1.641946 1_555
O118 S8 1.497364 1_555
O119 S7 1.478397 1_655
O120 Si17 1.644741 1_555
O121 Si18 1.662902 1_555
O122 Si16 1.677804 1_455
O123 Si15 1.650748 1_555
O124 S3 1.512543 1_565
O125 S4 1.535177 1_565
O126 Si12 1.666824 1_565
O127 Si13 1.631661 1_565
O128 S2 1.529408 1_555
O129 Si14 1.679814 1_555
O130 Si11 1.664007 1_455
O131 Si10 1.650270 1_555
O132 Si0 1.633666 1_565
O133 Si1 1.642049 1_555
O134 Si2 1.629793 1_555
O135 Si3 1.648174 1_555
O136 Si4 1.668137 1_455
O137 S0 1.493776 1_555
O138 Si5 1.654562 1_555
O139 Si6 1.642471 1_555
O140 S1 1.501789 1_555
O141 Si7 1.668721 1_555
O142 Si8 1.649764 1_555
O143 Si9 1.642538 1_565
