# generated using pymatgen
data_Na12Ta4Zn2(SiO4)9
_symmetry_space_group_name_H-M   'P 1'
_cell_length_a   9.14708036
_cell_length_b   9.14708004
_cell_length_c   22.39334827
_cell_angle_alpha   90.00000000
_cell_angle_beta   90.00000000
_cell_angle_gamma   120.00000117
_symmetry_Int_Tables_number   1
_chemical_formula_structural   Na12Ta4Zn2(SiO4)9
_chemical_formula_sum   'Na24 Ta8 Zn4 Si18 O72'
_cell_volume   1622.61181811
_cell_formula_units_Z   2
loop_
 _symmetry_equiv_pos_site_id
 _symmetry_equiv_pos_as_xyz
  1  'x, y, z'
loop_
 _atom_site_type_symbol
 _atom_site_label
 _atom_site_symmetry_multiplicity
 _atom_site_fract_x
 _atom_site_fract_y
 _atom_site_fract_z
 _atom_site_occupancy
  Na  Na0  1  0.64143731  0.02351448  0.24544987  1
  Na  Na1  1  0.38207717  0.35856269  0.24544987  1
  Na  Na2  1  0.97648552  0.61792283  0.24544987  1
  Na  Na3  1  0.64143731  0.61792283  0.74544987  1
  Na  Na4  1  0.97648552  0.35856269  0.74544987  1
  Na  Na5  1  0.38207717  0.02351448  0.74544987  1
  Na  Na6  1  0.31134196  0.33537777  0.58778387  1
  Na  Na7  1  0.02403682  0.68865804  0.58778387  1
  Na  Na8  1  0.66462223  0.97596318  0.58778387  1
  Na  Na9  1  0.31134196  0.97596318  0.08778387  1
  Na  Na10  1  0.66462223  0.68865804  0.08778387  1
  Na  Na11  1  0.02403682  0.33537777  0.08778387  1
  Na  Na12  1  0.96467195  0.68694569  0.90723540  1
  Na  Na13  1  0.72227274  0.03532805  0.90723540  1
  Na  Na14  1  0.31305431  0.27772726  0.90723540  1
  Na  Na15  1  0.96467195  0.27772726  0.40723540  1
  Na  Na16  1  0.31305431  0.03532805  0.40723540  1
  Na  Na17  1  0.72227274  0.68694569  0.40723540  1
  Na  Na18  1  0.00000000  -0.00000000  0.49197644  1
  Na  Na19  1  0.00000000  -0.00000000  0.99197644  1
  Na  Na20  1  0.66666700  0.33333300  0.82148077  1
  Na  Na21  1  0.66666700  0.33333300  0.32148077  1
  Na  Na22  1  0.33333300  0.66666700  0.16796310  1
  Na  Na23  1  0.33333300  0.66666700  0.66796310  1
  Ta  Ta0  1  0.00000000  -0.00000000  0.64900414  1
  Ta  Ta1  1  0.00000000  -0.00000000  0.14900414  1
  Ta  Ta2  1  0.66666700  0.33333300  0.97946943  1
  Ta  Ta3  1  0.66666700  0.33333300  0.47946943  1
  Ta  Ta4  1  0.33333300  0.66666700  0.01942222  1
  Ta  Ta5  1  0.33333300  0.66666700  0.51942222  1
  Ta  Ta6  1  0.33333300  0.66666700  0.31119874  1
  Ta  Ta7  1  0.33333300  0.66666700  0.81119874  1
  Zn  Zn0  1  0.00000000  -0.00000000  0.34838049  1
  Zn  Zn1  1  0.00000000  -0.00000000  0.84838049  1
  Zn  Zn2  1  0.66666700  0.33333300  0.68292107  1
  Zn  Zn3  1  0.66666700  0.33333300  0.18292107  1
  Si  Si0  1  0.29222377  0.00036232  0.25368933  1
  Si  Si1  1  0.70813855  0.70777623  0.25368933  1
  Si  Si2  1  -0.00036232  0.29186145  0.25368933  1
  Si  Si3  1  0.29222377  0.29186145  0.75368933  1
  Si  Si4  1  -0.00036232  0.70777623  0.75368933  1
  Si  Si5  1  0.70813855  0.00036232  0.75368933  1
  Si  Si6  1  0.95911959  0.33314189  0.58496615  1
  Si  Si7  1  0.37402330  0.04088041  0.58496615  1
  Si  Si8  1  0.66685811  0.62597670  0.58496615  1
  Si  Si9  1  0.95911959  0.62597670  0.08496615  1
  Si  Si10  1  0.66685811  0.04088041  0.08496615  1
  Si  Si11  1  0.37402330  0.33314189  0.08496615  1
  Si  Si12  1  0.62155423  0.66189915  0.91673223  1
  Si  Si13  1  0.04034392  0.37844577  0.91673223  1
  Si  Si14  1  0.33810085  0.95965608  0.91673223  1
  Si  Si15  1  0.62155423  0.95965608  0.41673223  1
  Si  Si16  1  0.33810085  0.37844577  0.41673223  1
  Si  Si17  1  0.04034392  0.66189915  0.41673223  1
  O  O0  1  0.21168512  0.02938119  0.31247247  1
  O  O1  1  0.81769608  0.78831488  0.31247247  1
  O  O2  1  0.97061881  0.18230392  0.31247247  1
  O  O3  1  0.21168512  0.18230392  0.81247247  1
  O  O4  1  0.97061881  0.78831488  0.81247247  1
  O  O5  1  0.81769608  0.02938119  0.81247247  1
  O  O6  1  0.80452968  0.97061937  0.69324813  1
  O  O7  1  0.16608969  0.19547032  0.69324813  1
  O  O8  1  0.02938063  0.83391031  0.69324813  1
  O  O9  1  0.80452968  0.83391031  0.19324813  1
  O  O10  1  0.02938063  0.19547032  0.19324813  1
  O  O11  1  0.16608969  0.97061937  0.19324813  1
  O  O12  1  0.89080280  0.38144852  0.64260429  1
  O  O13  1  0.49064672  0.10919720  0.64260429  1
  O  O14  1  0.61855148  0.50935328  0.64260429  1
  O  O15  1  0.89080280  0.50935328  0.14260429  1
  O  O16  1  0.61855148  0.10919720  0.14260429  1
  O  O17  1  0.49064672  0.38144852  0.14260429  1
  O  O18  1  0.46962258  0.30326724  0.02614792  1
  O  O19  1  0.83364566  0.53037742  0.02614792  1
  O  O20  1  0.69673276  0.16635434  0.02614792  1
  O  O21  1  0.46962258  0.16635434  0.52614792  1
  O  O22  1  0.69673276  0.53037742  0.52614792  1
  O  O23  1  0.83364566  0.30326724  0.52614792  1
  O  O24  1  0.51733412  0.67479784  0.97484021  1
  O  O25  1  0.15746272  0.48266588  0.97484021  1
  O  O26  1  0.32520216  0.84253728  0.97484021  1
  O  O27  1  0.51733412  0.84253728  0.47484021  1
  O  O28  1  0.32520216  0.48266588  0.47484021  1
  O  O29  1  0.15746272  0.67479784  0.47484021  1
  O  O30  1  0.13564508  0.63285038  0.35867658  1
  O  O31  1  0.49720430  0.86435492  0.35867658  1
  O  O32  1  0.36714962  0.50279570  0.35867658  1
  O  O33  1  0.13564508  0.50279570  0.85867658  1
  O  O34  1  0.36714962  0.86435492  0.85867658  1
  O  O35  1  0.49720430  0.63285038  0.85867658  1
  O  O36  1  0.02240337  0.82678735  0.41806235  1
  O  O37  1  0.80438398  0.97759663  0.41806235  1
  O  O38  1  0.17321265  0.19561602  0.41806235  1
  O  O39  1  0.02240337  0.19561602  0.91806235  1
  O  O40  1  0.17321265  0.97759663  0.91806235  1
  O  O41  1  0.80438398  0.82678735  0.91806235  1
  O  O42  1  0.97425239  0.16030688  0.58909537  1
  O  O43  1  0.18605449  0.02574761  0.58909537  1
  O  O44  1  0.83969312  0.81394551  0.58909537  1
  O  O45  1  0.97425239  0.81394551  0.08909537  1
  O  O46  1  0.83969312  0.02574761  0.08909537  1
  O  O47  1  0.18605449  0.16030688  0.08909537  1
  O  O48  1  0.67873869  0.15839554  0.74577773  1
  O  O49  1  0.47965786  0.32126131  0.74577773  1
  O  O50  1  0.84160446  0.52034214  0.74577773  1
  O  O51  1  0.67873869  0.52034214  0.24577773  1
  O  O52  1  0.84160446  0.32126131  0.24577773  1
  O  O53  1  0.47965786  0.15839554  0.24577773  1
  O  O54  1  0.63027713  0.48551784  0.92292310  1
  O  O55  1  0.85524171  0.36972287  0.92292310  1
  O  O56  1  0.51448216  0.14475829  0.92292310  1
  O  O57  1  0.63027713  0.14475829  0.42292310  1
  O  O58  1  0.51448216  0.36972287  0.42292310  1
  O  O59  1  0.85524171  0.48551784  0.42292310  1
  O  O60  1  0.34045183  0.49422048  0.07468356  1
  O  O61  1  0.15376765  0.65954817  0.07468356  1
  O  O62  1  0.50577952  0.84623235  0.07468356  1
  O  O63  1  0.34045183  0.84623235  0.57468356  1
  O  O64  1  0.50577952  0.65954817  0.57468356  1
  O  O65  1  0.15376765  0.49422048  0.57468356  1
  O  O66  1  0.29628738  0.81792390  0.25500595  1
  O  O67  1  0.52163551  0.70371262  0.25500595  1
  O  O68  1  0.18207610  0.47836449  0.25500595  1
  O  O69  1  0.29628738  0.47836449  0.75500595  1
  O  O70  1  0.18207610  0.70371262  0.75500595  1
  O  O71  1  0.52163551  0.81792390  0.75500595  1
loop_
_geom_bond_atom_site_label_1
_geom_bond_atom_site_label_2
_geom_bond_distance
_geom_bond_site_symmetry_2
Na0 O53 2.353256 1_555
Na0 O52 2.404857 1_555
Na0 O16 2.475120 1_555
Na0 O67 2.568688 1_545
Na0 O66 2.759080 1_545
Na0 O31 2.892791 1_545
Na1 O51 2.353264 1_555
Na1 O53 2.404864 1_555
Na1 O17 2.475124 1_555
Na1 O68 2.568697 1_555
Na1 O67 2.759081 1_555
Na1 O32 2.892794 1_555
Na2 O52 2.353264 1_555
Na2 O51 2.404855 1_555
Na2 O15 2.475123 1_555
Na2 O66 2.568689 1_655
Na2 O68 2.759072 1_655
Na2 O30 2.892790 1_655
Na3 O49 2.353264 1_555
Na3 O50 2.404864 1_555
Na3 O14 2.475124 1_555
Na3 O71 2.568696 1_555
Na3 O69 2.759081 1_555
Na3 O35 2.892794 1_555
Na4 O50 2.353256 1_555
Na4 O48 2.404857 1_555
Na4 O12 2.475120 1_555
Na4 O69 2.568688 1_655
Na4 O70 2.759080 1_655
Na4 O33 2.892791 1_655
Na5 O48 2.353265 1_555
Na5 O49 2.404855 1_555
Na5 O13 2.475123 1_555
Na5 O70 2.568689 1_545
Na5 O71 2.759072 1_545
Na5 O34 2.892789 1_545
Na6 O43 2.467768 1_555
Na6 O65 2.523646 1_555
Na6 O64 2.601538 1_555
Na6 O42 2.671119 1_455
Na6 O7 2.698207 1_555
Na6 O14 2.732055 1_555
Na6 O28 2.838512 1_555
Na6 O21 2.937675 1_555
Na7 O44 2.467777 1_455
Na7 O63 2.523630 1_555
Na7 O65 2.601523 1_555
Na7 O43 2.671119 1_565
Na7 O8 2.698209 1_555
Na7 O12 2.732055 1_455
Na7 O29 2.838504 1_555
Na7 O22 2.937675 1_455
Na8 O42 2.467769 1_565
Na8 O64 2.523630 1_555
Na8 O63 2.601540 1_555
Na8 O44 2.671111 1_555
Na8 O6 2.698204 1_555
Na8 O13 2.732055 1_565
Na8 O27 2.838509 1_555
Na8 O23 2.937675 1_565
Na9 O47 2.467777 1_565
Na9 O61 2.523630 1_555
Na9 O62 2.601523 1_555
Na9 O45 2.671119 1_455
Na9 O11 2.698209 1_555
Na9 O16 2.732055 1_565
Na9 O26 2.838504 1_554
Na9 O18 2.937675 1_565
Na10 O45 2.467768 1_555
Na10 O62 2.523646 1_555
Na10 O60 2.601538 1_555
Na10 O46 2.671119 1_565
Na10 O9 2.698207 1_555
Na10 O17 2.732055 1_555
Na10 O24 2.838512 1_554
Na10 O19 2.937675 1_555
Na11 O46 2.467769 1_455
Na11 O60 2.523630 1_555
Na11 O61 2.601540 1_555
Na11 O47 2.671111 1_555
Na11 O10 2.698204 1_555
Na11 O15 2.732055 1_455
Na11 O25 2.838509 1_554
Na11 O20 2.937675 1_455
Na12 O4 2.305519 1_555
Na12 O40 2.386270 1_655
Na12 O41 2.391667 1_555
Na12 O55 2.576921 1_555
Na12 O54 2.690418 1_555
Na12 O19 2.976875 1_556
Na12 O33 3.016594 1_655
Na13 O5 2.305522 1_555
Na13 O41 2.386276 1_545
Na13 O39 2.391675 1_655
Na13 O56 2.576904 1_555
Na13 O55 2.690416 1_555
Na13 O20 2.976870 1_556
Na13 O34 3.016594 1_545
Na14 O3 2.305520 1_555
Na14 O39 2.386268 1_555
Na14 O40 2.391675 1_545
Na14 O54 2.576918 1_555
Na14 O56 2.690433 1_555
Na14 O18 2.976878 1_556
Na14 O35 3.016594 1_555
Na15 O2 2.305522 1_555
Na15 O38 2.386276 1_655
Na15 O37 2.391675 1_545
Na15 O59 2.576904 1_555
Na15 O57 2.690416 1_555
Na15 O23 2.976870 1_555
Na15 O30 3.016594 1_655
Na16 O0 2.305519 1_555
Na16 O36 2.386270 1_545
Na16 O38 2.391667 1_555
Na16 O57 2.576921 1_555
Na16 O58 2.690418 1_555
Na16 O21 2.976875 1_555
Na16 O31 3.016594 1_545
Na17 O1 2.305520 1_555
Na17 O37 2.386268 1_555
Na17 O36 2.391675 1_655
Na17 O58 2.576918 1_555
Na17 O59 2.690433 1_555
Na17 O22 2.976878 1_555
Na17 O32 3.016594 1_555
Na18 O38 2.369937 1_555
Na18 O36 2.369937 1_545
Na18 O37 2.369937 1_445
Na18 O44 2.698296 1_445
Na18 O42 2.698296 1_455
Na18 O43 2.698296 1_555
Na19 O39 2.369937 1_555
Na19 O41 2.369937 1_445
Na19 O40 2.369937 1_545
Na19 O45 2.698296 1_446
Na19 O47 2.698296 1_556
Na19 O46 2.698296 1_456
Na20 O50 2.371344 1_555
Na20 O49 2.371344 1_555
Na20 O48 2.371344 1_555
Na20 O56 2.769886 1_555
Na20 O54 2.769886 1_555
Na20 O55 2.769886 1_555
Na21 O51 2.371344 1_555
Na21 O53 2.371344 1_555
Na21 O52 2.371344 1_555
Na21 O57 2.769886 1_555
Na21 O59 2.769886 1_555
Na21 O58 2.769886 1_555
Na22 O68 2.509422 1_555
Na22 O67 2.509422 1_555
Na22 O66 2.509422 1_555
Na22 O62 2.637868 1_555
Na22 O60 2.637868 1_555
Na22 O61 2.637868 1_555
Na23 O69 2.509422 1_555
Na23 O71 2.509422 1_555
Na23 O70 2.509422 1_555
Na23 O63 2.637868 1_555
Na23 O65 2.637868 1_555
Na23 O64 2.637868 1_555
O0 Si0 1.594209 1_555
O0 Zn0 1.986877 1_555
O1 Si1 1.594209 1_555
O1 Zn0 1.986877 1_665
O2 Si2 1.594209 1_655
O2 Zn0 1.986877 1_655
O3 Si3 1.594209 1_555
O3 Zn1 1.986877 1_555
O4 Si4 1.594209 1_655
O4 Zn1 1.986877 1_665
O5 Si5 1.594209 1_555
O5 Zn1 1.986877 1_655
O6 Si5 1.709735 1_565
O6 Ta0 1.941705 1_665
O7 Si3 1.709735 1_555
O7 Ta0 1.941705 1_555
O8 Si4 1.709735 1_555
O8 Ta0 1.941705 1_565
O9 Si1 1.709735 1_555
O9 Ta1 1.941705 1_665
O10 Si2 1.709735 1_555
O10 Ta1 1.941705 1_555
O11 Si0 1.709735 1_565
O11 Ta1 1.941705 1_565
O12 Si6 1.589905 1_555
O12 Zn2 2.075994 1_555
O13 Si7 1.589905 1_555
O13 Zn2 2.075994 1_555
O14 Si8 1.589905 1_555
O14 Zn2 2.075994 1_555
O15 Si9 1.589905 1_555
O15 Zn3 2.075994 1_555
O16 Si10 1.589905 1_555
O16 Zn3 2.075994 1_555
O17 Si11 1.589905 1_555
O17 Zn3 2.075994 1_555
O18 Si11 1.677246 1_555
O18 Ta2 1.980191 1_554
O19 Si9 1.677246 1_555
O19 Ta2 1.980191 1_554
O20 Si10 1.677246 1_555
O20 Ta2 1.980191 1_554
O21 Si7 1.677246 1_555
O21 Ta3 1.980191 1_555
O22 Si8 1.677246 1_555
O22 Ta3 1.980191 1_555
O23 Si6 1.677246 1_555
O23 Ta3 1.980191 1_555
O24 Si12 1.651787 1_555
O24 Ta4 1.926077 1_556
O25 Si13 1.651787 1_555
O25 Ta4 1.926077 1_556
O26 Si14 1.651787 1_555
O26 Ta4 1.926077 1_556
O27 Si15 1.651787 1_555
O27 Ta5 1.926077 1_555
O28 Si16 1.651787 1_555
O28 Ta5 1.926077 1_555
O29 Si17 1.651787 1_555
O29 Ta5 1.926077 1_555
O30 Si17 1.659005 1_555
O30 Ta6 1.984072 1_555
O31 Si15 1.659005 1_555
O31 Ta6 1.984072 1_555
O32 Si16 1.659005 1_555
O32 Ta6 1.984072 1_555
O33 Si13 1.659005 1_555
O33 Ta7 1.984072 1_555
O34 Si14 1.659005 1_555
O34 Ta7 1.984072 1_555
O35 Si12 1.659005 1_555
O35 Ta7 1.984072 1_555
O36 Si17 1.596913 1_555
O36 Zn0 2.304745 1_565
O37 Si15 1.596922 1_555
O37 Zn0 2.304745 1_665
O38 Si16 1.596918 1_555
O38 Zn0 2.304745 1_555
O39 Si13 1.596922 1_555
O39 Zn1 2.304745 1_555
O40 Si14 1.596913 1_555
O40 Zn1 2.304745 1_565
O41 Si12 1.596918 1_555
O41 Zn1 2.304745 1_665
O42 Si6 1.657077 1_555
O42 Ta0 2.085844 1_655
O43 Si7 1.657086 1_555
O43 Ta0 2.085844 1_555
O44 Si8 1.657082 1_555
O44 Ta0 2.085844 1_665
O45 Si9 1.657086 1_555
O45 Ta1 2.085844 1_665
O46 Si10 1.657077 1_555
O46 Ta1 2.085844 1_655
O47 Si11 1.657082 1_555
O47 Ta1 2.085844 1_555
O48 Si5 1.606873 1_555
O48 Zn2 2.175011 1_555
O49 Si3 1.606882 1_555
O49 Zn2 2.175011 1_555
O50 Si4 1.606879 1_655
O50 Zn2 2.175011 1_555
O51 Si1 1.606882 1_555
O51 Zn3 2.175011 1_555
O52 Si2 1.606873 1_655
O52 Zn3 2.175012 1_555
O53 Si0 1.606879 1_555
O53 Zn3 2.175011 1_555
O54 Si12 1.660509 1_555
O54 Ta2 2.028637 1_555
O55 Si13 1.660491 1_655
O55 Ta2 2.028637 1_555
O56 Si14 1.660499 1_545
O56 Ta2 2.028637 1_555
O57 Si15 1.660491 1_545
O57 Ta3 2.028637 1_555
O58 Si16 1.660509 1_555
O58 Ta3 2.028637 1_555
O59 Si17 1.660499 1_655
O59 Ta3 2.028637 1_555
O60 Si11 1.664535 1_555
O60 Ta4 2.031369 1_555
O61 Si9 1.664517 1_455
O61 Ta4 2.031369 1_555
O62 Si10 1.664523 1_565
O62 Ta4 2.031369 1_555
O63 Si7 1.664517 1_565
O63 Ta5 2.031369 1_555
O64 Si8 1.664535 1_555
O64 Ta5 2.031369 1_555
O65 Si6 1.664523 1_455
O65 Ta5 2.031369 1_555
O66 Si0 1.687928 1_565
O66 Ta6 2.020229 1_555
O67 Si1 1.687938 1_555
O67 Ta6 2.020229 1_555
O68 Si2 1.687933 1_555
O68 Ta6 2.020229 1_555
O69 Si3 1.687938 1_555
O69 Ta7 2.020229 1_555
O70 Si4 1.687929 1_555
O70 Ta7 2.020229 1_555
O71 Si5 1.687933 1_565
O71 Ta7 2.020229 1_555
