# generated using pymatgen
data_MgNb3O7F
_symmetry_space_group_name_H-M   'P 1'
_cell_length_a   3.89973696
_cell_length_b   11.13191359
_cell_length_c   4.13872000
_cell_angle_alpha   90.00000000
_cell_angle_beta   90.00000000
_cell_angle_gamma   79.90560504
_symmetry_Int_Tables_number   1
_chemical_formula_structural   MgNb3O7F
_chemical_formula_sum   'Mg1 Nb3 O7 F1'
_cell_volume   176.88698357
_cell_formula_units_Z   1
loop_
 _symmetry_equiv_pos_site_id
 _symmetry_equiv_pos_as_xyz
  1  'x, y, z'
loop_
 _atom_site_type_symbol
 _atom_site_label
 _atom_site_symmetry_multiplicity
 _atom_site_fract_x
 _atom_site_fract_y
 _atom_site_fract_z
 _atom_site_occupancy
  Mg  Mg0  1  0.30096400  0.42035600  0.50000000  1
  Nb  Nb0  1  0.19337400  0.62396900  0.00000000  1
  Nb  Nb1  1  0.84319100  0.33135300  0.00000000  1
  Nb  Nb2  1  0.99207900  0.97573700  0.00000000  1
  O  O0  1  0.10068300  0.79117300  0.00000000  1
  O  O1  1  0.20867400  0.60024300  0.50000000  1
  O  O2  1  0.72578300  0.56392400  0.00000000  1
  O  O3  1  0.31329100  0.39141800  0.00000000  1
  O  O4  1  0.83473700  0.35307200  0.50000000  1
  O  O5  1  0.91283100  0.16512300  0.00000000  1
  O  O6  1  0.49662100  0.98204500  0.00000000  1
  F  F0  1  0.99443900  0.97658600  0.50000000  1
loop_
_geom_bond_atom_site_label_1
_geom_bond_atom_site_label_2
_geom_bond_distance
_geom_bond_site_symmetry_2
Mg0 O1 1.971509 1_555
Mg0 O4 2.084247 1_455
Mg0 O4 2.085048 1_555
Mg0 O3 2.093539 1_555
Mg0 O3 2.093539 1_556
Nb0 O0 1.832827 1_555
Nb0 O2 2.049176 1_455
Nb0 O2 2.066672 1_555
Nb0 O1 2.085676 1_555
Nb0 O1 2.085676 1_554
Nb0 O3 2.548703 1_555
Nb1 O5 1.822577 1_555
Nb1 O3 2.057432 1_555
Nb1 O3 2.058551 1_655
Nb1 O4 2.083026 1_554
Nb1 O4 2.083026 1_555
Nb1 O2 2.548887 1_555
Nb2 O6 1.921093 1_555
Nb2 O6 1.981095 1_655
Nb2 O0 2.023741 1_655
Nb2 O5 2.076474 1_565
F0 Nb2 2.069409 1_555
F0 Nb2 2.069409 1_556
