# generated using pymatgen
data_TmAgPb
_symmetry_space_group_name_H-M   'P 1'
_cell_length_a   7.43201242
_cell_length_b   7.43201242
_cell_length_c   4.48741094
_cell_angle_alpha   90.00000000
_cell_angle_beta   90.00000000
_cell_angle_gamma   119.99999767
_symmetry_Int_Tables_number   1
_chemical_formula_structural   TmAgPb
_chemical_formula_sum   'Tm3 Ag3 Pb3'
_cell_volume   214.65417387
_cell_formula_units_Z   3
loop_
 _symmetry_equiv_pos_site_id
 _symmetry_equiv_pos_as_xyz
  1  'x, y, z'
loop_
 _atom_site_type_symbol
 _atom_site_label
 _atom_site_symmetry_multiplicity
 _atom_site_fract_x
 _atom_site_fract_y
 _atom_site_fract_z
 _atom_site_occupancy
  Tm  Tm0  1  0.57262310  -0.00000000  0.50000000  1
  Tm  Tm1  1  0.42737690  0.42737690  0.50000000  1
  Tm  Tm2  1  -0.00000000  0.57262310  0.50000000  1
  Ag  Ag0  1  0.75346165  0.75346165  0.00000000  1
  Ag  Ag1  1  -0.00000000  0.24653835  0.00000000  1
  Ag  Ag2  1  0.24653835  -0.00000000  -0.00000000  1
  Pb  Pb0  1  0.00000000  -0.00000000  0.50000000  1
  Pb  Pb1  1  0.33333300  0.66666700  0.00000000  1
  Pb  Pb2  1  0.66666700  0.33333300  -0.00000000  1
loop_
_geom_bond_atom_site_label_1
_geom_bond_atom_site_label_2
_geom_bond_distance
_geom_bond_site_symmetry_2
Ag0 Pb1 2.855058 1_555
Ag0 Pb2 2.855058 1_555
Ag0 Pb0 2.896800 1_665
Ag0 Pb0 2.896800 1_664
Ag0 Ag1 3.173595 1_665
Ag0 Ag2 3.173595 1_665
Ag0 Tm1 3.302636 1_554
Ag0 Tm1 3.302636 1_555
Ag0 Tm2 3.558137 1_655
Ag0 Tm0 3.558137 1_565
Ag0 Tm0 3.558137 1_564
Ag0 Tm2 3.558137 1_654
Ag1 Pb2 2.855051 1_455
Ag1 Pb1 2.855056 1_555
Ag1 Pb0 2.896800 1_554
Ag1 Pb0 2.896800 1_555
Ag1 Ag2 3.173595 1_555
Ag1 Tm2 3.302636 1_555
Ag1 Tm2 3.302636 1_554
Ag1 Tm1 3.558137 1_554
Ag1 Tm1 3.558137 1_555
Ag1 Tm0 3.558137 1_455
Ag1 Tm0 3.558137 1_454
Ag2 Pb1 2.855051 1_545
Ag2 Pb2 2.855056 1_555
Ag2 Pb0 2.896800 1_554
Ag2 Pb0 2.896800 1_555
Ag2 Tm0 3.302636 1_555
Ag2 Tm0 3.302636 1_554
Ag2 Tm1 3.558137 1_554
Ag2 Tm1 3.558137 1_555
Ag2 Tm2 3.558137 1_544
Ag2 Tm2 3.558137 1_545
Pb0 Tm2 3.176270 1_545
Pb0 Tm0 3.176270 1_455
Pb0 Tm1 3.176271 1_555
Pb1 Tm2 3.150939 1_554
Pb1 Tm2 3.150939 1_555
Pb1 Tm0 3.150940 1_564
Pb1 Tm0 3.150940 1_565
Pb1 Tm1 3.150944 1_555
Pb1 Tm1 3.150944 1_554
Pb2 Tm0 3.150939 1_555
Pb2 Tm0 3.150939 1_554
Pb2 Tm2 3.150940 1_655
Pb2 Tm2 3.150940 1_654
Pb2 Tm1 3.150944 1_555
Pb2 Tm1 3.150944 1_554
