# generated using pymatgen
data_Na2MgTi2O5
_symmetry_space_group_name_H-M   'P 1'
_cell_length_a   3.28561410
_cell_length_b   6.52441446
_cell_length_c   5.90879627
_cell_angle_alpha   88.32751117
_cell_angle_beta   89.68423366
_cell_angle_gamma   75.61340995
_symmetry_Int_Tables_number   1
_chemical_formula_structural   Na2MgTi2O5
_chemical_formula_sum   'Na2 Mg1 Ti2 O5'
_cell_volume   122.64062526
_cell_formula_units_Z   1
loop_
 _symmetry_equiv_pos_site_id
 _symmetry_equiv_pos_as_xyz
  1  'x, y, z'
loop_
 _atom_site_type_symbol
 _atom_site_label
 _atom_site_symmetry_multiplicity
 _atom_site_fract_x
 _atom_site_fract_y
 _atom_site_fract_z
 _atom_site_occupancy
  Na  Na0  1  0.51718310  0.95103697  0.29194900  1
  Na  Na1  1  0.46283330  0.08046049  0.70515560  1
  Mg  Mg0  1  0.73267763  0.54319923  0.50586043  1
  Ti  Ti0  1  0.15350447  0.69330912  0.94042491  1
  Ti  Ti1  1  0.85101072  0.29851122  0.09445780  1
  O  O0  1  0.15365690  0.70155604  0.60610255  1
  O  O1  1  0.69099429  0.61967456  0.16700924  1
  O  O2  1  0.32228393  0.35857337  0.93273952  1
  O  O3  1  0.88188291  0.23780208  0.41103466  1
  O  O4  1  0.00182976  0.99504394  0.00151629  1
loop_
_geom_bond_atom_site_label_1
_geom_bond_atom_site_label_2
_geom_bond_distance
_geom_bond_site_symmetry_2
Na0 O1 2.240566 1_555
Na0 O4 2.378286 1_555
Na0 O4 2.394033 1_655
Na0 O3 2.544146 1_465
Na0 O3 2.575212 1_565
Na1 O2 2.243500 1_555
Na1 O4 2.449498 1_646
Na1 O4 2.450422 1_546
Na1 O3 2.557665 1_555
Na1 O3 2.583848 1_455
Mg0 O0 2.020924 1_555
Mg0 O0 2.021479 1_655
Mg0 O3 2.025146 1_555
Mg0 O1 2.046284 1_555
O0 Ti0 1.974606 1_555
O1 Ti1 2.086483 1_555
O1 Ti0 2.152996 1_654
O1 Ti0 2.170003 1_554
O2 Ti1 1.930706 1_456
O2 Ti1 1.934593 1_556
O2 Ti0 2.117292 1_555
O3 Ti1 1.898724 1_555
O4 Ti0 1.950946 1_554
O4 Ti1 2.010038 1_465
