# generated using pymatgen
data_Na3Be
_symmetry_space_group_name_H-M   'P 1'
_cell_length_a   5.27166277
_cell_length_b   5.27166277
_cell_length_c   5.27166277
_cell_angle_alpha   120.22291227
_cell_angle_beta   120.22291227
_cell_angle_gamma   89.61433631
_symmetry_Int_Tables_number   1
_chemical_formula_structural   Na3Be
_chemical_formula_sum   'Na3 Be1'
_cell_volume   103.24082227
_cell_formula_units_Z   1
loop_
 _symmetry_equiv_pos_site_id
 _symmetry_equiv_pos_as_xyz
  1  'x, y, z'
loop_
 _atom_site_type_symbol
 _atom_site_label
 _atom_site_symmetry_multiplicity
 _atom_site_fract_x
 _atom_site_fract_y
 _atom_site_fract_z
 _atom_site_occupancy
  Na  Na0  1  0.75000000  0.25000000  0.50000000  1
  Na  Na1  1  0.25000000  0.75000000  0.50000000  1
  Na  Na2  1  0.50000000  0.50000000  0.00000000  1
  Be  Be0  1  0.00000000  0.00000000  0.00000000  1
loop_
_geom_bond_atom_site_label_1
_geom_bond_atom_site_label_2
_geom_bond_distance
_geom_bond_site_symmetry_2
Na0 Na2 3.224597 1_656
Na0 Na2 3.224597 1_545
Na0 Na2 3.224597 1_556
Na0 Na2 3.224597 1_555
Na1 Na2 3.224597 1_566
Na1 Na2 3.224597 1_455
Na1 Na2 3.224597 1_556
Na1 Na2 3.224597 1_555
Be0 Na1 3.224597 1_444
Be0 Na1 3.224597 1_544
Be0 Na0 3.224597 1_555
Be0 Na0 3.224597 1_455
Be0 Na1 3.224597 1_545
Be0 Na1 3.224597 1_555
Be0 Na0 3.224597 1_444
Be0 Na0 3.224597 1_454
