# generated using pymatgen
data_Ho2MgV2O8
_symmetry_space_group_name_H-M   'P 1'
_cell_length_a   6.05893024
_cell_length_b   6.05893024
_cell_length_c   6.19798347
_cell_angle_alpha   106.06600253
_cell_angle_beta   106.06600253
_cell_angle_gamma   115.56490322
_symmetry_Int_Tables_number   1
_chemical_formula_structural   Ho2MgV2O8
_chemical_formula_sum   'Ho2 Mg1 V2 O8'
_cell_volume   175.43638402
_cell_formula_units_Z   1
loop_
 _symmetry_equiv_pos_site_id
 _symmetry_equiv_pos_as_xyz
  1  'x, y, z'
loop_
 _atom_site_type_symbol
 _atom_site_label
 _atom_site_symmetry_multiplicity
 _atom_site_fract_x
 _atom_site_fract_y
 _atom_site_fract_z
 _atom_site_occupancy
  Ho  Ho0  1  0.84654800  0.15345200  0.25000000  1
  Ho  Ho1  1  0.12877700  0.87122300  0.75000000  1
  Mg  Mg0  1  0.14020600  0.85979400  0.25000000  1
  V  V0  1  0.62218400  0.37781600  0.75000000  1
  V  V1  1  0.40536300  0.59463700  0.25000000  1
  O  O0  1  0.25344500  0.18532700  0.54008400  1
  O  O1  1  0.18806800  0.23274300  0.06848900  1
  O  O2  1  0.18934500  0.63481100  0.41277500  1
  O  O3  1  0.60679500  0.19243300  0.93432900  1
  O  O4  1  0.76725700  0.81193200  0.43151100  1
  O  O5  1  0.81467300  0.74655500  0.95991600  1
  O  O6  1  0.80756700  0.39320500  0.56567100  1
  O  O7  1  0.36518900  0.81065500  0.08722500  1
loop_
_geom_bond_atom_site_label_1
_geom_bond_atom_site_label_2
_geom_bond_distance
_geom_bond_site_symmetry_2
Ho0 O6 2.229963 1_555
Ho0 O3 2.229963 1_554
Ho0 O2 2.412741 1_655
Ho0 O7 2.412741 1_545
Ho0 O5 2.508262 1_544
Ho0 O0 2.508262 1_655
Ho0 O1 2.551048 1_655
Ho0 O4 2.551048 1_545
Ho1 O1 2.314907 1_566
Ho1 O4 2.314907 1_455
Ho1 O3 2.356768 1_565
Ho1 O6 2.356768 1_455
Ho1 O2 2.403366 1_555
Ho1 O7 2.403366 1_556
Ho1 O0 2.561048 1_565
Ho1 O5 2.561048 1_455
Mg0 O5 1.944244 1_454
Mg0 O0 1.944244 1_565
Mg0 O2 1.977343 1_555
Mg0 O7 1.977343 1_555
O0 V0 1.829442 1_555
O1 V1 1.769242 1_555
O2 V1 1.913122 1_555
O3 V0 1.803993 1_555
O4 V1 1.769242 1_555
O5 V0 1.829442 1_555
O6 V0 1.803993 1_555
O7 V1 1.913122 1_555
