# generated using pymatgen
data_Na3ZrScSi(PO6)2
_symmetry_space_group_name_H-M   'P 1'
_cell_length_a   15.80557130
_cell_length_b   9.14055854
_cell_length_c   9.08594197
_cell_angle_alpha   90.00000000
_cell_angle_beta   124.81200860
_cell_angle_gamma   90.00000000
_symmetry_Int_Tables_number   1
_chemical_formula_structural   Na3ZrScSi(PO6)2
_chemical_formula_sum   'Na12 Zr4 Sc4 Si4 P8 O48'
_cell_volume   1077.73427090
_cell_formula_units_Z   4
loop_
 _symmetry_equiv_pos_site_id
 _symmetry_equiv_pos_as_xyz
  1  'x, y, z'
loop_
 _atom_site_type_symbol
 _atom_site_label
 _atom_site_symmetry_multiplicity
 _atom_site_fract_x
 _atom_site_fract_y
 _atom_site_fract_z
 _atom_site_occupancy
  Na  Na0  1  0.25079682  0.72123680  0.99342577  1
  Na  Na1  1  0.75079682  0.77876320  0.49342577  1
  Na  Na2  1  0.75079682  0.22123680  0.99342577  1
  Na  Na3  1  0.25079682  0.27876320  0.49342577  1
  Na  Na4  1  0.50547080  0.10576527  0.76191887  1
  Na  Na5  1  0.50547080  0.89423473  0.26191887  1
  Na  Na6  1  0.00547080  0.60576527  0.76191887  1
  Na  Na7  1  0.00547080  0.39423473  0.26191887  1
  Na  Na8  1  0.18640197  0.93175147  0.29109601  1
  Na  Na9  1  0.18640197  0.06824853  0.79109601  1
  Na  Na10  1  0.68640197  0.43175147  0.29109601  1
  Na  Na11  1  0.68640197  0.56824853  0.79109601  1
  Zr  Zr0  1  0.89559314  0.75761644  0.94057593  1
  Zr  Zr1  1  0.89559314  0.24238356  0.44057593  1
  Zr  Zr2  1  0.39559314  0.25761644  0.94057593  1
  Zr  Zr3  1  0.39559314  0.74238356  0.44057593  1
  Sc  Sc0  1  0.10508461  0.74362371  0.56158215  1
  Sc  Sc1  1  0.10508461  0.25637629  0.06158215  1
  Sc  Sc2  1  0.60508461  0.24362371  0.56158215  1
  Sc  Sc3  1  0.60508461  0.75637629  0.06158215  1
  Si  Si0  1  0.64492548  0.89676358  0.74106385  1
  Si  Si1  1  0.64492548  0.10323642  0.24106385  1
  Si  Si2  1  0.14492548  0.39676358  0.74106385  1
  Si  Si3  1  0.14492548  0.60323642  0.24106385  1
  P  P0  1  0.00254191  0.95347972  0.75889143  1
  P  P1  1  0.00254191  0.04652028  0.25889143  1
  P  P2  1  0.50254191  0.45347972  0.75889143  1
  P  P3  1  0.50254191  0.54652028  0.25889143  1
  P  P4  1  0.35145044  0.89807896  0.75734334  1
  P  P5  1  0.35145044  0.10192104  0.25734334  1
  P  P6  1  0.85145044  0.39807896  0.75734334  1
  P  P7  1  0.85145044  0.60192104  0.25734334  1
  O  O0  1  0.15077710  0.57454580  0.74396221  1
  O  O1  1  0.84679349  0.56951331  0.75522625  1
  O  O2  1  0.84679349  0.43048669  0.25522625  1
  O  O3  1  0.15077710  0.42545420  0.24396221  1
  O  O4  1  0.65077710  0.07454580  0.74396221  1
  O  O5  1  0.34679349  0.06951331  0.75522625  1
  O  O6  1  0.34679349  0.93048669  0.25522625  1
  O  O7  1  0.65077710  0.92545420  0.24396221  1
  O  O8  1  0.44170794  0.55791643  0.59381473  1
  O  O9  1  0.56377043  0.54438595  0.93055692  1
  O  O10  1  0.56377043  0.45561405  0.43055692  1
  O  O11  1  0.44170794  0.44208357  0.09381473  1
  O  O12  1  0.94170794  0.05791643  0.59381473  1
  O  O13  1  0.06377043  0.04438595  0.93055692  1
  O  O14  1  0.06377043  0.95561405  0.43055692  1
  O  O15  1  0.94170794  0.94208357  0.09381473  1
  O  O16  1  0.25673328  0.84244203  0.74863154  1
  O  O17  1  0.74145011  0.81451914  0.75249631  1
  O  O18  1  0.74145011  0.18548086  0.25249631  1
  O  O19  1  0.25673328  0.15755797  0.24863154  1
  O  O20  1  0.75673328  0.34244203  0.74863154  1
  O  O21  1  0.24145011  0.31451914  0.75249631  1
  O  O22  1  0.24145011  0.68548086  0.25249631  1
  O  O23  1  0.75673328  0.65755797  0.24863154  1
  O  O24  1  0.34775814  0.85688992  0.58588099  1
  O  O25  1  0.63924519  0.84108661  0.90526946  1
  O  O26  1  0.63924519  0.15891339  0.40526946  1
  O  O27  1  0.34775814  0.14311008  0.08588099  1
  O  O28  1  0.84775814  0.35688992  0.58588099  1
  O  O29  1  0.13924519  0.34108661  0.90526946  1
  O  O30  1  0.13924519  0.65891339  0.40526946  1
  O  O31  1  0.84775814  0.64311008  0.08588099  1
  O  O32  1  0.45133421  0.84081459  0.92573777  1
  O  O33  1  0.53750875  0.83888925  0.55492455  1
  O  O34  1  0.53750875  0.16111075  0.05492455  1
  O  O35  1  0.45133421  0.15918541  0.42573777  1
  O  O36  1  0.95133421  0.34081459  0.92573777  1
  O  O37  1  0.03750875  0.33888925  0.55492455  1
  O  O38  1  0.03750875  0.66111075  0.05492455  1
  O  O39  1  0.95133421  0.65918541  0.42573777  1
  O  O40  1  0.07873801  0.85797057  0.74618049  1
  O  O41  1  0.92191817  0.85002773  0.75142143  1
  O  O42  1  0.92191817  0.14997227  0.25142143  1
  O  O43  1  0.07873801  0.14202943  0.24618049  1
  O  O44  1  0.57873801  0.35797057  0.74618049  1
  O  O45  1  0.42191817  0.35002773  0.75142143  1
  O  O46  1  0.42191817  0.64997227  0.25142143  1
  O  O47  1  0.57873801  0.64202943  0.24618049  1
loop_
_geom_bond_atom_site_label_1
_geom_bond_atom_site_label_2
_geom_bond_distance
_geom_bond_site_symmetry_2
Na0 O0 2.311559 1_555
Na0 O46 2.448585 1_556
Na0 O22 2.463032 1_556
Na0 O16 2.534067 1_555
Na0 O40 2.651210 1_555
Na0 O6 2.738213 1_556
Na1 O7 2.311559 1_555
Na1 O41 2.448585 1_555
Na1 O17 2.463032 1_555
Na1 O23 2.534067 1_555
Na1 O47 2.651210 1_555
Na1 O1 2.738213 1_555
Na2 O4 2.311559 1_555
Na2 O42 2.448585 1_556
Na2 O18 2.463032 1_556
Na2 O20 2.534067 1_555
Na2 O44 2.651210 1_555
Na2 O2 2.738213 1_556
Na3 O3 2.311559 1_555
Na3 O45 2.448585 1_555
Na3 O21 2.463032 1_555
Na3 O19 2.534067 1_555
Na3 O43 2.651210 1_555
Na3 O5 2.738213 1_555
Na4 O4 2.410493 1_555
Na4 O34 2.461830 1_556
Na4 O5 2.495869 1_555
Na4 O45 2.567915 1_555
Na4 O44 2.620105 1_555
Na4 O35 2.704906 1_555
Na5 O7 2.410493 1_555
Na5 O33 2.461830 1_555
Na5 O6 2.495869 1_555
Na5 O46 2.567915 1_555
Na5 O47 2.620105 1_555
Na5 O32 2.704906 1_554
Na6 O0 2.410493 1_555
Na6 O38 2.461830 1_556
Na6 O1 2.495869 1_455
Na6 O41 2.567915 1_455
Na6 O40 2.620105 1_555
Na6 O39 2.704906 1_455
Na7 O3 2.410493 1_555
Na7 O37 2.461830 1_555
Na7 O2 2.495869 1_455
Na7 O42 2.567915 1_455
Na7 O43 2.620105 1_555
Na7 O36 2.704906 1_454
Na8 O43 2.442066 1_565
Na8 O19 2.476766 1_565
Na8 O22 2.509114 1_555
Na8 O24 2.519329 1_555
Na8 O6 2.734286 1_555
Na8 O14 2.866059 1_555
Na8 O13 2.880682 1_564
Na8 O30 2.955332 1_555
Na9 O40 2.442066 1_545
Na9 O16 2.476766 1_545
Na9 O21 2.509114 1_555
Na9 O27 2.519329 1_556
Na9 O5 2.734286 1_555
Na9 O13 2.866059 1_555
Na9 O14 2.880682 1_545
Na9 O29 2.955332 1_555
Na10 O47 2.442066 1_555
Na10 O23 2.476766 1_555
Na10 O18 2.509114 1_555
Na10 O28 2.519329 1_555
Na10 O2 2.734286 1_555
Na10 O10 2.866059 1_555
Na10 O9 2.880682 1_554
Na10 O26 2.955332 1_555
Na11 O44 2.442066 1_555
Na11 O20 2.476766 1_555
Na11 O17 2.509114 1_555
Na11 O31 2.519329 1_556
Na11 O1 2.734286 1_555
Na11 O9 2.866059 1_555
Na11 O10 2.880682 1_555
Na11 O25 2.955332 1_555
O0 Si2 1.627017 1_555
O0 Sc0 2.071131 1_555
O1 P6 1.568336 1_555
O1 Zr0 2.214534 1_555
O2 P7 1.568336 1_555
O2 Zr1 2.214534 1_555
O3 Si3 1.627017 1_555
O3 Sc1 2.071131 1_555
O4 Si0 1.627017 1_545
O4 Sc2 2.071131 1_555
O5 P4 1.568336 1_545
O5 Zr2 2.214534 1_555
O6 P5 1.568336 1_565
O6 Zr3 2.214534 1_555
O7 Si1 1.627017 1_565
O7 Sc3 2.071131 1_555
O8 P2 1.561670 1_555
O8 Zr3 2.038174 1_555
O9 P2 1.528513 1_555
O9 Sc3 2.170436 1_556
O10 P3 1.528513 1_555
O10 Sc2 2.170436 1_555
O11 P3 1.561670 1_555
O11 Zr2 2.038174 1_554
O12 P0 1.561670 1_645
O12 Zr1 2.038174 1_555
O13 P0 1.528513 1_545
O13 Sc1 2.170436 1_556
O14 P1 1.528513 1_565
O14 Sc0 2.170436 1_555
O15 P1 1.561670 1_665
O15 Zr0 2.038174 1_554
O16 P4 1.539733 1_555
O16 Sc0 2.190491 1_555
O17 Si0 1.650009 1_555
O17 Zr0 2.091130 1_555
O18 Si1 1.650009 1_555
O18 Zr1 2.091130 1_555
O19 P5 1.539733 1_555
O19 Sc1 2.190491 1_555
O20 P6 1.539733 1_555
O20 Sc2 2.190491 1_555
O21 Si2 1.650009 1_555
O21 Zr2 2.091130 1_555
O22 Si3 1.650009 1_555
O22 Zr3 2.091130 1_555
O23 P7 1.539733 1_555
O23 Sc3 2.190491 1_555
O24 P4 1.571110 1_555
O24 Zr3 2.133028 1_555
O25 Si0 1.626638 1_555
O25 Sc3 1.945177 1_556
O26 Si1 1.626638 1_555
O26 Sc2 1.945177 1_555
O27 P5 1.571110 1_555
O27 Zr2 2.133028 1_554
O28 P6 1.571110 1_555
O28 Zr1 2.133028 1_555
O29 Si2 1.626638 1_555
O29 Sc1 1.945177 1_556
O30 Si3 1.626638 1_555
O30 Sc0 1.945177 1_555
O31 P7 1.571110 1_555
O31 Zr0 2.133028 1_554
O32 P4 1.532769 1_555
O32 Sc3 2.144742 1_556
O33 Si0 1.656558 1_555
O33 Zr3 2.056218 1_555
O34 Si1 1.656558 1_555
O34 Zr2 2.056218 1_554
O35 P5 1.532769 1_555
O35 Sc2 2.144742 1_555
O36 P6 1.532769 1_555
O36 Sc1 2.144742 1_656
O37 Si2 1.656558 1_555
O37 Zr1 2.056218 1_455
O38 Si3 1.656558 1_555
O38 Zr0 2.056218 1_454
O39 P7 1.532769 1_555
O39 Sc0 2.144742 1_655
O40 P0 1.544241 1_555
O40 Sc0 2.208273 1_555
O41 P0 1.556882 1_655
O41 Zr0 2.157974 1_555
O42 P1 1.556882 1_655
O42 Zr1 2.157974 1_555
O43 P1 1.544241 1_555
O43 Sc1 2.208273 1_555
O44 P2 1.544241 1_555
O44 Sc2 2.208273 1_555
O45 P2 1.556882 1_555
O45 Zr2 2.157974 1_555
O46 P3 1.556882 1_555
O46 Zr3 2.157974 1_555
O47 P3 1.544241 1_555
O47 Sc3 2.208273 1_555
