# generated using pymatgen
data_LiNb(PO3)4
_symmetry_space_group_name_H-M   'P 1'
_cell_length_a   8.32177700
_cell_length_b   9.81912100
_cell_length_c   13.14801500
_cell_angle_alpha   90.00000000
_cell_angle_beta   90.00000000
_cell_angle_gamma   90.00000000
_symmetry_Int_Tables_number   1
_chemical_formula_structural   LiNb(PO3)4
_chemical_formula_sum   'Li4 Nb4 P16 O48'
_cell_volume   1074.35763979
_cell_formula_units_Z   4
loop_
 _symmetry_equiv_pos_site_id
 _symmetry_equiv_pos_as_xyz
  1  'x, y, z'
loop_
 _atom_site_type_symbol
 _atom_site_label
 _atom_site_symmetry_multiplicity
 _atom_site_fract_x
 _atom_site_fract_y
 _atom_site_fract_z
 _atom_site_occupancy
  Li  Li0  1  0.00209600  0.25000000  0.00000000  1
  Li  Li1  1  0.99790400  0.75000000  0.00000000  1
  Li  Li2  1  0.49790400  0.75000000  0.50000000  1
  Li  Li3  1  0.50209600  0.25000000  0.50000000  1
  Nb  Nb0  1  0.36944700  0.75000000  0.00000000  1
  Nb  Nb1  1  0.63055300  0.25000000  0.00000000  1
  Nb  Nb2  1  0.13055300  0.25000000  0.50000000  1
  Nb  Nb3  1  0.86944700  0.75000000  0.50000000  1
  P  P0  1  0.82772400  0.50015900  0.86392500  1
  P  P1  1  0.17227600  0.00015900  0.86392500  1
  P  P2  1  0.53178700  0.99311900  0.84500600  1
  P  P3  1  0.46821300  0.49311900  0.84500600  1
  P  P4  1  0.17227600  0.49984100  0.13607500  1
  P  P5  1  0.82772400  0.99984100  0.13607500  1
  P  P6  1  0.46821300  0.00688100  0.15499400  1
  P  P7  1  0.53178700  0.50688100  0.15499400  1
  P  P8  1  0.03178700  0.50688100  0.34500600  1
  P  P9  1  0.96821300  0.00688100  0.34500600  1
  P  P10  1  0.96821300  0.49311900  0.65499400  1
  P  P11  1  0.67227600  0.49984100  0.36392500  1
  P  P12  1  0.32772400  0.50015900  0.63607500  1
  P  P13  1  0.67227600  0.00015900  0.63607500  1
  P  P14  1  0.03178700  0.99311900  0.65499400  1
  P  P15  1  0.32772400  0.99984100  0.36392500  1
  O  O0  1  0.86856700  0.88414500  0.37286200  1
  O  O1  1  0.91039200  0.62442600  0.89968800  1
  O  O2  1  0.53676400  0.87646600  0.91933000  1
  O  O3  1  0.46323600  0.37646600  0.91933000  1
  O  O4  1  0.18309500  0.62384600  0.06695200  1
  O  O5  1  0.81690500  0.12384600  0.06695200  1
  O  O6  1  0.46323600  0.12353400  0.08067000  1
  O  O7  1  0.53676400  0.62353400  0.08067000  1
  O  O8  1  0.08960800  0.37557400  0.10031200  1
  O  O9  1  0.91039200  0.87557400  0.10031200  1
  O  O10  1  0.36856700  0.88414500  0.12713800  1
  O  O11  1  0.63143300  0.38414500  0.12713800  1
  O  O12  1  0.35019400  0.46073500  0.17681600  1
  O  O13  1  0.64980600  0.96073500  0.17681600  1
  O  O14  1  0.09076800  0.56304300  0.23780200  1
  O  O15  1  0.90923200  0.06304300  0.23780200  1
  O  O16  1  0.40923200  0.06304300  0.26219800  1
  O  O17  1  0.59076800  0.56304300  0.26219800  1
  O  O18  1  0.14980600  0.96073500  0.32318400  1
  O  O19  1  0.85019400  0.46073500  0.32318400  1
  O  O20  1  0.13143300  0.38414500  0.37286200  1
  O  O21  1  0.81690500  0.37615400  0.93304800  1
  O  O22  1  0.41039200  0.87557400  0.39968800  1
  O  O23  1  0.58960800  0.37557400  0.39968800  1
  O  O24  1  0.03676400  0.62353400  0.41933000  1
  O  O25  1  0.96323600  0.12353400  0.41933000  1
  O  O26  1  0.31690500  0.12384600  0.43304800  1
  O  O27  1  0.68309500  0.62384600  0.43304800  1
  O  O28  1  0.31690500  0.37615400  0.56695200  1
  O  O29  1  0.68309500  0.87615400  0.56695200  1
  O  O30  1  0.03676400  0.87646600  0.58067000  1
  O  O31  1  0.96323600  0.37646600  0.58067000  1
  O  O32  1  0.41039200  0.62442600  0.60031200  1
  O  O33  1  0.58960800  0.12442600  0.60031200  1
  O  O34  1  0.13143300  0.11585500  0.62713800  1
  O  O35  1  0.86856700  0.61585500  0.62713800  1
  O  O36  1  0.14980600  0.53926500  0.67681600  1
  O  O37  1  0.85019400  0.03926500  0.67681600  1
  O  O38  1  0.40923200  0.43695700  0.73780200  1
  O  O39  1  0.59076800  0.93695700  0.73780200  1
  O  O40  1  0.09076800  0.93695700  0.76219800  1
  O  O41  1  0.90923200  0.43695700  0.76219800  1
  O  O42  1  0.35019400  0.03926500  0.82318400  1
  O  O43  1  0.64980600  0.53926500  0.82318400  1
  O  O44  1  0.36856700  0.61585500  0.87286200  1
  O  O45  1  0.63143300  0.11585500  0.87286200  1
  O  O46  1  0.08960800  0.12442600  0.89968800  1
  O  O47  1  0.18309500  0.87615400  0.93304800  1
loop_
_geom_bond_atom_site_label_1
_geom_bond_atom_site_label_2
_geom_bond_distance
_geom_bond_site_symmetry_2
Li0 O8 1.946848 1_555
Li0 O46 1.946848 1_554
Li0 O21 2.164343 1_454
Li0 O5 2.164343 1_455
Li1 O9 1.946848 1_555
Li1 O1 1.946848 1_554
Li1 O4 2.164343 1_655
Li1 O47 2.164343 1_654
Li2 O22 1.946848 1_555
Li2 O32 1.946848 1_555
Li2 O29 2.164343 1_555
Li2 O27 2.164343 1_555
Li3 O23 1.946848 1_555
Li3 O33 1.946848 1_555
Li3 O28 2.164343 1_555
Li3 O26 2.164343 1_555
Nb0 O10 2.128220 1_555
Nb0 O44 2.128220 1_554
Nb0 O2 2.146093 1_554
Nb0 O7 2.146093 1_555
Nb0 O4 2.171233 1_555
Nb0 O47 2.171233 1_554
Nb1 O11 2.128220 1_555
Nb1 O45 2.128220 1_554
Nb1 O3 2.146093 1_554
Nb1 O6 2.146093 1_555
Nb1 O5 2.171233 1_555
Nb1 O21 2.171233 1_554
Nb2 O34 2.128220 1_555
Nb2 O20 2.128220 1_555
Nb2 O31 2.146093 1_455
Nb2 O25 2.146093 1_455
Nb2 O28 2.171233 1_555
Nb2 O26 2.171233 1_555
Nb3 O35 2.128220 1_555
Nb3 O0 2.128220 1_555
Nb3 O30 2.146093 1_655
Nb3 O24 2.146093 1_655
Nb3 O27 2.171233 1_555
Nb3 O29 2.171233 1_555
O0 P9 1.508037 1_565
O1 P0 1.477578 1_555
O2 P2 1.506211 1_555
O3 P3 1.506211 1_555
O4 P4 1.522063 1_555
O5 P5 1.522063 1_545
O6 P6 1.506211 1_555
O7 P7 1.506211 1_555
O8 P4 1.477578 1_555
O9 P5 1.477578 1_555
O10 P6 1.508037 1_565
O11 P7 1.508037 1_555
O12 P7 1.603523 1_555
O12 P4 1.620660 1_555
O13 P6 1.603523 1_565
O13 P5 1.620660 1_555
O14 P8 1.591153 1_555
O14 P4 1.623002 1_555
O15 P9 1.591153 1_555
O15 P5 1.623002 1_545
O16 P6 1.591153 1_555
O16 P15 1.623002 1_545
O17 P7 1.591153 1_555
O17 P11 1.623002 1_555
O18 P9 1.603523 1_465
O18 P15 1.620660 1_555
O19 P8 1.603523 1_655
O19 P11 1.620660 1_555
O20 P8 1.508037 1_555
O21 P0 1.522063 1_555
O22 P15 1.477578 1_555
O23 P11 1.477578 1_555
O24 P8 1.506211 1_555
O25 P9 1.506211 1_555
O26 P15 1.522063 1_545
O27 P11 1.522063 1_555
O28 P12 1.522063 1_555
O29 P13 1.522063 1_565
O30 P14 1.506211 1_555
O31 P10 1.506211 1_555
O32 P12 1.477578 1_555
O33 P13 1.477578 1_555
O34 P14 1.508037 1_545
O35 P10 1.508037 1_555
O36 P10 1.603523 1_455
O36 P12 1.620660 1_555
O37 P14 1.603523 1_645
O37 P13 1.620660 1_555
O38 P3 1.591153 1_555
O38 P12 1.623002 1_555
O39 P2 1.591153 1_555
O39 P13 1.623002 1_565
O40 P14 1.591153 1_555
O40 P1 1.623002 1_565
O41 P10 1.591153 1_555
O41 P0 1.623002 1_555
O42 P2 1.603523 1_545
O42 P1 1.620660 1_555
O43 P3 1.603523 1_555
O43 P0 1.620660 1_555
O44 P3 1.508037 1_555
O45 P2 1.508037 1_545
O46 P1 1.477578 1_555
O47 P1 1.522063 1_565
