# generated using pymatgen
data_Na6Ti4Si7Ge4S5O48
_symmetry_space_group_name_H-M   'P 1'
_cell_length_a   17.31846104
_cell_length_b   8.66119582
_cell_length_c   22.17326423
_cell_angle_alpha   89.93965963
_cell_angle_beta   89.76018693
_cell_angle_gamma   119.99567162
_symmetry_Int_Tables_number   1
_chemical_formula_structural   Na6Ti4Si7Ge4S5O48
_chemical_formula_sum   'Na18 Ti12 Si21 Ge12 S15 O144'
_cell_volume   2880.44568202
_cell_formula_units_Z   3
loop_
 _symmetry_equiv_pos_site_id
 _symmetry_equiv_pos_as_xyz
  1  'x, y, z'
loop_
 _atom_site_type_symbol
 _atom_site_label
 _atom_site_symmetry_multiplicity
 _atom_site_fract_x
 _atom_site_fract_y
 _atom_site_fract_z
 _atom_site_occupancy
  Na  Na0  1  0.00002774  0.63005400  0.25150740  1
  Na  Na1  1  0.49749193  0.63806170  0.24640751  1
  Na  Na2  1  0.99863548  0.35751416  0.75096589  1
  Na  Na3  1  0.49962489  0.37188957  0.75273113  1
  Na  Na4  1  0.66443914  0.30842190  0.91758333  1
  Na  Na5  1  0.16513463  0.02260200  0.41470880  1
  Na  Na6  1  0.99728242  0.99034980  0.50212480  1
  Na  Na7  1  0.49681317  0.99383213  0.49781016  1
  Na  Na8  1  0.99773876  0.00056391  0.99903404  1
  Na  Na9  1  0.49643916  0.99795039  0.00447493  1
  Na  Na10  1  0.33142859  0.33530072  0.83450659  1
  Na  Na11  1  0.83392676  0.32956876  0.83514700  1
  Na  Na12  1  0.33283364  0.33770438  0.33015395  1
  Na  Na13  1  0.83224946  0.32739819  0.33165298  1
  Na  Na14  1  0.17392643  0.66943059  0.16805025  1
  Na  Na15  1  0.67078328  0.66847850  0.16176976  1
  Na  Na16  1  0.17479671  0.67784142  0.66499119  1
  Na  Na17  1  0.67222810  0.67740754  0.66945727  1
  Ti  Ti0  1  0.99867497  0.99126903  0.34876492  1
  Ti  Ti1  1  0.49801340  0.00393783  0.85009480  1
  Ti  Ti2  1  0.32329134  0.31999087  0.69356051  1
  Ti  Ti3  1  0.82505014  0.33307602  0.68835583  1
  Ti  Ti4  1  0.33295728  0.32778690  0.18413240  1
  Ti  Ti5  1  0.82373493  0.32548860  0.19315463  1
  Ti  Ti6  1  0.83289146  0.34142414  0.97818544  1
  Ti  Ti7  1  0.33333945  0.32488929  0.47696778  1
  Ti  Ti8  1  0.16717105  0.67800295  0.30661358  1
  Ti  Ti9  1  0.66392224  0.67489032  0.30852421  1
  Ti  Ti10  1  0.16728545  0.65489808  0.81186476  1
  Ti  Ti11  1  0.66724330  0.65826537  0.80893082  1
  Si  Si0  1  0.14662416  0.01103887  0.24750966  1
  Si  Si1  1  0.63575174  0.00604384  0.25089466  1
  Si  Si2  1  0.35721336  0.71590681  0.24717459  1
  Si  Si3  1  0.85348816  0.71341389  0.24816966  1
  Si  Si4  1  -0.00010798  0.28463431  0.24933544  1
  Si  Si5  1  0.13547563  0.26775594  0.75101271  1
  Si  Si6  1  0.64246286  0.28187425  0.74861114  1
  Si  Si7  1  0.50002321  0.71485715  0.74917597  1
  Si  Si8  1  0.35266476  0.99268039  0.74886605  1
  Si  Si9  1  0.85733781  0.99717968  0.74715713  1
  Si  Si10  1  0.18572459  0.04137554  0.58406349  1
  Si  Si11  1  0.83133539  0.62946321  0.58266509  1
  Si  Si12  1  0.48231540  0.62253726  0.08132681  1
  Si  Si13  1  0.33061398  0.03318490  0.08283513  1
  Si  Si14  1  0.68622442  0.32822091  0.08469337  1
  Si  Si15  1  0.81303214  0.68107575  0.91702768  1
  Si  Si16  1  0.02547084  0.38489925  0.91995786  1
  Si  Si17  1  0.51816438  0.37580042  0.91615505  1
  Si  Si18  1  0.31654164  0.95194228  0.41391561  1
  Si  Si19  1  0.01879944  0.65958035  0.41690399  1
  Si  Si20  1  0.52613687  0.66894507  0.41961130  1
  Ge  Ge0  1  0.49452809  0.96477311  0.35478849  1
  Ge  Ge1  1  0.99458653  0.02554480  0.85710599  1
  Ge  Ge2  1  0.99782406  0.99660503  0.64480396  1
  Ge  Ge3  1  0.49575991  0.99209994  0.65667259  1
  Ge  Ge4  1  0.99775224  0.00286241  0.15545207  1
  Ge  Ge5  1  0.49560140  0.97829907  0.13903133  1
  Ge  Ge6  1  0.34954735  0.33524886  0.98543487  1
  Ge  Ge7  1  0.84029230  0.35755530  0.48203476  1
  Ge  Ge8  1  0.16736812  0.67056242  0.01915050  1
  Ge  Ge9  1  0.66356546  0.63772152  0.02115765  1
  Ge  Ge10  1  0.17397880  0.70183478  0.51574199  1
  Ge  Ge11  1  0.66740486  0.66267812  0.51816404  1
  S  S0  1  0.49999994  0.28084683  0.25104670  1
  S  S1  1  0.00043143  0.71627562  0.75044661  1
  S  S2  1  0.48051552  0.33100949  0.58343939  1
  S  S3  1  0.97978568  0.33643679  0.58164636  1
  S  S4  1  0.68782976  0.04430051  0.58112359  1
  S  S5  1  0.33385380  0.62726843  0.58289267  1
  S  S6  1  0.98034595  0.62985988  0.08354127  1
  S  S7  1  0.83600541  0.04389858  0.08352314  1
  S  S8  1  0.18672858  0.32986991  0.08099858  1
  S  S9  1  0.31005587  0.66104576  0.91900379  1
  S  S10  1  0.16705262  0.95788312  0.91709745  1
  S  S11  1  0.66558715  0.94902773  0.91813898  1
  S  S12  1  0.81012761  0.95886499  0.41949116  1
  S  S13  1  0.16564175  0.38471664  0.41931628  1
  S  S14  1  0.66739333  0.37628923  0.41774288  1
  O  O0  1  0.10226789  0.03565014  0.31030176  1
  O  O1  1  0.59724180  0.04346797  0.31304411  1
  O  O2  1  0.41965425  0.78708223  0.30831009  1
  O  O3  1  0.91853327  0.79754210  0.30695784  1
  O  O4  1  0.48601238  0.17758052  0.30664783  1
  O  O5  1  0.98172550  0.15880415  0.30884488  1
  O  O6  1  0.09504036  0.14773618  0.81182499  1
  O  O7  1  0.60228875  0.16753650  0.81038195  1
  O  O8  1  0.48130878  0.80421046  0.80799371  1
  O  O9  1  0.98330984  0.78948970  0.80458012  1
  O  O10  1  0.41882023  0.03965422  0.80654186  1
  O  O11  1  0.92126153  0.05428832  0.80722725  1
  O  O12  1  0.39369640  0.95605295  0.68771206  1
  O  O13  1  0.90147803  0.95999149  0.68819107  1
  O  O14  1  0.07412217  0.19446484  0.69094348  1
  O  O15  1  0.57845156  0.19920434  0.68910839  1
  O  O16  1  0.01707186  0.82234841  0.69443348  1
  O  O17  1  0.52207721  0.83767722  0.68762024  1
  O  O18  1  0.40125577  0.84555186  0.18954317  1
  O  O19  1  0.89527385  0.83432085  0.18778971  1
  O  O20  1  0.02198674  0.20649200  0.18849652  1
  O  O21  1  0.51685531  0.21041801  0.19618079  1
  O  O22  1  0.07799949  0.95670478  0.18987017  1
  O  O23  1  0.57414955  0.95343601  0.19180908  1
  O  O24  1  0.44343087  0.36155796  0.63849856  1
  O  O25  1  0.93969411  0.36451522  0.63639742  1
  O  O26  1  0.25141332  0.13981766  0.64097183  1
  O  O27  1  0.74254193  0.12422267  0.63582416  1
  O  O28  1  0.32210072  0.52202511  0.63778550  1
  O  O29  1  0.81477521  0.49613388  0.64013827  1
  O  O30  1  0.43685277  0.49909606  0.14159609  1
  O  O31  1  0.94340581  0.52552525  0.13870657  1
  O  O32  1  0.31063853  0.12731177  0.14014266  1
  O  O33  1  0.82511677  0.12846612  0.13814899  1
  O  O34  1  0.24087301  0.36060488  0.13585542  1
  O  O35  1  0.75290185  0.36009616  0.14105496  1
  O  O36  1  0.22785524  0.30232774  0.02596711  1
  O  O37  1  0.73422845  0.30112026  0.02397666  1
  O  O38  1  0.41468894  0.53682612  0.02327061  1
  O  O39  1  0.92481867  0.54306978  0.02960848  1
  O  O40  1  0.34699342  0.15429796  0.02206602  1
  O  O41  1  0.85032841  0.15393580  0.02891414  1
  O  O42  1  0.23274318  0.16195355  0.52340275  1
  O  O43  1  0.73127201  0.15682427  0.52606970  1
  O  O44  1  0.34814634  0.54662843  0.52862636  1
  O  O45  1  0.84954027  0.53798354  0.52368929  1
  O  O46  1  0.42493800  0.30659574  0.52965319  1
  O  O47  1  0.92085169  0.30215576  0.52720951  1
  O  O48  1  0.27094038  0.69741943  0.97347129  1
  O  O49  1  0.76732623  0.71209290  0.97700164  1
  O  O50  1  0.09055951  0.48181093  0.97741447  1
  O  O51  1  0.58480527  0.46009292  0.97396300  1
  O  O52  1  0.15274302  0.84621531  0.97269044  1
  O  O53  1  0.65291919  0.84472833  0.97327462  1
  O  O54  1  0.27623015  0.83429275  0.47625308  1
  O  O55  1  0.77119903  0.84478304  0.47481655  1
  O  O56  1  0.15255532  0.46516071  0.47522383  1
  O  O57  1  0.65422570  0.45938283  0.47398270  1
  O  O58  1  0.08474757  0.70316102  0.47615692  1
  O  O59  1  0.59025958  0.70059839  0.47819150  1
  O  O60  1  0.06199358  0.63046037  0.35635625  1
  O  O61  1  0.56916102  0.63340729  0.35925445  1
  O  O62  1  0.24642292  0.86605771  0.35962028  1
  O  O63  1  0.75591967  0.87721315  0.36537808  1
  O  O64  1  0.18036426  0.48944588  0.36479539  1
  O  O65  1  0.68553347  0.49016120  0.36455910  1
  O  O66  1  0.06852508  0.50292719  0.85826469  1
  O  O67  1  0.56227134  0.49259431  0.85519419  1
  O  O68  1  0.18314357  0.87584884  0.86328841  1
  O  O69  1  0.68021539  0.87341508  0.86315761  1
  O  O70  1  0.25554586  0.63957389  0.86403615  1
  O  O71  1  0.74710342  0.63055668  0.85933697  1
  O  O72  1  0.01125356  0.84148610  0.41384925  1
  O  O73  1  0.51858852  0.84856634  0.41431720  1
  O  O74  1  0.41785434  0.98879606  0.40618054  1
  O  O75  1  0.89948731  0.98056923  0.41445733  1
  O  O76  1  0.08731169  0.20201992  0.41614717  1
  O  O77  1  0.58737420  0.20316222  0.41399479  1
  O  O78  1  0.01926429  0.19081044  0.91476054  1
  O  O79  1  0.51068972  0.17866023  0.91149459  1
  O  O80  1  0.08489862  0.96713504  0.91224137  1
  O  O81  1  0.58721892  0.97559470  0.91384377  1
  O  O82  1  0.39896007  0.81952845  0.91296632  1
  O  O83  1  0.91515889  0.84685951  0.90687119  1
  O  O84  1  0.48950602  0.16784803  0.58653930  1
  O  O85  1  0.98607226  0.17232656  0.58497265  1
  O  O86  1  0.08768426  0.02296047  0.59272818  1
  O  O87  1  0.59900929  0.02925578  0.58562759  1
  O  O88  1  0.41591913  0.81111041  0.58713906  1
  O  O89  1  0.92018147  0.82280409  0.59032846  1
  O  O90  1  0.48785556  0.81373782  0.08570347  1
  O  O91  1  0.98916244  0.81044193  0.08642525  1
  O  O92  1  0.42015233  0.02269312  0.09028551  1
  O  O93  1  0.91911521  0.02673748  0.08751565  1
  O  O94  1  0.09666639  0.16716159  0.08648102  1
  O  O95  1  0.58847446  0.15651269  0.09319947  1
  O  O96  1  0.34909008  0.17613778  0.74281199  1
  O  O97  1  0.85181110  0.18079066  0.73650931  1
  O  O98  1  0.23666239  0.30509784  0.74477061  1
  O  O99  1  0.74127697  0.30283148  0.74341567  1
  O  O100  1  0.41382725  0.51700377  0.73904314  1
  O  O101  1  0.92225980  0.53111415  0.74303197  1
  O  O102  1  0.34974588  0.52076639  0.23980371  1
  O  O103  1  0.84934242  0.52247668  0.24284493  1
  O  O104  1  0.42172498  0.30915004  0.24665458  1
  O  O105  1  0.91440687  0.31197646  0.24038623  1
  O  O106  1  0.24417474  0.18376646  0.24319842  1
  O  O107  1  0.73752801  0.16888761  0.24557727  1
  O  O108  1  0.31278301  0.49431651  0.92354870  1
  O  O109  1  0.82013925  0.49686808  0.92563148  1
  O  O110  1  0.41906827  0.35851338  0.92147236  1
  O  O111  1  0.92610888  0.35764523  0.92773767  1
  O  O112  1  0.24647195  0.13836534  0.92353314  1
  O  O113  1  0.74682276  0.13446112  0.92206160  1
  O  O114  1  0.32128408  0.14699563  0.42494296  1
  O  O115  1  0.81469849  0.13505347  0.42699386  1
  O  O116  1  0.24664848  0.36170487  0.42404181  1
  O  O117  1  0.74873272  0.35537057  0.42500485  1
  O  O118  1  0.42666638  0.49657020  0.42930504  1
  O  O119  1  0.92004949  0.47535440  0.42361789  1
  O  O120  1  0.17810700  0.49379989  0.07658741  1
  O  O121  1  0.68455261  0.51476715  0.07880408  1
  O  O122  1  0.07064237  0.64674460  0.07612179  1
  O  O123  1  0.58247927  0.64955785  0.07214282  1
  O  O124  1  0.23991429  0.83414823  0.07259530  1
  O  O125  1  0.75508480  0.86756488  0.07865006  1
  O  O126  1  0.17860912  0.84291670  0.57816092  1
  O  O127  1  0.68031885  0.86572855  0.57671000  1
  O  O128  1  0.25049814  0.63920476  0.57769034  1
  O  O129  1  0.74057637  0.64542658  0.57259934  1
  O  O130  1  0.06943515  0.49488309  0.57478330  1
  O  O131  1  0.57113863  0.49466867  0.57611862  1
  O  O132  1  0.15088235  0.82782240  0.25311929  1
  O  O133  1  0.64826504  0.82703256  0.25943675  1
  O  O134  1  0.25963549  0.69212432  0.25819538  1
  O  O135  1  0.75599269  0.68981057  0.25971879  1
  O  O136  1  0.08638297  0.48167280  0.25670018  1
  O  O137  1  0.58061418  0.46770894  0.25678478  1
  O  O138  1  0.14804255  0.47077169  0.75879587  1
  O  O139  1  0.65138943  0.47620209  0.75274671  1
  O  O140  1  0.08009202  0.69304690  0.75523754  1
  O  O141  1  0.58624097  0.69045729  0.75602033  1
  O  O142  1  0.25478134  0.82186869  0.75867661  1
  O  O143  1  0.75950095  0.82913342  0.75704239  1
loop_
_geom_bond_atom_site_label_1
_geom_bond_atom_site_label_2
_geom_bond_distance
_geom_bond_site_symmetry_2
Na0 O132 2.299404 1_555
Na0 O103 2.299701 1_455
Na0 O105 2.401910 1_455
Na0 O136 2.413382 1_555
Na0 O60 2.563919 1_555
Na0 O31 2.678559 1_455
Na0 O3 2.764845 1_455
Na0 O22 2.802164 1_555
Na1 O102 2.237181 1_555
Na1 O133 2.305340 1_555
Na1 O104 2.469743 1_555
Na1 O137 2.535350 1_555
Na1 O30 2.591343 1_555
Na1 O23 2.653869 1_555
Na1 O2 2.663639 1_555
Na1 O61 2.806946 1_555
Na2 O97 2.242230 1_555
Na2 O138 2.270200 1_655
Na2 O101 2.455851 1_555
Na2 O140 2.519351 1_655
Na2 O11 2.590294 1_555
Na2 O66 2.686608 1_655
Na2 O14 2.703701 1_655
Na2 O25 2.753605 1_555
Na3 O96 2.303390 1_555
Na3 O139 2.313022 1_555
Na3 O141 2.394057 1_555
Na3 O100 2.397905 1_555
Na3 O67 2.514619 1_555
Na3 O24 2.702736 1_555
Na3 O10 2.759482 1_555
Na3 O15 2.849677 1_555
Na4 O79 2.320017 1_555
Na4 O109 2.360287 1_555
Na4 O81 2.500404 1_545
Na4 O113 2.542826 1_555
Na4 O51 2.644049 1_555
Na4 O7 2.648009 1_555
Na4 O37 2.670223 1_556
Na4 O71 2.735905 1_555
Na5 O72 2.320299 1_545
Na5 O114 2.370192 1_555
Na5 O76 2.515198 1_555
Na5 O116 2.553421 1_555
Na5 O0 2.588661 1_555
Na5 O62 2.685122 1_545
Na5 O42 2.693141 1_555
Na5 O58 2.752149 1_545
Na6 O89 2.397608 1_555
Na6 O72 2.421871 1_655
Na6 O86 2.480382 1_665
Na6 O85 2.491096 1_565
Na6 O76 2.556583 1_665
Na6 O75 2.557100 1_555
Na7 O73 2.371930 1_555
Na7 O74 2.442035 1_555
Na7 O88 2.478672 1_555
Na7 O77 2.515186 1_565
Na7 O84 2.520558 1_565
Na7 O87 2.550559 1_565
Na8 O78 2.391511 1_655
Na8 O93 2.458010 1_556
Na8 O83 2.473912 1_545
Na8 O91 2.496962 1_546
Na8 O94 2.517720 1_656
Na8 O80 2.545545 1_645
Na9 O90 2.359290 1_555
Na9 O92 2.382141 1_565
Na9 O95 2.477938 1_565
Na9 O79 2.522672 1_564
Na9 O82 2.604205 1_554
Na9 O81 2.612736 1_554
Na10 O110 2.404724 1_555
Na10 O98 2.514002 1_555
Na10 O108 2.518786 1_555
Na10 O112 2.535782 1_555
Na10 O96 2.559298 1_555
Na10 O100 2.591504 1_555
Na11 O113 2.503044 1_555
Na11 O99 2.534183 1_555
Na11 O111 2.542258 1_555
Na11 O109 2.555406 1_555
Na11 O101 2.618297 1_555
Na11 O97 2.634243 1_555
Na12 O106 2.415787 1_555
Na12 O102 2.477343 1_555
Na12 O104 2.493346 1_555
Na12 O114 2.616228 1_555
Na12 O116 2.624895 1_555
Na12 O118 2.677317 1_555
Na13 O107 2.449164 1_555
Na13 O119 2.489101 1_555
Na13 O105 2.510795 1_555
Na13 O103 2.511582 1_555
Na13 O117 2.600315 1_555
Na13 O115 2.611073 1_555
Na14 O134 2.443588 1_555
Na14 O132 2.479076 1_555
Na14 O124 2.482808 1_555
Na14 O136 2.511991 1_555
Na14 O120 2.558808 1_555
Na14 O122 2.659505 1_555
Na15 O121 2.352107 1_555
Na15 O125 2.440336 1_555
Na15 O123 2.467909 1_555
Na15 O135 2.585306 1_555
Na15 O137 2.674055 1_555
Na15 O133 2.694889 1_555
Na16 O126 2.377838 1_555
Na16 O128 2.448813 1_555
Na16 O142 2.468188 1_555
Na16 O140 2.626915 1_555
Na16 O138 2.628809 1_555
Na16 O130 2.643395 1_555
Na17 O143 2.413897 1_555
Na17 O139 2.436523 1_555
Na17 O141 2.461555 1_555
Na17 O129 2.529441 1_555
Na17 O127 2.582888 1_555
Na17 O131 2.668345 1_555
Ge0 O2 1.769530 1_555
Ge0 O1 1.805050 1_565
Ge0 O73 1.830315 1_555
Ge0 O74 1.835523 1_555
Ge0 O4 2.197134 1_565
Ge0 O77 2.296932 1_565
Ge1 O11 1.795833 1_555
Ge1 O78 1.806264 1_655
Ge1 O6 1.815738 1_655
Ge1 O83 1.833047 1_545
Ge1 O80 2.236667 1_645
Ge1 O9 2.276476 1_545
Ge2 O13 1.807496 1_555
Ge2 O86 1.853782 1_665
Ge2 O14 1.865562 1_665
Ge2 O89 1.877941 1_555
Ge2 O16 2.025491 1_655
Ge2 O85 2.103691 1_565
Ge3 O17 1.754332 1_555
Ge3 O12 1.770053 1_555
Ge3 O15 1.796829 1_565
Ge3 O88 2.145234 1_555
Ge3 O84 2.215478 1_565
Ge3 O87 2.276509 1_565
Ge4 O20 1.757478 1_655
Ge4 O19 1.786503 1_545
Ge4 O22 1.799286 1_645
Ge4 O93 2.112986 1_555
Ge4 O94 2.198731 1_655
Ge4 O91 2.213962 1_545
Ge5 O90 1.805925 1_555
Ge5 O18 1.830209 1_555
Ge5 O95 1.871619 1_565
Ge5 O92 1.880626 1_565
Ge5 O23 1.889993 1_555
Ge5 O21 2.247762 1_565
Ge6 O40 1.745182 1_556
Ge6 O38 1.751098 1_556
Ge6 O110 1.801164 1_555
Ge6 O36 2.171040 1_556
Ge6 O112 2.227150 1_555
Ge6 O108 2.250974 1_555
Ge7 O45 1.753525 1_555
Ge7 O119 1.788800 1_555
Ge7 O47 1.964713 1_555
Ge7 O117 2.024995 1_555
Ge7 O43 2.059043 1_555
Ge7 O115 2.134285 1_555
Ge8 O50 1.771330 1_554
Ge8 O124 1.796225 1_555
Ge8 O52 1.955537 1_554
Ge8 O48 1.965833 1_554
Ge8 O122 2.020060 1_555
Ge8 O120 2.069543 1_555
Ge9 O51 1.799895 1_554
Ge9 O121 1.813296 1_555
Ge9 O123 1.841597 1_555
Ge9 O49 1.851819 1_554
Ge9 O53 2.168870 1_554
Ge9 O125 2.228820 1_555
Ge10 O54 1.781093 1_555
Ge10 O58 1.785420 1_555
Ge10 O126 1.822532 1_555
Ge10 O56 2.095959 1_555
Ge10 O128 2.160925 1_555
Ge10 O130 2.221509 1_555
Ge11 O59 1.768184 1_555
Ge11 O129 1.812948 1_555
Ge11 O57 1.927646 1_555
Ge11 O55 1.946859 1_555
Ge11 O131 2.025032 1_555
Ge11 O127 2.107623 1_555
O0 Si0 1.652107 1_555
O0 Ti0 1.841404 1_445
O1 Si1 1.630430 1_555
O2 Si2 1.653625 1_555
O3 Si3 1.640933 1_555
O3 Ti0 1.812894 1_555
O4 S0 1.468718 1_555
O5 Si4 1.636619 1_655
O5 Ti0 1.844067 1_545
O6 Si5 1.628026 1_555
O7 Si6 1.625112 1_555
O7 Ti1 1.862773 1_555
O8 Si7 1.629186 1_555
O8 Ti1 1.858199 1_565
O9 S1 1.455137 1_655
O10 Si8 1.631244 1_545
O10 Ti1 1.828657 1_555
O11 Si9 1.646375 1_545
O12 Si8 1.631726 1_555
O13 Si9 1.623669 1_555
O14 Si5 1.626415 1_555
O15 Si6 1.644062 1_555
O16 S1 1.483076 1_555
O17 Si7 1.651286 1_555
O18 Si2 1.614952 1_555
O19 Si3 1.626029 1_555
O20 Si4 1.637322 1_555
O21 S0 1.453942 1_555
O22 Si0 1.649885 1_565
O23 Si1 1.609075 1_565
O24 S2 1.461837 1_555
O24 Ti2 2.275541 1_555
O25 S3 1.475617 1_555
O25 Ti3 2.187033 1_555
O26 Si10 1.630293 1_555
O26 Ti2 1.848827 1_555
O27 S4 1.484473 1_555
O27 Ti3 2.025996 1_555
O28 S5 1.471007 1_555
O28 Ti2 2.150261 1_555
O29 Si11 1.643929 1_555
O29 Ti3 1.849037 1_555
O30 Si12 1.641758 1_555
O30 Ti4 1.908418 1_555
O31 S6 1.461222 1_555
O31 Ti5 2.266935 1_555
O32 Si13 1.636910 1_555
O32 Ti4 1.857792 1_555
O33 S7 1.475534 1_555
O33 Ti5 2.108334 1_555
O34 S8 1.479969 1_555
O34 Ti4 2.058353 1_555
O35 Si14 1.632641 1_555
O35 Ti5 1.818793 1_555
O36 S8 1.488752 1_555
O37 Si14 1.656849 1_555
O37 Ti6 1.860306 1_554
O38 Si12 1.650821 1_555
O39 S6 1.486157 1_555
O39 Ti6 2.030809 1_554
O40 Si13 1.640962 1_555
O41 S7 1.481453 1_555
O41 Ti6 2.117236 1_554
O42 Si10 1.643309 1_555
O42 Ti7 1.900123 1_555
O43 S4 1.504226 1_555
O44 S5 1.472772 1_555
O44 Ti7 2.140299 1_555
O45 Si11 1.638818 1_555
O46 S2 1.483281 1_555
O46 Ti7 2.042730 1_555
O47 S3 1.514890 1_555
O48 S9 1.491335 1_555
O49 Si15 1.634537 1_555
O50 Si16 1.632945 1_555
O51 Si17 1.637027 1_555
O52 S10 1.507189 1_555
O53 S11 1.468350 1_555
O54 Si18 1.647401 1_555
O55 S12 1.503396 1_555
O56 S13 1.493622 1_555
O57 S14 1.512820 1_555
O58 Si19 1.660007 1_555
O59 Si20 1.644378 1_555
O60 Si19 1.614487 1_555
O60 Ti8 1.983998 1_555
O61 Si20 1.631820 1_555
O61 Ti9 1.865956 1_555
O62 Si18 1.608818 1_555
O62 Ti8 1.923651 1_555
O63 S12 1.472594 1_555
O63 Ti9 2.104352 1_555
O64 S13 1.453658 1_555
O64 Ti8 2.180540 1_555
O65 S14 1.465167 1_555
O65 Ti9 2.200501 1_555
O66 Si16 1.642751 1_555
O66 Ti10 1.856836 1_555
O67 Si17 1.627802 1_555
O67 Ti11 1.946596 1_555
O68 S10 1.484252 1_555
O68 Ti10 2.125912 1_555
O69 S11 1.464343 1_555
O69 Ti11 2.134727 1_555
O70 S9 1.498616 1_555
O70 Ti10 1.977264 1_555
O71 Si15 1.626448 1_555
O71 Ti11 1.887821 1_555
O72 Si19 1.646101 1_555
O72 Ti0 2.023445 1_455
O73 Si20 1.629194 1_555
O74 Si18 1.627033 1_555
O75 S12 1.466426 1_555
O75 Ti0 2.213747 1_555
O76 S13 1.484527 1_555
O76 Ti0 2.268014 1_445
O77 S14 1.448906 1_555
O78 Si16 1.634190 1_555
O79 Si17 1.649961 1_555
O79 Ti1 1.966329 1_555
O80 S10 1.468871 1_555
O81 S11 1.489076 1_555
O81 Ti1 2.200405 1_565
O82 S9 1.468820 1_555
O82 Ti1 2.161708 1_565
O83 Si15 1.642377 1_555
O84 S2 1.498638 1_555
O85 S3 1.480616 1_555
O86 Si10 1.634525 1_555
O87 S4 1.480334 1_555
O88 S5 1.517528 1_555
O89 Si11 1.620826 1_555
O90 Si12 1.613255 1_555
O91 S6 1.495054 1_555
O92 Si13 1.607209 1_555
O93 S7 1.522025 1_555
O94 S8 1.494598 1_555
O95 Si14 1.610152 1_555
O96 Si8 1.626230 1_545
O96 Ti2 1.871477 1_555
O97 Si9 1.656961 1_545
O97 Ti3 1.925330 1_555
O98 Si5 1.620445 1_555
O98 Ti2 1.829962 1_555
O99 Si6 1.631721 1_555
O99 Ti3 1.807898 1_555
O100 Si7 1.631354 1_555
O100 Ti2 1.931043 1_555
O101 S1 1.504434 1_655
O101 Ti3 2.092915 1_555
O102 Si2 1.637758 1_555
O102 Ti4 1.980769 1_555
O103 Si3 1.623493 1_555
O103 Ti5 1.890261 1_555
O104 S0 1.496849 1_555
O104 Ti4 2.139341 1_555
O105 Si4 1.624859 1_655
O105 Ti5 1.942572 1_555
O106 Si0 1.603947 1_555
O106 Ti4 1.922862 1_555
O107 Si1 1.619319 1_555
O107 Ti5 1.837718 1_555
O108 S9 1.471620 1_555
O109 Si15 1.671209 1_555
O109 Ti6 1.874949 1_555
O110 Si17 1.650145 1_555
O111 Si16 1.624162 1_655
O111 Ti6 1.906564 1_555
O112 S10 1.485955 1_545
O113 S11 1.519344 1_545
O113 Ti6 2.081429 1_555
O114 Si18 1.668200 1_545
O114 Ti7 1.852670 1_555
O115 S12 1.497494 1_545
O116 S13 1.516453 1_555
O116 Ti7 2.055619 1_555
O117 S14 1.516622 1_555
O118 Si20 1.633228 1_555
O118 Ti7 1.876081 1_555
O119 Si19 1.661877 1_655
O120 S8 1.503189 1_555
O121 Si14 1.635476 1_555
O122 S6 1.504340 1_455
O123 Si12 1.642070 1_555
O124 Si13 1.669437 1_565
O125 S7 1.473004 1_565
O126 Si10 1.666049 1_565
O127 S4 1.489255 1_565
O128 S5 1.502845 1_555
O129 Si11 1.661226 1_555
O130 S3 1.477899 1_455
O131 S2 1.507247 1_555
O132 Si0 1.629647 1_565
O132 Ti8 1.880394 1_555
O133 Si1 1.680006 1_565
O133 Ti9 1.830668 1_555
O134 Si2 1.614401 1_555
O134 Ti8 1.876526 1_555
O135 Si3 1.615377 1_555
O135 Ti9 1.873373 1_555
O136 Si4 1.621565 1_555
O136 Ti8 1.926672 1_555
O137 S0 1.525575 1_555
O137 Ti9 2.011791 1_555
O138 Si5 1.669519 1_555
O138 Ti10 1.874778 1_555
O139 Si6 1.614141 1_555
O139 Ti11 1.920426 1_555
O140 S1 1.494577 1_555
O140 Ti10 2.116572 1_555
O141 Si7 1.616959 1_555
O141 Ti11 1.956083 1_555
O142 Si8 1.611942 1_555
O142 Ti10 1.889115 1_555
O143 Si9 1.602437 1_555
O143 Ti11 1.919248 1_555
