# generated using pymatgen
data_K2RbTbMgV2O8
_symmetry_space_group_name_H-M   'P 1'
_cell_length_a   5.95878911
_cell_length_b   5.95878893
_cell_length_c   9.55945412
_cell_angle_alpha   90.00000000
_cell_angle_beta   90.00000000
_cell_angle_gamma   120.00000108
_symmetry_Int_Tables_number   1
_chemical_formula_structural   K2RbTbMgV2O8
_chemical_formula_sum   'K2 Rb1 Tb1 Mg1 V2 O8'
_cell_volume   293.95424591
_cell_formula_units_Z   1
loop_
 _symmetry_equiv_pos_site_id
 _symmetry_equiv_pos_as_xyz
  1  'x, y, z'
loop_
 _atom_site_type_symbol
 _atom_site_label
 _atom_site_symmetry_multiplicity
 _atom_site_fract_x
 _atom_site_fract_y
 _atom_site_fract_z
 _atom_site_occupancy
  K  K0  1  0.66666700  0.33333300  0.70738806  1
  K  K1  1  0.33333300  0.66666700  0.14822643  1
  Rb  Rb0  1  -0.00000000  0.00000000  0.60095101  1
  Tb  Tb0  1  -0.00000000  0.00000000  0.98703111  1
  Mg  Mg0  1  -0.00000000  0.00000000  0.26992174  1
  V  V0  1  0.66666700  0.33333300  0.24108820  1
  V  V1  1  0.33333300  0.66666700  0.77812155  1
  O  O0  1  0.84115220  0.15884780  0.16004175  1
  O  O1  1  0.84115220  0.68230441  0.16004175  1
  O  O2  1  0.31769559  0.15884780  0.16004175  1
  O  O3  1  0.65672586  0.82836293  0.83733710  1
  O  O4  1  0.17163707  0.34327414  0.83733710  1
  O  O5  1  0.17163707  0.82836293  0.83733710  1
  O  O6  1  0.33333300  0.66666700  0.60206657  1
  O  O7  1  0.66666700  0.33333300  0.43140076  1
loop_
_geom_bond_atom_site_label_1
_geom_bond_atom_site_label_2
_geom_bond_distance
_geom_bond_site_symmetry_2
K0 O7 2.638288 1_555
K1 O2 2.982624 1_565
K1 O1 2.982624 1_455
K1 O0 2.982627 1_455
K1 O0 2.982627 1_565
K1 O2 2.982629 1_555
K1 O1 2.982629 1_555
Mg0 O1 1.947085 1_445
Mg0 O2 1.947085 1_555
Mg0 O0 1.947085 1_455
Mg0 Rb0 3.164459 1_555
O0 V0 1.960436 1_555
O0 Tb0 2.328768 1_654
O1 V0 1.960441 1_555
O1 Tb0 2.328768 1_664
O2 V0 1.960441 1_555
O2 Tb0 2.328768 1_554
O3 V1 1.762248 1_555
O3 Tb0 2.277233 1_665
O3 Rb0 2.871305 1_665
O4 V1 1.762247 1_555
O4 Tb0 2.277233 1_555
O4 Rb0 2.871305 1_555
O5 V1 1.762243 1_555
O5 Tb0 2.277233 1_565
O5 Rb0 2.871305 1_565
O6 V1 1.682990 1_555
O6 Rb0 3.440322 1_565
O6 Rb0 3.440327 1_555
O6 Rb0 3.440327 1_665
O7 V0 1.819284 1_555
