# generated using pymatgen
data_Ba2MnO3
_symmetry_space_group_name_H-M   'P 1'
_cell_length_a   5.88842704
_cell_length_b   6.51321227
_cell_length_c   12.77341303
_cell_angle_alpha   88.43776399
_cell_angle_beta   86.54643590
_cell_angle_gamma   63.12977361
_symmetry_Int_Tables_number   1
_chemical_formula_structural   Ba2MnO3
_chemical_formula_sum   'Ba8 Mn4 O12'
_cell_volume   436.20712269
_cell_formula_units_Z   4
loop_
 _symmetry_equiv_pos_site_id
 _symmetry_equiv_pos_as_xyz
  1  'x, y, z'
loop_
 _atom_site_type_symbol
 _atom_site_label
 _atom_site_symmetry_multiplicity
 _atom_site_fract_x
 _atom_site_fract_y
 _atom_site_fract_z
 _atom_site_occupancy
  Ba  Ba0  1  0.21307601  0.58841377  0.25098253  1
  Ba  Ba1  1  0.80139381  0.41154433  0.75100868  1
  Ba  Ba2  1  0.67497109  0.58982678  0.05328990  1
  Ba  Ba3  1  0.26490720  0.41008242  0.55334309  1
  Ba  Ba4  1  0.58304080  0.78944384  0.47708691  1
  Ba  Ba5  1  0.37239226  0.21058652  0.97712572  1
  Ba  Ba6  1  0.89497563  0.20890271  0.32721925  1
  Ba  Ba7  1  0.10392297  0.79100577  0.82723200  1
  Mn  Mn0  1  0.96547617  0.99378925  0.06607233  1
  Mn  Mn1  1  0.95909341  0.00623347  0.56607515  1
  Mn  Mn2  1  0.51928274  0.99262880  0.23822111  1
  Mn  Mn3  1  0.51167860  0.00730442  0.73820480  1
  O  O0  1  0.36788782  0.19681285  0.36661215  1
  O  O1  1  0.56476590  0.80323328  0.86668178  1
  O  O2  1  0.09502593  0.65565565  0.03469593  1
  O  O3  1  0.75082489  0.34430664  0.53469640  1
  O  O4  1  0.83933112  0.79775535  0.65218583  1
  O  O5  1  0.63710793  0.20239560  0.15210671  1
  O  O6  1  0.11050250  0.80142791  0.43783789  1
  O  O7  1  0.91204973  0.19860832  0.93781642  1
  O  O8  1  0.24334156  0.99019740  0.15246629  1
  O  O9  1  0.23352866  0.00982587  0.65237628  1
  O  O10  1  0.38147606  0.34553132  0.76960778  1
  O  O11  1  0.72694422  0.65448675  0.26965207  1
loop_
_geom_bond_atom_site_label_1
_geom_bond_atom_site_label_2
_geom_bond_distance
_geom_bond_site_symmetry_2
Ba0 O6 2.689946 1_555
Ba0 O11 2.691851 1_455
Ba0 O0 2.715327 1_555
Ba0 O2 2.863185 1_555
Ba0 O5 2.875649 1_555
Ba0 O8 2.945926 1_555
Ba0 O11 3.266132 1_555
Ba1 O7 2.689213 1_555
Ba1 O10 2.690724 1_555
Ba1 O1 2.716107 1_555
Ba1 O3 2.863190 1_555
Ba1 O4 2.876070 1_555
Ba1 O9 2.946754 1_655
Ba1 O10 3.267023 1_655
Ba2 O1 2.687959 1_554
Ba2 O2 2.690831 1_655
Ba2 O7 2.712671 1_554
Ba2 O11 2.861964 1_555
Ba2 O5 2.882980 1_555
Ba2 O8 2.943779 1_555
Ba2 O2 3.266627 1_555
Ba3 O0 2.689117 1_555
Ba3 O3 2.691217 1_555
Ba3 O6 2.713321 1_555
Ba3 O10 2.860636 1_555
Ba3 O4 2.884864 1_455
Ba3 O9 2.942449 1_555
Ba3 O3 3.266273 1_455
Ba4 O3 2.702846 1_555
Ba4 O0 2.758431 1_565
Ba4 O11 2.773901 1_555
Ba4 O4 2.787471 1_555
Ba4 O6 2.823011 1_555
Ba4 O9 2.873852 1_565
Ba4 O6 3.151759 1_655
Ba5 O2 2.702460 1_556
Ba5 O1 2.758176 1_545
Ba5 O10 2.774892 1_555
Ba5 O5 2.786816 1_556
Ba5 O7 2.821940 1_455
Ba5 O8 2.873998 1_546
Ba5 O7 3.153093 1_555
Ba6 O11 2.705173 1_555
Ba6 O6 2.760007 1_645
Ba6 O3 2.775162 1_555
Ba6 O5 2.789836 1_555
Ba6 O0 2.825321 1_655
Ba6 O8 2.863578 1_645
Ba6 O0 3.150090 1_555
Ba7 O10 2.704887 1_555
Ba7 O7 2.760544 1_465
Ba7 O2 2.774916 1_556
Ba7 O4 2.789487 1_455
Ba7 O1 2.826022 1_555
Ba7 O9 2.864701 1_565
Ba7 O1 3.149672 1_455
Mn0 O8 2.019160 1_655
Mn0 O2 2.021256 1_655
Mn0 O7 2.031276 1_564
Mn0 O5 2.059874 1_565
Mn1 O9 2.019253 1_655
Mn1 O3 2.020713 1_555
Mn1 O6 2.031147 1_645
Mn1 O4 2.059529 1_545
Mn2 O8 2.019634 1_555
Mn2 O11 2.020766 1_555
Mn2 O0 2.030767 1_565
Mn2 O5 2.059353 1_565
Mn3 O9 2.018870 1_555
Mn3 O10 2.021403 1_555
Mn3 O1 2.030971 1_545
Mn3 O4 2.058766 1_545
