# generated using pymatgen
data_Na6Al4Si3(SO8)3
_symmetry_space_group_name_H-M   'P 1'
_cell_length_a   8.77383224
_cell_length_b   8.65656303
_cell_length_c   21.71824072
_cell_angle_alpha   90.81916869
_cell_angle_beta   89.55309454
_cell_angle_gamma   120.43264271
_symmetry_Int_Tables_number   1
_chemical_formula_structural   Na6Al4Si3(SO8)3
_chemical_formula_sum   'Na18 Al12 Si9 S9 O72'
_cell_volume   1422.11825593
_cell_formula_units_Z   3
loop_
 _symmetry_equiv_pos_site_id
 _symmetry_equiv_pos_as_xyz
  1  'x, y, z'
loop_
 _atom_site_type_symbol
 _atom_site_label
 _atom_site_symmetry_multiplicity
 _atom_site_fract_x
 _atom_site_fract_y
 _atom_site_fract_z
 _atom_site_occupancy
  Na  Na0  1  0.63217469  0.00624585  0.25892381  1
  Na  Na1  1  0.35211516  0.35736316  0.25397206  1
  Na  Na2  1  0.64186186  0.64485300  0.73875505  1
  Na  Na3  1  0.99069366  0.36512657  0.74608744  1
  Na  Na4  1  0.02389555  0.68866608  0.59040810  1
  Na  Na5  1  0.67477931  0.96779197  0.58270021  1
  Na  Na6  1  0.30886845  0.96785995  0.09474516  1
  Na  Na7  1  0.02765105  0.32624689  0.08264890  1
  Na  Na8  1  0.97043665  0.66327499  0.90070061  1
  Na  Na9  1  0.70858810  0.03815492  0.91054673  1
  Na  Na10  1  0.96034659  0.29145049  0.42031556  1
  Na  Na11  1  0.33924922  0.03069955  0.41351450  1
  Na  Na12  1  0.98128834  0.99244248  0.50301690  1
  Na  Na13  1  0.99569954  0.00784713  0.99881142  1
  Na  Na14  1  0.65638918  0.32178454  0.82697168  1
  Na  Na15  1  0.67715396  0.34121014  0.33455685  1
  Na  Na16  1  0.32954729  0.66921485  0.17015111  1
  Na  Na17  1  0.33213975  0.66616982  0.66533548  1
  Al  Al0  1  0.98806040  0.00483871  0.34935797  1
  Al  Al1  1  0.99607878  0.02393194  0.84316639  1
  Al  Al2  1  0.97220407  0.98279997  0.64660728  1
  Al  Al3  1  0.99210737  0.00692029  0.15296191  1
  Al  Al4  1  0.69412490  0.35093008  0.68535397  1
  Al  Al5  1  0.66109694  0.30906305  0.19062799  1
  Al  Al6  1  0.68558943  0.32545819  0.98120259  1
  Al  Al7  1  0.67897837  0.31891267  0.48810057  1
  Al  Al8  1  0.34396828  0.66312941  0.01748791  1
  Al  Al9  1  0.35527449  0.65869496  0.52507692  1
  Al  Al10  1  0.31620737  0.68243900  0.31226569  1
  Al  Al11  1  0.31546115  0.67067537  0.80756197  1
  Si  Si0  1  0.27562633  0.99699630  0.24868625  1
  Si  Si1  1  0.00350029  0.30171578  0.25021404  1
  Si  Si2  1  0.00202460  0.72434429  0.75012518  1
  Si  Si3  1  0.69501317  0.00109015  0.74941543  1
  Si  Si4  1  0.97302562  0.33352906  0.58353246  1
  Si  Si5  1  0.66473092  0.60912995  0.58434616  1
  Si  Si6  1  0.66587723  0.02921860  0.08345729  1
  Si  Si7  1  0.05492118  0.37874906  0.91743444  1
  Si  Si8  1  0.62161044  0.94908402  0.41702201  1
  S  S0  1  0.71618262  0.70908460  0.24848135  1
  S  S1  1  0.28693517  0.28459390  0.75052350  1
  S  S2  1  0.38006669  0.05070323  0.58258197  1
  S  S3  1  0.94664933  0.62084260  0.08316382  1
  S  S4  1  0.39122952  0.33963248  0.08200512  1
  S  S5  1  0.61992280  0.65390279  0.91857647  1
  S  S6  1  0.33722211  0.95982815  0.92045882  1
  S  S7  1  0.33728251  0.38147551  0.41477321  1
  S  S8  1  0.03855094  0.66940135  0.41639423  1
  O  O0  1  0.18366196  0.03014186  0.30933167  1
  O  O1  1  0.82067213  0.78658954  0.30481726  1
  O  O2  1  0.95562171  0.16607465  0.30821120  1
  O  O3  1  0.20646527  0.18524986  0.80820668  1
  O  O4  1  0.97801317  0.82088283  0.81323935  1
  O  O5  1  0.82504929  0.04902604  0.81032404  1
  O  O6  1  0.78389462  0.95557525  0.69126768  1
  O  O7  1  0.17124841  0.20238165  0.69698638  1
  O  O8  1  0.02936132  0.84038386  0.68903419  1
  O  O9  1  0.79789940  0.82561546  0.19462177  1
  O  O10  1  0.04269944  0.21692291  0.18791737  1
  O  O11  1  0.16399662  0.97480211  0.18552116  1
  O  O12  1  0.88504797  0.37961044  0.64245597  1
  O  O13  1  0.49872897  0.13880163  0.63494670  1
  O  O14  1  0.63832350  0.49881809  0.64731223  1
  O  O15  1  0.85288194  0.50549186  0.13562726  1
  O  O16  1  0.62316835  0.12281932  0.14194181  1
  O  O17  1  0.48530306  0.36014752  0.14035449  1
  O  O18  1  0.48665533  0.32138687  0.02870819  1
  O  O19  1  0.85112914  0.54088075  0.02423036  1
  O  O20  1  0.70486086  0.15907620  0.02354443  1
  O  O21  1  0.45830864  0.14400518  0.52306125  1
  O  O22  1  0.69345531  0.50838509  0.52536121  1
  O  O23  1  0.84190198  0.28245338  0.52314630  1
  O  O24  1  0.53409156  0.68661025  0.97268418  1
  O  O25  1  0.16330247  0.47080505  0.98173364  1
  O  O26  1  0.31369016  0.84916105  0.97595422  1
  O  O27  1  0.52094555  0.83425130  0.47778593  1
  O  O28  1  0.30654733  0.46541139  0.46954898  1
  O  O29  1  0.14646704  0.69976482  0.47169625  1
  O  O30  1  0.12228112  0.63731950  0.36124385  1
  O  O31  1  0.49517694  0.86051389  0.35566266  1
  O  O32  1  0.35401053  0.48328723  0.35847766  1
  O  O33  1  0.14907186  0.51427427  0.85994202  1
  O  O34  1  0.37280800  0.88032201  0.86521826  1
  O  O35  1  0.52118566  0.63166646  0.86187790  1
  O  O36  1  0.02428380  0.83213833  0.40818242  1
  O  O37  1  0.82163895  0.97703634  0.40878307  1
  O  O38  1  0.17138559  0.19749915  0.41218561  1
  O  O39  1  0.02153846  0.17333887  0.91041977  1
  O  O40  1  0.17921784  0.97556807  0.91609264  1
  O  O41  1  0.80064311  0.81664063  0.91747031  1
  O  O42  1  0.98644484  0.15565072  0.59470760  1
  O  O43  1  0.20509071  0.03328895  0.58738035  1
  O  O44  1  0.84499923  0.81107824  0.58686483  1
  O  O45  1  0.97182976  0.80297300  0.08667500  1
  O  O46  1  0.84727056  0.01879562  0.09235641  1
  O  O47  1  0.21064827  0.17468934  0.08144893  1
  O  O48  1  0.67839120  0.17744711  0.73886633  1
  O  O49  1  0.46194140  0.30385434  0.74661512  1
  O  O50  1  0.82210340  0.52193449  0.74883310  1
  O  O51  1  0.69383929  0.52904216  0.23928054  1
  O  O52  1  0.82725746  0.31771146  0.24131191  1
  O  O53  1  0.47582821  0.18165983  0.24419539  1
  O  O54  1  0.64075284  0.49461545  0.92682036  1
  O  O55  1  0.85320006  0.35925510  0.92199382  1
  O  O56  1  0.49985798  0.14168865  0.92679075  1
  O  O57  1  0.64366844  0.15510039  0.42246390  1
  O  O58  1  0.49025687  0.35551946  0.41944665  1
  O  O59  1  0.86178510  0.50499957  0.41971980  1
  O  O60  1  0.36448921  0.49690206  0.07806657  1
  O  O61  1  0.12714344  0.63875807  0.08111580  1
  O  O62  1  0.47945394  0.83569265  0.07398450  1
  O  O63  1  0.35605006  0.86546813  0.57865407  1
  O  O64  1  0.50061921  0.64788508  0.57949032  1
  O  O65  1  0.15882471  0.51978298  0.57037135  1
  O  O66  1  0.31559104  0.83244694  0.25368930  1
  O  O67  1  0.53714425  0.68842960  0.25356177  1
  O  O68  1  0.18665416  0.49311253  0.26043024  1
  O  O69  1  0.30781846  0.46866454  0.75728131  1
  O  O70  1  0.16634921  0.68578652  0.75568613  1
  O  O71  1  0.51036091  0.81441828  0.76364509  1
loop_
_geom_bond_atom_site_label_1
_geom_bond_atom_site_label_2
_geom_bond_distance
_geom_bond_site_symmetry_2
Na0 O52 2.385310 1_555
Na0 O66 2.399649 1_545
Na0 O67 2.438515 1_545
Na0 O31 2.439406 1_545
Na0 O53 2.533917 1_555
Na0 O2 2.672267 1_555
Na0 O16 2.763452 1_555
Na0 O9 2.952734 1_545
Na1 O53 2.279542 1_555
Na1 O68 2.286576 1_555
Na1 O67 2.477130 1_555
Na1 O32 2.500289 1_555
Na1 O51 2.604707 1_555
Na1 O17 2.717211 1_555
Na1 O0 2.735352 1_555
Na1 O10 2.751978 1_555
Na2 O50 2.323292 1_555
Na2 O14 2.330791 1_555
Na2 O71 2.336927 1_555
Na2 O6 2.552480 1_555
Na2 O49 2.554262 1_555
Na2 O69 2.559033 1_555
Na2 O35 2.850708 1_555
Na3 O48 2.379457 1_555
Na3 O70 2.403839 1_655
Na3 O50 2.462621 1_555
Na3 O69 2.466198 1_655
Na3 O12 2.469588 1_555
Na3 O5 2.755882 1_555
Na3 O7 2.796977 1_655
Na3 O33 2.803043 1_655
Na4 O44 2.298188 1_455
Na4 O65 2.335643 1_555
Na4 O8 2.484484 1_555
Na4 O63 2.526188 1_555
Na4 O43 2.575049 1_565
Na4 O12 2.585085 1_455
Na4 O29 2.769856 1_555
Na4 O22 2.872977 1_455
Na5 O42 2.384146 1_565
Na5 O64 2.391252 1_555
Na5 O63 2.470797 1_555
Na5 O44 2.477328 1_555
Na5 O6 2.575325 1_555
Na5 O27 2.596517 1_555
Na5 O23 2.695828 1_565
Na5 O13 2.847101 1_565
Na6 O62 2.337055 1_555
Na6 O11 2.353923 1_555
Na6 O47 2.369264 1_565
Na6 O61 2.475403 1_555
Na6 O45 2.556876 1_455
Na6 O16 2.590736 1_565
Na6 O26 2.771312 1_554
Na7 O46 2.318694 1_455
Na7 O61 2.385667 1_555
Na7 O25 2.512959 1_554
Na7 O10 2.516570 1_555
Na7 O47 2.536175 1_555
Na7 O60 2.550130 1_555
Na7 O20 2.759428 1_455
Na7 O15 2.900783 1_455
Na8 O4 2.335427 1_555
Na8 O55 2.341599 1_555
Na8 O40 2.396365 1_655
Na8 O41 2.468983 1_555
Na8 O54 2.557395 1_555
Na8 O33 2.626291 1_655
Na8 O19 2.886159 1_556
Na9 O39 2.377725 1_655
Na9 O5 2.380032 1_555
Na9 O55 2.410460 1_555
Na9 O56 2.434186 1_555
Na9 O41 2.435378 1_545
Na9 O20 2.660717 1_556
Na9 O34 2.728431 1_545
Na9 O24 2.965018 1_545
Na10 O37 2.362498 1_545
Na10 O38 2.374339 1_655
Na10 O59 2.405333 1_555
Na10 O57 2.406771 1_555
Na10 O23 2.441402 1_555
Na10 O2 2.643463 1_555
Na10 O28 2.829887 1_655
Na10 O30 2.898414 1_655
Na11 O57 2.328002 1_555
Na11 O36 2.406634 1_545
Na11 O58 2.428294 1_555
Na11 O38 2.532012 1_555
Na11 O21 2.578322 1_555
Na11 O0 2.650353 1_555
Na11 O31 2.753676 1_545
Na11 O29 2.797475 1_545
Na12 O44 2.314481 1_555
Na12 O42 2.412434 1_565
Na12 O37 2.452766 1_555
Na12 O43 2.583031 1_665
Na12 O36 2.597412 1_655
Na12 O38 2.621796 1_665
Na13 O39 2.351985 1_655
Na13 O41 2.425542 1_545
Na13 O46 2.431200 1_556
Na13 O47 2.466391 1_656
Na13 O40 2.508872 1_645
Na13 O45 2.558287 1_546
Na14 O48 2.330259 1_555
Na14 O50 2.342948 1_555
Na14 O49 2.398100 1_555
Na14 O55 2.610545 1_555
Na14 O56 2.626326 1_555
Na14 O54 2.659000 1_555
Na15 O59 2.387553 1_555
Na15 O57 2.434451 1_555
Na15 O52 2.468791 1_555
Na15 O58 2.501090 1_555
Na15 O53 2.526697 1_555
Na15 O51 2.607165 1_555
Na16 O66 2.324188 1_555
Na16 O68 2.418894 1_555
Na16 O62 2.508364 1_555
Na16 O67 2.522465 1_555
Na16 O61 2.554802 1_555
Na16 O60 2.585929 1_555
Na17 O64 2.423173 1_555
Na17 O70 2.488250 1_555
Na17 O65 2.488765 1_555
Na17 O63 2.506905 1_555
Na17 O71 2.567403 1_555
Na17 O69 2.584117 1_555
Al0 O2 1.808249 1_555
Al0 O0 1.830376 1_655
Al0 O37 1.865240 1_545
Al0 O1 1.954758 1_545
Al0 O38 2.117101 1_655
Al0 O36 2.123784 1_645
Al1 O5 1.777374 1_555
Al1 O4 1.795497 1_545
Al1 O3 1.825104 1_655
Al1 O39 1.874694 1_655
Al1 O41 2.384736 1_545
Al1 O40 2.450687 1_645
Al2 O8 1.812851 1_655
Al2 O6 1.820210 1_555
Al2 O42 1.838926 1_565
Al2 O44 1.850836 1_555
Al2 O7 2.113667 1_665
Al2 O43 2.256342 1_665
Al3 O10 1.796236 1_655
Al3 O11 1.816266 1_645
Al3 O9 1.868868 1_545
Al3 O46 1.876229 1_555
Al3 O45 2.198693 1_545
Al3 O47 2.322712 1_655
Al4 O14 1.797980 1_555
Al4 O12 1.815667 1_555
Al4 O48 1.860763 1_555
Al4 O50 1.906501 1_555
Al4 O13 2.071758 1_555
Al4 O49 2.284386 1_555
Al5 O16 1.800362 1_555
Al5 O52 1.804098 1_555
Al5 O53 1.844766 1_555
Al5 O51 2.053841 1_555
Al5 O15 2.068288 1_555
Al5 O17 2.120777 1_555
Al6 O20 1.798804 1_556
Al6 O55 1.856660 1_555
Al6 O19 1.920374 1_556
Al6 O56 1.983128 1_555
Al6 O18 2.005699 1_556
Al6 O54 2.081879 1_555
Al7 O22 1.764592 1_555
Al7 O23 1.789745 1_555
Al7 O57 1.908658 1_555
Al7 O21 1.912530 1_555
Al7 O59 2.187883 1_555
Al7 O58 2.376745 1_555
Al8 O25 1.787784 1_554
Al8 O62 1.822503 1_555
Al8 O24 1.845966 1_554
Al8 O26 1.989041 1_554
Al8 O60 2.038203 1_555
Al8 O61 2.265816 1_555
Al9 O64 1.783001 1_555
Al9 O27 1.805765 1_555
Al9 O65 1.814452 1_555
Al9 O28 1.913722 1_555
Al9 O63 2.118053 1_555
Al9 O29 2.351932 1_555
Al10 O31 1.805454 1_555
Al10 O68 1.823575 1_555
Al10 O66 1.832801 1_555
Al10 O30 1.868016 1_555
Al10 O32 2.173319 1_555
Al10 O67 2.290702 1_555
Al11 O70 1.788474 1_555
Al11 O71 1.798649 1_555
Al11 O33 1.809481 1_555
Al11 O69 2.020580 1_555
Al11 O34 2.033353 1_555
Al11 O35 2.329306 1_555
O0 Si0 1.635640 1_545
O1 S0 1.469191 1_555
O2 Si1 1.635882 1_655
O3 S1 1.486407 1_555
O4 Si2 1.662154 1_655
O5 Si3 1.658912 1_555
O6 Si3 1.624771 1_565
O7 S1 1.466849 1_555
O8 Si2 1.617404 1_555
O9 S0 1.479151 1_555
O10 Si1 1.645506 1_555
O11 Si0 1.643442 1_555
O12 Si4 1.635407 1_555
O13 S2 1.465688 1_555
O14 Si5 1.626009 1_555
O15 S3 1.468969 1_555
O16 Si6 1.637385 1_555
O17 S4 1.476516 1_555
O18 S4 1.476277 1_555
O19 S3 1.491123 1_555
O20 Si6 1.648980 1_555
O21 S2 1.499650 1_555
O22 Si5 1.628142 1_555
O23 Si4 1.652476 1_555
O24 S5 1.490261 1_555
O25 Si7 1.646397 1_555
O26 S6 1.497265 1_555
O27 Si8 1.624713 1_555
O28 S7 1.478061 1_555
O29 S8 1.471304 1_555
O30 S8 1.494962 1_555
O31 Si8 1.651213 1_555
O32 S7 1.479906 1_555
O33 Si7 1.631518 1_555
O34 S6 1.482821 1_555
O35 S5 1.464512 1_555
O36 S8 1.489366 1_555
O37 Si8 1.654323 1_555
O38 S7 1.519382 1_555
O39 Si7 1.654130 1_555
O40 S6 1.463956 1_555
O41 S5 1.495596 1_555
O42 Si4 1.624374 1_555
O43 S2 1.467637 1_555
O44 Si5 1.660799 1_555
O45 S3 1.477946 1_555
O46 Si6 1.652024 1_555
O47 S4 1.502395 1_555
O48 Si3 1.624954 1_555
O49 S1 1.460038 1_555
O50 Si2 1.661350 1_655
O51 S0 1.479737 1_555
O52 Si1 1.634018 1_655
O53 Si0 1.675569 1_545
O54 S5 1.493195 1_555
O55 Si7 1.692895 1_655
O56 S6 1.501529 1_545
O57 Si8 1.696053 1_545
O58 S7 1.473261 1_555
O59 S8 1.483616 1_655
O60 S4 1.497674 1_555
O61 S3 1.511355 1_455
O62 Si6 1.656406 1_565
O63 S2 1.508961 1_565
O64 Si5 1.640030 1_555
O65 Si4 1.637676 1_455
O66 Si0 1.635472 1_555
O67 S0 1.491659 1_555
O68 Si1 1.635389 1_555
O69 S1 1.513956 1_555
O70 Si2 1.641960 1_555
O71 Si3 1.638847 1_565
