# generated using pymatgen
data_Sc3NbSiS5O24
_symmetry_space_group_name_H-M   'P 1'
_cell_length_a   8.88312341
_cell_length_b   8.88967633
_cell_length_c   22.92338010
_cell_angle_alpha   90.15864791
_cell_angle_beta   90.14218494
_cell_angle_gamma   120.02729936
_symmetry_Int_Tables_number   1
_chemical_formula_structural   Sc3NbSiS5O24
_chemical_formula_sum   'Sc9 Nb3 Si3 S15 O72'
_cell_volume   1567.23961301
_cell_formula_units_Z   3
loop_
 _symmetry_equiv_pos_site_id
 _symmetry_equiv_pos_as_xyz
  1  'x, y, z'
loop_
 _atom_site_type_symbol
 _atom_site_label
 _atom_site_symmetry_multiplicity
 _atom_site_fract_x
 _atom_site_fract_y
 _atom_site_fract_z
 _atom_site_occupancy
  Sc  Sc0  1  0.01301046  0.00346081  0.35311592  1
  Sc  Sc1  1  0.99343360  0.99816994  0.85850568  1
  Sc  Sc2  1  0.99881429  0.99850691  0.64576435  1
  Sc  Sc3  1  0.01021606  0.99662911  0.14325125  1
  Sc  Sc4  1  0.66842096  0.33352064  0.68842048  1
  Sc  Sc5  1  0.65659246  0.32312947  0.18820399  1
  Sc  Sc6  1  0.66565386  0.33253945  0.47844792  1
  Sc  Sc7  1  0.33738059  0.66030148  0.02074256  1
  Sc  Sc8  1  0.33322013  0.66576549  0.52270695  1
  Nb  Nb0  1  0.67357575  0.33935178  0.97503083  1
  Nb  Nb1  1  0.33419332  0.67197155  0.30820054  1
  Nb  Nb2  1  0.32984930  0.65562985  0.81554593  1
  Si  Si0  1  0.28879561  0.00804581  0.24910887  1
  Si  Si1  1  0.62358778  0.67038900  0.91924390  1
  Si  Si2  1  0.04827759  0.37591291  0.91905220  1
  S  S0  1  0.71321346  0.71138440  0.25042084  1
  S  S1  1  0.99830241  0.28764669  0.25053823  1
  S  S2  1  0.28985763  0.28878311  0.74971492  1
  S  S3  1  0.00191232  0.71135541  0.74963567  1
  S  S4  1  0.70842013  0.99918345  0.74963065  1
  S  S5  1  0.95521545  0.33262294  0.58327658  1
  S  S6  1  0.37756035  0.04472263  0.58331486  1
  S  S7  1  0.66710553  0.62198448  0.58336587  1
  S  S8  1  0.95459722  0.62016794  0.08387252  1
  S  S9  1  0.66693033  0.04514622  0.08329879  1
  S  S10  1  0.37942285  0.33365193  0.08330497  1
  S  S11  1  0.33362029  0.95390733  0.91742338  1
  S  S12  1  0.62109796  0.95328310  0.41706920  1
  S  S13  1  0.33352212  0.38017710  0.41723168  1
  S  S14  1  0.04603065  0.66581249  0.41705809  1
  O  O0  1  0.19905914  0.02622664  0.30772233  1
  O  O1  1  0.81476242  0.79180384  0.30349305  1
  O  O2  1  0.97182398  0.18380733  0.30325566  1
  O  O3  1  0.21359195  0.18423897  0.80141209  1
  O  O4  1  0.97295456  0.78883979  0.80131645  1
  O  O5  1  0.81746194  0.03035766  0.80105236  1
  O  O6  1  0.78791725  0.96865117  0.69708283  1
  O  O7  1  0.18018716  0.21180502  0.69705297  1
  O  O8  1  0.02979514  0.81998660  0.69701797  1
  O  O9  1  0.77999642  0.82047013  0.19869395  1
  O  O10  1  0.03605455  0.21698984  0.19869637  1
  O  O11  1  0.16304800  0.96044528  0.19324602  1
  O  O12  1  0.87501297  0.36257931  0.63519392  1
  O  O13  1  0.48795838  0.12566336  0.63536095  1
  O  O14  1  0.63772173  0.51247477  0.63521832  1
  O  O15  1  0.87190584  0.51235653  0.13531356  1
  O  O16  1  0.64220542  0.12941144  0.13538108  1
  O  O17  1  0.48827577  0.36091804  0.13554847  1
  O  O18  1  0.46382324  0.30540590  0.03118850  1
  O  O19  1  0.83912249  0.53114085  0.03051733  1
  O  O20  1  0.69177238  0.15824117  0.03089014  1
  O  O21  1  0.45881171  0.15429526  0.53099454  1
  O  O22  1  0.69574579  0.54089433  0.53086236  1
  O  O23  1  0.84499947  0.30400895  0.53078965  1
  O  O24  1  0.53326881  0.69928017  0.97389466  1
  O  O25  1  0.16204581  0.47267986  0.97424623  1
  O  O26  1  0.30541689  0.84894888  0.96920298  1
  O  O27  1  0.53737615  0.84397933  0.46835281  1
  O  O28  1  0.30769299  0.46334981  0.46911867  1
  O  O29  1  0.15648810  0.69436892  0.46859223  1
  O  O30  1  0.13232806  0.63856574  0.36427815  1
  O  O31  1  0.50611643  0.86573344  0.36391866  1
  O  O32  1  0.36058463  0.49060679  0.36464916  1
  O  O33  1  0.13779293  0.50624330  0.85965199  1
  O  O34  1  0.36680168  0.87365641  0.86384277  1
  O  O35  1  0.49345825  0.63560479  0.86001046  1
  O  O36  1  0.02496931  0.81737230  0.40825751  1
  O  O37  1  0.79141562  0.97167769  0.40692423  1
  O  O38  1  0.17811620  0.20882018  0.40918213  1
  O  O39  1  0.02410008  0.19263182  0.90388581  1
  O  O40  1  0.18665846  0.97758386  0.90607556  1
  O  O41  1  0.81112945  0.82273127  0.90413657  1
  O  O42  1  0.97463012  0.17857115  0.59221186  1
  O  O43  1  0.20398911  0.02549467  0.59219902  1
  O  O44  1  0.82152446  0.79592070  0.59216031  1
  O  O45  1  0.96300758  0.78967954  0.08863425  1
  O  O46  1  0.82311222  0.03036608  0.09110471  1
  O  O47  1  0.20623737  0.17801023  0.09000949  1
  O  O48  1  0.68763336  0.15251614  0.73955224  1
  O  O49  1  0.46559850  0.31536009  0.73990727  1
  O  O50  1  0.84964288  0.53620123  0.73960761  1
  O  O51  1  0.68711198  0.53736518  0.24215930  1
  O  O52  1  0.85398834  0.31973944  0.24241323  1
  O  O53  1  0.48301807  0.16416308  0.24082509  1
  O  O54  1  0.63338816  0.48920874  0.92926855  1
  O  O55  1  0.85342326  0.35793356  0.92873582  1
  O  O56  1  0.49353112  0.12897359  0.92548752  1
  O  O57  1  0.63483356  0.12477411  0.42432285  1
  O  O58  1  0.48911471  0.36234902  0.42511955  1
  O  O59  1  0.87413232  0.50870913  0.42418111  1
  O  O60  1  0.36142529  0.48727483  0.07667973  1
  O  O61  1  0.12616599  0.64232264  0.07477291  1
  O  O62  1  0.51111903  0.87597878  0.07524417  1
  O  O63  1  0.35859001  0.87139208  0.57391222  1
  O  O64  1  0.51290490  0.64139181  0.57412188  1
  O  O65  1  0.12849265  0.48721926  0.57413196  1
  O  O66  1  0.30999958  0.82935243  0.26449636  1
  O  O67  1  0.53071093  0.68878297  0.26230303  1
  O  O68  1  0.16134185  0.46741697  0.26241368  1
  O  O69  1  0.30796406  0.46721470  0.75776658  1
  O  O70  1  0.16009898  0.69408363  0.75782007  1
  O  O71  1  0.53167158  0.84423405  0.75841861  1
loop_
_geom_bond_atom_site_label_1
_geom_bond_atom_site_label_2
_geom_bond_distance
_geom_bond_site_symmetry_2
Nb0 O55 1.857721 1_555
Nb0 O54 1.866669 1_555
Nb0 O19 2.038783 1_556
Nb0 O56 2.081113 1_555
Nb0 O20 2.128090 1_556
Nb0 O18 2.161323 1_556
Nb1 O66 1.820685 1_555
Nb1 O67 1.981318 1_555
Nb1 O68 1.988204 1_555
Nb1 O31 2.067862 1_555
Nb1 O30 2.106374 1_555
Nb1 O32 2.171899 1_555
Nb2 O35 1.853498 1_555
Nb2 O33 1.856056 1_555
Nb2 O69 2.063514 1_555
Nb2 O34 2.107040 1_555
Nb2 O70 2.156432 1_555
Nb2 O71 2.180742 1_555
O0 Si0 1.612427 1_555
O0 Sc0 1.878856 1_555
O1 S0 1.466026 1_555
O1 Sc0 2.144178 1_665
O2 S1 1.469048 1_555
O2 Sc0 2.146082 1_655
O3 S2 1.451563 1_555
O3 Sc1 2.249619 1_445
O4 S3 1.455495 1_655
O4 Sc1 2.204791 1_555
O5 S4 1.458900 1_545
O5 Sc1 2.167828 1_545
O6 S4 1.489162 1_555
O6 Sc2 2.116388 1_555
O7 S2 1.482247 1_555
O7 Sc2 2.119963 1_445
O8 S3 1.489068 1_555
O8 Sc2 2.102500 1_455
O9 S0 1.460286 1_555
O9 Sc3 2.251363 1_655
O10 S1 1.458742 1_455
O10 Sc3 2.245059 1_545
O11 Si0 1.607327 1_565
O11 Sc3 1.921306 1_555
O12 S5 1.478927 1_555
O12 Sc4 2.112285 1_555
O13 S6 1.478549 1_555
O13 Sc4 2.115855 1_555
O14 S7 1.477271 1_555
O14 Sc4 2.129741 1_555
O15 S8 1.467859 1_555
O15 Sc5 2.181894 1_555
O16 S9 1.481819 1_555
O16 Sc5 2.053187 1_555
O17 S10 1.478535 1_555
O17 Sc5 2.073965 1_555
O18 S10 1.497875 1_555
O19 S8 1.533106 1_555
O20 S9 1.512866 1_555
O21 S6 1.488405 1_555
O21 Sc6 2.108425 1_555
O22 S7 1.487680 1_555
O22 Sc6 2.106259 1_555
O23 S5 1.487990 1_555
O23 Sc6 2.106819 1_555
O24 Si1 1.577520 1_555
O24 Sc7 1.925923 1_556
O25 Si2 1.574707 1_555
O25 Sc7 1.930228 1_556
O26 S11 1.454607 1_555
O26 Sc7 2.185112 1_556
O27 S12 1.471972 1_555
O27 Sc8 2.120835 1_555
O28 S13 1.476593 1_555
O28 Sc8 2.091967 1_555
O29 S14 1.471755 1_555
O29 Sc8 2.111817 1_555
O30 S14 1.516241 1_555
O31 S12 1.525264 1_555
O32 S13 1.498736 1_555
O33 Si2 1.709038 1_555
O34 S11 1.520466 1_555
O35 Si1 1.705198 1_555
O36 S14 1.464433 1_555
O36 Sc0 2.128956 1_565
O37 S12 1.457464 1_555
O37 Sc0 2.221134 1_665
O38 S13 1.467242 1_555
O38 Sc0 2.105604 1_555
O39 Si2 1.570962 1_555
O39 Sc1 1.913662 1_445
O40 S11 1.445636 1_555
O40 Sc1 2.115409 1_455
O41 Si1 1.573797 1_555
O41 Sc1 1.907547 1_555
O42 S5 1.478142 1_555
O42 Sc2 2.114045 1_545
O43 S6 1.478510 1_555
O43 Sc2 2.112405 1_445
O44 S7 1.478937 1_555
O44 Sc2 2.091187 1_555
O45 S8 1.474662 1_555
O45 Sc3 2.083371 1_655
O46 S9 1.468146 1_555
O46 Sc3 2.184569 1_645
O47 S10 1.475385 1_555
O47 Sc3 2.081582 1_545
O48 S4 1.482865 1_545
O48 Sc4 2.067941 1_555
O49 S2 1.475257 1_555
O49 Sc4 2.094199 1_555
O50 S3 1.481723 1_655
O50 Sc4 2.071402 1_555
O51 S0 1.456686 1_555
O51 Sc5 2.167690 1_555
O52 S1 1.457618 1_555
O52 Sc5 2.159195 1_555
O53 Si0 1.595457 1_555
O53 Sc5 1.915050 1_555
O54 Si1 1.672367 1_555
O55 Si2 1.672157 1_655
O56 S11 1.502863 1_545
O57 S12 1.476132 1_545
O57 Sc6 2.122544 1_555
O58 S13 1.478613 1_555
O58 Sc6 2.105268 1_555
O59 S14 1.475467 1_655
O59 Sc6 2.132916 1_555
O60 S10 1.460544 1_555
O60 Sc7 2.096214 1_555
O61 S8 1.451370 1_455
O61 Sc7 2.189150 1_555
O62 S9 1.457863 1_565
O62 Sc7 2.152794 1_555
O63 S6 1.478915 1_565
O63 Sc8 2.084350 1_555
O64 S7 1.478598 1_555
O64 Sc8 2.078941 1_555
O65 S5 1.479187 1_455
O65 Sc8 2.085273 1_555
O66 Si0 1.727873 1_565
O67 S0 1.555417 1_555
O68 S1 1.550741 1_455
O69 S2 1.522780 1_555
O70 S3 1.499373 1_555
O71 S4 1.497236 1_555
