# generated using pymatgen
data_LiMnPO4
_symmetry_space_group_name_H-M   'P 1'
_cell_length_a   5.69657300
_cell_length_b   6.33341707
_cell_length_c   9.32069932
_cell_angle_alpha   76.75482805
_cell_angle_beta   84.48018493
_cell_angle_gamma   75.06026885
_symmetry_Int_Tables_number   1
_chemical_formula_structural   LiMnPO4
_chemical_formula_sum   'Li4 Mn4 P4 O16'
_cell_volume   316.02272100
_cell_formula_units_Z   4
loop_
 _symmetry_equiv_pos_site_id
 _symmetry_equiv_pos_as_xyz
  1  'x, y, z'
loop_
 _atom_site_type_symbol
 _atom_site_label
 _atom_site_symmetry_multiplicity
 _atom_site_fract_x
 _atom_site_fract_y
 _atom_site_fract_z
 _atom_site_occupancy
  Li  Li0  1  0.37045900  0.01812300  0.75783200  1
  Li  Li1  1  0.76804100  0.14450900  0.61582600  1
  Li  Li2  1  0.23195900  0.85549100  0.38417400  1
  Li  Li3  1  0.62954100  0.98187700  0.24216800  1
  Mn  Mn0  1  0.73653200  0.33413500  0.91131500  1
  Mn  Mn1  1  0.15512800  0.56762200  0.69656600  1
  Mn  Mn2  1  0.84487200  0.43237800  0.30343400  1
  Mn  Mn3  1  0.26346800  0.66586500  0.08868500  1
  P  P0  1  0.20377100  0.18944900  0.05474400  1
  P  P1  1  0.32461900  0.31307100  0.42821200  1
  P  P2  1  0.67538100  0.68692900  0.57178800  1
  P  P3  1  0.79622900  0.81055100  0.94525600  1
  O  O0  1  0.05198800  0.69942000  0.88440200  1
  O  O1  1  0.94801200  0.30058000  0.11559800  1
  O  O2  1  0.84481500  0.81702200  0.10516700  1
  O  O3  1  0.30594400  0.95448700  0.15252500  1
  O  O4  1  0.60731500  0.67173100  0.94317600  1
  O  O5  1  0.39268500  0.32826900  0.05682400  1
  O  O6  1  0.15518500  0.18297800  0.89483300  1
  O  O7  1  0.69405600  0.04551300  0.84747500  1
  O  O8  1  0.85627300  0.82841400  0.58347100  1
  O  O9  1  0.79234400  0.44467600  0.66026000  1
  O  O10  1  0.14372700  0.17158600  0.41652900  1
  O  O11  1  0.35463200  0.31030500  0.59354400  1
  O  O12  1  0.64536800  0.68969500  0.40645600  1
  O  O13  1  0.58315400  0.22281500  0.36322900  1
  O  O14  1  0.20765600  0.55532400  0.33974000  1
  O  O15  1  0.41684600  0.77718500  0.63677100  1
loop_
_geom_bond_atom_site_label_1
_geom_bond_atom_site_label_2
_geom_bond_distance
_geom_bond_site_symmetry_2
Li0 O6 1.968274 1_555
Li0 O15 2.048257 1_545
Li0 O11 2.102234 1_555
Li0 O7 2.157294 1_555
Li0 O4 2.608323 1_545
Li1 O8 2.019925 1_545
Li1 O9 2.076616 1_555
Li1 O7 2.138559 1_555
Li1 O11 2.326148 1_555
Li1 O13 2.563398 1_555
Li2 O10 2.019925 1_565
Li2 O14 2.076616 1_555
Li2 O3 2.138559 1_555
Li2 O12 2.326148 1_555
Li2 O15 2.563398 1_555
Li3 O2 1.968274 1_555
Li3 O13 2.048257 1_565
Li3 O12 2.102234 1_555
Li3 O3 2.157294 1_555
Li3 O5 2.608323 1_565
Mn0 O7 2.123262 1_555
Mn0 O4 2.153848 1_555
Mn0 O5 2.276148 1_556
Mn0 O1 2.290371 1_556
Mn0 O9 2.299522 1_555
Mn0 O6 2.333987 1_655
Mn1 O0 2.079919 1_555
Mn1 O11 2.102796 1_555
Mn1 O15 2.194638 1_555
Mn1 O8 2.198907 1_455
Mn1 O9 2.465113 1_455
Mn1 O6 2.699345 1_555
Mn2 O1 2.079919 1_555
Mn2 O12 2.102796 1_555
Mn2 O13 2.194638 1_555
Mn2 O10 2.198907 1_655
Mn2 O14 2.465113 1_655
Mn2 O2 2.699345 1_555
Mn3 O3 2.123262 1_555
Mn3 O5 2.153848 1_555
Mn3 O4 2.276148 1_554
Mn3 O0 2.290371 1_554
Mn3 O14 2.299522 1_555
Mn3 O2 2.333987 1_455
O0 P3 1.560460 1_455
O1 P0 1.560460 1_655
O2 P3 1.553391 1_554
O3 P0 1.554945 1_565
O4 P3 1.559223 1_555
O5 P0 1.559223 1_555
O6 P0 1.553391 1_556
O7 P3 1.554945 1_545
O8 P2 1.555340 1_555
O9 P2 1.573794 1_555
O10 P1 1.555340 1_555
O11 P1 1.562377 1_555
O12 P2 1.562377 1_555
O13 P1 1.554226 1_555
O14 P1 1.573794 1_555
O15 P2 1.554226 1_555
