# generated using pymatgen
data_Li3Ag2Ge3
_symmetry_space_group_name_H-M   'P 1'
_cell_length_a   6.43866400
_cell_length_b   6.43866400
_cell_length_c   6.43866400
_cell_angle_alpha   90.00000000
_cell_angle_beta   90.00000000
_cell_angle_gamma   90.00000000
_symmetry_Int_Tables_number   1
_chemical_formula_structural   Li3Ag2Ge3
_chemical_formula_sum   'Li6 Ag4 Ge6'
_cell_volume   266.92379229
_cell_formula_units_Z   2
loop_
 _symmetry_equiv_pos_site_id
 _symmetry_equiv_pos_as_xyz
  1  'x, y, z'
loop_
 _atom_site_type_symbol
 _atom_site_label
 _atom_site_symmetry_multiplicity
 _atom_site_fract_x
 _atom_site_fract_y
 _atom_site_fract_z
 _atom_site_occupancy
  Li  Li0  1  0.00000000  0.00000000  0.00000000  1
  Li  Li1  1  0.50000000  0.50000000  0.50000000  1
  Li  Li2  1  0.75000000  0.25000000  0.25000000  1
  Li  Li3  1  0.25000000  0.25000000  0.75000000  1
  Li  Li4  1  0.25000000  0.75000000  0.25000000  1
  Li  Li5  1  0.75000000  0.75000000  0.75000000  1
  Ag  Ag0  1  0.75000000  0.25000000  0.75000000  1
  Ag  Ag1  1  0.25000000  0.25000000  0.25000000  1
  Ag  Ag2  1  0.75000000  0.75000000  0.25000000  1
  Ag  Ag3  1  0.25000000  0.75000000  0.75000000  1
  Ge  Ge0  1  0.00000000  0.50000000  0.50000000  1
  Ge  Ge1  1  0.00000000  0.50000000  0.00000000  1
  Ge  Ge2  1  0.00000000  0.00000000  0.50000000  1
  Ge  Ge3  1  0.50000000  0.50000000  0.00000000  1
  Ge  Ge4  1  0.50000000  0.00000000  0.00000000  1
  Ge  Ge5  1  0.50000000  0.00000000  0.50000000  1
loop_
_geom_bond_atom_site_label_1
_geom_bond_atom_site_label_2
_geom_bond_distance
_geom_bond_site_symmetry_2
Ag0 Ge0 2.788023 1_655
Ag0 Ge4 2.788023 1_556
Ag0 Ge1 2.788023 1_656
Ag0 Ge2 2.788023 1_655
Ag0 Ge3 2.788023 1_556
Ag0 Li0 2.788023 1_656
Ag0 Ge5 2.788023 1_555
Ag0 Li1 2.788023 1_555
Ag0 Li5 3.219332 1_545
Ag0 Li5 3.219332 1_555
Ag0 Li2 3.219332 1_556
Ag0 Li2 3.219332 1_555
Ag0 Li3 3.219332 1_555
Ag0 Li3 3.219332 1_655
Ag1 Ge1 2.788023 1_555
Ag1 Ge4 2.788023 1_555
Ag1 Li0 2.788023 1_555
Ag1 Ge3 2.788023 1_555
Ag1 Ge2 2.788023 1_555
Ag1 Ge0 2.788023 1_555
Ag1 Ge5 2.788023 1_555
Ag1 Li1 2.788023 1_555
Ag1 Li3 3.219332 1_554
Ag1 Li2 3.219332 1_555
Ag1 Li3 3.219332 1_555
Ag1 Li4 3.219332 1_545
Ag1 Li4 3.219332 1_555
Ag1 Li2 3.219332 1_455
Ag2 Ge0 2.788023 1_655
Ag2 Ge4 2.788023 1_565
Ag2 Ge3 2.788023 1_555
Ag2 Li1 2.788023 1_555
Ag2 Ge1 2.788023 1_655
Ag2 Ge5 2.788023 1_565
Ag2 Li0 2.788023 1_665
Ag2 Ge2 2.788023 1_665
Ag2 Li4 3.219332 1_655
Ag2 Li2 3.219332 1_565
Ag2 Li2 3.219332 1_555
Ag2 Li5 3.219332 1_555
Ag2 Li5 3.219332 1_554
Ag2 Li4 3.219332 1_555
Ag3 Ge1 2.788023 1_556
Ag3 Ge2 2.788023 1_565
Ag3 Ge4 2.788023 1_566
Ag3 Ge5 2.788023 1_565
Ag3 Ge3 2.788023 1_556
Ag3 Ge0 2.788023 1_555
Ag3 Li1 2.788023 1_555
Ag3 Li0 2.788023 1_566
Ag3 Li4 3.219332 1_556
Ag3 Li5 3.219332 1_555
Ag3 Li3 3.219332 1_555
Ag3 Li3 3.219332 1_565
Ag3 Li5 3.219332 1_455
Ag3 Li4 3.219332 1_555
Ge0 Li5 2.788023 1_455
Ge0 Li4 2.788023 1_555
Ge0 Li2 2.788023 1_455
Ge0 Li3 2.788023 1_555
Ge1 Li5 2.788023 1_454
Ge1 Li4 2.788023 1_555
Ge1 Li2 2.788023 1_455
Ge1 Li3 2.788023 1_554
Ge2 Li2 2.788023 1_455
Ge2 Li5 2.788023 1_445
Ge2 Li3 2.788023 1_555
Ge2 Li4 2.788023 1_545
Ge3 Li5 2.788023 1_554
Ge3 Li4 2.788023 1_555
Ge3 Li3 2.788023 1_554
Ge3 Li2 2.788023 1_555
Ge4 Li3 2.788023 1_554
Ge4 Li5 2.788023 1_544
Ge4 Li2 2.788023 1_555
Ge4 Li4 2.788023 1_545
Ge5 Li5 2.788023 1_545
Ge5 Li2 2.788023 1_555
Ge5 Li3 2.788023 1_555
Ge5 Li4 2.788023 1_545
