# generated using pymatgen
data_MgMn4(FeO4)2
_symmetry_space_group_name_H-M   'P 1'
_cell_length_a   6.09711997
_cell_length_b   6.37320720
_cell_length_c   6.35358212
_cell_angle_alpha   58.90892784
_cell_angle_beta   61.45039697
_cell_angle_gamma   61.64197730
_symmetry_Int_Tables_number   1
_chemical_formula_structural   MgMn4(FeO4)2
_chemical_formula_sum   'Mg1 Mn4 Fe2 O8'
_cell_volume   176.96369108
_cell_formula_units_Z   1
loop_
 _symmetry_equiv_pos_site_id
 _symmetry_equiv_pos_as_xyz
  1  'x, y, z'
loop_
 _atom_site_type_symbol
 _atom_site_label
 _atom_site_symmetry_multiplicity
 _atom_site_fract_x
 _atom_site_fract_y
 _atom_site_fract_z
 _atom_site_occupancy
  Mg  Mg0  1  0.02527300  0.48060000  0.46741900  1
  Mn  Mn0  1  0.97753100  0.03428700  0.02386600  1
  Mn  Mn1  1  0.32924800  0.17859100  0.18405000  1
  Mn  Mn2  1  0.09451100  0.68012200  0.68957600  1
  Mn  Mn3  1  0.62630100  0.12828200  0.61409300  1
  Fe  Fe0  1  0.62248400  0.61634600  0.13475400  1
  Fe  Fe1  1  0.54726400  0.66540200  0.67224700  1
  O  O0  1  0.41157900  0.34899400  0.35091000  1
  O  O1  1  0.41281100  0.36680300  0.80056800  1
  O  O2  1  0.41169200  0.79892700  0.37723600  1
  O  O3  1  0.39226700  0.88641100  0.88468000  1
  O  O4  1  0.89120600  0.35338300  0.34171900  1
  O  O5  1  0.85428500  0.43025300  0.85179200  1
  O  O6  1  0.85435500  0.86373800  0.42599700  1
  O  O7  1  0.82002700  0.90744600  0.88942800  1
loop_
_geom_bond_atom_site_label_1
_geom_bond_atom_site_label_2
_geom_bond_distance
_geom_bond_site_symmetry_2
Mg0 O4 1.971225 1_455
Mg0 O0 1.974124 1_555
Mg0 O5 2.056402 1_455
Mg0 O6 2.073370 1_455
Mn0 O5 2.064635 1_554
Mn0 O6 2.084834 1_545
Mn0 O3 2.126960 1_644
Mn0 O7 2.130714 1_544
Mn1 O2 1.995246 1_545
Mn1 O1 2.002605 1_554
Mn1 O0 2.184266 1_555
Mn1 O4 2.268589 1_455
Mn2 O7 2.019302 1_455
Mn2 O2 2.102914 1_555
Mn2 O1 2.103205 1_555
Mn2 O5 2.195727 1_455
Mn2 O6 2.238321 1_455
Mn3 O1 1.978689 1_555
Mn3 O7 2.071051 1_545
Mn3 O3 2.091798 1_545
Mn3 O0 2.098218 1_555
Mn3 O6 2.114200 1_545
Mn3 O4 2.151060 1_555
Fe0 O2 1.979290 1_555
Fe0 O4 2.096928 1_555
Fe0 O0 2.102261 1_555
Fe0 O3 2.114114 1_554
Fe0 O7 2.159581 1_554
Fe0 O5 2.194859 1_554
Fe1 O2 2.021400 1_555
Fe1 O3 2.044151 1_555
Fe1 O1 2.049146 1_555
Fe1 O5 2.159143 1_555
Fe1 O6 2.226460 1_555
