# generated using pymatgen
data_MgMn2(FeO2)4
_symmetry_space_group_name_H-M   'P 1'
_cell_length_a   6.50088884
_cell_length_b   6.47213784
_cell_length_c   5.93627163
_cell_angle_alpha   63.97857470
_cell_angle_beta   63.39507978
_cell_angle_gamma   55.65918677
_symmetry_Int_Tables_number   1
_chemical_formula_structural   MgMn2(FeO2)4
_chemical_formula_sum   'Mg1 Mn2 Fe4 O8'
_cell_volume   178.44168209
_cell_formula_units_Z   1
loop_
 _symmetry_equiv_pos_site_id
 _symmetry_equiv_pos_as_xyz
  1  'x, y, z'
loop_
 _atom_site_type_symbol
 _atom_site_label
 _atom_site_symmetry_multiplicity
 _atom_site_fract_x
 _atom_site_fract_y
 _atom_site_fract_z
 _atom_site_occupancy
  Mg  Mg0  1  0.79024900  0.76804000  0.21127100  1
  Mn  Mn0  1  0.10967400  0.62600400  0.63382600  1
  Mn  Mn1  1  0.61870200  0.10356700  0.64027500  1
  Fe  Fe0  1  0.04333900  0.04451100  0.95166300  1
  Fe  Fe1  1  0.23703800  0.23973900  0.26675200  1
  Fe  Fe2  1  0.55791200  0.57717000  0.15238500  1
  Fe  Fe3  1  0.57459800  0.57477600  0.68719200  1
  O  O0  1  0.35420100  0.36597200  0.40715000  1
  O  O1  1  0.41696400  0.86214000  0.36395300  1
  O  O2  1  0.34800300  0.37245100  0.89236700  1
  O  O3  1  0.86192700  0.40226600  0.37943700  1
  O  O4  1  0.40837200  0.86745500  0.85896200  1
  O  O5  1  0.85336900  0.40810100  0.87215000  1
  O  O6  1  0.92075600  0.89864900  0.33119000  1
  O  O7  1  0.91531300  0.89957900  0.84101000  1
loop_
_geom_bond_atom_site_label_1
_geom_bond_atom_site_label_2
_geom_bond_distance
_geom_bond_site_symmetry_2
Mg0 O7 1.937878 1_554
Mg0 O6 1.954280 1_555
Mg0 O3 1.979015 1_555
Mg0 O1 1.981948 1_555
Mn0 O0 2.054936 1_555
Mn0 O7 2.058880 1_455
Mn0 O2 2.121411 1_555
Mn0 O6 2.144583 1_455
Mn0 O5 2.357098 1_455
Mn0 O1 2.706047 1_555
Mn1 O0 2.128509 1_555
Mn1 O7 2.164843 1_545
Mn1 O2 2.199069 1_555
Mn1 O4 2.217441 1_545
Mn1 O6 2.225136 1_545
Mn1 O3 2.695259 1_555
Fe0 O5 1.885274 1_455
Fe0 O4 1.887571 1_545
Fe0 O7 1.978671 1_445
Fe0 O6 1.994160 1_446
Fe1 O3 1.939800 1_455
Fe1 O2 1.945665 1_554
Fe1 O0 1.952007 1_555
Fe1 O1 1.953391 1_545
Fe2 O5 2.004501 1_554
Fe2 O4 2.023241 1_554
Fe2 O0 2.084235 1_555
Fe2 O1 2.216674 1_555
Fe2 O3 2.351000 1_555
Fe3 O5 2.047149 1_555
Fe3 O4 2.047941 1_555
Fe3 O3 2.110345 1_555
Fe3 O2 2.130267 1_555
Fe3 O1 2.161192 1_555
