# generated using pymatgen
data_Na3ScGe3(PO4)6
_symmetry_space_group_name_H-M   'P 1'
_cell_length_a   8.54754732
_cell_length_b   8.55639240
_cell_length_c   22.01223104
_cell_angle_alpha   90.00376425
_cell_angle_beta   89.98573047
_cell_angle_gamma   120.29374977
_symmetry_Int_Tables_number   1
_chemical_formula_structural   Na3ScGe3(PO4)6
_chemical_formula_sum   'Na9 Sc3 Ge9 P18 O72'
_cell_volume   1390.06062577
_cell_formula_units_Z   3
loop_
 _symmetry_equiv_pos_site_id
 _symmetry_equiv_pos_as_xyz
  1  'x, y, z'
loop_
 _atom_site_type_symbol
 _atom_site_label
 _atom_site_symmetry_multiplicity
 _atom_site_fract_x
 _atom_site_fract_y
 _atom_site_fract_z
 _atom_site_occupancy
  Na  Na0  1  0.36444034  0.36038612  0.24859563  1
  Na  Na1  1  0.63412239  0.63092194  0.74950720  1
  Na  Na2  1  0.96782578  0.29763970  0.41579185  1
  Na  Na3  1  0.00057929  0.99294307  0.50069116  1
  Na  Na4  1  0.00003243  0.00009708  0.00061545  1
  Na  Na5  1  0.66736676  0.32617933  0.83485206  1
  Na  Na6  1  0.66694849  0.33359831  0.33141121  1
  Na  Na7  1  0.33267647  0.67388299  0.16432063  1
  Na  Na8  1  0.32626008  0.66759420  0.66535254  1
  Sc  Sc0  1  0.99943956  0.99316436  0.35515937  1
  Sc  Sc1  1  0.66707366  0.32749439  0.68617656  1
  Sc  Sc2  1  0.67206945  0.33270826  0.18279994  1
  Ge  Ge0  1  0.00107437  0.00119582  0.85571018  1
  Ge  Ge1  1  0.00164745  0.00091263  0.64600761  1
  Ge  Ge2  1  0.99874448  0.99769772  0.14569424  1
  Ge  Ge3  1  0.66688724  0.33291561  0.98169268  1
  Ge  Ge4  1  0.66198528  0.33363560  0.48252545  1
  Ge  Ge5  1  0.33305347  0.66647145  0.01865052  1
  Ge  Ge6  1  0.33459792  0.66805106  0.52068119  1
  Ge  Ge7  1  0.33442280  0.67265218  0.31312240  1
  Ge  Ge8  1  0.32865892  0.66741675  0.81579036  1
  P  P0  1  0.28631902  0.99190189  0.24941541  1
  P  P1  1  0.70846218  0.71383343  0.24951204  1
  P  P2  1  0.00073833  0.29160927  0.25128663  1
  P  P3  1  0.27788977  0.28486357  0.75216756  1
  P  P4  1  0.01019811  0.72206775  0.75198048  1
  P  P5  1  0.71557791  0.99848719  0.75270456  1
  P  P6  1  0.96179000  0.33340402  0.58164508  1
  P  P7  1  0.37168124  0.03796436  0.58192215  1
  P  P8  1  0.66602204  0.62742611  0.58287030  1
  P  P9  1  0.96263137  0.62857382  0.08060490  1
  P  P10  1  0.66627507  0.03789521  0.08082831  1
  P  P11  1  0.37200284  0.33437216  0.08165246  1
  P  P12  1  0.62130737  0.66526004  0.91665851  1
  P  P13  1  0.04402655  0.37837518  0.91706725  1
  P  P14  1  0.33411426  0.95541711  0.91700693  1
  P  P15  1  0.61187423  0.95315277  0.41905467  1
  P  P16  1  0.34445830  0.38790491  0.41847722  1
  P  P17  1  0.04755363  0.66407842  0.41951900  1
  O  O0  1  0.21031849  0.03267567  0.30586505  1
  O  O1  1  0.81819954  0.79036161  0.30675902  1
  O  O2  1  0.97464345  0.18616390  0.30985876  1
  O  O3  1  0.19636725  0.16704639  0.80910706  1
  O  O4  1  0.96689919  0.80313466  0.80822155  1
  O  O5  1  0.83279861  0.02876464  0.80944939  1
  O  O6  1  0.79272256  0.95404386  0.69455205  1
  O  O7  1  0.16384537  0.20524845  0.69334816  1
  O  O8  1  0.04230634  0.83595145  0.69323524  1
  O  O9  1  0.79214817  0.83270430  0.19171636  1
  O  O10  1  0.04482507  0.20817360  0.19458981  1
  O  O11  1  0.16712385  0.95869735  0.19170286  1
  O  O12  1  0.88471528  0.37171934  0.63775934  1
  O  O13  1  0.48519908  0.11377552  0.63865733  1
  O  O14  1  0.62918103  0.51809237  0.64106670  1
  O  O15  1  0.88986973  0.51699670  0.13779718  1
  O  O16  1  0.62635726  0.11015820  0.13782338  1
  O  O17  1  0.48000277  0.37188590  0.14012040  1
  O  O18  1  0.45918933  0.29602266  0.02540005  1
  O  O19  1  0.83795978  0.54266957  0.02390886  1
  O  O20  1  0.70529172  0.16219633  0.02410664  1
  O  O21  1  0.45590630  0.16108732  0.52477297  1
  O  O22  1  0.70451216  0.54142183  0.52627319  1
  O  O23  1  0.84191409  0.29603861  0.52317993  1
  O  O24  1  0.53680883  0.70324969  0.97220843  1
  O  O25  1  0.16548369  0.46154664  0.97313953  1
  O  O26  1  0.29576396  0.83416006  0.97301357  1
  O  O27  1  0.52960132  0.83463925  0.47540245  1
  O  O28  1  0.30230129  0.47185778  0.47367520  1
  O  O29  1  0.16531868  0.69408264  0.47569242  1
  O  O30  1  0.12525689  0.61996315  0.36144793  1
  O  O31  1  0.49774519  0.87311959  0.36031856  1
  O  O32  1  0.37483681  0.49868028  0.35860417  1
  O  O33  1  0.12515972  0.49706900  0.85903055  1
  O  O34  1  0.37234772  0.87481683  0.85907965  1
  O  O35  1  0.50572236  0.62961420  0.85738187  1
  O  O36  1  0.02641188  0.82817542  0.41578627  1
  O  O37  1  0.80275091  0.98111192  0.41508479  1
  O  O38  1  0.17391699  0.20129253  0.41478734  1
  O  O39  1  0.02596441  0.18881967  0.90973246  1
  O  O40  1  0.16275576  0.97372662  0.90942967  1
  O  O41  1  0.81209894  0.83747840  0.90958308  1
  O  O42  1  0.97799705  0.16078701  0.58883838  1
  O  O43  1  0.18228610  0.02126338  0.58873633  1
  O  O44  1  0.83923777  0.81793136  0.58914072  1
  O  O45  1  0.97905287  0.81750314  0.08780518  1
  O  O46  1  0.83896434  0.02155767  0.08840190  1
  O  O47  1  0.18150653  0.16115813  0.08848809  1
  O  O48  1  0.69401966  0.16271979  0.74790874  1
  O  O49  1  0.46931555  0.31310874  0.74720775  1
  O  O50  1  0.83943547  0.53504546  0.74688439  1
  O  O51  1  0.67717200  0.52211137  0.24381684  1
  O  O52  1  0.83840006  0.31558290  0.24548254  1
  O  O53  1  0.47362947  0.16039608  0.24344124  1
  O  O54  1  0.63990535  0.49473307  0.92378053  1
  O  O55  1  0.85422085  0.35914112  0.92401506  1
  O  O56  1  0.50510558  0.14608446  0.92415657  1
  O  O57  1  0.63463261  0.14661840  0.42474039  1
  O  O58  1  0.51544053  0.37020750  0.42497307  1
  O  O59  1  0.85686829  0.48702453  0.42516049  1
  O  O60  1  0.35345480  0.50427176  0.07226992  1
  O  O61  1  0.15180752  0.64732891  0.07195040  1
  O  O62  1  0.49580350  0.84791870  0.07185872  1
  O  O63  1  0.35208702  0.84895882  0.57381937  1
  O  O64  1  0.49664304  0.64664987  0.57386519  1
  O  O65  1  0.15211714  0.50317540  0.57363715  1
  O  O66  1  0.30116156  0.81896208  0.25647709  1
  O  O67  1  0.51522083  0.69380727  0.25584870  1
  O  O68  1  0.18068143  0.48156098  0.25663668  1
  O  O69  1  0.30134262  0.47906583  0.75813789  1
  O  O70  1  0.18074373  0.70298521  0.75849267  1
  O  O71  1  0.52440915  0.82112838  0.75850409  1
loop_
_geom_bond_atom_site_label_1
_geom_bond_atom_site_label_2
_geom_bond_distance
_geom_bond_site_symmetry_2
Na0 O68 2.283896 1_555
Na0 O51 2.310721 1_555
Na0 O53 2.328785 1_555
Na0 O67 2.473071 1_555
Na0 O17 2.566649 1_555
Na0 O10 2.642857 1_555
Na0 O32 2.676857 1_555
Na0 O0 2.731323 1_555
Na1 O71 2.259858 1_555
Na1 O50 2.282202 1_555
Na1 O49 2.348851 1_555
Na1 O69 2.467055 1_555
Na1 O14 2.567152 1_555
Na1 O35 2.613332 1_555
Na1 O6 2.676445 1_555
Na1 O4 2.775879 1_555
Na2 O59 2.262349 1_555
Na2 O38 2.290919 1_655
Na2 O37 2.338996 1_545
Na2 O57 2.471144 1_555
Na2 O2 2.531068 1_555
Na2 O23 2.594249 1_555
Na2 O30 2.665224 1_655
Na2 O28 2.778693 1_655
Na3 O36 2.417189 1_555
Na3 O43 2.418439 1_565
Na3 O44 2.418796 1_455
Na3 O42 2.478648 1_465
Na3 O37 2.499867 1_455
Na3 O38 2.506637 1_565
Na4 O45 2.423662 1_445
Na4 O47 2.427180 1_555
Na4 O46 2.432462 1_455
Na4 O41 2.505611 1_444
Na4 O39 2.509565 1_554
Na4 O40 2.515850 1_544
Na5 O48 2.447781 1_555
Na5 O56 2.450585 1_555
Na5 O55 2.455516 1_555
Na5 O54 2.511546 1_555
Na5 O49 2.531965 1_555
Na5 O50 2.540432 1_555
Na6 O52 2.444506 1_555
Na6 O51 2.487017 1_555
Na6 O53 2.491403 1_555
Na6 O57 2.531935 1_555
Na6 O58 2.534680 1_555
Na6 O59 2.543332 1_555
Na7 O66 2.462797 1_555
Na7 O62 2.491647 1_555
Na7 O61 2.494601 1_555
Na7 O67 2.501189 1_555
Na7 O68 2.523377 1_555
Na7 O60 2.550063 1_555
Na8 O65 2.481750 1_555
Na8 O63 2.484168 1_555
Na8 O70 2.494154 1_555
Na8 O64 2.543706 1_555
Na8 O69 2.544126 1_555
Na8 O71 2.560367 1_555
Ge0 O3 1.860676 1_555
Ge0 O5 1.872026 1_455
Ge0 O4 1.884278 1_445
Ge0 O39 1.921432 1_555
Ge0 O40 1.921439 1_545
Ge0 O41 1.922027 1_445
Ge1 O7 1.902596 1_555
Ge1 O8 1.920685 1_545
Ge1 O43 1.931687 1_555
Ge1 O44 1.937319 1_445
Ge1 O6 1.941220 1_445
Ge1 O42 1.942965 1_455
Ge2 O9 1.903122 1_555
Ge2 O11 1.921904 1_655
Ge2 O45 1.940958 1_555
Ge2 O47 1.943500 1_665
Ge2 O46 1.944102 1_565
Ge2 O10 1.959894 1_665
Ge3 O19 1.890936 1_556
Ge3 O20 1.896648 1_556
Ge3 O18 1.900211 1_556
Ge3 O56 1.960148 1_555
Ge3 O55 1.965395 1_555
Ge3 O54 1.979348 1_555
Ge4 O21 1.876972 1_555
Ge4 O22 1.889009 1_555
Ge4 O58 1.915237 1_555
Ge4 O23 1.941514 1_555
Ge4 O57 1.963580 1_555
Ge4 O59 1.971131 1_555
Ge5 O62 1.881226 1_555
Ge5 O61 1.883218 1_555
Ge5 O60 1.895802 1_555
Ge5 O25 1.896408 1_554
Ge5 O24 1.903561 1_554
Ge5 O26 1.905560 1_554
Ge6 O27 1.845481 1_555
Ge6 O29 1.857358 1_555
Ge6 O28 1.870098 1_555
Ge6 O63 1.884933 1_555
Ge6 O65 1.887124 1_555
Ge6 O64 1.891892 1_555
Ge7 O31 1.885478 1_555
Ge7 O66 1.887387 1_555
Ge7 O30 1.928003 1_555
Ge7 O67 1.930604 1_555
Ge7 O68 1.943997 1_555
Ge7 O32 1.963830 1_555
Ge8 O33 1.870182 1_555
Ge8 O34 1.878307 1_555
Ge8 O70 1.915957 1_555
Ge8 O35 1.930793 1_555
Ge8 O69 1.970419 1_555
Ge8 O71 1.974465 1_555
O0 P0 1.521814 1_545
O0 Sc0 1.981156 1_445
O1 P1 1.509092 1_555
O1 Sc0 1.958225 1_555
O2 P2 1.524159 1_655
O2 Sc0 2.029716 1_545
O3 P3 1.537457 1_555
O4 P4 1.552219 1_655
O5 P5 1.539457 1_545
O6 P5 1.571775 1_555
O7 P3 1.556032 1_555
O8 P4 1.557939 1_555
O9 P1 1.558979 1_555
O10 P2 1.574894 1_555
O11 P0 1.562424 1_555
O12 P6 1.511507 1_555
O12 Sc1 2.007151 1_555
O13 P7 1.512427 1_555
O13 Sc1 1.996848 1_555
O14 P8 1.522539 1_555
O14 Sc1 2.069726 1_555
O15 P9 1.511257 1_555
O15 Sc2 1.992795 1_555
O16 P10 1.511701 1_555
O16 Sc2 2.002056 1_555
O17 P11 1.520921 1_555
O17 Sc2 2.060625 1_555
O18 P11 1.562841 1_555
O19 P9 1.563231 1_555
O20 P10 1.563155 1_555
O21 P7 1.563716 1_555
O22 P8 1.563900 1_555
O23 P6 1.574311 1_555
O24 P12 1.535858 1_555
O25 P13 1.537148 1_555
O26 P14 1.536434 1_555
O27 P15 1.530219 1_555
O28 P16 1.543682 1_555
O29 P17 1.532305 1_555
O30 P17 1.571633 1_555
O31 P15 1.555239 1_555
O32 P16 1.566678 1_555
O33 P13 1.559995 1_555
O34 P14 1.560567 1_555
O35 P12 1.571059 1_555
O36 P17 1.505605 1_555
O36 Sc0 2.038580 1_455
O37 P15 1.527387 1_555
O37 Sc0 2.097878 1_555
O38 P16 1.527382 1_555
O38 Sc0 2.107019 1_445
O39 P13 1.558158 1_555
O40 P14 1.558627 1_555
O41 P12 1.559060 1_555
O42 P6 1.559549 1_555
O43 P7 1.558889 1_555
O44 P8 1.559952 1_555
O45 P9 1.558566 1_555
O46 P10 1.560260 1_555
O47 P11 1.560695 1_555
O48 P5 1.510319 1_545
O48 Sc1 2.053125 1_555
O49 P3 1.532487 1_555
O49 Sc1 2.113343 1_555
O50 P4 1.532128 1_655
O50 Sc1 2.114509 1_555
O51 P1 1.528292 1_555
O51 Sc2 2.088222 1_555
O52 P2 1.507006 1_655
O52 Sc2 2.039053 1_555
O53 P0 1.526554 1_545
O53 Sc2 2.075758 1_555
O54 P12 1.553337 1_555
O55 P13 1.553409 1_655
O56 P14 1.554664 1_545
O57 P15 1.571261 1_545
O58 P16 1.550055 1_555
O59 P17 1.573486 1_655
O60 P11 1.553605 1_555
O61 P9 1.553953 1_455
O62 P10 1.554027 1_565
O63 P7 1.549819 1_565
O64 P8 1.550096 1_555
O65 P6 1.550335 1_455
O66 P0 1.555418 1_555
O67 P1 1.578421 1_555
O68 P2 1.580888 1_555
O69 P3 1.575605 1_555
O70 P4 1.553212 1_555
O71 P5 1.577185 1_555
