# generated using pymatgen
data_Na4YZn(PO4)3
_symmetry_space_group_name_H-M   'P 1'
_cell_length_a   9.29909062
_cell_length_b   9.29909028
_cell_length_c   22.62263344
_cell_angle_alpha   90.00000000
_cell_angle_beta   90.00000000
_cell_angle_gamma   120.00000120
_symmetry_Int_Tables_number   1
_chemical_formula_structural   Na4YZn(PO4)3
_chemical_formula_sum   'Na24 Y6 Zn6 P18 O72'
_cell_volume   1694.16119211
_cell_formula_units_Z   6
loop_
 _symmetry_equiv_pos_site_id
 _symmetry_equiv_pos_as_xyz
  1  'x, y, z'
loop_
 _atom_site_type_symbol
 _atom_site_label
 _atom_site_symmetry_multiplicity
 _atom_site_fract_x
 _atom_site_fract_y
 _atom_site_fract_z
 _atom_site_occupancy
  Na  Na0  1  0.63809893  0.01263760  0.24684587  1
  Na  Na1  1  0.37453866  0.36190107  0.24684587  1
  Na  Na2  1  0.98736240  0.62546134  0.24684587  1
  Na  Na3  1  0.63809893  0.62546134  0.74684587  1
  Na  Na4  1  0.98736240  0.36190107  0.74684587  1
  Na  Na5  1  0.37453866  0.01263760  0.74684587  1
  Na  Na6  1  0.30476593  0.34597060  0.58017887  1
  Na  Na7  1  0.04120566  0.69523407  0.58017887  1
  Na  Na8  1  0.65402940  0.95879434  0.58017887  1
  Na  Na9  1  0.30476593  0.95879434  0.08017887  1
  Na  Na10  1  0.65402940  0.69523407  0.08017887  1
  Na  Na11  1  0.04120566  0.34597060  0.08017887  1
  Na  Na12  1  0.97143193  0.67930460  0.91351287  1
  Na  Na13  1  0.70787166  0.02856807  0.91351287  1
  Na  Na14  1  0.32069540  0.29212834  0.91351287  1
  Na  Na15  1  0.97143193  0.29212834  0.41351287  1
  Na  Na16  1  0.32069540  0.02856807  0.41351287  1
  Na  Na17  1  0.70787166  0.67930460  0.41351287  1
  Na  Na18  1  0.00000000  -0.00000000  0.49316666  1
  Na  Na19  1  0.00000000  -0.00000000  0.99316666  1
  Na  Na20  1  0.66666700  0.33333300  0.82649966  1
  Na  Na21  1  0.66666700  0.33333300  0.32649966  1
  Na  Na22  1  0.33333300  0.66666700  0.15983366  1
  Na  Na23  1  0.33333300  0.66666700  0.65983366  1
  Y  Y0  1  0.00000000  -0.00000000  0.65153512  1
  Y  Y1  1  0.00000000  -0.00000000  0.15153512  1
  Y  Y2  1  0.66666700  0.33333300  0.98486812  1
  Y  Y3  1  0.66666700  0.33333300  0.48486812  1
  Y  Y4  1  0.33333300  0.66666700  0.31820212  1
  Y  Y5  1  0.33333300  0.66666700  0.81820212  1
  Zn  Zn0  1  0.00000000  -0.00000000  0.34382843  1
  Zn  Zn1  1  0.00000000  -0.00000000  0.84382843  1
  Zn  Zn2  1  0.66666700  0.33333300  0.67716143  1
  Zn  Zn3  1  0.66666700  0.33333300  0.17716143  1
  Zn  Zn4  1  0.33333300  0.66666700  0.01049543  1
  Zn  Zn5  1  0.33333300  0.66666700  0.51049543  1
  P  P0  1  0.30400968  0.00625872  0.25185745  1
  P  P1  1  0.70224905  0.69599032  0.25185745  1
  P  P2  1  0.99374128  0.29775095  0.25185745  1
  P  P3  1  0.30400968  0.29775095  0.75185745  1
  P  P4  1  0.99374128  0.69599032  0.75185745  1
  P  P5  1  0.70224905  0.00625872  0.75185745  1
  P  P6  1  0.97067668  0.33959172  0.58519045  1
  P  P7  1  0.36891605  0.02932332  0.58519045  1
  P  P8  1  0.66040828  0.63108395  0.58519045  1
  P  P9  1  0.97067668  0.63108395  0.08519045  1
  P  P10  1  0.66040828  0.02932332  0.08519045  1
  P  P11  1  0.36891605  0.33959172  0.08519045  1
  P  P12  1  0.63734268  0.67292572  0.91852445  1
  P  P13  1  0.03558205  0.36265732  0.91852445  1
  P  P14  1  0.32707428  0.96441795  0.91852445  1
  P  P15  1  0.63734268  0.96441795  0.41852445  1
  P  P16  1  0.32707428  0.36265732  0.41852445  1
  P  P17  1  0.03558205  0.67292572  0.41852445  1
  O  O0  1  0.21693099  0.02699552  0.30713830  1
  O  O1  1  0.81006452  0.78306901  0.30713830  1
  O  O2  1  0.97300448  0.18993548  0.30713830  1
  O  O3  1  0.21693099  0.18993548  0.80713830  1
  O  O4  1  0.97300448  0.78306901  0.80713830  1
  O  O5  1  0.81006452  0.02699552  0.80713830  1
  O  O6  1  0.78120848  0.97888867  0.69580162  1
  O  O7  1  0.19768019  0.21879152  0.69580162  1
  O  O8  1  0.02111133  0.80231981  0.69580162  1
  O  O9  1  0.78120848  0.80231981  0.19580162  1
  O  O10  1  0.02111133  0.21879152  0.19580162  1
  O  O11  1  0.19768019  0.97888867  0.19580162  1
  O  O12  1  0.88359799  0.36032852  0.64047130  1
  O  O13  1  0.47673152  0.11640201  0.64047130  1
  O  O14  1  0.63967148  0.52326848  0.64047130  1
  O  O15  1  0.88359799  0.52326848  0.14047130  1
  O  O16  1  0.63967148  0.11640201  0.14047130  1
  O  O17  1  0.47673152  0.36032852  0.14047130  1
  O  O18  1  0.44787548  0.31222167  0.02913462  1
  O  O19  1  0.86434719  0.55212452  0.02913462  1
  O  O20  1  0.68777833  0.13565281  0.02913462  1
  O  O21  1  0.44787548  0.13565281  0.52913462  1
  O  O22  1  0.68777833  0.55212452  0.52913462  1
  O  O23  1  0.86434719  0.31222167  0.52913462  1
  O  O24  1  0.55026399  0.69366252  0.97380530  1
  O  O25  1  0.14339752  0.44973601  0.97380530  1
  O  O26  1  0.30633748  0.85660248  0.97380530  1
  O  O27  1  0.55026399  0.85660248  0.47380530  1
  O  O28  1  0.30633748  0.44973601  0.47380530  1
  O  O29  1  0.14339752  0.69366252  0.47380530  1
  O  O30  1  0.11454148  0.64555567  0.36246862  1
  O  O31  1  0.53101319  0.88545852  0.36246862  1
  O  O32  1  0.35444433  0.46898681  0.36246862  1
  O  O33  1  0.11454148  0.46898681  0.86246862  1
  O  O34  1  0.35444433  0.88545852  0.86246862  1
  O  O35  1  0.53101319  0.64555567  0.86246862  1
  O  O36  1  0.01865377  0.83043680  0.41396980  1
  O  O37  1  0.81178303  0.98134623  0.41396980  1
  O  O38  1  0.16956320  0.18821697  0.41396980  1
  O  O39  1  0.01865377  0.18821697  0.91396980  1
  O  O40  1  0.16956320  0.98134623  0.91396980  1
  O  O41  1  0.81178303  0.83043680  0.91396980  1
  O  O42  1  0.98971463  0.18212544  0.58821022  1
  O  O43  1  0.19241081  0.01028537  0.58821022  1
  O  O44  1  0.81787456  0.80758919  0.58821022  1
  O  O45  1  0.98971463  0.80758919  0.08821022  1
  O  O46  1  0.81787456  0.01028537  0.08821022  1
  O  O47  1  0.19241081  0.18212544  0.08821022  1
  O  O48  1  0.68532077  0.16376980  0.74730280  1
  O  O49  1  0.47845003  0.31467923  0.74730280  1
  O  O50  1  0.83623020  0.52154997  0.74730280  1
  O  O51  1  0.68532077  0.52154997  0.24730280  1
  O  O52  1  0.83623020  0.31467923  0.24730280  1
  O  O53  1  0.47845003  0.16376980  0.24730280  1
  O  O54  1  0.65638163  0.51545844  0.92154322  1
  O  O55  1  0.85907781  0.34361837  0.92154322  1
  O  O56  1  0.48454156  0.14092219  0.92154322  1
  O  O57  1  0.65638163  0.14092219  0.42154322  1
  O  O58  1  0.48454156  0.34361837  0.42154322  1
  O  O59  1  0.85907781  0.51545844  0.42154322  1
  O  O60  1  0.35198677  0.49710380  0.08063680  1
  O  O61  1  0.14511603  0.64801323  0.08063680  1
  O  O62  1  0.50289620  0.85488397  0.08063680  1
  O  O63  1  0.35198677  0.85488397  0.58063680  1
  O  O64  1  0.50289620  0.64801323  0.58063680  1
  O  O65  1  0.14511603  0.49710380  0.58063680  1
  O  O66  1  0.32304763  0.84879244  0.25487722  1
  O  O67  1  0.52574381  0.67695237  0.25487722  1
  O  O68  1  0.15120756  0.47425619  0.25487722  1
  O  O69  1  0.32304763  0.47425619  0.75487722  1
  O  O70  1  0.15120756  0.67695237  0.75487722  1
  O  O71  1  0.52574381  0.84879244  0.75487722  1
loop_
_geom_bond_atom_site_label_1
_geom_bond_atom_site_label_2
_geom_bond_distance
_geom_bond_site_symmetry_2
Na0 O52 2.471573 1_555
Na0 O53 2.503132 1_555
Na0 O66 2.544362 1_545
Na0 O16 2.590034 1_555
Na0 O67 2.758149 1_545
Na0 O31 2.838034 1_545
Na1 O53 2.471580 1_555
Na1 O51 2.503140 1_555
Na1 O67 2.544362 1_555
Na1 O17 2.590037 1_555
Na1 O68 2.758158 1_555
Na1 O32 2.838036 1_555
Na2 O51 2.471572 1_555
Na2 O52 2.503140 1_555
Na2 O68 2.544355 1_655
Na2 O15 2.590036 1_555
Na2 O66 2.758151 1_655
Na2 O30 2.838032 1_655
Na3 O50 2.471580 1_555
Na3 O49 2.503140 1_555
Na3 O69 2.544363 1_555
Na3 O14 2.590037 1_555
Na3 O71 2.758158 1_555
Na3 O35 2.838036 1_555
Na4 O48 2.471573 1_555
Na4 O50 2.503132 1_555
Na4 O70 2.544362 1_655
Na4 O12 2.590034 1_555
Na4 O69 2.758149 1_655
Na4 O33 2.838034 1_655
Na5 O49 2.471571 1_555
Na5 O48 2.503140 1_555
Na5 O71 2.544355 1_545
Na5 O13 2.590036 1_555
Na5 O70 2.758151 1_545
Na5 O34 2.838032 1_545
Na6 O64 2.471579 1_555
Na6 O65 2.503148 1_555
Na6 O42 2.544362 1_455
Na6 O28 2.590018 1_555
Na6 O43 2.758149 1_555
Na6 O7 2.838034 1_555
Na7 O65 2.471565 1_555
Na7 O63 2.503132 1_555
Na7 O43 2.544362 1_565
Na7 O29 2.590011 1_555
Na7 O44 2.758158 1_455
Na7 O8 2.838036 1_555
Na8 O63 2.471582 1_555
Na8 O64 2.503132 1_555
Na8 O44 2.544355 1_555
Na8 O27 2.590015 1_555
Na8 O42 2.758151 1_565
Na8 O6 2.838032 1_555
Na9 O62 2.471565 1_555
Na9 O61 2.503132 1_555
Na9 O45 2.544363 1_455
Na9 O26 2.590011 1_554
Na9 O47 2.758158 1_565
Na9 O11 2.838036 1_555
Na10 O60 2.471579 1_555
Na10 O62 2.503148 1_555
Na10 O46 2.544362 1_565
Na10 O24 2.590018 1_554
Na10 O45 2.758149 1_555
Na10 O9 2.838034 1_555
Na11 O61 2.471582 1_555
Na11 O60 2.503132 1_555
Na11 O47 2.544355 1_555
Na11 O25 2.590015 1_554
Na11 O46 2.758151 1_455
Na11 O10 2.838032 1_555
Na12 O40 2.471573 1_655
Na12 O41 2.503132 1_555
Na12 O54 2.544353 1_555
Na12 O4 2.590034 1_555
Na12 O55 2.758158 1_555
Na12 O19 2.838014 1_556
Na13 O41 2.471580 1_545
Na13 O39 2.503140 1_655
Na13 O55 2.544353 1_555
Na13 O5 2.590037 1_555
Na13 O56 2.758141 1_555
Na13 O20 2.838009 1_556
Na14 O39 2.471572 1_555
Na14 O40 2.503140 1_545
Na14 O56 2.544369 1_555
Na14 O3 2.590036 1_555
Na14 O54 2.758155 1_555
Na14 O18 2.838016 1_556
Na15 O38 2.471580 1_655
Na15 O37 2.503140 1_545
Na15 O57 2.544353 1_555
Na15 O2 2.590037 1_555
Na15 O59 2.758141 1_555
Na15 O23 2.838009 1_555
Na16 O36 2.471573 1_545
Na16 O38 2.503132 1_555
Na16 O58 2.544353 1_555
Na16 O0 2.590034 1_555
Na16 O57 2.758158 1_555
Na16 O21 2.838014 1_555
Na17 O37 2.471571 1_555
Na17 O36 2.503140 1_655
Na17 O59 2.544369 1_555
Na17 O1 2.590036 1_555
Na17 O58 2.758155 1_555
Na17 O22 2.838016 1_555
Na18 O38 2.449455 1_555
Na18 O36 2.449455 1_545
Na18 O37 2.449455 1_445
Na18 O44 2.768122 1_445
Na18 O42 2.768122 1_455
Na18 O43 2.768122 1_555
Na19 O39 2.449455 1_555
Na19 O41 2.449455 1_445
Na19 O40 2.449455 1_545
Na19 O45 2.768122 1_446
Na19 O47 2.768122 1_556
Na19 O46 2.768122 1_456
Na20 O50 2.449455 1_555
Na20 O48 2.449455 1_555
Na20 O49 2.449455 1_555
Na20 O56 2.768122 1_555
Na20 O54 2.768122 1_555
Na20 O55 2.768122 1_555
Na21 O51 2.449455 1_555
Na21 O53 2.449455 1_555
Na21 O52 2.449455 1_555
Na21 O57 2.768122 1_555
Na21 O59 2.768122 1_555
Na21 O58 2.768122 1_555
Na22 O62 2.449455 1_555
Na22 O60 2.449455 1_555
Na22 O61 2.449455 1_555
Na22 O68 2.768122 1_555
Na22 O66 2.768122 1_555
Na22 O67 2.768122 1_555
Na23 O63 2.449455 1_555
Na23 O65 2.449455 1_555
Na23 O64 2.449455 1_555
Na23 O69 2.768122 1_555
Na23 O71 2.768122 1_555
Na23 O70 2.768122 1_555
O0 P0 1.553392 1_555
O0 Zn0 2.077235 1_555
O1 P1 1.553392 1_555
O1 Zn0 2.077235 1_665
O2 P2 1.553392 1_555
O2 Zn0 2.077235 1_655
O3 P3 1.553392 1_555
O3 Zn1 2.077235 1_555
O4 P4 1.553392 1_555
O4 Zn1 2.077235 1_665
O5 P5 1.553392 1_555
O5 Zn1 2.077235 1_655
O6 P5 1.548850 1_565
O6 Y0 2.186645 1_665
O7 P3 1.548850 1_555
O7 Y0 2.186645 1_555
O8 P4 1.548850 1_455
O8 Y0 2.186645 1_565
O9 P1 1.548850 1_555
O9 Y1 2.186645 1_665
O10 P2 1.548850 1_455
O10 Y1 2.186645 1_555
O11 P0 1.548850 1_565
O11 Y1 2.186645 1_565
O12 P6 1.553392 1_555
O12 Zn2 2.077235 1_555
O13 P7 1.553392 1_555
O13 Zn2 2.077235 1_555
O14 P8 1.553392 1_555
O14 Zn2 2.077235 1_555
O15 P9 1.553392 1_555
O15 Zn3 2.077235 1_555
O16 P10 1.553392 1_555
O16 Zn3 2.077235 1_555
O17 P11 1.553392 1_555
O17 Zn3 2.077235 1_555
O18 P11 1.548850 1_555
O18 Y2 2.186645 1_554
O19 P9 1.548850 1_555
O19 Y2 2.186645 1_554
O20 P10 1.548850 1_555
O20 Y2 2.186645 1_554
O21 P7 1.548850 1_555
O21 Y3 2.186645 1_555
O22 P8 1.548850 1_555
O22 Y3 2.186645 1_555
O23 P6 1.548850 1_555
O23 Y3 2.186645 1_555
O24 P12 1.553392 1_555
O24 Zn4 2.077235 1_556
O25 P13 1.553392 1_555
O25 Zn4 2.077235 1_556
O26 P14 1.553392 1_555
O26 Zn4 2.077235 1_556
O27 P15 1.553392 1_555
O27 Zn5 2.077235 1_555
O28 P16 1.553392 1_555
O28 Zn5 2.077235 1_555
O29 P17 1.553392 1_555
O29 Zn5 2.077235 1_555
O30 P17 1.548850 1_555
O30 Y4 2.186645 1_555
O31 P15 1.548850 1_555
O31 Y4 2.186645 1_555
O32 P16 1.548850 1_555
O32 Y4 2.186645 1_555
O33 P13 1.548850 1_555
O33 Y5 2.186645 1_555
O34 P14 1.548850 1_555
O34 Y5 2.186645 1_555
O35 P12 1.548850 1_555
O35 Y5 2.186645 1_555
O36 P17 1.552850 1_555
O36 Zn0 2.303851 1_565
O37 P15 1.552859 1_555
O37 Zn0 2.303851 1_665
O38 P16 1.552855 1_555
O38 Zn0 2.303851 1_555
O39 P13 1.552859 1_555
O39 Zn1 2.303851 1_555
O40 P14 1.552850 1_555
O40 Zn1 2.303851 1_565
O41 P12 1.552855 1_555
O41 Zn1 2.303851 1_665
O42 P6 1.561856 1_555
O42 Y0 2.256477 1_655
O43 P7 1.561866 1_555
O43 Y0 2.256477 1_555
O44 P8 1.561862 1_555
O44 Y0 2.256477 1_665
O45 P9 1.561866 1_555
O45 Y1 2.256477 1_665
O46 P10 1.561856 1_555
O46 Y1 2.256477 1_655
O47 P11 1.561862 1_555
O47 Y1 2.256477 1_555
O48 P5 1.552850 1_555
O48 Zn2 2.303851 1_555
O49 P3 1.552859 1_555
O49 Zn2 2.303851 1_555
O50 P4 1.552855 1_555
O50 Zn2 2.303851 1_555
O51 P1 1.552859 1_555
O51 Zn3 2.303851 1_555
O52 P2 1.552850 1_555
O52 Zn3 2.303851 1_555
O53 P0 1.552855 1_555
O53 Zn3 2.303851 1_555
O54 P12 1.561870 1_555
O54 Y2 2.256477 1_555
O55 P13 1.561852 1_655
O55 Y2 2.256477 1_555
O56 P14 1.561859 1_545
O56 Y2 2.256477 1_555
O57 P15 1.561852 1_545
O57 Y3 2.256477 1_555
O58 P16 1.561870 1_555
O58 Y3 2.256477 1_555
O59 P17 1.561859 1_655
O59 Y3 2.256477 1_555
O60 P11 1.552863 1_555
O60 Zn4 2.303851 1_555
O61 P9 1.552844 1_455
O61 Zn4 2.303851 1_555
O62 P10 1.552852 1_565
O62 Zn4 2.303851 1_555
O63 P7 1.552844 1_565
O63 Zn5 2.303851 1_555
O64 P8 1.552863 1_555
O64 Zn5 2.303851 1_555
O65 P6 1.552852 1_455
O65 Zn5 2.303851 1_555
O66 P0 1.561856 1_565
O66 Y4 2.256477 1_555
O67 P1 1.561866 1_555
O67 Y4 2.256477 1_555
O68 P2 1.561862 1_455
O68 Y4 2.256477 1_555
O69 P3 1.561866 1_555
O69 Y5 2.256477 1_555
O70 P4 1.561856 1_455
O70 Y5 2.256477 1_555
O71 P5 1.561862 1_565
O71 Y5 2.256477 1_555
