# generated using pymatgen
data_MgNb2(PO5)2
_symmetry_space_group_name_H-M   'P 1'
_cell_length_a   5.29998100
_cell_length_b   6.58948100
_cell_length_c   6.58948100
_cell_angle_alpha   90.00000000
_cell_angle_beta   90.00000000
_cell_angle_gamma   90.00000000
_symmetry_Int_Tables_number   1
_chemical_formula_structural   MgNb2(PO5)2
_chemical_formula_sum   'Mg1 Nb2 P2 O10'
_cell_volume   230.13185220
_cell_formula_units_Z   1
loop_
 _symmetry_equiv_pos_site_id
 _symmetry_equiv_pos_as_xyz
  1  'x, y, z'
loop_
 _atom_site_type_symbol
 _atom_site_label
 _atom_site_symmetry_multiplicity
 _atom_site_fract_x
 _atom_site_fract_y
 _atom_site_fract_z
 _atom_site_occupancy
  Mg  Mg0  1  0.00000000  0.25000000  0.75000000  1
  Nb  Nb0  1  0.23855400  0.75000000  0.75000000  1
  Nb  Nb1  1  0.76144600  0.25000000  0.25000000  1
  P  P0  1  0.50000000  0.75000000  0.25000000  1
  P  P1  1  0.50000000  0.25000000  0.75000000  1
  O  O0  1  0.66487600  0.55592900  0.25000000  1
  O  O1  1  0.66487600  0.94407100  0.25000000  1
  O  O2  1  0.09366000  0.25000000  0.25000000  1
  O  O3  1  0.90634000  0.75000000  0.75000000  1
  O  O4  1  0.69005800  0.25000000  0.92788900  1
  O  O5  1  0.69005800  0.25000000  0.57211100  1
  O  O6  1  0.33512400  0.75000000  0.44407100  1
  O  O7  1  0.30994200  0.07211100  0.75000000  1
  O  O8  1  0.30994200  0.42788900  0.75000000  1
  O  O9  1  0.33512400  0.75000000  0.05592900  1
loop_
_geom_bond_atom_site_label_1
_geom_bond_atom_site_label_2
_geom_bond_distance
_geom_bond_site_symmetry_2
Mg0 O8 2.018035 1_555
Mg0 O7 2.018035 1_555
Mg0 O4 2.018035 1_455
Mg0 O5 2.018035 1_455
Nb0 O3 1.760728 1_455
Nb0 O9 2.079871 1_556
Nb0 O6 2.079871 1_555
Nb0 O7 2.156003 1_565
Nb0 O8 2.156003 1_555
Nb1 O2 1.760728 1_655
Nb1 O1 2.079871 1_545
Nb1 O0 2.079871 1_555
Nb1 O5 2.156003 1_555
Nb1 O4 2.156003 1_554
O0 P0 1.548869 1_555
O1 P0 1.548869 1_555
O4 P1 1.545544 1_555
O5 P1 1.545544 1_555
O6 P0 1.548869 1_555
O7 P1 1.545544 1_555
O8 P1 1.545544 1_555
O9 P0 1.548869 1_555
