# generated using pymatgen
data_Na6Cd7S10
_symmetry_space_group_name_H-M   'P 1'
_cell_length_a   13.40317252
_cell_length_b   13.40317252
_cell_length_c   10.37468707
_cell_angle_alpha   72.10037165
_cell_angle_beta   72.10037165
_cell_angle_gamma   17.87148883
_symmetry_Int_Tables_number   1
_chemical_formula_structural   Na6Cd7S10
_chemical_formula_sum   'Na6 Cd7 S10'
_cell_volume   543.56959752
_cell_formula_units_Z   1
loop_
 _symmetry_equiv_pos_site_id
 _symmetry_equiv_pos_as_xyz
  1  'x, y, z'
loop_
 _atom_site_type_symbol
 _atom_site_label
 _atom_site_symmetry_multiplicity
 _atom_site_fract_x
 _atom_site_fract_y
 _atom_site_fract_z
 _atom_site_occupancy
  Na  Na0  1  0.70740436  0.70740436  0.37666499  1
  Na  Na1  1  0.30059270  0.30059270  0.58366452  1
  Na  Na2  1  0.11973250  0.11973250  0.24910724  1
  Na  Na3  1  0.89279021  0.89279021  0.75839554  1
  Na  Na4  1  0.98929597  0.98929597  0.18447618  1
  Na  Na5  1  0.00285519  0.00285519  0.81868038  1
  Cd  Cd0  1  0.56324794  0.56324794  0.51939393  1
  Cd  Cd1  1  0.44599393  0.44599393  0.47667813  1
  Cd  Cd2  1  0.84585897  0.84585897  0.29810147  1
  Cd  Cd3  1  0.15980344  0.15980344  0.71230284  1
  Cd  Cd4  1  0.75117914  0.75117914  0.90059483  1
  Cd  Cd5  1  0.60818216  0.60818216  0.03185595  1
  Cd  Cd6  1  0.35052562  0.35052562  0.04733533  1
  S  S0  1  0.53599543  0.53599543  0.29081096  1
  S  S1  1  0.47202091  0.47202091  0.69253504  1
  S  S2  1  0.88867612  0.88867612  0.48213275  1
  S  S3  1  0.12154651  0.12154651  0.51251280  1
  S  S4  1  0.68339183  0.68339183  0.12583045  1
  S  S5  1  0.31403381  0.31403381  0.85035587  1
  S  S6  1  0.28866796  0.28866796  0.30445273  1
  S  S7  1  0.71926051  0.71926051  0.68449450  1
  S  S8  1  0.90883321  0.90883321  0.05010635  1
  S  S9  1  0.08131159  0.08131159  0.93251922  1
loop_
_geom_bond_atom_site_label_1
_geom_bond_atom_site_label_2
_geom_bond_distance
_geom_bond_site_symmetry_2
Na0 S4 2.864636 1_555
Na0 S6 2.919438 1_565
Na0 S6 2.919438 1_655
Na0 S3 3.081537 1_565
Na0 S3 3.081537 1_655
Na0 S7 3.304814 1_555
Na1 S5 2.897394 1_555
Na1 S7 2.943672 1_455
Na1 S7 2.943672 1_545
Na1 S6 3.009980 1_555
Na1 S2 3.058693 1_545
Na1 S2 3.058693 1_455
Na2 S4 2.733153 1_455
Na2 S4 2.733153 1_545
Na2 S3 2.748075 1_555
Na2 S0 2.973455 1_455
Na2 S0 2.973455 1_545
Na3 S1 2.882890 1_655
Na3 S1 2.882890 1_565
Na3 S5 2.890641 1_655
Na3 S5 2.890641 1_565
Na3 S2 2.901883 1_555
Na3 S8 3.184286 1_556
Na4 S0 2.815924 1_565
Na4 S0 2.815924 1_655
Na4 S8 2.886467 1_555
Na4 S9 2.967631 1_664
Na5 S9 2.690380 1_555
Na5 S1 2.716354 1_455
Na5 S1 2.716354 1_545
Na5 S8 2.871231 1_446
Cd0 S1 2.522384 1_555
Cd0 S3 2.579542 1_565
Cd0 S3 2.579542 1_655
Cd0 S0 2.685081 1_555
Cd1 S1 2.539800 1_555
Cd1 S0 2.557127 1_555
Cd1 S2 2.566663 1_545
Cd1 S2 2.566663 1_455
Cd2 S2 2.505584 1_555
Cd2 S6 2.563214 1_565
Cd2 S6 2.563214 1_655
Cd2 S8 2.594380 1_555
Cd3 S9 2.566151 1_555
Cd3 S7 2.571723 1_455
Cd3 S7 2.571723 1_545
Cd3 S3 2.574746 1_555
Cd4 S4 2.464257 1_556
Cd4 S5 2.614657 1_655
Cd4 S5 2.614657 1_565
Cd4 S7 2.630597 1_555
Cd5 S4 2.474950 1_555
Cd5 S9 2.521691 1_654
Cd5 S9 2.521691 1_564
Cd5 S0 2.770592 1_555
Cd6 S5 2.517727 1_554
Cd6 S8 2.597442 1_545
Cd6 S8 2.597442 1_455
Cd6 S6 2.660806 1_555
