# generated using pymatgen
data_Gd(SiNi)2
_symmetry_space_group_name_H-M   'P 1'
_cell_length_a   5.53036157
_cell_length_b   5.53036157
_cell_length_c   5.53036157
_cell_angle_alpha   137.94199308
_cell_angle_beta   137.94199308
_cell_angle_gamma   60.99185045
_symmetry_Int_Tables_number   1
_chemical_formula_structural   Gd(SiNi)2
_chemical_formula_sum   'Gd1 Si2 Ni2'
_cell_volume   75.06924096
_cell_formula_units_Z   1
loop_
 _symmetry_equiv_pos_site_id
 _symmetry_equiv_pos_as_xyz
  1  'x, y, z'
loop_
 _atom_site_type_symbol
 _atom_site_label
 _atom_site_symmetry_multiplicity
 _atom_site_fract_x
 _atom_site_fract_y
 _atom_site_fract_z
 _atom_site_occupancy
  Gd  Gd0  1  0.00000000  -0.00000000  -0.00000000  1
  Si  Si0  1  0.62875996  0.62875996  0.00000000  1
  Si  Si1  1  0.37124004  0.37124004  -0.00000000  1
  Ni  Ni0  1  0.25000000  0.75000000  0.50000000  1
  Ni  Ni1  1  0.75000000  0.25000000  0.50000000  1
loop_
_geom_bond_atom_site_label_1
_geom_bond_atom_site_label_2
_geom_bond_distance
_geom_bond_site_symmetry_2
Gd0 Si0 3.063096 1_545
Gd0 Si0 3.063096 1_556
Gd0 Si1 3.063096 1_545
Gd0 Si1 3.063096 1_556
Gd0 Si0 3.063096 1_455
Gd0 Si1 3.063096 1_455
Gd0 Si1 3.063096 1_444
Gd0 Si0 3.063096 1_444
Gd0 Ni0 3.100868 1_544
Gd0 Ni0 3.100868 1_444
Gd0 Ni0 3.100868 1_555
Gd0 Ni0 3.100868 1_545
Gd0 Ni1 3.100868 1_555
Gd0 Ni1 3.100868 1_454
Gd0 Ni1 3.100868 1_455
Gd0 Ni1 3.100868 1_444
Si0 Si1 2.454330 1_555
Ni0 Si1 2.296406 1_566
Ni0 Si0 2.296406 1_455
Ni0 Si0 2.296406 1_556
Ni0 Si1 2.296406 1_555
Ni1 Si0 2.296406 1_556
Ni1 Si1 2.296406 1_555
Ni1 Si0 2.296406 1_545
Ni1 Si1 2.296406 1_656
