# generated using pymatgen
data_Na14Zn4In4Si5S7O48
_symmetry_space_group_name_H-M   'P 1'
_cell_length_a   18.42034914
_cell_length_b   9.15646238
_cell_length_c   22.60017363
_cell_angle_alpha   90.03448637
_cell_angle_beta   90.45227155
_cell_angle_gamma   119.84700985
_symmetry_Int_Tables_number   1
_chemical_formula_structural   Na14Zn4In4Si5S7O48
_chemical_formula_sum   'Na42 Zn12 In12 Si15 S21 O144'
_cell_volume   3306.09999075
_cell_formula_units_Z   3
loop_
 _symmetry_equiv_pos_site_id
 _symmetry_equiv_pos_as_xyz
  1  'x, y, z'
loop_
 _atom_site_type_symbol
 _atom_site_label
 _atom_site_symmetry_multiplicity
 _atom_site_fract_x
 _atom_site_fract_y
 _atom_site_fract_z
 _atom_site_occupancy
  Na  Na0  1  0.80888892  0.99519456  0.25066156  1
  Na  Na1  1  0.18514692  0.35807579  0.25148339  1
  Na  Na2  1  0.68357363  0.35932577  0.25184444  1
  Na  Na3  1  0.00234398  0.64548301  0.24533621  1
  Na  Na4  1  0.50768593  0.64550170  0.24227694  1
  Na  Na5  1  0.31775825  0.62245774  0.75262880  1
  Na  Na6  1  0.00749797  0.36872253  0.74277196  1
  Na  Na7  1  0.50157838  0.37193509  0.74522950  1
  Na  Na8  1  0.18675167  0.01391144  0.75087518  1
  Na  Na9  1  0.67452364  0.99630120  0.74942684  1
  Na  Na10  1  0.14644722  0.32632788  0.58396745  1
  Na  Na11  1  0.65042273  0.32409351  0.58259215  1
  Na  Na12  1  0.33059443  0.97653613  0.58957059  1
  Na  Na13  1  0.83248351  0.98511243  0.58510831  1
  Na  Na14  1  0.15346508  0.98098396  0.07663182  1
  Na  Na15  1  0.64447174  0.96368164  0.07892587  1
  Na  Na16  1  0.33417496  0.68148815  0.08088242  1
  Na  Na17  1  0.82853430  0.68282283  0.08415217  1
  Na  Na18  1  0.48376784  0.67640275  0.91726012  1
  Na  Na19  1  0.98902452  0.67737708  0.91590872  1
  Na  Na20  1  0.34596437  0.03590116  0.91219282  1
  Na  Na21  1  0.84431647  0.03156349  0.91259485  1
  Na  Na22  1  0.16904470  0.28314725  0.91465087  1
  Na  Na23  1  0.66348987  0.28075323  0.91481441  1
  Na  Na24  1  0.48932484  0.30157060  0.41942589  1
  Na  Na25  1  0.98441845  0.29646579  0.42881929  1
  Na  Na26  1  0.16808192  0.05197929  0.42096139  1
  Na  Na27  1  0.66868966  0.05527150  0.41913181  1
  Na  Na28  1  0.34677986  0.65683169  0.41726177  1
  Na  Na29  1  0.84350336  0.65338019  0.41695223  1
  Na  Na30  1  0.00921915  0.01365082  0.50522123  1
  Na  Na31  1  0.51102232  0.00555446  0.50156463  1
  Na  Na32  1  0.01155117  0.01801469  0.99666369  1
  Na  Na33  1  0.50925123  0.00411211  -0.00002337  1
  Na  Na34  1  0.32932400  0.33435764  0.82898075  1
  Na  Na35  1  0.82187720  0.32808206  0.83176116  1
  Na  Na36  1  0.32457711  0.31734823  0.33363972  1
  Na  Na37  1  0.82061034  0.32361625  0.33584325  1
  Na  Na38  1  0.16909519  0.66905334  0.16435356  1
  Na  Na39  1  0.65416154  0.65068626  0.16327502  1
  Na  Na40  1  0.15673920  0.65827001  0.66611693  1
  Na  Na41  1  0.66034396  0.66767816  0.67049721  1
  Zn  Zn0  1  0.01742556  0.02603388  0.34844462  1
  Zn  Zn1  1  0.51949825  0.03324526  0.34676289  1
  Zn  Zn2  1  0.01744948  0.00334265  0.84608671  1
  Zn  Zn3  1  0.52087804  0.98863189  0.84030243  1
  Zn  Zn4  1  0.32443361  0.33012583  0.68666311  1
  Zn  Zn5  1  0.81205571  0.30825840  0.17891861  1
  Zn  Zn6  1  0.32495275  0.33192323  0.98931960  1
  Zn  Zn7  1  0.81744872  0.30594744  0.98559971  1
  Zn  Zn8  1  0.31811190  0.33266904  0.48965503  1
  Zn  Zn9  1  0.82545746  0.31988689  0.49317987  1
  Zn  Zn10  1  0.66522986  0.66539347  0.31970947  1
  Zn  Zn11  1  0.16864630  0.66988487  0.81806401  1
  In  In0  1  0.00931334  0.01720192  0.64892170  1
  In  In1  1  0.51203729  0.00318265  0.65402891  1
  In  In2  1  0.00938501  0.00902061  0.15049475  1
  In  In3  1  0.50929968  0.00155072  0.14793542  1
  In  In4  1  0.82772721  0.32397568  0.67993696  1
  In  In5  1  0.32845841  0.33061292  0.17882105  1
  In  In6  1  0.16286076  0.65937082  0.01400927  1
  In  In7  1  0.65396034  0.65361379  0.01967268  1
  In  In8  1  0.15588035  0.65648349  0.52193181  1
  In  In9  1  0.66196455  0.66419571  0.51559174  1
  In  In10  1  0.17177809  0.67592763  0.31814370  1
  In  In11  1  0.66592616  0.66783700  0.81531521  1
  Si  Si0  1  0.15182616  0.99801876  0.25086864  1
  Si  Si1  1  0.65210202  0.99389124  0.25318368  1
  Si  Si2  1  0.15000169  0.30962288  0.75377108  1
  Si  Si3  1  0.65288279  0.30590697  0.75080963  1
  Si  Si4  1  0.49472254  0.69024259  0.75155429  1
  Si  Si5  1  0.97721591  0.33177145  0.58321027  1
  Si  Si6  1  0.18832608  0.03902706  0.58368680  1
  Si  Si7  1  0.68097259  0.02748298  0.58012230  1
  Si  Si8  1  0.47710531  0.62173362  0.08349799  1
  Si  Si9  1  0.18128969  0.33636883  0.08182491  1
  Si  Si10  1  0.68603200  0.33987044  0.08273690  1
  Si  Si11  1  0.16792653  0.96130678  0.91606615  1
  Si  Si12  1  0.66887805  0.96452390  0.91722453  1
  Si  Si13  1  0.16764425  0.37331291  0.41553225  1
  Si  Si14  1  0.66817310  0.37551197  0.41492403  1
  S  S0  1  0.35422552  0.71123831  0.25163945  1
  S  S1  1  0.85607836  0.71126323  0.25048312  1
  S  S2  1  0.99775188  0.29538963  0.25110643  1
  S  S3  1  0.49700297  0.29160495  0.25145141  1
  S  S4  1  0.99732358  0.70240741  0.75145529  1
  S  S5  1  0.35401526  0.99827396  0.75050071  1
  S  S6  1  0.85592049  0.99889850  0.75171631  1
  S  S7  1  0.47797664  0.33173287  0.58276902  1
  S  S8  1  0.33678013  0.63476936  0.58262022  1
  S  S9  1  0.83446270  0.63323576  0.58181542  1
  S  S10  1  0.97776078  0.62117834  0.08454757  1
  S  S11  1  0.33396676  0.03502882  0.08223021  1
  S  S12  1  0.83768489  0.04142714  0.08464312  1
  S  S13  1  0.31618482  0.67022146  0.91596363  1
  S  S14  1  0.81713019  0.67027521  0.91794511  1
  S  S15  1  0.01491879  0.36623223  0.91554684  1
  S  S16  1  0.51445529  0.36126703  0.91548003  1
  S  S17  1  0.31813434  0.96666175  0.41790401  1
  S  S18  1  0.81722192  0.96304134  0.41363692  1
  S  S19  1  0.01596616  0.66735353  0.41397363  1
  S  S20  1  0.51521365  0.66440814  0.41458111  1
  O  O0  1  0.11053461  0.03430918  0.30843675  1
  O  O1  1  0.61290163  0.03605673  0.31062970  1
  O  O2  1  0.40329233  0.79693623  0.30550643  1
  O  O3  1  0.90798999  0.79832781  0.30357759  1
  O  O4  1  0.48527942  0.19273772  0.30638687  1
  O  O5  1  0.98313316  0.19054670  0.30468129  1
  O  O6  1  0.10904290  0.19073447  0.81147044  1
  O  O7  1  0.61216158  0.19060626  0.80951863  1
  O  O8  1  0.47265900  0.76282904  0.81122685  1
  O  O9  1  0.98497902  0.77646780  0.80649969  1
  O  O10  1  0.40575642  0.01782703  0.80362274  1
  O  O11  1  0.90594560  0.01362277  0.80521034  1
  O  O12  1  0.39267795  0.97422526  0.69535365  1
  O  O13  1  0.89367724  0.97752383  0.69672379  1
  O  O14  1  0.08946498  0.23335099  0.69448777  1
  O  O15  1  0.59378270  0.23534731  0.69030155  1
  O  O16  1  0.00683848  0.80825161  0.69906865  1
  O  O17  1  0.51629106  0.81592039  0.69541353  1
  O  O18  1  0.39202735  0.80834652  0.19709479  1
  O  O19  1  0.89443430  0.81646731  0.19587659  1
  O  O20  1  0.01084607  0.21461974  0.19848939  1
  O  O21  1  0.50689363  0.20544718  0.19904520  1
  O  O22  1  0.09084922  0.95034970  0.19160526  1
  O  O23  1  0.59257738  0.95358123  0.19412605  1
  O  O24  1  0.43980345  0.35237233  0.63583268  1
  O  O25  1  0.93711807  0.35891289  0.64394975  1
  O  O26  1  0.24808670  0.12458592  0.64166898  1
  O  O27  1  0.73797918  0.10137448  0.64054433  1
  O  O28  1  0.32637488  0.53195822  0.63484238  1
  O  O29  1  0.81963175  0.52506648  0.63381686  1
  O  O30  1  0.43900574  0.51810741  0.14584830  1
  O  O31  1  0.93940614  0.52460198  0.13890998  1
  O  O32  1  0.31837404  0.11115966  0.13542472  1
  O  O33  1  0.82920767  0.12394833  0.13874008  1
  O  O34  1  0.23561386  0.37320097  0.14390691  1
  O  O35  1  0.74351163  0.38249481  0.14324626  1
  O  O36  1  0.22122528  0.29568435  0.02486998  1
  O  O37  1  0.72675186  0.30325414  0.02498463  1
  O  O38  1  0.42067320  0.53308057  0.02468741  1
  O  O39  1  0.92946225  0.53935504  0.03024083  1
  O  O40  1  0.34520422  0.13217904  0.02835001  1
  O  O41  1  0.85136347  0.14258727  0.03075108  1
  O  O42  1  0.22355870  0.14583309  0.52211304  1
  O  O43  1  0.72074480  0.14279076  0.52140109  1
  O  O44  1  0.35025050  0.56213125  0.52721976  1
  O  O45  1  0.84632088  0.55935055  0.52667382  1
  O  O46  1  0.43038599  0.31858989  0.52727981  1
  O  O47  1  0.92361780  0.31118148  0.52247931  1
  O  O48  1  0.27642504  0.69131017  0.97116132  1
  O  O49  1  0.77884536  0.69616051  0.97218943  1
  O  O50  1  0.07093841  0.43908270  0.96863880  1
  O  O51  1  0.57235323  0.43769044  0.96754287  1
  O  O52  1  0.14768511  0.84391733  0.97708728  1
  O  O53  1  0.65482542  0.84946479  0.97633560  1
  O  O54  1  0.27807086  0.86019056  0.47034169  1
  O  O55  1  0.77879161  0.86071639  0.46803897  1
  O  O56  1  0.15228478  0.46485646  0.47226378  1
  O  O57  1  0.64912391  0.45661728  0.47462462  1
  O  O58  1  0.07352470  0.70452558  0.46508103  1
  O  O59  1  0.57161912  0.70261909  0.46697347  1
  O  O60  1  0.05423518  0.63964455  0.35967796  1
  O  O61  1  0.55377123  0.63818268  0.36119722  1
  O  O62  1  0.26177007  0.89423723  0.36492322  1
  O  O63  1  0.76278674  0.88202347  0.36112724  1
  O  O64  1  0.18425979  0.48708285  0.35477867  1
  O  O65  1  0.68237085  0.49414972  0.35664583  1
  O  O66  1  0.05400167  0.47025298  0.86281505  1
  O  O67  1  0.55428917  0.46830516  0.86230340  1
  O  O68  1  0.18130774  0.86766963  0.85881452  1
  O  O69  1  0.68896687  0.88235809  0.85930023  1
  O  O70  1  0.26111570  0.64220380  0.86391410  1
  O  O71  1  0.76003616  0.63415334  0.86618052  1
  O  O72  1  0.00409536  0.81621724  0.40871768  1
  O  O73  1  0.50153433  0.81124002  0.40973945  1
  O  O74  1  0.39960115  0.97220620  0.40970802  1
  O  O75  1  0.90044359  0.97360413  0.40825244  1
  O  O76  1  0.08107136  0.18677103  0.41351265  1
  O  O77  1  0.58090755  0.18725113  0.41370444  1
  O  O78  1  0.00068770  0.19175693  0.91100269  1
  O  O79  1  0.50275758  0.19006858  0.90974680  1
  O  O80  1  0.08070344  0.97534324  0.91397888  1
  O  O81  1  0.58370177  0.98072299  0.91469970  1
  O  O82  1  0.39791108  0.82644808  0.91245243  1
  O  O83  1  0.89928534  0.82693755  0.91046816  1
  O  O84  1  0.48246014  0.17018398  0.58482686  1
  O  O85  1  0.97958650  0.15134410  0.58481895  1
  O  O86  1  0.09444134  0.02097122  0.58725404  1
  O  O87  1  0.59061828  0.02390076  0.58354640  1
  O  O88  1  0.40794203  0.81134508  0.58721262  1
  O  O89  1  0.90705073  0.80433276  0.58928624  1
  O  O90  1  0.48028479  0.80802864  0.08557490  1
  O  O91  1  0.98134977  0.79171321  0.08672872  1
  O  O92  1  0.40660204  0.00905581  0.09048060  1
  O  O93  1  0.90972638  0.00871277  0.09035792  1
  O  O94  1  0.08908851  0.16017865  0.08541870  1
  O  O95  1  0.59378374  0.16822580  0.08665013  1
  O  O96  1  0.34627742  0.15201938  0.74641181  1
  O  O97  1  0.85106441  0.15854068  0.74944693  1
  O  O98  1  0.24117175  0.32057265  0.74762437  1
  O  O99  1  0.74311409  0.30632601  0.74480120  1
  O  O100  1  0.41418826  0.50044028  0.74278908  1
  O  O101  1  0.92442778  0.52900835  0.74676066  1
  O  O102  1  0.34857358  0.54118991  0.24980710  1
  O  O103  1  0.85201790  0.54469852  0.24613664  1
  O  O104  1  0.42399564  0.31872397  0.24711032  1
  O  O105  1  0.92473763  0.32053228  0.24385075  1
  O  O106  1  0.24301446  0.17351504  0.24455933  1
  O  O107  1  0.74669878  0.16475198  0.24689194  1
  O  O108  1  0.32593868  0.51886675  0.91983943  1
  O  O109  1  0.83085555  0.52324321  0.92263592  1
  O  O110  1  0.43339029  0.35480870  0.92244400  1
  O  O111  1  0.93325881  0.36101479  0.92416495  1
  O  O112  1  0.25342217  0.14862476  0.92157233  1
  O  O113  1  0.75533215  0.15265737  0.91921006  1
  O  O114  1  0.33183302  0.14052920  0.42296571  1
  O  O115  1  0.82775380  0.13440114  0.41785471  1
  O  O116  1  0.25360891  0.35781003  0.41888740  1
  O  O117  1  0.75354947  0.35862069  0.42007523  1
  O  O118  1  0.43334238  0.50703963  0.42274700  1
  O  O119  1  0.93383605  0.51271855  0.42045155  1
  O  O120  1  0.17879599  0.51506541  0.07716214  1
  O  O121  1  0.68465847  0.51886705  0.07728869  1
  O  O122  1  0.06635118  0.65601885  0.08216622  1
  O  O123  1  0.57535086  0.66479467  0.08398551  1
  O  O124  1  0.25602244  0.86305734  0.07871293  1
  O  O125  1  0.75973238  0.87393307  0.08042344  1
  O  O126  1  0.18657578  0.85580810  0.57833825  1
  O  O127  1  0.67952441  0.84438408  0.57568403  1
  O  O128  1  0.25784294  0.64451233  0.57752184  1
  O  O129  1  0.75661399  0.64829681  0.57753057  1
  O  O130  1  0.07552142  0.48533172  0.58398715  1
  O  O131  1  0.56703337  0.47595522  0.57991803  1
  O  O132  1  0.15387828  0.81841891  0.25583670  1
  O  O133  1  0.66093116  0.82205932  0.25928411  1
  O  O134  1  0.26617717  0.68075610  0.25270698  1
  O  O135  1  0.77078233  0.68879210  0.25298923  1
  O  O136  1  0.07600968  0.46360163  0.25543490  1
  O  O137  1  0.57538668  0.46000693  0.25435962  1
  O  O138  1  0.15939394  0.49967500  0.75940283  1
  O  O139  1  0.66004736  0.49108327  0.75630008  1
  O  O140  1  0.07576852  0.69199546  0.75441270  1
  O  O141  1  0.58313414  0.68383503  0.75498321  1
  O  O142  1  0.26878307  0.84646284  0.75294162  1
  O  O143  1  0.76893395  0.85395387  0.75326124  1
loop_
_geom_bond_atom_site_label_1
_geom_bond_atom_site_label_2
_geom_bond_distance
_geom_bond_site_symmetry_2
Na0 O107 2.344974 1_565
Na0 O133 2.384799 1_555
Na0 O135 2.531247 1_555
Na0 O105 2.670171 1_565
Na0 O63 2.681113 1_555
Na0 O33 2.739960 1_565
Na1 O106 2.410787 1_555
Na1 O134 2.562801 1_555
Na1 O34 2.588874 1_555
Na1 O102 2.617796 1_555
Na1 O64 2.619534 1_555
Na1 O136 2.630459 1_555
Na1 O0 2.882922 1_555
Na2 O107 2.569549 1_555
Na2 O137 2.579710 1_555
Na2 O135 2.618688 1_555
Na2 O35 2.664214 1_555
Na2 O65 2.675626 1_555
Na2 O103 2.699896 1_555
Na2 O1 2.901361 1_555
Na3 O132 2.438180 1_555
Na3 O103 2.444769 1_455
Na3 O105 2.581292 1_455
Na3 O136 2.629045 1_555
Na3 O31 2.651397 1_455
Na3 O22 2.725869 1_555
Na3 O60 2.757961 1_555
Na4 O133 2.483824 1_555
Na4 O30 2.488989 1_555
Na4 O137 2.572562 1_555
Na4 O104 2.598659 1_555
Na4 O102 2.598668 1_555
Na4 O23 2.688285 1_555
Na4 O61 2.822987 1_555
Na5 O98 2.399868 1_555
Na5 O100 2.536560 1_555
Na5 O138 2.557314 1_555
Na5 O142 2.619692 1_555
Na5 O70 2.770476 1_555
Na5 O8 2.799142 1_555
Na5 O28 2.816559 1_555
Na6 O138 2.459905 1_555
Na6 O25 2.552448 1_455
Na6 O97 2.552878 1_455
Na6 O140 2.588654 1_555
Na6 O101 2.596340 1_455
Na6 O14 2.625665 1_555
Na6 O66 2.850613 1_555
Na7 O100 2.421344 1_555
Na7 O141 2.486989 1_555
Na7 O96 2.550800 1_555
Na7 O139 2.567483 1_555
Na7 O24 2.681754 1_555
Na7 O67 2.797490 1_555
Na7 O15 2.852300 1_555
Na8 O98 2.468689 1_555
Na8 O96 2.559351 1_555
Na8 O140 2.622780 1_545
Na8 O142 2.634635 1_545
Na8 O26 2.702265 1_555
Na8 O68 2.761915 1_545
Na9 O99 2.469427 1_565
Na9 O141 2.499027 1_555
Na9 O143 2.642856 1_555
Na9 O27 2.697434 1_565
Na9 O69 2.755783 1_555
Na9 O17 2.804135 1_555
Na9 O97 2.823722 1_565
Na9 O7 2.895749 1_565
Na10 O130 2.391629 1_555
Na10 O86 2.464968 1_555
Na10 O128 2.602793 1_555
Na10 O85 2.667176 1_455
Na10 O14 2.686987 1_555
Na10 O56 2.804652 1_555
Na11 O87 2.399133 1_555
Na11 O131 2.534036 1_555
Na11 O15 2.621645 1_555
Na11 O129 2.622163 1_555
Na11 O84 2.687665 1_555
Na11 O57 2.731041 1_555
Na11 O43 2.917588 1_555
Na11 O29 2.944978 1_555
Na12 O126 2.322539 1_555
Na12 O84 2.459425 1_565
Na12 O88 2.543000 1_555
Na12 O12 2.646653 1_555
Na12 O128 2.655294 1_555
Na12 O26 2.758799 1_565
Na12 O54 2.874240 1_555
Na13 O85 2.356736 1_565
Na13 O127 2.453731 1_555
Na13 O89 2.626187 1_555
Na13 O129 2.683135 1_555
Na13 O27 2.758758 1_565
Na13 O13 2.769814 1_555
Na13 O55 2.847717 1_555
Na13 O47 2.964679 1_565
Na14 O94 2.465334 1_565
Na14 O52 2.550989 1_554
Na14 O122 2.587540 1_555
Na14 O124 2.601176 1_555
Na14 O91 2.765854 1_455
Na14 O36 2.770706 1_565
Na14 O22 2.808375 1_555
Na14 O32 2.957049 1_565
Na15 O123 2.378712 1_555
Na15 O95 2.480485 1_565
Na15 O53 2.590063 1_554
Na15 O90 2.630149 1_555
Na15 O125 2.630546 1_555
Na15 O23 2.766287 1_555
Na15 O37 2.965460 1_565
Na16 O90 2.342800 1_555
Na16 O120 2.485110 1_555
Na16 O92 2.614336 1_565
Na16 O124 2.687031 1_555
Na16 O48 2.709713 1_554
Na16 O18 2.846576 1_555
Na16 O38 2.860632 1_555
Na16 O34 2.870148 1_555
Na17 O121 2.309669 1_555
Na17 O91 2.474866 1_555
Na17 O93 2.591276 1_565
Na17 O125 2.623239 1_555
Na17 O49 2.707498 1_554
Na17 O35 2.747584 1_555
Na17 O19 2.795695 1_555
Na18 O81 2.460225 1_555
Na18 O108 2.522869 1_555
Na18 O82 2.561399 1_555
Na18 O8 2.562506 1_555
Na18 O110 2.613066 1_555
Na18 O38 2.738205 1_556
Na19 O80 2.390121 1_655
Na19 O109 2.533366 1_555
Na19 O111 2.554026 1_555
Na19 O83 2.621687 1_555
Na19 O9 2.647629 1_555
Na19 O39 2.854142 1_556
Na19 O52 2.876834 1_655
Na19 O66 2.957800 1_655
Na20 O112 2.402685 1_555
Na20 O79 2.506353 1_555
Na20 O82 2.533845 1_545
Na20 O110 2.546848 1_555
Na20 O10 2.735820 1_555
Na20 O40 2.771095 1_556
Na20 O68 2.883914 1_545
Na21 O113 2.398165 1_555
Na21 O78 2.499168 1_655
Na21 O83 2.535184 1_545
Na21 O111 2.631614 1_555
Na21 O11 2.726584 1_555
Na21 O69 2.749210 1_545
Na21 O41 2.835662 1_556
Na22 O112 2.420621 1_555
Na22 O80 2.454810 1_545
Na22 O6 2.530091 1_555
Na22 O108 2.609611 1_555
Na22 O36 2.644621 1_556
Na22 O78 2.781589 1_555
Na23 O81 2.385007 1_545
Na23 O113 2.494040 1_555
Na23 O7 2.534474 1_555
Na23 O79 2.648785 1_555
Na23 O37 2.704519 1_556
Na23 O109 2.764615 1_555
Na23 O51 2.955337 1_555
Na23 O71 3.024712 1_555
Na24 O77 2.391512 1_555
Na24 O114 2.518466 1_555
Na24 O118 2.557492 1_555
Na24 O74 2.628136 1_545
Na24 O46 2.711861 1_555
Na24 O4 2.728576 1_555
Na24 O57 2.831359 1_555
Na24 O61 3.004734 1_555
Na25 O47 2.437281 1_555
Na25 O76 2.467295 1_655
Na25 O115 2.513391 1_555
Na25 O119 2.580472 1_555
Na25 O75 2.604532 1_545
Na25 O56 2.847357 1_655
Na25 O5 2.963956 1_555
Na26 O116 2.436398 1_555
Na26 O76 2.466875 1_555
Na26 O42 2.468892 1_555
Na26 O114 2.705787 1_555
Na26 O72 2.712321 1_545
Na26 O0 2.720907 1_555
Na26 O58 2.943660 1_545
Na26 O62 3.030148 1_545
Na27 O117 2.415920 1_555
Na27 O77 2.456037 1_555
Na27 O43 2.470158 1_555
Na27 O1 2.622945 1_555
Na27 O115 2.645572 1_555
Na27 O73 2.767563 1_545
Na28 O116 2.401500 1_555
Na28 O73 2.479960 1_555
Na28 O74 2.553675 1_555
Na28 O118 2.571569 1_555
Na28 O44 2.643260 1_555
Na28 O2 2.797256 1_555
Na28 O64 2.944680 1_555
Na28 O54 2.979130 1_555
Na29 O117 2.363383 1_555
Na29 O119 2.562247 1_555
Na29 O72 2.574345 1_655
Na29 O75 2.584354 1_555
Na29 O45 2.634016 1_555
Na29 O3 2.867179 1_555
Na29 O65 2.901609 1_555
Na29 O55 2.937637 1_555
Na30 O86 2.398990 1_555
Na30 O85 2.412762 1_455
Na30 O76 2.553283 1_555
Na30 O89 2.700983 1_445
Na30 O72 2.802845 1_545
Na30 O75 2.854876 1_445
Na31 O87 2.307027 1_555
Na31 O77 2.506080 1_555
Na31 O84 2.625209 1_555
Na31 O73 2.680158 1_545
Na31 O88 2.686193 1_545
Na31 O74 2.814870 1_545
Na32 O80 2.408185 1_545
Na32 O94 2.420536 1_556
Na32 O78 2.575514 1_555
Na32 O83 2.731915 1_445
Na32 O91 2.760780 1_446
Na32 O93 2.813014 1_456
Na33 O81 2.444294 1_544
Na33 O95 2.477704 1_555
Na33 O90 2.513487 1_545
Na33 O79 2.697210 1_554
Na33 O82 2.715980 1_544
Na33 O92 2.811961 1_555
Na34 O98 2.404562 1_555
Na34 O100 2.497237 1_555
Na34 O96 2.625195 1_555
Na34 O112 2.628624 1_555
Na34 O108 2.679064 1_555
Na34 O110 2.783840 1_555
Na35 O99 2.381997 1_555
Na35 O113 2.463917 1_555
Na35 O97 2.646291 1_555
Na35 O109 2.671096 1_555
Na35 O101 2.691795 1_555
Na35 O111 2.824413 1_555
Na36 O106 2.454461 1_555
Na36 O116 2.465564 1_555
Na36 O114 2.632432 1_555
Na36 O102 2.664955 1_555
Na36 O104 2.685480 1_555
Na36 O118 2.748581 1_555
Na37 O117 2.383916 1_555
Na37 O107 2.448047 1_555
Na37 O115 2.584824 1_555
Na37 O119 2.709776 1_555
Na37 O103 2.720412 1_555
Na37 O105 2.849383 1_555
Na38 O120 2.481133 1_555
Na38 O132 2.571204 1_555
Na38 O124 2.586012 1_555
Na38 O122 2.601081 1_555
Na38 O134 2.636151 1_555
Na38 O136 2.750624 1_555
Na39 O123 2.341190 1_555
Na39 O121 2.497635 1_555
Na39 O137 2.630814 1_555
Na39 O133 2.642506 1_555
Na39 O125 2.751665 1_555
Na39 O135 2.834041 1_555
Na40 O130 2.405313 1_555
Na40 O126 2.557576 1_555
Na40 O138 2.574638 1_555
Na40 O140 2.608961 1_555
Na40 O142 2.733390 1_555
Na40 O128 2.790237 1_555
Na41 O141 2.437703 1_555
Na41 O139 2.523917 1_555
Na41 O127 2.604119 1_555
Na41 O143 2.636305 1_555
Na41 O131 2.676464 1_555
Na41 O129 2.821749 1_555
In0 O14 2.054843 1_555
In0 O86 2.093604 1_555
In0 O85 2.136912 1_455
In0 O16 2.205364 1_545
In0 O13 2.258932 1_445
In0 O89 2.337973 1_445
In1 O17 1.988841 1_545
In1 O15 2.061718 1_555
In1 O87 2.105241 1_555
In1 O12 2.286707 1_545
In1 O88 2.375079 1_545
In1 O84 2.428953 1_555
In2 O22 2.045640 1_545
In2 O94 2.061095 1_555
In2 O20 2.160545 1_555
In2 O19 2.228111 1_445
In2 O93 2.274333 1_455
In2 O91 2.294493 1_445
In3 O23 2.069248 1_545
In3 O95 2.083722 1_555
In3 O90 2.110515 1_545
In3 O21 2.214125 1_555
In3 O18 2.294952 1_545
In3 O92 2.315200 1_555
In4 O25 2.051507 1_555
In4 O27 2.073797 1_555
In4 O99 2.095230 1_555
In4 O29 2.184524 1_555
In4 O97 2.363816 1_555
In4 O101 2.367215 1_555
In5 O30 2.048173 1_555
In5 O34 2.083859 1_555
In5 O106 2.130636 1_555
In5 O32 2.158094 1_555
In5 O104 2.374614 1_555
In5 O102 2.388421 1_555
In6 O52 2.024360 1_554
In6 O120 2.061763 1_555
In6 O50 2.134840 1_554
In6 O48 2.196057 1_554
In6 O124 2.309334 1_555
In6 O122 2.350103 1_555
In7 O53 2.037002 1_554
In7 O121 2.054832 1_555
In7 O123 2.097722 1_555
In7 O51 2.137192 1_554
In7 O49 2.396407 1_554
In7 O125 2.406858 1_555
In8 O56 2.055213 1_555
In8 O126 2.057782 1_555
In8 O130 2.083352 1_555
In8 O58 2.186279 1_555
In8 O128 2.299095 1_555
In8 O54 2.402045 1_555
In9 O57 2.018095 1_555
In9 O127 2.032326 1_555
In9 O59 2.157552 1_555
In9 O131 2.277114 1_555
In9 O55 2.282196 1_555
In9 O129 2.287962 1_555
In10 O64 2.030462 1_555
In10 O132 2.053525 1_555
In10 O62 2.129067 1_555
In10 O60 2.235167 1_555
In10 O134 2.275268 1_555
In10 O136 2.333176 1_555
In11 O69 2.046407 1_555
In11 O139 2.056852 1_555
In11 O141 2.096713 1_555
In11 O71 2.218769 1_555
In11 O67 2.234184 1_555
In11 O143 2.301647 1_555
O0 Si0 1.627373 1_545
O0 Zn0 1.913132 1_555
O1 Si1 1.627182 1_545
O1 Zn1 1.898906 1_555
O2 S0 1.479949 1_555
O2 Zn1 2.342871 1_565
O3 S1 1.487188 1_555
O3 Zn0 2.284866 1_665
O4 S3 1.489497 1_555
O4 Zn1 2.066756 1_555
O5 S2 1.486395 1_555
O5 Zn0 2.141359 1_655
O6 Si2 1.629250 1_555
O6 Zn2 1.882463 1_555
O7 Si3 1.633060 1_555
O7 Zn3 1.912144 1_545
O8 Si4 1.643809 1_555
O8 Zn3 1.912257 1_555
O9 S4 1.488649 1_555
O9 Zn2 2.055775 1_665
O10 S5 1.481089 1_545
O10 Zn3 2.406716 1_545
O11 S6 1.479012 1_545
O11 Zn2 2.289881 1_655
O12 S5 1.509574 1_555
O13 S6 1.488459 1_555
O14 Si2 1.651188 1_555
O15 Si3 1.657691 1_555
O16 S4 1.485698 1_455
O17 Si4 1.626828 1_555
O18 S0 1.481104 1_555
O19 S1 1.512587 1_555
O20 S2 1.483324 1_455
O21 S3 1.484480 1_555
O22 Si0 1.653353 1_555
O23 Si1 1.641158 1_555
O24 S7 1.453844 1_555
O24 Zn4 2.342091 1_555
O25 Si5 1.640119 1_555
O26 Si6 1.631038 1_555
O26 Zn4 1.973431 1_555
O27 Si7 1.641411 1_555
O28 S8 1.463283 1_555
O28 Zn4 2.173877 1_555
O29 S9 1.474433 1_555
O30 Si8 1.653144 1_555
O31 S10 1.477746 1_555
O31 Zn5 2.377994 1_555
O32 S11 1.489115 1_555
O33 S12 1.486411 1_555
O33 Zn5 2.075058 1_555
O34 Si9 1.650763 1_555
O35 Si10 1.645802 1_555
O35 Zn5 1.882830 1_555
O36 Si9 1.619854 1_555
O36 Zn6 1.949326 1_554
O37 Si10 1.625990 1_555
O37 Zn7 1.888524 1_554
O38 Si8 1.625750 1_555
O38 Zn6 1.970720 1_554
O39 S10 1.475599 1_555
O39 Zn7 2.327660 1_554
O40 S11 1.462515 1_555
O40 Zn6 2.222199 1_554
O41 S12 1.476078 1_555
O41 Zn7 2.142634 1_554
O42 Si6 1.642632 1_555
O42 Zn8 1.885249 1_555
O43 Si7 1.630888 1_555
O43 Zn9 1.914188 1_555
O44 S8 1.496583 1_555
O44 Zn8 2.058523 1_555
O45 S9 1.486208 1_555
O45 Zn9 2.164029 1_555
O46 S7 1.494359 1_555
O46 Zn8 2.292286 1_555
O47 Si5 1.639255 1_555
O47 Zn9 1.959298 1_555
O48 S13 1.511550 1_555
O49 S14 1.495358 1_555
O50 S15 1.497949 1_555
O51 S16 1.499301 1_555
O52 Si11 1.675482 1_555
O53 Si12 1.642354 1_555
O54 S17 1.482761 1_555
O55 S18 1.498522 1_555
O56 Si13 1.633104 1_555
O57 Si14 1.661548 1_555
O58 S19 1.481579 1_555
O59 S20 1.490713 1_555
O60 S19 1.502783 1_555
O61 S20 1.483462 1_555
O61 Zn10 2.162863 1_555
O62 S17 1.498508 1_555
O63 S18 1.484530 1_555
O63 Zn10 2.112633 1_555
O64 Si13 1.659854 1_555
O65 Si14 1.645470 1_555
O65 Zn10 1.935283 1_555
O66 S15 1.475845 1_555
O66 Zn11 2.239973 1_555
O67 S16 1.497605 1_555
O68 Si11 1.638319 1_555
O68 Zn11 1.938172 1_555
O69 Si12 1.643251 1_555
O70 S13 1.483349 1_555
O70 Zn11 2.107479 1_555
O71 S14 1.489283 1_555
O72 S19 1.488734 1_555
O72 Zn0 2.268399 1_565
O73 S20 1.489963 1_555
O73 Zn1 2.368293 1_565
O74 S17 1.489093 1_555
O74 Zn1 2.456759 1_565
O75 S18 1.493167 1_555
O75 Zn0 2.391216 1_665
O76 Si13 1.658358 1_555
O76 Zn0 1.988921 1_555
O77 Si14 1.672517 1_555
O77 Zn1 1.984841 1_555
O78 S15 1.487965 1_555
O78 Zn2 2.399668 1_555
O79 S16 1.477703 1_555
O80 Si11 1.674669 1_555
O80 Zn2 2.011770 1_565
O81 Si12 1.648389 1_555
O81 Zn3 2.055324 1_555
O82 S13 1.475598 1_555
O83 S14 1.489958 1_555
O83 Zn2 2.452988 1_665
O84 S7 1.522723 1_555
O85 Si5 1.674646 1_555
O86 Si6 1.655973 1_555
O87 Si7 1.650712 1_555
O88 S8 1.493725 1_555
O89 S9 1.477080 1_555
O90 Si8 1.678040 1_555
O91 S10 1.530416 1_555
O92 S11 1.481324 1_555
O93 S12 1.503472 1_555
O94 Si9 1.663975 1_555
O95 Si10 1.646096 1_555
O96 S5 1.486718 1_545
O96 Zn4 2.300460 1_555
O97 S6 1.509150 1_545
O98 Si2 1.638836 1_555
O98 Zn4 2.039129 1_555
O99 Si3 1.666799 1_555
O100 Si4 1.639821 1_555
O100 Zn4 2.042678 1_555
O101 S4 1.486814 1_555
O102 S0 1.508454 1_555
O103 S1 1.492469 1_555
O103 Zn5 2.434910 1_555
O104 S3 1.486663 1_555
O105 S2 1.481059 1_555
O105 Zn5 2.488760 1_555
O106 Si0 1.655707 1_545
O107 Si1 1.671773 1_545
O107 Zn5 1.998236 1_555
O108 S13 1.486050 1_555
O108 Zn6 2.317080 1_555
O109 S14 1.492051 1_555
O109 Zn7 2.358922 1_555
O110 S16 1.474407 1_555
O110 Zn6 2.439158 1_555
O111 S15 1.495313 1_655
O111 Zn7 2.389508 1_555
O112 Si11 1.656948 1_545
O112 Zn6 2.158968 1_555
O113 Si12 1.665457 1_545
O113 Zn7 1.975433 1_555
O114 S17 1.486850 1_545
O114 Zn8 2.424076 1_555
O115 S18 1.484985 1_545
O115 Zn9 2.419407 1_555
O116 Si13 1.659887 1_555
O116 Zn8 2.065281 1_555
O117 Si14 1.658307 1_555
O117 Zn9 2.245824 1_555
O118 S20 1.492118 1_555
O118 Zn8 2.453856 1_555
O119 S19 1.478707 1_655
O119 Zn9 2.520200 1_555
O120 Si9 1.662950 1_555
O121 Si10 1.656355 1_555
O122 S10 1.500293 1_455
O123 Si8 1.649271 1_555
O124 S11 1.514907 1_565
O125 S12 1.492881 1_565
O126 Si6 1.666126 1_565
O127 Si7 1.666371 1_565
O128 S8 1.503989 1_555
O129 S9 1.509774 1_555
O130 Si5 1.649705 1_455
O131 S7 1.511493 1_555
O132 Si0 1.667466 1_555
O133 Si1 1.666004 1_555
O133 Zn10 2.010651 1_555
O134 S0 1.503004 1_555
O135 S1 1.481146 1_555
O135 Zn10 2.394164 1_555
O136 S2 1.499157 1_455
O137 S3 1.499669 1_555
O137 Zn10 2.305862 1_555
O138 Si2 1.665579 1_555
O138 Zn11 1.986254 1_555
O139 Si3 1.638442 1_555
O140 S4 1.495707 1_455
O140 Zn11 2.311622 1_555
O141 Si4 1.659764 1_555
O142 S5 1.493111 1_555
O142 Zn11 2.293435 1_555
O143 S6 1.488044 1_555
