# generated using pymatgen
data_KMg6Zr
_symmetry_space_group_name_H-M   'P 1'
_cell_length_a   6.71195633
_cell_length_b   6.71195633
_cell_length_c   4.64937431
_cell_angle_alpha   90.00000000
_cell_angle_beta   90.00000000
_cell_angle_gamma   89.99617865
_symmetry_Int_Tables_number   1
_chemical_formula_structural   KMg6Zr
_chemical_formula_sum   'K1 Mg6 Zr1'
_cell_volume   209.45597534
_cell_formula_units_Z   1
loop_
 _symmetry_equiv_pos_site_id
 _symmetry_equiv_pos_as_xyz
  1  'x, y, z'
loop_
 _atom_site_type_symbol
 _atom_site_label
 _atom_site_symmetry_multiplicity
 _atom_site_fract_x
 _atom_site_fract_y
 _atom_site_fract_z
 _atom_site_occupancy
  K  K0  1  0.12526960  0.87473040  -0.00000000  1
  Mg  Mg0  1  0.62526724  0.87524856  0.00000000  1
  Mg  Mg1  1  0.12475144  0.37473276  0.00000000  1
  Mg  Mg2  1  0.84986435  0.60006088  0.50000000  1
  Mg  Mg3  1  0.39993912  0.15013565  0.50000000  1
  Mg  Mg4  1  0.85002302  0.14997698  0.50000000  1
  Mg  Mg5  1  0.39996736  0.60003264  0.50000000  1
  Zr  Zr0  1  0.62491887  0.37508113  -0.00000000  1
loop_
_geom_bond_atom_site_label_1
_geom_bond_atom_site_label_2
_geom_bond_distance
_geom_bond_site_symmetry_2
K0 Mg1 3.355964 1_555
K0 Mg0 3.355964 1_555
K0 Mg0 3.355996 1_455
K0 Mg1 3.355996 1_565
K0 Mg5 3.493224 1_554
K0 Mg5 3.493224 1_555
K0 Mg2 3.495763 1_455
K0 Mg2 3.495763 1_454
K0 Mg3 3.495763 1_565
K0 Mg3 3.495763 1_564
K0 Mg4 3.497114 1_465
K0 Mg4 3.497114 1_464
Mg0 Mg4 3.328735 1_564
Mg0 Mg4 3.328735 1_565
Mg0 Mg2 3.329850 1_555
Mg0 Mg2 3.329850 1_554
Mg0 Mg3 3.330956 1_565
Mg0 Mg3 3.330956 1_564
Mg0 Mg5 3.332204 1_555
Mg0 Mg5 3.332204 1_554
Mg0 Zr0 3.354855 1_565
Mg0 Zr0 3.357103 1_555
Mg1 Mg4 3.328735 1_455
Mg1 Mg4 3.328735 1_454
Mg1 Mg3 3.329850 1_555
Mg1 Mg3 3.329850 1_554
Mg1 Mg2 3.330956 1_455
Mg1 Mg2 3.330956 1_454
Mg1 Mg5 3.332204 1_555
Mg1 Mg5 3.332204 1_554
Mg1 Zr0 3.354855 1_455
Mg1 Zr0 3.357103 1_555
Mg2 Mg5 3.019689 1_555
Mg2 Mg4 3.020944 1_555
Mg2 Zr0 3.156629 1_555
Mg2 Zr0 3.156629 1_556
Mg3 Mg5 3.019689 1_555
Mg3 Mg4 3.020944 1_555
Mg3 Zr0 3.156629 1_555
Mg3 Zr0 3.156629 1_556
Mg4 Zr0 3.157442 1_555
Mg4 Zr0 3.157442 1_556
Mg5 Zr0 3.156461 1_555
Mg5 Zr0 3.156461 1_556
