# generated using pymatgen
data_MgCo3TeO8
_symmetry_space_group_name_H-M   'P 1'
_cell_length_a   5.99530110
_cell_length_b   5.99093711
_cell_length_c   6.07321990
_cell_angle_alpha   59.70301789
_cell_angle_beta   120.31872497
_cell_angle_gamma   121.30953397
_symmetry_Int_Tables_number   1
_chemical_formula_structural   MgCo3TeO8
_chemical_formula_sum   'Mg1 Co3 Te1 O8'
_cell_volume   151.96001712
_cell_formula_units_Z   1
loop_
 _symmetry_equiv_pos_site_id
 _symmetry_equiv_pos_as_xyz
  1  'x, y, z'
loop_
 _atom_site_type_symbol
 _atom_site_label
 _atom_site_symmetry_multiplicity
 _atom_site_fract_x
 _atom_site_fract_y
 _atom_site_fract_z
 _atom_site_occupancy
  Mg  Mg0  1  0.00000000  0.00000000  0.00000000  1
  Co  Co0  1  0.50000000  0.50000000  0.00000000  1
  Co  Co1  1  0.50000000  0.00000000  0.00000000  1
  Co  Co2  1  0.00000000  0.50000000  0.00000000  1
  Te  Te0  1  0.50000000  0.50000000  0.50000000  1
  O  O0  1  0.73806100  0.72509700  0.74531100  1
  O  O1  1  0.73594600  0.26420500  0.74622400  1
  O  O2  1  0.26247400  0.73705600  0.81503300  1
  O  O3  1  0.27539000  0.26160200  0.74534200  1
  O  O4  1  0.72461000  0.73839800  0.25465800  1
  O  O5  1  0.73752600  0.26294400  0.18496700  1
  O  O6  1  0.26405400  0.73579500  0.25377600  1
  O  O7  1  0.26193900  0.27490300  0.25468900  1
loop_
_geom_bond_atom_site_label_1
_geom_bond_atom_site_label_2
_geom_bond_distance
_geom_bond_site_symmetry_2
Mg0 O7 2.236261 1_555
Mg0 O0 2.236261 1_444
Mg0 O4 2.239924 1_445
Mg0 O3 2.239924 1_554
Mg0 O1 2.250879 1_454
Mg0 O6 2.250879 1_545
Co0 O2 2.045463 1_554
Co0 O5 2.045463 1_555
Co0 O0 2.090939 1_554
Co0 O7 2.090939 1_555
Co0 O4 2.090993 1_555
Co0 O3 2.090993 1_554
Co1 O5 1.900053 1_555
Co1 O2 1.900053 1_544
Co1 O1 2.072311 1_554
Co1 O6 2.072311 1_545
Co1 O3 2.075256 1_554
Co1 O4 2.075256 1_545
Co2 O5 1.899325 1_455
Co2 O2 1.899325 1_554
Co2 O6 2.070311 1_555
Co2 O1 2.070311 1_454
Co2 O7 2.078764 1_555
Co2 O0 2.078764 1_454
O0 Te0 1.988743 1_555
O1 Te0 2.010600 1_555
O3 Te0 1.988227 1_555
O4 Te0 1.988227 1_555
O6 Te0 2.010600 1_555
O7 Te0 1.988743 1_555
