# generated using pymatgen
data_Mg(WO3)4
_symmetry_space_group_name_H-M   'P 1'
_cell_length_a   5.38159800
_cell_length_b   5.38159800
_cell_length_c   7.81303500
_cell_angle_alpha   90.00000000
_cell_angle_beta   90.00000000
_cell_angle_gamma   90.00000000
_symmetry_Int_Tables_number   1
_chemical_formula_structural   Mg(WO3)4
_chemical_formula_sum   'Mg1 W4 O12'
_cell_volume   226.27797128
_cell_formula_units_Z   1
loop_
 _symmetry_equiv_pos_site_id
 _symmetry_equiv_pos_as_xyz
  1  'x, y, z'
loop_
 _atom_site_type_symbol
 _atom_site_label
 _atom_site_symmetry_multiplicity
 _atom_site_fract_x
 _atom_site_fract_y
 _atom_site_fract_z
 _atom_site_occupancy
  Mg  Mg0  1  0.25000000  0.75000000  0.50000000  1
  W  W0  1  0.25000000  0.25000000  0.75368600  1
  W  W1  1  0.75000000  0.75000000  0.75195400  1
  W  W2  1  0.75000000  0.75000000  0.24631400  1
  W  W3  1  0.25000000  0.25000000  0.24804600  1
  O  O0  1  0.42995600  0.56668900  0.72514400  1
  O  O1  1  0.93826900  0.44973700  0.75192800  1
  O  O2  1  0.56173100  0.05026300  0.75192800  1
  O  O3  1  0.07004400  0.93331100  0.72514400  1
  O  O4  1  0.25000000  0.25000000  0.00500300  1
  O  O5  1  0.75000000  0.75000000  0.50336400  1
  O  O6  1  0.75000000  0.75000000  0.99499700  1
  O  O7  1  0.25000000  0.25000000  0.49663600  1
  O  O8  1  0.94973700  0.06173100  0.24807200  1
  O  O9  1  0.43331100  0.92995600  0.27485600  1
  O  O10  1  0.06668900  0.57004400  0.27485600  1
  O  O11  1  0.55026300  0.43826900  0.24807200  1
loop_
_geom_bond_atom_site_label_1
_geom_bond_atom_site_label_2
_geom_bond_distance
_geom_bond_site_symmetry_2
Mg0 O9 2.237270 1_555
Mg0 O10 2.237270 1_555
Mg0 O3 2.237270 1_555
Mg0 O0 2.237270 1_555
Mg0 O7 2.690927 1_565
Mg0 O5 2.690927 1_455
Mg0 O5 2.690927 1_555
Mg0 O7 2.690927 1_555
O0 W0 1.972876 1_555
O0 W1 1.995884 1_555
O1 W1 1.907267 1_555
O1 W0 1.992482 1_655
O2 W1 1.907267 1_545
O2 W0 1.992482 1_555
O3 W0 1.972876 1_565
O3 W1 1.995884 1_455
O4 W3 1.898903 1_555
O4 W0 1.963549 1_554
O5 W1 1.942242 1_555
O5 W2 2.008341 1_555
O6 W1 1.898903 1_555
O6 W2 1.963549 1_556
O7 W3 1.942242 1_555
O7 W0 2.008341 1_555
O8 W3 1.907267 1_655
O8 W2 1.992482 1_545
O9 W2 1.972876 1_555
O9 W3 1.995884 1_565
O10 W2 1.972876 1_455
O10 W3 1.995884 1_555
O11 W3 1.907267 1_555
O11 W2 1.992482 1_555
