# generated using pymatgen
data_Na12Mg2Nb10Si15(SO24)3
_symmetry_space_group_name_H-M   'P 1'
_cell_length_a   9.00437344
_cell_length_b   9.00389122
_cell_length_c   22.65011638
_cell_angle_alpha   90.20135009
_cell_angle_beta   89.95092238
_cell_angle_gamma   119.84477333
_symmetry_Int_Tables_number   1
_chemical_formula_structural   Na12Mg2Nb10Si15(SO24)3
_chemical_formula_sum   'Na12 Mg2 Nb10 Si15 S3 O72'
_cell_volume   1592.79205868
_cell_formula_units_Z   1
loop_
 _symmetry_equiv_pos_site_id
 _symmetry_equiv_pos_as_xyz
  1  'x, y, z'
loop_
 _atom_site_type_symbol
 _atom_site_label
 _atom_site_symmetry_multiplicity
 _atom_site_fract_x
 _atom_site_fract_y
 _atom_site_fract_z
 _atom_site_occupancy
  Na  Na0  1  0.37607581  0.36690698  0.24111385  1
  Na  Na1  1  0.98908202  0.61930915  0.23894877  1
  Na  Na2  1  0.63195427  0.62395654  0.74153667  1
  Na  Na3  1  0.37941654  0.00998675  0.73841150  1
  Na  Na4  1  0.02179311  0.68176374  0.58520661  1
  Na  Na5  1  0.65835642  0.97795496  0.58462742  1
  Na  Na6  1  0.01157874  0.01174558  0.49709014  1
  Na  Na7  1  0.00215328  0.99867474  0.99974147  1
  Na  Na8  1  0.69279673  0.33365167  0.82976290  1
  Na  Na9  1  0.66580738  0.30929011  0.33089183  1
  Na  Na10  1  0.33466667  0.67026208  0.16241281  1
  Na  Na11  1  0.31883326  0.64392533  0.66421056  1
  Mg  Mg0  1  0.68350686  0.33698429  0.68555815  1
  Mg  Mg1  1  0.66803670  0.32565269  0.18574753  1
  Nb  Nb0  1  0.01023043  0.01481273  0.35818094  1
  Nb  Nb1  1  0.98653327  0.98889739  0.85891032  1
  Nb  Nb2  1  0.99095400  0.98938299  0.64247179  1
  Nb  Nb3  1  0.02130663  0.01023868  0.14221578  1
  Nb  Nb4  1  0.66537042  0.34545846  0.97753925  1
  Nb  Nb5  1  0.66611725  0.32971767  0.47884918  1
  Nb  Nb6  1  0.32052157  0.65738929  0.02043277  1
  Nb  Nb7  1  0.33451622  0.66622604  0.51939940  1
  Nb  Nb8  1  0.32519861  0.66654656  0.31446457  1
  Nb  Nb9  1  0.33067551  0.67526416  0.81500912  1
  Si  Si0  1  0.29559824  0.00121732  0.25069665  1
  Si  Si1  1  0.99375670  0.28782678  0.24990581  1
  Si  Si2  1  0.99805519  0.70502419  0.75032089  1
  Si  Si3  1  0.70902710  0.00386362  0.75104217  1
  Si  Si4  1  0.95753764  0.33601555  0.58441844  1
  Si  Si5  1  0.38012312  0.04936704  0.58648479  1
  Si  Si6  1  0.65467484  0.60881613  0.58736606  1
  Si  Si7  1  0.95278337  0.62052257  0.08797105  1
  Si  Si8  1  0.38845118  0.34391949  0.08734604  1
  Si  Si9  1  0.61415194  0.66466404  0.91684748  1
  Si  Si10  1  0.04066618  0.37604597  0.91606162  1
  Si  Si11  1  0.33651885  0.96150569  0.91870841  1
  Si  Si12  1  0.62298897  0.95714424  0.41655871  1
  Si  Si13  1  0.34262379  0.38289386  0.41500886  1
  Si  Si14  1  0.03822567  0.66526411  0.41779523  1
  S  S0  1  0.71188168  0.71875301  0.25036978  1
  S  S1  1  0.28146865  0.28769470  0.75078945  1
  S  S2  1  0.66705321  0.04257823  0.08349644  1
  O  O0  1  0.18101259  0.01103278  0.30607782  1
  O  O1  1  0.81381001  0.80388737  0.30383675  1
  O  O2  1  0.98309673  0.17108931  0.30785913  1
  O  O3  1  0.19681222  0.18732747  0.80402288  1
  O  O4  1  0.99469554  0.82298581  0.80622115  1
  O  O5  1  0.82972780  0.01488019  0.80759823  1
  O  O6  1  0.80559673  0.97583985  0.69239921  1
  O  O7  1  0.17900638  0.20430508  0.69672435  1
  O  O8  1  0.02994284  0.82932257  0.69122596  1
  O  O9  1  0.79321551  0.81938479  0.19653864  1
  O  O10  1  0.02158493  0.18605876  0.19315929  1
  O  O11  1  0.16807192  0.96921095  0.19179844  1
  O  O12  1  0.89069002  0.39203406  0.64033758  1
  O  O13  1  0.49337340  0.11667813  0.64510767  1
  O  O14  1  0.62824579  0.51389646  0.64851169  1
  O  O15  1  0.88310911  0.51867112  0.14798730  1
  O  O16  1  0.64309719  0.11953795  0.13707618  1
  O  O17  1  0.48487909  0.36363525  0.14785855  1
  O  O18  1  0.47902532  0.31175371  0.02867637  1
  O  O19  1  0.83345331  0.51895634  0.02916084  1
  O  O20  1  0.69170796  0.14572749  0.02960166  1
  O  O21  1  0.47394057  0.16669918  0.52789706  1
  O  O22  1  0.69830003  0.52414116  0.53030233  1
  O  O23  1  0.83144403  0.29363498  0.52612708  1
  O  O24  1  0.52121746  0.69238450  0.97317024  1
  O  O25  1  0.16080100  0.46793111  0.97419133  1
  O  O26  1  0.30460199  0.83275405  0.97314014  1
  O  O27  1  0.53490144  0.84462820  0.47598798  1
  O  O28  1  0.31500908  0.48110673  0.47090958  1
  O  O29  1  0.16080974  0.69617850  0.47497313  1
  O  O30  1  0.13335642  0.63809286  0.35831865  1
  O  O31  1  0.49783232  0.85404134  0.35941344  1
  O  O32  1  0.35892343  0.49175585  0.35481884  1
  O  O33  1  0.13982111  0.50193189  0.85892894  1
  O  O34  1  0.36341173  0.87005081  0.85768118  1
  O  O35  1  0.50425009  0.64057877  0.85616282  1
  O  O36  1  0.01989246  0.83468884  0.40866642  1
  O  O37  1  0.81097780  0.97324342  0.40860846  1
  O  O38  1  0.16828392  0.19217431  0.41167344  1
  O  O39  1  0.02843494  0.19028466  0.90842714  1
  O  O40  1  0.16802104  0.98176587  0.90910713  1
  O  O41  1  0.80830105  0.83257103  0.91164153  1
  O  O42  1  0.97047505  0.15944203  0.59169274  1
  O  O43  1  0.18418490  0.02302544  0.59050720  1
  O  O44  1  0.83496271  0.80795174  0.59016541  1
  O  O45  1  0.96625573  0.81332753  0.08989288  1
  O  O46  1  0.82262362  0.02176491  0.08829519  1
  O  O47  1  0.18925454  0.16747507  0.08881261  1
  O  O48  1  0.67522540  0.16098231  0.75011912  1
  O  O49  1  0.45280006  0.30438456  0.74764673  1
  O  O50  1  0.82363731  0.52772958  0.75105876  1
  O  O51  1  0.69354134  0.54610288  0.24819244  1
  O  O52  1  0.83618936  0.32106112  0.24886107  1
  O  O53  1  0.47466544  0.17320519  0.24840861  1
  O  O54  1  0.63891800  0.49695816  0.92308265  1
  O  O55  1  0.85296617  0.35659041  0.92397604  1
  O  O56  1  0.50846762  0.14611554  0.92561901  1
  O  O57  1  0.63926613  0.14444118  0.42131240  1
  O  O58  1  0.50857546  0.36104451  0.42290383  1
  O  O59  1  0.85436290  0.49319163  0.42384565  1
  O  O60  1  0.35621111  0.50654682  0.07591895  1
  O  O61  1  0.15072638  0.65700715  0.07545064  1
  O  O62  1  0.51353548  0.86771905  0.07737403  1
  O  O63  1  0.34670206  0.85158206  0.57537654  1
  O  O64  1  0.50475313  0.65881898  0.57612746  1
  O  O65  1  0.15061553  0.49938920  0.57226705  1
  O  O66  1  0.29855813  0.81939428  0.25453934  1
  O  O67  1  0.53543314  0.69759247  0.25347295  1
  O  O68  1  0.17938897  0.47436373  0.25387496  1
  O  O69  1  0.30156616  0.46336934  0.75322314  1
  O  O70  1  0.17922297  0.69894893  0.75433130  1
  O  O71  1  0.52309518  0.81787160  0.75446958  1
loop_
_geom_bond_atom_site_label_1
_geom_bond_atom_site_label_2
_geom_bond_distance
_geom_bond_site_symmetry_2
Na0 O53 2.323885 1_555
Na0 O17 2.333882 1_555
Na0 O68 2.420514 1_555
Na0 O51 2.491757 1_555
Na0 O67 2.597131 1_555
Na0 O32 2.841150 1_555
Na0 O10 2.973254 1_555
Na1 O15 2.259658 1_555
Na1 O52 2.341182 1_555
Na1 O51 2.411274 1_555
Na1 O66 2.477126 1_655
Na1 O68 2.642703 1_655
Na1 O11 2.937779 1_655
Na1 O30 2.968267 1_655
Na2 O50 2.294902 1_555
Na2 O14 2.318449 1_555
Na2 O71 2.407158 1_555
Na2 O49 2.506660 1_555
Na2 O69 2.594422 1_555
Na2 O35 2.872082 1_555
Na2 O6 2.968649 1_555
Na3 O48 2.325455 1_555
Na3 O13 2.339104 1_555
Na3 O49 2.399950 1_555
Na3 O70 2.490764 1_545
Na3 O71 2.651565 1_545
Na3 O8 2.930766 1_545
Na3 O34 2.957832 1_545
Na4 O65 2.453506 1_555
Na4 O44 2.456588 1_455
Na4 O63 2.548647 1_555
Na4 O12 2.591031 1_455
Na4 O43 2.668286 1_565
Na4 O8 2.723582 1_555
Na4 O29 2.766402 1_555
Na4 O22 2.815074 1_455
Na5 O42 2.454056 1_565
Na5 O63 2.456602 1_555
Na5 O64 2.499556 1_555
Na5 O44 2.704068 1_555
Na5 O27 2.718010 1_555
Na5 O13 2.734034 1_565
Na5 O6 2.783491 1_555
Na5 O23 2.806697 1_565
Na6 O38 2.471667 1_555
Na6 O36 2.579612 1_545
Na6 O43 2.598069 1_555
Na6 O37 2.603348 1_445
Na6 O42 2.639201 1_455
Na6 O44 2.730839 1_445
Na7 O45 2.558314 1_456
Na7 O41 2.579185 1_455
Na7 O47 2.579578 1_566
Na7 O40 2.585924 1_555
Na7 O39 2.632129 1_565
Na7 O46 2.646795 1_466
Na8 O48 2.330722 1_555
Na8 O50 2.364044 1_555
Na8 O55 2.526275 1_555
Na8 O56 2.747744 1_555
Na8 O54 2.748011 1_555
Na8 O49 2.763236 1_555
Na9 O52 2.377352 1_555
Na9 O53 2.417520 1_555
Na9 O57 2.474294 1_555
Na9 O58 2.685093 1_555
Na9 O59 2.690849 1_555
Na9 O51 2.759490 1_555
Na10 O60 2.512421 1_555
Na10 O61 2.538581 1_555
Na10 O62 2.575587 1_555
Na10 O66 2.583919 1_555
Na10 O68 2.631318 1_555
Na10 O67 2.672576 1_555
Na11 O65 2.519773 1_555
Na11 O69 2.550071 1_555
Na11 O64 2.563918 1_555
Na11 O70 2.569204 1_555
Na11 O71 2.670604 1_555
Na11 O63 2.676931 1_555
Mg0 O12 1.963420 1_555
Mg0 O14 2.070754 1_555
Mg0 O13 2.077273 1_555
Mg0 O48 2.133937 1_555
Mg0 O50 2.138041 1_555
Mg0 O49 2.402154 1_555
Mg1 O17 2.034510 1_555
Mg1 O15 2.039612 1_555
Mg1 O16 2.069084 1_555
Mg1 O52 2.098622 1_555
Mg1 O53 2.135620 1_555
Mg1 O51 2.349514 1_555
Nb0 O2 1.921632 1_455
Nb0 O38 1.941894 1_555
Nb0 O0 1.951251 1_555
Nb0 O37 1.998691 1_445
Nb0 O36 2.024622 1_545
Nb0 O1 2.212271 1_445
Nb1 O5 1.931980 1_565
Nb1 O41 1.934818 1_555
Nb1 O4 1.938511 1_555
Nb1 O39 1.998424 1_665
Nb1 O40 2.018787 1_655
Nb1 O3 2.228748 1_665
Nb2 O44 1.936652 1_555
Nb2 O6 1.968384 1_555
Nb2 O8 1.983705 1_655
Nb2 O43 1.994707 1_665
Nb2 O42 1.998792 1_565
Nb2 O7 2.201703 1_665
Nb3 O47 1.905873 1_555
Nb3 O11 1.906699 1_545
Nb3 O10 1.954674 1_555
Nb3 O45 1.976144 1_445
Nb3 O46 2.211870 1_455
Nb3 O9 2.276590 1_445
Nb4 O19 1.932633 1_556
Nb4 O18 1.934273 1_556
Nb4 O54 1.942826 1_555
Nb4 O56 2.016100 1_555
Nb4 O55 2.040612 1_555
Nb4 O20 2.262908 1_556
Nb5 O21 1.965499 1_555
Nb5 O23 1.988703 1_555
Nb5 O22 1.996998 1_555
Nb5 O58 2.025202 1_555
Nb5 O59 2.029238 1_555
Nb5 O57 2.030657 1_555
Nb6 O25 1.903557 1_554
Nb6 O61 1.970277 1_555
Nb6 O26 1.974472 1_554
Nb6 O24 1.985782 1_554
Nb6 O60 1.993607 1_555
Nb6 O62 2.231848 1_555
Nb7 O28 1.926496 1_555
Nb7 O27 1.981428 1_555
Nb7 O29 1.989021 1_555
Nb7 O65 1.991468 1_555
Nb7 O64 2.027522 1_555
Nb7 O63 2.051340 1_555
Nb8 O30 1.895951 1_555
Nb8 O31 1.918741 1_555
Nb8 O32 1.972500 1_555
Nb8 O66 2.033741 1_555
Nb8 O68 2.080048 1_555
Nb8 O67 2.245375 1_555
Nb9 O34 1.889718 1_555
Nb9 O33 1.927990 1_555
Nb9 O35 1.974720 1_555
Nb9 O70 2.022089 1_555
Nb9 O71 2.079658 1_555
Nb9 O69 2.269652 1_555
O0 Si0 1.653366 1_555
O1 S0 1.480438 1_555
O2 Si1 1.657142 1_555
O3 S1 1.473771 1_555
O4 Si2 1.659696 1_555
O5 Si3 1.651122 1_555
O6 Si3 1.672760 1_565
O7 S1 1.490153 1_555
O8 Si2 1.678278 1_455
O9 S0 1.479781 1_555
O10 Si1 1.665575 1_455
O11 Si0 1.688751 1_565
O12 Si4 1.586601 1_555
O13 Si5 1.597443 1_555
O14 Si6 1.584449 1_555
O15 Si7 1.586556 1_555
O16 S2 1.463522 1_555
O17 Si8 1.584587 1_555
O18 Si8 1.656943 1_555
O19 Si7 1.667662 1_555
O20 S2 1.484691 1_555
O21 Si5 1.646318 1_555
O22 Si6 1.642074 1_555
O23 Si4 1.657029 1_555
O24 Si9 1.610536 1_555
O25 Si10 1.640797 1_555
O26 Si11 1.619980 1_555
O27 Si12 1.635656 1_555
O28 Si13 1.630156 1_555
O29 Si14 1.633157 1_555
O30 Si14 1.677112 1_555
O31 Si12 1.661307 1_555
O32 Si13 1.645229 1_555
O33 Si10 1.660594 1_555
O34 Si11 1.684423 1_555
O35 Si9 1.643855 1_555
O36 Si14 1.627887 1_555
O37 Si12 1.635295 1_555
O38 Si13 1.653817 1_555
O39 Si10 1.629170 1_555
O40 Si11 1.630593 1_555
O41 Si9 1.651070 1_555
O42 Si4 1.659683 1_555
O43 Si5 1.661536 1_555
O44 Si6 1.719462 1_555
O45 Si7 1.679334 1_555
O46 S2 1.506950 1_555
O47 Si8 1.704785 1_555
O48 Si3 1.588447 1_555
O49 S1 1.475403 1_555
O50 Si2 1.587436 1_555
O51 S0 1.479935 1_555
O52 Si1 1.589262 1_555
O53 Si0 1.586123 1_555
O54 Si9 1.639054 1_555
O55 Si10 1.619986 1_655
O56 Si11 1.619176 1_545
O57 Si12 1.621656 1_545
O58 Si13 1.611484 1_555
O59 Si14 1.615001 1_655
O60 Si8 1.649623 1_555
O61 Si7 1.667977 1_455
O62 S2 1.497164 1_565
O63 Si5 1.669976 1_565
O64 Si6 1.642005 1_555
O65 Si4 1.648868 1_455
O66 Si0 1.653138 1_565
O67 S0 1.504715 1_555
O68 Si1 1.681640 1_455
O69 S1 1.500747 1_555
O70 Si2 1.661774 1_455
O71 Si3 1.680353 1_565
