# generated using pymatgen
data_Bi4Te3
_symmetry_space_group_name_H-M   'P 1'
_cell_length_a   14.73344025
_cell_length_b   14.73344025
_cell_length_c   14.73344076
_cell_angle_alpha   17.45441438
_cell_angle_beta   17.45441438
_cell_angle_gamma   17.45442033
_symmetry_Int_Tables_number   1
_chemical_formula_structural   Bi4Te3
_chemical_formula_sum   'Bi4 Te3'
_cell_volume   251.11765587
_cell_formula_units_Z   1
loop_
 _symmetry_equiv_pos_site_id
 _symmetry_equiv_pos_as_xyz
  1  'x, y, z'
loop_
 _atom_site_type_symbol
 _atom_site_label
 _atom_site_symmetry_multiplicity
 _atom_site_fract_x
 _atom_site_fract_y
 _atom_site_fract_z
 _atom_site_occupancy
  Bi  Bi0  1  0.28692060  0.28692060  0.28692060  1
  Bi  Bi1  1  0.71307940  0.71307940  0.71307940  1
  Bi  Bi2  1  0.14778738  0.14778738  0.14778738  1
  Bi  Bi3  1  0.85221262  0.85221262  0.85221262  1
  Te  Te0  1  -0.00000000  -0.00000000  -0.00000000  1
  Te  Te1  1  0.58136581  0.58136581  0.58136581  1
  Te  Te2  1  0.41863419  0.41863419  0.41863419  1
loop_
_geom_bond_atom_site_label_1
_geom_bond_atom_site_label_2
_geom_bond_distance
_geom_bond_site_symmetry_2
Bi0 Te1 3.086607 1_554
Bi0 Te1 3.086607 1_455
Bi0 Te1 3.086607 1_545
Bi0 Te0 3.277594 1_556
Bi0 Te0 3.277594 1_655
Bi0 Te0 3.277594 1_565
Bi1 Te2 3.086607 1_556
Bi1 Te2 3.086607 1_655
Bi1 Te2 3.086607 1_565
Bi1 Te0 3.277594 1_665
Bi1 Te0 3.277594 1_566
Bi1 Te0 3.277594 1_656
Bi2 Bi3 3.059933 1_445
Bi2 Bi3 3.059934 1_454
Bi2 Bi3 3.059934 1_544
