# generated using pymatgen
data_NaAl3Zn(SO4)6
_symmetry_space_group_name_H-M   'P 1'
_cell_length_a   8.36017780
_cell_length_b   8.36017756
_cell_length_c   21.82730585
_cell_angle_alpha   90.00000000
_cell_angle_beta   90.00000000
_cell_angle_gamma   120.00000094
_symmetry_Int_Tables_number   1
_chemical_formula_structural   NaAl3Zn(SO4)6
_chemical_formula_sum   'Na3 Al9 Zn3 S18 O72'
_cell_volume   1321.17934958
_cell_formula_units_Z   3
loop_
 _symmetry_equiv_pos_site_id
 _symmetry_equiv_pos_as_xyz
  1  'x, y, z'
loop_
 _atom_site_type_symbol
 _atom_site_label
 _atom_site_symmetry_multiplicity
 _atom_site_fract_x
 _atom_site_fract_y
 _atom_site_fract_z
 _atom_site_occupancy
  Na  Na0  1  0.00000000  -0.00000000  0.99839265  1
  Na  Na1  1  0.66666700  0.33333300  0.83476014  1
  Na  Na2  1  0.66666700  0.33333300  0.33316495  1
  Al  Al0  1  0.00000000  -0.00000000  0.64619772  1
  Al  Al1  1  0.00000000  -0.00000000  0.15098215  1
  Al  Al2  1  0.66666700  0.33333300  0.68291343  1
  Al  Al3  1  0.66666700  0.33333300  0.18239325  1
  Al  Al4  1  0.66666700  0.33333300  0.48147816  1
  Al  Al5  1  0.33333300  0.66666700  0.02238348  1
  Al  Al6  1  0.33333300  0.66666700  0.52219186  1
  Al  Al7  1  0.33333300  0.66666700  0.31244033  1
  Al  Al8  1  0.33333300  0.66666700  0.81052476  1
  Zn  Zn0  1  0.00000000  -0.00000000  0.35485960  1
  Zn  Zn1  1  0.00000000  -0.00000000  0.85093560  1
  Zn  Zn2  1  0.66666700  0.33333300  0.98196351  1
  S  S0  1  0.29635130  0.00094907  0.24932931  1
  S  S1  1  0.70459777  0.70364870  0.24932931  1
  S  S2  1  0.99905093  0.29540223  0.24932931  1
  S  S3  1  0.29560548  0.29454936  0.74805824  1
  S  S4  1  0.99894388  0.70439452  0.74805824  1
  S  S5  1  0.70545064  0.00105612  0.74805824  1
  S  S6  1  0.95568932  0.33225478  0.58303706  1
  S  S7  1  0.37656646  0.04431068  0.58303706  1
  S  S8  1  0.66774522  0.62343354  0.58303706  1
  S  S9  1  0.96248628  0.63065475  0.08450972  1
  S  S10  1  0.66816947  0.03751372  0.08450972  1
  S  S11  1  0.36934525  0.33183053  0.08450972  1
  S  S12  1  0.61366043  0.66678233  0.91661827  1
  S  S13  1  0.05312090  0.38633957  0.91661827  1
  S  S14  1  0.33321767  0.94687910  0.91661827  1
  S  S15  1  0.61385528  0.95348769  0.41853616  1
  S  S16  1  0.33963141  0.38614472  0.41853616  1
  S  S17  1  0.04651231  0.66036859  0.41853616  1
  O  O0  1  0.22813515  0.04597786  0.30462491  1
  O  O1  1  0.81784271  0.77186485  0.30462491  1
  O  O2  1  0.95402214  0.18215729  0.30462491  1
  O  O3  1  0.22919181  0.18301302  0.80388622  1
  O  O4  1  0.95382121  0.77080819  0.80388622  1
  O  O5  1  0.81698698  0.04617879  0.80388622  1
  O  O6  1  0.79380064  0.96807065  0.69423273  1
  O  O7  1  0.17427001  0.20619936  0.69423273  1
  O  O8  1  0.03192935  0.82572999  0.69423273  1
  O  O9  1  0.79207080  0.82416671  0.19528067  1
  O  O10  1  0.03209591  0.20792920  0.19528067  1
  O  O11  1  0.17583329  0.96790409  0.19528067  1
  O  O12  1  0.87294309  0.36954232  0.63735609  1
  O  O13  1  0.49660023  0.12705691  0.63735609  1
  O  O14  1  0.63045768  0.50339977  0.63735609  1
  O  O15  1  0.87379264  0.50891679  0.13817179  1
  O  O16  1  0.63512516  0.12620736  0.13817179  1
  O  O17  1  0.49108321  0.36487484  0.13817179  1
  O  O18  1  0.43680891  0.28687919  0.02889193  1
  O  O19  1  0.85007128  0.56319109  0.02889193  1
  O  O20  1  0.71312081  0.14992872  0.02889193  1
  O  O21  1  0.45938423  0.16407842  0.52846783  1
  O  O22  1  0.70469519  0.54061577  0.52846783  1
  O  O23  1  0.83592158  0.29530481  0.52846783  1
  O  O24  1  0.52602674  0.68620883  0.97312995  1
  O  O25  1  0.16018109  0.47397326  0.97312995  1
  O  O26  1  0.31379117  0.83981891  0.97312995  1
  O  O27  1  0.52557486  0.84097427  0.47346321  1
  O  O28  1  0.31539841  0.47442514  0.47346321  1
  O  O29  1  0.15902573  0.68460159  0.47346321  1
  O  O30  1  0.12668459  0.62626407  0.36225683  1
  O  O31  1  0.49957847  0.87331541  0.36225683  1
  O  O32  1  0.37373593  0.50042152  0.36225683  1
  O  O33  1  0.14083058  0.49367517  0.86016948  1
  O  O34  1  0.35284359  0.85916942  0.86016948  1
  O  O35  1  0.50632483  0.64715641  0.86016948  1
  O  O36  1  0.02703855  0.82259160  0.41302884  1
  O  O37  1  0.79555306  0.97296145  0.41302884  1
  O  O38  1  0.17740840  0.20444694  0.41302884  1
  O  O39  1  0.03869576  0.20373817  0.91425667  1
  O  O40  1  0.16504241  0.96130424  0.91425667  1
  O  O41  1  0.79626183  0.83495759  0.91425667  1
  O  O42  1  0.97357669  0.16780767  0.59312707  1
  O  O43  1  0.19423098  0.02642331  0.59312707  1
  O  O44  1  0.83219233  0.80576902  0.59312707  1
  O  O45  1  0.98648256  0.81719149  0.09581597  1
  O  O46  1  0.83070892  0.01351744  0.09581597  1
  O  O47  1  0.18280851  0.16929108  0.09581597  1
  O  O48  1  0.68099607  0.16390935  0.73717369  1
  O  O49  1  0.48291429  0.31900393  0.73717369  1
  O  O50  1  0.83609064  0.51708571  0.73717369  1
  O  O51  1  0.67977670  0.51648995  0.23793395  1
  O  O52  1  0.83671426  0.32022330  0.23793395  1
  O  O53  1  0.48351005  0.16328574  0.23793395  1
  O  O54  1  0.62795397  0.49840530  0.91902891  1
  O  O55  1  0.87045233  0.37204603  0.91902891  1
  O  O56  1  0.50159470  0.12954767  0.91902891  1
  O  O57  1  0.62765487  0.13876213  0.42547990  1
  O  O58  1  0.51110827  0.37234513  0.42547990  1
  O  O59  1  0.86123787  0.48889173  0.42547990  1
  O  O60  1  0.35314249  0.49819688  0.07690948  1
  O  O61  1  0.14505339  0.64685751  0.07690948  1
  O  O62  1  0.50180312  0.85494661  0.07690948  1
  O  O63  1  0.35781007  0.86139032  0.57399483  1
  O  O64  1  0.50357925  0.64218993  0.57399483  1
  O  O65  1  0.13860968  0.49642075  0.57399483  1
  O  O66  1  0.31185465  0.83392340  0.25755296  1
  O  O67  1  0.52206775  0.68814535  0.25755296  1
  O  O68  1  0.16607660  0.47793225  0.25755296  1
  O  O69  1  0.31267548  0.47769326  0.75603882  1
  O  O70  1  0.16501679  0.68732452  0.75603882  1
  O  O71  1  0.52230674  0.83498321  0.75603882  1
loop_
_geom_bond_atom_site_label_1
_geom_bond_atom_site_label_2
_geom_bond_distance
_geom_bond_site_symmetry_2
Na0 O39 2.414004 1_555
Na0 O41 2.414004 1_445
Na0 O40 2.414004 1_545
Na0 O45 2.588001 1_446
Na0 O47 2.588001 1_556
Na0 O46 2.588001 1_456
Na1 O56 2.416430 1_555
Na1 O54 2.416430 1_555
Na1 O55 2.416430 1_555
Na1 O50 2.593715 1_555
Na1 O49 2.593715 1_555
Na1 O48 2.593715 1_555
Na2 O58 2.506391 1_555
Na2 O59 2.506391 1_555
Na2 O57 2.506391 1_555
Na2 O51 2.551385 1_555
Na2 O53 2.551386 1_555
Na2 O52 2.551386 1_555
Al0 O44 1.915386 1_445
Al0 O42 1.915386 1_455
Al0 O43 1.915386 1_555
Al0 O7 1.918880 1_555
Al0 O8 1.918880 1_545
Al0 O6 1.918880 1_445
Al1 O10 1.887396 1_555
Al1 O9 1.887396 1_445
Al1 O11 1.887396 1_545
Al1 O45 1.904133 1_445
Al1 O47 1.904133 1_555
Al1 O46 1.904133 1_455
Al2 O13 1.879451 1_555
Al2 O14 1.879451 1_555
Al2 O12 1.879451 1_555
Al2 O50 1.895507 1_555
Al2 O49 1.895507 1_555
Al2 O48 1.895507 1_555
Al3 O17 1.882302 1_555
Al3 O15 1.882302 1_555
Al3 O16 1.882302 1_555
Al3 O51 1.912726 1_555
Al3 O53 1.912726 1_555
Al3 O52 1.912726 1_555
Al4 O22 1.898718 1_555
Al4 O21 1.898718 1_555
Al4 O23 1.898718 1_555
Al4 O58 1.927646 1_555
Al4 O59 1.927646 1_555
Al4 O57 1.927646 1_555
Al5 O25 1.874688 1_554
Al5 O26 1.874688 1_554
Al5 O24 1.874688 1_554
Al5 O62 1.913336 1_555
Al5 O60 1.913336 1_555
Al5 O61 1.913336 1_555
Al6 O28 1.869706 1_555
Al6 O27 1.869706 1_555
Al6 O29 1.869706 1_555
Al6 O63 1.907198 1_555
Al6 O65 1.907198 1_555
Al6 O64 1.907198 1_555
Al7 O68 1.916731 1_555
Al7 O66 1.916731 1_555
Al7 O67 1.916731 1_555
Al7 O31 1.922904 1_555
Al7 O32 1.922904 1_555
Al7 O30 1.922904 1_555
Al8 O34 1.878386 1_555
Al8 O33 1.878386 1_555
Al8 O35 1.878386 1_555
Al8 O70 1.915023 1_555
Al8 O71 1.915023 1_555
Al8 O69 1.915023 1_555
O0 S0 1.462320 1_555
O0 Zn0 2.062650 1_555
O1 S1 1.462320 1_555
O1 Zn0 2.062650 1_665
O2 S2 1.462320 1_555
O2 Zn0 2.062650 1_655
O3 S3 1.464568 1_555
O3 Zn1 2.033554 1_555
O4 S4 1.464568 1_555
O4 Zn1 2.033554 1_665
O5 S5 1.464568 1_555
O5 Zn1 2.033554 1_655
O6 S5 1.485127 1_565
O7 S3 1.485127 1_555
O8 S4 1.485127 1_455
O9 S1 1.484894 1_555
O10 S2 1.484894 1_455
O11 S0 1.484894 1_565
O12 S6 1.482265 1_555
O13 S7 1.482265 1_555
O14 S8 1.482265 1_555
O15 S9 1.484222 1_555
O16 S10 1.484222 1_555
O17 S11 1.484222 1_555
O18 S11 1.464599 1_555
O18 Zn2 2.036300 1_554
O19 S9 1.464599 1_555
O19 Zn2 2.036300 1_554
O20 S10 1.464599 1_555
O20 Zn2 2.036300 1_554
O21 S7 1.485732 1_555
O22 S8 1.485732 1_555
O23 S6 1.485732 1_555
O24 S12 1.484463 1_555
O25 S13 1.484463 1_555
O26 S14 1.484463 1_555
O27 S15 1.473992 1_555
O28 S16 1.473992 1_555
O29 S17 1.473992 1_555
O30 S17 1.493542 1_555
O31 S15 1.493542 1_555
O32 S16 1.493542 1_555
O33 S13 1.484267 1_555
O34 S14 1.484267 1_555
O35 S12 1.484267 1_555
O36 S17 1.449506 1_555
O36 Zn0 2.048957 1_565
O37 S15 1.449514 1_555
O37 Zn0 2.048957 1_665
O38 S16 1.449511 1_555
O38 Zn0 2.048957 1_555
O39 S13 1.470900 1_555
O39 Zn1 2.089283 1_555
O40 S14 1.470892 1_555
O40 Zn1 2.089283 1_565
O41 S12 1.470896 1_555
O41 Zn1 2.089283 1_665
O42 S6 1.471921 1_555
O43 S7 1.471930 1_555
O44 S8 1.471926 1_555
O45 S9 1.490059 1_555
O46 S10 1.490050 1_555
O47 S11 1.490055 1_555
O48 S5 1.493393 1_555
O49 S3 1.493401 1_555
O50 S4 1.493398 1_555
O51 S1 1.492805 1_555
O52 S2 1.492797 1_555
O53 S0 1.492802 1_555
O54 S12 1.471995 1_555
O54 Zn2 2.083967 1_555
O55 S13 1.471979 1_655
O55 Zn2 2.083967 1_555
O56 S14 1.471986 1_545
O56 Zn2 2.083967 1_555
O57 S15 1.502252 1_545
O58 S16 1.502269 1_555
O59 S17 1.502259 1_655
O60 S11 1.472665 1_555
O61 S9 1.472648 1_455
O62 S10 1.472655 1_565
O63 S7 1.470490 1_565
O64 S8 1.470507 1_555
O65 S6 1.470497 1_455
O66 S0 1.476427 1_565
O67 S1 1.476435 1_555
O68 S2 1.476432 1_455
O69 S3 1.475304 1_555
O70 S4 1.475296 1_455
O71 S5 1.475300 1_565
