# generated using pymatgen
data_Na5Y2Ga2P5SO24
_symmetry_space_group_name_H-M   'P 1'
_cell_length_a   9.01567337
_cell_length_b   8.98306841
_cell_length_c   22.87550318
_cell_angle_alpha   90.39473116
_cell_angle_beta   89.79991582
_cell_angle_gamma   119.89984544
_symmetry_Int_Tables_number   1
_chemical_formula_structural   Na5Y2Ga2P5SO24
_chemical_formula_sum   'Na15 Y6 Ga6 P15 S3 O72'
_cell_volume   1606.02119439
_cell_formula_units_Z   3
loop_
 _symmetry_equiv_pos_site_id
 _symmetry_equiv_pos_as_xyz
  1  'x, y, z'
loop_
 _atom_site_type_symbol
 _atom_site_label
 _atom_site_symmetry_multiplicity
 _atom_site_fract_x
 _atom_site_fract_y
 _atom_site_fract_z
 _atom_site_occupancy
  Na  Na0  1  0.63598080  0.00135791  0.25031439  1
  Na  Na1  1  0.99794914  0.35890355  0.74975967  1
  Na  Na2  1  0.36074268  0.99924408  0.75047276  1
  Na  Na3  1  0.03206459  0.69833488  0.57999491  1
  Na  Na4  1  0.66415043  0.96733593  0.58195449  1
  Na  Na5  1  0.30289392  0.97328488  0.08492475  1
  Na  Na6  1  0.02982616  0.33289819  0.08569648  1
  Na  Na7  1  0.97464931  0.66517218  0.91821538  1
  Na  Na8  1  0.70121624  0.66924677  0.41596066  1
  Na  Na9  1  0.01716327  0.01573439  0.49432298  1
  Na  Na10  1  0.99757563  0.00668492  0.00409882  1
  Na  Na11  1  0.65704452  0.32521364  0.83432905  1
  Na  Na12  1  0.67844721  0.33765058  0.33270119  1
  Na  Na13  1  0.33637717  0.65179355  0.16919975  1
  Na  Na14  1  0.34452283  0.65474423  0.66559176  1
  Y  Y0  1  0.00229050  0.01080256  0.85571289  1
  Y  Y1  1  0.00451111  0.00279487  0.64539016  1
  Y  Y2  1  0.66468098  0.34260375  0.68206942  1
  Y  Y3  1  0.66149572  0.32461635  0.98893243  1
  Y  Y4  1  0.32916287  0.66460635  0.50879205  1
  Y  Y5  1  0.34166751  0.66840532  0.81776082  1
  Ga  Ga0  1  0.98303024  0.98964156  0.34515287  1
  Ga  Ga1  1  0.98737566  0.99830586  0.15366745  1
  Ga  Ga2  1  0.67934354  0.35946710  0.18157571  1
  Ga  Ga3  1  0.67514711  0.32481317  0.48077065  1
  Ga  Ga4  1  0.33150132  0.66672084  0.02192170  1
  Ga  Ga5  1  0.31844969  0.65660442  0.31664459  1
  P  P0  1  0.70468249  0.70463875  0.25022033  1
  P  P1  1  0.00171951  0.29210204  0.25007795  1
  P  P2  1  0.29997323  0.29931950  0.75044018  1
  P  P3  1  0.00033806  0.69899433  0.75185898  1
  P  P4  1  0.69909840  0.00047377  0.74751417  1
  P  P5  1  0.95895770  0.33391685  0.57986656  1
  P  P6  1  0.37812740  0.04454665  0.57780839  1
  P  P7  1  0.66483427  0.62414727  0.57503297  1
  P  P8  1  0.96755426  0.63985613  0.08598657  1
  P  P9  1  0.66637752  0.03089327  0.08957562  1
  P  P10  1  0.36556850  0.33284542  0.08918807  1
  P  P11  1  0.04407759  0.37847995  0.92288138  1
  P  P12  1  0.33269679  0.95754903  0.92188356  1
  P  P13  1  0.63522433  0.96998788  0.41132010  1
  P  P14  1  0.03067586  0.67002399  0.41221690  1
  S  S0  1  0.28915140  0.99946766  0.25037051  1
  S  S1  1  0.62605358  0.66614797  0.92297294  1
  S  S2  1  0.32961850  0.36014441  0.41076610  1
  O  O0  1  0.20314938  0.02278673  0.30202697  1
  O  O1  1  0.81268529  0.77960093  0.30691281  1
  O  O2  1  0.96585566  0.16737926  0.30210322  1
  O  O3  1  0.21262751  0.19089896  0.80476639  1
  O  O4  1  0.98530809  0.78715849  0.80761813  1
  O  O5  1  0.81119711  0.02066167  0.80079147  1
  O  O6  1  0.77970188  0.98397519  0.69008930  1
  O  O7  1  0.19243300  0.21414165  0.69555184  1
  O  O8  1  0.01986014  0.80302502  0.69585297  1
  O  O9  1  0.79249017  0.82974228  0.19828787  1
  O  O10  1  0.03240580  0.21417703  0.19301050  1
  O  O11  1  0.18845286  0.97385634  0.19571634  1
  O  O12  1  0.88818016  0.35742029  0.63871637  1
  O  O13  1  0.47012918  0.11244743  0.63713329  1
  O  O14  1  0.64647933  0.53008031  0.63227451  1
  O  O15  1  0.87778561  0.50699575  0.13599425  1
  O  O16  1  0.62907999  0.11839501  0.14288952  1
  O  O17  1  0.48851616  0.36401714  0.14103403  1
  O  O18  1  0.43290481  0.28901311  0.03363639  1
  O  O19  1  0.86802427  0.57364514  0.02840636  1
  O  O20  1  0.71061642  0.14587208  0.03519358  1
  O  O21  1  0.47805732  0.16044172  0.52613633  1
  O  O22  1  0.68443896  0.52997678  0.52065380  1
  O  O23  1  0.84037989  0.31252735  0.52799641  1
  O  O24  1  0.53406788  0.68125408  0.97391166  1
  O  O25  1  0.15633707  0.47581804  0.97699864  1
  O  O26  1  0.31874079  0.84385878  0.97552775  1
  O  O27  1  0.56756942  0.85977402  0.46745310  1
  O  O28  1  0.29778106  0.42846352  0.46574733  1
  O  O29  1  0.12699966  0.70180147  0.47074744  1
  O  O30  1  0.12803309  0.63810738  0.36189291  1
  O  O31  1  0.51499146  0.87502927  0.35811643  1
  O  O32  1  0.36415251  0.48460915  0.36186852  1
  O  O33  1  0.12126895  0.47201395  0.86460636  1
  O  O34  1  0.34818743  0.88114206  0.86320167  1
  O  O35  1  0.53732362  0.64868109  0.86736842  1
  O  O36  1  0.00915524  0.83126948  0.40232374  1
  O  O37  1  0.81510463  0.98353345  0.40306303  1
  O  O38  1  0.17822664  0.18868538  0.40142577  1
  O  O39  1  0.02090159  0.19737602  0.92360140  1
  O  O40  1  0.16071469  0.95894407  0.92236531  1
  O  O41  1  0.79946975  0.82133243  0.92158096  1
  O  O42  1  0.96755149  0.16685372  0.57976367  1
  O  O43  1  0.19470380  0.01656325  0.57825512  1
  O  O44  1  0.83286718  0.80240277  0.57728032  1
  O  O45  1  0.99665606  0.82308424  0.09824320  1
  O  O46  1  0.83018291  0.01543142  0.09729937  1
  O  O47  1  0.18296990  0.16975217  0.09789257  1
  O  O48  1  0.68310548  0.16458604  0.74827176  1
  O  O49  1  0.47506080  0.30994361  0.74936865  1
  O  O50  1  0.84654420  0.51539074  0.75077052  1
  O  O51  1  0.68771300  0.52438248  0.24053912  1
  O  O52  1  0.83312895  0.30351789  0.24283572  1
  O  O53  1  0.46527456  0.15212406  0.24578651  1
  O  O54  1  0.65023097  0.51446070  0.92520665  1
  O  O55  1  0.86929658  0.37264756  0.92516388  1
  O  O56  1  0.48832772  0.13884455  0.92396274  1
  O  O57  1  0.65117434  0.14972352  0.41996779  1
  O  O58  1  0.49108902  0.35323819  0.41674651  1
  O  O59  1  0.84579705  0.50845214  0.41819389  1
  O  O60  1  0.34078387  0.49251417  0.08065144  1
  O  O61  1  0.14927398  0.65368327  0.08054441  1
  O  O62  1  0.49926745  0.85422271  0.07941477  1
  O  O63  1  0.36066395  0.86289750  0.57393313  1
  O  O64  1  0.51278032  0.65721601  0.57310296  1
  O  O65  1  0.13524365  0.49754052  0.57485673  1
  O  O66  1  0.31164038  0.84336539  0.25611807  1
  O  O67  1  0.52565100  0.69458119  0.25772244  1
  O  O68  1  0.16354025  0.47341508  0.25961143  1
  O  O69  1  0.31250066  0.47588627  0.75222338  1
  O  O70  1  0.16516794  0.68430901  0.75240379  1
  O  O71  1  0.51667248  0.84518981  0.75003325  1
loop_
_geom_bond_atom_site_label_1
_geom_bond_atom_site_label_2
_geom_bond_distance
_geom_bond_site_symmetry_2
Na0 O52 2.398008 1_555
Na0 O67 2.425888 1_545
Na0 O53 2.508924 1_555
Na0 O66 2.538679 1_545
Na0 O16 2.692563 1_555
Na0 O31 2.710093 1_545
Na0 O9 2.813501 1_545
Na0 O2 2.837415 1_555
Na1 O50 2.398389 1_555
Na1 O48 2.483028 1_555
Na1 O69 2.485754 1_655
Na1 O70 2.534933 1_655
Na1 O12 2.726900 1_555
Na1 O33 2.833363 1_655
Na1 O5 2.892161 1_555
Na1 O7 2.922153 1_655
Na2 O71 2.414710 1_555
Na2 O49 2.446564 1_565
Na2 O70 2.478430 1_555
Na2 O48 2.520251 1_565
Na2 O34 2.775634 1_555
Na2 O13 2.783416 1_565
Na2 O3 2.922467 1_565
Na2 O8 2.951087 1_555
Na3 O44 2.403838 1_455
Na3 O65 2.408689 1_555
Na3 O43 2.479071 1_565
Na3 O63 2.571957 1_555
Na3 O29 2.634114 1_555
Na3 O8 2.826211 1_555
Na4 O42 2.410310 1_565
Na4 O63 2.417067 1_555
Na4 O64 2.422416 1_555
Na4 O44 2.600738 1_555
Na4 O6 2.661612 1_555
Na4 O27 2.773929 1_555
Na4 O13 2.930445 1_565
Na4 O23 2.964888 1_565
Na5 O45 2.412875 1_455
Na5 O62 2.485695 1_555
Na5 O61 2.490710 1_555
Na5 O47 2.502944 1_565
Na5 O11 2.733981 1_555
Na5 O18 2.741602 1_565
Na5 O26 2.785271 1_554
Na5 O16 2.878758 1_565
Na6 O60 2.433357 1_555
Na6 O47 2.481465 1_555
Na6 O46 2.516476 1_455
Na6 O61 2.527327 1_555
Na6 O10 2.688023 1_555
Na6 O20 2.759642 1_455
Na6 O25 2.774213 1_554
Na6 O15 2.783905 1_455
Na7 O55 2.312778 1_555
Na7 O40 2.317627 1_655
Na7 O54 2.542663 1_555
Na7 O41 2.583531 1_555
Na7 O19 2.679094 1_556
Na7 O4 2.746323 1_555
Na8 O59 2.380475 1_555
Na8 O36 2.427979 1_655
Na8 O37 2.496276 1_555
Na8 O58 2.507300 1_555
Na8 O22 2.678383 1_555
Na8 O1 2.690477 1_555
Na8 O27 2.790503 1_555
Na8 O32 2.913715 1_555
Na9 O43 2.501574 1_555
Na9 O42 2.534890 1_455
Na9 O38 2.610177 1_555
Na9 O44 2.624510 1_445
Na9 O36 2.648366 1_545
Na9 O37 2.693191 1_445
Na10 O39 2.459877 1_654
Na10 O40 2.538023 1_644
Na10 O41 2.557522 1_544
Na10 O46 2.631089 1_555
Na10 O47 2.661536 1_655
Na10 O45 2.719086 1_545
Na11 O49 2.506430 1_555
Na11 O48 2.511629 1_555
Na11 O50 2.569697 1_555
Na11 O56 2.609106 1_555
Na11 O54 2.696307 1_555
Na11 O55 2.713614 1_555
Na12 O59 2.475194 1_555
Na12 O57 2.554331 1_555
Na12 O52 2.581159 1_555
Na12 O58 2.603574 1_555
Na12 O51 2.678295 1_555
Na12 O53 2.685506 1_555
Na13 O60 2.483545 1_555
Na13 O67 2.553386 1_555
Na13 O68 2.609037 1_555
Na13 O61 2.647949 1_555
Na13 O62 2.655145 1_555
Na13 O66 2.701291 1_555
Na14 O69 2.483856 1_555
Na14 O71 2.528854 1_555
Na14 O64 2.592798 1_555
Na14 O70 2.650918 1_555
Na14 O65 2.681964 1_555
Na14 O63 2.773887 1_555
Ga0 O1 1.944624 1_555
Ga0 O2 1.952486 1_565
Ga0 O37 1.988507 1_555
Ga0 O36 2.037570 1_655
Ga0 O0 2.097975 1_665
Ga0 O38 2.190460 1_665
Ga1 O9 1.943749 1_555
Ga1 O46 1.981831 1_565
Ga1 O10 1.982137 1_665
Ga1 O45 2.048191 1_555
Ga1 O47 2.100756 1_665
Ga1 O11 2.161463 1_655
Ga2 O15 1.920041 1_555
Ga2 O51 1.970131 1_555
Ga2 O17 1.975713 1_555
Ga2 O16 2.162457 1_555
Ga2 O52 2.203797 1_555
Ga2 O53 2.405325 1_555
Ga3 O23 1.890823 1_555
Ga3 O21 1.951162 1_555
Ga3 O22 2.014815 1_555
Ga3 O57 2.021926 1_555
Ga3 O59 2.150424 1_555
Ga3 O58 2.325598 1_555
Ga4 O25 1.943682 1_554
Ga4 O26 1.969326 1_554
Ga4 O62 2.073144 1_555
Ga4 O61 2.075123 1_555
Ga4 O24 2.075752 1_554
Ga4 O60 2.102662 1_555
Ga5 O30 1.936941 1_555
Ga5 O68 2.013086 1_555
Ga5 O32 2.070476 1_555
Ga5 O31 2.099905 1_555
Ga5 O67 2.185449 1_555
Ga5 O66 2.206973 1_555
O0 S0 1.481057 1_545
O1 P0 1.557733 1_555
O2 P1 1.559068 1_655
O3 P2 1.535677 1_555
O3 Y0 2.126862 1_555
O4 P3 1.537666 1_655
O4 Y0 2.221271 1_665
O5 P4 1.537031 1_555
O5 Y0 2.173294 1_655
O6 P4 1.540676 1_565
O6 Y1 2.197353 1_665
O7 P2 1.535471 1_555
O7 Y1 2.137365 1_555
O8 P3 1.548103 1_555
O8 Y1 2.202121 1_565
O9 P0 1.557504 1_555
O10 P1 1.564832 1_555
O11 S0 1.495320 1_555
O12 P5 1.545466 1_555
O12 Y2 2.186760 1_555
O13 P6 1.547187 1_555
O13 Y2 2.185331 1_555
O14 P7 1.526549 1_555
O14 Y2 2.112805 1_555
O15 P8 1.561219 1_555
O16 P9 1.570268 1_555
O17 P10 1.552045 1_555
O18 P10 1.537687 1_555
O18 Y3 2.174401 1_554
O19 P8 1.535995 1_555
O19 Y3 2.262285 1_554
O20 P9 1.541750 1_555
O20 Y3 2.151698 1_554
O21 P6 1.538552 1_555
O22 P7 1.557980 1_555
O23 P5 1.545525 1_555
O24 S1 1.472157 1_555
O25 P11 1.559805 1_555
O26 P12 1.566143 1_555
O27 P13 1.552766 1_555
O27 Y4 2.199912 1_555
O28 S2 1.484376 1_555
O28 Y4 2.219075 1_555
O29 P14 1.544036 1_555
O29 Y4 2.193920 1_555
O30 P14 1.554719 1_555
O31 P13 1.567465 1_555
O32 S2 1.505305 1_555
O33 P11 1.547048 1_555
O33 Y5 2.173787 1_555
O34 P12 1.540827 1_555
O34 Y5 2.144078 1_555
O35 S1 1.470276 1_555
O35 Y5 2.181539 1_555
O36 P14 1.572248 1_555
O37 P13 1.575427 1_555
O38 S2 1.477335 1_555
O39 P11 1.533649 1_555
O39 Y0 2.221370 1_555
O40 P12 1.556819 1_555
O40 Y0 2.295679 1_565
O41 S1 1.488659 1_555
O41 Y0 2.328977 1_665
O42 P5 1.540812 1_555
O42 Y1 2.249503 1_655
O43 P6 1.543844 1_555
O43 Y1 2.255406 1_555
O44 P7 1.562910 1_555
O44 Y1 2.294267 1_665
O45 P8 1.555704 1_555
O46 P9 1.561459 1_555
O47 P10 1.579048 1_555
O48 P4 1.551129 1_555
O48 Y2 2.275578 1_555
O49 P2 1.533311 1_555
O49 Y2 2.206019 1_555
O50 P3 1.537253 1_655
O50 Y2 2.239315 1_555
O51 P0 1.562930 1_555
O52 P1 1.582917 1_655
O53 S0 1.497593 1_545
O54 S1 1.484589 1_555
O54 Y3 2.291653 1_555
O55 P11 1.551023 1_655
O55 Y3 2.237777 1_555
O56 P12 1.531184 1_545
O56 Y3 2.194471 1_555
O57 P13 1.559165 1_545
O58 S2 1.494445 1_555
O59 P14 1.578855 1_655
O60 P10 1.571310 1_555
O61 P8 1.584596 1_455
O62 P9 1.567213 1_565
O63 P6 1.561179 1_565
O63 Y4 2.221731 1_555
O64 P7 1.541451 1_555
O64 Y4 2.244340 1_555
O65 P5 1.540004 1_455
O65 Y4 2.233774 1_555
O66 S0 1.520184 1_555
O67 P0 1.579807 1_555
O68 P1 1.567528 1_555
O69 P2 1.533203 1_555
O69 Y5 2.195737 1_555
O70 P3 1.556119 1_555
O70 Y5 2.243653 1_555
O71 P4 1.538611 1_565
O71 Y5 2.220472 1_555
