# generated using pymatgen
data_GaPt2
_symmetry_space_group_name_H-M   'P 1'
_cell_length_a   3.92265419
_cell_length_b   5.52079643
_cell_length_c   16.57074824
_cell_angle_alpha   90.00000000
_cell_angle_beta   90.00000000
_cell_angle_gamma   90.00000000
_symmetry_Int_Tables_number   1
_chemical_formula_structural   GaPt2
_chemical_formula_sum   'Ga8 Pt16'
_cell_volume   358.85902788
_cell_formula_units_Z   8
loop_
 _symmetry_equiv_pos_site_id
 _symmetry_equiv_pos_as_xyz
  1  'x, y, z'
loop_
 _atom_site_type_symbol
 _atom_site_label
 _atom_site_symmetry_multiplicity
 _atom_site_fract_x
 _atom_site_fract_y
 _atom_site_fract_z
 _atom_site_occupancy
  Ga  Ga0  1  0.50000000  0.00000000  0.00000000  1
  Ga  Ga1  1  0.50000000  0.00000000  0.50000000  1
  Ga  Ga2  1  0.00000000  0.78981789  0.25000000  1
  Ga  Ga3  1  0.00000000  0.21018211  0.75000000  1
  Ga  Ga4  1  0.00000000  0.31466942  0.09324112  1
  Ga  Ga5  1  -0.00000000  0.68533058  0.90675888  1
  Ga  Ga6  1  0.00000000  0.31466942  0.40675888  1
  Ga  Ga7  1  -0.00000000  0.68533058  0.59324112  1
  Pt  Pt0  1  0.50000000  0.50000000  0.00000000  1
  Pt  Pt1  1  0.50000000  0.50000000  0.50000000  1
  Pt  Pt2  1  0.00000000  0.26142230  0.25000000  1
  Pt  Pt3  1  0.00000000  0.73857770  0.75000000  1
  Pt  Pt4  1  0.00000000  0.79358853  0.06869776  1
  Pt  Pt5  1  0.00000000  0.20641147  0.93130224  1
  Pt  Pt6  1  0.00000000  0.79358853  0.43130224  1
  Pt  Pt7  1  0.00000000  0.20641147  0.56869776  1
  Pt  Pt8  1  0.50000000  0.04933725  0.15496445  1
  Pt  Pt9  1  0.50000000  0.95066275  0.84503555  1
  Pt  Pt10  1  0.50000000  0.04933725  0.34503555  1
  Pt  Pt11  1  0.50000000  0.95066275  0.65496445  1
  Pt  Pt12  1  0.50000000  0.55557588  0.16814382  1
  Pt  Pt13  1  0.50000000  0.44442412  0.83185618  1
  Pt  Pt14  1  0.50000000  0.55557588  0.33185618  1
  Pt  Pt15  1  0.50000000  0.44442412  0.66814382  1
loop_
_geom_bond_atom_site_label_1
_geom_bond_atom_site_label_2
_geom_bond_distance
_geom_bond_site_symmetry_2
Ga0 Pt4 2.537969 1_545
Ga0 Pt4 2.537969 1_645
Ga0 Pt5 2.537969 1_654
Ga0 Pt5 2.537969 1_554
Ga0 Pt8 2.582283 1_555
Ga0 Pt9 2.582283 1_544
Ga0 Pt0 2.760398 1_545
Ga0 Pt0 2.760398 1_555
Ga1 Pt6 2.537969 1_545
Ga1 Pt6 2.537969 1_645
Ga1 Pt7 2.537969 1_655
Ga1 Pt7 2.537969 1_555
Ga1 Pt10 2.582283 1_555
Ga1 Pt11 2.582283 1_545
Ga1 Pt1 2.760398 1_555
Ga1 Pt1 2.760398 1_545
Ga2 Pt2 2.603632 1_565
Ga2 Pt12 2.712756 1_555
Ga2 Pt14 2.712756 1_455
Ga2 Pt14 2.712756 1_555
Ga2 Pt12 2.712756 1_455
Ga2 Pt8 2.894756 1_565
Ga2 Pt8 2.894756 1_465
Ga2 Pt10 2.894756 1_565
Ga2 Pt10 2.894756 1_465
Ga2 Pt2 2.917164 1_555
Ga2 Pt6 3.004386 1_555
Ga2 Pt4 3.004386 1_555
Ga3 Pt3 2.603632 1_545
Ga3 Pt15 2.712756 1_555
Ga3 Pt15 2.712756 1_455
Ga3 Pt13 2.712756 1_455
Ga3 Pt13 2.712756 1_555
Ga3 Pt9 2.894756 1_445
Ga3 Pt11 2.894756 1_545
Ga3 Pt9 2.894756 1_545
Ga3 Pt11 2.894756 1_445
Ga3 Pt3 2.917164 1_555
Ga3 Pt7 3.004386 1_555
Ga3 Pt5 3.004386 1_555
Ga4 Pt2 2.614193 1_555
Ga4 Pt8 2.653054 1_455
Ga4 Pt8 2.653054 1_555
Ga4 Pt4 2.675111 1_555
Ga4 Pt12 2.675118 1_555
Ga4 Pt12 2.675118 1_455
Ga4 Pt0 2.698322 1_455
Ga4 Pt0 2.698322 1_555
Ga4 Pt5 2.749201 1_554
Ga4 Pt4 2.905388 1_545
Ga5 Pt3 2.614193 1_555
Ga5 Pt9 2.653054 1_555
Ga5 Pt9 2.653054 1_455
Ga5 Pt5 2.675111 1_555
Ga5 Pt13 2.675118 1_555
Ga5 Pt13 2.675118 1_455
Ga5 Pt0 2.698322 1_456
Ga5 Pt0 2.698322 1_556
Ga5 Pt4 2.749201 1_556
Ga5 Pt5 2.905388 1_565
Ga6 Pt2 2.614193 1_555
Ga6 Pt10 2.653054 1_455
Ga6 Pt10 2.653054 1_555
Ga6 Pt6 2.675111 1_555
Ga6 Pt14 2.675118 1_555
Ga6 Pt14 2.675118 1_455
Ga6 Pt1 2.698322 1_555
Ga6 Pt1 2.698322 1_455
Ga6 Pt7 2.749201 1_555
Ga6 Pt6 2.905388 1_545
Ga7 Pt3 2.614193 1_555
Ga7 Pt11 2.653054 1_455
Ga7 Pt11 2.653054 1_555
Ga7 Pt7 2.675111 1_555
Ga7 Pt15 2.675118 1_455
Ga7 Pt15 2.675118 1_555
Ga7 Pt1 2.698322 1_455
Ga7 Pt1 2.698322 1_555
Ga7 Pt6 2.749201 1_555
Ga7 Pt7 2.905388 1_565
Pt0 Pt4 2.787441 1_655
Pt0 Pt4 2.787441 1_555
Pt0 Pt5 2.787441 1_654
Pt0 Pt5 2.787441 1_554
Pt1 Pt6 2.787441 1_655
Pt1 Pt6 2.787441 1_555
Pt1 Pt7 2.787441 1_555
Pt1 Pt7 2.787441 1_655
Pt2 Pt8 2.774489 1_555
Pt2 Pt8 2.774489 1_455
Pt3 Pt9 2.774489 1_455
Pt3 Pt9 2.774489 1_555
Pt4 Pt8 2.807819 1_565
Pt4 Pt8 2.807819 1_465
Pt5 Pt9 2.807819 1_445
Pt5 Pt9 2.807819 1_545
Pt10 Pt2 2.774489 1_555
Pt10 Pt2 2.774489 1_655
Pt10 Pt6 2.807819 1_645
Pt10 Pt6 2.807819 1_545
Pt11 Pt3 2.774489 1_555
Pt11 Pt3 2.774489 1_655
Pt11 Pt7 2.807819 1_565
Pt11 Pt7 2.807819 1_665
Pt12 Pt4 2.879064 1_655
Pt12 Pt4 2.879064 1_555
Pt12 Pt2 2.885122 1_555
Pt12 Pt2 2.885122 1_655
Pt13 Pt5 2.879064 1_555
Pt13 Pt5 2.879064 1_655
Pt13 Pt3 2.885122 1_655
Pt13 Pt3 2.885122 1_555
Pt14 Pt6 2.879064 1_655
Pt14 Pt6 2.879064 1_555
Pt14 Pt2 2.885122 1_555
Pt14 Pt2 2.885122 1_655
Pt15 Pt7 2.879064 1_555
Pt15 Pt7 2.879064 1_655
Pt15 Pt3 2.885122 1_655
Pt15 Pt3 2.885122 1_555
