# generated using pymatgen
data_MgMoOs(PbO3)2
_symmetry_space_group_name_H-M   'P 1'
_cell_length_a   6.91113839
_cell_length_b   6.52228579
_cell_length_c   6.06010388
_cell_angle_alpha   90.54306157
_cell_angle_beta   118.46309709
_cell_angle_gamma   125.02796589
_symmetry_Int_Tables_number   1
_chemical_formula_structural   MgMoOs(PbO3)2
_chemical_formula_sum   'Mg1 Mo1 Os1 Pb2 O6'
_cell_volume   180.81467680
_cell_formula_units_Z   1
loop_
 _symmetry_equiv_pos_site_id
 _symmetry_equiv_pos_as_xyz
  1  'x, y, z'
loop_
 _atom_site_type_symbol
 _atom_site_label
 _atom_site_symmetry_multiplicity
 _atom_site_fract_x
 _atom_site_fract_y
 _atom_site_fract_z
 _atom_site_occupancy
  Mg  Mg0  1  0.81193944  0.09680235  0.90544842  1
  Mo  Mo0  1  0.18333206  0.92280141  0.09472777  1
  Os  Os0  1  0.98247169  0.51680853  0.49665804  1
  Pb  Pb0  1  0.31437841  0.29348206  0.67695726  1
  Pb  Pb1  1  0.51777106  0.75373317  0.19518598  1
  O  O0  1  0.94164288  0.23347669  0.28030208  1
  O  O1  1  0.01908155  0.79033648  0.70897246  1
  O  O2  1  0.01108509  0.31983132  0.75655288  1
  O  O3  1  0.98864322  0.69394556  0.23767544  1
  O  O4  1  0.42671058  0.73754371  0.73726419  1
  O  O5  1  0.55641604  0.27665572  0.27483849  1
loop_
_geom_bond_atom_site_label_1
_geom_bond_atom_site_label_2
_geom_bond_distance
_geom_bond_site_symmetry_2
Mg0 O2 1.932568 1_655
Mg0 O4 1.955595 1_545
Mg0 O0 1.965176 1_556
Mo0 O5 1.898580 1_565
Mo0 O3 1.902338 1_455
Mo0 O1 1.950993 1_554
O0 Os0 2.053419 1_555
O0 Pb0 2.343017 1_655
O0 Pb1 2.577811 1_545
O1 Os0 2.007548 1_455
O1 Pb0 2.770057 1_565
O2 Os0 2.050217 1_455
O2 Pb0 2.455920 1_555
O2 Pb1 2.635498 1_556
O3 Os0 1.959961 1_555
O4 Os0 2.060071 1_455
O4 Pb0 2.500621 1_555
O4 Pb1 2.522225 1_556
O5 Os0 1.955345 1_555
