# generated using pymatgen
data_NaNbSiSn(PO6)2
_symmetry_space_group_name_H-M   'P 1'
_cell_length_a   8.82228822
_cell_length_b   8.81186451
_cell_length_c   22.94313251
_cell_angle_alpha   90.15946960
_cell_angle_beta   90.00000000
_cell_angle_gamma   120.03913834
_symmetry_Int_Tables_number   1
_chemical_formula_structural   NaNbSiSn(PO6)2
_chemical_formula_sum   'Na6 Nb6 Si6 Sn6 P12 O72'
_cell_volume   1544.04068283
_cell_formula_units_Z   6
loop_
 _symmetry_equiv_pos_site_id
 _symmetry_equiv_pos_as_xyz
  1  'x, y, z'
loop_
 _atom_site_type_symbol
 _atom_site_label
 _atom_site_symmetry_multiplicity
 _atom_site_fract_x
 _atom_site_fract_y
 _atom_site_fract_z
 _atom_site_occupancy
  Na  Na0  1  0.00155612  0.00259873  0.49883639  1
  Na  Na1  1  0.00104261  0.00259873  0.99883639  1
  Na  Na2  1  0.66921444  0.33554676  0.83217800  1
  Na  Na3  1  0.66633332  0.33554676  0.33217800  1
  Na  Na4  1  0.33406448  0.66513069  0.16542763  1
  Na  Na5  1  0.33106521  0.66513069  0.66542763  1
  Nb  Nb0  1  0.00025138  0.99954422  0.64530565  1
  Nb  Nb1  1  0.99929283  0.99954422  0.14530565  1
  Nb  Nb2  1  0.66451046  0.33295741  0.97853900  1
  Nb  Nb3  1  0.66844794  0.33295741  0.47853900  1
  Nb  Nb4  1  0.33874832  0.66298530  0.31187712  1
  Nb  Nb5  1  0.32423598  0.66298530  0.81187712  1
  Si  Si0  1  0.71441465  0.70968923  0.25020886  1
  Si  Si1  1  0.99527458  0.70968923  0.75020886  1
  Si  Si2  1  0.95891188  0.33664635  0.58341626  1
  Si  Si3  1  0.37773547  0.33664635  0.08341626  1
  Si  Si4  1  0.04299740  0.37289231  0.91704635  1
  Si  Si5  1  0.32989391  0.37289231  0.41704635  1
  Sn  Sn0  1  0.00033507  0.99910289  0.35243974  1
  Sn  Sn1  1  0.99876783  0.99910289  0.85243974  1
  Sn  Sn2  1  0.67129729  0.33585728  0.68582173  1
  Sn  Sn3  1  0.66456099  0.33585728  0.18582173  1
  Sn  Sn4  1  0.33249935  0.66241116  0.01914350  1
  Sn  Sn5  1  0.32991081  0.66241116  0.51914350  1
  P  P0  1  0.28993522  0.00064419  0.25003238  1
  P  P1  1  0.99652106  0.28721301  0.24984419  1
  P  P2  1  0.29069195  0.28721301  0.74984419  1
  P  P3  1  0.71070897  0.00064419  0.75003238  1
  P  P4  1  0.37995943  0.04443383  0.58329135  1
  P  P5  1  0.66424423  0.62079398  0.58343230  1
  P  P6  1  0.95655075  0.62079398  0.08343230  1
  P  P7  1  0.66447540  0.04443383  0.08329135  1
  P  P8  1  0.62225476  0.66904190  0.91635850  1
  P  P9  1  0.33126016  0.95330250  0.91709788  1
  P  P10  1  0.62204133  0.95330250  0.41709788  1
  P  P11  1  0.04678614  0.66904190  0.41635850  1
  O  O0  1  0.21303611  0.03565140  0.30463984  1
  O  O1  1  0.82828164  0.79451757  0.30790756  1
  O  O2  1  0.96628705  0.17893060  0.30473317  1
  O  O3  1  0.21264355  0.17893060  0.80473317  1
  O  O4  1  0.96623593  0.79451757  0.80790756  1
  O  O5  1  0.82261529  0.03565140  0.80463984  1
  O  O6  1  0.79821772  0.97030923  0.69540993  1
  O  O7  1  0.17256037  0.20449303  0.69520728  1
  O  O8  1  0.03225481  0.83601598  0.69272762  1
  O  O9  1  0.80376117  0.83601598  0.19272762  1
  O  O10  1  0.03193267  0.20449303  0.19520728  1
  O  O11  1  0.17209151  0.97030923  0.19540993  1
  O  O12  1  0.87344761  0.36751591  0.64040720  1
  O  O13  1  0.48793801  0.12270008  0.63866868  1
  O  O14  1  0.62995830  0.51023403  0.63810334  1
  O  O15  1  0.88027673  0.51023403  0.13810334  1
  O  O16  1  0.63476307  0.12270008  0.13866868  1
  O  O17  1  0.49406930  0.36751591  0.14040720  1
  O  O18  1  0.47028623  0.30116830  0.02590277  1
  O  O19  1  0.83910613  0.53616615  0.02885801  1
  O  O20  1  0.69815146  0.16133340  0.02864437  1
  O  O21  1  0.46318294  0.16133340  0.52864437  1
  O  O22  1  0.69706102  0.53616615  0.52885801  1
  O  O23  1  0.83088307  0.30116830  0.52590277  1
  O  O24  1  0.54670218  0.70286012  0.97162810  1
  O  O25  1  0.16054338  0.45886898  0.97363436  1
  O  O26  1  0.30181905  0.84480567  0.97206076  1
  O  O27  1  0.54298562  0.84480567  0.47206076  1
  O  O28  1  0.29832460  0.45886898  0.47363436  1
  O  O29  1  0.15615694  0.70286012  0.47162810  1
  O  O30  1  0.12977097  0.63610452  0.36198691  1
  O  O31  1  0.50479495  0.87033173  0.36218481  1
  O  O32  1  0.36468688  0.50159735  0.35936555  1
  O  O33  1  0.13690948  0.50159735  0.85936555  1
  O  O34  1  0.36553578  0.87033173  0.86218481  1
  O  O35  1  0.50633255  0.63610452  0.86198691  1
  O  O36  1  0.02203071  0.82864431  0.41047381  1
  O  O37  1  0.80494925  0.97648375  0.41021279  1
  O  O38  1  0.15974710  0.18081381  0.40906266  1
  O  O39  1  0.02106672  0.18081381  0.90906266  1
  O  O40  1  0.17153450  0.97648375  0.91021279  1
  O  O41  1  0.80661359  0.82864431  0.91047381  1
  O  O42  1  0.97551701  0.15868243  0.59171827  1
  O  O43  1  0.19580707  0.02673729  0.59052904  1
  O  O44  1  0.83180583  0.80469842  0.59060300  1
  O  O45  1  0.97289260  0.80469842  0.09060300  1
  O  O46  1  0.83093022  0.02673729  0.09052904  1
  O  O47  1  0.18316542  0.15868243  0.09171827  1
  O  O48  1  0.68615773  0.16027823  0.74319166  1
  O  O49  1  0.47261910  0.30822103  0.74208860  1
  O  O50  1  0.82659658  0.51608830  0.74452355  1
  O  O51  1  0.68949272  0.51608830  0.24452355  1
  O  O52  1  0.83560293  0.30822103  0.24208860  1
  O  O53  1  0.47412150  0.16027823  0.24319166  1
  O  O54  1  0.64036426  0.50204457  0.92426780  1
  O  O55  1  0.84988893  0.35744831  0.92483690  1
  O  O56  1  0.49865722  0.13753696  0.92383573  1
  O  O57  1  0.63888074  0.13753696  0.42383573  1
  O  O58  1  0.50756038  0.35744831  0.42483690  1
  O  O59  1  0.86168131  0.50204457  0.42426780  1
  O  O60  1  0.35627213  0.50758380  0.07755366  1
  O  O61  1  0.14110947  0.64788470  0.07652183  1
  O  O62  1  0.50288048  0.86178764  0.07577351  1
  O  O63  1  0.35890616  0.86178764  0.57577351  1
  O  O64  1  0.50677423  0.64788470  0.57652183  1
  O  O65  1  0.15131067  0.50758380  0.57755366  1
  O  O66  1  0.30489291  0.83375578  0.25723300  1
  O  O67  1  0.51890796  0.69427668  0.25793378  1
  O  O68  1  0.16245753  0.47263817  0.25727333  1
  O  O69  1  0.31017964  0.47263817  0.75727333  1
  O  O70  1  0.17536773  0.69427668  0.75793378  1
  O  O71  1  0.52886187  0.83375578  0.75723300  1
loop_
_geom_bond_atom_site_label_1
_geom_bond_atom_site_label_2
_geom_bond_distance
_geom_bond_site_symmetry_2
Na0 O38 2.545577 1_555
Na0 O36 2.598502 1_545
Na0 O42 2.604928 1_455
Na0 O37 2.606457 1_445
Na0 O43 2.653360 1_555
Na0 O44 2.668776 1_445
Na1 O39 2.545577 1_555
Na1 O41 2.598502 1_445
Na1 O47 2.604928 1_556
Na1 O40 2.606457 1_545
Na1 O46 2.653360 1_456
Na1 O45 2.668776 1_446
Na2 O50 2.511872 1_555
Na2 O55 2.605202 1_555
Na2 O48 2.605660 1_555
Na2 O49 2.630116 1_555
Na2 O54 2.652921 1_555
Na2 O56 2.668838 1_555
Na3 O51 2.511872 1_555
Na3 O58 2.605202 1_555
Na3 O53 2.605660 1_555
Na3 O52 2.630116 1_555
Na3 O59 2.652921 1_555
Na3 O57 2.668838 1_555
Na4 O60 2.507414 1_555
Na4 O67 2.609105 1_555
Na4 O61 2.611685 1_555
Na4 O62 2.624509 1_555
Na4 O68 2.656784 1_555
Na4 O66 2.660092 1_555
Na5 O65 2.507414 1_555
Na5 O70 2.609105 1_555
Na5 O64 2.611685 1_555
Na5 O63 2.624509 1_555
Na5 O69 2.656784 1_555
Na5 O71 2.660092 1_555
Nb0 O8 1.938038 1_555
Nb0 O42 1.960003 1_465
Nb0 O6 2.026502 1_455
Nb0 O7 2.030545 1_565
Nb0 O44 2.040825 1_455
Nb0 O43 2.049657 1_565
Nb1 O9 1.938038 1_555
Nb1 O47 1.960004 1_665
Nb1 O11 2.026502 1_655
Nb1 O10 2.030545 1_665
Nb1 O45 2.040825 1_555
Nb1 O46 2.049657 1_565
Nb2 O18 1.927837 1_556
Nb2 O55 1.971669 1_555
Nb2 O19 2.034428 1_556
Nb2 O54 2.035658 1_555
Nb2 O56 2.036376 1_555
Nb2 O20 2.038576 1_556
Nb3 O23 1.927837 1_555
Nb3 O58 1.971669 1_555
Nb3 O22 2.034428 1_555
Nb3 O59 2.035658 1_555
Nb3 O57 2.036376 1_555
Nb3 O21 2.038576 1_555
Nb4 O32 1.896403 1_555
Nb4 O67 1.922793 1_555
Nb4 O31 2.031021 1_555
Nb4 O68 2.044083 1_555
Nb4 O30 2.083562 1_555
Nb4 O66 2.094261 1_555
Nb5 O33 1.896403 1_555
Nb5 O70 1.922793 1_555
Nb5 O34 2.031021 1_555
Nb5 O69 2.044083 1_555
Nb5 O35 2.083562 1_555
Nb5 O71 2.094261 1_555
O0 P0 1.527243 1_555
O0 Sn0 2.055388 1_545
O1 Si0 1.600942 1_555
O1 Sn0 1.961631 1_655
O2 P1 1.522946 1_555
O2 Sn0 2.070136 1_645
O3 P2 1.522946 1_555
O3 Sn1 2.070136 1_445
O4 Si1 1.600942 1_555
O4 Sn1 1.961631 1_555
O5 P3 1.527243 1_555
O5 Sn1 2.055388 1_545
O6 P3 1.562934 1_565
O7 P2 1.556661 1_555
O8 Si1 1.652089 1_455
O9 Si0 1.652089 1_555
O10 P1 1.556661 1_455
O11 P0 1.562934 1_565
O12 Si2 1.598608 1_555
O12 Sn2 1.961532 1_555
O13 P4 1.527981 1_555
O13 Sn2 2.064428 1_555
O14 P5 1.525035 1_555
O14 Sn2 2.064736 1_555
O15 P6 1.525035 1_555
O15 Sn3 2.064736 1_555
O16 P7 1.527981 1_555
O16 Sn3 2.064428 1_555
O17 Si3 1.598608 1_555
O17 Sn3 1.961532 1_555
O18 Si3 1.660987 1_555
O19 P6 1.555204 1_555
O20 P7 1.556313 1_555
O21 P4 1.556313 1_555
O22 P5 1.555204 1_555
O23 Si2 1.660987 1_555
O24 P8 1.528994 1_555
O24 Sn4 2.052915 1_556
O25 Si4 1.594656 1_555
O25 Sn4 1.968241 1_556
O26 P9 1.526361 1_555
O26 Sn4 2.066051 1_556
O27 P10 1.526361 1_555
O27 Sn5 2.066051 1_555
O28 Si5 1.594656 1_555
O28 Sn5 1.968241 1_555
O29 P11 1.528994 1_555
O29 Sn5 2.052915 1_555
O30 P11 1.545025 1_555
O31 P10 1.558685 1_555
O32 Si5 1.670815 1_555
O33 Si4 1.670815 1_555
O34 P9 1.558685 1_555
O35 P8 1.545025 1_555
O36 P11 1.533770 1_555
O36 Sn0 2.089171 1_555
O37 P10 1.529956 1_555
O37 Sn0 2.103680 1_655
O38 Si5 1.614366 1_555
O38 Sn0 1.990806 1_545
O39 Si4 1.614369 1_555
O39 Sn1 1.990806 1_445
O40 P9 1.529947 1_555
O40 Sn1 2.103680 1_455
O41 P8 1.533775 1_555
O41 Sn1 2.089171 1_555
O42 Si2 1.657903 1_555
O43 P4 1.561365 1_555
O44 P5 1.561600 1_555
O45 P6 1.561604 1_555
O46 P7 1.561357 1_555
O47 Si3 1.657908 1_555
O48 P3 1.535106 1_555
O48 Sn2 2.087551 1_555
O49 P2 1.531245 1_555
O49 Sn2 2.091056 1_555
O50 Si1 1.612128 1_555
O50 Sn2 2.005717 1_555
O51 Si0 1.612131 1_555
O51 Sn3 2.005717 1_555
O52 P1 1.531237 1_555
O52 Sn3 2.091056 1_555
O53 P0 1.535111 1_555
O53 Sn3 2.087551 1_555
O54 P8 1.568696 1_555
O55 Si4 1.649524 1_655
O56 P9 1.561638 1_545
O57 P10 1.561630 1_545
O58 Si5 1.649542 1_555
O59 P11 1.568686 1_655
O60 Si3 1.615397 1_555
O60 Sn4 1.999476 1_555
O61 P6 1.531117 1_455
O61 Sn4 2.094030 1_555
O62 P7 1.534202 1_565
O62 Sn4 2.092248 1_555
O63 P4 1.534195 1_565
O63 Sn5 2.092248 1_555
O64 P5 1.531134 1_555
O64 Sn5 2.094030 1_555
O65 Si2 1.615387 1_455
O65 Sn5 1.999476 1_555
O66 P0 1.550164 1_565
O67 Si0 1.670465 1_555
O68 P1 1.563830 1_455
O69 P2 1.563834 1_555
O70 Si1 1.670456 1_455
O71 P3 1.550169 1_565
