# generated using pymatgen
data_NaZr2Sn2P5SO24
_symmetry_space_group_name_H-M   'P 1'
_cell_length_a   8.82766131
_cell_length_b   8.84198420
_cell_length_c   23.13742490
_cell_angle_alpha   90.01140641
_cell_angle_beta   89.89590354
_cell_angle_gamma   119.99253735
_symmetry_Int_Tables_number   1
_chemical_formula_structural   NaZr2Sn2P5SO24
_chemical_formula_sum   'Na3 Zr6 Sn6 P15 S3 O72'
_cell_volume   1564.12998421
_cell_formula_units_Z   3
loop_
 _symmetry_equiv_pos_site_id
 _symmetry_equiv_pos_as_xyz
  1  'x, y, z'
loop_
 _atom_site_type_symbol
 _atom_site_label
 _atom_site_symmetry_multiplicity
 _atom_site_fract_x
 _atom_site_fract_y
 _atom_site_fract_z
 _atom_site_occupancy
  Na  Na0  1  0.67341906  0.34129155  0.83659660  1
  Na  Na1  1  0.66741017  0.33445476  0.32767873  1
  Na  Na2  1  0.33362648  0.66706656  0.16738603  1
  Zr  Zr0  1  0.99304341  0.99942467  0.85850390  1
  Zr  Zr1  1  0.00441080  0.99866968  0.64668168  1
  Zr  Zr2  1  0.66298522  0.32760414  0.68936259  1
  Zr  Zr3  1  0.65924800  0.32798947  0.47434764  1
  Zr  Zr4  1  0.33360339  0.67228579  0.51690415  1
  Zr  Zr5  1  0.33059979  0.65867882  0.81073377  1
  Sn  Sn0  1  0.00107587  0.00019098  0.35119818  1
  Sn  Sn1  1  0.99938105  0.00076453  0.14637110  1
  Sn  Sn2  1  0.66815003  0.33298395  0.18552603  1
  Sn  Sn3  1  0.67254499  0.34006533  0.98594788  1
  Sn  Sn4  1  0.33481796  0.66156971  0.02187628  1
  Sn  Sn5  1  0.33243619  0.66655250  0.31180787  1
  P  P0  1  0.29138343  0.00070137  0.24928784  1
  P  P1  1  0.70976745  0.70866173  0.24948454  1
  P  P2  1  0.99933743  0.29025239  0.24950227  1
  P  P3  1  0.28652590  0.28379033  0.75144069  1
  P  P4  1  0.99830874  0.71177069  0.75166165  1
  P  P5  1  0.71261164  0.00014984  0.75075452  1
  P  P6  1  0.37865563  0.04344542  0.58266337  1
  P  P7  1  0.96175500  0.62786570  0.08492074  1
  P  P8  1  0.66534189  0.04162715  0.08380796  1
  P  P9  1  0.37622901  0.33152427  0.08474465  1
  P  P10  1  0.61626589  0.65576793  0.91884809  1
  P  P11  1  0.03937610  0.38238141  0.91897851  1
  P  P12  1  0.62665527  0.95302214  0.41291518  1
  P  P13  1  0.32613285  0.37559206  0.41361378  1
  P  P14  1  0.04465334  0.67131868  0.41341736  1
  S  S0  1  0.95637722  0.33404481  0.58253503  1
  S  S1  1  0.66518952  0.62146070  0.58263072  1
  S  S2  1  0.34066243  0.96030602  0.91840635  1
  O  O0  1  0.21317520  0.03204892  0.30481672  1
  O  O1  1  0.81960980  0.78762931  0.30474074  1
  O  O2  1  0.96765897  0.18019934  0.30475552  1
  O  O3  1  0.20316566  0.17051080  0.80480810  1
  O  O4  1  0.96800369  0.79661581  0.80474389  1
  O  O5  1  0.82780399  0.03095938  0.80415362  1
  O  O6  1  0.79630342  0.97672306  0.69574576  1
  O  O7  1  0.17928024  0.20052204  0.69630632  1
  O  O8  1  0.02201652  0.81951297  0.69631501  1
  O  O9  1  0.79127152  0.82121470  0.19519797  1
  O  O10  1  0.03027069  0.20909963  0.19514900  1
  O  O11  1  0.17855373  0.97006850  0.19529550  1
  O  O12  1  0.87530178  0.36172589  0.63489213  1
  O  O13  1  0.49285997  0.13224181  0.63655533  1
  O  O14  1  0.64230037  0.51467015  0.63496848  1
  O  O15  1  0.88106451  0.50721551  0.13805067  1
  O  O16  1  0.62703409  0.12148851  0.13749626  1
  O  O17  1  0.49543088  0.36940222  0.13791395  1
  O  O18  1  0.45483473  0.30141487  0.02867499  1
  O  O19  1  0.85266915  0.55237889  0.02894119  1
  O  O20  1  0.69609004  0.15151386  0.02805859  1
  O  O21  1  0.46849672  0.15987973  0.52964139  1
  O  O22  1  0.69461179  0.54023439  0.53134057  1
  O  O23  1  0.84743439  0.30997345  0.53132375  1
  O  O24  1  0.53966631  0.69212591  0.97335533  1
  O  O25  1  0.14943950  0.46325317  0.97358664  1
  O  O26  1  0.31171481  0.85449595  0.97111399  1
  O  O27  1  0.54003216  0.84320994  0.46793065  1
  O  O28  1  0.30438636  0.46240668  0.46850599  1
  O  O29  1  0.15667634  0.69587751  0.46803005  1
  O  O30  1  0.12175548  0.63043775  0.35990616  1
  O  O31  1  0.50816733  0.87591881  0.35978743  1
  O  O32  1  0.36676789  0.49282956  0.35999557  1
  O  O33  1  0.12391973  0.49802628  0.86516094  1
  O  O34  1  0.36798291  0.87887124  0.86655984  1
  O  O35  1  0.50220617  0.62939598  0.86508434  1
  O  O36  1  0.02880121  0.83470596  0.40697276  1
  O  O37  1  0.80651249  0.96983086  0.40682357  1
  O  O38  1  0.16433701  0.19486606  0.40718042  1
  O  O39  1  0.02240037  0.20200119  0.90967886  1
  O  O40  1  0.18461954  0.97941719  0.91088024  1
  O  O41  1  0.79941808  0.81624143  0.90992677  1
  O  O42  1  0.97090713  0.17597311  0.59018800  1
  O  O43  1  0.19780125  0.02595827  0.59083207  1
  O  O44  1  0.82024574  0.79676302  0.59000151  1
  O  O45  1  0.97855128  0.80733722  0.09315702  1
  O  O46  1  0.82817720  0.02371864  0.09180045  1
  O  O47  1  0.19566004  0.16864216  0.09217960  1
  O  O48  1  0.69507834  0.16583129  0.74462418  1
  O  O49  1  0.47232929  0.30809467  0.74459979  1
  O  O50  1  0.83617532  0.52814906  0.74343488  1
  O  O51  1  0.69117222  0.52421136  0.24397155  1
  O  O52  1  0.83312906  0.30868821  0.24416815  1
  O  O53  1  0.47608924  0.16646074  0.24406876  1
  O  O54  1  0.63179810  0.48857513  0.92416756  1
  O  O55  1  0.85293280  0.35959535  0.92401735  1
  O  O56  1  0.49938916  0.13687096  0.92364482  1
  O  O57  1  0.64722837  0.13765293  0.42135321  1
  O  O58  1  0.49205806  0.35671012  0.42124562  1
  O  O59  1  0.86160189  0.50787527  0.42315684  1
  O  O60  1  0.35874948  0.49834824  0.07944408  1
  O  O61  1  0.14637480  0.64647440  0.07796235  1
  O  O62  1  0.49802182  0.85828402  0.07712901  1
  O  O63  1  0.36062701  0.86351702  0.57461987  1
  O  O64  1  0.50806960  0.63662043  0.57577268  1
  O  O65  1  0.13114940  0.48799619  0.57570380  1
  O  O66  1  0.30952038  0.83446000  0.25473342  1
  O  O67  1  0.52508993  0.69044905  0.25478834  1
  O  O68  1  0.16526873  0.47458556  0.25465330  1
  O  O69  1  0.30508437  0.46487868  0.75762425  1
  O  O70  1  0.16104113  0.69489416  0.75955507  1
  O  O71  1  0.53131916  0.84128749  0.75983481  1
loop_
_geom_bond_atom_site_label_1
_geom_bond_atom_site_label_2
_geom_bond_distance
_geom_bond_site_symmetry_2
Na0 O55 2.526620 1_555
Na0 O54 2.531974 1_555
Na0 O56 2.626341 1_555
Na0 O50 2.656536 1_555
Na0 O49 2.694564 1_555
Na0 O48 2.695483 1_555
Na1 O52 2.499651 1_555
Na1 O51 2.501624 1_555
Na1 O53 2.510736 1_555
Na1 O58 2.722837 1_555
Na1 O57 2.729005 1_555
Na1 O59 2.748551 1_555
Na2 O66 2.575365 1_555
Na2 O68 2.577573 1_555
Na2 O67 2.579124 1_555
Na2 O60 2.596690 1_555
Na2 O61 2.599580 1_555
Na2 O62 2.619737 1_555
O0 P0 1.546649 1_555
O0 Sn0 2.049921 1_555
O1 P1 1.545813 1_555
O1 Sn0 2.061393 1_665
O2 P2 1.544859 1_555
O2 Sn0 2.060642 1_655
O3 P3 1.526346 1_555
O3 Zr0 2.111765 1_445
O4 P4 1.530326 1_555
O4 Zr0 2.101326 1_555
O5 P5 1.536957 1_555
O5 Zr0 2.049461 1_545
O6 P5 1.535622 1_565
O6 Zr1 2.082645 1_655
O7 P3 1.540400 1_555
O7 Zr1 2.034168 1_545
O8 P4 1.546420 1_455
O8 Zr1 2.024806 1_555
O9 P1 1.538533 1_555
O9 Sn1 2.061300 1_565
O10 P2 1.537947 1_455
O10 Sn1 2.059003 1_455
O11 P0 1.536458 1_565
O11 Sn1 2.071852 1_465
O12 S0 1.487117 1_555
O12 Zr2 2.149062 1_555
O13 P6 1.549338 1_555
O13 Zr2 2.035771 1_555
O14 S1 1.485820 1_555
O14 Zr2 2.157942 1_555
O15 P7 1.547321 1_555
O15 Sn2 2.052040 1_555
O16 P8 1.546909 1_555
O16 Sn2 2.045919 1_555
O17 P9 1.544357 1_555
O17 Sn2 2.034476 1_555
O18 P9 1.554565 1_555
O18 Sn3 2.030835 1_554
O19 P7 1.553063 1_555
O19 Sn3 2.015614 1_554
O20 P8 1.554704 1_555
O20 Sn3 2.029729 1_554
O21 P6 1.540960 1_555
O21 Zr3 2.042598 1_555
O22 S1 1.475337 1_555
O22 Zr3 2.184721 1_555
O23 S0 1.474302 1_555
O23 Zr3 2.189884 1_555
O24 P10 1.537913 1_555
O24 Sn4 2.026743 1_556
O25 P11 1.536633 1_555
O25 Sn4 2.034236 1_556
O26 S2 1.479230 1_555
O26 Sn4 2.163443 1_556
O27 P12 1.549987 1_555
O27 Zr4 2.031871 1_555
O28 P13 1.544409 1_555
O28 Zr4 2.070264 1_555
O29 P14 1.552900 1_555
O29 Zr4 2.023336 1_555
O30 P14 1.539341 1_555
O30 Sn5 2.048961 1_555
O31 P12 1.536644 1_555
O31 Sn5 2.049437 1_555
O32 P13 1.539295 1_555
O32 Sn5 2.040035 1_555
O33 P11 1.545074 1_555
O33 Zr5 2.081755 1_555
O34 S2 1.479149 1_555
O34 Zr5 2.219477 1_555
O35 P10 1.544445 1_555
O35 Zr5 2.083864 1_555
O36 P14 1.526814 1_555
O36 Sn0 2.055768 1_565
O37 P12 1.525150 1_555
O37 Sn0 2.051729 1_665
O38 P13 1.527908 1_555
O38 Sn0 2.059965 1_555
O39 P11 1.540632 1_555
O39 Zr0 2.052719 1_445
O40 S2 1.479854 1_555
O40 Zr0 2.160227 1_455
O41 P10 1.541196 1_555
O41 Zr0 2.046001 1_555
O42 S0 1.476717 1_555
O42 Zr1 2.172450 1_645
O43 P6 1.536432 1_555
O43 Zr1 2.054947 1_545
O44 S1 1.478105 1_555
O44 Zr1 2.157578 1_655
O45 P7 1.530113 1_555
O45 Sn1 2.039703 1_565
O46 P8 1.534305 1_555
O46 Sn1 2.057483 1_555
O47 P9 1.532498 1_555
O47 Sn1 2.049190 1_455
O48 P5 1.554675 1_555
O48 Zr2 2.041648 1_555
O49 P3 1.551835 1_555
O49 Zr2 2.048856 1_555
O50 P4 1.548668 1_555
O50 Zr2 2.083897 1_555
O51 P1 1.560580 1_555
O51 Sn2 2.094135 1_555
O52 P2 1.560242 1_555
O52 Sn2 2.080447 1_555
O53 P0 1.559301 1_555
O53 Sn2 2.091382 1_555
O54 P10 1.556326 1_555
O54 Sn3 2.090885 1_555
O55 P11 1.559110 1_655
O55 Sn3 2.082232 1_555
O56 S2 1.492928 1_545
O56 Sn3 2.214442 1_555
O57 P12 1.561970 1_545
O57 Zr3 2.041608 1_555
O58 P13 1.565226 1_555
O58 Zr3 2.033164 1_555
O59 P14 1.553877 1_655
O59 Zr3 2.067873 1_555
O60 P9 1.562796 1_555
O60 Sn4 2.051394 1_555
O61 P7 1.562074 1_455
O61 Sn4 2.058961 1_555
O62 P8 1.562168 1_565
O62 Sn4 2.058098 1_555
O63 P6 1.529004 1_565
O63 Zr4 2.072725 1_555
O64 S1 1.467515 1_555
O64 Zr4 2.195458 1_555
O65 S0 1.468941 1_455
O65 Zr4 2.186475 1_555
O66 P0 1.561269 1_565
O66 Sn5 2.071460 1_555
O67 P1 1.560635 1_555
O67 Sn5 2.076096 1_555
O68 P2 1.558834 1_455
O68 Sn5 2.075926 1_555
O69 P3 1.532587 1_555
O69 Zr5 2.027649 1_555
O70 P4 1.527929 1_455
O70 Zr5 2.056927 1_555
O71 P5 1.526385 1_565
O71 Zr5 2.065522 1_555
