# generated using pymatgen
data_MgAlCrO4
_symmetry_space_group_name_H-M   'P 1'
_cell_length_a   5.18786261
_cell_length_b   5.94267839
_cell_length_c   5.17951026
_cell_angle_alpha   77.51839800
_cell_angle_beta   104.33800597
_cell_angle_gamma   150.81022902
_symmetry_Int_Tables_number   1
_chemical_formula_structural   MgAlCrO4
_chemical_formula_sum   'Mg1 Al1 Cr1 O4'
_cell_volume   75.45236011
_cell_formula_units_Z   1
loop_
 _symmetry_equiv_pos_site_id
 _symmetry_equiv_pos_as_xyz
  1  'x, y, z'
loop_
 _atom_site_type_symbol
 _atom_site_label
 _atom_site_symmetry_multiplicity
 _atom_site_fract_x
 _atom_site_fract_y
 _atom_site_fract_z
 _atom_site_occupancy
  Mg  Mg0  1  0.20213468  0.49945943  0.29755585  1
  Al  Al0  1  0.41618152  0.99945374  0.58686354  1
  Cr  Cr0  1  0.53180731  0.49939121  0.97081030  1
  O  O0  1  0.20069040  0.99936276  0.80338214  1
  O  O1  1  0.17992942  0.49934397  0.68335868  1
  O  O2  1  0.85667316  0.99942752  0.14599398  1
  O  O3  1  0.81876350  0.49946337  0.32277451  1
loop_
_geom_bond_atom_site_label_1
_geom_bond_atom_site_label_2
_geom_bond_distance
_geom_bond_site_symmetry_2
Mg0 O2 1.915970 1_555
Mg0 O2 1.916024 1_445
Mg0 O3 2.025202 1_455
Mg0 O1 2.029688 1_555
Al0 O0 1.768358 1_555
Al0 O1 1.970634 1_665
Al0 O3 1.970634 1_455
Al0 O3 1.970966 1_565
Al0 O1 1.971298 1_555
Cr0 O0 1.999054 1_655
Cr0 O0 1.999082 1_545
Cr0 O2 2.038979 1_446
Cr0 O2 2.039033 1_556
Cr0 O3 2.048076 1_556
Cr0 O1 2.049947 1_555
