# generated using pymatgen
data_MgTe4Mo3WS4
_symmetry_space_group_name_H-M   'P 1'
_cell_length_a   3.38244389
_cell_length_b   3.38194398
_cell_length_c   41.22090745
_cell_angle_alpha   90.00130696
_cell_angle_beta   90.11736892
_cell_angle_gamma   119.99579343
_symmetry_Int_Tables_number   1
_chemical_formula_structural   MgTe4Mo3WS4
_chemical_formula_sum   'Mg1 Te4 Mo3 W1 S4'
_cell_volume   408.37802944
_cell_formula_units_Z   1
loop_
 _symmetry_equiv_pos_site_id
 _symmetry_equiv_pos_as_xyz
  1  'x, y, z'
loop_
 _atom_site_type_symbol
 _atom_site_label
 _atom_site_symmetry_multiplicity
 _atom_site_fract_x
 _atom_site_fract_y
 _atom_site_fract_z
 _atom_site_occupancy
  Mg  Mg0  1  0.33516600  0.66758200  0.38051700  1
  Te  Te0  1  0.33476400  0.66736400  0.70351500  1
  Te  Te1  1  0.66458400  0.33226800  0.04823400  1
  Te  Te2  1  0.66818900  0.33409500  0.13949500  1
  Te  Te3  1  0.33119000  0.66554500  0.61169900  1
  Mo  Mo0  1  0.33301700  0.66649100  0.09385500  1
  Mo  Mo1  1  0.32978600  0.66486000  0.47467700  1
  Mo  Mo2  1  0.66617600  0.33316500  0.27865100  1
  W  W0  1  0.66638500  0.33316500  0.65761700  1
  S  S0  1  0.33421800  0.66719400  0.31507100  1
  S  S1  1  0.66277500  0.33136100  0.43753200  1
  S  S2  1  0.66372200  0.33183400  0.51088700  1
  S  S3  1  0.33145600  0.66579200  0.24241500  1
loop_
_geom_bond_atom_site_label_1
_geom_bond_atom_site_label_2
_geom_bond_distance
_geom_bond_site_symmetry_2
Mg0 S0 2.697738 1_555
Mg0 S1 3.048386 1_565
Mg0 S1 3.048554 1_555
Mg0 S1 3.070057 1_455
Te0 W0 2.718704 1_565
Te0 W0 2.718704 1_555
Te0 W0 2.719460 1_455
Te3 W0 2.718980 1_455
Te3 W0 2.719792 1_555
Te3 W0 2.719818 1_565
Mo0 Te1 2.710698 1_555
Mo0 Te1 2.710710 1_565
Mo0 Te2 2.711044 1_455
Mo0 Te1 2.711662 1_455
Mo0 Te2 2.711824 1_555
Mo0 Te2 2.711832 1_565
Mo1 S2 2.457067 1_565
Mo1 S2 2.457102 1_555
Mo1 S2 2.459433 1_455
Mo1 S1 2.479536 1_455
Mo1 S1 2.482395 1_555
Mo1 S1 2.482456 1_565
Mo2 S3 2.458261 1_655
Mo2 S3 2.458645 1_545
Mo2 S3 2.458648 1_555
Mo2 S0 2.462875 1_545
Mo2 S0 2.462881 1_555
Mo2 S0 2.463644 1_655
