# generated using pymatgen
data_MgMn4NiO8
_symmetry_space_group_name_H-M   'P 1'
_cell_length_a   5.94446103
_cell_length_b   6.00684538
_cell_length_c   6.06372080
_cell_angle_alpha   92.94245625
_cell_angle_beta   61.84702927
_cell_angle_gamma   61.43907179
_symmetry_Int_Tables_number   1
_chemical_formula_structural   MgMn4NiO8
_chemical_formula_sum   'Mg1 Mn4 Ni1 O8'
_cell_volume   156.58636463
_cell_formula_units_Z   1
loop_
 _symmetry_equiv_pos_site_id
 _symmetry_equiv_pos_as_xyz
  1  'x, y, z'
loop_
 _atom_site_type_symbol
 _atom_site_label
 _atom_site_symmetry_multiplicity
 _atom_site_fract_x
 _atom_site_fract_y
 _atom_site_fract_z
 _atom_site_occupancy
  Mg  Mg0  1  0.50000000  0.00000000  0.50000000  1
  Mn  Mn0  1  0.00000000  0.50000000  0.50000000  1
  Mn  Mn1  1  0.00000000  0.00000000  0.00000000  1
  Mn  Mn2  1  0.50000000  0.00000000  0.00000000  1
  Mn  Mn3  1  0.00000000  0.50000000  0.00000000  1
  Ni  Ni0  1  0.50000000  0.50000000  0.00000000  1
  O  O0  1  0.45713500  0.24524900  0.80092300  1
  O  O1  1  0.00240700  0.26646300  0.76486900  1
  O  O2  1  0.50113100  0.76771900  0.76434700  1
  O  O3  1  0.94913000  0.78177200  0.77839300  1
  O  O4  1  0.05087000  0.21822800  0.22160700  1
  O  O5  1  0.49886900  0.23228100  0.23565300  1
  O  O6  1  0.99759300  0.73353700  0.23513100  1
  O  O7  1  0.54286500  0.75475100  0.19907700  1
loop_
_geom_bond_atom_site_label_1
_geom_bond_atom_site_label_2
_geom_bond_distance
_geom_bond_site_symmetry_2
Mg0 O7 2.119216 1_545
Mg0 O0 2.119216 1_555
Mg0 O6 2.148674 1_545
Mg0 O1 2.148674 1_555
Mg0 O2 2.178768 1_545
Mg0 O5 2.178768 1_555
Mn0 O3 2.131064 1_455
Mn0 O4 2.131064 1_555
Mn0 O5 2.153932 1_555
Mn0 O2 2.153932 1_455
Mn0 O6 2.186652 1_455
Mn0 O1 2.186652 1_555
Mn1 O3 2.048691 1_444
Mn1 O4 2.048691 1_555
Mn1 O5 2.160299 1_455
Mn1 O2 2.160299 1_544
Mn1 O6 2.198156 1_445
Mn1 O1 2.198156 1_554
Mn2 O3 1.933730 1_544
Mn2 O4 1.933730 1_555
Mn2 O5 1.940610 1_555
Mn2 O2 1.940610 1_544
Mn2 O0 1.950968 1_554
Mn2 O7 1.950968 1_545
Mn3 O1 1.938335 1_554
Mn3 O6 1.938335 1_455
Mn3 O7 1.980395 1_455
Mn3 O0 1.980395 1_554
Mn3 O3 2.211213 1_454
Mn3 O4 2.211213 1_555
Ni0 O0 2.082606 1_554
Ni0 O7 2.082606 1_555
Ni0 O6 2.165777 1_455
Ni0 O1 2.165777 1_654
Ni0 O5 2.205726 1_555
Ni0 O2 2.205726 1_554
