# generated using pymatgen
data_MgV2(CO3)4
_symmetry_space_group_name_H-M   'P 1'
_cell_length_a   6.16979949
_cell_length_b   6.16982786
_cell_length_c   5.87292354
_cell_angle_alpha   75.91933814
_cell_angle_beta   104.07918187
_cell_angle_gamma   91.11543666
_symmetry_Int_Tables_number   1
_chemical_formula_structural   MgV2(CO3)4
_chemical_formula_sum   'Mg1 V2 C4 O12'
_cell_volume   210.14370605
_cell_formula_units_Z   1
loop_
 _symmetry_equiv_pos_site_id
 _symmetry_equiv_pos_as_xyz
  1  'x, y, z'
loop_
 _atom_site_type_symbol
 _atom_site_label
 _atom_site_symmetry_multiplicity
 _atom_site_fract_x
 _atom_site_fract_y
 _atom_site_fract_z
 _atom_site_occupancy
  Mg  Mg0  1  0.40379400  0.40385200  0.75002500  1
  V  V0  1  0.19540000  0.19537800  0.25001500  1
  V  V1  1  0.80470200  0.80468300  0.74998600  1
  C  C0  1  0.12485000  0.68660100  0.23509200  1
  C  C1  1  0.30675700  0.88188300  0.71300500  1
  C  C2  1  0.68657300  0.12484900  0.26491000  1
  C  C3  1  0.88188900  0.30673000  0.78699600  1
  O  O0  1  0.09580000  0.32746900  0.87938500  1
  O  O1  1  0.11790900  0.79831000  0.71405000  1
  O  O2  1  0.20905900  0.87572800  0.24440600  1
  O  O3  1  0.24097400  0.50188800  0.36809200  1
  O  O4  1  0.32745200  0.09582300  0.62065300  1
  O  O5  1  0.48082000  0.74490300  0.79446900  1
  O  O6  1  0.50187200  0.24098400  0.13194800  1
  O  O7  1  0.66718600  0.93184400  0.40080300  1
  O  O8  1  0.74487100  0.48078300  0.70555300  1
  O  O9  1  0.79837100  0.11788200  0.78587500  1
  O  O10  1  0.87569700  0.20904200  0.25557900  1
  O  O11  1  0.93185800  0.66720100  0.09915900  1
loop_
_geom_bond_atom_site_label_1
_geom_bond_atom_site_label_2
_geom_bond_distance
_geom_bond_site_symmetry_2
Mg0 O3 2.161841 1_555
Mg0 O6 2.161855 1_556
Mg0 O5 2.211268 1_555
Mg0 O8 2.211358 1_555
Mg0 O0 2.214400 1_555
Mg0 O4 2.214638 1_555
C0 O2 1.275996 1_555
C0 O11 1.283718 1_455
C0 O3 1.322349 1_555
C1 O1 1.265720 1_555
C1 O5 1.298119 1_555
C1 O4 1.315897 1_565
C2 O10 1.275952 1_555
C2 O7 1.283647 1_545
C2 O6 1.322272 1_555
C3 O9 1.265650 1_555
C3 O8 1.298206 1_555
C3 O0 1.315836 1_655
O0 V0 2.070102 1_556
O1 V1 1.996440 1_455
O2 V0 1.984222 1_565
O3 V0 2.158422 1_555
O4 V0 2.070100 1_555
O5 V1 2.091852 1_555
O6 V0 2.158151 1_555
O7 V1 1.984290 1_555
O8 V1 2.091925 1_555
O9 V1 1.996292 1_545
O10 V0 1.984469 1_655
O11 V1 1.984196 1_554
