# generated using pymatgen
data_La3(GaNi)2
_symmetry_space_group_name_H-M   'P 1'
_cell_length_a   5.75849100
_cell_length_b   8.32143200
_cell_length_c   13.17825600
_cell_angle_alpha   90.00000000
_cell_angle_beta   90.00000000
_cell_angle_gamma   90.00000000
_symmetry_Int_Tables_number   1
_chemical_formula_structural   La3(GaNi)2
_chemical_formula_sum   'La12 Ga8 Ni8'
_cell_volume   631.48741651
_cell_formula_units_Z   4
loop_
 _symmetry_equiv_pos_site_id
 _symmetry_equiv_pos_as_xyz
  1  'x, y, z'
loop_
 _atom_site_type_symbol
 _atom_site_label
 _atom_site_symmetry_multiplicity
 _atom_site_fract_x
 _atom_site_fract_y
 _atom_site_fract_z
 _atom_site_occupancy
  La  La0  1  0.33776900  0.74932200  0.75000000  1
  La  La1  1  0.33776900  0.75067800  0.25000000  1
  La  La2  1  0.66223100  0.24932200  0.75000000  1
  La  La3  1  0.66223100  0.25067800  0.25000000  1
  La  La4  1  0.15758200  0.10239800  0.40444700  1
  La  La5  1  0.15758200  0.39760200  0.59555300  1
  La  La6  1  0.84241800  0.60239800  0.09555300  1
  La  La7  1  0.84241800  0.89760200  0.90444700  1
  La  La8  1  0.84241800  0.89760200  0.59555300  1
  La  La9  1  0.84241800  0.60239800  0.40444700  1
  La  La10  1  0.15758200  0.39760200  0.90444700  1
  La  La11  1  0.15758200  0.10239800  0.09555300  1
  Ga  Ga0  1  0.82783900  0.60264400  0.75000000  1
  Ga  Ga1  1  0.82783900  0.89735600  0.25000000  1
  Ga  Ga2  1  0.17216100  0.10264400  0.75000000  1
  Ga  Ga3  1  0.17216100  0.39735600  0.25000000  1
  Ga  Ga4  1  0.64607600  0.25000000  0.00000000  1
  Ga  Ga5  1  0.35392400  0.75000000  0.50000000  1
  Ga  Ga6  1  0.35392400  0.75000000  0.00000000  1
  Ga  Ga7  1  0.64607600  0.25000000  0.50000000  1
  Ni  Ni0  1  0.38970700  0.46634500  0.41221700  1
  Ni  Ni1  1  0.38970700  0.03365500  0.58778300  1
  Ni  Ni2  1  0.61029300  0.96634500  0.08778300  1
  Ni  Ni3  1  0.61029300  0.53365500  0.91221700  1
  Ni  Ni4  1  0.61029300  0.53365500  0.58778300  1
  Ni  Ni5  1  0.61029300  0.96634500  0.41221700  1
  Ni  Ni6  1  0.38970700  0.03365500  0.91221700  1
  Ni  Ni7  1  0.38970700  0.46634500  0.08778300  1
loop_
_geom_bond_atom_site_label_1
_geom_bond_atom_site_label_2
_geom_bond_distance
_geom_bond_site_symmetry_2
La0 Ni3 3.202110 1_555
La0 Ni4 3.202110 1_555
La0 Ni6 3.202749 1_565
La0 Ni1 3.202749 1_565
La1 Ni2 3.202110 1_555
La1 Ni5 3.202110 1_555
La1 Ni7 3.202749 1_555
La1 Ni0 3.202749 1_555
La2 Ni6 3.202110 1_555
La2 Ni1 3.202110 1_555
La2 Ni3 3.202749 1_555
La2 Ni4 3.202749 1_555
La3 Ni0 3.202110 1_555
La3 Ni7 3.202110 1_555
La3 Ni5 3.202749 1_545
La3 Ni2 3.202749 1_545
La4 Ni1 2.819798 1_555
La4 Ni5 2.844004 1_545
La4 Ni0 3.312009 1_555
La4 Ni5 3.350311 1_445
La5 Ni0 2.819798 1_555
La5 Ni4 2.844004 1_555
La5 Ni1 3.312009 1_555
La5 Ni4 3.350311 1_455
La6 Ni3 2.819798 1_554
La6 Ni7 2.844004 1_555
La6 Ni2 3.312009 1_555
La6 Ni7 3.350311 1_655
La7 Ni2 2.819798 1_556
La7 Ni6 2.844004 1_565
La7 Ni3 3.312009 1_555
La7 Ni6 3.350311 1_665
La8 Ni5 2.819798 1_555
La8 Ni1 2.844004 1_565
La8 Ni4 3.312009 1_555
La8 Ni1 3.350311 1_665
La9 Ni4 2.819798 1_555
La9 Ni0 2.844004 1_555
La9 Ni5 3.312009 1_555
La9 Ni0 3.350311 1_655
La10 Ni7 2.819798 1_556
La10 Ni3 2.844004 1_555
La10 Ni6 3.312009 1_555
La10 Ni3 3.350311 1_455
La11 Ni6 2.819798 1_554
La11 Ni2 2.844004 1_545
La11 Ni7 3.312009 1_555
La11 Ni2 3.350311 1_445
Ga0 Ni3 2.543393 1_555
Ga0 Ni4 2.543393 1_555
Ga0 La0 3.074709 1_555
Ga0 La2 3.090939 1_555
Ga0 La0 3.180000 1_655
Ga0 La7 3.189687 1_555
Ga0 La8 3.189687 1_555
Ga0 La10 3.264875 1_655
Ga0 La5 3.264875 1_655
Ga1 Ni2 2.543393 1_555
Ga1 Ni5 2.543393 1_555
Ga1 La1 3.074709 1_555
Ga1 La3 3.090939 1_565
Ga1 La1 3.180000 1_655
Ga1 La9 3.189687 1_555
Ga1 La6 3.189687 1_555
Ga1 La4 3.264875 1_665
Ga1 La11 3.264875 1_665
Ga2 Ni6 2.543393 1_555
Ga2 Ni1 2.543393 1_555
Ga2 La2 3.074709 1_555
Ga2 La0 3.090939 1_545
Ga2 La2 3.180000 1_455
Ga2 La5 3.189687 1_555
Ga2 La10 3.189687 1_555
Ga2 La7 3.264875 1_445
Ga2 La8 3.264875 1_445
Ga3 Ni0 2.543393 1_555
Ga3 Ni7 2.543393 1_555
Ga3 La3 3.074709 1_555
Ga3 La1 3.090939 1_555
Ga3 La3 3.180000 1_455
Ga3 La11 3.189687 1_555
Ga3 La4 3.189687 1_555
Ga3 La9 3.264875 1_455
Ga3 La6 3.264875 1_455
Ga4 Ni7 2.599767 1_555
Ga4 Ni6 2.599767 1_554
Ga4 Ni2 2.636716 1_545
Ga4 Ni3 2.636716 1_554
Ga4 La3 3.295882 1_555
Ga4 La2 3.295882 1_554
Ga4 La10 3.317705 1_554
Ga4 La11 3.317705 1_555
Ga4 La6 3.385745 1_555
Ga4 La7 3.385745 1_544
Ga4 La10 3.430780 1_654
Ga4 La11 3.430780 1_655
Ga5 Ni4 2.599767 1_555
Ga5 Ni5 2.599767 1_555
Ga5 Ni1 2.636716 1_565
Ga5 Ni0 2.636716 1_555
Ga5 La0 3.295882 1_555
Ga5 La1 3.295882 1_555
Ga5 La8 3.317705 1_555
Ga5 La9 3.317705 1_555
Ga5 La4 3.385745 1_565
Ga5 La5 3.385745 1_555
Ga5 La9 3.430780 1_455
Ga5 La8 3.430780 1_455
Ga6 Ni2 2.599767 1_555
Ga6 Ni3 2.599767 1_554
Ga6 Ni6 2.636716 1_564
Ga6 Ni7 2.636716 1_555
Ga6 La1 3.295882 1_555
Ga6 La0 3.295882 1_554
Ga6 La6 3.317705 1_555
Ga6 La7 3.317705 1_554
Ga6 La11 3.385745 1_565
Ga6 La10 3.385745 1_554
Ga6 La6 3.430780 1_455
Ga6 La7 3.430780 1_454
Ga7 Ni1 2.599767 1_555
Ga7 Ni0 2.599767 1_555
Ga7 Ni4 2.636716 1_555
Ga7 Ni5 2.636716 1_545
Ga7 La3 3.295882 1_555
Ga7 La2 3.295882 1_555
Ga7 La5 3.317705 1_555
Ga7 La4 3.317705 1_555
Ga7 La9 3.385745 1_555
Ga7 La8 3.385745 1_545
Ga7 La5 3.430780 1_655
Ga7 La4 3.430780 1_655
Ni0 Ni4 2.698192 1_555
Ni1 Ni5 2.698192 1_545
Ni2 Ni6 2.698192 1_564
Ni3 Ni7 2.698192 1_556
