# generated using pymatgen
data_MgMn4Zn2O8
_symmetry_space_group_name_H-M   'P 1'
_cell_length_a   6.08342039
_cell_length_b   6.18896861
_cell_length_c   6.46450292
_cell_angle_alpha   89.88343853
_cell_angle_beta   119.46822020
_cell_angle_gamma   120.59561573
_symmetry_Int_Tables_number   1
_chemical_formula_structural   MgMn4Zn2O8
_chemical_formula_sum   'Mg1 Mn4 Zn2 O8'
_cell_volume   172.09401205
_cell_formula_units_Z   1
loop_
 _symmetry_equiv_pos_site_id
 _symmetry_equiv_pos_as_xyz
  1  'x, y, z'
loop_
 _atom_site_type_symbol
 _atom_site_label
 _atom_site_symmetry_multiplicity
 _atom_site_fract_x
 _atom_site_fract_y
 _atom_site_fract_z
 _atom_site_occupancy
  Mg  Mg0  1  0.00457000  0.99606300  0.49992700  1
  Mn  Mn0  1  0.50366000  0.99834400  0.49908100  1
  Mn  Mn1  1  0.50404900  0.49850200  0.50076300  1
  Mn  Mn2  1  0.00278100  0.50100500  0.00008100  1
  Mn  Mn3  1  0.00371900  0.49789600  0.49964800  1
  Zn  Zn0  1  0.29041900  0.14596000  0.96043900  1
  Zn  Zn1  1  0.71296600  0.86016800  0.03898100  1
  O  O0  1  0.04055700  0.77511600  0.27650300  1
  O  O1  1  0.48559300  0.73928900  0.68043000  1
  O  O2  1  0.52140500  0.75864200  0.24056100  1
  O  O3  1  0.96722000  0.73758300  0.72307200  1
  O  O4  1  0.48579900  0.23896300  0.76055100  1
  O  O5  1  0.52219300  0.25876900  0.31967300  1
  O  O6  1  0.04043300  0.26006800  0.27722800  1
  O  O7  1  0.96671500  0.22321700  0.72306000  1
loop_
_geom_bond_atom_site_label_1
_geom_bond_atom_site_label_2
_geom_bond_distance
_geom_bond_site_symmetry_2
Mg0 O4 2.084805 1_565
Mg0 O2 2.091535 1_455
Mg0 O0 2.151221 1_555
Mg0 O3 2.152835 1_455
Mg0 O6 2.174035 1_565
Mg0 O7 2.185114 1_465
Mn0 O5 1.972727 1_565
Mn0 O1 1.974007 1_555
Mn0 O7 1.993246 1_565
Mn0 O0 1.993403 1_555
Mn0 O2 2.314298 1_555
Mn0 O4 2.332842 1_565
Mn1 O5 1.971013 1_555
Mn1 O1 1.971806 1_555
Mn1 O3 1.993618 1_555
Mn1 O6 1.995597 1_555
Mn1 O4 2.324603 1_555
Mn1 O2 2.328798 1_555
Mn2 O4 2.223900 1_454
Mn2 O2 2.230849 1_555
Mn2 O3 2.308229 1_454
Mn2 O0 2.309842 1_555
Mn2 O6 2.327863 1_555
Mn2 O7 2.335125 1_454
Mn3 O5 2.089391 1_455
Mn3 O1 2.090317 1_555
Mn3 O6 2.223284 1_555
Mn3 O7 2.224138 1_455
Mn3 O0 2.234129 1_555
Mn3 O3 2.235046 1_455
O0 Zn1 2.158743 1_455
O1 Zn1 1.909102 1_556
O2 Zn1 2.048498 1_555
O3 Zn0 2.144095 1_665
O4 Zn0 2.055578 1_555
O5 Zn0 1.910854 1_554
O6 Zn1 2.108063 1_445
O7 Zn0 2.107990 1_655
