# generated using pymatgen
data_BaTe2F10
_symmetry_space_group_name_H-M   'P 1'
_cell_length_a   8.93723546
_cell_length_b   8.93723546
_cell_length_c   10.19946874
_cell_angle_alpha   69.06071515
_cell_angle_beta   69.06071515
_cell_angle_gamma   31.40467183
_symmetry_Int_Tables_number   1
_chemical_formula_structural   BaTe2F10
_chemical_formula_sum   'Ba2 Te4 F20'
_cell_volume   394.17428368
_cell_formula_units_Z   2
loop_
 _symmetry_equiv_pos_site_id
 _symmetry_equiv_pos_as_xyz
  1  'x, y, z'
loop_
 _atom_site_type_symbol
 _atom_site_label
 _atom_site_symmetry_multiplicity
 _atom_site_fract_x
 _atom_site_fract_y
 _atom_site_fract_z
 _atom_site_occupancy
  Ba  Ba0  1  0.96161979  0.03838021  0.25000000  1
  Ba  Ba1  1  0.03838021  0.96161979  0.75000000  1
  Te  Te0  1  0.60511675  0.71447572  0.43406637  1
  Te  Te1  1  0.28552428  0.39488325  0.06593363  1
  Te  Te2  1  0.39488325  0.28552428  0.56593363  1
  Te  Te3  1  0.71447572  0.60511675  0.93406637  1
  F  F0  1  0.44681848  0.95658660  0.25635615  1
  F  F1  1  0.04341340  0.55318152  0.24364385  1
  F  F2  1  0.55318152  0.04341340  0.74364385  1
  F  F3  1  0.95658660  0.44681848  0.75635615  1
  F  F4  1  0.81673294  0.40013140  0.34427899  1
  F  F5  1  0.59986860  0.18326706  0.15572101  1
  F  F6  1  0.51349734  0.63322485  0.12475466  1
  F  F7  1  0.36677515  0.48650266  0.37524534  1
  F  F8  1  0.48650266  0.36677515  0.87524534  1
  F  F9  1  0.63322485  0.51349734  0.62475466  1
  F  F10  1  0.06975675  0.26601734  0.03694449  1
  F  F11  1  0.73398266  0.93024325  0.46305551  1
  F  F12  1  0.93024325  0.73398266  0.96305551  1
  F  F13  1  0.26601734  0.06975675  0.53694449  1
  F  F14  1  0.81821678  0.30410629  0.94624357  1
  F  F15  1  0.69589371  0.18178322  0.55375643  1
  F  F16  1  0.18178322  0.69589371  0.05375643  1
  F  F17  1  0.30410629  0.81821678  0.44624357  1
  F  F18  1  0.40013140  0.81673294  0.84427899  1
  F  F19  1  0.18326706  0.59986860  0.65572101  1
loop_
_geom_bond_atom_site_label_1
_geom_bond_atom_site_label_2
_geom_bond_distance
_geom_bond_site_symmetry_2
Ba0 F4 2.690694 1_555
Ba0 F5 2.690694 1_555
Ba0 F7 2.717830 1_645
Ba0 F6 2.717830 1_645
Ba0 F7 2.896913 1_555
Ba0 F6 2.896913 1_555
Ba0 F11 2.913838 1_545
Ba0 F10 2.913838 1_655
Ba0 F16 2.920627 1_645
Ba0 F17 2.920627 1_645
Ba0 F14 3.043777 1_554
Ba0 F15 3.043777 1_555
Ba1 F18 2.690694 1_555
Ba1 F19 2.690694 1_555
Ba1 F9 2.717830 1_465
Ba1 F8 2.717830 1_465
Ba1 F8 2.896913 1_555
Ba1 F9 2.896913 1_555
Ba1 F12 2.913838 1_455
Ba1 F13 2.913838 1_565
Ba1 F14 2.920627 1_465
Ba1 F15 2.920627 1_465
Ba1 F17 3.043777 1_555
Ba1 F16 3.043777 1_556
F0 Te0 1.942392 1_555
F1 Te1 1.942392 1_555
F2 Te2 1.942392 1_555
F3 Te3 1.942392 1_555
F4 Te0 1.959396 1_555
F5 Te1 1.959396 1_555
F6 Te3 2.038169 1_554
F7 Te2 2.038169 1_555
F8 Te1 2.038169 1_556
F9 Te0 2.038169 1_555
F10 Te3 2.012401 1_454
F11 Te2 2.012401 1_565
F12 Te1 2.012401 1_656
F13 Te0 2.012401 1_545
F14 Te3 1.923020 1_555
F15 Te2 1.923020 1_555
F16 Te1 1.923020 1_555
F17 Te0 1.923020 1_555
F18 Te3 1.959396 1_555
F19 Te2 1.959396 1_555
