# generated using pymatgen
data_MgNbTlBr4O
_symmetry_space_group_name_H-M   'P 1'
_cell_length_a   3.93996782
_cell_length_b   7.15480622
_cell_length_c   8.89295595
_cell_angle_alpha   101.43119314
_cell_angle_beta   90.09196069
_cell_angle_gamma   105.94583068
_symmetry_Int_Tables_number   1
_chemical_formula_structural   MgNbTlBr4O
_chemical_formula_sum   'Mg1 Nb1 Tl1 Br4 O1'
_cell_volume   235.84399916
_cell_formula_units_Z   1
loop_
 _symmetry_equiv_pos_site_id
 _symmetry_equiv_pos_as_xyz
  1  'x, y, z'
loop_
 _atom_site_type_symbol
 _atom_site_label
 _atom_site_symmetry_multiplicity
 _atom_site_fract_x
 _atom_site_fract_y
 _atom_site_fract_z
 _atom_site_occupancy
  Mg  Mg0  1  0.26927700  0.54579300  0.40516500  1
  Nb  Nb0  1  0.49346900  0.98503800  0.50897300  1
  Tl  Tl0  1  0.99471500  0.98617500  0.95857100  1
  Br  Br0  1  0.61454300  0.23203700  0.77773700  1
  Br  Br1  1  0.35391100  0.70926500  0.69013300  1
  Br  Br2  1  0.37389400  0.75185500  0.20134600  1
  Br  Br3  1  0.64508200  0.29666900  0.33714100  1
  O  O0  1  0.98774400  0.97650000  0.48760000  1
loop_
_geom_bond_atom_site_label_1
_geom_bond_atom_site_label_2
_geom_bond_distance
_geom_bond_site_symmetry_2
Nb0 O0 1.973394 1_555
Nb0 O0 1.984282 1_455
Br0 Nb0 2.630996 1_545
Br0 Tl0 3.227684 1_445
Br0 Tl0 3.238133 1_545
Br1 Mg0 2.551371 1_555
Br1 Nb0 2.730875 1_555
Br1 Tl0 3.362088 1_455
Br1 Tl0 3.369848 1_555
Br2 Mg0 2.521241 1_555
Br2 Nb0 2.871304 1_555
Br3 Mg0 2.598165 1_655
Br3 Mg0 2.600184 1_555
Br3 Nb0 2.878354 1_545
