# generated using pymatgen
data_Na6Mg2Ti6Si5S7O48
_symmetry_space_group_name_H-M   'P 1'
_cell_length_a   17.48828600
_cell_length_b   8.79749838
_cell_length_c   22.46766131
_cell_angle_alpha   89.97885151
_cell_angle_beta   90.04313213
_cell_angle_gamma   120.21152359
_symmetry_Int_Tables_number   1
_chemical_formula_structural   Na6Mg2Ti6Si5S7O48
_chemical_formula_sum   'Na18 Mg6 Ti18 Si15 S21 O144'
_cell_volume   2987.20611767
_cell_formula_units_Z   3
loop_
 _symmetry_equiv_pos_site_id
 _symmetry_equiv_pos_as_xyz
  1  'x, y, z'
loop_
 _atom_site_type_symbol
 _atom_site_label
 _atom_site_symmetry_multiplicity
 _atom_site_fract_x
 _atom_site_fract_y
 _atom_site_fract_z
 _atom_site_occupancy
  Na  Na0  1  0.65715439  0.34804104  0.58379720  1
  Na  Na1  1  0.51923492  0.68923309  0.58578815  1
  Na  Na2  1  0.82412497  0.96183365  0.58386101  1
  Na  Na3  1  0.15625996  0.96402860  0.08669198  1
  Na  Na4  1  0.32412059  0.68843460  0.08641776  1
  Na  Na5  1  0.01941394  0.35070353  0.08845524  1
  Na  Na6  1  0.00709882  0.99929019  0.49546737  1
  Na  Na7  1  0.49443836  0.00118673  0.49840818  1
  Na  Na8  1  0.99606461  0.98937251  0.00080121  1
  Na  Na9  1  0.50529010  0.01096078  0.99890711  1
  Na  Na10  1  0.32986245  0.32633459  0.82491709  1
  Na  Na11  1  0.82996694  0.32886034  0.83356477  1
  Na  Na12  1  0.32739532  0.32878181  0.33392128  1
  Na  Na13  1  0.83455273  0.33815749  0.32687161  1
  Na  Na14  1  0.16433080  0.66431090  0.16341298  1
  Na  Na15  1  0.66929952  0.66928992  0.16781167  1
  Na  Na16  1  0.16969992  0.66824752  0.66372006  1
  Na  Na17  1  0.66493159  0.66471144  0.65866860  1
  Mg  Mg0  1  0.33355421  0.32855655  0.69141166  1
  Mg  Mg1  1  0.83000162  0.33079152  0.68396065  1
  Mg  Mg2  1  0.32971783  0.32847517  0.18539712  1
  Mg  Mg3  1  0.83474426  0.34007979  0.19275414  1
  Mg  Mg4  1  0.16622818  0.66925425  0.02058319  1
  Mg  Mg5  1  0.66636995  0.66452994  0.52010455  1
  Ti  Ti0  1  0.00151735  0.98963728  0.35700206  1
  Ti  Ti1  1  0.50174498  0.99936600  0.35372932  1
  Ti  Ti2  1  0.00258899  0.00332714  0.85343947  1
  Ti  Ti3  1  0.50133803  0.99892778  0.85144833  1
  Ti  Ti4  1  0.00695958  0.00815706  0.64424413  1
  Ti  Ti5  1  0.49136788  0.00263026  0.64143424  1
  Ti  Ti6  1  0.99393542  0.98241385  0.14607886  1
  Ti  Ti7  1  0.50377836  0.00618343  0.14861341  1
  Ti  Ti8  1  0.32830684  0.31430153  0.98647320  1
  Ti  Ti9  1  0.83206720  0.35039097  0.97647250  1
  Ti  Ti10  1  0.33178582  0.31338470  0.47506699  1
  Ti  Ti11  1  0.83219580  0.35380578  0.48356554  1
  Ti  Ti12  1  0.67183905  0.67996911  0.01443949  1
  Ti  Ti13  1  0.16737397  0.66693775  0.51056378  1
  Ti  Ti14  1  0.16368072  0.65945749  0.31981238  1
  Ti  Ti15  1  0.67347321  0.68328913  0.30799320  1
  Ti  Ti16  1  0.17214793  0.66370666  0.80692916  1
  Ti  Ti17  1  0.67243332  0.67933905  0.81642685  1
  Si  Si0  1  0.64584569  0.00276905  0.25069967  1
  Si  Si1  1  0.85779835  0.70985333  0.25271689  1
  Si  Si2  1  0.14571331  0.28830607  0.75033604  1
  Si  Si3  1  0.35821436  0.00695029  0.75155221  1
  Si  Si4  1  0.47323875  0.33502104  0.58554823  1
  Si  Si5  1  0.68827617  0.04306198  0.58535387  1
  Si  Si6  1  0.83714455  0.63074482  0.58787469  1
  Si  Si7  1  0.97359386  0.61548270  0.08580719  1
  Si  Si8  1  0.33794744  0.04407144  0.08717496  1
  Si  Si9  1  0.18608013  0.33396268  0.08725781  1
  Si  Si10  1  0.81455512  0.67373942  0.91488802  1
  Si  Si11  1  0.66643744  0.96208685  0.91692157  1
  Si  Si12  1  0.31292159  0.95202345  0.41399857  1
  Si  Si13  1  0.16697384  0.37461302  0.41657977  1
  Si  Si14  1  0.01722860  0.65674283  0.41686140  1
  S  S0  1  0.14520237  0.99793365  0.25066118  1
  S  S1  1  0.35527433  0.71117057  0.24959871  1
  S  S2  1  0.00390131  0.28949970  0.24989091  1
  S  S3  1  0.49935970  0.28849124  0.25201914  1
  S  S4  1  0.64469623  0.29231215  0.75073426  1
  S  S5  1  -0.00049404  0.71164025  0.75163217  1
  S  S6  1  0.50358585  0.71418158  0.74990494  1
  S  S7  1  0.85562729  -0.00029052  0.75014447  1
  S  S8  1  0.98193207  0.34063235  0.58482074  1
  S  S9  1  0.18960713  0.04028126  0.58412833  1
  S  S10  1  0.32783271  0.61620571  0.58420362  1
  S  S11  1  0.48109441  0.62200939  0.08374799  1
  S  S12  1  0.82896943  0.04138148  0.08345890  1
  S  S13  1  0.68808961  0.33657469  0.08321112  1
  S  S14  1  0.31279313  0.66462107  0.91600149  1
  S  S15  1  0.02165506  0.37663317  0.91590801  1
  S  S16  1  0.52203949  0.37985851  0.91593076  1
  S  S17  1  0.16813252  0.95859295  0.91515818  1
  S  S18  1  0.81156954  0.95928347  0.41641872  1
  S  S19  1  0.66637189  0.37734504  0.41488057  1
  S  S20  1  0.52139369  0.66628528  0.41573976  1
  O  O0  1  0.10043623  0.01569953  0.30409302  1
  O  O1  1  0.58926632  0.01705829  0.30715062  1
  O  O2  1  0.40973226  0.80793753  0.30233104  1
  O  O3  1  0.91837465  0.82506185  0.30893132  1
  O  O4  1  0.48720334  0.17864886  0.30523695  1
  O  O5  1  0.99873348  0.18402172  0.30233344  1
  O  O6  1  0.08922519  0.16170485  0.80737833  1
  O  O7  1  0.59914606  0.18166554  0.80474725  1
  O  O8  1  0.49861794  0.81288830  0.80343996  1
  O  O9  1  0.98746647  0.79701521  0.80574698  1
  O  O10  1  0.41843558  0.01233966  0.80918904  1
  O  O11  1  0.90882177  0.01017374  0.80346759  1
  O  O12  1  0.40410673  0.96748300  0.69406332  1
  O  O13  1  0.89413637  0.97365067  0.69483183  1
  O  O14  1  0.08056126  0.18950868  0.69284350  1
  O  O15  1  0.59296751  0.20828380  0.69603739  1
  O  O16  1  0.01184004  0.82024516  0.69793907  1
  O  O17  1  0.51798746  0.81820219  0.69501838  1
  O  O18  1  0.39770771  0.81807361  0.19352537  1
  O  O19  1  0.90297368  0.83822186  0.19373641  1
  O  O20  1  0.01544172  0.21071542  0.19319965  1
  O  O21  1  0.51119292  0.20201511  0.19749542  1
  O  O22  1  0.09283830  0.98049169  0.19510268  1
  O  O23  1  0.58065352  0.97192271  0.19234632  1
  O  O24  1  0.43403427  0.38388203  0.64087352  1
  O  O25  1  0.94389560  0.36223080  0.63989026  1
  O  O26  1  0.24038631  0.12215084  0.63742243  1
  O  O27  1  0.75235033  0.11951910  0.64155556  1
  O  O28  1  0.31567199  0.51818092  0.63884016  1
  O  O29  1  0.81709347  0.50759932  0.64379563  1
  O  O30  1  0.44405891  0.52344992  0.13811090  1
  O  O31  1  0.93171525  0.48125950  0.13896609  1
  O  O32  1  0.31853539  0.13071413  0.14211424  1
  O  O33  1  0.81287338  0.10850227  0.13745613  1
  O  O34  1  0.25375322  0.38658406  0.14090736  1
  O  O35  1  0.74012528  0.36423375  0.13604439  1
  O  O36  1  0.23628980  0.29254475  0.02779071  1
  O  O37  1  0.72583651  0.30518302  0.02768021  1
  O  O38  1  0.42373901  0.53949255  0.02976439  1
  O  O39  1  0.91065037  0.52143028  0.02456815  1
  O  O40  1  0.35474090  0.17215535  0.02554730  1
  O  O41  1  0.84160231  0.14794638  0.02928737  1
  O  O42  1  0.22566645  0.14487121  0.52871549  1
  O  O43  1  0.73677953  0.18124370  0.52703986  1
  O  O44  1  0.34280755  0.53776967  0.53053467  1
  O  O45  1  0.85604732  0.54272696  0.52655507  1
  O  O46  1  0.41049858  0.30261655  0.52514970  1
  O  O47  1  0.92500567  0.30671487  0.53159076  1
  O  O48  1  0.27478814  0.69244364  0.97001712  1
  O  O49  1  0.76363703  0.69560328  0.97301252  1
  O  O50  1  0.07249932  0.44919096  0.97052648  1
  O  O51  1  0.57638751  0.46213506  0.97024615  1
  O  O52  1  0.15558963  0.86114291  0.97040632  1
  O  O53  1  0.65043667  0.83010633  0.97407937  1
  O  O54  1  0.26797969  0.83442388  0.47380832  1
  O  O55  1  0.77290496  0.85212991  0.47016737  1
  O  O56  1  0.15048511  0.46959553  0.47433432  1
  O  O57  1  0.65359742  0.44960897  0.47046783  1
  O  O58  1  0.08202608  0.69471736  0.47473562  1
  O  O59  1  0.57215977  0.69556635  0.47081456  1
  O  O60  1  0.06705740  0.63271572  0.35864666  1
  O  O61  1  0.56433065  0.64198222  0.36328661  1
  O  O62  1  0.24991165  0.86146097  0.35614234  1
  O  O63  1  0.75435911  0.86485830  0.36306414  1
  O  O64  1  0.18435973  0.50235643  0.35852957  1
  O  O65  1  0.67510650  0.48526838  0.36247657  1
  O  O66  1  0.06461007  0.48771420  0.86316940  1
  O  O67  1  0.56544851  0.48718076  0.86220100  1
  O  O68  1  0.17741029  0.86966112  0.86252612  1
  O  O69  1  0.67888509  0.85702904  0.85965655  1
  O  O70  1  0.25556804  0.64117585  0.86293813  1
  O  O71  1  0.75043927  0.64146322  0.85711524  1
  O  O72  1  0.00975509  0.83438182  0.40968673  1
  O  O73  1  0.51030922  0.82488408  0.40848322  1
  O  O74  1  0.41147023  0.97750672  0.40669000  1
  O  O75  1  0.90084964  0.98027397  0.40876835  1
  O  O76  1  0.07928496  0.18304681  0.40776224  1
  O  O77  1  0.58608772  0.19635073  0.40823872  1
  O  O78  1  0.01031017  0.19591411  0.90807959  1
  O  O79  1  0.51374561  0.20327160  0.91094442  1
  O  O80  1  0.08819665  0.98016451  0.90855752  1
  O  O81  1  0.57865613  0.97906559  0.90891256  1
  O  O82  1  0.40246102  0.82468287  0.90807094  1
  O  O83  1  0.91145331  0.84667669  0.90829604  1
  O  O84  1  0.48065774  0.15195488  0.59092303  1
  O  O85  1  0.98742747  0.17209980  0.58879701  1
  O  O86  1  0.09783259  0.02078915  0.58912745  1
  O  O87  1  0.58939471  0.02868002  0.59239305  1
  O  O88  1  0.41393764  0.79580390  0.58822053  1
  O  O89  1  0.92593190  0.83165615  0.59403839  1
  O  O90  1  0.48814695  0.80058560  0.08674211  1
  O  O91  1  0.98193450  0.81315214  0.09183943  1
  O  O92  1  0.42655538  0.01999046  0.09197271  1
  O  O93  1  0.91204381  0.02903603  0.08686256  1
  O  O94  1  0.08876312  0.15121741  0.09114210  1
  O  O95  1  0.59761202  0.17353344  0.08824181  1
  O  O96  1  0.34791214  0.17367232  0.75030504  1
  O  O97  1  0.84877787  0.15889418  0.74904359  1
  O  O98  1  0.24187362  0.31935561  0.74716619  1
  O  O99  1  0.73270422  0.30990006  0.75014254  1
  O  O100  1  0.42258466  0.54523631  0.74976909  1
  O  O101  1  0.92237613  0.53429110  0.74764347  1
  O  O102  1  0.35205594  0.54173501  0.24730272  1
  O  O103  1  0.84656924  0.52171798  0.25001590  1
  O  O104  1  0.42215207  0.31005733  0.24666135  1
  O  O105  1  0.92369237  0.30136794  0.24721577  1
  O  O106  1  0.23281771  0.15792007  0.24839945  1
  O  O107  1  0.74177592  0.16438126  0.24640060  1
  O  O108  1  0.32305533  0.50777554  0.91969886  1
  O  O109  1  0.82025977  0.49481968  0.92141907  1
  O  O110  1  0.43418811  0.36460825  0.92118034  1
  O  O111  1  0.93111527  0.35254989  0.92033501  1
  O  O112  1  0.24889591  0.13916807  0.91874598  1
  O  O113  1  0.75527804  0.14938684  0.92584545  1
  O  O114  1  0.32184255  0.14638969  0.42166480  1
  O  O115  1  0.81809626  0.13142818  0.41952385  1
  O  O116  1  0.25445995  0.35805529  0.42745295  1
  O  O117  1  0.74623903  0.35823137  0.41836218  1
  O  O118  1  0.43090552  0.50982271  0.42020709  1
  O  O119  1  0.92143813  0.48012833  0.42449401  1
  O  O120  1  0.17093702  0.49477437  0.07296106  1
  O  O121  1  0.67388017  0.48936426  0.07415328  1
  O  O122  1  0.07342773  0.65988067  0.07369201  1
  O  O123  1  0.57046261  0.64388641  0.07497258  1
  O  O124  1  0.25541508  0.85286460  0.07363598  1
  O  O125  1  0.75126697  0.85509968  0.07542945  1
  O  O126  1  0.17653759  0.86100285  0.57802264  1
  O  O127  1  0.66988168  0.84773697  0.57301247  1
  O  O128  1  0.25263706  0.64903986  0.57778584  1
  O  O129  1  0.75511098  0.65922837  0.57443676  1
  O  O130  1  0.07199964  0.49327427  0.57793810  1
  O  O131  1  0.57374229  0.48777885  0.57391399  1
  O  O132  1  0.15089992  0.83562884  0.25338651  1
  O  O133  1  0.64497292  0.81349489  0.25963137  1
  O  O134  1  0.26752789  0.69590664  0.25256187  1
  O  O135  1  0.75928490  0.69874923  0.25981644  1
  O  O136  1  0.08520277  0.46953184  0.25341885  1
  O  O137  1  0.58215414  0.46097372  0.25683298  1
  O  O138  1  0.14559567  0.47692921  0.75991382  1
  O  O139  1  0.64916733  0.46519716  0.75703055  1
  O  O140  1  0.08232032  0.70339016  0.75805498  1
  O  O141  1  0.58317294  0.69382713  0.75766050  1
  O  O142  1  0.25997297  0.82156356  0.76040141  1
  O  O143  1  0.76554927  0.83693878  0.75560289  1
loop_
_geom_bond_atom_site_label_1
_geom_bond_atom_site_label_2
_geom_bond_distance
_geom_bond_site_symmetry_2
Na0 O131 2.343619 1_555
Na0 O129 2.398756 1_555
Na0 O87 2.446340 1_555
Na0 O84 2.677803 1_555
Na0 O57 2.709184 1_555
Na0 O29 2.766857 1_555
Na0 O15 2.782823 1_555
Na0 O43 2.789078 1_555
Na1 O127 2.295948 1_555
Na1 O131 2.412843 1_555
Na1 O88 2.451674 1_555
Na1 O87 2.599603 1_565
Na1 O24 2.634451 1_555
Na1 O17 2.708818 1_555
Na1 O59 2.735732 1_555
Na2 O129 2.314112 1_555
Na2 O127 2.370123 1_555
Na2 O85 2.504646 1_565
Na2 O89 2.566127 1_555
Na2 O27 2.633718 1_565
Na2 O55 2.717956 1_555
Na2 O13 2.755672 1_555
Na2 O47 2.882859 1_565
Na3 O122 2.332904 1_555
Na3 O124 2.399387 1_555
Na3 O94 2.464118 1_565
Na3 O91 2.645273 1_455
Na3 O22 2.711081 1_555
Na3 O32 2.750015 1_565
Na3 O52 2.763414 1_554
Na3 O36 2.827032 1_565
Na4 O124 2.316709 1_555
Na4 O120 2.361474 1_555
Na4 O90 2.520656 1_555
Na4 O92 2.544419 1_565
Na4 O34 2.603096 1_555
Na4 O18 2.695957 1_555
Na4 O48 2.759032 1_554
Na4 O38 2.945193 1_555
Na5 O120 2.317433 1_555
Na5 O122 2.411369 1_555
Na5 O93 2.487489 1_455
Na5 O94 2.587724 1_555
Na5 O31 2.595330 1_455
Na5 O20 2.640426 1_555
Na5 O50 2.797388 1_554
Na6 O72 2.427220 1_555
Na6 O76 2.457154 1_565
Na6 O86 2.583611 1_565
Na6 O75 2.637602 1_455
Na6 O89 2.643881 1_455
Na6 O85 2.712270 1_465
Na7 O74 2.467140 1_545
Na7 O84 2.542126 1_555
Na7 O88 2.600020 1_545
Na7 O77 2.618006 1_555
Na7 O87 2.620303 1_555
Na7 O73 2.645966 1_545
Na8 O83 2.492584 1_554
Na8 O91 2.502217 1_555
Na8 O94 2.539581 1_665
Na8 O93 2.557423 1_565
Na8 O80 2.652243 1_654
Na8 O78 2.691845 1_664
Na9 O81 2.485948 1_545
Na9 O95 2.520767 1_556
Na9 O92 2.527635 1_556
Na9 O79 2.556610 1_555
Na9 O90 2.617160 1_546
Na9 O82 2.667540 1_545
Na10 O96 2.267752 1_555
Na10 O98 2.307410 1_555
Na10 O100 2.459226 1_555
Na10 O112 2.610729 1_555
Na10 O108 2.700206 1_555
Na10 O110 2.737917 1_555
Na11 O99 2.478706 1_555
Na11 O109 2.511727 1_555
Na11 O113 2.534547 1_555
Na11 O97 2.539357 1_555
Na11 O111 2.568506 1_555
Na11 O101 2.582124 1_555
Na12 O106 2.486465 1_555
Na12 O114 2.512305 1_555
Na12 O116 2.538567 1_555
Na12 O118 2.582123 1_555
Na12 O102 2.582371 1_555
Na12 O104 2.626165 1_555
Na13 O103 2.300144 1_555
Na13 O107 2.395807 1_555
Na13 O105 2.500055 1_555
Na13 O119 2.601274 1_555
Na13 O117 2.630870 1_555
Na13 O115 2.682394 1_555
Na14 O122 2.554447 1_555
Na14 O120 2.558111 1_555
Na14 O136 2.560446 1_555
Na14 O124 2.588582 1_555
Na14 O132 2.602384 1_555
Na14 O134 2.614640 1_555
Na15 O135 2.530167 1_555
Na15 O133 2.567631 1_555
Na15 O125 2.584355 1_555
Na15 O137 2.621588 1_555
Na15 O123 2.644741 1_555
Na15 O121 2.659007 1_555
Na16 O128 2.472079 1_555
Na16 O130 2.520667 1_555
Na16 O126 2.528048 1_555
Na16 O142 2.623758 1_555
Na16 O138 2.639364 1_555
Na16 O140 2.720987 1_555
Na17 O131 2.468129 1_555
Na17 O129 2.480356 1_555
Na17 O127 2.482234 1_555
Na17 O141 2.725890 1_555
Na17 O143 2.729236 1_555
Na17 O139 2.748059 1_555
Mg0 O24 1.938011 1_555
Mg0 O96 2.003261 1_555
Mg0 O98 2.004687 1_555
Mg0 O26 2.108220 1_555
Mg0 O100 2.188358 1_555
Mg0 O28 2.190643 1_555
Mg1 O29 1.907045 1_555
Mg1 O27 1.914599 1_555
Mg1 O25 2.114843 1_555
Mg1 O99 2.197500 1_555
Mg1 O101 2.224827 1_555
Mg1 O97 2.242849 1_555
Mg2 O32 1.915567 1_555
Mg2 O34 1.925225 1_555
Mg2 O106 2.137729 1_555
Mg2 O30 2.149292 1_555
Mg2 O104 2.189547 1_555
Mg2 O102 2.206941 1_555
Mg3 O31 1.939391 1_555
Mg3 O103 1.979893 1_555
Mg3 O107 1.989427 1_555
Mg3 O105 2.136109 1_555
Mg3 O35 2.181095 1_555
Mg3 O33 2.248875 1_555
Mg4 O120 1.968140 1_555
Mg4 O124 1.981378 1_555
Mg4 O122 1.983085 1_555
Mg4 O52 2.114173 1_554
Mg4 O50 2.122488 1_554
Mg4 O48 2.133082 1_554
Mg5 O127 1.978962 1_555
Mg5 O131 1.992534 1_555
Mg5 O129 1.992677 1_555
Mg5 O55 2.088326 1_555
Mg5 O57 2.108259 1_555
Mg5 O59 2.113106 1_555
O0 S0 1.484319 1_545
O0 Ti0 2.015447 1_545
O1 Si0 1.652481 1_555
O1 Ti1 1.795741 1_545
O2 S1 1.489473 1_555
O2 Ti1 2.007599 1_555
O3 Si1 1.631896 1_555
O3 Ti0 1.804736 1_655
O4 S3 1.483724 1_555
O4 Ti1 2.035037 1_545
O5 S2 1.473939 1_655
O5 Ti0 2.125467 1_645
O6 Si2 1.659056 1_555
O6 Ti2 1.784570 1_555
O7 S4 1.508312 1_555
O7 Ti3 1.960938 1_545
O8 S6 1.511693 1_555
O8 Ti3 1.940958 1_555
O9 S5 1.498974 1_655
O9 Ti2 2.007585 1_665
O10 Si3 1.654110 1_555
O10 Ti3 1.785328 1_545
O11 S7 1.490445 1_555
O11 Ti2 2.012415 1_655
O12 Si3 1.647836 1_565
O12 Ti5 1.830353 1_565
O13 S7 1.485721 1_565
O13 Ti4 2.162724 1_665
O14 Si2 1.650512 1_555
O14 Ti4 1.823996 1_555
O15 S4 1.483596 1_555
O15 Ti5 2.167622 1_555
O16 S5 1.485546 1_555
O16 Ti4 2.082301 1_565
O17 S6 1.479620 1_555
O17 Ti5 2.248668 1_565
O18 S1 1.523332 1_555
O18 Ti7 2.027327 1_565
O19 Si1 1.660761 1_555
O19 Ti6 1.804703 1_555
O20 S2 1.511722 1_555
O20 Ti6 2.130031 1_445
O21 S3 1.510559 1_555
O21 Ti7 1.991858 1_555
O22 S0 1.509085 1_555
O22 Ti6 2.057108 1_455
O23 Si0 1.667034 1_565
O23 Ti7 1.808135 1_565
O24 Si4 1.580585 1_555
O25 S8 1.462214 1_555
O26 S9 1.447918 1_555
O27 Si5 1.594519 1_555
O28 S10 1.452875 1_555
O29 Si6 1.578787 1_555
O30 S11 1.448580 1_555
O31 Si7 1.577074 1_555
O32 Si8 1.575322 1_555
O33 S12 1.438082 1_555
O34 Si9 1.585805 1_555
O35 S13 1.439492 1_555
O36 Si9 1.735812 1_555
O36 Ti8 1.783289 1_554
O37 S13 1.501211 1_555
O37 Ti9 2.047571 1_554
O38 S11 1.506718 1_555
O38 Ti8 2.080322 1_554
O39 Si7 1.694510 1_555
O39 Ti9 1.799547 1_554
O40 Si8 1.714521 1_555
O40 Ti8 1.768792 1_554
O41 S12 1.483305 1_555
O41 Ti9 2.214700 1_554
O42 S9 1.486847 1_555
O42 Ti10 2.080393 1_555
O43 Si5 1.696066 1_555
O43 Ti11 1.869531 1_555
O44 S10 1.477053 1_555
O44 Ti10 2.259546 1_555
O45 Si6 1.692940 1_555
O45 Ti11 1.781050 1_555
O46 Si4 1.676274 1_555
O46 Ti10 1.816277 1_555
O47 S8 1.486595 1_555
O47 Ti11 2.155006 1_555
O48 S14 1.462756 1_555
O49 Si10 1.646109 1_555
O49 Ti12 1.800682 1_556
O50 S15 1.460041 1_555
O51 S16 1.490995 1_555
O51 Ti12 2.055344 1_556
O52 S17 1.460922 1_555
O53 Si11 1.657735 1_555
O53 Ti12 1.789724 1_556
O54 Si12 1.635873 1_555
O54 Ti13 1.827813 1_555
O55 S18 1.470740 1_555
O56 Si13 1.645917 1_555
O56 Ti13 1.802374 1_555
O57 S19 1.468948 1_555
O58 Si14 1.644271 1_555
O58 Ti13 1.816778 1_555
O59 S20 1.467703 1_555
O60 Si14 1.643801 1_555
O60 Ti14 1.809410 1_555
O61 S20 1.470206 1_555
O61 Ti15 2.150298 1_555
O62 Si12 1.629054 1_555
O62 Ti14 1.844108 1_555
O63 S18 1.513471 1_555
O63 Ti15 1.951487 1_555
O64 Si13 1.646855 1_555
O64 Ti14 1.816405 1_555
O65 S19 1.471239 1_555
O65 Ti15 2.140698 1_555
O66 S15 1.478178 1_555
O66 Ti16 2.145332 1_555
O67 S16 1.484670 1_555
O67 Ti17 2.057810 1_555
O68 S17 1.471570 1_555
O68 Ti16 2.164582 1_555
O69 Si11 1.661556 1_555
O69 Ti17 1.795335 1_555
O70 S14 1.502030 1_555
O70 Ti16 2.009781 1_555
O71 Si10 1.643290 1_555
O71 Ti17 1.806412 1_555
O72 Si14 1.640331 1_555
O72 Ti0 1.866562 1_555
O73 S20 1.510936 1_555
O73 Ti1 2.030208 1_555
O74 Si12 1.630658 1_555
O74 Ti1 1.908512 1_555
O75 S18 1.487175 1_555
O75 Ti0 2.077488 1_655
O76 Si13 1.621735 1_555
O76 Ti0 1.927614 1_545
O77 S19 1.509612 1_555
O77 Ti1 2.026106 1_545
O78 S15 1.510201 1_555
O78 Ti2 2.041314 1_555
O79 S16 1.490086 1_555
O79 Ti3 2.162058 1_545
O80 S17 1.509604 1_555
O80 Ti2 2.029912 1_565
O81 Si11 1.625329 1_555
O81 Ti3 1.939269 1_555
O82 S14 1.500547 1_555
O82 Ti3 2.071861 1_555
O83 Si10 1.616735 1_555
O83 Ti2 1.936419 1_665
O84 Si4 1.683844 1_555
O84 Ti5 1.815208 1_555
O85 S8 1.535840 1_555
O85 Ti4 2.059768 1_655
O86 S9 1.530116 1_555
O86 Ti4 1.973972 1_555
O87 Si5 1.676780 1_555
O87 Ti5 1.952625 1_555
O88 S10 1.541941 1_555
O88 Ti5 2.023212 1_565
O89 Si6 1.670966 1_555
O89 Ti4 1.864397 1_665
O90 S11 1.514238 1_555
O90 Ti7 2.186860 1_565
O91 Si7 1.675894 1_555
O91 Ti6 1.852811 1_555
O92 Si8 1.669694 1_555
O92 Ti7 1.902749 1_555
O93 S12 1.512276 1_555
O93 Ti6 2.139452 1_545
O94 Si9 1.653872 1_555
O94 Ti6 2.000576 1_445
O95 S13 1.513239 1_555
O95 Ti7 2.066573 1_555
O96 Si3 1.565398 1_555
O97 S7 1.464564 1_555
O98 Si2 1.563841 1_555
O99 S4 1.467425 1_555
O100 S6 1.448055 1_555
O101 S5 1.464147 1_655
O102 S1 1.464023 1_555
O103 Si1 1.566723 1_555
O104 S3 1.459848 1_555
O105 S2 1.459243 1_655
O106 S0 1.470047 1_545
O107 Si0 1.563640 1_555
O108 S14 1.480610 1_555
O108 Ti8 2.304680 1_555
O109 Si10 1.633080 1_555
O109 Ti9 1.857302 1_555
O110 S16 1.478230 1_555
O110 Ti8 2.226093 1_555
O111 S15 1.491474 1_655
O111 Ti9 2.135836 1_555
O112 S17 1.505625 1_545
O112 Ti8 2.112624 1_555
O113 Si11 1.610146 1_545
O113 Ti9 1.957947 1_555
O114 Si12 1.646084 1_545
O114 Ti10 1.836318 1_555
O115 S18 1.462031 1_545
O115 Ti11 2.339781 1_555
O116 Si13 1.626483 1_555
O116 Ti10 1.913090 1_555
O117 S19 1.490458 1_555
O117 Ti11 2.112560 1_555
O118 S20 1.488956 1_555
O118 Ti10 2.120715 1_555
O119 Si14 1.621929 1_655
O119 Ti11 1.920620 1_555
O120 Si9 1.597308 1_555
O121 S13 1.498609 1_555
O121 Ti12 2.161379 1_555
O122 Si7 1.609112 1_455
O123 S11 1.488716 1_555
O123 Ti12 2.128514 1_555
O124 Si8 1.600525 1_565
O125 S12 1.524299 1_565
O125 Ti12 2.006461 1_555
O126 S9 1.481872 1_565
O126 Ti13 2.227976 1_555
O127 Si5 1.605327 1_565
O128 S10 1.488469 1_555
O128 Ti13 2.182196 1_555
O129 Si6 1.604115 1_555
O130 S8 1.476397 1_455
O130 Ti13 2.201170 1_555
O131 Si4 1.608391 1_555
O132 S0 1.481762 1_555
O132 Ti14 2.241835 1_555
O133 Si0 1.669542 1_565
O133 Ti15 1.820455 1_555
O134 S1 1.473102 1_555
O134 Ti14 2.258712 1_555
O135 Si1 1.683497 1_555
O135 Ti15 1.799764 1_555
O136 S2 1.506651 1_555
O136 Ti14 2.142787 1_555
O137 S3 1.483068 1_555
O137 Ti15 2.133634 1_555
O138 Si2 1.674413 1_555
O138 Ti16 1.806688 1_555
O139 S4 1.489929 1_555
O139 Ti17 2.173746 1_555
O140 S5 1.493009 1_555
O140 Ti16 2.084362 1_555
O141 S6 1.500030 1_555
O141 Ti17 2.096023 1_555
O142 Si3 1.682728 1_565
O142 Ti16 1.798656 1_555
O143 S7 1.509020 1_565
O143 Ti17 2.042399 1_555
