# generated using pymatgen
data_KMgNbO3
_symmetry_space_group_name_H-M   'P 1'
_cell_length_a   3.89798334
_cell_length_b   3.89798334
_cell_length_c   6.26809803
_cell_angle_alpha   107.94911027
_cell_angle_beta   72.05088973
_cell_angle_gamma   90.07588569
_symmetry_Int_Tables_number   1
_chemical_formula_structural   KMgNbO3
_chemical_formula_sum   'K1 Mg1 Nb1 O3'
_cell_volume   85.73166252
_cell_formula_units_Z   1
loop_
 _symmetry_equiv_pos_site_id
 _symmetry_equiv_pos_as_xyz
  1  'x, y, z'
loop_
 _atom_site_type_symbol
 _atom_site_label
 _atom_site_symmetry_multiplicity
 _atom_site_fract_x
 _atom_site_fract_y
 _atom_site_fract_z
 _atom_site_occupancy
  K  K0  1  0.35003230  0.64996770  0.49077078  1
  Mg  Mg0  1  0.69333981  0.30666019  0.79971497  1
  Nb  Nb0  1  0.05042561  0.94957439  0.08649447  1
  O  O0  1  0.64023022  0.85927675  0.90556276  1
  O  O1  1  0.14072325  0.35976978  0.90556276  1
  O  O2  1  0.87524880  0.12475120  0.43419526  1
loop_
_geom_bond_atom_site_label_1
_geom_bond_atom_site_label_2
_geom_bond_distance
_geom_bond_site_symmetry_2
K0 O2 2.761280 1_555
K0 O2 2.772943 1_565
K0 O2 2.772943 1_455
K0 O2 2.791775 1_465
K0 O0 3.034443 1_555
K0 O1 3.034443 1_555
K0 O1 3.057033 1_565
K0 O0 3.057033 1_455
Mg0 O0 2.037575 1_545
Mg0 O1 2.037575 1_655
Mg0 O0 2.039318 1_555
Mg0 O1 2.039318 1_555
Mg0 O2 2.062406 1_555
Nb0 O2 1.961932 1_465
Nb0 O1 2.199269 1_564
Nb0 O0 2.199269 1_454
Nb0 O0 2.201086 1_554
Nb0 O1 2.201086 1_554
