# generated using pymatgen
data_Ge3Bi2O9
_symmetry_space_group_name_H-M   'P 1'
_cell_length_a   6.96209224
_cell_length_b   6.96207042
_cell_length_c   9.92715491
_cell_angle_alpha   90.00003120
_cell_angle_beta   90.00000545
_cell_angle_gamma   119.99974633
_symmetry_Int_Tables_number   1
_chemical_formula_structural   Ge3Bi2O9
_chemical_formula_sum   'Ge6 Bi4 O18'
_cell_volume   416.71076985
_cell_formula_units_Z   2
loop_
 _symmetry_equiv_pos_site_id
 _symmetry_equiv_pos_as_xyz
  1  'x, y, z'
loop_
 _atom_site_type_symbol
 _atom_site_label
 _atom_site_symmetry_multiplicity
 _atom_site_fract_x
 _atom_site_fract_y
 _atom_site_fract_z
 _atom_site_occupancy
  Ge  Ge0  1  0.70653651  0.92532618  0.74999979  1
  Ge  Ge1  1  0.78121045  0.70654241  0.25000002  1
  Ge  Ge2  1  0.92533212  0.21879329  0.25000031  1
  Ge  Ge3  1  0.07466970  0.78120806  0.74999992  1
  Ge  Ge4  1  0.21878927  0.29345784  0.75000039  1
  Ge  Ge5  1  0.29346353  0.07467287  0.25000034  1
  Bi  Bi0  1  0.33333188  0.66666474  0.47029422  1
  Bi  Bi1  1  0.66666872  0.33333570  0.97029369  1
  Bi  Bi2  1  0.66666900  0.33333558  0.52970630  1
  Bi  Bi3  1  0.33333169  0.66666450  0.02970577  1
  O  O0  1  0.42857064  0.07585059  0.39736599  1
  O  O1  1  0.35271552  0.42856362  0.89736457  1
  O  O2  1  0.07584438  0.64727855  0.89736543  1
  O  O3  1  0.92415593  0.35272061  0.39736520  1
  O  O4  1  0.64728501  0.57143730  0.39736475  1
  O  O5  1  0.57142980  0.92414947  0.89736555  1
  O  O6  1  0.57142978  0.92414933  0.60263422  1
  O  O7  1  0.64728488  0.57143685  0.10263521  1
  O  O8  1  0.92415578  0.35272063  0.10263487  1
  O  O9  1  0.07584457  0.64727837  0.60263456  1
  O  O10  1  0.20230055  0.26859102  0.25000013  1
  O  O11  1  0.93370566  0.20229344  0.74999994  1
  O  O12  1  0.26858215  0.06628684  0.74999999  1
  O  O13  1  0.73141602  0.93371007  0.24999999  1
  O  O14  1  0.06629388  0.79770600  0.25000000  1
  O  O15  1  0.79769811  0.73141092  0.74999990  1
  O  O16  1  0.42857084  0.07585066  0.10263406  1
  O  O17  1  0.35271563  0.42856356  0.60263490  1
loop_
_geom_bond_atom_site_label_1
_geom_bond_atom_site_label_2
_geom_bond_distance
_geom_bond_site_symmetry_2
Ge0 O6 1.737030 1_555
Ge0 O5 1.737032 1_555
Ge0 O15 1.755645 1_555
Ge0 O11 1.780424 1_565
Ge1 O4 1.737014 1_555
Ge1 O7 1.737014 1_555
Ge1 O14 1.755695 1_655
Ge1 O13 1.780389 1_555
Ge2 O3 1.737012 1_555
Ge2 O8 1.737017 1_555
Ge2 O13 1.755687 1_545
Ge2 O10 1.780433 1_655
Ge3 O9 1.737022 1_555
Ge3 O2 1.737023 1_555
Ge3 O12 1.755658 1_565
Ge3 O15 1.780456 1_455
Ge4 O1 1.737011 1_555
Ge4 O17 1.737023 1_555
Ge4 O11 1.755695 1_455
Ge4 O12 1.780405 1_555
Ge5 O0 1.737031 1_555
Ge5 O16 1.737037 1_555
Ge5 O10 1.755672 1_555
Ge5 O14 1.780424 1_545
Bi0 O6 2.171581 1_555
Bi0 O17 2.171588 1_555
Bi0 O9 2.171597 1_555
Bi0 O3 2.681462 1_455
Bi0 O4 2.681492 1_555
Bi0 O0 2.681499 1_565
Bi1 O16 2.171586 1_556
Bi1 O7 2.171592 1_556
Bi1 O8 2.171604 1_556
Bi1 O2 2.681457 1_655
Bi1 O1 2.681493 1_555
Bi1 O5 2.681500 1_545
Bi2 O0 2.171585 1_555
Bi2 O4 2.171597 1_555
Bi2 O3 2.171603 1_555
Bi2 O9 2.681455 1_655
Bi2 O17 2.681493 1_555
Bi2 O6 2.681500 1_545
Bi3 O5 2.171585 1_554
Bi3 O1 2.171589 1_554
Bi3 O2 2.171598 1_554
Bi3 O8 2.681462 1_455
Bi3 O7 2.681493 1_555
Bi3 O16 2.681499 1_565
