# generated using pymatgen
data_Na7Ta2Ga2Si5PO24
_symmetry_space_group_name_H-M   'P 1'
_cell_length_a   8.97099232
_cell_length_b   8.97541723
_cell_length_c   22.22580866
_cell_angle_alpha   89.68427050
_cell_angle_beta   90.11245522
_cell_angle_gamma   119.85960616
_symmetry_Int_Tables_number   1
_chemical_formula_structural   Na7Ta2Ga2Si5PO24
_chemical_formula_sum   'Na21 Ta6 Ga6 Si15 P3 O72'
_cell_volume   1551.99109404
_cell_formula_units_Z   3
loop_
 _symmetry_equiv_pos_site_id
 _symmetry_equiv_pos_as_xyz
  1  'x, y, z'
loop_
 _atom_site_type_symbol
 _atom_site_label
 _atom_site_symmetry_multiplicity
 _atom_site_fract_x
 _atom_site_fract_y
 _atom_site_fract_z
 _atom_site_occupancy
  Na  Na0  1  0.64045542  0.01028888  0.24913841  1
  Na  Na1  1  0.37201719  0.36208605  0.24701499  1
  Na  Na2  1  0.98909025  0.62651579  0.24781245  1
  Na  Na3  1  0.63730991  0.62665862  0.74754603  1
  Na  Na4  1  0.98891653  0.36076620  0.74817747  1
  Na  Na5  1  0.37374997  0.01205879  0.74778971  1
  Na  Na6  1  0.30538258  0.34245002  0.58174280  1
  Na  Na7  1  0.03921591  0.69660252  0.58094895  1
  Na  Na8  1  0.65700901  0.96064436  0.58120181  1
  Na  Na9  1  0.30102031  0.96220592  0.07984066  1
  Na  Na10  1  0.04107466  0.34552103  0.08194259  1
  Na  Na11  1  0.97318392  0.67710857  0.91486996  1
  Na  Na12  1  0.32203988  0.29204192  0.91511309  1
  Na  Na13  1  0.32294715  0.02761270  0.41483890  1
  Na  Na14  1  0.70681833  0.67656151  0.41504195  1
  Na  Na15  1  0.99734687  0.00484450  0.49383264  1
  Na  Na16  1  0.98914388  0.99657513  0.99459828  1
  Na  Na17  1  0.66726073  0.32492487  0.82893028  1
  Na  Na18  1  0.67463202  0.33254817  0.32933454  1
  Na  Na19  1  0.33933045  0.66350934  0.16044468  1
  Na  Na20  1  0.33434341  0.66682999  0.66165621  1
  Ta  Ta0  1  0.99940840  0.99954012  0.64649425  1
  Ta  Ta1  1  0.99968466  0.99738123  0.14597510  1
  Ta  Ta2  1  0.66620392  0.33130158  0.97957199  1
  Ta  Ta3  1  0.67291764  0.33219861  0.47942429  1
  Ta  Ta4  1  0.32979756  0.66800931  0.31303750  1
  Ta  Ta5  1  0.33148603  0.66936639  0.81337475  1
  Ga  Ga0  1  0.99301711  0.99742124  0.35057548  1
  Ga  Ga1  1  0.00259474  0.00631411  0.85088026  1
  Ga  Ga2  1  0.66672293  0.33317826  0.68465917  1
  Ga  Ga3  1  0.66815077  0.34086835  0.18539060  1
  Ga  Ga4  1  0.32655521  0.65818343  0.01766265  1
  Ga  Ga5  1  0.33554165  0.67259639  0.51847126  1
  Si  Si0  1  0.29204607  0.00539920  0.25219402  1
  Si  Si1  1  0.71144674  0.70769588  0.25188832  1
  Si  Si2  1  0.99554870  0.28587515  0.25083793  1
  Si  Si3  1  0.29373795  0.28922272  0.75159404  1
  Si  Si4  1  0.99503305  0.70843440  0.75273998  1
  Si  Si5  1  0.71305865  0.00397522  0.75188316  1
  Si  Si6  1  0.96076162  0.33814812  0.58553418  1
  Si  Si7  1  0.37913890  0.04290268  0.58465461  1
  Si  Si8  1  0.66240248  0.62069059  0.58429087  1
  Si  Si9  1  0.95645988  0.62276397  0.08458587  1
  Si  Si10  1  0.38141831  0.34365850  0.08489512  1
  Si  Si11  1  0.04037780  0.36790431  0.91807978  1
  Si  Si12  1  0.33171475  0.95545104  0.91914089  1
  Si  Si13  1  0.62956194  0.95763651  0.41810104  1
  Si  Si14  1  0.04353840  0.66944129  0.41851899  1
  P  P0  1  0.66356653  0.04081290  0.08488498  1
  P  P1  1  0.62279206  0.67216589  0.91879014  1
  P  P2  1  0.32820552  0.37512095  0.41860218  1
  O  O0  1  0.20695675  0.03815740  0.31058658  1
  O  O1  1  0.82922717  0.78847528  0.31064939  1
  O  O2  1  0.96086046  0.16157503  0.30728420  1
  O  O3  1  0.21046005  0.16999282  0.81006303  1
  O  O4  1  0.96408962  0.79492709  0.81102887  1
  O  O5  1  0.83843622  0.03820291  0.80755888  1
  O  O6  1  0.79733957  0.96398979  0.69096995  1
  O  O7  1  0.16551724  0.20167545  0.69202817  1
  O  O8  1  0.03570300  0.83455875  0.69248374  1
  O  O9  1  0.80259445  0.83988625  0.19378145  1
  O  O10  1  0.03525541  0.20235524  0.19013379  1
  O  O11  1  0.16456193  0.96464837  0.19244200  1
  O  O12  1  0.87685742  0.37285823  0.64395636  1
  O  O13  1  0.49732843  0.12727789  0.64319938  1
  O  O14  1  0.62982783  0.50358369  0.64341221  1
  O  O15  1  0.87321223  0.50115864  0.14294427  1
  O  O16  1  0.63375405  0.12067157  0.14108512  1
  O  O17  1  0.48947812  0.35916306  0.14463091  1
  O  O18  1  0.46825991  0.30102990  0.02571139  1
  O  O19  1  0.83489381  0.52917646  0.02464028  1
  O  O20  1  0.69715460  0.16452595  0.02927049  1
  O  O21  1  0.46559911  0.16886560  0.52479526  1
  O  O22  1  0.70028664  0.53253761  0.52488765  1
  O  O23  1  0.82861359  0.29813600  0.52724630  1
  O  O24  1  0.53441780  0.69365193  0.97307712  1
  O  O25  1  0.15973946  0.45584267  0.97629440  1
  O  O26  1  0.30119991  0.83541644  0.97727029  1
  O  O27  1  0.54105090  0.83771275  0.47662464  1
  O  O28  1  0.30709141  0.45934982  0.47484140  1
  O  O29  1  0.16290537  0.70059492  0.47672581  1
  O  O30  1  0.13376309  0.63644225  0.35834078  1
  O  O31  1  0.49974952  0.86386579  0.35879007  1
  O  O32  1  0.36191055  0.49321373  0.36169267  1
  O  O33  1  0.13444871  0.49931610  0.85886753  1
  O  O34  1  0.36415028  0.86530897  0.85864993  1
  O  O35  1  0.50759481  0.63542037  0.86092632  1
  O  O36  1  0.02501447  0.84006735  0.41166162  1
  O  O37  1  0.81573454  0.97377245  0.41089845  1
  O  O38  1  0.17662832  0.19342353  0.41194208  1
  O  O39  1  0.02541550  0.18240359  0.91073726  1
  O  O40  1  0.16118173  0.97444401  0.91211626  1
  O  O41  1  0.80571654  0.82154265  0.91195075  1
  O  O42  1  0.97232838  0.15981943  0.58885260  1
  O  O43  1  0.18727739  0.02829467  0.58913013  1
  O  O44  1  0.83993818  0.81216574  0.58896594  1
  O  O45  1  0.97638251  0.81663227  0.08895237  1
  O  O46  1  0.83404392  0.03461694  0.08835531  1
  O  O47  1  0.18673876  0.16319042  0.08902197  1
  O  O48  1  0.68660093  0.16877109  0.74444249  1
  O  O49  1  0.48396063  0.31342339  0.74428797  1
  O  O50  1  0.83133677  0.51783569  0.74537371  1
  O  O51  1  0.68678752  0.51706597  0.24476868  1
  O  O52  1  0.82946377  0.31130028  0.24337578  1
  O  O53  1  0.48413799  0.16678465  0.24372411  1
  O  O54  1  0.63489598  0.50077537  0.92324236  1
  O  O55  1  0.85399034  0.36489692  0.92273605  1
  O  O56  1  0.50295565  0.15079417  0.92334295  1
  O  O57  1  0.63120206  0.14357789  0.42215861  1
  O  O58  1  0.49868700  0.36437618  0.42177607  1
  O  O59  1  0.84825924  0.49787749  0.42216906  1
  O  O60  1  0.35044977  0.50550179  0.07744444  1
  O  O61  1  0.14990420  0.64964956  0.07840163  1
  O  O62  1  0.50518510  0.86480114  0.07615175  1
  O  O63  1  0.35393891  0.85156452  0.57837581  1
  O  O64  1  0.49542506  0.64451522  0.57712887  1
  O  O65  1  0.15112562  0.50193905  0.57655973  1
  O  O66  1  0.30490753  0.82608478  0.25608149  1
  O  O67  1  0.51898981  0.69127013  0.25704544  1
  O  O68  1  0.17341646  0.47750791  0.25669837  1
  O  O69  1  0.30867542  0.48100496  0.75691199  1
  O  O70  1  0.17443810  0.69522171  0.75636917  1
  O  O71  1  0.52206513  0.82554219  0.75674127  1
loop_
_geom_bond_atom_site_label_1
_geom_bond_atom_site_label_2
_geom_bond_distance
_geom_bond_site_symmetry_2
Na0 O52 2.371949 1_555
Na0 O53 2.431618 1_555
Na0 O67 2.511032 1_545
Na0 O16 2.604847 1_555
Na0 O66 2.619522 1_545
Na0 O31 2.754060 1_545
Na0 O2 2.809659 1_555
Na0 O9 2.865589 1_545
Na1 O53 2.418079 1_555
Na1 O51 2.449448 1_555
Na1 O68 2.477020 1_555
Na1 O17 2.515327 1_555
Na1 O67 2.577723 1_555
Na1 O32 2.833725 1_555
Na1 O0 2.884100 1_555
Na1 O10 2.910807 1_555
Na2 O51 2.381496 1_555
Na2 O52 2.456215 1_555
Na2 O66 2.493491 1_655
Na2 O15 2.575624 1_555
Na2 O68 2.599992 1_655
Na2 O30 2.757159 1_655
Na2 O1 2.868179 1_555
Na2 O11 2.900402 1_655
Na3 O50 2.383235 1_555
Na3 O49 2.439769 1_555
Na3 O71 2.477822 1_555
Na3 O14 2.556405 1_555
Na3 O69 2.570164 1_555
Na3 O35 2.795600 1_555
Na3 O6 2.906210 1_555
Na3 O4 2.909342 1_555
Na4 O48 2.383016 1_555
Na4 O50 2.443941 1_555
Na4 O69 2.519622 1_655
Na4 O12 2.546527 1_555
Na4 O70 2.616170 1_655
Na4 O33 2.776301 1_655
Na4 O5 2.831830 1_555
Na4 O7 2.895908 1_655
Na5 O49 2.373806 1_555
Na5 O48 2.435090 1_555
Na5 O70 2.500510 1_545
Na5 O13 2.558182 1_555
Na5 O71 2.612590 1_545
Na5 O34 2.768661 1_545
Na5 O3 2.857996 1_555
Na5 O8 2.905499 1_545
Na6 O64 2.379615 1_555
Na6 O65 2.438749 1_555
Na6 O43 2.474040 1_555
Na6 O28 2.589014 1_555
Na6 O42 2.600232 1_455
Na6 O7 2.752891 1_555
Na6 O14 2.873415 1_555
Na6 O21 2.890303 1_555
Na7 O65 2.412252 1_555
Na7 O63 2.449232 1_555
Na7 O44 2.480568 1_455
Na7 O29 2.562816 1_555
Na7 O43 2.593800 1_565
Na7 O8 2.784306 1_555
Na7 O12 2.876584 1_455
Na7 O22 2.917671 1_455
Na8 O63 2.388308 1_555
Na8 O64 2.463133 1_555
Na8 O42 2.488472 1_565
Na8 O27 2.564730 1_555
Na8 O44 2.583186 1_555
Na8 O6 2.736589 1_555
Na8 O23 2.882264 1_565
Na8 O13 2.889881 1_565
Na9 O62 2.391959 1_555
Na9 O61 2.433636 1_555
Na9 O47 2.488630 1_565
Na9 O45 2.537748 1_455
Na9 O26 2.553924 1_554
Na9 O11 2.793153 1_555
Na9 O18 2.893108 1_565
Na9 O16 2.926377 1_565
Na10 O61 2.398910 1_555
Na10 O60 2.409542 1_555
Na10 O46 2.468317 1_455
Na10 O47 2.556605 1_555
Na10 O25 2.561627 1_554
Na10 O10 2.708468 1_555
Na10 O15 2.860220 1_455
Na10 O20 2.923112 1_455
Na11 O40 2.342435 1_655
Na11 O41 2.424829 1_555
Na11 O55 2.457256 1_555
Na11 O4 2.551434 1_555
Na11 O54 2.639255 1_555
Na11 O19 2.755047 1_556
Na11 O26 2.905819 1_655
Na11 O33 2.918294 1_655
Na12 O39 2.334824 1_555
Na12 O40 2.473513 1_545
Na12 O54 2.487095 1_555
Na12 O56 2.513937 1_555
Na12 O3 2.565250 1_555
Na12 O18 2.766543 1_556
Na12 O25 2.879533 1_555
Na12 O35 2.928884 1_555
Na13 O36 2.345788 1_545
Na13 O38 2.426051 1_555
Na13 O57 2.427144 1_555
Na13 O0 2.558671 1_555
Na13 O58 2.627642 1_555
Na13 O21 2.761131 1_555
Na13 O29 2.887098 1_545
Na13 O31 2.928592 1_545
Na14 O37 2.341255 1_555
Na14 O36 2.477087 1_655
Na14 O58 2.479267 1_555
Na14 O59 2.495976 1_555
Na14 O1 2.546406 1_555
Na14 O22 2.743224 1_555
Na14 O27 2.889386 1_555
Na14 O32 2.936799 1_555
Na15 O37 2.381454 1_545
Na15 O36 2.445687 1_645
Na15 O38 2.455835 1_655
Na15 O42 2.605831 1_555
Na15 O44 2.644856 1_545
Na15 O43 2.658439 1_655
Na16 O39 2.406134 1_665
Na16 O41 2.448634 1_555
Na16 O40 2.470324 1_655
Na16 O45 2.607460 1_556
Na16 O46 2.624346 1_566
Na16 O47 2.676421 1_666
Na17 O48 2.406870 1_555
Na17 O50 2.459860 1_555
Na17 O49 2.464691 1_555
Na17 O55 2.584141 1_555
Na17 O56 2.588559 1_555
Na17 O54 2.732122 1_555
Na18 O52 2.427735 1_555
Na18 O51 2.464548 1_555
Na18 O53 2.498230 1_555
Na18 O57 2.567379 1_555
Na18 O59 2.570022 1_555
Na18 O58 2.694898 1_555
Na19 O60 2.365314 1_555
Na19 O61 2.451149 1_555
Na19 O62 2.506936 1_555
Na19 O67 2.619524 1_555
Na19 O68 2.660442 1_555
Na19 O66 2.688536 1_555
Na20 O63 2.425576 1_555
Na20 O64 2.441472 1_555
Na20 O65 2.462817 1_555
Na20 O69 2.626331 1_555
Na20 O70 2.633600 1_555
Na20 O71 2.638545 1_555
Ga0 O2 1.893748 1_565
Ga0 O1 1.932056 1_555
Ga0 O0 1.977755 1_665
Ga0 O37 2.010241 1_555
Ga0 O36 2.073975 1_655
Ga0 O38 2.191000 1_665
Ga1 O5 1.894427 1_455
Ga1 O3 1.929414 1_555
Ga1 O4 1.966789 1_445
Ga1 O39 2.002403 1_555
Ga1 O40 2.086039 1_545
Ga1 O41 2.186342 1_445
Ga2 O14 1.943363 1_555
Ga2 O13 1.946926 1_555
Ga2 O12 1.957937 1_555
Ga2 O49 2.047553 1_555
Ga2 O48 2.052871 1_555
Ga2 O50 2.080466 1_555
Ga3 O17 1.916137 1_555
Ga3 O15 1.923653 1_555
Ga3 O51 2.007351 1_555
Ga3 O52 2.048631 1_555
Ga3 O53 2.065202 1_555
Ga3 O16 2.093773 1_555
Ga4 O25 1.920897 1_554
Ga4 O26 1.931815 1_554
Ga4 O60 1.990139 1_555
Ga4 O24 1.993295 1_554
Ga4 O61 2.055741 1_555
Ga4 O62 2.180874 1_555
Ga5 O29 1.924024 1_555
Ga5 O27 1.931628 1_555
Ga5 O63 2.034430 1_555
Ga5 O64 2.041924 1_555
Ga5 O28 2.049840 1_555
Ga5 O65 2.052636 1_555
O0 Si0 1.607808 1_555
O1 Si1 1.609334 1_555
O2 Si2 1.598699 1_555
O3 Si3 1.607632 1_555
O4 Si4 1.607842 1_555
O5 Si5 1.595423 1_555
O6 Si5 1.677178 1_565
O6 Ta0 1.947473 1_555
O7 Si3 1.672944 1_555
O7 Ta0 1.964320 1_445
O8 Si4 1.667964 1_455
O8 Ta0 1.950799 1_455
O9 Si1 1.662958 1_555
O9 Ta1 1.937897 1_555
O10 Si2 1.669755 1_455
O10 Ta1 1.970734 1_445
O11 Si0 1.669816 1_565
O11 Ta1 1.940117 1_455
O12 Si6 1.609803 1_555
O13 Si7 1.611438 1_555
O14 Si8 1.611600 1_555
O15 Si9 1.614909 1_555
O16 P0 1.532180 1_555
O17 Si10 1.607634 1_555
O18 Si10 1.670326 1_555
O18 Ta2 1.949974 1_554
O19 Si9 1.662679 1_555
O19 Ta2 1.945534 1_554
O20 P0 1.582654 1_555
O20 Ta2 1.983001 1_554
O21 Si7 1.662561 1_555
O21 Ta3 1.975140 1_555
O22 Si8 1.663039 1_555
O22 Ta3 1.973324 1_555
O23 Si6 1.669686 1_555
O23 Ta3 1.894701 1_555
O24 P1 1.510002 1_555
O25 Si11 1.614901 1_555
O26 Si12 1.611587 1_555
O27 Si13 1.618192 1_555
O28 P2 1.524380 1_555
O29 Si14 1.612118 1_555
O30 Si14 1.667069 1_555
O30 Ta4 1.922119 1_555
O31 Si13 1.683003 1_555
O31 Ta4 1.947721 1_555
O32 P2 1.575548 1_555
O32 Ta4 2.035652 1_555
O33 Si11 1.682681 1_555
O33 Ta5 1.944206 1_555
O34 Si12 1.671756 1_555
O34 Ta5 1.922644 1_555
O35 P1 1.578229 1_555
O35 Ta5 2.043283 1_555
O36 Si14 1.626927 1_555
O37 Si13 1.611195 1_555
O38 P2 1.524539 1_555
O39 Si11 1.611544 1_555
O40 Si12 1.628598 1_555
O41 P1 1.523647 1_555
O42 Si6 1.655927 1_555
O42 Ta0 2.023925 1_545
O43 Si7 1.662946 1_555
O43 Ta0 2.025908 1_445
O44 Si8 1.666345 1_555
O44 Ta0 2.032390 1_555
O45 Si9 1.661702 1_555
O45 Ta1 1.991412 1_555
O46 P0 1.559530 1_555
O46 Ta1 2.107641 1_545
O47 Si10 1.692442 1_555
O47 Ta1 2.033188 1_445
O48 Si5 1.618081 1_555
O49 Si3 1.617792 1_555
O50 Si4 1.615695 1_555
O51 Si1 1.620924 1_555
O52 Si2 1.623792 1_555
O53 Si0 1.617385 1_555
O54 P1 1.597673 1_555
O54 Ta2 2.088802 1_555
O55 Si11 1.662227 1_655
O55 Ta2 2.005737 1_555
O56 Si12 1.661905 1_545
O56 Ta2 1.995982 1_555
O57 Si13 1.664567 1_545
O57 Ta3 2.004271 1_555
O58 P2 1.581035 1_555
O58 Ta3 2.146084 1_555
O59 Si14 1.661251 1_655
O59 Ta3 1.990674 1_555
O60 Si10 1.616695 1_555
O61 Si9 1.634710 1_455
O62 P0 1.522951 1_565
O63 Si7 1.623505 1_565
O64 Si8 1.622521 1_555
O65 Si6 1.617279 1_455
O66 Si0 1.671631 1_565
O66 Ta4 1.989942 1_555
O67 Si1 1.662201 1_555
O67 Ta4 2.031135 1_555
O68 Si2 1.670397 1_455
O68 Ta4 2.021823 1_555
O69 Si3 1.663546 1_555
O69 Ta5 2.037846 1_555
O70 Si4 1.673412 1_455
O70 Ta5 1.989817 1_555
O71 Si5 1.666938 1_565
O71 Ta5 2.018646 1_555
