# generated using pymatgen
data_Na3Ga2Sn2P5SO24
_symmetry_space_group_name_H-M   'P 1'
_cell_length_a   8.69387123
_cell_length_b   8.67371773
_cell_length_c   22.50855777
_cell_angle_alpha   90.33667910
_cell_angle_beta   89.81523903
_cell_angle_gamma   120.09925875
_symmetry_Int_Tables_number   1
_chemical_formula_structural   Na3Ga2Sn2P5SO24
_chemical_formula_sum   'Na9 Ga6 Sn6 P15 S3 O72'
_cell_volume   1468.43260278
_cell_formula_units_Z   3
loop_
 _symmetry_equiv_pos_site_id
 _symmetry_equiv_pos_as_xyz
  1  'x, y, z'
loop_
 _atom_site_type_symbol
 _atom_site_label
 _atom_site_symmetry_multiplicity
 _atom_site_fract_x
 _atom_site_fract_y
 _atom_site_fract_z
 _atom_site_occupancy
  Na  Na0  1  0.00291248  0.36564664  0.75068143  1
  Na  Na1  1  0.66738186  0.96715272  0.58337221  1
  Na  Na2  1  0.03357616  0.33353852  0.08344335  1
  Na  Na3  1  0.00337011  0.99669234  0.50188035  1
  Na  Na4  1  0.00331698  0.99648754  0.00155770  1
  Na  Na5  1  0.66069137  0.32967936  0.83368429  1
  Na  Na6  1  0.67346645  0.33611462  0.33316612  1
  Na  Na7  1  0.33970991  0.66938129  0.16711572  1
  Na  Na8  1  0.33358973  0.66665750  0.66653526  1
  Ga  Ga0  1  0.00512579  0.99860889  0.64843326  1
  Ga  Ga1  1  0.99060882  0.99596177  0.14755898  1
  Ga  Ga2  1  0.32921858  0.67146031  0.01919930  1
  Ga  Ga3  1  0.32847564  0.67170289  0.51910609  1
  Ga  Ga4  1  0.33219988  0.66545178  0.31456513  1
  Ga  Ga5  1  0.33166543  0.67464345  0.81386556  1
  Sn  Sn0  1  0.98908156  0.99268206  0.35229045  1
  Sn  Sn1  1  0.00598950  0.00349634  0.85212754  1
  Sn  Sn2  1  0.66247127  0.33480965  0.68458117  1
  Sn  Sn3  1  0.67055000  0.33773415  0.18492330  1
  Sn  Sn4  1  0.66566774  0.32851953  0.98152281  1
  Sn  Sn5  1  0.67220820  0.33421939  0.48128350  1
  P  P0  1  0.70350575  0.70972081  0.24881867  1
  P  P1  1  0.00539704  0.29397307  0.24916275  1
  P  P2  1  0.29140997  0.29383591  0.74908024  1
  P  P3  1  0.00348130  0.71384014  0.74887520  1
  P  P4  1  0.70526101  0.99227434  0.74887126  1
  P  P5  1  0.96804085  0.33607962  0.58396658  1
  P  P6  1  0.36759831  0.03890225  0.58269404  1
  P  P7  1  0.66541912  0.62886333  0.58270408  1
  P  P8  1  0.96249682  0.63341460  0.08280885  1
  P  P9  1  0.66228355  0.03324251  0.08378444  1
  P  P10  1  0.37179475  0.33354982  0.08347463  1
  P  P11  1  0.04840906  0.38214683  0.91666843  1
  P  P12  1  0.33281844  0.95071530  0.91681768  1
  P  P13  1  0.61534934  0.95011411  0.41686286  1
  P  P14  1  0.05055935  0.66770337  0.41593555  1
  S  S0  1  0.28849499  0.99686354  0.24907950  1
  S  S1  1  0.61846106  0.66648432  0.91658098  1
  S  S2  1  0.33325770  0.38006813  0.41656789  1
  O  O0  1  0.21615392  0.03476483  0.30438560  1
  O  O1  1  0.82066527  0.78118271  0.30543720  1
  O  O2  1  0.96816068  0.17804791  0.30562042  1
  O  O3  1  0.21702354  0.18017134  0.80597012  1
  O  O4  1  0.96160036  0.78496542  0.80636453  1
  O  O5  1  0.82669023  0.03960063  0.80486290  1
  O  O6  1  0.78919810  0.96717164  0.69243026  1
  O  O7  1  0.17096751  0.21074186  0.69494932  1
  O  O8  1  0.03331767  0.82634430  0.69420990  1
  O  O9  1  0.79202791  0.82487424  0.19419038  1
  O  O10  1  0.03432916  0.21046411  0.19263640  1
  O  O11  1  0.18010654  0.96950267  0.19634676  1
  O  O12  1  0.88655523  0.37110469  0.64073178  1
  O  O13  1  0.49267324  0.11622291  0.63775378  1
  O  O14  1  0.62776779  0.51208631  0.63842852  1
  O  O15  1  0.88559803  0.50862168  0.13747956  1
  O  O16  1  0.62699720  0.11659237  0.13935531  1
  O  O17  1  0.48886983  0.37000322  0.13907525  1
  O  O18  1  0.45192277  0.29629872  0.02732287  1
  O  O19  1  0.84384478  0.54985960  0.02720271  1
  O  O20  1  0.71061080  0.15825280  0.02896735  1
  O  O21  1  0.45189070  0.15688849  0.52719753  1
  O  O22  1  0.70305819  0.54771083  0.52694996  1
  O  O23  1  0.84143181  0.28981110  0.52958709  1
  O  O24  1  0.54363908  0.69639930  0.97081692  1
  O  O25  1  0.15804521  0.45961450  0.97365284  1
  O  O26  1  0.30312976  0.84131486  0.97283544  1
  O  O27  1  0.54057583  0.84230186  0.47427951  1
  O  O28  1  0.30282177  0.45523393  0.47069842  1
  O  O29  1  0.15865583  0.69748589  0.47260043  1
  O  O30  1  0.12922463  0.63454572  0.35976470  1
  O  O31  1  0.50516808  0.86848952  0.36072208  1
  O  O32  1  0.36382424  0.48480713  0.36257483  1
  O  O33  1  0.12758936  0.48937058  0.85940157  1
  O  O34  1  0.36704370  0.87324026  0.86038841  1
  O  O35  1  0.51364689  0.63630198  0.86248930  1
  O  O36  1  0.03011774  0.83688932  0.41095374  1
  O  O37  1  0.80699845  0.97662480  0.41263157  1
  O  O38  1  0.17317062  0.19717035  0.41086278  1
  O  O39  1  0.02254300  0.19058229  0.91191954  1
  O  O40  1  0.16509499  0.97192472  0.91205944  1
  O  O41  1  0.80097179  0.82750312  0.91166130  1
  O  O42  1  0.97449408  0.16330658  0.59116717  1
  O  O43  1  0.18701499  0.02332110  0.59068937  1
  O  O44  1  0.83094352  0.81450831  0.59029077  1
  O  O45  1  0.97958551  0.81550575  0.09164649  1
  O  O46  1  0.83531555  0.02620324  0.09065724  1
  O  O47  1  0.18565673  0.16760791  0.09119072  1
  O  O48  1  0.69444870  0.16746230  0.74408681  1
  O  O49  1  0.47688207  0.31100296  0.74439474  1
  O  O50  1  0.83736064  0.52142509  0.74432520  1
  O  O51  1  0.68579767  0.52174914  0.24425490  1
  O  O52  1  0.83349855  0.30803552  0.24443185  1
  O  O53  1  0.46870287  0.16007558  0.24471961  1
  O  O54  1  0.64083786  0.50629834  0.92140222  1
  O  O55  1  0.85944299  0.36140565  0.92158279  1
  O  O56  1  0.49907399  0.14221159  0.92138034  1
  O  O57  1  0.63801042  0.14052762  0.42147801  1
  O  O58  1  0.49337447  0.35843465  0.42151042  1
  O  O59  1  0.85874230  0.50197432  0.42113485  1
  O  O60  1  0.35115946  0.49877750  0.07554022  1
  O  O61  1  0.14247875  0.64063076  0.07582205  1
  O  O62  1  0.49757435  0.85122541  0.07509982  1
  O  O63  1  0.36019526  0.85807947  0.57606464  1
  O  O64  1  0.50022610  0.64881721  0.57505992  1
  O  O65  1  0.14872582  0.50267171  0.57514900  1
  O  O66  1  0.30740180  0.83885207  0.25598644  1
  O  O67  1  0.52015152  0.69168406  0.25759197  1
  O  O68  1  0.17023408  0.47943051  0.25732867  1
  O  O69  1  0.30637577  0.47749024  0.75766959  1
  O  O70  1  0.16453818  0.68596103  0.75609472  1
  O  O71  1  0.52135191  0.82847313  0.75749994  1
loop_
_geom_bond_atom_site_label_1
_geom_bond_atom_site_label_2
_geom_bond_distance
_geom_bond_site_symmetry_2
Na0 O69 2.315195 1_555
Na0 O48 2.354691 1_455
Na0 O70 2.406201 1_555
Na0 O50 2.423192 1_455
Na0 O33 2.671057 1_555
Na0 O12 2.686224 1_455
Na0 O7 2.729632 1_555
Na0 O5 2.741356 1_455
Na1 O42 2.344688 1_565
Na1 O63 2.349732 1_555
Na1 O44 2.385675 1_555
Na1 O64 2.396227 1_555
Na1 O6 2.676552 1_555
Na1 O27 2.684480 1_555
Na1 O23 2.714443 1_565
Na1 O13 2.723305 1_565
Na2 O61 2.344277 1_555
Na2 O46 2.344825 1_455
Na2 O60 2.395797 1_555
Na2 O47 2.400624 1_555
Na2 O10 2.686680 1_555
Na2 O25 2.702110 1_554
Na2 O15 2.714480 1_455
Na2 O20 2.723500 1_455
Na3 O43 2.498714 1_565
Na3 O44 2.519145 1_455
Na3 O36 2.539857 1_555
Na3 O42 2.552840 1_465
Na3 O37 2.588515 1_455
Na3 O38 2.616813 1_565
Na4 O45 2.515651 1_455
Na4 O40 2.521690 1_554
Na4 O47 2.532156 1_565
Na4 O46 2.564058 1_465
Na4 O39 2.586214 1_564
Na4 O41 2.596002 1_454
Na5 O56 2.498570 1_555
Na5 O49 2.525143 1_555
Na5 O54 2.549977 1_555
Na5 O48 2.551466 1_555
Na5 O55 2.552352 1_555
Na5 O50 2.574473 1_555
Na6 O59 2.499530 1_555
Na6 O52 2.510057 1_555
Na6 O57 2.536816 1_555
Na6 O51 2.544102 1_555
Na6 O58 2.592769 1_555
Na6 O53 2.593187 1_555
Na7 O67 2.521357 1_555
Na7 O62 2.551446 1_555
Na7 O60 2.561030 1_555
Na7 O68 2.567842 1_555
Na7 O66 2.572347 1_555
Na7 O61 2.610130 1_555
Na8 O70 2.544700 1_555
Na8 O71 2.552760 1_555
Na8 O65 2.555656 1_555
Na8 O64 2.562026 1_555
Na8 O69 2.569640 1_555
Na8 O63 2.570702 1_555
Ga0 O8 1.934250 1_555
Ga0 O43 1.971262 1_565
Ga0 O7 1.971499 1_565
Ga0 O6 2.014172 1_455
Ga0 O44 2.029434 1_455
Ga0 O42 2.044148 1_465
Ga1 O9 1.929086 1_555
Ga1 O45 1.967265 1_555
Ga1 O46 1.975415 1_565
Ga1 O10 1.976492 1_665
Ga1 O47 2.044002 1_665
Ga1 O11 2.089640 1_655
Ga2 O26 1.914626 1_554
Ga2 O62 1.963789 1_555
Ga2 O61 1.971497 1_555
Ga2 O25 1.971552 1_554
Ga2 O60 2.049013 1_555
Ga2 O24 2.071958 1_554
Ga3 O29 1.915558 1_555
Ga3 O63 1.965661 1_555
Ga3 O27 1.968923 1_555
Ga3 O65 1.973291 1_555
Ga3 O64 2.041452 1_555
Ga3 O28 2.078412 1_555
Ga4 O30 1.933400 1_555
Ga4 O31 1.942803 1_555
Ga4 O68 1.988558 1_555
Ga4 O67 1.995828 1_555
Ga4 O32 2.037719 1_555
Ga4 O66 2.097007 1_555
Ga5 O34 1.899441 1_555
Ga5 O71 1.977097 1_555
Ga5 O33 1.982101 1_555
Ga5 O70 1.992090 1_555
Ga5 O69 2.042505 1_555
Ga5 O35 2.086795 1_555
O0 S0 1.500271 1_545
O0 Sn0 2.112171 1_445
O1 P0 1.552942 1_555
O1 Sn0 1.978509 1_555
O2 P1 1.554540 1_655
O2 Sn0 2.008987 1_545
O3 P2 1.549167 1_555
O3 Sn1 1.995068 1_555
O4 P3 1.549350 1_655
O4 Sn1 2.012142 1_665
O5 P4 1.561783 1_545
O5 Sn1 2.040579 1_655
O6 P4 1.531010 1_555
O7 P2 1.530155 1_555
O8 P3 1.513827 1_555
O9 P0 1.529435 1_555
O10 P1 1.541618 1_555
O11 S0 1.460377 1_555
O12 P5 1.559535 1_555
O12 Sn2 2.060260 1_555
O13 P6 1.560629 1_555
O13 Sn2 2.015967 1_555
O14 P7 1.544681 1_555
O14 Sn2 2.005158 1_555
O15 P8 1.554796 1_555
O15 Sn3 2.014705 1_555
O16 P9 1.546179 1_555
O16 Sn3 2.031128 1_555
O17 P10 1.543685 1_555
O17 Sn3 2.023726 1_555
O18 P10 1.549965 1_555
O18 Sn4 2.015975 1_554
O19 P8 1.550384 1_555
O19 Sn4 2.036355 1_554
O20 P9 1.558871 1_555
O20 Sn4 2.018458 1_554
O21 P6 1.549715 1_555
O21 Sn5 2.038037 1_555
O22 P7 1.547717 1_555
O22 Sn5 2.009672 1_555
O23 P5 1.559065 1_555
O23 Sn5 2.019541 1_555
O24 S1 1.463285 1_555
O25 P11 1.536406 1_555
O26 P12 1.524195 1_555
O27 P13 1.538290 1_555
O28 S2 1.463282 1_555
O29 P14 1.528736 1_555
O30 P14 1.528525 1_555
O31 P13 1.527320 1_555
O32 S2 1.463443 1_555
O33 P11 1.538363 1_555
O34 P12 1.530183 1_555
O35 S1 1.464719 1_555
O36 P14 1.568843 1_555
O36 Sn0 2.050456 1_455
O37 P13 1.566216 1_555
O37 Sn0 2.034014 1_555
O38 S2 1.501475 1_555
O38 Sn0 2.141124 1_445
O39 P11 1.564011 1_555
O39 Sn1 2.050994 1_555
O40 P12 1.562644 1_555
O40 Sn1 2.050464 1_565
O41 S1 1.502833 1_555
O41 Sn1 2.140668 1_665
O42 P5 1.537014 1_555
O43 P6 1.516939 1_555
O44 P7 1.538528 1_555
O45 P8 1.522273 1_555
O46 P9 1.544140 1_555
O47 P10 1.544517 1_555
O48 P4 1.573106 1_545
O48 Sn2 2.099562 1_555
O49 P2 1.546487 1_555
O49 Sn2 2.028211 1_555
O50 P3 1.569414 1_655
O50 Sn2 2.063813 1_555
O51 P0 1.561690 1_555
O51 Sn3 2.027916 1_555
O52 P1 1.563217 1_655
O52 Sn3 2.061482 1_555
O53 S0 1.498115 1_545
O53 Sn3 2.135983 1_555
O54 S1 1.501031 1_555
O54 Sn4 2.148458 1_555
O55 P11 1.564023 1_655
O55 Sn4 2.060961 1_555
O56 P12 1.565110 1_545
O56 Sn4 2.044768 1_555
O57 P13 1.564966 1_545
O57 Sn5 2.048898 1_555
O58 S2 1.499526 1_555
O58 Sn5 2.148453 1_555
O59 P14 1.567607 1_655
O59 Sn5 2.054822 1_555
O60 P10 1.542419 1_555
O61 P8 1.541868 1_455
O62 P9 1.520490 1_565
O63 P6 1.543493 1_565
O64 P7 1.540580 1_555
O65 P5 1.523032 1_455
O66 S0 1.469086 1_555
O67 P0 1.533849 1_555
O68 P1 1.536605 1_555
O69 P2 1.542889 1_555
O70 P3 1.544992 1_555
O71 P4 1.528238 1_555
