# generated using pymatgen
data_Na4NbAl(SiO4)3
_symmetry_space_group_name_H-M   'P 1'
_cell_length_a   9.01877902
_cell_length_b   9.01877871
_cell_length_c   21.95583689
_cell_angle_alpha   90.00000000
_cell_angle_beta   90.00000000
_cell_angle_gamma   120.00000112
_symmetry_Int_Tables_number   1
_chemical_formula_structural   Na4NbAl(SiO4)3
_chemical_formula_sum   'Na24 Nb6 Al6 Si18 O72'
_cell_volume   1546.59321158
_cell_formula_units_Z   6
loop_
 _symmetry_equiv_pos_site_id
 _symmetry_equiv_pos_as_xyz
  1  'x, y, z'
loop_
 _atom_site_type_symbol
 _atom_site_label
 _atom_site_symmetry_multiplicity
 _atom_site_fract_x
 _atom_site_fract_y
 _atom_site_fract_z
 _atom_site_occupancy
  Na  Na0  1  0.63519244  0.00971840  0.24696571  1
  Na  Na1  1  0.37452596  0.36480756  0.24696571  1
  Na  Na2  1  0.99028160  0.62547404  0.24696571  1
  Na  Na3  1  0.63519244  0.62547404  0.74696571  1
  Na  Na4  1  0.99028160  0.36480756  0.74696571  1
  Na  Na5  1  0.37452596  0.00971840  0.74696571  1
  Na  Na6  1  0.30185944  0.34305140  0.58029871  1
  Na  Na7  1  0.04119296  0.69814056  0.58029871  1
  Na  Na8  1  0.65694860  0.95880704  0.58029871  1
  Na  Na9  1  0.30185944  0.95880704  0.08029871  1
  Na  Na10  1  0.65694860  0.69814056  0.08029871  1
  Na  Na11  1  0.04119296  0.34305140  0.08029871  1
  Na  Na12  1  0.96852544  0.67638540  0.91363271  1
  Na  Na13  1  0.70785896  0.03147456  0.91363271  1
  Na  Na14  1  0.32361460  0.29214104  0.91363271  1
  Na  Na15  1  0.96852544  0.29214104  0.41363271  1
  Na  Na16  1  0.32361460  0.03147456  0.41363271  1
  Na  Na17  1  0.70785896  0.67638540  0.41363271  1
  Na  Na18  1  0.00000000  -0.00000000  0.49440154  1
  Na  Na19  1  0.00000000  -0.00000000  0.99440154  1
  Na  Na20  1  0.66666700  0.33333300  0.82773454  1
  Na  Na21  1  0.66666700  0.33333300  0.32773454  1
  Na  Na22  1  0.33333300  0.66666700  0.16106854  1
  Na  Na23  1  0.33333300  0.66666700  0.66106854  1
  Nb  Nb0  1  0.00000000  -0.00000000  0.64571453  1
  Nb  Nb1  1  0.00000000  -0.00000000  0.14571453  1
  Nb  Nb2  1  0.66666700  0.33333300  0.97904753  1
  Nb  Nb3  1  0.66666700  0.33333300  0.47904753  1
  Nb  Nb4  1  0.33333300  0.66666700  0.31238153  1
  Nb  Nb5  1  0.33333300  0.66666700  0.81238153  1
  Al  Al0  1  0.00000000  -0.00000000  0.35326857  1
  Al  Al1  1  0.00000000  -0.00000000  0.85326857  1
  Al  Al2  1  0.66666700  0.33333300  0.68660157  1
  Al  Al3  1  0.66666700  0.33333300  0.18660157  1
  Al  Al4  1  0.33333300  0.66666700  0.01993557  1
  Al  Al5  1  0.33333300  0.66666700  0.51993557  1
  Si  Si0  1  0.29289701  0.00746850  0.25297513  1
  Si  Si1  1  0.71457149  0.70710299  0.25297513  1
  Si  Si2  1  0.99253150  0.28542851  0.25297513  1
  Si  Si3  1  0.29289701  0.28542851  0.75297513  1
  Si  Si4  1  0.99253150  0.70710299  0.75297513  1
  Si  Si5  1  0.71457149  0.00746850  0.75297513  1
  Si  Si6  1  0.95956401  0.34080150  0.58630813  1
  Si  Si7  1  0.38123849  0.04043599  0.58630813  1
  Si  Si8  1  0.65919850  0.61876151  0.58630813  1
  Si  Si9  1  0.95956401  0.61876151  0.08630813  1
  Si  Si10  1  0.65919850  0.04043599  0.08630813  1
  Si  Si11  1  0.38123849  0.34080150  0.08630813  1
  Si  Si12  1  0.62623001  0.67413550  0.91964213  1
  Si  Si13  1  0.04790449  0.37376999  0.91964213  1
  Si  Si14  1  0.32586450  0.95209551  0.91964213  1
  Si  Si15  1  0.62623001  0.95209551  0.41964213  1
  Si  Si16  1  0.32586450  0.37376999  0.41964213  1
  Si  Si17  1  0.04790449  0.67413550  0.41964213  1
  O  O0  1  0.19865753  0.03388504  0.31119733  1
  O  O1  1  0.83522751  0.80134247  0.31119733  1
  O  O2  1  0.96611496  0.16477249  0.31119733  1
  O  O3  1  0.19865753  0.16477249  0.81119733  1
  O  O4  1  0.96611496  0.80134247  0.81119733  1
  O  O5  1  0.83522751  0.03388504  0.81119733  1
  O  O6  1  0.80007921  0.96777887  0.69176313  1
  O  O7  1  0.16769966  0.19992079  0.69176313  1
  O  O8  1  0.03222113  0.83230034  0.69176313  1
  O  O9  1  0.80007921  0.83230034  0.19176313  1
  O  O10  1  0.03222113  0.19992079  0.19176313  1
  O  O11  1  0.16769966  0.96777887  0.19176313  1
  O  O12  1  0.86532453  0.36721804  0.64453033  1
  O  O13  1  0.50189451  0.13467547  0.64453033  1
  O  O14  1  0.63278196  0.49810549  0.64453033  1
  O  O15  1  0.86532453  0.49810549  0.14453033  1
  O  O16  1  0.63278196  0.13467547  0.14453033  1
  O  O17  1  0.50189451  0.36721804  0.14453033  1
  O  O18  1  0.46674621  0.30111187  0.02509613  1
  O  O19  1  0.83436666  0.53325379  0.02509613  1
  O  O20  1  0.69888813  0.16563334  0.02509613  1
  O  O21  1  0.46674621  0.16563334  0.52509613  1
  O  O22  1  0.69888813  0.53325379  0.52509613  1
  O  O23  1  0.83436666  0.30111187  0.52509613  1
  O  O24  1  0.53199053  0.70055204  0.97786433  1
  O  O25  1  0.16856051  0.46800947  0.97786433  1
  O  O26  1  0.29944796  0.83143949  0.97786433  1
  O  O27  1  0.53199053  0.83143949  0.47786433  1
  O  O28  1  0.29944796  0.46800947  0.47786433  1
  O  O29  1  0.16856051  0.70055204  0.47786433  1
  O  O30  1  0.13341221  0.63444587  0.35843013  1
  O  O31  1  0.50103266  0.86658779  0.35843013  1
  O  O32  1  0.36555413  0.49896734  0.35843013  1
  O  O33  1  0.13341221  0.49896734  0.85843013  1
  O  O34  1  0.36555413  0.86658779  0.85843013  1
  O  O35  1  0.50103266  0.63444587  0.85843013  1
  O  O36  1  0.02466440  0.84062064  0.41161027  1
  O  O37  1  0.81595624  0.97533560  0.41161027  1
  O  O38  1  0.15937936  0.18404376  0.41161027  1
  O  O39  1  0.02466440  0.18404376  0.91161027  1
  O  O40  1  0.15937936  0.97533560  0.91161027  1
  O  O41  1  0.81595624  0.84062064  0.91161027  1
  O  O42  1  0.97454189  0.16374666  0.58769356  1
  O  O43  1  0.18920478  0.02545811  0.58769356  1
  O  O44  1  0.83625334  0.81079522  0.58769356  1
  O  O45  1  0.97454189  0.81079522  0.08769356  1
  O  O46  1  0.83625334  0.02545811  0.08769356  1
  O  O47  1  0.18920478  0.16374666  0.08769356  1
  O  O48  1  0.69133140  0.17395364  0.74494327  1
  O  O49  1  0.48262324  0.30866860  0.74494327  1
  O  O50  1  0.82604636  0.51737676  0.74494327  1
  O  O51  1  0.69133140  0.51737676  0.24494327  1
  O  O52  1  0.82604636  0.30866860  0.24494327  1
  O  O53  1  0.48262324  0.17395364  0.24494327  1
  O  O54  1  0.64120889  0.49707966  0.92102656  1
  O  O55  1  0.85587178  0.35879111  0.92102656  1
  O  O56  1  0.50292034  0.14412822  0.92102656  1
  O  O57  1  0.64120889  0.14412822  0.42102656  1
  O  O58  1  0.50292034  0.35879111  0.42102656  1
  O  O59  1  0.85587178  0.49707966  0.42102656  1
  O  O60  1  0.35799740  0.50728764  0.07827727  1
  O  O61  1  0.14928924  0.64200260  0.07827727  1
  O  O62  1  0.49271236  0.85071076  0.07827727  1
  O  O63  1  0.35799740  0.85071076  0.57827727  1
  O  O64  1  0.49271236  0.64200260  0.57827727  1
  O  O65  1  0.14928924  0.50728764  0.57827727  1
  O  O66  1  0.30787489  0.83041366  0.25436056  1
  O  O67  1  0.52253778  0.69212511  0.25436056  1
  O  O68  1  0.16958634  0.47746222  0.25436056  1
  O  O69  1  0.30787489  0.47746222  0.75436056  1
  O  O70  1  0.16958634  0.69212511  0.75436056  1
  O  O71  1  0.52253778  0.83041366  0.75436056  1
loop_
_geom_bond_atom_site_label_1
_geom_bond_atom_site_label_2
_geom_bond_distance
_geom_bond_site_symmetry_2
Na0 O52 2.364999 1_555
Na0 O53 2.475356 1_555
Na0 O67 2.520459 1_545
Na0 O16 2.520567 1_555
Na0 O66 2.565545 1_545
Na0 O31 2.749125 1_545
Na0 O9 2.936010 1_545
Na0 O2 2.945869 1_555
Na1 O53 2.365006 1_555
Na1 O51 2.475364 1_555
Na1 O68 2.520467 1_555
Na1 O17 2.520571 1_555
Na1 O67 2.565545 1_555
Na1 O32 2.749127 1_555
Na1 O10 2.936010 1_555
Na1 O0 2.945869 1_555
Na2 O51 2.364998 1_555
Na2 O52 2.475364 1_555
Na2 O66 2.520460 1_655
Na2 O15 2.520569 1_555
Na2 O68 2.565537 1_655
Na2 O30 2.749123 1_655
Na2 O11 2.936010 1_655
Na2 O1 2.945869 1_555
Na3 O50 2.365006 1_555
Na3 O49 2.475364 1_555
Na3 O71 2.520467 1_555
Na3 O14 2.520571 1_555
Na3 O69 2.565545 1_555
Na3 O35 2.749127 1_555
Na3 O6 2.936010 1_555
Na3 O4 2.945869 1_555
Na4 O48 2.364999 1_555
Na4 O50 2.475356 1_555
Na4 O69 2.520459 1_655
Na4 O12 2.520567 1_555
Na4 O70 2.565545 1_655
Na4 O33 2.749125 1_655
Na4 O7 2.936010 1_655
Na4 O5 2.945869 1_555
Na5 O49 2.364998 1_555
Na5 O48 2.475364 1_555
Na5 O70 2.520460 1_545
Na5 O13 2.520569 1_555
Na5 O71 2.565537 1_545
Na5 O34 2.749123 1_545
Na5 O8 2.936010 1_545
Na5 O3 2.945869 1_555
Na6 O64 2.365004 1_555
Na6 O65 2.475371 1_555
Na6 O43 2.520459 1_555
Na6 O28 2.520553 1_555
Na6 O42 2.565545 1_455
Na6 O7 2.749125 1_555
Na6 O21 2.936010 1_555
Na6 O14 2.945869 1_555
Na7 O65 2.364991 1_555
Na7 O63 2.475355 1_555
Na7 O44 2.520467 1_455
Na7 O29 2.520545 1_555
Na7 O43 2.565545 1_565
Na7 O8 2.749127 1_555
Na7 O22 2.936010 1_455
Na7 O12 2.945869 1_455
Na8 O63 2.365007 1_555
Na8 O64 2.475356 1_555
Na8 O42 2.520460 1_565
Na8 O27 2.520549 1_555
Na8 O44 2.565537 1_555
Na8 O6 2.749123 1_555
Na8 O23 2.936010 1_565
Na8 O13 2.945869 1_565
Na9 O62 2.364991 1_555
Na9 O61 2.475355 1_555
Na9 O47 2.520467 1_565
Na9 O26 2.520545 1_554
Na9 O45 2.565545 1_455
Na9 O11 2.749127 1_555
Na9 O18 2.936010 1_565
Na9 O16 2.945869 1_565
Na10 O60 2.365005 1_555
Na10 O62 2.475371 1_555
Na10 O45 2.520459 1_555
Na10 O24 2.520554 1_554
Na10 O46 2.565545 1_565
Na10 O9 2.749125 1_555
Na10 O19 2.936010 1_555
Na10 O17 2.945869 1_555
Na11 O61 2.365007 1_555
Na11 O60 2.475356 1_555
Na11 O46 2.520460 1_455
Na11 O25 2.520549 1_554
Na11 O47 2.565537 1_555
Na11 O10 2.749123 1_555
Na11 O20 2.936010 1_455
Na11 O15 2.945869 1_455
Na12 O40 2.364999 1_655
Na12 O41 2.475356 1_555
Na12 O55 2.520467 1_555
Na12 O4 2.520567 1_555
Na12 O54 2.565536 1_555
Na12 O19 2.749105 1_556
Na12 O33 2.936010 1_655
Na12 O26 2.945869 1_655
Na13 O41 2.365006 1_545
Na13 O39 2.475364 1_655
Na13 O56 2.520451 1_555
Na13 O5 2.520571 1_555
Na13 O55 2.565535 1_555
Na13 O20 2.749101 1_556
Na13 O34 2.936010 1_545
Na13 O24 2.945869 1_545
Na14 O39 2.364998 1_555
Na14 O40 2.475364 1_545
Na14 O54 2.520464 1_555
Na14 O3 2.520569 1_555
Na14 O56 2.565552 1_555
Na14 O18 2.749109 1_556
Na14 O35 2.936010 1_555
Na14 O25 2.945869 1_555
Na15 O38 2.365006 1_655
Na15 O37 2.475364 1_545
Na15 O59 2.520451 1_555
Na15 O2 2.520571 1_555
Na15 O57 2.565535 1_555
Na15 O23 2.749101 1_555
Na15 O30 2.936010 1_655
Na15 O28 2.945869 1_655
Na16 O36 2.364999 1_545
Na16 O38 2.475356 1_555
Na16 O57 2.520468 1_555
Na16 O0 2.520567 1_555
Na16 O58 2.565536 1_555
Na16 O21 2.749105 1_555
Na16 O31 2.936010 1_545
Na16 O29 2.945869 1_545
Na17 O37 2.364998 1_555
Na17 O36 2.475364 1_655
Na17 O58 2.520464 1_555
Na17 O1 2.520569 1_555
Na17 O59 2.565552 1_555
Na17 O22 2.749109 1_555
Na17 O32 2.936010 1_555
Na17 O27 2.945869 1_555
Na18 O38 2.395742 1_555
Na18 O36 2.395742 1_545
Na18 O37 2.395742 1_445
Na18 O42 2.601589 1_455
Na18 O44 2.601589 1_445
Na18 O43 2.601589 1_555
Na19 O39 2.395742 1_555
Na19 O41 2.395742 1_445
Na19 O40 2.395742 1_545
Na19 O46 2.601589 1_456
Na19 O47 2.601589 1_556
Na19 O45 2.601589 1_446
Na20 O50 2.395742 1_555
Na20 O48 2.395742 1_555
Na20 O49 2.395742 1_555
Na20 O54 2.601589 1_555
Na20 O56 2.601589 1_555
Na20 O55 2.601589 1_555
Na21 O51 2.395742 1_555
Na21 O53 2.395742 1_555
Na21 O52 2.395742 1_555
Na21 O58 2.601589 1_555
Na21 O59 2.601589 1_555
Na21 O57 2.601589 1_555
Na22 O62 2.395742 1_555
Na22 O60 2.395742 1_555
Na22 O61 2.395742 1_555
Na22 O66 2.601589 1_555
Na22 O68 2.601589 1_555
Na22 O67 2.601589 1_555
Na23 O63 2.395742 1_555
Na23 O65 2.395742 1_555
Na23 O64 2.395742 1_555
Na23 O70 2.601589 1_555
Na23 O71 2.601589 1_555
Na23 O69 2.601589 1_555
Nb0 O7 1.957969 1_555
Nb0 O8 1.957969 1_545
Nb0 O6 1.957969 1_445
Nb0 O42 2.048300 1_455
Nb0 O44 2.048300 1_445
Nb0 O43 2.048300 1_555
Nb1 O10 1.957969 1_555
Nb1 O9 1.957969 1_445
Nb1 O11 1.957969 1_545
Nb1 O46 2.048300 1_455
Nb1 O47 2.048300 1_555
Nb1 O45 2.048300 1_445
Nb2 O19 1.957969 1_556
Nb2 O20 1.957969 1_556
Nb2 O18 1.957969 1_556
Nb2 O54 2.048300 1_555
Nb2 O56 2.048300 1_555
Nb2 O55 2.048300 1_555
Nb3 O22 1.957969 1_555
Nb3 O21 1.957969 1_555
Nb3 O23 1.957969 1_555
Nb3 O58 2.048300 1_555
Nb3 O59 2.048300 1_555
Nb3 O57 2.048300 1_555
Nb4 O31 1.957969 1_555
Nb4 O32 1.957969 1_555
Nb4 O30 1.957969 1_555
Nb4 O66 2.048300 1_555
Nb4 O68 2.048300 1_555
Nb4 O67 2.048300 1_555
Nb5 O34 1.957969 1_555
Nb5 O33 1.957969 1_555
Nb5 O35 1.957969 1_555
Nb5 O70 2.048300 1_555
Nb5 O71 2.048300 1_555
Nb5 O69 2.048300 1_555
Al0 O1 1.899764 1_445
Al0 O2 1.899764 1_455
Al0 O0 1.899764 1_555
Al0 O38 2.018953 1_555
Al0 O36 2.018953 1_545
Al0 O37 2.018953 1_445
Al1 O4 1.899764 1_445
Al1 O3 1.899764 1_555
Al1 O5 1.899764 1_455
Al1 O39 2.018953 1_555
Al1 O41 2.018953 1_445
Al1 O40 2.018953 1_545
Al2 O13 1.899764 1_555
Al2 O14 1.899764 1_555
Al2 O12 1.899764 1_555
Al2 O50 2.018953 1_555
Al2 O48 2.018953 1_555
Al2 O49 2.018953 1_555
Al3 O16 1.899764 1_555
Al3 O15 1.899764 1_555
Al3 O17 1.899764 1_555
Al3 O51 2.018953 1_555
Al3 O53 2.018953 1_555
Al3 O52 2.018953 1_555
Al4 O25 1.899764 1_554
Al4 O26 1.899764 1_554
Al4 O24 1.899764 1_554
Al4 O62 2.018953 1_555
Al4 O60 2.018953 1_555
Al4 O61 2.018953 1_555
Al5 O28 1.899764 1_555
Al5 O27 1.899764 1_555
Al5 O29 1.899764 1_555
Al5 O63 2.018953 1_555
Al5 O65 2.018953 1_555
Al5 O64 2.018953 1_555
O0 Si0 1.617318 1_555
O1 Si1 1.617318 1_555
O2 Si2 1.617318 1_555
O3 Si3 1.617318 1_555
O4 Si4 1.617318 1_555
O5 Si5 1.617318 1_555
O6 Si5 1.674848 1_565
O7 Si3 1.674848 1_555
O8 Si4 1.674848 1_455
O9 Si1 1.674848 1_555
O10 Si2 1.674848 1_455
O11 Si0 1.674848 1_565
O12 Si6 1.617318 1_555
O13 Si7 1.617318 1_555
O14 Si8 1.617318 1_555
O15 Si9 1.617318 1_555
O16 Si10 1.617318 1_555
O17 Si11 1.617318 1_555
O18 Si11 1.674848 1_555
O19 Si9 1.674848 1_555
O20 Si10 1.674848 1_555
O21 Si7 1.674848 1_555
O22 Si8 1.674848 1_555
O23 Si6 1.674848 1_555
O24 Si12 1.617318 1_555
O25 Si13 1.617318 1_555
O26 Si14 1.617318 1_555
O27 Si15 1.617318 1_555
O28 Si16 1.617318 1_555
O29 Si17 1.617318 1_555
O30 Si17 1.674848 1_555
O31 Si15 1.674848 1_555
O32 Si16 1.674848 1_555
O33 Si13 1.674848 1_555
O34 Si14 1.674848 1_555
O35 Si12 1.674848 1_555
O36 Si17 1.626105 1_555
O37 Si15 1.626114 1_555
O38 Si16 1.626110 1_555
O39 Si13 1.626114 1_555
O40 Si14 1.626105 1_555
O41 Si12 1.626110 1_555
O42 Si6 1.668743 1_555
O43 Si7 1.668752 1_555
O44 Si8 1.668748 1_555
O45 Si9 1.668752 1_555
O46 Si10 1.668743 1_555
O47 Si11 1.668748 1_555
O48 Si5 1.626105 1_555
O49 Si3 1.626114 1_555
O50 Si4 1.626110 1_555
O51 Si1 1.626114 1_555
O52 Si2 1.626105 1_555
O53 Si0 1.626110 1_555
O54 Si12 1.668757 1_555
O55 Si13 1.668739 1_655
O56 Si14 1.668747 1_545
O57 Si15 1.668739 1_545
O58 Si16 1.668757 1_555
O59 Si17 1.668747 1_655
O60 Si11 1.626117 1_555
O61 Si9 1.626099 1_455
O62 Si10 1.626106 1_565
O63 Si7 1.626099 1_565
O64 Si8 1.626117 1_555
O65 Si6 1.626106 1_455
O66 Si0 1.668743 1_565
O67 Si1 1.668752 1_555
O68 Si2 1.668748 1_455
O69 Si3 1.668752 1_555
O70 Si4 1.668743 1_455
O71 Si5 1.668748 1_565
