# generated using pymatgen
data_MgV4(OF2)4
_symmetry_space_group_name_H-M   'P 1'
_cell_length_a   5.18947830
_cell_length_b   9.69469083
_cell_length_c   5.30993206
_cell_angle_alpha   106.14823082
_cell_angle_beta   120.68481413
_cell_angle_gamma   72.06447800
_symmetry_Int_Tables_number   1
_chemical_formula_structural   MgV4(OF2)4
_chemical_formula_sum   'Mg1 V4 O4 F8'
_cell_volume   216.17423789
_cell_formula_units_Z   1
loop_
 _symmetry_equiv_pos_site_id
 _symmetry_equiv_pos_as_xyz
  1  'x, y, z'
loop_
 _atom_site_type_symbol
 _atom_site_label
 _atom_site_symmetry_multiplicity
 _atom_site_fract_x
 _atom_site_fract_y
 _atom_site_fract_z
 _atom_site_occupancy
  Mg  Mg0  1  0.34820800  0.95002500  0.64354700  1
  V  V0  1  0.00091500  0.99817600  0.00615500  1
  V  V1  1  0.72157200  0.73266700  0.26740800  1
  V  V2  1  0.50596000  0.49631400  0.50082600  1
  V  V3  1  0.28721400  0.26680500  0.73535600  1
  O  O0  1  0.37021900  0.87363300  0.25717200  1
  O  O1  1  0.28927600  0.37595600  0.53558000  1
  O  O2  1  0.72642500  0.61902200  0.46055300  1
  O  O3  1  0.60446600  0.10715600  0.77176200  1
  F  F0  1  0.11972900  0.62455200  0.26062000  1
  F  F1  1  0.03063100  0.11993600  0.39876100  1
  F  F2  1  0.51004900  0.36151600  0.13590400  1
  F  F3  1  0.73229000  0.86721400  0.99028300  1
  F  F4  1  0.22313300  0.10735200  0.94621300  1
  F  F5  1  0.50016200  0.63490300  0.86749300  1
  F  F6  1  0.00432900  0.87081900  0.60669300  1
  F  F7  1  0.90042100  0.37966800  0.75317400  1
loop_
_geom_bond_atom_site_label_1
_geom_bond_atom_site_label_2
_geom_bond_distance
_geom_bond_site_symmetry_2
Mg0 O0 2.027955 1_555
Mg0 O3 2.073472 1_565
O0 V1 1.897539 1_555
O0 V0 1.941704 1_555
O1 V3 1.699446 1_555
O1 V2 1.949275 1_555
O2 V1 1.688609 1_555
O2 V2 1.999837 1_555
O3 V3 1.848143 1_555
O3 V0 1.917632 1_646
F0 V2 1.981901 1_555
F0 V1 2.022462 1_455
F1 V0 2.044105 1_545
F1 V3 2.077962 1_555
F1 Mg0 2.109880 1_545
F2 V3 1.939425 1_554
F2 V2 2.019727 1_555
F3 Mg0 2.024436 1_555
F3 V0 2.114951 1_656
F3 V1 2.250730 1_556
F4 V0 1.966009 1_546
F4 Mg0 2.102847 1_545
F4 V3 2.326625 1_555
F5 V1 1.946478 1_556
F5 V2 2.043679 1_555
F6 Mg0 2.053416 1_555
F6 V1 2.088731 1_455
F6 V0 2.142900 1_556
F7 V2 1.970354 1_555
F7 V3 2.004695 1_655
