# generated using pymatgen
data_Cs2NaMn(CN)6
_symmetry_space_group_name_H-M   'P 1'
_cell_length_a   7.91472200
_cell_length_b   7.63889100
_cell_length_c   13.40433795
_cell_angle_alpha   55.46061196
_cell_angle_beta   90.00000000
_cell_angle_gamma   90.00000000
_symmetry_Int_Tables_number   1
_chemical_formula_structural   Cs2NaMn(CN)6
_chemical_formula_sum   'Cs4 Na2 Mn2 C12 N12'
_cell_volume   667.57446888
_cell_formula_units_Z   2
loop_
 _symmetry_equiv_pos_site_id
 _symmetry_equiv_pos_as_xyz
  1  'x, y, z'
loop_
 _atom_site_type_symbol
 _atom_site_label
 _atom_site_symmetry_multiplicity
 _atom_site_fract_x
 _atom_site_fract_y
 _atom_site_fract_z
 _atom_site_occupancy
  Cs  Cs0  1  0.55005700  0.73869400  0.24973300  1
  Cs  Cs1  1  0.05005700  0.26130600  0.25026700  1
  Cs  Cs2  1  0.44994300  0.26130600  0.75026700  1
  Cs  Cs3  1  0.94994300  0.73869400  0.74973300  1
  Na  Na0  1  0.00000000  0.50000000  0.50000000  1
  Na  Na1  1  0.50000000  0.50000000  0.00000000  1
  Mn  Mn0  1  0.00000000  0.00000000  0.00000000  1
  Mn  Mn1  1  0.50000000  0.00000000  0.50000000  1
  C  C0  1  0.14258900  0.23116900  0.97673900  1
  C  C1  1  0.35741100  0.23116900  0.47673900  1
  C  C2  1  0.85741100  0.76883100  0.02326100  1
  C  C3  1  0.64258900  0.76883100  0.52326100  1
  C  C4  1  0.29512900  0.83248400  0.52666400  1
  C  C5  1  0.79512900  0.16751600  0.97333600  1
  C  C6  1  0.70487100  0.16751600  0.47333600  1
  C  C7  1  0.20487100  0.83248400  0.02666400  1
  C  C8  1  0.01032100  0.12861200  0.82520000  1
  C  C9  1  0.51032100  0.87138800  0.67480000  1
  C  C10  1  0.98967900  0.87138800  0.17480000  1
  C  C11  1  0.48967900  0.12861200  0.32520000  1
  N  N0  1  0.01860700  0.20462000  0.72048800  1
  N  N1  1  0.51860700  0.79538000  0.77951200  1
  N  N2  1  0.98139300  0.79538000  0.27951200  1
  N  N3  1  0.48139300  0.20462000  0.22048800  1
  N  N4  1  0.17295100  0.73155000  0.54285900  1
  N  N5  1  0.32704900  0.73155000  0.04285900  1
  N  N6  1  0.82704900  0.26845000  0.45714100  1
  N  N7  1  0.67295100  0.26845000  0.95714100  1
  N  N8  1  0.22783100  0.36983500  0.96280100  1
  N  N9  1  0.72783100  0.63016500  0.53719900  1
  N  N10  1  0.77216900  0.63016500  0.03719900  1
  N  N11  1  0.27216900  0.36983500  0.46280100  1
loop_
_geom_bond_atom_site_label_1
_geom_bond_atom_site_label_2
_geom_bond_distance
_geom_bond_site_symmetry_2
Cs0 N5 3.313540 1_555
Cs0 N3 3.396250 1_565
Cs0 N11 3.436325 1_555
Cs0 N2 3.492504 1_555
Cs1 N6 3.313540 1_455
Cs1 N2 3.396250 1_445
Cs1 N10 3.436325 1_455
Cs1 N3 3.492504 1_555
Cs2 N7 3.313540 1_555
Cs2 N1 3.396250 1_545
Cs2 N9 3.436325 1_555
Cs2 N0 3.492504 1_555
Cs3 N4 3.313540 1_655
Cs3 N0 3.396250 1_665
Cs3 N8 3.436325 1_655
Cs3 N1 3.492504 1_555
C0 N8 1.178004 1_555
C0 Mn0 1.965913 1_556
C1 N11 1.178004 1_555
C1 Mn1 1.965913 1_555
C2 N10 1.178004 1_555
C2 Mn0 1.965913 1_665
C3 N9 1.178004 1_555
C3 Mn1 1.965913 1_565
C4 N4 1.177670 1_555
C4 Mn1 1.968717 1_565
C5 N7 1.177670 1_555
C5 Mn0 1.968717 1_656
C6 N6 1.177670 1_555
C6 Mn1 1.968717 1_555
C7 N5 1.177670 1_555
C7 Mn0 1.968717 1_565
C8 N0 1.177874 1_555
C8 Mn0 1.962550 1_556
C9 N1 1.177874 1_555
C9 Mn1 1.962550 1_565
C10 N2 1.177874 1_555
C10 Mn0 1.962550 1_665
C11 N3 1.177874 1_555
C11 Mn1 1.962550 1_555
N0 Na0 2.507174 1_555
N1 Na1 2.507174 1_556
N2 Na0 2.507174 1_655
N3 Na1 2.507174 1_555
N4 Na0 2.546506 1_555
N5 Na1 2.546506 1_555
N6 Na0 2.546506 1_655
N7 Na1 2.546506 1_556
N8 Na1 2.537681 1_556
N9 Na0 2.537681 1_655
N10 Na1 2.537681 1_555
N11 Na0 2.537681 1_555
