# generated using pymatgen
data_CaHBr
_symmetry_space_group_name_H-M   'P 1'
_cell_length_a   3.83728717
_cell_length_b   3.83728717
_cell_length_c   8.27880997
_cell_angle_alpha   90.00000000
_cell_angle_beta   90.00000000
_cell_angle_gamma   90.00000000
_symmetry_Int_Tables_number   1
_chemical_formula_structural   CaHBr
_chemical_formula_sum   'Ca2 H2 Br2'
_cell_volume   121.90359607
_cell_formula_units_Z   2
loop_
 _symmetry_equiv_pos_site_id
 _symmetry_equiv_pos_as_xyz
  1  'x, y, z'
loop_
 _atom_site_type_symbol
 _atom_site_label
 _atom_site_symmetry_multiplicity
 _atom_site_fract_x
 _atom_site_fract_y
 _atom_site_fract_z
 _atom_site_occupancy
  Ca  Ca0  1  -0.00000000  0.50000000  0.15678467  1
  Ca  Ca1  1  0.50000000  -0.00000000  0.84321533  1
  H  H0  1  0.50000000  0.50000000  -0.00000000  1
  H  H1  1  -0.00000000  0.00000000  -0.00000000  1
  Br  Br0  1  0.00000000  0.50000000  0.68083718  1
  Br  Br1  1  0.50000000  0.00000000  0.31916282  1
loop_
_geom_bond_atom_site_label_1
_geom_bond_atom_site_label_2
_geom_bond_distance
_geom_bond_site_symmetry_2
Ca0 H1 2.316457 1_555
Ca0 H1 2.316457 1_565
Ca0 H0 2.316457 1_455
Ca0 H0 2.316457 1_555
Ca1 H1 2.316457 1_556
Ca1 H0 2.316457 1_546
Ca1 H0 2.316457 1_556
Ca1 H1 2.316457 1_656
Br0 Ca1 3.028122 1_555
Br0 Ca1 3.028122 1_465
Br0 Ca1 3.028122 1_565
Br0 Ca1 3.028122 1_455
Br1 Ca0 3.028122 1_645
Br1 Ca0 3.028122 1_655
Br1 Ca0 3.028122 1_545
Br1 Ca0 3.028122 1_555
