# generated using pymatgen
data_Na5Nb2Zn2SiP5O24
_symmetry_space_group_name_H-M   'P 1'
_cell_length_a   8.93349294
_cell_length_b   9.00396811
_cell_length_c   22.35143884
_cell_angle_alpha   89.87347425
_cell_angle_beta   89.81631807
_cell_angle_gamma   119.89041186
_symmetry_Int_Tables_number   1
_chemical_formula_structural   Na5Nb2Zn2SiP5O24
_chemical_formula_sum   'Na15 Nb6 Zn6 Si3 P15 O72'
_cell_volume   1558.70336385
_cell_formula_units_Z   3
loop_
 _symmetry_equiv_pos_site_id
 _symmetry_equiv_pos_as_xyz
  1  'x, y, z'
loop_
 _atom_site_type_symbol
 _atom_site_label
 _atom_site_symmetry_multiplicity
 _atom_site_fract_x
 _atom_site_fract_y
 _atom_site_fract_z
 _atom_site_occupancy
  Na  Na0  1  0.62120929  0.00304583  0.25080154  1
  Na  Na1  1  0.99838787  0.61519138  0.24907344  1
  Na  Na2  1  0.34743167  0.99933002  0.75185171  1
  Na  Na3  1  0.29537533  0.31184677  0.58591845  1
  Na  Na4  1  0.02252404  0.70927230  0.58814116  1
  Na  Na5  1  0.68395823  0.97684443  0.59027008  1
  Na  Na6  1  0.64971981  0.68845810  0.07764791  1
  Na  Na7  1  0.04212212  0.35161229  0.07926735  1
  Na  Na8  1  0.98015570  0.68224068  0.91143983  1
  Na  Na9  1  0.00573152  0.00069639  0.50615492  1
  Na  Na10  1  0.01142067  0.01292808  0.98685272  1
  Na  Na11  1  0.66971134  0.32956001  0.83276719  1
  Na  Na12  1  0.65514591  0.33535030  0.33974526  1
  Na  Na13  1  0.32768165  0.66593485  0.16422436  1
  Na  Na14  1  0.33662452  0.65714513  0.66995867  1
  Nb  Nb0  1  0.00371112  0.00306457  0.35798802  1
  Nb  Nb1  1  0.00368709  0.99740288  0.14455661  1
  Nb  Nb2  1  0.66786466  0.32835410  0.68590736  1
  Nb  Nb3  1  0.66401169  0.33147104  0.98049480  1
  Nb  Nb4  1  0.33461829  0.67044491  0.51515759  1
  Nb  Nb5  1  0.34033581  0.66766791  0.81554168  1
  Zn  Zn0  1  0.99740429  0.01273079  0.84742792  1
  Zn  Zn1  1  0.99718947  0.99806658  0.65660513  1
  Zn  Zn2  1  0.66511013  0.33509341  0.18378238  1
  Zn  Zn3  1  0.65974917  0.32978528  0.48040385  1
  Zn  Zn4  1  0.32783568  0.67412947  0.01601763  1
  Zn  Zn5  1  0.33412289  0.65928657  0.31651973  1
  Si  Si0  1  0.71274199  0.99981538  0.74898028  1
  Si  Si1  1  0.36845114  0.03970707  0.58070940  1
  Si  Si2  1  0.96375461  0.62420662  0.08685096  1
  P  P0  1  0.29354915  0.00396561  0.25106961  1
  P  P1  1  0.70948692  0.71130171  0.25154378  1
  P  P2  1  0.00326834  0.29035476  0.25016877  1
  P  P3  1  0.29474410  0.29603016  0.74909154  1
  P  P4  1  0.99786562  0.70096625  0.75209598  1
  P  P5  1  0.95917418  0.33509836  0.57936522  1
  P  P6  1  0.66606967  0.62203358  0.57980101  1
  P  P7  1  0.66344242  0.04026590  0.08741396  1
  P  P8  1  0.37702742  0.33281060  0.08562547  1
  P  P9  1  0.62728425  0.66666250  0.92172172  1
  P  P10  1  0.04261139  0.37024069  0.92055235  1
  P  P11  1  0.33173598  0.96106061  0.91737636  1
  P  P12  1  0.62557688  0.96386498  0.41135862  1
  P  P13  1  0.33829542  0.37663292  0.41384340  1
  P  P14  1  0.03538985  0.66153626  0.41209244  1
  O  O0  1  0.19185277  0.01671142  0.30614383  1
  O  O1  1  0.83155764  0.81622990  0.30490219  1
  O  O2  1  0.98920934  0.17130960  0.30448952  1
  O  O3  1  0.22381803  0.17413482  0.80156543  1
  O  O4  1  0.97012662  0.77522993  0.80861173  1
  O  O5  1  0.82196778  0.03797809  0.80793275  1
  O  O6  1  0.77137534  0.96286437  0.68533599  1
  O  O7  1  0.19747455  0.23335251  0.68979649  1
  O  O8  1  0.04508259  0.81314727  0.69509334  1
  O  O9  1  0.80866259  0.82626096  0.19364809  1
  O  O10  1  0.01655124  0.19356249  0.19290857  1
  O  O11  1  0.17371493  0.98703686  0.19531388  1
  O  O12  1  0.87225908  0.36747668  0.63666225  1
  O  O13  1  0.49625338  0.13003575  0.64128227  1
  O  O14  1  0.63464763  0.50482844  0.63663543  1
  O  O15  1  0.87965521  0.51337450  0.14643625  1
  O  O16  1  0.63955227  0.11510302  0.14498527  1
  O  O17  1  0.48668793  0.36107616  0.14004269  1
  O  O18  1  0.46430672  0.30143007  0.02859196  1
  O  O19  1  0.82839831  0.52754628  0.02739722  1
  O  O20  1  0.69238764  0.16480051  0.03226207  1
  O  O21  1  0.45676487  0.16354992  0.52611141  1
  O  O22  1  0.70019931  0.54434113  0.52587741  1
  O  O23  1  0.84784709  0.30776760  0.52598696  1
  O  O24  1  0.54417703  0.68289089  0.97853646  1
  O  O25  1  0.13654618  0.45047265  0.97846693  1
  O  O26  1  0.30240186  0.84893408  0.97129844  1
  O  O27  1  0.53051068  0.83961276  0.46860899  1
  O  O28  1  0.30724645  0.46470918  0.47203928  1
  O  O29  1  0.16029784  0.69054360  0.46910606  1
  O  O30  1  0.12163744  0.64747881  0.35547725  1
  O  O31  1  0.52297695  0.87879859  0.35538067  1
  O  O32  1  0.35326785  0.48160901  0.35914889  1
  O  O33  1  0.13561695  0.49719477  0.86621902  1
  O  O34  1  0.35890824  0.87216067  0.85980614  1
  O  O35  1  0.50845644  0.64752369  0.86618675  1
  O  O36  1  0.03114455  0.83659875  0.41118400  1
  O  O37  1  0.80520880  0.96661445  0.41048796  1
  O  O38  1  0.16321848  0.19495330  0.41102283  1
  O  O39  1  0.01766490  0.19333634  0.91230239  1
  O  O40  1  0.17314360  0.98039298  0.90819913  1
  O  O41  1  0.81176430  0.81176260  0.91366034  1
  O  O42  1  0.98986733  0.18376928  0.58816889  1
  O  O43  1  0.17384625  0.00487118  0.59097587  1
  O  O44  1  0.81618710  0.80574635  0.58737484  1
  O  O45  1  0.96479899  0.81202609  0.08928371  1
  O  O46  1  0.84330802  0.04070205  0.08840430  1
  O  O47  1  0.19266711  0.16679857  0.08893383  1
  O  O48  1  0.67412299  0.16666343  0.74201697  1
  O  O49  1  0.48426451  0.32428501  0.74085452  1
  O  O50  1  0.83898942  0.51859492  0.74152155  1
  O  O51  1  0.70621674  0.54152426  0.25045006  1
  O  O52  1  0.83251006  0.29246451  0.25149144  1
  O  O53  1  0.46987915  0.16238076  0.24856481  1
  O  O54  1  0.63430484  0.49192667  0.92186068  1
  O  O55  1  0.85909156  0.36489452  0.92297414  1
  O  O56  1  0.50277873  0.14001901  0.92234521  1
  O  O57  1  0.65495275  0.14066743  0.42089614  1
  O  O58  1  0.48862851  0.34876606  0.42070643  1
  O  O59  1  0.85909594  0.51205380  0.42246453  1
  O  O60  1  0.35037762  0.48565973  0.07697899  1
  O  O61  1  0.15056177  0.64488465  0.07837864  1
  O  O62  1  0.52273342  0.85674938  0.07825836  1
  O  O63  1  0.36099803  0.84780468  0.57569974  1
  O  O64  1  0.49200837  0.63124947  0.57583136  1
  O  O65  1  0.14162854  0.50642212  0.57671741  1
  O  O66  1  0.29615245  0.83513064  0.25028936  1
  O  O67  1  0.53936630  0.71150726  0.25132361  1
  O  O68  1  0.16115968  0.46787625  0.25067494  1
  O  O69  1  0.31859044  0.47878942  0.76116354  1
  O  O70  1  0.16254626  0.67743821  0.76008164  1
  O  O71  1  0.50718441  0.83342289  0.75932381  1
loop_
_geom_bond_atom_site_label_1
_geom_bond_atom_site_label_2
_geom_bond_distance
_geom_bond_site_symmetry_2
Na0 O52 2.334925 1_555
Na0 O67 2.347822 1_545
Na0 O53 2.412791 1_555
Na0 O66 2.518534 1_545
Na0 O16 2.541841 1_555
Na0 O31 2.546042 1_545
Na1 O51 2.351050 1_555
Na1 O66 2.397662 1_655
Na1 O68 2.407830 1_655
Na1 O15 2.506806 1_555
Na1 O52 2.519857 1_555
Na1 O30 2.579505 1_655
Na2 O70 2.527160 1_555
Na2 O71 2.534053 1_555
Na2 O48 2.539247 1_565
Na2 O49 2.558444 1_565
Na2 O3 2.581407 1_565
Na2 O8 2.689549 1_555
Na2 O34 2.692630 1_555
Na2 O13 2.768928 1_565
Na3 O42 2.375530 1_455
Na3 O43 2.416222 1_555
Na3 O7 2.453354 1_555
Na3 O64 2.523250 1_555
Na3 O65 2.719679 1_555
Na3 O21 2.750068 1_555
Na3 O28 2.867373 1_555
Na3 O14 2.876159 1_555
Na4 O43 2.308813 1_565
Na4 O44 2.397635 1_455
Na4 O8 2.540696 1_555
Na4 O65 2.543725 1_555
Na4 O63 2.647680 1_555
Na4 O22 2.864683 1_455
Na4 O12 2.882306 1_455
Na4 O29 2.968161 1_555
Na5 O6 2.290890 1_555
Na5 O44 2.363607 1_555
Na5 O42 2.421964 1_565
Na5 O63 2.539053 1_555
Na5 O64 2.723455 1_555
Na5 O13 2.883474 1_565
Na5 O23 2.950557 1_565
Na5 O27 3.025071 1_555
Na6 O62 2.301415 1_555
Na6 O60 2.370487 1_555
Na6 O24 2.401201 1_554
Na6 O45 2.472454 1_555
Na6 O46 2.765302 1_565
Na6 O19 2.865189 1_555
Na6 O17 2.906056 1_555
Na6 O9 2.925747 1_555
Na7 O61 2.315545 1_555
Na7 O60 2.393510 1_555
Na7 O25 2.410528 1_554
Na7 O46 2.464264 1_455
Na7 O47 2.618270 1_555
Na7 O10 2.861025 1_555
Na7 O20 2.913014 1_455
Na7 O15 2.929942 1_455
Na8 O41 2.318150 1_555
Na8 O40 2.360044 1_655
Na8 O4 2.461520 1_555
Na8 O55 2.513092 1_555
Na8 O54 2.693211 1_555
Na8 O33 2.833936 1_655
Na8 O26 2.838532 1_655
Na8 O19 2.928311 1_556
Na9 O43 2.411141 1_555
Na9 O44 2.499562 1_445
Na9 O42 2.518360 1_455
Na9 O38 2.659276 1_555
Na9 O36 2.661905 1_545
Na9 O37 2.712016 1_445
Na10 O39 2.305531 1_555
Na10 O40 2.381507 1_545
Na10 O41 2.439320 1_445
Na10 O47 2.747534 1_556
Na10 O46 2.797341 1_456
Na10 O45 2.812837 1_446
Na11 O48 2.517429 1_555
Na11 O55 2.552845 1_555
Na11 O56 2.564065 1_555
Na11 O54 2.583134 1_555
Na11 O50 2.596698 1_555
Na11 O49 2.628912 1_555
Na12 O58 2.380114 1_555
Na12 O57 2.519059 1_555
Na12 O59 2.532744 1_555
Na12 O51 2.602208 1_555
Na12 O53 2.604779 1_555
Na12 O52 2.672820 1_555
Na13 O61 2.437921 1_555
Na13 O68 2.539535 1_555
Na13 O66 2.556925 1_555
Na13 O62 2.580746 1_555
Na13 O67 2.605438 1_555
Na13 O60 2.611141 1_555
Na14 O71 2.540421 1_555
Na14 O69 2.546801 1_555
Na14 O64 2.591059 1_555
Na14 O70 2.602743 1_555
Na14 O65 2.626631 1_555
Na14 O63 2.653616 1_555
Nb0 O2 1.982443 1_455
Nb0 O0 1.990955 1_555
Nb0 O38 1.996721 1_555
Nb0 O37 2.008543 1_445
Nb0 O1 2.011219 1_445
Nb0 O36 2.020018 1_545
Nb1 O11 1.937748 1_555
Nb1 O45 1.966437 1_455
Nb1 O9 1.979499 1_455
Nb1 O10 2.026730 1_565
Nb1 O47 2.033205 1_565
Nb1 O46 2.084727 1_465
Nb2 O48 1.941392 1_555
Nb2 O13 1.955242 1_555
Nb2 O12 2.003513 1_555
Nb2 O49 2.031479 1_555
Nb2 O50 2.056210 1_555
Nb2 O14 2.071246 1_555
Nb3 O19 1.951014 1_556
Nb3 O18 1.979194 1_556
Nb3 O20 2.007122 1_556
Nb3 O55 2.059579 1_555
Nb3 O54 2.061860 1_555
Nb3 O56 2.069474 1_555
Nb4 O27 1.946709 1_555
Nb4 O29 1.951343 1_555
Nb4 O28 1.994511 1_555
Nb4 O63 2.018271 1_555
Nb4 O64 2.108392 1_555
Nb4 O65 2.117739 1_555
Nb5 O71 1.946938 1_555
Nb5 O35 1.962529 1_555
Nb5 O69 2.022029 1_555
Nb5 O34 2.025141 1_555
Nb5 O33 2.040818 1_555
Nb5 O70 2.053879 1_555
O0 P0 1.565647 1_555
O1 P1 1.578178 1_555
O2 P2 1.580490 1_655
O3 P3 1.509344 1_555
O3 Zn0 2.074700 1_455
O4 P4 1.507015 1_555
O4 Zn0 2.207996 1_565
O5 Si0 1.575602 1_545
O5 Zn0 1.910590 1_555
O6 Si0 1.606142 1_555
O6 Zn1 1.983910 1_555
O7 P3 1.533621 1_555
O7 Zn1 2.115972 1_445
O8 P4 1.545220 1_455
O8 Zn1 2.097956 1_455
O9 P1 1.613583 1_555
O10 P2 1.587027 1_555
O11 P0 1.602844 1_565
O12 P5 1.596521 1_555
O13 Si1 1.699206 1_555
O14 P6 1.582011 1_555
O15 Si2 1.604527 1_555
O15 Zn2 1.965818 1_555
O16 P7 1.516858 1_555
O16 Zn2 2.070201 1_555
O17 P8 1.504790 1_555
O17 Zn2 1.982874 1_555
O18 P8 1.589856 1_555
O19 Si2 1.718154 1_555
O20 P7 1.595827 1_555
O21 Si1 1.570373 1_555
O21 Zn3 1.961762 1_555
O22 P6 1.499648 1_555
O22 Zn3 2.052061 1_555
O23 P5 1.496023 1_555
O23 Zn3 2.059881 1_555
O24 P9 1.512643 1_555
O24 Zn4 2.068984 1_556
O25 P10 1.519414 1_555
O25 Zn4 2.065632 1_556
O26 P11 1.506465 1_555
O26 Zn4 1.969496 1_556
O27 P12 1.627903 1_555
O28 P13 1.618427 1_555
O29 P14 1.630157 1_555
O30 P14 1.517449 1_555
O30 Zn5 2.039773 1_555
O31 P12 1.517931 1_555
O31 Zn5 2.049583 1_555
O32 P13 1.507861 1_555
O32 Zn5 1.939978 1_555
O33 P10 1.585125 1_555
O34 P11 1.597389 1_555
O35 P9 1.588848 1_555
O36 P14 1.595582 1_555
O37 P12 1.592603 1_555
O38 P13 1.605374 1_555
O39 P10 1.506177 1_555
O39 Zn0 2.120973 1_455
O40 P11 1.525502 1_555
O40 Zn0 2.205029 1_465
O41 P9 1.518708 1_555
O41 Zn0 2.279841 1_565
O42 P5 1.530364 1_555
O42 Zn1 2.288722 1_545
O43 Si1 1.620820 1_555
O43 Zn1 2.129450 1_445
O44 P6 1.534615 1_555
O44 Zn1 2.290149 1_555
O45 Si2 1.687488 1_555
O46 P7 1.605098 1_555
O47 P8 1.580311 1_555
O48 Si0 1.707638 1_545
O49 P3 1.591738 1_555
O50 P4 1.564508 1_555
O51 P1 1.514577 1_555
O51 Zn2 2.268370 1_555
O52 P2 1.535214 1_655
O52 Zn2 2.293067 1_555
O53 P0 1.509536 1_555
O53 Zn2 2.197148 1_555
O54 P9 1.605489 1_555
O55 P10 1.616750 1_655
O56 P11 1.578434 1_545
O57 P12 1.494660 1_545
O57 Zn3 2.146665 1_555
O58 P13 1.492362 1_555
O58 Zn3 2.102149 1_555
O59 P14 1.493060 1_655
O59 Zn3 2.145874 1_555
O60 P8 1.521110 1_555
O60 Zn4 2.260318 1_555
O61 Si2 1.594895 1_455
O61 Zn4 2.022078 1_555
O62 P7 1.511716 1_565
O62 Zn4 2.200631 1_555
O63 Si1 1.699644 1_565
O64 P6 1.600676 1_555
O65 P5 1.591479 1_455
O66 P0 1.532044 1_565
O66 Zn5 2.311159 1_555
O67 P1 1.520718 1_555
O67 Zn5 2.197054 1_555
O68 P2 1.515802 1_555
O68 Zn5 2.212553 1_555
O69 P3 1.574480 1_555
O70 P4 1.597884 1_455
O71 Si0 1.709932 1_555
