# generated using pymatgen
data_Na2(GaSb)3
_symmetry_space_group_name_H-M   'P 1'
_cell_length_a   4.30821254
_cell_length_b   7.25638496
_cell_length_c   26.93431368
_cell_angle_alpha   90.00000000
_cell_angle_beta   90.00000000
_cell_angle_gamma   90.00000000
_symmetry_Int_Tables_number   1
_chemical_formula_structural   Na2(GaSb)3
_chemical_formula_sum   'Na8 Ga12 Sb12'
_cell_volume   842.02182542
_cell_formula_units_Z   4
loop_
 _symmetry_equiv_pos_site_id
 _symmetry_equiv_pos_as_xyz
  1  'x, y, z'
loop_
 _atom_site_type_symbol
 _atom_site_label
 _atom_site_symmetry_multiplicity
 _atom_site_fract_x
 _atom_site_fract_y
 _atom_site_fract_z
 _atom_site_occupancy
  Na  Na0  1  0.25000000  0.22361272  0.49698813  1
  Na  Na1  1  0.75000000  0.77638728  0.50301187  1
  Na  Na2  1  0.75000000  0.72361272  0.00301187  1
  Na  Na3  1  0.25000000  0.27638728  0.99698813  1
  Na  Na4  1  0.25000000  0.24925764  0.81689097  1
  Na  Na5  1  0.75000000  0.75074236  0.18310903  1
  Na  Na6  1  0.75000000  0.74925764  0.68310903  1
  Na  Na7  1  0.25000000  0.25074236  0.31689097  1
  Ga  Ga0  1  0.25000000  0.54710007  0.61891445  1
  Ga  Ga1  1  0.75000000  0.45289993  0.38108555  1
  Ga  Ga2  1  0.75000000  0.04710007  0.88108555  1
  Ga  Ga3  1  0.25000000  0.95289993  0.11891445  1
  Ga  Ga4  1  0.25000000  0.06885240  0.20774425  1
  Ga  Ga5  1  0.75000000  0.93114760  0.79225575  1
  Ga  Ga6  1  0.75000000  0.56885240  0.29225575  1
  Ga  Ga7  1  0.25000000  0.43114760  0.70774425  1
  Ga  Ga8  1  0.75000000  0.39880365  0.12239026  1
  Ga  Ga9  1  0.25000000  0.60119635  0.87760974  1
  Ga  Ga10  1  0.25000000  0.89880365  0.37760974  1
  Ga  Ga11  1  0.75000000  0.10119635  0.62239026  1
  Sb  Sb0  1  0.75000000  0.20678675  0.71961164  1
  Sb  Sb1  1  0.25000000  0.79321325  0.28038836  1
  Sb  Sb2  1  0.25000000  0.70678675  0.78038836  1
  Sb  Sb3  1  0.75000000  0.29321325  0.21961164  1
  Sb  Sb4  1  0.25000000  0.90875749  0.59303288  1
  Sb  Sb5  1  0.75000000  0.09124251  0.40696712  1
  Sb  Sb6  1  0.75000000  0.40875749  0.90696712  1
  Sb  Sb7  1  0.25000000  0.59124251  0.09303288  1
  Sb  Sb8  1  0.75000000  0.41289824  0.57262837  1
  Sb  Sb9  1  0.25000000  0.58710176  0.42737163  1
  Sb  Sb10  1  0.25000000  0.91289824  0.92737163  1
  Sb  Sb11  1  0.75000000  0.08710176  0.07262837  1
loop_
_geom_bond_atom_site_label_1
_geom_bond_atom_site_label_2
_geom_bond_distance
_geom_bond_site_symmetry_2
Na0 Sb9 3.236189 1_555
Na0 Sb8 3.267632 1_555
Na0 Sb8 3.267632 1_455
Na0 Sb5 3.382564 1_455
Na0 Sb5 3.382564 1_555
Na0 Sb4 3.451370 1_545
Na1 Sb8 3.236189 1_555
Na1 Sb9 3.267632 1_555
Na1 Sb9 3.267632 1_655
Na1 Sb4 3.382564 1_555
Na1 Sb4 3.382564 1_655
Na1 Sb5 3.451370 1_565
Na2 Sb11 3.236189 1_565
Na2 Sb10 3.267632 1_654
Na2 Sb10 3.267632 1_554
Na2 Sb7 3.382564 1_655
Na2 Sb7 3.382564 1_555
Na2 Sb6 3.451370 1_554
Na3 Sb10 3.236189 1_545
Na3 Sb11 3.267632 1_456
Na3 Sb11 3.267632 1_556
Na3 Sb6 3.382564 1_455
Na3 Sb6 3.382564 1_555
Na3 Sb7 3.451370 1_556
Na4 Sb0 3.405928 1_455
Na4 Sb0 3.405928 1_555
Na4 Sb6 3.444689 1_455
Na4 Sb6 3.444689 1_555
Na4 Sb2 3.462525 1_555
Na5 Sb1 3.405928 1_655
Na5 Sb1 3.405928 1_555
Na5 Sb7 3.444689 1_655
Na5 Sb7 3.444689 1_555
Na5 Sb3 3.462525 1_555
Na6 Sb2 3.405928 1_555
Na6 Sb2 3.405928 1_655
Na6 Sb4 3.444689 1_555
Na6 Sb4 3.444689 1_655
Na6 Sb0 3.462525 1_565
Na7 Sb3 3.405928 1_455
Na7 Sb3 3.405928 1_555
Na7 Sb5 3.444689 1_455
Na7 Sb5 3.444689 1_555
Na7 Sb1 3.462525 1_545
Ga0 Ga7 2.536205 1_555
Ga0 Sb8 2.672587 1_455
Ga0 Sb8 2.672587 1_555
Ga0 Sb4 2.715333 1_555
Ga0 Na6 3.127561 1_455
Ga0 Na6 3.127561 1_555
Ga1 Ga6 2.536205 1_555
Ga1 Sb9 2.672587 1_655
Ga1 Sb9 2.672587 1_555
Ga1 Sb5 2.715333 1_555
Ga1 Na7 3.127561 1_555
Ga1 Na7 3.127561 1_655
Ga2 Ga5 2.536205 1_545
Ga2 Sb10 2.672587 1_545
Ga2 Sb10 2.672587 1_645
Ga2 Sb6 2.715333 1_555
Ga2 Na4 3.127561 1_655
Ga2 Na4 3.127561 1_555
Ga3 Ga4 2.536205 1_565
Ga3 Sb11 2.672587 1_465
Ga3 Sb11 2.672587 1_565
Ga3 Sb7 2.715333 1_555
Ga3 Na5 3.127561 1_455
Ga3 Na5 3.127561 1_555
Ga4 Sb3 2.718986 1_455
Ga4 Sb3 2.718986 1_555
Ga4 Sb1 2.798023 1_545
Ga4 Na7 3.222486 1_555
Ga4 Na5 3.226272 1_445
Ga4 Na5 3.226272 1_545
Ga5 Sb2 2.718986 1_555
Ga5 Sb2 2.718986 1_655
Ga5 Sb0 2.798023 1_565
Ga5 Na6 3.222486 1_555
Ga5 Na4 3.226272 1_565
Ga5 Na4 3.226272 1_665
Ga6 Sb1 2.718986 1_555
Ga6 Sb1 2.718986 1_655
Ga6 Sb3 2.798023 1_555
Ga6 Na5 3.222486 1_555
Ga6 Na7 3.226272 1_655
Ga6 Na7 3.226272 1_555
Ga7 Sb0 2.718986 1_455
Ga7 Sb0 2.718986 1_555
Ga7 Sb2 2.798023 1_555
Ga7 Na4 3.222486 1_555
Ga7 Na6 3.226272 1_555
Ga7 Na6 3.226272 1_455
Ga8 Sb11 2.629122 1_555
Ga8 Sb7 2.686145 1_655
Ga8 Sb7 2.686145 1_555
Ga8 Sb3 2.728386 1_555
Ga8 Na5 3.032573 1_555
Ga9 Sb10 2.629122 1_555
Ga9 Sb6 2.686145 1_455
Ga9 Sb6 2.686145 1_555
Ga9 Sb2 2.728386 1_555
Ga9 Na4 3.032573 1_555
Ga10 Sb9 2.629122 1_555
Ga10 Sb5 2.686145 1_465
Ga10 Sb5 2.686145 1_565
Ga10 Sb1 2.728386 1_555
Ga10 Na7 3.032573 1_565
Ga11 Sb8 2.629122 1_555
Ga11 Sb4 2.686145 1_545
Ga11 Sb4 2.686145 1_645
Ga11 Sb0 2.728386 1_555
Ga11 Na6 3.032573 1_545
