# generated using pymatgen
data_MgFe8(OF)8
_symmetry_space_group_name_H-M   'P 1'
_cell_length_a   9.79413721
_cell_length_b   10.11170573
_cell_length_c   3.12537400
_cell_angle_alpha   90.00000000
_cell_angle_beta   90.00000000
_cell_angle_gamma   93.65458066
_symmetry_Int_Tables_number   1
_chemical_formula_structural   MgFe8(OF)8
_chemical_formula_sum   'Mg1 Fe8 O8 F8'
_cell_volume   308.89334181
_cell_formula_units_Z   1
loop_
 _symmetry_equiv_pos_site_id
 _symmetry_equiv_pos_as_xyz
  1  'x, y, z'
loop_
 _atom_site_type_symbol
 _atom_site_label
 _atom_site_symmetry_multiplicity
 _atom_site_fract_x
 _atom_site_fract_y
 _atom_site_fract_z
 _atom_site_occupancy
  Mg  Mg0  1  0.76092300  0.01296100  0.00000000  1
  Fe  Fe0  1  0.12109000  0.98494600  0.00000000  1
  Fe  Fe1  1  0.00741900  0.49667000  0.00000000  1
  Fe  Fe2  1  0.21275800  0.27314200  0.50000000  1
  Fe  Fe3  1  0.23448900  0.72148100  0.50000000  1
  Fe  Fe4  1  0.51183100  0.49821400  0.00000000  1
  Fe  Fe5  1  0.46352900  0.01154000  0.00000000  1
  Fe  Fe6  1  0.74442400  0.30599800  0.50000000  1
  Fe  Fe7  1  0.76183100  0.68891400  0.50000000  1
  O  O0  1  0.09149000  0.40776200  0.50000000  1
  O  O1  1  0.13399300  0.87820100  0.50000000  1
  O  O2  1  0.15303300  0.17151900  0.00000000  1
  O  O3  1  0.16188900  0.63620200  0.00000000  1
  O  O4  1  0.58591000  0.40810600  0.50000000  1
  O  O5  1  0.65056100  0.64200000  0.00000000  1
  O  O6  1  0.84270300  0.35574000  0.00000000  1
  O  O7  1  0.91059400  0.58951100  0.50000000  1
  F  F0  1  0.34382200  0.36298500  0.00000000  1
  F  F1  1  0.37252900  0.82909300  0.00000000  1
  F  F2  1  0.38538700  0.11105900  0.50000000  1
  F  F3  1  0.40555200  0.59336400  0.50000000  1
  F  F4  1  0.61625000  0.94882200  0.50000000  1
  F  F5  1  0.63741000  0.16503100  0.00000000  1
  F  F6  1  0.82721700  0.83677100  0.00000000  1
  F  F7  1  0.84809000  0.09774200  0.50000000  1
loop_
_geom_bond_atom_site_label_1
_geom_bond_atom_site_label_2
_geom_bond_distance
_geom_bond_site_symmetry_2
Fe0 O2 1.892561 1_565
Fe0 O1 1.907983 1_554
Fe0 O1 1.907983 1_555
Fe1 O3 2.001851 1_555
Fe1 O0 2.005635 1_555
Fe1 O0 2.005635 1_554
Fe1 O7 2.082330 1_454
Fe1 O7 2.082330 1_455
Fe1 O6 2.083327 1_455
Fe2 O0 1.862725 1_555
Fe2 O2 1.939964 1_555
Fe2 O2 1.939964 1_556
Fe3 O3 1.900792 1_555
Fe3 O3 1.900792 1_556
Fe3 O1 1.918054 1_555
Fe4 O5 1.925675 1_555
Fe4 O4 1.970497 1_555
Fe4 O4 1.970497 1_554
Fe6 O6 1.886736 1_556
Fe6 O6 1.886736 1_555
Fe6 O4 1.918503 1_555
Fe7 O7 1.822047 1_555
Fe7 O5 1.946477 1_556
Fe7 O5 1.946477 1_555
F0 Fe4 2.071379 1_555
F0 Fe2 2.183212 1_554
F0 Fe2 2.183212 1_555
F1 Fe5 1.997052 1_565
F1 Fe3 2.294854 1_555
F1 Fe3 2.294854 1_554
F2 Fe5 2.034345 1_556
F2 Fe5 2.034345 1_555
F2 Fe2 2.428582 1_555
F3 Fe4 2.139825 1_556
F3 Fe4 2.139825 1_555
F3 Fe3 2.182197 1_555
F4 Mg0 2.180184 1_565
F4 Mg0 2.180184 1_566
F4 Fe5 2.280886 1_565
F4 Fe5 2.280886 1_566
F5 Mg0 2.016184 1_555
F5 Fe5 2.229838 1_555
F5 Fe6 2.319888 1_554
F5 Fe6 2.319888 1_555
F6 Mg0 1.934704 1_565
F6 Fe7 2.228301 1_554
F6 Fe7 2.228301 1_555
F7 Mg0 1.952554 1_555
F7 Mg0 1.952554 1_556
F7 Fe6 2.395398 1_555
