# generated using pymatgen
data_Cs2Mn3S4
_symmetry_space_group_name_H-M   'P 1'
_cell_length_a   6.08330977
_cell_length_b   9.65265644
_cell_length_c   9.65265607
_cell_angle_alpha   73.95933480
_cell_angle_beta   71.63250836
_cell_angle_gamma   71.63250777
_symmetry_Int_Tables_number   1
_chemical_formula_structural   Cs2Mn3S4
_chemical_formula_sum   'Cs4 Mn6 S8'
_cell_volume   500.56680977
_cell_formula_units_Z   2
loop_
 _symmetry_equiv_pos_site_id
 _symmetry_equiv_pos_as_xyz
  1  'x, y, z'
loop_
 _atom_site_type_symbol
 _atom_site_label
 _atom_site_symmetry_multiplicity
 _atom_site_fract_x
 _atom_site_fract_y
 _atom_site_fract_z
 _atom_site_occupancy
  Cs  Cs0  1  0.23563106  0.11931334  0.88068666  1
  Cs  Cs1  1  0.73563106  0.38068666  0.61931334  1
  Cs  Cs2  1  0.26436894  0.61931334  0.38068666  1
  Cs  Cs3  1  0.76436894  0.88068666  0.11931334  1
  Mn  Mn0  1  0.25000000  0.25000000  0.25000000  1
  Mn  Mn1  1  0.75000000  0.75000000  0.75000000  1
  Mn  Mn2  1  0.75000000  0.47460591  0.02539409  1
  Mn  Mn3  1  0.75000000  0.02539409  0.47460591  1
  Mn  Mn4  1  0.25000000  0.97460591  0.52539409  1
  Mn  Mn5  1  0.25000000  0.52539409  0.97460591  1
  S  S0  1  0.93754411  0.48015055  0.21024684  1
  S  S1  1  0.12794250  0.01984945  0.28975316  1
  S  S2  1  0.56245589  0.28975316  0.01984945  1
  S  S3  1  0.37205750  0.21024684  0.48015055  1
  S  S4  1  0.43754411  0.71024684  0.98015055  1
  S  S5  1  0.62794250  0.78975316  0.51984945  1
  S  S6  1  0.87205750  0.98015055  0.71024684  1
  S  S7  1  0.06245589  0.51984945  0.78975316  1
loop_
_geom_bond_atom_site_label_1
_geom_bond_atom_site_label_2
_geom_bond_distance
_geom_bond_site_symmetry_2
Cs0 S7 3.601179 1_555
Cs0 S3 3.601180 1_555
Cs0 S6 3.664667 1_545
Cs0 S2 3.664672 1_556
Cs0 S4 3.689624 1_545
Cs0 S1 3.689624 1_556
Cs0 S2 3.845742 1_456
Cs0 S6 3.845747 1_445
Cs1 S2 3.601179 1_556
Cs1 S6 3.601180 1_545
Cs1 S3 3.664667 1_655
Cs1 S7 3.664672 1_655
Cs1 S0 3.689624 1_555
Cs1 S5 3.689624 1_555
Cs1 S7 3.845742 1_555
Cs1 S3 3.845747 1_555
Cs2 S4 3.601179 1_554
Cs2 S1 3.601180 1_565
Cs2 S5 3.664667 1_455
Cs2 S0 3.664672 1_455
Cs2 S7 3.689624 1_555
Cs2 S3 3.689624 1_555
Cs2 S0 3.845742 1_555
Cs2 S5 3.845747 1_555
Cs3 S0 3.601179 1_555
Cs3 S5 3.601180 1_555
Cs3 S1 3.664667 1_565
Cs3 S4 3.664672 1_554
Cs3 S2 3.689624 1_565
Cs3 S6 3.689624 1_554
Cs3 S4 3.845742 1_654
Cs3 S1 3.845747 1_665
Mn0 S3 2.454144 1_555
Mn0 S1 2.454144 1_555
Mn0 S2 2.454148 1_555
Mn0 S0 2.454148 1_455
Mn1 S5 2.454144 1_555
Mn1 S6 2.454144 1_555
Mn1 S4 2.454148 1_555
Mn1 S7 2.454148 1_655
Mn2 S0 2.421259 1_555
Mn2 S2 2.421259 1_555
Mn2 S7 2.495345 1_654
Mn2 S4 2.495345 1_554
Mn3 S1 2.421264 1_655
Mn3 S3 2.421264 1_555
Mn3 S6 2.495342 1_545
Mn3 S5 2.495342 1_545
Mn4 S6 2.421264 1_455
Mn4 S5 2.421264 1_555
Mn4 S1 2.495342 1_565
Mn4 S3 2.495342 1_565
Mn5 S7 2.421259 1_555
Mn5 S4 2.421259 1_555
Mn5 S0 2.495345 1_456
Mn5 S2 2.495345 1_556
