# generated using pymatgen
data_MgMn6(O5F)2
_symmetry_space_group_name_H-M   'P 1'
_cell_length_a   8.23269810
_cell_length_b   5.74739444
_cell_length_c   5.86342759
_cell_angle_alpha   66.06023425
_cell_angle_beta   62.61764255
_cell_angle_gamma   64.14466327
_symmetry_Int_Tables_number   1
_chemical_formula_structural   MgMn6(O5F)2
_chemical_formula_sum   'Mg1 Mn6 O10 F2'
_cell_volume   214.25741467
_cell_formula_units_Z   1
loop_
 _symmetry_equiv_pos_site_id
 _symmetry_equiv_pos_as_xyz
  1  'x, y, z'
loop_
 _atom_site_type_symbol
 _atom_site_label
 _atom_site_symmetry_multiplicity
 _atom_site_fract_x
 _atom_site_fract_y
 _atom_site_fract_z
 _atom_site_occupancy
  Mg  Mg0  1  0.33266163  0.65427763  0.17158320  1
  Mn  Mn0  1  0.86022200  0.67530934  0.68537891  1
  Mn  Mn1  1  0.66816542  0.34679992  0.35801459  1
  Mn  Mn2  1  0.33107415  0.66425257  0.65994798  1
  Mn  Mn3  1  0.10808437  0.31802241  0.31092553  1
  Mn  Mn4  1  0.52370861  0.02742863  0.01645677  1
  Mn  Mn5  1  0.98381757  0.00616458  0.99134331  1
  O  O0  1  0.70072977  0.04815362  0.66049204  1
  O  O1  1  0.34503995  0.39378849  0.00001510  1
  O  O2  1  0.60296755  0.59464112  0.52916180  1
  O  O3  1  0.93789694  0.25286298  0.18514684  1
  O  O4  1  0.05598036  0.75061653  0.80094863  1
  O  O5  1  0.39273005  0.41016871  0.49498012  1
  O  O6  1  0.30228812  0.94616031  0.33007264  1
  O  O7  1  0.63359564  0.64205091  0.03116413  1
  O  O8  1  0.96269719  0.30326765  0.68092119  1
  O  O9  1  0.03564986  0.69812189  0.30648755  1
  F  F0  1  0.30226740  0.91868483  0.83950281  1
  F  F1  1  0.67968242  0.09922789  0.17364688  1
loop_
_geom_bond_atom_site_label_1
_geom_bond_atom_site_label_2
_geom_bond_distance
_geom_bond_site_symmetry_2
Mg0 O5 1.976604 1_555
Mg0 O1 2.063657 1_555
Mg0 O6 2.103776 1_555
Mg0 O9 2.124481 1_555
Mg0 O7 2.199908 1_555
Mn0 O8 1.932950 1_555
Mn0 O0 1.950820 1_565
Mn0 O9 2.003980 1_655
Mn0 O7 2.035974 1_556
Mn0 O4 2.257171 1_655
Mn1 O2 1.822609 1_555
Mn1 O3 1.891566 1_555
Mn1 O0 1.931067 1_555
Mn1 O5 1.939443 1_555
Mn1 O7 2.018571 1_555
Mn2 O5 1.836846 1_555
Mn2 O2 1.909859 1_555
Mn2 O4 1.920749 1_555
Mn2 O1 1.986205 1_556
Mn2 O6 1.991458 1_555
Mn3 O8 1.922755 1_455
Mn3 O9 1.990120 1_555
Mn3 O6 2.031413 1_545
Mn3 O1 2.035666 1_555
Mn3 O3 2.068698 1_455
Mn4 O0 1.909464 1_554
Mn4 O1 1.967447 1_555
Mn4 O6 1.970965 1_545
Mn4 O7 1.975041 1_545
Mn5 O4 1.927676 1_645
Mn5 O8 1.941331 1_555
Mn5 O3 1.972174 1_556
Mn5 O9 2.035294 1_646
F0 Mg0 1.969374 1_556
F0 Mn2 2.005069 1_555
F0 Mn5 2.232778 1_465
F1 Mn1 2.058786 1_555
F1 Mn4 2.127940 1_555
F1 Mn5 2.128839 1_554
