# generated using pymatgen
data_MgTiZn(BiO3)2
_symmetry_space_group_name_H-M   'P 1'
_cell_length_a   6.93867196
_cell_length_b   5.42095001
_cell_length_c   5.42094682
_cell_angle_alpha   90.00000000
_cell_angle_beta   90.00000000
_cell_angle_gamma   90.00018864
_symmetry_Int_Tables_number   1
_chemical_formula_structural   MgTiZn(BiO3)2
_chemical_formula_sum   'Mg1 Ti1 Zn1 Bi2 O6'
_cell_volume   203.90454443
_cell_formula_units_Z   1
loop_
 _symmetry_equiv_pos_site_id
 _symmetry_equiv_pos_as_xyz
  1  'x, y, z'
loop_
 _atom_site_type_symbol
 _atom_site_label
 _atom_site_symmetry_multiplicity
 _atom_site_fract_x
 _atom_site_fract_y
 _atom_site_fract_z
 _atom_site_occupancy
  Mg  Mg0  1  0.11689646  0.50000000  0.50000000  1
  Ti  Ti0  1  0.62005625  0.50000100  0.50000000  1
  Zn  Zn0  1  0.48936966  1.00000000  -0.00000000  1
  Bi  Bi0  1  0.87549517  1.00000000  0.50000000  1
  Bi  Bi1  1  0.87549517  0.49999900  -0.00000000  1
  O  O0  1  0.69344971  0.75209210  0.75209210  1
  O  O1  1  0.69344971  0.75209210  0.24790790  1
  O  O2  1  0.21855012  1.00000000  -0.00000000  1
  O  O3  1  0.37733733  0.50000100  0.50000000  1
  O  O4  1  0.69345071  0.24790690  0.24790790  1
  O  O5  1  0.69345071  0.24790690  0.75209210  1
loop_
_geom_bond_atom_site_label_1
_geom_bond_atom_site_label_2
_geom_bond_distance
_geom_bond_site_symmetry_2
Mg0 O3 1.807114 1_555
Bi0 O5 2.295458 1_565
Bi0 O4 2.295458 1_565
Bi0 O0 2.295460 1_555
Bi0 O1 2.295460 1_555
Bi1 O4 2.295457 1_555
Bi1 O5 2.295457 1_554
Bi1 O1 2.295469 1_555
Bi1 O0 2.295469 1_554
O0 Ti0 1.998597 1_555
O0 Zn0 2.370086 1_556
O1 Ti0 1.998597 1_555
O1 Zn0 2.370086 1_555
O2 Zn0 1.879128 1_555
O3 Ti0 1.684147 1_555
O4 Ti0 1.998613 1_555
O4 Zn0 2.370082 1_545
O5 Ti0 1.998613 1_555
O5 Zn0 2.370082 1_546
