# generated using pymatgen
data_ZnH6(CO3)2
_symmetry_space_group_name_H-M   'P 1'
_cell_length_a   7.24041800
_cell_length_b   8.81754900
_cell_length_c   9.37525061
_cell_angle_alpha   82.49953006
_cell_angle_beta   90.00000000
_cell_angle_gamma   90.00000000
_symmetry_Int_Tables_number   1
_chemical_formula_structural   ZnH6(CO3)2
_chemical_formula_sum   'Zn4 H24 C8 O24'
_cell_volume   593.42044356
_cell_formula_units_Z   4
loop_
 _symmetry_equiv_pos_site_id
 _symmetry_equiv_pos_as_xyz
  1  'x, y, z'
loop_
 _atom_site_type_symbol
 _atom_site_label
 _atom_site_symmetry_multiplicity
 _atom_site_fract_x
 _atom_site_fract_y
 _atom_site_fract_z
 _atom_site_occupancy
  Zn  Zn0  1  0.00000000  0.50000000  0.50000000  1
  Zn  Zn1  1  0.50000000  0.50000000  0.00000000  1
  Zn  Zn2  1  0.50000000  0.00000000  0.50000000  1
  Zn  Zn3  1  0.00000000  0.00000000  0.00000000  1
  H  H0  1  0.09874700  0.30455100  0.73537000  1
  H  H1  1  0.59874700  0.69544900  0.76463000  1
  H  H2  1  0.90125300  0.69544900  0.26463000  1
  H  H3  1  0.40125300  0.30455100  0.23537000  1
  H  H4  1  0.15107600  0.47048900  0.77712400  1
  H  H5  1  0.65107600  0.52951100  0.72287600  1
  H  H6  1  0.84892400  0.52951100  0.22287600  1
  H  H7  1  0.34892400  0.47048900  0.27712400  1
  H  H8  1  0.10272100  0.76251300  0.54812800  1
  H  H9  1  0.60272100  0.23748700  0.95187200  1
  H  H10  1  0.89727900  0.23748700  0.45187200  1
  H  H11  1  0.39727900  0.76251300  0.04812800  1
  H  H12  1  0.88762200  0.78448700  0.51046800  1
  H  H13  1  0.38762200  0.21551300  0.98953200  1
  H  H14  1  0.11237800  0.21551300  0.48953200  1
  H  H15  1  0.61237800  0.78448700  0.01046800  1
  H  H16  1  0.19940900  0.94256700  0.27934200  1
  H  H17  1  0.69940900  0.05743300  0.22065800  1
  H  H18  1  0.80059100  0.05743300  0.72065800  1
  H  H19  1  0.30059100  0.94256700  0.77934200  1
  H  H20  1  0.47580100  0.32011800  0.61007800  1
  H  H21  1  0.97580100  0.67988200  0.88992200  1
  H  H22  1  0.52419900  0.67988200  0.38992200  1
  H  H23  1  0.02419900  0.32011800  0.11007800  1
  C  C0  1  0.27335500  0.04350200  0.22566000  1
  C  C1  1  0.77335500  0.95649800  0.27434000  1
  C  C2  1  0.72664500  0.95649800  0.77434000  1
  C  C3  1  0.22664500  0.04350200  0.72566000  1
  C  C4  1  0.88225800  0.32018400  0.06659400  1
  C  C5  1  0.38225800  0.67981600  0.43340600  1
  C  C6  1  0.11774200  0.67981600  0.93340600  1
  C  C7  1  0.61774200  0.32018400  0.56659400  1
  O  O0  1  0.12011000  0.41263500  0.69567700  1
  O  O1  1  0.62011000  0.58736500  0.80432300  1
  O  O2  1  0.87989000  0.58736500  0.30432300  1
  O  O3  1  0.37989000  0.41263500  0.19567700  1
  O  O4  1  0.97710000  0.71872400  0.57057700  1
  O  O5  1  0.47710000  0.28127600  0.92942300  1
  O  O6  1  0.02290000  0.28127600  0.42942300  1
  O  O7  1  0.52290000  0.71872400  0.07057700  1
  O  O8  1  0.22737100  0.09444700  0.09716100  1
  O  O9  1  0.72737100  0.90555300  0.40283900  1
  O  O10  1  0.77262900  0.90555300  0.90283900  1
  O  O11  1  0.27262900  0.09444700  0.59716100  1
  O  O12  1  0.39907500  0.10314500  0.29475200  1
  O  O13  1  0.89907500  0.89685500  0.20524800  1
  O  O14  1  0.60092500  0.89685500  0.70524800  1
  O  O15  1  0.10092500  0.10314500  0.79475200  1
  O  O16  1  0.72006500  0.43298900  0.58421000  1
  O  O17  1  0.22006500  0.56701100  0.91579000  1
  O  O18  1  0.27993500  0.56701100  0.41579000  1
  O  O19  1  0.77993500  0.43298900  0.08421000  1
  O  O20  1  0.66698800  0.20637500  0.50352700  1
  O  O21  1  0.16698800  0.79362500  0.99647300  1
  O  O22  1  0.33301200  0.79362500  0.49647300  1
  O  O23  1  0.83301200  0.20637500  0.00352700  1
loop_
_geom_bond_atom_site_label_1
_geom_bond_atom_site_label_2
_geom_bond_distance
_geom_bond_site_symmetry_2
H0 O0 0.988987 1_555
H1 O1 0.988987 1_555
H2 O2 0.988987 1_555
H3 O3 0.988987 1_555
H4 O0 0.997627 1_555
H4 O17 1.718368 1_555
H5 O1 0.997627 1_555
H5 O16 1.718368 1_555
H6 O2 0.997627 1_555
H6 O19 1.718368 1_555
H7 O3 0.997627 1_555
H7 O18 1.718368 1_555
H8 O4 0.999720 1_455
H8 O22 1.747951 1_555
H9 O5 0.999720 1_555
H9 O23 1.747951 1_556
H10 O6 0.999720 1_655
H10 O20 1.747951 1_555
H11 O7 0.999720 1_555
H11 O21 1.747951 1_554
H12 O4 0.994098 1_555
H13 O5 0.994098 1_555
H14 O6 0.994098 1_555
H15 O7 0.994098 1_555
C0 H16 1.102319 1_545
C0 O12 1.270307 1_555
C0 O8 1.273847 1_555
C1 H17 1.102319 1_565
C1 O13 1.270307 1_555
C1 O9 1.273847 1_555
C2 H18 1.102319 1_565
C2 O14 1.270307 1_555
C2 O10 1.273847 1_555
C3 H19 1.102319 1_545
C3 O15 1.270307 1_555
C3 O11 1.273847 1_555
C4 H23 1.105590 1_655
C4 O19 1.268225 1_555
C4 O23 1.280111 1_555
C5 H22 1.105590 1_555
C5 O18 1.268225 1_555
C5 O22 1.280111 1_555
C6 H21 1.105590 1_455
C6 O17 1.268225 1_555
C6 O21 1.280111 1_555
C7 H20 1.105590 1_555
C7 O16 1.268225 1_555
C7 O20 1.280111 1_555
O0 Zn0 2.084763 1_555
O1 Zn1 2.084763 1_556
O2 Zn0 2.084763 1_655
O3 Zn1 2.084763 1_555
O4 Zn0 2.125558 1_655
O5 Zn1 2.125558 1_556
O6 Zn0 2.125558 1_555
O7 Zn1 2.125558 1_555
O8 Zn3 2.105117 1_555
O9 Zn2 2.105117 1_565
O10 Zn3 2.105117 1_666
O11 Zn2 2.105117 1_555
O12 Zn2 2.146392 1_555
O13 Zn3 2.146392 1_665
O14 Zn2 2.146392 1_565
O15 Zn3 2.146392 1_556
O16 Zn0 2.226824 1_655
O17 Zn1 2.226824 1_556
O18 Zn0 2.226824 1_555
O19 Zn1 2.226824 1_555
O20 Zn2 2.188612 1_555
O21 Zn3 2.188612 1_566
O22 Zn2 2.188612 1_565
O23 Zn3 2.188612 1_655
