# generated using pymatgen
data_Co(PO3)4
_symmetry_space_group_name_H-M   'P 1'
_cell_length_a   8.38354094
_cell_length_b   8.38354094
_cell_length_c   7.66891349
_cell_angle_alpha   83.06995970
_cell_angle_beta   83.06995970
_cell_angle_gamma   109.66619186
_symmetry_Int_Tables_number   1
_chemical_formula_structural   Co(PO3)4
_chemical_formula_sum   'Co2 P8 O24'
_cell_volume   496.29756494
_cell_formula_units_Z   2
loop_
 _symmetry_equiv_pos_site_id
 _symmetry_equiv_pos_as_xyz
  1  'x, y, z'
loop_
 _atom_site_type_symbol
 _atom_site_label
 _atom_site_symmetry_multiplicity
 _atom_site_fract_x
 _atom_site_fract_y
 _atom_site_fract_z
 _atom_site_occupancy
  Co  Co0  1  0.13174300  0.86825700  0.25000000  1
  Co  Co1  1  0.86825700  0.13174300  0.75000000  1
  P  P0  1  0.56394600  0.24231400  0.62744300  1
  P  P1  1  0.79843200  0.95276700  0.16490200  1
  P  P2  1  0.20156800  0.04723300  0.83509800  1
  P  P3  1  0.04723300  0.20156800  0.33509800  1
  P  P4  1  0.43605400  0.75768600  0.37255700  1
  P  P5  1  0.95276700  0.79843200  0.66490200  1
  P  P6  1  0.75768600  0.43605400  0.87255700  1
  P  P7  1  0.24231400  0.56394600  0.12744300  1
  O  O0  1  0.66702000  0.39070700  0.06187800  1
  O  O1  1  0.33298000  0.60929300  0.93812200  1
  O  O2  1  0.12274800  0.87725200  0.75000000  1
  O  O3  1  0.60929300  0.33298000  0.43812200  1
  O  O4  1  0.00167100  0.26476400  0.50219600  1
  O  O5  1  0.07944200  0.14471800  0.84234000  1
  O  O6  1  0.89088600  0.35735800  0.81820900  1
  O  O7  1  0.26476400  0.00167100  0.00219600  1
  O  O8  1  0.39105600  0.60894400  0.25000000  1
  O  O9  1  0.84229600  0.63982900  0.81942900  1
  O  O10  1  0.60894400  0.39105600  0.75000000  1
  O  O11  1  0.87725200  0.12274800  0.25000000  1
  O  O12  1  0.73523600  0.99832900  0.99780400  1
  O  O13  1  0.99832900  0.73523600  0.49780400  1
  O  O14  1  0.14471800  0.07944200  0.34234000  1
  O  O15  1  0.92055800  0.85528200  0.15766000  1
  O  O16  1  0.10911400  0.64264200  0.18179100  1
  O  O17  1  0.85528200  0.92055800  0.65766000  1
  O  O18  1  0.35735800  0.89088600  0.31820900  1
  O  O19  1  0.36017100  0.15770400  0.68057100  1
  O  O20  1  0.64264200  0.10911400  0.68179100  1
  O  O21  1  0.15770400  0.36017100  0.18057100  1
  O  O22  1  0.63982900  0.84229600  0.31942900  1
  O  O23  1  0.39070700  0.66702000  0.56187800  1
loop_
_geom_bond_atom_site_label_1
_geom_bond_atom_site_label_2
_geom_bond_distance
_geom_bond_site_symmetry_2
Co0 O15 1.959441 1_455
Co0 O14 1.959441 1_565
Co0 O16 1.976964 1_555
Co0 O18 1.976964 1_555
Co0 O13 2.059668 1_455
Co0 O7 2.059668 1_565
Co1 O17 1.959441 1_545
Co1 O5 1.959441 1_655
Co1 O20 1.976964 1_555
Co1 O6 1.976964 1_555
Co1 O4 2.059668 1_655
Co1 O12 2.059668 1_545
O0 P6 1.495411 1_554
O1 P7 1.495411 1_556
O2 P5 1.608716 1_455
O2 P2 1.608716 1_565
O3 P0 1.495411 1_555
O4 P3 1.500221 1_555
O5 P2 1.509873 1_555
O6 P6 1.518519 1_555
O7 P2 1.500221 1_554
O8 P4 1.622471 1_555
O8 P7 1.622471 1_555
O9 P6 1.591947 1_555
O9 P5 1.598786 1_555
O10 P6 1.622471 1_555
O10 P0 1.622471 1_555
O11 P1 1.608716 1_545
O11 P3 1.608716 1_655
O12 P1 1.500221 1_556
O13 P5 1.500221 1_555
O14 P3 1.509873 1_555
O15 P1 1.509873 1_555
O16 P7 1.518519 1_555
O17 P5 1.509873 1_555
O18 P4 1.518519 1_555
O19 P0 1.591947 1_555
O19 P2 1.598786 1_555
O20 P0 1.518519 1_555
O21 P7 1.591947 1_555
O21 P3 1.598786 1_555
O22 P4 1.591947 1_555
O22 P1 1.598786 1_555
O23 P4 1.495411 1_555
