# generated using pymatgen
data_Li4Cu(PO4)2
_symmetry_space_group_name_H-M   'P 1'
_cell_length_a   5.00248300
_cell_length_b   6.34530200
_cell_length_c   10.56903821
_cell_angle_alpha   88.74131524
_cell_angle_beta   90.00000000
_cell_angle_gamma   90.00000000
_symmetry_Int_Tables_number   1
_chemical_formula_structural   Li4Cu(PO4)2
_chemical_formula_sum   'Li8 Cu2 P4 O16'
_cell_volume   335.40426628
_cell_formula_units_Z   2
loop_
 _symmetry_equiv_pos_site_id
 _symmetry_equiv_pos_as_xyz
  1  'x, y, z'
loop_
 _atom_site_type_symbol
 _atom_site_label
 _atom_site_symmetry_multiplicity
 _atom_site_fract_x
 _atom_site_fract_y
 _atom_site_fract_z
 _atom_site_occupancy
  Li  Li0  1  0.93865800  0.99737900  0.84504400  1
  Li  Li1  1  0.45833500  0.26068700  0.42350800  1
  Li  Li2  1  0.54166500  0.26068700  0.92350800  1
  Li  Li3  1  0.06134200  0.99737900  0.34504400  1
  Li  Li4  1  0.94124900  0.50972600  0.83667000  1
  Li  Li5  1  0.05875100  0.50972600  0.33667000  1
  Li  Li6  1  0.43429600  0.50466200  0.66096000  1
  Li  Li7  1  0.56570400  0.50466200  0.16096000  1
  Cu  Cu0  1  0.57720700  0.97708400  0.16023600  1
  Cu  Cu1  1  0.42279300  0.97708400  0.66023600  1
  P  P0  1  0.57332400  0.75108400  0.40577800  1
  P  P1  1  0.95134600  0.25046400  0.59275600  1
  P  P2  1  0.42667600  0.75108400  0.90577800  1
  P  P3  1  0.04865400  0.25046400  0.09275600  1
  O  O0  1  0.52304600  0.75113300  0.04589800  1
  O  O1  1  0.95956400  0.04078700  0.16411200  1
  O  O2  1  0.53734300  0.96369500  0.84156600  1
  O  O3  1  0.46265700  0.96369500  0.34156600  1
  O  O4  1  0.12341000  0.75074700  0.89524800  1
  O  O5  1  0.36415200  0.24798500  0.09182800  1
  O  O6  1  0.87659000  0.75074700  0.39524800  1
  O  O7  1  0.47695400  0.75113300  0.54589800  1
  O  O8  1  0.54678600  0.55543900  0.84033500  1
  O  O9  1  0.45321400  0.55543900  0.34033500  1
  O  O10  1  0.05390100  0.43868800  0.66618900  1
  O  O11  1  0.94609900  0.43868800  0.16618900  1
  O  O12  1  0.94403400  0.24993200  0.95428300  1
  O  O13  1  0.05596600  0.24993200  0.45428300  1
  O  O14  1  0.63584800  0.24798500  0.59182800  1
  O  O15  1  0.04043600  0.04078700  0.66411200  1
loop_
_geom_bond_atom_site_label_1
_geom_bond_atom_site_label_2
_geom_bond_distance
_geom_bond_site_symmetry_2
Li0 O4 1.883700 1_655
Li0 O15 1.992174 1_665
Li0 O12 1.995766 1_565
Li0 O2 2.019337 1_555
Li1 O14 1.988347 1_555
Li1 O13 2.039858 1_555
Li1 O9 2.049184 1_555
Li1 O3 2.091307 1_545
Li2 O5 1.988347 1_556
Li2 O12 2.039858 1_555
Li2 O8 2.049184 1_555
Li2 O2 2.091307 1_545
Li3 O6 1.883700 1_455
Li3 O1 1.992174 1_465
Li3 O13 1.995766 1_565
Li3 O3 2.019337 1_555
Li4 O4 1.895838 1_655
Li4 O10 1.950127 1_655
Li4 O8 1.994999 1_555
Li4 O12 2.042747 1_555
Li5 O6 1.895838 1_455
Li5 O11 1.950127 1_455
Li5 O9 1.994999 1_555
Li5 O13 2.042747 1_555
Li6 O10 1.948945 1_555
Li6 O7 1.971485 1_555
Li6 O8 2.010335 1_555
Li6 O14 2.062856 1_555
Li7 O11 1.948945 1_555
Li7 O0 1.971485 1_555
Li7 O9 2.010335 1_555
Li7 O5 2.062856 1_555
Cu0 O0 1.914532 1_555
Cu0 O1 1.955594 1_565
Cu0 O3 2.000336 1_555
Cu0 O5 2.135149 1_565
Cu1 O7 1.914532 1_555
Cu1 O15 1.955594 1_565
Cu1 O2 2.000336 1_555
Cu1 O14 2.135149 1_565
O0 P2 1.557432 1_554
O1 P3 1.579063 1_655
O2 P2 1.595888 1_555
O3 P0 1.595888 1_555
O4 P2 1.521165 1_555
O5 P3 1.578384 1_555
O6 P0 1.521165 1_555
O7 P0 1.557432 1_555
O8 P2 1.555085 1_555
O9 P0 1.555085 1_555
O10 P1 1.527325 1_455
O11 P3 1.527325 1_655
O12 P3 1.554363 1_656
O13 P1 1.554363 1_455
O14 P1 1.578384 1_555
O15 P1 1.579063 1_455
