# generated using pymatgen
data_Li3VPCO7
_symmetry_space_group_name_H-M   'P 1'
_cell_length_a   6.60990300
_cell_length_b   8.53227940
_cell_length_c   10.00798149
_cell_angle_alpha   83.43836432
_cell_angle_beta   90.00000000
_cell_angle_gamma   90.00000000
_symmetry_Int_Tables_number   1
_chemical_formula_structural   Li3VPCO7
_chemical_formula_sum   'Li12 V4 P4 C4 O28'
_cell_volume   560.72826087
_cell_formula_units_Z   4
loop_
 _symmetry_equiv_pos_site_id
 _symmetry_equiv_pos_as_xyz
  1  'x, y, z'
loop_
 _atom_site_type_symbol
 _atom_site_label
 _atom_site_symmetry_multiplicity
 _atom_site_fract_x
 _atom_site_fract_y
 _atom_site_fract_z
 _atom_site_occupancy
  Li  Li0  1  0.25000000  0.10513000  0.39793900  1
  Li  Li1  1  0.25000000  0.10513000  0.89793900  1
  Li  Li2  1  0.75000000  0.89487000  0.10206100  1
  Li  Li3  1  0.75000000  0.89487000  0.60206100  1
  Li  Li4  1  0.97807600  0.72061300  0.36639900  1
  Li  Li5  1  0.97807600  0.72061300  0.86639900  1
  Li  Li6  1  0.02192400  0.27938700  0.13360100  1
  Li  Li7  1  0.02192400  0.27938700  0.63360100  1
  Li  Li8  1  0.47807600  0.27938700  0.13360100  1
  Li  Li9  1  0.47807600  0.27938700  0.63360100  1
  Li  Li10  1  0.52192400  0.72061300  0.36639900  1
  Li  Li11  1  0.52192400  0.72061300  0.86639900  1
  V  V0  1  0.75000000  0.32569800  0.89574500  1
  V  V1  1  0.25000000  0.67430200  0.60425500  1
  V  V2  1  0.75000000  0.32569800  0.39574500  1
  V  V3  1  0.25000000  0.67430200  0.10425500  1
  P  P0  1  0.25000000  0.40996900  0.36566000  1
  P  P1  1  0.25000000  0.40996900  0.86566000  1
  P  P2  1  0.75000000  0.59003100  0.13434000  1
  P  P3  1  0.75000000  0.59003100  0.63434000  1
  C  C0  1  0.75000000  0.03623600  0.33565100  1
  C  C1  1  0.75000000  0.03623600  0.83565100  1
  C  C2  1  0.25000000  0.96376400  0.16434900  1
  C  C3  1  0.25000000  0.96376400  0.66434900  1
  O  O0  1  0.25000000  0.84201400  0.25661900  1
  O  O1  1  0.25000000  0.84201400  0.75661900  1
  O  O2  1  0.75000000  0.15798600  0.24338100  1
  O  O3  1  0.75000000  0.15798600  0.74338100  1
  O  O4  1  0.75000000  0.06612600  0.45999400  1
  O  O5  1  0.75000000  0.06612600  0.95999400  1
  O  O6  1  0.25000000  0.93387400  0.04000600  1
  O  O7  1  0.25000000  0.93387400  0.54000600  1
  O  O8  1  0.75000000  0.42601900  0.08396200  1
  O  O9  1  0.75000000  0.42601900  0.58396200  1
  O  O10  1  0.25000000  0.57398100  0.41603800  1
  O  O11  1  0.25000000  0.57398100  0.91603800  1
  O  O12  1  0.25000000  0.43250100  0.20840800  1
  O  O13  1  0.25000000  0.43250100  0.70840900  1
  O  O14  1  0.75000000  0.56749900  0.29159200  1
  O  O15  1  0.75000000  0.56749900  0.79159200  1
  O  O16  1  0.75000000  0.89368300  0.30335400  1
  O  O17  1  0.75000000  0.89368300  0.80335400  1
  O  O18  1  0.25000000  0.10631700  0.19664600  1
  O  O19  1  0.25000000  0.10631700  0.69664600  1
  O  O20  1  0.56722000  0.69418400  0.08099400  1
  O  O21  1  0.56722000  0.69418400  0.58099400  1
  O  O22  1  0.93278000  0.69418400  0.08099400  1
  O  O23  1  0.93278000  0.69418400  0.58099400  1
  O  O24  1  0.43278000  0.30581600  0.41900600  1
  O  O25  1  0.43278000  0.30581600  0.91900600  1
  O  O26  1  0.06722000  0.30581600  0.41900600  1
  O  O27  1  0.06722000  0.30581600  0.91900600  1
loop_
_geom_bond_atom_site_label_1
_geom_bond_atom_site_label_2
_geom_bond_distance
_geom_bond_site_symmetry_2
Li0 O7 1.918810 1_545
Li0 O18 2.013404 1_555
Li0 O24 2.125702 1_555
Li0 O26 2.125702 1_555
Li1 O6 1.918810 1_546
Li1 O19 2.013404 1_555
Li1 O25 2.125702 1_555
Li1 O27 2.125702 1_555
Li2 O5 1.918810 1_564
Li2 O16 2.013404 1_555
Li2 O22 2.125702 1_555
Li2 O20 2.125702 1_555
Li3 O4 1.918810 1_565
Li3 O17 2.013404 1_555
Li3 O21 2.125702 1_555
Li3 O23 2.125702 1_555
Li4 O16 2.153715 1_555
Li4 O23 2.154591 1_555
Li4 O14 2.182540 1_555
Li4 O10 2.213736 1_655
Li4 O0 2.291408 1_655
Li5 O17 2.153715 1_555
Li5 O22 2.154591 1_556
Li5 O15 2.182540 1_555
Li5 O11 2.213736 1_655
Li5 O1 2.291408 1_655
Li6 O18 2.153715 1_555
Li6 O27 2.154591 1_554
Li6 O12 2.182540 1_555
Li6 O8 2.213736 1_455
Li6 O2 2.291408 1_455
Li7 O19 2.153715 1_555
Li7 O26 2.154591 1_555
Li7 O13 2.182544 1_555
Li7 O9 2.213736 1_455
Li7 O3 2.291408 1_455
Li8 O18 2.153715 1_555
Li8 O25 2.154591 1_554
Li8 O12 2.182540 1_555
Li8 O8 2.213736 1_555
Li8 O2 2.291408 1_555
Li9 O19 2.153715 1_555
Li9 O24 2.154591 1_555
Li9 O13 2.182544 1_555
Li9 O9 2.213736 1_555
Li9 O3 2.291408 1_555
Li10 O16 2.153715 1_555
Li10 O21 2.154591 1_555
Li10 O14 2.182540 1_555
Li10 O10 2.213736 1_555
Li10 O0 2.291408 1_555
Li11 O17 2.153715 1_555
Li11 O20 2.154591 1_556
Li11 O15 2.182540 1_555
Li11 O11 2.213736 1_555
Li11 O1 2.291408 1_555
C0 O16 1.293722 1_545
C0 O4 1.298522 1_555
C0 O2 1.308669 1_555
C1 O17 1.293722 1_545
C1 O5 1.298522 1_555
C1 O3 1.308669 1_555
C2 O18 1.293722 1_565
C2 O6 1.298522 1_555
C2 O0 1.308669 1_555
C3 O19 1.293722 1_565
C3 O7 1.298522 1_555
C3 O1 1.308669 1_555
O0 V3 2.207156 1_555
O1 V1 2.207156 1_555
O2 V2 2.207156 1_555
O3 V0 2.207156 1_555
O4 V2 2.234516 1_555
O5 V0 2.234516 1_555
O6 V3 2.234516 1_555
O7 V1 2.234516 1_555
O8 P2 1.540701 1_555
O8 V0 2.156246 1_554
O9 P3 1.540701 1_555
O9 V2 2.156246 1_555
O10 P0 1.540701 1_555
O10 V1 2.156246 1_555
O11 P1 1.540701 1_555
O11 V3 2.156246 1_556
O12 P0 1.563515 1_555
O12 V3 2.202605 1_555
O13 P1 1.563505 1_555
O13 V1 2.202609 1_555
O14 P2 1.563515 1_555
O14 V2 2.202605 1_555
O15 P3 1.563515 1_555
O15 V0 2.202605 1_555
O20 P2 1.557552 1_555
O20 V3 2.114353 1_555
O21 P3 1.557552 1_555
O21 V1 2.114353 1_555
O22 P2 1.557552 1_555
O22 V3 2.114353 1_655
O23 P3 1.557552 1_555
O23 V1 2.114353 1_655
O24 P0 1.557552 1_555
O24 V2 2.114353 1_555
O25 P1 1.557552 1_555
O25 V0 2.114353 1_555
O26 P0 1.557552 1_555
O26 V2 2.114353 1_455
O27 P1 1.557552 1_555
O27 V0 2.114353 1_455
