# generated using pymatgen
data_Pr7O12
_symmetry_space_group_name_H-M   'P 1'
_cell_length_a   6.93229975
_cell_length_b   6.93230121
_cell_length_c   6.93230398
_cell_angle_alpha   99.54651196
_cell_angle_beta   99.54692543
_cell_angle_gamma   99.54662195
_symmetry_Int_Tables_number   1
_chemical_formula_structural   Pr7O12
_chemical_formula_sum   'Pr7 O12'
_cell_volume   317.51220864
_cell_formula_units_Z   1
loop_
 _symmetry_equiv_pos_site_id
 _symmetry_equiv_pos_as_xyz
  1  'x, y, z'
loop_
 _atom_site_type_symbol
 _atom_site_label
 _atom_site_symmetry_multiplicity
 _atom_site_fract_x
 _atom_site_fract_y
 _atom_site_fract_z
 _atom_site_occupancy
  Pr  Pr0  1  -0.00000000  0.00000000  0.00000000  1
  Pr  Pr1  1  0.29908100  0.13889191  0.60823494  1
  Pr  Pr2  1  0.60823596  0.29908304  0.13889490  1
  Pr  Pr3  1  0.13889675  0.60823885  0.29907915  1
  Pr  Pr4  1  0.70091900  0.86110809  0.39176506  1
  Pr  Pr5  1  0.39176404  0.70091696  0.86110510  1
  Pr  Pr6  1  0.86110325  0.39176115  0.70092085  1
  O  O0  1  0.94121805  0.06642180  0.67433029  1
  O  O1  1  0.67433228  0.94121904  0.06642378  1
  O  O2  1  0.06642279  0.67433029  0.94122099  1
  O  O3  1  0.05878195  0.93357820  0.32566971  1
  O  O4  1  0.32566772  0.05878096  0.93357622  1
  O  O5  1  0.93357721  0.32566971  0.05877901  1
  O  O6  1  0.56038477  0.41958240  0.82221602  1
  O  O7  1  0.82221509  0.56038479  0.41958342  1
  O  O8  1  0.41958339  0.82221602  0.56038481  1
  O  O9  1  0.43961523  0.58041760  0.17778398  1
  O  O10  1  0.17778491  0.43961521  0.58041658  1
  O  O11  1  0.58041661  0.17778398  0.43961519  1
loop_
_geom_bond_atom_site_label_1
_geom_bond_atom_site_label_2
_geom_bond_distance
_geom_bond_site_symmetry_2
O0 Pr0 2.361546 1_656
O0 Pr6 2.395949 1_555
O0 Pr4 2.417466 1_545
O0 Pr1 2.580071 1_655
O1 Pr0 2.361542 1_665
O1 Pr4 2.395951 1_555
O1 Pr5 2.417501 1_554
O1 Pr2 2.580080 1_565
O2 Pr0 2.361551 1_566
O2 Pr5 2.395968 1_555
O2 Pr6 2.417502 1_455
O2 Pr3 2.580027 1_556
O3 Pr0 2.361546 1_565
O3 Pr3 2.395949 1_555
O3 Pr1 2.417466 1_565
O3 Pr4 2.580071 1_455
O4 Pr0 2.361542 1_556
O4 Pr1 2.395951 1_555
O4 Pr2 2.417501 1_556
O4 Pr5 2.580080 1_545
O5 Pr0 2.361551 1_655
O5 Pr2 2.395968 1_555
O5 Pr3 2.417502 1_655
O5 Pr6 2.580027 1_554
O6 Pr6 2.398148 1_555
O6 Pr5 2.434966 1_555
O6 Pr2 2.466953 1_556
O6 Pr1 2.500017 1_555
O7 Pr4 2.398175 1_555
O7 Pr6 2.434992 1_555
O7 Pr3 2.466995 1_655
O7 Pr2 2.499998 1_555
O8 Pr5 2.398167 1_555
O8 Pr4 2.434973 1_555
O8 Pr1 2.466948 1_565
O8 Pr3 2.499998 1_555
O9 Pr3 2.398148 1_555
O9 Pr2 2.434966 1_555
O9 Pr5 2.466953 1_554
O9 Pr4 2.500017 1_555
O10 Pr1 2.398175 1_555
O10 Pr3 2.434992 1_555
O10 Pr6 2.466995 1_455
O10 Pr5 2.499998 1_555
O11 Pr2 2.398167 1_555
O11 Pr1 2.434973 1_555
O11 Pr4 2.466948 1_545
O11 Pr6 2.499998 1_555
