# generated using pymatgen
data_MgMn6(O2F)4
_symmetry_space_group_name_H-M   'P 1'
_cell_length_a   5.18801693
_cell_length_b   5.11930455
_cell_length_c   8.80471218
_cell_angle_alpha   88.67441625
_cell_angle_beta   89.58277528
_cell_angle_gamma   88.89234189
_symmetry_Int_Tables_number   1
_chemical_formula_structural   MgMn6(O2F)4
_chemical_formula_sum   'Mg1 Mn6 O8 F4'
_cell_volume   233.73296020
_cell_formula_units_Z   1
loop_
 _symmetry_equiv_pos_site_id
 _symmetry_equiv_pos_as_xyz
  1  'x, y, z'
loop_
 _atom_site_type_symbol
 _atom_site_label
 _atom_site_symmetry_multiplicity
 _atom_site_fract_x
 _atom_site_fract_y
 _atom_site_fract_z
 _atom_site_occupancy
  Mg  Mg0  1  0.47446700  0.00799000  0.81509600  1
  Mn  Mn0  1  0.96867800  0.93364800  0.01222900  1
  Mn  Mn1  1  0.06437800  0.03474300  0.32236500  1
  Mn  Mn2  1  0.98542700  0.95458000  0.65210300  1
  Mn  Mn3  1  0.48337700  0.51873000  0.82593500  1
  Mn  Mn4  1  0.48091400  0.53298800  0.16836100  1
  Mn  Mn5  1  0.47217400  0.52478300  0.50429200  1
  O  O0  1  0.18918800  0.79342400  0.16867800  1
  O  O1  1  0.18752400  0.82246100  0.49463200  1
  O  O2  1  0.15677200  0.79890300  0.82938800  1
  O  O3  1  0.34367900  0.33239800  0.33672900  1
  O  O4  1  0.35526500  0.30102500  0.67357800  1
  O  O5  1  0.63016900  0.72022600  0.98434300  1
  O  O6  1  0.63850100  0.72977900  0.66999000  1
  O  O7  1  0.86196700  0.17419400  0.15886500  1
  F  F0  1  0.36146400  0.26333100  0.98125700  1
  F  F1  1  0.68310600  0.70030900  0.34400400  1
  F  F2  1  0.84722900  0.19733000  0.49576000  1
  F  F3  1  0.81572300  0.17304800  0.82668100  1
loop_
_geom_bond_atom_site_label_1
_geom_bond_atom_site_label_2
_geom_bond_distance
_geom_bond_site_symmetry_2
Mg0 O2 1.984210 1_545
Mg0 O4 2.018490 1_555
Mg0 O6 2.099166 1_545
Mg0 O5 2.216587 1_545
Mn0 O7 1.877927 1_565
Mn0 O0 1.914939 1_655
Mn0 O2 2.005545 1_654
Mn0 O5 2.105013 1_554
Mn1 O7 1.905314 1_455
Mn1 O1 1.949548 1_545
Mn1 O0 1.951968 1_545
Mn1 O3 2.129443 1_555
Mn2 O1 1.863846 1_655
Mn2 O2 1.948631 1_655
Mn2 O6 2.157836 1_555
Mn2 O4 2.648609 1_665
Mn3 O4 1.895830 1_555
Mn3 O6 1.910276 1_555
Mn3 O5 1.923981 1_555
Mn3 O2 2.199209 1_555
Mn4 O3 1.923919 1_555
Mn4 O0 1.997569 1_555
Mn4 O5 2.020415 1_554
Mn4 O7 2.674550 1_555
Mn5 O3 1.923008 1_555
Mn5 O4 1.958659 1_555
Mn5 O6 2.024492 1_555
Mn5 O1 2.102187 1_555
F0 Mn3 1.978986 1_555
F0 Mg0 2.058913 1_555
F0 Mn4 2.270854 1_556
F0 Mn0 2.679363 1_446
F1 Mn5 1.988354 1_555
F1 Mn4 2.084545 1_555
F1 Mn1 2.643955 1_665
F2 Mn2 1.963177 1_545
F2 Mn1 2.071286 1_655
F2 Mn5 2.545472 1_555
F3 Mg0 1.980737 1_555
F3 Mn2 2.100106 1_545
F3 Mn0 2.165480 1_546
F3 Mn3 2.446690 1_555
