# generated using pymatgen
data_KBiS(ClO2)2
_symmetry_space_group_name_H-M   'P 1'
_cell_length_a   6.43314500
_cell_length_b   7.50207600
_cell_length_c   15.55898400
_cell_angle_alpha   90.00000000
_cell_angle_beta   90.00000000
_cell_angle_gamma   90.00000000
_symmetry_Int_Tables_number   1
_chemical_formula_structural   KBiS(ClO2)2
_chemical_formula_sum   'K4 Bi4 S4 Cl8 O16'
_cell_volume   750.90679442
_cell_formula_units_Z   4
loop_
 _symmetry_equiv_pos_site_id
 _symmetry_equiv_pos_as_xyz
  1  'x, y, z'
loop_
 _atom_site_type_symbol
 _atom_site_label
 _atom_site_symmetry_multiplicity
 _atom_site_fract_x
 _atom_site_fract_y
 _atom_site_fract_z
 _atom_site_occupancy
  K  K0  1  0.02867900  0.79796700  0.15624100  1
  K  K1  1  0.52867900  0.70203300  0.84375900  1
  K  K2  1  0.97132100  0.29796700  0.34375900  1
  K  K3  1  0.47132100  0.20203300  0.65624100  1
  Bi  Bi0  1  0.48556400  0.36446600  0.11687400  1
  Bi  Bi1  1  0.98556400  0.13553400  0.88312600  1
  Bi  Bi2  1  0.51443600  0.86446600  0.38312600  1
  Bi  Bi3  1  0.01443600  0.63553400  0.61687400  1
  S  S0  1  0.00578100  0.81632700  0.38800500  1
  S  S1  1  0.50578100  0.68367300  0.61199500  1
  S  S2  1  0.99421900  0.31632700  0.11199500  1
  S  S3  1  0.49421900  0.18367300  0.88800500  1
  Cl  Cl0  1  0.39770000  0.50597100  0.26578200  1
  Cl  Cl1  1  0.89770000  0.99402900  0.73421800  1
  Cl  Cl2  1  0.60230000  0.00597100  0.23421800  1
  Cl  Cl3  1  0.10230000  0.49402900  0.76578200  1
  Cl  Cl4  1  0.56975400  0.66514500  0.05222100  1
  Cl  Cl5  1  0.06975400  0.83485500  0.94777900  1
  Cl  Cl6  1  0.43024600  0.16514500  0.44777900  1
  Cl  Cl7  1  0.93024600  0.33485500  0.55222100  1
  O  O0  1  0.61913800  0.32789700  0.84872200  1
  O  O1  1  0.11913800  0.17210300  0.15127800  1
  O  O2  1  0.38086200  0.82789700  0.65127800  1
  O  O3  1  0.88086200  0.67210300  0.34872200  1
  O  O4  1  0.36923100  0.24656300  0.96301400  1
  O  O5  1  0.86923100  0.25343700  0.03698600  1
  O  O6  1  0.63076900  0.74656300  0.53698600  1
  O  O7  1  0.13076900  0.75343700  0.46301400  1
  O  O8  1  0.34329900  0.10576400  0.82439900  1
  O  O9  1  0.84329900  0.39423600  0.17560100  1
  O  O10  1  0.65670100  0.60576400  0.67560100  1
  O  O11  1  0.15670100  0.89423600  0.32439900  1
  O  O12  1  0.64249600  0.03755800  0.91510300  1
  O  O13  1  0.14249600  0.46244200  0.08489700  1
  O  O14  1  0.35750400  0.53755800  0.58489700  1
  O  O15  1  0.85750400  0.96244200  0.41510300  1
loop_
_geom_bond_atom_site_label_1
_geom_bond_atom_site_label_2
_geom_bond_distance
_geom_bond_site_symmetry_2
K0 O11 2.836418 1_555
K0 O13 2.846800 1_555
K0 O1 2.867529 1_565
K0 O9 3.269056 1_455
K0 O3 3.280966 1_455
K1 O10 2.836418 1_555
K1 O12 2.846800 1_565
K1 O0 2.867529 1_555
K1 O8 3.269056 1_565
K1 O2 3.280966 1_555
K2 O9 2.836418 1_555
K2 O15 2.846800 1_545
K2 O3 2.867529 1_555
K2 O11 3.269056 1_645
K2 O1 3.280966 1_655
K3 O8 2.836418 1_555
K3 O14 2.846800 1_555
K3 O2 2.867529 1_545
K3 O10 3.269056 1_555
K3 O0 3.280966 1_555
Bi0 O13 2.378796 1_555
Bi0 O9 2.486172 1_555
Bi0 Cl4 2.528537 1_555
Bi0 Cl0 2.610418 1_555
Bi0 O4 2.659556 1_554
Bi1 O12 2.378796 1_555
Bi1 O8 2.486172 1_655
Bi1 Cl5 2.528537 1_645
Bi1 Cl1 2.610418 1_545
Bi1 O5 2.659556 1_556
Bi2 O15 2.378796 1_555
Bi2 O11 2.486172 1_555
Bi2 Cl6 2.528537 1_565
Bi2 Cl2 2.610418 1_565
Bi2 O6 2.659556 1_555
Bi3 O14 2.378796 1_555
Bi3 O10 2.486172 1_455
Bi3 Cl7 2.528537 1_455
Bi3 Cl3 2.610418 1_555
Bi3 O7 2.659556 1_555
Cl0 K2 3.380949 1_455
Cl0 K0 3.652278 1_555
Cl1 K3 3.380949 1_565
Cl1 K1 3.652278 1_555
Cl2 K0 3.380949 1_645
Cl2 K2 3.652278 1_555
Cl3 K1 3.380949 1_555
Cl3 K3 3.652278 1_555
Cl4 K1 3.265948 1_554
Cl4 K0 3.511199 1_655
Cl5 K0 3.265948 1_556
Cl5 K1 3.511199 1_555
Cl6 K3 3.265948 1_555
Cl6 K2 3.511199 1_455
Cl7 K2 3.265948 1_555
Cl7 K3 3.511199 1_555
O0 S3 1.479884 1_555
O1 S2 1.479884 1_455
O2 S1 1.479884 1_555
O3 S0 1.479884 1_655
O4 S3 1.493707 1_555
O5 S2 1.493707 1_555
O6 S1 1.493707 1_555
O7 S0 1.493707 1_555
O8 S3 1.504540 1_555
O9 S2 1.504540 1_555
O10 S1 1.504540 1_555
O11 S0 1.504540 1_555
O12 S3 1.513024 1_555
O13 S2 1.513024 1_455
O14 S1 1.513024 1_555
O15 S0 1.513024 1_655
