# generated using pymatgen
data_MgFe4(OF)4
_symmetry_space_group_name_H-M   'P 1'
_cell_length_a   5.25379535
_cell_length_b   9.82707072
_cell_length_c   3.18241673
_cell_angle_alpha   98.19941105
_cell_angle_beta   90.37880430
_cell_angle_gamma   98.34723360
_symmetry_Int_Tables_number   1
_chemical_formula_structural   MgFe4(OF)4
_chemical_formula_sum   'Mg1 Fe4 O4 F4'
_cell_volume   160.84133527
_cell_formula_units_Z   1
loop_
 _symmetry_equiv_pos_site_id
 _symmetry_equiv_pos_as_xyz
  1  'x, y, z'
loop_
 _atom_site_type_symbol
 _atom_site_label
 _atom_site_symmetry_multiplicity
 _atom_site_fract_x
 _atom_site_fract_y
 _atom_site_fract_z
 _atom_site_occupancy
  Mg  Mg0  1  0.46526096  0.47379898  0.31331717  1
  Fe  Fe0  1  0.06992046  0.98464848  0.09104768  1
  Fe  Fe1  1  0.96820024  0.52730058  0.86347294  1
  Fe  Fe2  1  0.56933947  0.19303938  0.69085163  1
  Fe  Fe3  1  0.44501710  0.76886901  0.49590468  1
  O  O0  1  0.20154458  0.88406489  0.54838851  1
  O  O1  1  0.38990449  0.14211114  0.16652408  1
  O  O2  1  0.33516536  0.63357963  0.93578362  1
  O  O3  1  0.62164145  0.39008716  0.78177805  1
  F  F0  1  0.10178283  0.40659210  0.31319496  1
  F  F1  1  0.67901549  0.86317855  0.03422517  1
  F  F2  1  0.87909232  0.10696443  0.64733635  1
  F  F3  1  0.77411626  0.62576767  0.40984218  1
loop_
_geom_bond_atom_site_label_1
_geom_bond_atom_site_label_2
_geom_bond_distance
_geom_bond_site_symmetry_2
Mg0 O3 2.007705 1_554
Mg0 O3 2.025885 1_555
Mg0 O2 2.283636 1_554
Mg0 O2 2.509793 1_555
Fe0 O0 2.040831 1_554
Fe0 O0 2.041828 1_555
Fe0 O1 2.100400 1_565
Fe1 O2 2.049812 1_655
Fe1 O3 2.093284 1_555
Fe2 O1 1.878169 1_555
Fe2 O1 1.878490 1_556
Fe2 O3 1.895660 1_555
Fe3 O0 1.820706 1_555
Fe3 O2 2.089434 1_554
Fe3 O2 2.092625 1_555
F0 Mg0 1.927860 1_555
F0 Fe1 2.152168 1_455
F0 Fe1 2.158857 1_454
F1 Fe3 2.119832 1_554
F1 Fe3 2.147208 1_555
F1 Fe0 2.212953 1_655
F2 Fe2 1.937076 1_555
F2 Fe0 2.293303 1_646
F2 Fe0 2.313109 1_645
F3 Mg0 2.028947 1_555
F3 Fe1 2.173856 1_555
F3 Fe1 2.197594 1_554
F3 Fe3 2.375809 1_555
