# generated using pymatgen
data_Ag(W3Br7)2
_symmetry_space_group_name_H-M   'P 1'
_cell_length_a   13.76100300
_cell_length_b   13.76100300
_cell_length_c   13.76100300
_cell_angle_alpha   90.00000000
_cell_angle_beta   90.00000000
_cell_angle_gamma   90.00000000
_symmetry_Int_Tables_number   1
_chemical_formula_structural   Ag(W3Br7)2
_chemical_formula_sum   'Ag4 W24 Br56'
_cell_volume   2605.85513437
_cell_formula_units_Z   4
loop_
 _symmetry_equiv_pos_site_id
 _symmetry_equiv_pos_as_xyz
  1  'x, y, z'
loop_
 _atom_site_type_symbol
 _atom_site_label
 _atom_site_symmetry_multiplicity
 _atom_site_fract_x
 _atom_site_fract_y
 _atom_site_fract_z
 _atom_site_occupancy
  Ag  Ag0  1  0.25000000  0.75000000  0.75000000  1
  Ag  Ag1  1  0.75000000  0.25000000  0.75000000  1
  Ag  Ag2  1  0.75000000  0.75000000  0.25000000  1
  Ag  Ag3  1  0.25000000  0.25000000  0.25000000  1
  W  W0  1  0.88171700  0.72709800  0.78083800  1
  W  W1  1  0.78083800  0.88171700  0.72709800  1
  W  W2  1  0.72709800  0.78083800  0.88171700  1
  W  W3  1  0.27290200  0.21916200  0.88171700  1
  W  W4  1  0.78083800  0.11828300  0.27290200  1
  W  W5  1  0.27290200  0.78083800  0.11828300  1
  W  W6  1  0.21916200  0.11828300  0.72709800  1
  W  W7  1  0.21916200  0.88171700  0.27290200  1
  W  W8  1  0.72709800  0.21916200  0.11828300  1
  W  W9  1  0.88171700  0.27290200  0.21916200  1
  W  W10  1  0.11828300  0.72709800  0.21916200  1
  W  W11  1  0.11828300  0.27290200  0.78083800  1
  W  W12  1  0.61828300  0.77290200  0.71916200  1
  W  W13  1  0.71916200  0.61828300  0.77290200  1
  W  W14  1  0.77290200  0.71916200  0.61828300  1
  W  W15  1  0.22709800  0.28083800  0.61828300  1
  W  W16  1  0.71916200  0.38171700  0.22709800  1
  W  W17  1  0.22709800  0.71916200  0.38171700  1
  W  W18  1  0.28083800  0.38171700  0.77290200  1
  W  W19  1  0.28083800  0.61828300  0.22709800  1
  W  W20  1  0.77290200  0.28083800  0.38171700  1
  W  W21  1  0.61828300  0.22709800  0.28083800  1
  W  W22  1  0.38171700  0.77290200  0.28083800  1
  W  W23  1  0.38171700  0.22709800  0.71916200  1
  Br  Br0  1  0.88736800  0.88736800  0.88736800  1
  Br  Br1  1  0.11263200  0.11263200  0.88736800  1
  Br  Br2  1  0.88736800  0.11263200  0.11263200  1
  Br  Br3  1  0.11263200  0.88736800  0.11263200  1
  Br  Br4  1  0.61263200  0.61263200  0.61263200  1
  Br  Br5  1  0.38736800  0.38736800  0.61263200  1
  Br  Br6  1  0.61263200  0.38736800  0.38736800  1
  Br  Br7  1  0.38736800  0.61263200  0.38736800  1
  Br  Br8  1  0.93328300  0.82474400  0.62320000  1
  Br  Br9  1  0.62320000  0.93328300  0.82474400  1
  Br  Br10  1  0.82474400  0.62320000  0.93328300  1
  Br  Br11  1  0.17525600  0.37680000  0.93328300  1
  Br  Br12  1  0.62320000  0.06671700  0.17525600  1
  Br  Br13  1  0.17525600  0.62320000  0.06671700  1
  Br  Br14  1  0.37680000  0.06671700  0.82474400  1
  Br  Br15  1  0.37680000  0.93328300  0.17525600  1
  Br  Br16  1  0.82474400  0.37680000  0.06671700  1
  Br  Br17  1  0.93328300  0.17525600  0.37680000  1
  Br  Br18  1  0.06671700  0.82474400  0.37680000  1
  Br  Br19  1  0.06671700  0.17525600  0.62320000  1
  Br  Br20  1  0.56671700  0.67525600  0.87680000  1
  Br  Br21  1  0.87680000  0.56671700  0.67525600  1
  Br  Br22  1  0.67525600  0.87680000  0.56671700  1
  Br  Br23  1  0.32474400  0.12320000  0.56671700  1
  Br  Br24  1  0.87680000  0.43328300  0.32474400  1
  Br  Br25  1  0.32474400  0.87680000  0.43328300  1
  Br  Br26  1  0.12320000  0.43328300  0.67525600  1
  Br  Br27  1  0.12320000  0.56671700  0.32474400  1
  Br  Br28  1  0.67525600  0.12320000  0.43328300  1
  Br  Br29  1  0.56671700  0.32474400  0.12320000  1
  Br  Br30  1  0.43328300  0.67525600  0.12320000  1
  Br  Br31  1  0.43328300  0.32474400  0.87680000  1
  Br  Br32  1  0.06189700  0.69250900  0.82789000  1
  Br  Br33  1  0.82789000  0.06189700  0.69250900  1
  Br  Br34  1  0.69250900  0.82789000  0.06189700  1
  Br  Br35  1  0.30749100  0.17211000  0.06189700  1
  Br  Br36  1  0.82789000  0.93810300  0.30749100  1
  Br  Br37  1  0.30749100  0.82789000  0.93810300  1
  Br  Br38  1  0.17211000  0.93810300  0.69250900  1
  Br  Br39  1  0.17211000  0.06189700  0.30749100  1
  Br  Br40  1  0.69250900  0.17211000  0.93810300  1
  Br  Br41  1  0.06189700  0.30749100  0.17211000  1
  Br  Br42  1  0.93810300  0.69250900  0.17211000  1
  Br  Br43  1  0.93810300  0.30749100  0.82789000  1
  Br  Br44  1  0.43810300  0.80749100  0.67211000  1
  Br  Br45  1  0.67211000  0.43810300  0.80749100  1
  Br  Br46  1  0.80749100  0.67211000  0.43810300  1
  Br  Br47  1  0.19250900  0.32789000  0.43810300  1
  Br  Br48  1  0.67211000  0.56189700  0.19250900  1
  Br  Br49  1  0.19250900  0.67211000  0.56189700  1
  Br  Br50  1  0.32789000  0.56189700  0.80749100  1
  Br  Br51  1  0.32789000  0.43810300  0.19250900  1
  Br  Br52  1  0.80749100  0.32789000  0.56189700  1
  Br  Br53  1  0.43810300  0.19250900  0.32789000  1
  Br  Br54  1  0.56189700  0.80749100  0.32789000  1
  Br  Br55  1  0.56189700  0.19250900  0.67211000  1
loop_
_geom_bond_atom_site_label_1
_geom_bond_atom_site_label_2
_geom_bond_distance
_geom_bond_site_symmetry_2
Ag0 Br37 2.911186 1_555
Ag0 Br44 2.911186 1_555
Ag0 Br38 2.911186 1_555
Ag0 Br50 2.911186 1_555
Ag0 Br49 2.911186 1_555
Ag0 Br32 2.911186 1_555
Ag1 Br43 2.911186 1_555
Ag1 Br45 2.911186 1_555
Ag1 Br40 2.911186 1_555
Ag1 Br52 2.911186 1_555
Ag1 Br55 2.911186 1_555
Ag1 Br33 2.911186 1_555
Ag2 Br36 2.911186 1_555
Ag2 Br46 2.911186 1_555
Ag2 Br42 2.911186 1_555
Ag2 Br54 2.911186 1_555
Ag2 Br34 2.911186 1_555
Ag2 Br48 2.911186 1_555
Ag3 Br51 2.911186 1_555
Ag3 Br53 2.911186 1_555
Ag3 Br47 2.911186 1_555
Ag3 Br41 2.911186 1_555
Ag3 Br39 2.911186 1_555
Ag3 Br35 2.911186 1_555
Br0 W1 2.649379 1_555
Br0 W2 2.649379 1_555
Br0 W0 2.649379 1_555
Br1 W6 2.649379 1_555
Br1 W3 2.649379 1_555
Br1 W11 2.649379 1_555
Br2 W8 2.649379 1_555
Br2 W9 2.649379 1_555
Br2 W4 2.649379 1_555
Br3 W10 2.649379 1_555
Br3 W7 2.649379 1_555
Br3 W5 2.649379 1_555
Br4 W12 2.649379 1_555
Br4 W13 2.649379 1_555
Br4 W14 2.649379 1_555
Br5 W23 2.649379 1_555
Br5 W15 2.649379 1_555
Br5 W18 2.649379 1_555
Br6 W21 2.649379 1_555
Br6 W16 2.649379 1_555
Br6 W20 2.649379 1_555
Br7 W17 2.649379 1_555
Br7 W19 2.649379 1_555
Br7 W22 2.649379 1_555
Br8 W14 2.643180 1_555
Br8 W0 2.648538 1_555
Br8 W1 2.656985 1_555
Br9 W12 2.643180 1_555
Br9 W1 2.648538 1_555
Br9 W2 2.656985 1_555
Br10 W13 2.643180 1_555
Br10 W2 2.648538 1_555
Br10 W0 2.656985 1_555
Br11 W18 2.643180 1_555
Br11 W3 2.648538 1_555
Br11 W11 2.656985 1_555
Br12 W21 2.643180 1_555
Br12 W4 2.648538 1_555
Br12 W8 2.656985 1_555
Br13 W19 2.643180 1_555
Br13 W5 2.648538 1_555
Br13 W10 2.656985 1_555
Br14 W23 2.643180 1_555
Br14 W6 2.648538 1_555
Br14 W3 2.656985 1_555
Br15 W22 2.643180 1_555
Br15 W7 2.648538 1_555
Br15 W5 2.656985 1_555
Br16 W16 2.643180 1_555
Br16 W8 2.648538 1_555
Br16 W9 2.656985 1_555
Br17 W20 2.643180 1_555
Br17 W9 2.648538 1_555
Br17 W4 2.656985 1_555
Br18 W17 2.643180 1_555
Br18 W10 2.648538 1_555
Br18 W7 2.656985 1_555
Br19 W15 2.643180 1_555
Br19 W11 2.648538 1_555
Br19 W6 2.656985 1_555
Br20 W2 2.643180 1_555
Br20 W12 2.648538 1_555
Br20 W13 2.656985 1_555
Br21 W0 2.643180 1_555
Br21 W13 2.648538 1_555
Br21 W14 2.656985 1_555
Br22 W1 2.643180 1_555
Br22 W14 2.648538 1_555
Br22 W12 2.656985 1_555
Br23 W6 2.643180 1_555
Br23 W15 2.648538 1_555
Br23 W23 2.656985 1_555
Br24 W9 2.643180 1_555
Br24 W16 2.648538 1_555
Br24 W20 2.656985 1_555
Br25 W7 2.643180 1_555
Br25 W17 2.648538 1_555
Br25 W22 2.656985 1_555
Br26 W11 2.643180 1_555
Br26 W18 2.648538 1_555
Br26 W15 2.656985 1_555
Br27 W10 2.643180 1_555
Br27 W19 2.648538 1_555
Br27 W17 2.656985 1_555
Br28 W4 2.643180 1_555
Br28 W20 2.648538 1_555
Br28 W21 2.656985 1_555
Br29 W8 2.643180 1_555
Br29 W21 2.648538 1_555
Br29 W16 2.656985 1_555
Br30 W5 2.643180 1_555
Br30 W22 2.648538 1_555
Br30 W19 2.656985 1_555
Br31 W3 2.643180 1_555
Br31 W23 2.648538 1_555
Br31 W18 2.656985 1_555
Br32 W0 2.606434 1_455
Br33 W1 2.606434 1_545
Br34 W2 2.606434 1_554
Br35 W3 2.606434 1_554
Br36 W4 2.606434 1_565
Br37 W5 2.606434 1_556
Br38 W6 2.606434 1_565
Br39 W7 2.606434 1_545
Br40 W8 2.606434 1_556
Br41 W9 2.606434 1_455
Br42 W10 2.606434 1_655
Br43 W11 2.606434 1_655
Br44 W12 2.606434 1_555
Br45 W13 2.606434 1_555
Br46 W14 2.606434 1_555
Br47 W15 2.606434 1_555
Br48 W16 2.606434 1_555
Br49 W17 2.606434 1_555
Br50 W18 2.606434 1_555
Br51 W19 2.606434 1_555
Br52 W20 2.606434 1_555
Br53 W21 2.606434 1_555
Br54 W22 2.606434 1_555
Br55 W23 2.606434 1_555
