# generated using pymatgen
data_TiZn(SO4)3
_symmetry_space_group_name_H-M   'P 1'
_cell_length_a   8.62308313
_cell_length_b   8.62308286
_cell_length_c   22.30398781
_cell_angle_alpha   90.00000000
_cell_angle_beta   90.00000000
_cell_angle_gamma   120.00000106
_symmetry_Int_Tables_number   1
_chemical_formula_structural   TiZn(SO4)3
_chemical_formula_sum   'Ti6 Zn6 S18 O72'
_cell_volume   1436.27724024
_cell_formula_units_Z   6
loop_
 _symmetry_equiv_pos_site_id
 _symmetry_equiv_pos_as_xyz
  1  'x, y, z'
loop_
 _atom_site_type_symbol
 _atom_site_label
 _atom_site_symmetry_multiplicity
 _atom_site_fract_x
 _atom_site_fract_y
 _atom_site_fract_z
 _atom_site_occupancy
  Ti  Ti0  1  -0.00000000  0.00000000  0.64310546  1
  Ti  Ti1  1  -0.00000000  0.00000000  0.14310546  1
  Ti  Ti2  1  0.66666700  0.33333300  0.97643846  1
  Ti  Ti3  1  0.66666700  0.33333300  0.47643846  1
  Ti  Ti4  1  0.33333300  0.66666700  0.30977246  1
  Ti  Ti5  1  0.33333300  0.66666700  0.80977246  1
  Zn  Zn0  1  -0.00000000  0.00000000  0.35388009  1
  Zn  Zn1  1  -0.00000000  0.00000000  0.85388009  1
  Zn  Zn2  1  0.66666700  0.33333300  0.68721309  1
  Zn  Zn3  1  0.66666700  0.33333300  0.18721309  1
  Zn  Zn4  1  0.33333300  0.66666700  0.02054709  1
  Zn  Zn5  1  0.33333300  0.66666700  0.52054709  1
  S  S0  1  0.28889664  0.00067491  0.25061392  1
  S  S1  1  0.71177827  0.71110336  0.25061392  1
  S  S2  1  0.99932509  0.28822173  0.25061392  1
  S  S3  1  0.28889664  0.28822173  0.75061392  1
  S  S4  1  0.99932509  0.71110336  0.75061392  1
  S  S5  1  0.71177827  0.00067491  0.75061392  1
  S  S6  1  0.95556364  0.33400791  0.58394692  1
  S  S7  1  0.37844527  0.04443636  0.58394692  1
  S  S8  1  0.66599209  0.62155473  0.58394692  1
  S  S9  1  0.95556364  0.62155473  0.08394692  1
  S  S10  1  0.66599209  0.04443636  0.08394692  1
  S  S11  1  0.37844527  0.33400791  0.08394692  1
  S  S12  1  0.62222964  0.66734191  0.91728092  1
  S  S13  1  0.04511127  0.37777036  0.91728092  1
  S  S14  1  0.33265809  0.95488873  0.91728092  1
  S  S15  1  0.62222964  0.95488873  0.41728092  1
  S  S16  1  0.33265809  0.37777036  0.41728092  1
  S  S17  1  0.04511127  0.66734191  0.41728092  1
  O  O0  1  0.21053301  0.02881347  0.30426399  1
  O  O1  1  0.81828046  0.78946699  0.30426399  1
  O  O2  1  0.97118653  0.18171954  0.30426399  1
  O  O3  1  0.21053301  0.18171954  0.80426399  1
  O  O4  1  0.97118653  0.78946699  0.80426399  1
  O  O5  1  0.81828046  0.02881347  0.80426399  1
  O  O6  1  0.79456097  0.96500557  0.69638829  1
  O  O7  1  0.17044460  0.20543903  0.69638829  1
  O  O8  1  0.03499443  0.82955540  0.69638829  1
  O  O9  1  0.79456097  0.82955540  0.19638829  1
  O  O10  1  0.03499443  0.20543903  0.19638829  1
  O  O11  1  0.17044460  0.96500557  0.19638829  1
  O  O12  1  0.87720001  0.36214647  0.63759699  1
  O  O13  1  0.48494746  0.12279999  0.63759699  1
  O  O14  1  0.63785353  0.51505254  0.63759699  1
  O  O15  1  0.87720001  0.51505254  0.13759699  1
  O  O16  1  0.63785353  0.12279999  0.13759699  1
  O  O17  1  0.48494746  0.36214647  0.13759699  1
  O  O18  1  0.46122797  0.29833857  0.02972129  1
  O  O19  1  0.83711160  0.53877203  0.02972129  1
  O  O20  1  0.70166143  0.16288840  0.02972129  1
  O  O21  1  0.46122797  0.16288840  0.52972129  1
  O  O22  1  0.70166143  0.53877203  0.52972129  1
  O  O23  1  0.83711160  0.29833857  0.52972129  1
  O  O24  1  0.54386601  0.69548047  0.97093099  1
  O  O25  1  0.15161346  0.45613399  0.97093099  1
  O  O26  1  0.30451953  0.84838654  0.97093099  1
  O  O27  1  0.54386601  0.84838654  0.47093099  1
  O  O28  1  0.30451953  0.45613399  0.47093099  1
  O  O29  1  0.15161346  0.69548047  0.47093099  1
  O  O30  1  0.12789397  0.63167257  0.36305529  1
  O  O31  1  0.50377760  0.87210603  0.36305529  1
  O  O32  1  0.36832743  0.49622240  0.36305529  1
  O  O33  1  0.12789397  0.49622240  0.86305529  1
  O  O34  1  0.36832743  0.87210603  0.86305529  1
  O  O35  1  0.50377760  0.63167257  0.86305529  1
  O  O36  1  0.01654372  0.81740691  0.40743621  1
  O  O37  1  0.80086319  0.98345628  0.40743621  1
  O  O38  1  0.18259309  0.19913681  0.40743621  1
  O  O39  1  0.01654372  0.19913681  0.90743621  1
  O  O40  1  0.18259309  0.98345628  0.90743621  1
  O  O41  1  0.80086319  0.81740691  0.90743621  1
  O  O42  1  0.96792910  0.16469683  0.59230241  1
  O  O43  1  0.19676772  0.03207090  0.59230241  1
  O  O44  1  0.83530317  0.80323228  0.59230241  1
  O  O45  1  0.96792910  0.80323228  0.09230241  1
  O  O46  1  0.83530317  0.03207090  0.09230241  1
  O  O47  1  0.19676772  0.16469683  0.09230241  1
  O  O48  1  0.68321072  0.15073991  0.74076921  1
  O  O49  1  0.46753019  0.31678928  0.74076921  1
  O  O50  1  0.84926009  0.53246981  0.74076921  1
  O  O51  1  0.68321072  0.53246981  0.24076921  1
  O  O52  1  0.84926009  0.31678928  0.24076921  1
  O  O53  1  0.46753019  0.15073991  0.24076921  1
  O  O54  1  0.63459610  0.49802983  0.92563541  1
  O  O55  1  0.86343472  0.36540390  0.92563541  1
  O  O56  1  0.50197017  0.13656528  0.92563541  1
  O  O57  1  0.63459610  0.13656528  0.42563541  1
  O  O58  1  0.50197017  0.36540390  0.42563541  1
  O  O59  1  0.86343472  0.49802983  0.42563541  1
  O  O60  1  0.34987672  0.48407391  0.07410321  1
  O  O61  1  0.13419619  0.65012328  0.07410321  1
  O  O62  1  0.51592609  0.86580381  0.07410321  1
  O  O63  1  0.34987672  0.86580381  0.57410321  1
  O  O64  1  0.51592609  0.65012328  0.57410321  1
  O  O65  1  0.13419619  0.48407391  0.57410321  1
  O  O66  1  0.30126210  0.83136383  0.25896941  1
  O  O67  1  0.53010072  0.69873790  0.25896941  1
  O  O68  1  0.16863617  0.46989928  0.25896941  1
  O  O69  1  0.30126210  0.46989928  0.75896941  1
  O  O70  1  0.16863617  0.69873790  0.75896941  1
  O  O71  1  0.53010072  0.83136383  0.75896941  1
loop_
_geom_bond_atom_site_label_1
_geom_bond_atom_site_label_2
_geom_bond_distance
_geom_bond_site_symmetry_2
O0 S0 1.453042 1_555
O0 Zn0 2.032522 1_555
O1 S1 1.453042 1_555
O1 Zn0 2.032522 1_665
O2 S2 1.453042 1_555
O2 Zn0 2.032522 1_655
O3 S3 1.453042 1_555
O3 Zn1 2.032522 1_555
O4 S4 1.453042 1_555
O4 Zn1 2.032522 1_665
O5 S5 1.453042 1_555
O5 Zn1 2.032522 1_655
O6 S5 1.512119 1_565
O6 Ti0 2.026599 1_665
O7 S3 1.512119 1_555
O7 Ti0 2.026599 1_555
O8 S4 1.512119 1_455
O8 Ti0 2.026599 1_565
O9 S1 1.512119 1_555
O9 Ti1 2.026599 1_665
O10 S2 1.512119 1_455
O10 Ti1 2.026599 1_555
O11 S0 1.512119 1_565
O11 Ti1 2.026599 1_565
O12 S6 1.453042 1_555
O12 Zn2 2.032522 1_555
O13 S7 1.453042 1_555
O13 Zn2 2.032522 1_555
O14 S8 1.453042 1_555
O14 Zn2 2.032522 1_555
O15 S9 1.453042 1_555
O15 Zn3 2.032522 1_555
O16 S10 1.453042 1_555
O16 Zn3 2.032522 1_555
O17 S11 1.453042 1_555
O17 Zn3 2.032522 1_555
O18 S11 1.512119 1_555
O18 Ti2 2.026599 1_554
O19 S9 1.512119 1_555
O19 Ti2 2.026599 1_554
O20 S10 1.512119 1_555
O20 Ti2 2.026599 1_554
O21 S7 1.512119 1_555
O21 Ti3 2.026599 1_555
O22 S8 1.512119 1_555
O22 Ti3 2.026599 1_555
O23 S6 1.512119 1_555
O23 Ti3 2.026599 1_555
O24 S12 1.453042 1_555
O24 Zn4 2.032522 1_556
O25 S13 1.453042 1_555
O25 Zn4 2.032522 1_556
O26 S14 1.453042 1_555
O26 Zn4 2.032522 1_556
O27 S15 1.453042 1_555
O27 Zn5 2.032522 1_555
O28 S16 1.453042 1_555
O28 Zn5 2.032522 1_555
O29 S17 1.453042 1_555
O29 Zn5 2.032522 1_555
O30 S17 1.512119 1_555
O30 Ti4 2.026599 1_555
O31 S15 1.512119 1_555
O31 Ti4 2.026599 1_555
O32 S16 1.512119 1_555
O32 Ti4 2.026599 1_555
O33 S13 1.512119 1_555
O33 Ti5 2.026599 1_555
O34 S14 1.512119 1_555
O34 Ti5 2.026599 1_555
O35 S12 1.512119 1_555
O35 Ti5 2.026599 1_555
O36 S17 1.449884 1_555
O36 Zn0 2.037384 1_565
O37 S15 1.449892 1_555
O37 Zn0 2.037384 1_665
O38 S16 1.449889 1_555
O38 Zn0 2.037384 1_555
O39 S13 1.449892 1_555
O39 Zn1 2.037384 1_555
O40 S14 1.449884 1_555
O40 Zn1 2.037384 1_565
O41 S12 1.449889 1_555
O41 Zn1 2.037384 1_665
O42 S6 1.527523 1_555
O42 Ti0 1.941681 1_655
O43 S7 1.527532 1_555
O43 Ti0 1.941681 1_555
O44 S8 1.527528 1_555
O44 Ti0 1.941681 1_665
O45 S9 1.527532 1_555
O45 Ti1 1.941681 1_665
O46 S10 1.527523 1_555
O46 Ti1 1.941681 1_655
O47 S11 1.527528 1_555
O47 Ti1 1.941681 1_555
O48 S5 1.449884 1_555
O48 Zn2 2.037384 1_555
O49 S3 1.449892 1_555
O49 Zn2 2.037384 1_555
O50 S4 1.449889 1_555
O50 Zn2 2.037384 1_555
O51 S1 1.449892 1_555
O51 Zn3 2.037384 1_555
O52 S2 1.449884 1_555
O52 Zn3 2.037384 1_555
O53 S0 1.449889 1_555
O53 Zn3 2.037384 1_555
O54 S12 1.527534 1_555
O54 Ti2 1.941681 1_555
O55 S13 1.527517 1_655
O55 Ti2 1.941681 1_555
O56 S14 1.527524 1_545
O56 Ti2 1.941681 1_555
O57 S15 1.527517 1_545
O57 Ti3 1.941681 1_555
O58 S16 1.527534 1_555
O58 Ti3 1.941681 1_555
O59 S17 1.527524 1_655
O59 Ti3 1.941681 1_555
O60 S11 1.449894 1_555
O60 Zn4 2.037384 1_555
O61 S9 1.449877 1_455
O61 Zn4 2.037384 1_555
O62 S10 1.449883 1_565
O62 Zn4 2.037384 1_555
O63 S7 1.449877 1_565
O63 Zn5 2.037384 1_555
O64 S8 1.449894 1_555
O64 Zn5 2.037384 1_555
O65 S6 1.449883 1_455
O65 Zn5 2.037384 1_555
O66 S0 1.527523 1_565
O66 Ti4 1.941681 1_555
O67 S1 1.527532 1_555
O67 Ti4 1.941681 1_555
O68 S2 1.527528 1_455
O68 Ti4 1.941681 1_555
O69 S3 1.527532 1_555
O69 Ti5 1.941681 1_555
O70 S4 1.527523 1_455
O70 Ti5 1.941681 1_555
O71 S5 1.527528 1_565
O71 Ti5 1.941681 1_555
