# generated using pymatgen
data_MgH12SO9
_symmetry_space_group_name_H-M   'P 1'
_cell_length_a   5.94920466
_cell_length_b   5.94920466
_cell_length_c   5.94920509
_cell_angle_alpha   96.00119357
_cell_angle_beta   96.00119357
_cell_angle_gamma   96.00119016
_symmetry_Int_Tables_number   1
_chemical_formula_structural   MgH12SO9
_chemical_formula_sum   'Mg1 H12 S1 O9'
_cell_volume   206.83453662
_cell_formula_units_Z   1
loop_
 _symmetry_equiv_pos_site_id
 _symmetry_equiv_pos_as_xyz
  1  'x, y, z'
loop_
 _atom_site_type_symbol
 _atom_site_label
 _atom_site_symmetry_multiplicity
 _atom_site_fract_x
 _atom_site_fract_y
 _atom_site_fract_z
 _atom_site_occupancy
  Mg  Mg0  1  0.99090300  0.99090300  0.99090300  1
  H  H0  1  0.79712700  0.18436100  0.36728500  1
  H  H1  1  0.36728500  0.79712700  0.18436100  1
  H  H2  1  0.18436100  0.36728500  0.79712700  1
  H  H3  1  0.06239900  0.26580600  0.40078600  1
  H  H4  1  0.40078600  0.06239900  0.26580600  1
  H  H5  1  0.26580600  0.40078600  0.06239900  1
  H  H6  1  0.13270100  0.73324000  0.61991700  1
  H  H7  1  0.61991700  0.13270100  0.73324000  1
  H  H8  1  0.73324000  0.61991700  0.13270100  1
  H  H9  1  0.01670400  0.94514700  0.53267600  1
  H  H10  1  0.53267600  0.01670400  0.94514700  1
  H  H11  1  0.94514700  0.53267600  0.01670400  1
  S  S0  1  0.49534900  0.49534900  0.49534900  1
  O  O0  1  0.94626900  0.13575800  0.32876900  1
  O  O1  1  0.32876900  0.94626900  0.13575800  1
  O  O2  1  0.13575800  0.32876900  0.94626900  1
  O  O3  1  0.06819100  0.87489500  0.67015700  1
  O  O4  1  0.67015700  0.06819100  0.87489500  1
  O  O5  1  0.87489500  0.67015700  0.06819100  1
  O  O6  1  0.24511500  0.47343600  0.55342900  1
  O  O7  1  0.55342900  0.24511500  0.47343600  1
  O  O8  1  0.47343600  0.55342900  0.24511500  1
loop_
_geom_bond_atom_site_label_1
_geom_bond_atom_site_label_2
_geom_bond_distance
_geom_bond_site_symmetry_2
Mg0 O4 2.074449 1_565
Mg0 O5 2.074450 1_556
Mg0 O3 2.074450 1_655
Mg0 O1 2.156537 1_656
Mg0 O2 2.156537 1_665
Mg0 O0 2.156537 1_566
H0 O0 1.002833 1_555
H0 O7 1.698435 1_555
H1 O1 1.002833 1_555
H1 O8 1.698435 1_555
H2 O2 1.002833 1_555
H2 O6 1.698436 1_555
H3 O0 1.008212 1_455
H3 O6 1.676407 1_555
H4 O1 1.008212 1_545
H4 O7 1.676407 1_555
H5 O2 1.008212 1_554
H5 O8 1.676407 1_555
H6 O3 0.992860 1_555
H6 O6 1.770960 1_555
H7 O4 0.992860 1_555
H7 O7 1.770960 1_555
H8 O5 0.992860 1_555
H8 O8 1.770960 1_555
H9 O3 0.991628 1_555
H10 O4 0.991628 1_555
H11 O5 0.991628 1_555
O6 S0 1.558522 1_555
O7 S0 1.558522 1_555
O8 S0 1.558522 1_555
