# generated using pymatgen
data_Nb4FeSi
_symmetry_space_group_name_H-M   'P 1'
_cell_length_a   6.19482700
_cell_length_b   6.19482700
_cell_length_c   5.09623200
_cell_angle_alpha   90.00000000
_cell_angle_beta   90.00000000
_cell_angle_gamma   90.00000000
_symmetry_Int_Tables_number   1
_chemical_formula_structural   Nb4FeSi
_chemical_formula_sum   'Nb8 Fe2 Si2'
_cell_volume   195.57239563
_cell_formula_units_Z   2
loop_
 _symmetry_equiv_pos_site_id
 _symmetry_equiv_pos_as_xyz
  1  'x, y, z'
loop_
 _atom_site_type_symbol
 _atom_site_label
 _atom_site_symmetry_multiplicity
 _atom_site_fract_x
 _atom_site_fract_y
 _atom_site_fract_z
 _atom_site_occupancy
  Nb  Nb0  1  0.15286400  0.33153800  0.00000000  1
  Nb  Nb1  1  0.33153800  0.84713600  0.00000000  1
  Nb  Nb2  1  0.84713600  0.66846200  0.00000000  1
  Nb  Nb3  1  0.66846200  0.84713600  0.50000000  1
  Nb  Nb4  1  0.15286400  0.66846200  0.50000000  1
  Nb  Nb5  1  0.84713600  0.33153800  0.50000000  1
  Nb  Nb6  1  0.66846200  0.15286400  0.00000000  1
  Nb  Nb7  1  0.33153800  0.15286400  0.50000000  1
  Fe  Fe0  1  0.00000000  0.00000000  0.75000000  1
  Fe  Fe1  1  0.00000000  0.00000000  0.25000000  1
  Si  Si0  1  0.50000000  0.50000000  0.75000000  1
  Si  Si1  1  0.50000000  0.50000000  0.25000000  1
loop_
_geom_bond_atom_site_label_1
_geom_bond_atom_site_label_2
_geom_bond_distance
_geom_bond_site_symmetry_2
Nb0 Si1 2.708641 1_555
Nb0 Si0 2.708641 1_554
Nb1 Si1 2.708641 1_555
Nb1 Si0 2.708641 1_554
Nb2 Si1 2.708641 1_555
Nb2 Si0 2.708641 1_554
Nb3 Si0 2.708641 1_555
Nb3 Si1 2.708641 1_555
Nb4 Si0 2.708641 1_555
Nb4 Si1 2.708641 1_555
Nb5 Si0 2.708641 1_555
Nb5 Si1 2.708641 1_555
Nb6 Si1 2.708641 1_555
Nb6 Si0 2.708641 1_554
Nb7 Si0 2.708641 1_555
Nb7 Si1 2.708641 1_555
Fe0 Fe1 2.548116 1_556
Fe0 Fe1 2.548116 1_555
Fe0 Nb5 2.595794 1_455
Fe0 Nb2 2.595794 1_446
Fe0 Nb6 2.595794 1_456
Fe0 Nb7 2.595794 1_555
Fe0 Nb1 2.595794 1_546
Fe0 Nb0 2.595794 1_556
Fe0 Nb4 2.595794 1_545
Fe0 Nb3 2.595794 1_445
Fe1 Nb5 2.595794 1_455
Fe1 Nb7 2.595794 1_555
Fe1 Nb6 2.595794 1_455
Fe1 Nb0 2.595794 1_555
Fe1 Nb2 2.595794 1_445
Fe1 Nb4 2.595794 1_545
Fe1 Nb1 2.595794 1_545
Fe1 Nb3 2.595794 1_445
Si0 Si1 2.548116 1_555
Si0 Si1 2.548116 1_556
