# generated using pymatgen
data_Tl2SnTe3
_symmetry_space_group_name_H-M   'P 1'
_cell_length_a   8.63882800
_cell_length_b   8.79686100
_cell_length_c   22.64673000
_cell_angle_alpha   90.00000000
_cell_angle_beta   90.00000000
_cell_angle_gamma   90.00000000
_symmetry_Int_Tables_number   1
_chemical_formula_structural   Tl2SnTe3
_chemical_formula_sum   'Tl16 Sn8 Te24'
_cell_volume   1721.02848830
_cell_formula_units_Z   8
loop_
 _symmetry_equiv_pos_site_id
 _symmetry_equiv_pos_as_xyz
  1  'x, y, z'
loop_
 _atom_site_type_symbol
 _atom_site_label
 _atom_site_symmetry_multiplicity
 _atom_site_fract_x
 _atom_site_fract_y
 _atom_site_fract_z
 _atom_site_occupancy
  Tl  Tl0  1  0.70062700  0.98843000  0.33167400  1
  Tl  Tl1  1  0.20062700  0.51157000  0.16832600  1
  Tl  Tl2  1  0.79937300  0.48843000  0.66832600  1
  Tl  Tl3  1  0.29937300  0.01157000  0.83167400  1
  Tl  Tl4  1  0.29937300  0.01157000  0.66832600  1
  Tl  Tl5  1  0.79937300  0.48843000  0.83167400  1
  Tl  Tl6  1  0.20062700  0.51157000  0.33167400  1
  Tl  Tl7  1  0.70062700  0.98843000  0.16832600  1
  Tl  Tl8  1  0.73647400  0.03377000  0.48985800  1
  Tl  Tl9  1  0.23647400  0.46623000  0.01014200  1
  Tl  Tl10  1  0.76352600  0.53377000  0.51014200  1
  Tl  Tl11  1  0.26352600  0.96623000  0.98985800  1
  Tl  Tl12  1  0.26352600  0.96623000  0.51014200  1
  Tl  Tl13  1  0.76352600  0.53377000  0.98985800  1
  Tl  Tl14  1  0.23647400  0.46623000  0.48985800  1
  Tl  Tl15  1  0.73647400  0.03377000  0.01014200  1
  Sn  Sn0  1  0.80319300  0.99453700  0.66517100  1
  Sn  Sn1  1  0.80319300  0.99453700  0.83482900  1
  Sn  Sn2  1  0.30319300  0.50546300  0.66517100  1
  Sn  Sn3  1  0.69680700  0.49453700  0.16517100  1
  Sn  Sn4  1  0.19680700  0.00546300  0.33482900  1
  Sn  Sn5  1  0.19680700  0.00546300  0.16517100  1
  Sn  Sn6  1  0.69680700  0.49453700  0.33482900  1
  Sn  Sn7  1  0.30319300  0.50546300  0.83482900  1
  Te  Te0  1  0.90233500  0.30977300  0.39698000  1
  Te  Te1  1  0.40233500  0.19022700  0.10302000  1
  Te  Te2  1  0.59766500  0.80977300  0.60302000  1
  Te  Te3  1  0.09766500  0.69022700  0.89698000  1
  Te  Te4  1  0.09766500  0.69022700  0.60302000  1
  Te  Te5  1  0.59766500  0.80977300  0.89698000  1
  Te  Te6  1  0.40233500  0.19022700  0.39698000  1
  Te  Te7  1  0.90233500  0.30977300  0.10302000  1
  Te  Te8  1  0.97976700  0.17932600  0.90967600  1
  Te  Te9  1  0.97976700  0.17932600  0.59032400  1
  Te  Te10  1  0.47976700  0.32067400  0.90967600  1
  Te  Te11  1  0.52023300  0.67932600  0.40967600  1
  Te  Te12  1  0.02023300  0.82067400  0.09032400  1
  Te  Te13  1  0.02023300  0.82067400  0.40967600  1
  Te  Te14  1  0.52023300  0.67932600  0.09032400  1
  Te  Te15  1  0.47976700  0.32067400  0.59032400  1
  Te  Te16  1  0.63279400  0.17046500  0.75000000  1
  Te  Te17  1  0.13279400  0.32953500  0.75000000  1
  Te  Te18  1  0.86720600  0.67046500  0.25000000  1
  Te  Te19  1  0.36720600  0.82953500  0.25000000  1
  Te  Te20  1  0.02216100  0.17453600  0.25000000  1
  Te  Te21  1  0.52216100  0.32546400  0.25000000  1
  Te  Te22  1  0.47783900  0.67453600  0.75000000  1
  Te  Te23  1  0.97783900  0.82546400  0.75000000  1
loop_
_geom_bond_atom_site_label_1
_geom_bond_atom_site_label_2
_geom_bond_distance
_geom_bond_site_symmetry_2
Sn0 Te2 2.788426 1_555
Sn0 Te9 2.800435 1_565
Sn0 Te23 2.859896 1_555
Sn0 Te16 2.872744 1_565
Sn1 Te5 2.788426 1_555
Sn1 Te8 2.800435 1_565
Sn1 Te23 2.859896 1_555
Sn1 Te16 2.872744 1_565
Sn2 Te4 2.788426 1_555
Sn2 Te15 2.800435 1_555
Sn2 Te22 2.859896 1_555
Sn2 Te17 2.872744 1_555
Sn3 Te7 2.788426 1_555
Sn3 Te14 2.800435 1_555
Sn3 Te21 2.859896 1_555
Sn3 Te18 2.872744 1_555
Sn4 Te6 2.788426 1_555
Sn4 Te13 2.800435 1_545
Sn4 Te20 2.859896 1_555
Sn4 Te19 2.872744 1_545
Sn5 Te1 2.788426 1_555
Sn5 Te12 2.800435 1_545
Sn5 Te20 2.859896 1_555
Sn5 Te19 2.872744 1_545
Sn6 Te0 2.788426 1_555
Sn6 Te11 2.800435 1_555
Sn6 Te21 2.859896 1_555
Sn6 Te18 2.872744 1_555
Sn7 Te3 2.788426 1_555
Sn7 Te10 2.800435 1_555
Sn7 Te22 2.859896 1_555
Sn7 Te17 2.872744 1_555
Te0 Tl10 3.447955 1_555
Te0 Tl6 3.461067 1_655
Te0 Tl8 3.517421 1_555
Te1 Tl11 3.447955 1_544
Te1 Tl7 3.461067 1_545
Te1 Tl9 3.517421 1_555
Te2 Tl8 3.447955 1_565
Te2 Tl4 3.461067 1_565
Te2 Tl10 3.517421 1_555
Te3 Tl9 3.447955 1_556
Te3 Tl5 3.461067 1_455
Te3 Tl11 3.517421 1_555
Te4 Tl14 3.447955 1_555
Te4 Tl2 3.461067 1_455
Te4 Tl12 3.517421 1_555
Te5 Tl15 3.447955 1_566
Te5 Tl3 3.461067 1_565
Te5 Tl13 3.517421 1_555
Te6 Tl12 3.447955 1_545
Te6 Tl0 3.461067 1_545
Te6 Tl14 3.517421 1_555
Te7 Tl13 3.447955 1_554
Te7 Tl1 3.461067 1_655
Te7 Tl15 3.517421 1_555
Te8 Tl15 3.351655 1_556
Te8 Tl11 3.580569 1_645
Te9 Tl8 3.351655 1_555
Te9 Tl12 3.580569 1_645
Te10 Tl9 3.351655 1_556
Te10 Tl13 3.580569 1_555
Te11 Tl10 3.351655 1_555
Te11 Tl14 3.580569 1_555
Te12 Tl11 3.351655 1_554
Te12 Tl15 3.580569 1_465
Te13 Tl12 3.351655 1_555
Te13 Tl8 3.580569 1_465
Te14 Tl13 3.351655 1_554
Te14 Tl9 3.580569 1_555
Te15 Tl14 3.351655 1_555
Te15 Tl10 3.580569 1_555
