# generated using pymatgen
data_Na4Al3Si3IO12
_symmetry_space_group_name_H-M   'P 1'
_cell_length_a   9.10922300
_cell_length_b   9.10922300
_cell_length_c   9.10922300
_cell_angle_alpha   90.00000000
_cell_angle_beta   90.00000000
_cell_angle_gamma   90.00000000
_symmetry_Int_Tables_number   1
_chemical_formula_structural   Na4Al3Si3IO12
_chemical_formula_sum   'Na8 Al6 Si6 I2 O24'
_cell_volume   755.86459291
_cell_formula_units_Z   2
loop_
 _symmetry_equiv_pos_site_id
 _symmetry_equiv_pos_as_xyz
  1  'x, y, z'
loop_
 _atom_site_type_symbol
 _atom_site_label
 _atom_site_symmetry_multiplicity
 _atom_site_fract_x
 _atom_site_fract_y
 _atom_site_fract_z
 _atom_site_occupancy
  Na  Na0  1  0.69949100  0.30050900  0.30050900  1
  Na  Na1  1  0.30050900  0.30050900  0.69949100  1
  Na  Na2  1  0.19949100  0.80050900  0.80050900  1
  Na  Na3  1  0.80050900  0.19949100  0.80050900  1
  Na  Na4  1  0.69949100  0.69949100  0.69949100  1
  Na  Na5  1  0.30050900  0.69949100  0.30050900  1
  Na  Na6  1  0.19949100  0.19949100  0.19949100  1
  Na  Na7  1  0.80050900  0.80050900  0.19949100  1
  Al  Al0  1  0.50000000  0.00000000  0.25000000  1
  Al  Al1  1  0.25000000  0.50000000  0.00000000  1
  Al  Al2  1  0.50000000  0.00000000  0.75000000  1
  Al  Al3  1  0.00000000  0.25000000  0.50000000  1
  Al  Al4  1  0.00000000  0.75000000  0.50000000  1
  Al  Al5  1  0.75000000  0.50000000  0.00000000  1
  Si  Si0  1  0.00000000  0.50000000  0.75000000  1
  Si  Si1  1  0.00000000  0.50000000  0.25000000  1
  Si  Si2  1  0.50000000  0.25000000  0.00000000  1
  Si  Si3  1  0.75000000  0.00000000  0.50000000  1
  Si  Si4  1  0.50000000  0.75000000  0.00000000  1
  Si  Si5  1  0.25000000  0.00000000  0.50000000  1
  I  I0  1  0.50000000  0.50000000  0.50000000  1
  I  I1  1  0.00000000  0.00000000  0.00000000  1
  O  O0  1  0.14226600  0.54993200  0.84802100  1
  O  O1  1  0.34802100  0.04993200  0.64226600  1
  O  O2  1  0.64226600  0.65197900  0.95006800  1
  O  O3  1  0.14226600  0.45006800  0.15197900  1
  O  O4  1  0.15197900  0.85773400  0.54993200  1
  O  O5  1  0.15197900  0.14226600  0.45006800  1
  O  O6  1  0.85773400  0.45006800  0.84802100  1
  O  O7  1  0.04993200  0.64226600  0.34802100  1
  O  O8  1  0.95006800  0.35773400  0.34802100  1
  O  O9  1  0.84802100  0.85773400  0.45006800  1
  O  O10  1  0.65197900  0.04993200  0.35773400  1
  O  O11  1  0.85773400  0.54993200  0.15197900  1
  O  O12  1  0.95006800  0.64226600  0.65197900  1
  O  O13  1  0.34802100  0.95006800  0.35773400  1
  O  O14  1  0.54993200  0.15197900  0.85773400  1
  O  O15  1  0.04993200  0.35773400  0.65197900  1
  O  O16  1  0.84802100  0.14226600  0.54993200  1
  O  O17  1  0.45006800  0.15197900  0.14226600  1
  O  O18  1  0.35773400  0.65197900  0.04993200  1
  O  O19  1  0.65197900  0.95006800  0.64226600  1
  O  O20  1  0.64226600  0.34802100  0.04993200  1
  O  O21  1  0.54993200  0.84802100  0.14226600  1
  O  O22  1  0.35773400  0.34802100  0.95006800  1
  O  O23  1  0.45006800  0.84802100  0.85773400  1
loop_
_geom_bond_atom_site_label_1
_geom_bond_atom_site_label_2
_geom_bond_distance
_geom_bond_site_symmetry_2
Na0 O20 2.380993 1_555
Na0 O8 2.380993 1_555
Na0 O10 2.380993 1_555
Na1 O1 2.380993 1_555
Na1 O22 2.380993 1_555
Na1 O15 2.380993 1_555
Na2 O0 2.380993 1_555
Na2 O4 2.380993 1_555
Na2 O23 2.380993 1_555
Na3 O16 2.380993 1_555
Na3 O14 2.380993 1_555
Na3 O6 2.380993 1_555
Na4 O2 2.380993 1_555
Na4 O19 2.380993 1_555
Na4 O12 2.380993 1_555
Na5 O7 2.380993 1_555
Na5 O18 2.380993 1_555
Na5 O13 2.380993 1_555
Na6 O5 2.380993 1_555
Na6 O17 2.380993 1_555
Na6 O3 2.380993 1_555
Na7 O21 2.380993 1_555
Na7 O9 2.380993 1_555
Na7 O11 2.380993 1_555
Al0 O10 1.756863 1_555
Al0 O17 1.756863 1_555
Al0 O21 1.756863 1_545
Al0 O13 1.756863 1_545
Al1 O18 1.756863 1_555
Al1 O3 1.756863 1_555
Al1 O0 1.756863 1_554
Al1 O22 1.756863 1_554
Al2 O14 1.756863 1_555
Al2 O19 1.756863 1_545
Al2 O1 1.756863 1_555
Al2 O23 1.756863 1_545
Al3 O15 1.756863 1_555
Al3 O5 1.756863 1_555
Al3 O16 1.756863 1_455
Al3 O8 1.756863 1_455
Al4 O4 1.756863 1_555
Al4 O12 1.756863 1_455
Al4 O7 1.756863 1_555
Al4 O9 1.756863 1_455
Al5 O11 1.756863 1_555
Al5 O2 1.756863 1_554
Al5 O20 1.756863 1_555
Al5 O6 1.756863 1_554
I0 Na4 3.147497 1_555
I0 Na5 3.147497 1_555
I0 Na0 3.147497 1_555
I0 Na1 3.147497 1_555
I1 Na6 3.147497 1_555
I1 Na7 3.147497 1_445
I1 Na3 3.147497 1_454
I1 Na2 3.147497 1_544
O0 Si0 1.638165 1_555
O1 Si5 1.638165 1_555
O2 Si4 1.638165 1_556
O3 Si1 1.638165 1_555
O4 Si5 1.638165 1_565
O5 Si5 1.638165 1_555
O6 Si0 1.638165 1_655
O7 Si1 1.638165 1_555
O8 Si1 1.638165 1_655
O9 Si3 1.638165 1_565
O10 Si3 1.638165 1_555
O11 Si1 1.638165 1_655
O12 Si0 1.638165 1_655
O13 Si5 1.638165 1_565
O14 Si2 1.638165 1_556
O15 Si0 1.638165 1_555
O16 Si3 1.638165 1_555
O17 Si2 1.638165 1_555
O18 Si4 1.638165 1_555
O19 Si3 1.638165 1_565
O20 Si2 1.638165 1_555
O21 Si4 1.638165 1_555
O22 Si2 1.638165 1_556
O23 Si4 1.638165 1_556
