# generated using pymatgen
data_Na8NbIn3Si4(PO12)2
_symmetry_space_group_name_H-M   'P 1'
_cell_length_a   9.24910361
_cell_length_b   9.25417338
_cell_length_c   22.53815924
_cell_angle_alpha   89.95021702
_cell_angle_beta   89.92831597
_cell_angle_gamma   119.98856568
_symmetry_Int_Tables_number   1
_chemical_formula_structural   Na8NbIn3Si4(PO12)2
_chemical_formula_sum   'Na24 Nb3 In9 Si12 P6 O72'
_cell_volume   1670.84203396
_cell_formula_units_Z   3
loop_
 _symmetry_equiv_pos_site_id
 _symmetry_equiv_pos_as_xyz
  1  'x, y, z'
loop_
 _atom_site_type_symbol
 _atom_site_label
 _atom_site_symmetry_multiplicity
 _atom_site_fract_x
 _atom_site_fract_y
 _atom_site_fract_z
 _atom_site_occupancy
  Na  Na0  1  0.63093770  0.99740223  0.25470095  1
  Na  Na1  1  0.36867918  0.37014855  0.25215239  1
  Na  Na2  1  0.00209717  0.63123207  0.25196380  1
  Na  Na3  1  0.63973849  0.63406984  0.74144232  1
  Na  Na4  1  0.99151856  0.35492092  0.74384631  1
  Na  Na5  1  0.36913336  0.01182251  0.74822106  1
  Na  Na6  1  0.29596983  0.33994101  0.58305030  1
  Na  Na7  1  0.03783155  0.69980639  0.58093066  1
  Na  Na8  1  0.66656601  0.95724463  0.58097052  1
  Na  Na9  1  0.29181482  0.95699223  0.08013292  1
  Na  Na10  1  0.66040519  0.69949089  0.08239382  1
  Na  Na11  1  0.04462726  0.34277910  0.08218903  1
  Na  Na12  1  0.97694340  0.68133902  0.91473138  1
  Na  Na13  1  0.70822589  0.02944310  0.91261043  1
  Na  Na14  1  0.31625815  0.28936863  0.91255880  1
  Na  Na15  1  0.97842022  0.29929490  0.41748297  1
  Na  Na16  1  0.32577926  0.02506409  0.41765418  1
  Na  Na17  1  0.69810453  0.67755695  0.41739647  1
  Na  Na18  1  0.99700645  0.00010233  0.49893712  1
  Na  Na19  1  0.00340288  0.00074277  0.99737052  1
  Na  Na20  1  0.66230745  0.32677234  0.82726578  1
  Na  Na21  1  0.66489519  0.33179345  0.33460798  1
  Na  Na22  1  0.32835862  0.66131658  0.16499843  1
  Na  Na23  1  0.33456613  0.66125633  0.65941413  1
  Nb  Nb0  1  0.66441294  0.33731257  0.97923620  1
  Nb  Nb1  1  0.67248237  0.33841436  0.48111680  1
  Nb  Nb2  1  0.33595771  0.66503479  0.81608681  1
  In  In0  1  0.00036630  0.00008618  0.35077471  1
  In  In1  1  0.00105913  0.00386536  0.84854754  1
  In  In2  1  0.99413297  0.00261127  0.64848706  1
  In  In3  1  0.00250423  0.99921888  0.14660586  1
  In  In4  1  0.66577205  0.33335540  0.68237780  1
  In  In5  1  0.66781664  0.33664091  0.18155438  1
  In  In6  1  0.33115588  0.66432229  0.01592005  1
  In  In7  1  0.33338950  0.66313718  0.51426715  1
  In  In8  1  0.33424680  0.66618748  0.32254828  1
  Si  Si0  1  0.29793383  0.29870495  0.75044805  1
  Si  Si1  1  0.69855320  0.99745631  0.75085377  1
  Si  Si2  1  0.96389977  0.33560887  0.58494034  1
  Si  Si3  1  0.66696320  0.62997516  0.58512028  1
  Si  Si4  1  0.96205970  0.62766574  0.08451501  1
  Si  Si5  1  0.37161929  0.33484078  0.08475524  1
  Si  Si6  1  0.62873078  0.66742800  0.91893596  1
  Si  Si7  1  0.03640065  0.37124725  0.91859038  1
  Si  Si8  1  0.33418485  0.96125551  0.91866094  1
  Si  Si9  1  0.63059880  0.96728163  0.41681130  1
  Si  Si10  1  0.33557877  0.36689521  0.41640467  1
  Si  Si11  1  0.03566863  0.66609833  0.41664488  1
  P  P0  1  0.29925230  0.99828899  0.24890951  1
  P  P1  1  0.70187529  0.70369100  0.24908840  1
  P  P2  1  -0.00029586  0.29716970  0.24852675  1
  P  P3  1  0.00578322  0.70557219  0.75128887  1
  P  P4  1  0.37362822  0.03970814  0.58348611  1
  P  P5  1  0.66636583  0.04355808  0.08336653  1
  O  O0  1  0.21808408  0.02668087  0.30413191  1
  O  O1  1  0.80969298  0.78603313  0.30437454  1
  O  O2  1  0.97433215  0.18994114  0.30418113  1
  O  O3  1  0.22350125  0.18562724  0.80990137  1
  O  O4  1  0.97574017  0.78167120  0.80744718  1
  O  O5  1  0.80998349  0.03120369  0.81021465  1
  O  O6  1  0.76842522  0.94655407  0.69257425  1
  O  O7  1  0.17895365  0.22329590  0.69191636  1
  O  O8  1  0.04095728  0.81542821  0.69558452  1
  O  O9  1  0.78204674  0.80968098  0.19199575  1
  O  O10  1  0.02465553  0.21622636  0.19157574  1
  O  O11  1  0.19331898  0.97235900  0.19200067  1
  O  O12  1  0.88462640  0.36316966  0.64516837  1
  O  O13  1  0.47272411  0.11199160  0.64129580  1
  O  O14  1  0.63241400  0.51981425  0.64490314  1
  O  O15  1  0.88823868  0.51644322  0.14405110  1
  O  O16  1  0.63884622  0.11574604  0.14060054  1
  O  O17  1  0.47877562  0.36324335  0.14459249  1
  O  O18  1  0.47771030  0.31249415  0.02699248  1
  O  O19  1  0.83446144  0.51845399  0.02689477  1
  O  O20  1  0.68511143  0.15805262  0.02844339  1
  O  O21  1  0.47057037  0.15432025  0.52923892  1
  O  O22  1  0.68071046  0.51926636  0.52805627  1
  O  O23  1  0.83716213  0.31683282  0.52806311  1
  O  O24  1  0.55666864  0.70600667  0.97790658  1
  O  O25  1  0.14664563  0.44374455  0.97771282  1
  O  O26  1  0.29995270  0.85355899  0.97837237  1
  O  O27  1  0.55276948  0.84969665  0.47466037  1
  O  O28  1  0.29302110  0.44250414  0.47414387  1
  O  O29  1  0.15203637  0.70545806  0.47456157  1
  O  O30  1  0.10275168  0.61702244  0.35695941  1
  O  O31  1  0.51508708  0.89786342  0.35693748  1
  O  O32  1  0.38414204  0.48408239  0.35669887  1
  O  O33  1  0.13472381  0.50002838  0.86155062  1
  O  O34  1  0.36211581  0.86139707  0.86178163  1
  O  O35  1  0.49884212  0.63575498  0.86222389  1
  O  O36  1  0.00397819  0.82334321  0.41114428  1
  O  O37  1  0.81876492  0.99518039  0.41130428  1
  O  O38  1  0.17534253  0.17926682  0.41080267  1
  O  O39  1  0.00844507  0.18442940  0.91265910  1
  O  O40  1  0.17406119  0.98700324  0.91179976  1
  O  O41  1  0.81669393  0.82032706  0.91031583  1
  O  O42  1  0.97187355  0.16267544  0.58180910  1
  O  O43  1  0.20141794  0.03041431  0.58436870  1
  O  O44  1  0.84560221  0.80639556  0.58332376  1
  O  O45  1  0.96204115  0.80544818  0.08273145  1
  O  O46  1  0.83017506  0.03469689  0.08373228  1
  O  O47  1  0.18913020  0.16244311  0.08259387  1
  O  O48  1  0.67310786  0.15996617  0.74660413  1
  O  O49  1  0.48821391  0.32959782  0.74742951  1
  O  O50  1  0.85230577  0.52772024  0.74756510  1
  O  O51  1  0.68487091  0.52696793  0.24733035  1
  O  O52  1  0.83883394  0.31253779  0.24645485  1
  O  O53  1  0.47733026  0.15635684  0.24597800  1
  O  O54  1  0.63374100  0.48901657  0.92285363  1
  O  O55  1  0.85115967  0.36156166  0.92300763  1
  O  O56  1  0.51075656  0.14585075  0.92286996  1
  O  O57  1  0.64739696  0.15443473  0.42598004  1
  O  O58  1  0.50445030  0.34788068  0.42596848  1
  O  O59  1  0.84668932  0.49513215  0.42555791  1
  O  O60  1  0.35672517  0.50250323  0.08023655  1
  O  O61  1  0.14923362  0.65396452  0.07998517  1
  O  O62  1  0.51223969  0.86740451  0.07852999  1
  O  O63  1  0.35379913  0.86452826  0.57826135  1
  O  O64  1  0.50444460  0.65415409  0.57981347  1
  O  O65  1  0.14683984  0.50367107  0.58002081  1
  O  O66  1  0.31452888  0.83797274  0.25271270  1
  O  O67  1  0.52550489  0.68700011  0.25241652  1
  O  O68  1  0.15919737  0.47352055  0.25190733  1
  O  O69  1  0.31112153  0.48651082  0.75967140  1
  O  O70  1  0.16663520  0.68891785  0.75860436  1
  O  O71  1  0.50786428  0.82702411  0.76005587  1
loop_
_geom_bond_atom_site_label_1
_geom_bond_atom_site_label_2
_geom_bond_distance
_geom_bond_site_symmetry_2
Na0 O31 2.511882 1_555
Na0 O53 2.512033 1_565
Na0 O67 2.530834 1_555
Na0 O66 2.535229 1_555
Na0 O52 2.574737 1_565
Na0 O16 2.780738 1_565
Na1 O51 2.535116 1_555
Na1 O67 2.539714 1_555
Na1 O68 2.553818 1_555
Na1 O32 2.557076 1_555
Na1 O53 2.632720 1_555
Na1 O17 2.641383 1_555
Na2 O68 2.522178 1_555
Na2 O66 2.546481 1_555
Na2 O52 2.557906 1_455
Na2 O30 2.571230 1_555
Na2 O51 2.592587 1_455
Na2 O15 2.654319 1_455
Na3 O14 2.406137 1_555
Na3 O49 2.443932 1_555
Na3 O50 2.605331 1_555
Na3 O71 2.651306 1_555
Na3 O69 2.668037 1_555
Na3 O6 2.746382 1_555
Na4 O12 2.451567 1_555
Na4 O50 2.506063 1_555
Na4 O48 2.572909 1_555
Na4 O69 2.598696 1_655
Na4 O70 2.699278 1_655
Na4 O7 2.822641 1_655
Na4 O33 2.971888 1_655
Na4 O5 2.998131 1_555
Na5 O48 2.435548 1_555
Na5 O49 2.573606 1_555
Na5 O13 2.585999 1_555
Na5 O71 2.614554 1_545
Na5 O70 2.625827 1_545
Na5 O34 2.897566 1_545
Na5 O8 2.902045 1_545
Na5 O3 2.915273 1_555
Na6 O65 2.508432 1_555
Na6 O43 2.542872 1_555
Na6 O64 2.563769 1_555
Na6 O42 2.600392 1_455
Na6 O28 2.635985 1_555
Na6 O7 2.679142 1_555
Na7 O44 2.426931 1_455
Na7 O65 2.478066 1_555
Na7 O63 2.532576 1_555
Na7 O29 2.608459 1_555
Na7 O43 2.651228 1_565
Na7 O8 2.792360 1_555
Na8 O64 2.431497 1_555
Na8 O42 2.494430 1_565
Na8 O63 2.574413 1_555
Na8 O27 2.608182 1_555
Na8 O44 2.646621 1_555
Na8 O6 2.706099 1_555
Na9 O61 2.430272 1_555
Na9 O26 2.501480 1_554
Na9 O47 2.514973 1_565
Na9 O62 2.556285 1_555
Na9 O45 2.645135 1_455
Na9 O11 2.707663 1_555
Na10 O45 2.451588 1_555
Na10 O60 2.469153 1_555
Na10 O62 2.535543 1_555
Na10 O24 2.556022 1_554
Na10 O46 2.687062 1_565
Na10 O9 2.696684 1_555
Na11 O60 2.500730 1_555
Na11 O46 2.531896 1_455
Na11 O25 2.533231 1_554
Na11 O61 2.538892 1_555
Na11 O47 2.607906 1_555
Na11 O10 2.694689 1_555
Na12 O41 2.401447 1_555
Na12 O40 2.484691 1_655
Na12 O55 2.588915 1_555
Na12 O4 2.591406 1_555
Na12 O54 2.761839 1_555
Na12 O19 2.898046 1_556
Na12 O26 2.962731 1_655
Na12 O33 2.971262 1_655
Na13 O39 2.405470 1_655
Na13 O5 2.488218 1_555
Na13 O56 2.552636 1_555
Na13 O41 2.587462 1_545
Na13 O55 2.681264 1_555
Na13 O20 2.921667 1_556
Na13 O24 2.980359 1_545
Na13 O34 3.002371 1_545
Na14 O40 2.425064 1_545
Na14 O3 2.489263 1_555
Na14 O39 2.506914 1_555
Na14 O54 2.582450 1_555
Na14 O56 2.728196 1_555
Na14 O18 2.935766 1_556
Na14 O25 2.982718 1_555
Na14 O35 2.998609 1_555
Na15 O37 2.442783 1_545
Na15 O38 2.568226 1_655
Na15 O59 2.647535 1_555
Na15 O57 2.665098 1_555
Na15 O2 2.740978 1_555
Na15 O28 2.830420 1_655
Na15 O23 2.854691 1_555
Na15 O30 2.904753 1_655
Na16 O38 2.445663 1_555
Na16 O58 2.599466 1_555
Na16 O57 2.599792 1_555
Na16 O36 2.610062 1_545
Na16 O0 2.749539 1_555
Na16 O21 2.821585 1_555
Na16 O29 2.865709 1_545
Na16 O31 2.895032 1_545
Na17 O36 2.454954 1_655
Na17 O37 2.573672 1_555
Na17 O58 2.662484 1_555
Na17 O59 2.663041 1_555
Na17 O1 2.741346 1_555
Na17 O22 2.854664 1_555
Na17 O27 2.854849 1_555
Na17 O32 2.885549 1_555
Na18 O42 2.481835 1_555
Na18 O44 2.503937 1_545
Na18 O37 2.560091 1_545
Na18 O38 2.582180 1_655
Na18 O36 2.589561 1_645
Na18 O43 2.615429 1_655
Na19 O47 2.514575 1_556
Na19 O45 2.532768 1_446
Na19 O40 2.533888 1_545
Na19 O39 2.540042 1_555
Na19 O41 2.598329 1_445
Na19 O46 2.636459 1_456
Na20 O48 2.420002 1_555
Na20 O49 2.424958 1_555
Na20 O50 2.548042 1_555
Na20 O56 2.655381 1_555
Na20 O55 2.694335 1_555
Na20 O54 2.714076 1_555
Na21 O58 2.584173 1_555
Na21 O57 2.586270 1_555
Na21 O59 2.605225 1_555
Na21 O51 2.612496 1_555
Na21 O53 2.614267 1_555
Na21 O52 2.616586 1_555
Na22 O60 2.503485 1_555
Na22 O61 2.513194 1_555
Na22 O68 2.563836 1_555
Na22 O66 2.609825 1_555
Na22 O67 2.615300 1_555
Na22 O62 2.659052 1_555
Na23 O64 2.405841 1_555
Na23 O65 2.413383 1_555
Na23 O63 2.564039 1_555
Na23 O69 2.722105 1_555
Na23 O71 2.761280 1_555
Na23 O70 2.804552 1_555
Nb0 O18 1.947217 1_556
Nb0 O19 1.951731 1_556
Nb0 O54 2.015481 1_555
Nb0 O55 2.060654 1_555
Nb0 O56 2.065000 1_555
Nb0 O20 2.081679 1_556
Nb1 O23 1.946059 1_555
Nb1 O22 1.949876 1_555
Nb1 O59 1.980733 1_555
Nb1 O57 2.026418 1_555
Nb1 O58 2.026991 1_555
Nb1 O21 2.092259 1_555
Nb2 O35 1.958531 1_555
Nb2 O71 1.994750 1_555
Nb2 O34 1.996415 1_555
Nb2 O33 1.999313 1_555
Nb2 O69 2.005964 1_555
Nb2 O70 2.128497 1_555
In0 O38 2.127397 1_555
In0 O36 2.139740 1_545
In0 O37 2.145303 1_445
In0 O1 2.154925 1_445
In0 O2 2.160550 1_455
In0 O0 2.172436 1_555
In1 O3 2.086708 1_555
In1 O5 2.093822 1_455
In1 O4 2.159507 1_445
In1 O39 2.185187 1_555
In1 O41 2.196669 1_445
In1 O40 2.207248 1_545
In2 O6 2.127396 1_545
In2 O7 2.137476 1_655
In2 O42 2.190134 1_555
In2 O44 2.203958 1_545
In2 O8 2.250070 1_645
In2 O43 2.308572 1_655
In3 O11 2.160072 1_555
In3 O10 2.166785 1_565
In3 O9 2.167296 1_455
In3 O47 2.173962 1_565
In3 O45 2.182438 1_455
In3 O46 2.276904 1_465
In4 O12 2.076991 1_555
In4 O14 2.077571 1_555
In4 O13 2.143105 1_555
In4 O48 2.186249 1_555
In4 O49 2.187370 1_555
In4 O50 2.297644 1_555
In5 O15 2.059511 1_555
In5 O17 2.060407 1_555
In5 O16 2.135150 1_555
In5 O53 2.246511 1_555
In5 O52 2.247048 1_555
In5 O51 2.247718 1_555
In6 O25 2.084472 1_554
In6 O26 2.090338 1_554
In6 O24 2.103327 1_554
In6 O60 2.179638 1_555
In6 O61 2.181220 1_555
In6 O62 2.278670 1_555
In7 O28 2.089976 1_555
In7 O27 2.094163 1_555
In7 O29 2.104181 1_555
In7 O65 2.189862 1_555
In7 O64 2.197607 1_555
In7 O63 2.289752 1_555
In8 O30 2.101026 1_555
In8 O31 2.101501 1_555
In8 O32 2.102731 1_555
In8 O67 2.305785 1_555
In8 O66 2.307393 1_555
In8 O68 2.336838 1_555
O0 P0 1.541786 1_545
O1 P1 1.540412 1_555
O2 P2 1.541900 1_655
O3 Si0 1.624683 1_555
O4 P3 1.539952 1_655
O5 Si1 1.622371 1_545
O6 Si1 1.633440 1_555
O7 Si0 1.635796 1_555
O8 P3 1.543282 1_555
O9 P1 1.560777 1_555
O10 P2 1.560656 1_555
O11 P0 1.559273 1_555
O12 Si2 1.621823 1_555
O13 P4 1.541669 1_555
O14 Si3 1.621032 1_555
O15 Si4 1.618299 1_555
O16 P5 1.531564 1_555
O17 Si5 1.616692 1_555
O18 Si5 1.703112 1_555
O19 Si4 1.707196 1_555
O20 P5 1.580686 1_555
O21 P4 1.571006 1_555
O22 Si3 1.688789 1_555
O23 Si2 1.687629 1_555
O24 Si6 1.604572 1_555
O25 Si7 1.608263 1_555
O26 Si8 1.608055 1_555
O27 Si9 1.616890 1_555
O28 Si10 1.616666 1_555
O29 Si11 1.614755 1_555
O30 Si11 1.637514 1_555
O31 Si9 1.641384 1_555
O32 Si10 1.642448 1_555
O33 Si7 1.676603 1_555
O34 Si8 1.674514 1_555
O35 Si6 1.677919 1_555
O36 Si11 1.626333 1_555
O37 Si9 1.631310 1_555
O38 Si10 1.629628 1_555
O39 Si7 1.620881 1_555
O40 Si8 1.620901 1_555
O41 Si6 1.613020 1_555
O42 Si2 1.640039 1_555
O43 P4 1.551692 1_555
O44 Si3 1.643223 1_555
O45 Si4 1.645771 1_555
O46 P5 1.557727 1_555
O47 Si5 1.644689 1_555
O48 Si1 1.637034 1_545
O49 Si0 1.637187 1_555
O50 P3 1.547897 1_655
O51 P1 1.563307 1_555
O52 P2 1.564598 1_655
O53 P0 1.564614 1_545
O54 Si6 1.676947 1_555
O55 Si7 1.673150 1_655
O56 Si8 1.675147 1_545
O57 Si9 1.672779 1_545
O58 Si10 1.671081 1_555
O59 Si11 1.683084 1_655
O60 Si5 1.627934 1_555
O61 Si4 1.626349 1_455
O62 P5 1.542430 1_565
O63 P4 1.542330 1_565
O64 Si3 1.631092 1_555
O65 Si2 1.631782 1_455
O66 P0 1.561321 1_555
O67 P1 1.561510 1_555
O68 P2 1.561785 1_555
O69 Si0 1.693360 1_555
O70 P3 1.579266 1_555
O71 Si1 1.690857 1_555
