# generated using pymatgen
data_MgFe2(CoO4)2
_symmetry_space_group_name_H-M   'P 1'
_cell_length_a   5.04629021
_cell_length_b   5.61018457
_cell_length_c   4.73999323
_cell_angle_alpha   89.72175224
_cell_angle_beta   85.68004413
_cell_angle_gamma   90.37989411
_symmetry_Int_Tables_number   1
_chemical_formula_structural   MgFe2(CoO4)2
_chemical_formula_sum   'Mg1 Fe2 Co2 O8'
_cell_volume   133.80602766
_cell_formula_units_Z   1
loop_
 _symmetry_equiv_pos_site_id
 _symmetry_equiv_pos_as_xyz
  1  'x, y, z'
loop_
 _atom_site_type_symbol
 _atom_site_label
 _atom_site_symmetry_multiplicity
 _atom_site_fract_x
 _atom_site_fract_y
 _atom_site_fract_z
 _atom_site_occupancy
  Mg  Mg0  1  0.74893100  0.60989100  0.00295500  1
  Fe  Fe0  1  0.25160000  0.87348500  0.00300600  1
  Fe  Fe1  1  0.74898500  0.13325700  0.00283300  1
  Co  Co0  1  0.24250900  0.35436500  0.49889800  1
  Co  Co1  1  0.74879300  0.62854700  0.50382200  1
  O  O0  1  0.09900100  0.13559700  0.75936700  1
  O  O1  1  0.06340900  0.61771700  0.71077200  1
  O  O2  1  0.43291000  0.61109300  0.28881800  1
  O  O3  1  0.40702100  0.12849000  0.22803800  1
  O  O4  1  0.59335800  0.86575500  0.77433100  1
  O  O5  1  0.59467000  0.38944800  0.73235100  1
  O  O6  1  0.91102600  0.39165200  0.26913800  1
  O  O7  1  0.90778700  0.86784700  0.22567100  1
loop_
_geom_bond_atom_site_label_1
_geom_bond_atom_site_label_2
_geom_bond_distance
_geom_bond_site_symmetry_2
Mg0 O6 1.978334 1_555
Mg0 O5 1.983369 1_554
Mg0 O7 1.994577 1_555
Mg0 O4 1.994790 1_554
Mg0 O2 2.013433 1_555
Mg0 O1 2.026272 1_654
Fe0 O7 1.961676 1_455
Fe0 O4 1.967452 1_554
Fe0 O3 1.981295 1_565
Fe0 O0 2.054634 1_564
Fe0 O2 2.241577 1_555
Fe0 O1 2.253658 1_554
Fe1 O3 1.959508 1_555
Fe1 O7 2.025593 1_545
Fe1 O0 2.035723 1_654
Fe1 O4 2.042148 1_544
Fe1 O5 2.112643 1_554
Fe1 O6 2.126270 1_555
Co0 O0 1.842245 1_555
Co0 O3 1.952563 1_555
Co0 O2 1.952631 1_555
Co0 O1 1.975769 1_555
Co0 O6 2.074804 1_455
Co0 O5 2.171420 1_555
Co1 O5 1.850062 1_555
Co1 O6 1.888269 1_555
Co1 O1 1.929216 1_655
Co1 O2 1.957748 1_555
Co1 O4 1.977164 1_555
Co1 O7 1.998378 1_555
