# generated using pymatgen
data_Mg(MoS2)2
_symmetry_space_group_name_H-M   'P 1'
_cell_length_a   6.36567200
_cell_length_b   6.36567056
_cell_length_c   34.81970000
_cell_angle_alpha   90.00000000
_cell_angle_beta   90.00000000
_cell_angle_gamma   120.00000749
_symmetry_Int_Tables_number   1
_chemical_formula_structural   Mg(MoS2)2
_chemical_formula_sum   'Mg8 Mo16 S32'
_cell_volume   1221.92356429
_cell_formula_units_Z   8
loop_
 _symmetry_equiv_pos_site_id
 _symmetry_equiv_pos_as_xyz
  1  'x, y, z'
loop_
 _atom_site_type_symbol
 _atom_site_label
 _atom_site_symmetry_multiplicity
 _atom_site_fract_x
 _atom_site_fract_y
 _atom_site_fract_z
 _atom_site_occupancy
  Mg  Mg0_0  1  0.00000000  0.00000000  0.25000000  1
  Mg  Mg0_1  1  0.00000000  0.00000000  0.75000000  1
  Mg  Mg0_2  1  0.00000000  0.50000000  0.25000000  1
  Mg  Mg0_3  1  0.00000000  0.50000000  0.75000000  1
  Mg  Mg0_4  1  0.50000000  0.00000000  0.25000000  1
  Mg  Mg0_5  1  0.50000000  0.00000000  0.75000000  1
  Mg  Mg0_6  1  0.50000000  0.50000000  0.25000000  1
  Mg  Mg0_7  1  0.50000000  0.50000000  0.75000000  1
  Mo  Mo0_0  1  0.33333350  0.16666650  0.37995050  1
  Mo  Mo0_1  1  0.33333350  0.16666650  0.87995050  1
  Mo  Mo0_2  1  0.33333350  0.66666650  0.37995050  1
  Mo  Mo0_3  1  0.33333350  0.66666650  0.87995050  1
  Mo  Mo0_4  1  0.83333350  0.16666650  0.37995050  1
  Mo  Mo0_5  1  0.83333350  0.16666650  0.87995050  1
  Mo  Mo0_6  1  0.83333350  0.66666650  0.37995050  1
  Mo  Mo0_7  1  0.83333350  0.66666650  0.87995050  1
  Mo  Mo1_0  1  0.16666650  0.33333350  0.12004950  1
  Mo  Mo1_1  1  0.16666650  0.33333350  0.62004950  1
  Mo  Mo1_2  1  0.16666650  0.83333350  0.12004950  1
  Mo  Mo1_3  1  0.16666650  0.83333350  0.62004950  1
  Mo  Mo1_4  1  0.66666650  0.33333350  0.12004950  1
  Mo  Mo1_5  1  0.66666650  0.33333350  0.62004950  1
  Mo  Mo1_6  1  0.66666650  0.83333350  0.12004950  1
  Mo  Mo1_7  1  0.66666650  0.83333350  0.62004950  1
  S  S0_0  1  0.16666650  0.33333350  0.42497550  1
  S  S0_1  1  0.16666650  0.33333350  0.92497550  1
  S  S0_2  1  0.16666650  0.83333350  0.42497550  1
  S  S0_3  1  0.16666650  0.83333350  0.92497550  1
  S  S0_4  1  0.66666650  0.33333350  0.42497550  1
  S  S0_5  1  0.66666650  0.33333350  0.92497550  1
  S  S0_6  1  0.66666650  0.83333350  0.42497550  1
  S  S0_7  1  0.66666650  0.83333350  0.92497550  1
  S  S1_0  1  0.33333350  0.16666650  0.16567450  1
  S  S1_1  1  0.33333350  0.16666650  0.66567450  1
  S  S1_2  1  0.33333350  0.66666650  0.16567450  1
  S  S1_3  1  0.33333350  0.66666650  0.66567450  1
  S  S1_4  1  0.83333350  0.16666650  0.16567450  1
  S  S1_5  1  0.83333350  0.16666650  0.66567450  1
  S  S1_6  1  0.83333350  0.66666650  0.16567450  1
  S  S1_7  1  0.83333350  0.66666650  0.66567450  1
  S  S2_0  1  0.16666650  0.33333350  0.33432550  1
  S  S2_1  1  0.16666650  0.33333350  0.83432550  1
  S  S2_2  1  0.16666650  0.83333350  0.33432550  1
  S  S2_3  1  0.16666650  0.83333350  0.83432550  1
  S  S2_4  1  0.66666650  0.33333350  0.33432550  1
  S  S2_5  1  0.66666650  0.33333350  0.83432550  1
  S  S2_6  1  0.66666650  0.83333350  0.33432550  1
  S  S2_7  1  0.66666650  0.83333350  0.83432550  1
  S  S3_0  1  0.33333350  0.16666650  0.07502450  1
  S  S3_1  1  0.33333350  0.16666650  0.57502450  1
  S  S3_2  1  0.33333350  0.66666650  0.07502450  1
  S  S3_3  1  0.33333350  0.66666650  0.57502450  1
  S  S3_4  1  0.83333350  0.16666650  0.07502450  1
  S  S3_5  1  0.83333350  0.16666650  0.57502450  1
  S  S3_6  1  0.83333350  0.66666650  0.07502450  1
  S  S3_7  1  0.83333350  0.66666650  0.57502450  1
loop_
_geom_bond_atom_site_label_1
_geom_bond_atom_site_label_2
_geom_bond_distance
_geom_bond_site_symmetry_2
Mg0_0 Mg0_2 3.182835 1_545
Mg0_0 Mg0_2 3.182835 1_555
Mg0_0 Mg0_6 3.182835 1_445
Mg0_0 Mg0_6 3.182835 1_555
Mg0_0 Mg0_4 3.182836 1_555
Mg0_0 Mg0_4 3.182836 1_455
Mg0_1 Mg0_3 3.182835 1_555
Mg0_1 Mg0_7 3.182835 1_555
Mg0_1 Mg0_7 3.182835 1_445
Mg0_1 Mg0_3 3.182835 1_545
Mg0_1 Mg0_5 3.182836 1_455
Mg0_1 Mg0_5 3.182836 1_555
Mg0_2 Mg0_4 3.182835 1_455
Mg0_2 Mg0_4 3.182835 1_565
Mg0_2 Mg0_6 3.182836 1_455
Mg0_2 Mg0_6 3.182836 1_555
Mg0_3 Mg0_5 3.182835 1_565
Mg0_3 Mg0_5 3.182835 1_455
Mg0_3 Mg0_7 3.182836 1_455
Mg0_3 Mg0_7 3.182836 1_555
Mg0_4 Mg0_6 3.182835 1_545
Mg0_4 Mg0_6 3.182835 1_555
Mg0_5 Mg0_7 3.182835 1_555
Mg0_5 Mg0_7 3.182835 1_545
Mo0_0 S0_2 2.415506 1_545
Mo0_0 S0_4 2.415506 1_555
Mo0_0 S0_0 2.415510 1_555
Mo0_0 S2_2 2.429117 1_545
Mo0_0 S2_4 2.429118 1_555
Mo0_0 S2_0 2.429122 1_555
Mo0_1 S0_3 2.415506 1_545
Mo0_1 S0_5 2.415506 1_555
Mo0_1 S0_1 2.415510 1_555
Mo0_1 S2_3 2.429117 1_545
Mo0_1 S2_5 2.429118 1_555
Mo0_1 S2_1 2.429122 1_555
Mo0_2 S0_0 2.415506 1_555
Mo0_2 S0_6 2.415506 1_555
Mo0_2 S0_2 2.415510 1_555
Mo0_2 S2_0 2.429117 1_555
Mo0_2 S2_6 2.429118 1_555
Mo0_2 S2_2 2.429122 1_555
Mo0_3 S0_1 2.415506 1_555
Mo0_3 S0_7 2.415506 1_555
Mo0_3 S0_3 2.415510 1_555
Mo0_3 S2_1 2.429117 1_555
Mo0_3 S2_7 2.429118 1_555
Mo0_3 S2_3 2.429122 1_555
Mo0_4 S0_6 2.415506 1_545
Mo0_4 S0_0 2.415506 1_655
Mo0_4 S0_4 2.415510 1_555
Mo0_4 S2_6 2.429117 1_545
Mo0_4 S2_0 2.429118 1_655
Mo0_4 S2_4 2.429122 1_555
Mo0_5 S0_7 2.415506 1_545
Mo0_5 S0_1 2.415506 1_655
Mo0_5 S0_5 2.415510 1_555
Mo0_5 S2_7 2.429117 1_545
Mo0_5 S2_1 2.429118 1_655
Mo0_5 S2_5 2.429122 1_555
Mo0_6 S0_4 2.415506 1_555
Mo0_6 S0_2 2.415506 1_655
Mo0_6 S0_6 2.415510 1_555
Mo0_6 S2_4 2.429117 1_555
Mo0_6 S2_2 2.429118 1_655
Mo0_6 S2_6 2.429122 1_555
Mo0_7 S0_5 2.415506 1_555
Mo0_7 S0_3 2.415506 1_655
Mo0_7 S0_7 2.415510 1_555
Mo0_7 S2_5 2.429117 1_555
Mo0_7 S2_3 2.429118 1_655
Mo0_7 S2_7 2.429122 1_555
Mo1_0 S3_2 2.415506 1_555
Mo1_0 S3_4 2.415506 1_455
Mo1_0 S3_0 2.415510 1_555
Mo1_0 S1_2 2.429117 1_555
Mo1_0 S1_4 2.429118 1_455
Mo1_0 S1_0 2.429122 1_555
Mo1_1 S3_3 2.415506 1_555
Mo1_1 S3_5 2.415506 1_455
Mo1_1 S3_1 2.415510 1_555
Mo1_1 S1_3 2.429117 1_555
Mo1_1 S1_5 2.429118 1_455
Mo1_1 S1_1 2.429122 1_555
Mo1_2 S3_0 2.415506 1_565
Mo1_2 S3_6 2.415506 1_455
Mo1_2 S3_2 2.415510 1_555
Mo1_2 S1_0 2.429117 1_565
Mo1_2 S1_6 2.429118 1_455
Mo1_2 S1_2 2.429122 1_555
Mo1_3 S3_1 2.415506 1_565
Mo1_3 S3_7 2.415506 1_455
Mo1_3 S3_3 2.415510 1_555
Mo1_3 S1_1 2.429117 1_565
Mo1_3 S1_7 2.429118 1_455
Mo1_3 S1_3 2.429122 1_555
Mo1_4 S3_6 2.415506 1_555
Mo1_4 S3_0 2.415506 1_555
Mo1_4 S3_4 2.415510 1_555
Mo1_4 S1_6 2.429117 1_555
Mo1_4 S1_0 2.429118 1_555
Mo1_4 S1_4 2.429122 1_555
Mo1_5 S3_7 2.415506 1_555
Mo1_5 S3_1 2.415506 1_555
Mo1_5 S3_5 2.415510 1_555
Mo1_5 S1_7 2.429117 1_555
Mo1_5 S1_1 2.429118 1_555
Mo1_5 S1_5 2.429122 1_555
Mo1_6 S3_4 2.415506 1_565
Mo1_6 S3_2 2.415506 1_555
Mo1_6 S3_6 2.415510 1_555
Mo1_6 S1_4 2.429117 1_565
Mo1_6 S1_2 2.429118 1_555
Mo1_6 S1_6 2.429122 1_555
Mo1_7 S3_5 2.415506 1_565
Mo1_7 S3_3 2.415506 1_555
Mo1_7 S3_7 2.415510 1_555
Mo1_7 S1_5 2.429117 1_565
Mo1_7 S1_3 2.429118 1_555
Mo1_7 S1_7 2.429122 1_555
