# generated using pymatgen
data_K5As3O10
_symmetry_space_group_name_H-M   'P 1'
_cell_length_a   7.95881917
_cell_length_b   7.98711808
_cell_length_c   19.21695511
_cell_angle_alpha   90.00000000
_cell_angle_beta   90.00000000
_cell_angle_gamma   90.00000000
_symmetry_Int_Tables_number   1
_chemical_formula_structural   K5As3O10
_chemical_formula_sum   'K20 As12 O40'
_cell_volume   1221.58394989
_cell_formula_units_Z   4
loop_
 _symmetry_equiv_pos_site_id
 _symmetry_equiv_pos_as_xyz
  1  'x, y, z'
loop_
 _atom_site_type_symbol
 _atom_site_label
 _atom_site_symmetry_multiplicity
 _atom_site_fract_x
 _atom_site_fract_y
 _atom_site_fract_z
 _atom_site_occupancy
  K  K0  1  0.27909595  0.47617181  0.98599421  1
  K  K1  1  0.77909595  0.02382819  0.01400579  1
  K  K2  1  0.72090405  0.97617181  0.51400579  1
  K  K3  1  0.22090405  0.52382819  0.48599421  1
  K  K4  1  0.20279856  0.49764694  0.28020908  1
  K  K5  1  0.70279856  0.00235306  0.71979092  1
  K  K6  1  0.79720144  0.99764694  0.21979092  1
  K  K7  1  0.29720144  0.50235306  0.78020908  1
  K  K8  1  0.75067332  0.50009243  0.99862494  1
  K  K9  1  0.25067332  -0.00009243  0.00137506  1
  K  K10  1  0.24932668  0.00009243  0.50137506  1
  K  K11  1  0.74932668  0.49990757  0.49862494  1
  K  K12  1  0.75222779  0.51391308  0.24344441  1
  K  K13  1  0.25222779  0.98608692  0.75655559  1
  K  K14  1  0.24777221  0.01391308  0.25655559  1
  K  K15  1  0.74777221  0.48608692  0.74344441  1
  K  K16  1  0.99004890  0.73955642  0.87269177  1
  K  K17  1  0.49004890  0.76044358  0.12730823  1
  K  K18  1  0.00995110  0.23955642  0.62730823  1
  K  K19  1  0.50995110  0.26044358  0.37269177  1
  As  As0  1  0.48214449  0.26724139  0.14402441  1
  As  As1  1  0.98214449  0.23275861  0.85597559  1
  As  As2  1  0.51785551  0.76724139  0.35597559  1
  As  As3  1  0.01785551  0.73275861  0.64402441  1
  As  As4  1  0.02789146  0.72415040  0.10261007  1
  As  As5  1  0.52789146  0.77584960  0.89738993  1
  As  As6  1  0.97210854  0.22415040  0.39738993  1
  As  As7  1  0.47210854  0.27584960  0.60261007  1
  As  As8  1  0.07631143  0.32127902  0.12561405  1
  As  As9  1  0.57631143  0.17872098  0.87438595  1
  As  As10  1  0.92368857  0.82127902  0.37438595  1
  As  As11  1  0.42368857  0.67872098  0.62561405  1
  O  O0  1  0.83206839  0.71955298  0.13407059  1
  O  O1  1  0.33206839  0.78044702  0.86592941  1
  O  O2  1  0.16793161  0.21955298  0.36592941  1
  O  O3  1  0.66793161  0.28044702  0.63407059  1
  O  O4  1  0.03155900  0.71762091  0.01498684  1
  O  O5  1  0.53155900  0.78237909  0.98501316  1
  O  O6  1  0.96844100  0.21762091  0.48501316  1
  O  O7  1  0.46844100  0.28237909  0.51498684  1
  O  O8  1  0.65507426  0.62925457  0.86479437  1
  O  O9  1  0.15507426  0.87074543  0.13520563  1
  O  O10  1  0.34492574  0.12925457  0.63520563  1
  O  O11  1  0.84492574  0.37074543  0.36479437  1
  O  O12  1  0.13843526  0.53443711  0.13135918  1
  O  O13  1  0.63843526  0.96556289  0.86864082  1
  O  O14  1  0.86156474  0.03443711  0.36864082  1
  O  O15  1  0.36156474  0.46556289  0.63135918  1
  O  O16  1  0.54435001  0.44069474  0.10334877  1
  O  O17  1  0.97086315  0.28395057  0.05311582  1
  O  O18  1  0.04435001  0.05930526  0.89665123  1
  O  O19  1  0.95564999  0.55930526  0.60334877  1
  O  O20  1  0.07635538  0.41197534  0.87847300  1
  O  O21  1  0.57635538  0.08802466  0.12152700  1
  O  O22  1  0.92364462  0.91197534  0.62152700  1
  O  O23  1  0.42364462  0.58802466  0.37847300  1
  O  O24  1  0.77175790  0.27186062  0.88995742  1
  O  O25  1  0.27175790  0.22813938  0.11004258  1
  O  O26  1  0.22824210  0.77186062  0.61004258  1
  O  O27  1  0.72824210  0.72813938  0.38995742  1
  O  O28  1  0.46237719  0.28995047  0.23087265  1
  O  O29  1  0.96237719  0.21004953  0.76912735  1
  O  O30  1  0.53762281  0.78995047  0.26912735  1
  O  O31  1  0.03762281  0.71004953  0.73087265  1
  O  O32  1  0.49955089  0.73027090  0.70323226  1
  O  O33  1  -0.00044911  0.76972910  0.29676774  1
  O  O34  1  0.50044911  0.23027090  0.79676774  1
  O  O35  1  0.00044911  0.26972910  0.20323226  1
  O  O36  1  0.52913685  0.71604943  0.55311582  1
  O  O37  1  0.02913685  0.78395057  0.44688418  1
  O  O38  1  0.47086315  0.21604943  0.94688418  1
  O  O39  1  0.45564999  0.94069474  0.39665123  1
loop_
_geom_bond_atom_site_label_1
_geom_bond_atom_site_label_2
_geom_bond_distance
_geom_bond_site_symmetry_2
K0 O20 2.671299 1_555
K0 O38 2.685296 1_555
K0 O4 2.812608 1_556
K1 O21 2.671299 1_555
K1 O17 2.685296 1_555
K1 O5 2.812608 1_544
K2 O22 2.671299 1_555
K2 O36 2.685296 1_555
K2 O6 2.812608 1_565
K3 O23 2.671299 1_555
K3 O37 2.685296 1_555
K3 O7 2.812608 1_555
K4 O23 2.678861 1_555
K4 O33 2.727730 1_555
K4 O2 2.779234 1_555
K4 O28 2.814059 1_555
K4 O35 2.845291 1_555
K4 O12 2.920767 1_555
K5 O22 2.678861 1_545
K5 O32 2.727730 1_545
K5 O3 2.779234 1_555
K5 O29 2.814059 1_555
K5 O34 2.845291 1_555
K5 O13 2.920767 1_545
K6 O21 2.678861 1_565
K6 O35 2.727730 1_665
K6 O0 2.779234 1_555
K6 O30 2.814059 1_555
K6 O33 2.845291 1_655
K6 O14 2.920767 1_565
K7 O20 2.678861 1_555
K7 O34 2.727730 1_555
K7 O1 2.779234 1_555
K7 O31 2.814059 1_555
K7 O32 2.845291 1_555
K7 O15 2.920767 1_555
K8 O16 2.640375 1_556
K8 O17 2.673554 1_556
K8 O24 2.777049 1_555
K8 O4 2.848693 1_656
K8 O5 2.862352 1_555
K8 O8 2.873570 1_555
K8 O0 3.204217 1_556
K8 O38 3.330902 1_555
K9 O18 2.640375 1_554
K9 O38 2.673554 1_554
K9 O25 2.777049 1_555
K9 O5 2.848693 1_544
K9 O4 2.862352 1_545
K9 O9 2.873570 1_545
K9 O1 3.204217 1_544
K9 O17 3.330902 1_455
K10 O39 2.640375 1_545
K10 O37 2.673554 1_545
K10 O26 2.777049 1_545
K10 O6 2.848693 1_455
K10 O7 2.862352 1_555
K10 O10 2.873570 1_555
K10 O2 3.204217 1_555
K10 O36 3.330902 1_545
K11 O19 2.640375 1_555
K11 O36 2.673554 1_555
K11 O27 2.777049 1_555
K11 O7 2.848693 1_555
K11 O6 2.862352 1_555
K11 O11 2.873570 1_555
K11 O3 3.204217 1_555
K11 O37 3.330902 1_655
K12 O11 2.700000 1_555
K12 O0 2.742113 1_555
K12 O30 2.832270 1_555
K12 O35 2.881617 1_655
K12 O28 2.929142 1_555
K12 O33 3.016527 1_655
K12 O16 3.213603 1_555
K12 O27 3.300207 1_555
K13 O10 2.700000 1_565
K13 O1 2.742113 1_555
K13 O31 2.832270 1_555
K13 O34 2.881617 1_565
K13 O29 2.929142 1_465
K13 O32 3.016527 1_555
K13 O18 3.213603 1_565
K13 O26 3.300207 1_555
K14 O9 2.700000 1_545
K14 O2 2.742113 1_555
K14 O28 2.832270 1_555
K14 O33 2.881617 1_545
K14 O30 2.929142 1_545
K14 O35 3.016527 1_555
K14 O39 3.213603 1_545
K14 O25 3.300207 1_555
K15 O8 2.700000 1_555
K15 O3 2.742113 1_555
K15 O29 2.832270 1_555
K15 O32 2.881617 1_555
K15 O31 2.929142 1_655
K15 O34 3.016527 1_555
K15 O19 3.213603 1_555
K15 O24 3.300207 1_555
K16 O18 2.630785 1_665
K16 O20 2.707373 1_655
K16 O1 2.744672 1_655
K16 O4 2.759929 1_656
K16 O31 2.761582 1_655
K16 O8 2.811895 1_555
K17 O16 2.630785 1_555
K17 O21 2.707373 1_565
K17 O0 2.744672 1_555
K17 O5 2.759929 1_554
K17 O30 2.761582 1_555
K17 O9 2.811895 1_555
K18 O19 2.630785 1_455
K18 O22 2.707373 1_445
K18 O3 2.744672 1_455
K18 O6 2.759929 1_455
K18 O29 2.761582 1_455
K18 O10 2.811895 1_555
K19 O39 2.630785 1_545
K19 O23 2.707373 1_555
K19 O2 2.744672 1_555
K19 O7 2.759929 1_555
K19 O28 2.761582 1_555
K19 O11 2.811895 1_555
As0 O16 1.665957 1_555
As0 O21 1.672752 1_555
As0 O28 1.686141 1_555
As0 O25 1.824197 1_555
As1 O18 1.665957 1_655
As1 O20 1.672752 1_655
As1 O29 1.686141 1_555
As1 O24 1.824197 1_555
As2 O39 1.665957 1_555
As2 O23 1.672752 1_555
As2 O30 1.686141 1_555
As2 O27 1.824197 1_555
As3 O19 1.665957 1_455
As3 O22 1.672752 1_455
As3 O31 1.686141 1_555
As3 O26 1.824197 1_555
As4 O9 1.669701 1_555
As4 O0 1.672078 1_455
As4 O4 1.684912 1_555
As4 O12 1.837196 1_555
As5 O8 1.669701 1_555
As5 O1 1.672078 1_555
As5 O5 1.684912 1_555
As5 O13 1.837196 1_555
As6 O11 1.669701 1_555
As6 O2 1.672078 1_655
As6 O6 1.684912 1_555
As6 O14 1.837196 1_555
As7 O10 1.669701 1_555
As7 O3 1.672078 1_555
As7 O7 1.684912 1_555
As7 O15 1.837196 1_555
As8 O17 1.653546 1_455
As8 O35 1.660993 1_555
As8 O25 1.750031 1_555
As8 O12 1.776295 1_555
As9 O38 1.653546 1_555
As9 O34 1.660993 1_555
As9 O24 1.750031 1_555
As9 O13 1.776295 1_545
As10 O37 1.653546 1_655
As10 O33 1.660993 1_655
As10 O27 1.750031 1_555
As10 O14 1.776295 1_565
As11 O36 1.653546 1_555
As11 O32 1.660993 1_555
As11 O26 1.750031 1_555
As11 O15 1.776295 1_555
