# generated using pymatgen
data_Na6Ca2Zn2SiS5O24
_symmetry_space_group_name_H-M   'P 1'
_cell_length_a   9.26071410
_cell_length_b   9.22771919
_cell_length_c   22.79270376
_cell_angle_alpha   89.46187592
_cell_angle_beta   90.16806985
_cell_angle_gamma   120.02183854
_symmetry_Int_Tables_number   1
_chemical_formula_structural   Na6Ca2Zn2SiS5O24
_chemical_formula_sum   'Na18 Ca6 Zn6 Si3 S15 O72'
_cell_volume   1686.35751948
_cell_formula_units_Z   3
loop_
 _symmetry_equiv_pos_site_id
 _symmetry_equiv_pos_as_xyz
  1  'x, y, z'
loop_
 _atom_site_type_symbol
 _atom_site_label
 _atom_site_symmetry_multiplicity
 _atom_site_fract_x
 _atom_site_fract_y
 _atom_site_fract_z
 _atom_site_occupancy
  Na  Na0  1  0.62809552  -0.00033682  0.24597019  1
  Na  Na1  1  0.36235247  0.34649011  0.25119023  1
  Na  Na2  1  0.01136739  0.64725539  0.24104565  1
  Na  Na3  1  0.63919923  0.65349565  0.74042408  1
  Na  Na4  1  0.98086222  0.34123586  0.76021920  1
  Na  Na5  1  0.38113378  0.99881445  0.75601388  1
  Na  Na6  1  0.33038184  0.35451519  0.58586630  1
  Na  Na7  1  0.00481494  0.69178562  0.57717765  1
  Na  Na8  1  0.67227573  0.95678914  0.59214974  1
  Na  Na9  1  0.29404323  0.96222759  0.08798394  1
  Na  Na10  1  0.70103080  0.03109119  0.91326676  1
  Na  Na11  1  0.69777451  0.66470425  0.42461052  1
  Na  Na12  1  0.99498156  0.99741766  0.49886360  1
  Na  Na13  1  0.99889726  0.99874980  0.00123043  1
  Na  Na14  1  0.66626427  0.33184572  0.83974120  1
  Na  Na15  1  0.64596702  0.30434402  0.32897942  1
  Na  Na16  1  0.33233073  0.66332377  0.16365514  1
  Na  Na17  1  0.36935907  0.68314215  0.66837511  1
  Ca  Ca0  1  0.01767054  0.00978106  0.34522596  1
  Ca  Ca1  1  0.98808735  0.99227105  0.65397097  1
  Ca  Ca2  1  0.66698953  0.33432414  0.68360152  1
  Ca  Ca3  1  0.66547898  0.33118954  0.48016801  1
  Ca  Ca4  1  0.33564083  0.67009748  0.51223914  1
  Ca  Ca5  1  0.33719774  0.66440215  0.82702115  1
  Zn  Zn0  1  0.98855618  0.99775516  0.84869402  1
  Zn  Zn1  1  0.01115218  0.99569800  0.15715284  1
  Zn  Zn2  1  0.65446713  0.32217148  0.17453413  1
  Zn  Zn3  1  0.67150382  0.34349938  0.99059720  1
  Zn  Zn4  1  0.32962826  0.65095156  0.01319152  1
  Zn  Zn5  1  0.32870326  0.68800595  0.31734205  1
  Si  Si0  1  0.31007649  0.00368163  0.24349145  1
  Si  Si1  1  0.69515029  0.99973786  0.75478851  1
  Si  Si2  1  0.66757949  0.64216066  0.58160568  1
  S  S0  1  0.70051816  0.69955246  0.24885277  1
  S  S1  1  0.99875850  0.29948584  0.24578768  1
  S  S2  1  0.29465216  0.29397693  0.75260668  1
  S  S3  1  0.00370461  0.70316956  0.75373299  1
  S  S4  1  0.97286019  0.33591932  0.58477709  1
  S  S5  1  0.36070115  0.02874243  0.58476278  1
  S  S6  1  0.96280734  0.62819359  0.08393602  1
  S  S7  1  0.66638074  0.03261441  0.08160570  1
  S  S8  1  0.37075616  0.33621701  0.08239870  1
  S  S9  1  0.63847689  0.66319892  0.92049460  1
  S  S10  1  0.02328199  0.35958527  0.92008280  1
  S  S11  1  0.33381448  0.97505621  0.92069652  1
  S  S12  1  0.63706862  0.96704788  0.41211198  1
  S  S13  1  0.33336612  0.37439133  0.41242028  1
  S  S14  1  0.02721450  0.66348746  0.41351450  1
  O  O0  1  0.23276090  0.05459850  0.29744643  1
  O  O1  1  0.79274611  0.76996970  0.30435561  1
  O  O2  1  0.96020077  0.19536291  0.29950399  1
  O  O3  1  0.20239595  0.18092447  0.80201551  1
  O  O4  1  0.99400967  0.80076896  0.80286502  1
  O  O5  1  0.81493999  0.02177555  0.81190858  1
  O  O6  1  0.77327615  0.98043404  0.69312749  1
  O  O7  1  0.21320218  0.22381214  0.69544029  1
  O  O8  1  0.02966737  0.79338708  0.69687014  1
  O  O9  1  0.78574544  0.81832572  0.19915522  1
  O  O10  1  0.02154113  0.21298548  0.19484737  1
  O  O11  1  0.18880737  0.95941406  0.18513212  1
  O  O12  1  0.89594017  0.34544381  0.64045264  1
  O  O13  1  0.45581903  0.09920918  0.63973318  1
  O  O14  1  0.64761811  0.53720741  0.64242064  1
  O  O15  1  0.88250296  0.53246742  0.13933578  1
  O  O16  1  0.64255810  0.11319751  0.13506330  1
  O  O17  1  0.46483738  0.36074211  0.13867344  1
  O  O18  1  0.46100816  0.31203261  0.03307287  1
  O  O19  1  0.86256786  0.53958001  0.03222601  1
  O  O20  1  0.68651272  0.13629011  0.02818329  1
  O  O21  1  0.45449890  0.13019960  0.53357781  1
  O  O22  1  0.68252957  0.54641535  0.52371241  1
  O  O23  1  0.86027515  0.30806701  0.53494683  1
  O  O24  1  0.54023890  0.68746950  0.96753892  1
  O  O25  1  0.13517741  0.45940087  0.96832981  1
  O  O26  1  0.31282489  0.86545298  0.97266768  1
  O  O27  1  0.55385620  0.87762803  0.46715722  1
  O  O28  1  0.33036631  0.45295527  0.46857166  1
  O  O29  1  0.11219781  0.66935455  0.46921972  1
  O  O30  1  0.12256545  0.66172787  0.36154606  1
  O  O31  1  0.53766785  0.87569301  0.35952261  1
  O  O32  1  0.33941896  0.47928491  0.36097605  1
  O  O33  1  0.08949665  0.44361635  0.86241589  1
  O  O34  1  0.35911049  0.90029959  0.86621197  1
  O  O35  1  0.55310786  0.64005085  0.86302723  1
  O  O36  1  0.00326701  0.81202467  0.41272774  1
  O  O37  1  0.80028930  0.97166512  0.41124198  1
  O  O38  1  0.18489515  0.20557843  0.41239362  1
  O  O39  1  0.00657416  0.18919393  0.92054724  1
  O  O40  1  0.18478518  0.99485742  0.91485944  1
  O  O41  1  0.80493914  0.82203766  0.91894286  1
  O  O42  1  0.00962805  0.19622891  0.58566894  1
  O  O43  1  0.19819458  0.02477882  0.58593240  1
  O  O44  1  0.83892130  0.82815359  0.57937523  1
  O  O45  1  0.98166290  0.79954807  0.08523099  1
  O  O46  1  0.81347490  0.01088921  0.08798501  1
  O  O47  1  0.20365740  0.17952036  0.08579712  1
  O  O48  1  0.67759987  0.16942909  0.75655574  1
  O  O49  1  0.46694708  0.31920410  0.75315979  1
  O  O50  1  0.84552079  0.53809220  0.75271782  1
  O  O51  1  0.69137790  0.53429330  0.24069943  1
  O  O52  1  0.85669810  0.33167050  0.23775413  1
  O  O53  1  0.50267342  0.16837764  0.23652656  1
  O  O54  1  0.65797119  0.51464597  0.93009778  1
  O  O55  1  0.85117647  0.33668555  0.92632604  1
  O  O56  1  0.49229877  0.14096832  0.92645633  1
  O  O57  1  0.65878056  0.13698571  0.41126573  1
  O  O58  1  0.49050240  0.36482523  0.40984033  1
  O  O59  1  0.85860852  0.51108690  0.41073197  1
  O  O60  1  0.35113340  0.48653555  0.07452527  1
  O  O61  1  0.13628839  0.65102075  0.08034706  1
  O  O62  1  0.50562781  0.86611480  0.07722633  1
  O  O63  1  0.32906538  0.85437072  0.58067553  1
  O  O64  1  0.49988511  0.66306915  0.58175905  1
  O  O65  1  0.13349345  0.49634546  0.57906478  1
  O  O66  1  0.32425014  0.82997726  0.25245232  1
  O  O67  1  0.52695892  0.67253300  0.25229578  1
  O  O68  1  0.15739678  0.46506329  0.25194806  1
  O  O69  1  0.30393593  0.45986424  0.75761173  1
  O  O70  1  0.14651800  0.67260439  0.75981259  1
  O  O71  1  0.50827142  0.82962574  0.75669422  1
loop_
_geom_bond_atom_site_label_1
_geom_bond_atom_site_label_2
_geom_bond_distance
_geom_bond_site_symmetry_2
Na0 O53 2.370844 1_555
Na0 O66 2.445500 1_545
Na0 O67 2.678399 1_545
Na0 O16 2.705084 1_555
Na0 O52 2.721091 1_555
Na0 O31 2.776152 1_545
Na0 O9 2.925293 1_545
Na0 O2 2.944587 1_555
Na1 O0 2.554641 1_555
Na1 O53 2.579092 1_555
Na1 O67 2.605400 1_555
Na1 O68 2.622727 1_555
Na1 O51 2.656552 1_555
Na1 O17 2.716262 1_555
Na1 O32 2.851213 1_555
Na2 O52 2.523347 1_455
Na2 O66 2.534013 1_555
Na2 O15 2.585608 1_455
Na2 O51 2.603269 1_455
Na2 O68 2.642406 1_555
Na2 O11 2.797957 1_555
Na2 O30 2.911079 1_555
Na3 O71 2.497010 1_555
Na3 O14 2.505400 1_555
Na3 O50 2.624990 1_555
Na3 O49 2.684484 1_555
Na3 O69 2.725521 1_555
Na3 O6 2.829105 1_555
Na3 O35 2.892680 1_555
Na4 O48 2.439961 1_555
Na4 O33 2.531200 1_655
Na4 O69 2.622172 1_655
Na4 O70 2.647463 1_655
Na4 O50 2.677895 1_555
Na4 O5 2.802119 1_555
Na4 O12 2.843905 1_555
Na5 O71 2.379647 1_555
Na5 O48 2.385666 1_565
Na5 O34 2.636529 1_555
Na5 O49 2.649928 1_565
Na5 O70 2.690905 1_555
Na5 O13 2.772082 1_565
Na6 O64 2.470452 1_555
Na6 O42 2.572023 1_555
Na6 O43 2.651299 1_555
Na6 O65 2.728343 1_555
Na6 O7 2.742140 1_555
Na6 O28 2.815504 1_555
Na6 O14 2.863062 1_555
Na7 O44 2.425350 1_455
Na7 O63 2.601305 1_555
Na7 O65 2.612117 1_555
Na7 O43 2.681749 1_565
Na7 O29 2.704897 1_555
Na7 O22 2.862753 1_455
Na7 O8 2.864092 1_555
Na8 O64 2.372941 1_555
Na8 O44 2.391155 1_555
Na8 O6 2.451981 1_555
Na8 O42 2.784440 1_665
Na8 O63 2.838588 1_555
Na9 O11 2.416545 1_555
Na9 O61 2.494229 1_555
Na9 O45 2.506246 1_455
Na9 O47 2.530010 1_565
Na9 O62 2.536124 1_555
Na9 O26 2.817488 1_554
Na10 O39 2.456281 1_655
Na10 O55 2.462473 1_555
Na10 O41 2.552679 1_545
Na10 O5 2.562436 1_555
Na10 O56 2.612519 1_555
Na10 O20 2.828669 1_556
Na10 O34 2.968743 1_545
Na10 O24 3.002363 1_545
Na11 O36 2.464589 1_655
Na11 O22 2.472836 1_555
Na11 O58 2.480677 1_555
Na11 O37 2.512382 1_555
Na11 O59 2.540043 1_555
Na11 O1 2.887740 1_555
Na12 O44 2.366156 1_555
Na12 O37 2.618174 1_555
Na12 O36 2.642408 1_655
Na12 O43 2.656257 1_665
Na12 O42 2.667628 1_665
Na12 O38 2.689968 1_665
Na13 O39 2.508048 1_664
Na13 O41 2.551436 1_554
Na13 O45 2.590787 1_555
Na13 O40 2.631212 1_654
Na13 O47 2.639558 1_665
Na13 O46 2.662271 1_565
Na14 O48 2.462540 1_555
Na14 O56 2.591928 1_555
Na14 O55 2.595070 1_555
Na14 O49 2.661307 1_555
Na14 O50 2.664409 1_555
Na14 O54 2.699727 1_555
Na15 O57 2.458520 1_555
Na15 O53 2.478474 1_555
Na15 O58 2.572931 1_555
Na15 O59 2.697305 1_555
Na15 O52 2.777934 1_555
Na15 O51 2.785657 1_555
Na16 O66 2.577075 1_555
Na16 O61 2.586887 1_555
Na16 O62 2.627197 1_555
Na16 O68 2.646807 1_555
Na16 O67 2.676994 1_555
Na16 O60 2.677170 1_555
Na17 O64 2.374417 1_555
Na17 O71 2.414582 1_555
Na17 O63 2.675391 1_555
Na17 O69 2.725513 1_555
Na17 O65 2.856274 1_555
Na17 O70 2.903843 1_555
Ca0 O0 2.122401 1_555
Ca0 O2 2.275337 1_455
Ca0 O38 2.290105 1_555
Ca0 O36 2.328059 1_545
Ca0 O1 2.349121 1_445
Ca0 O37 2.395763 1_445
Ca1 O6 2.134700 1_555
Ca1 O44 2.243597 1_555
Ca1 O8 2.267972 1_655
Ca1 O7 2.318132 1_665
Ca1 O42 2.361494 1_665
Ca1 O43 2.388668 1_665
Ca2 O14 2.172606 1_555
Ca2 O48 2.278387 1_555
Ca2 O12 2.294743 1_555
Ca2 O13 2.305389 1_555
Ca2 O50 2.383343 1_555
Ca2 O49 2.391516 1_555
Ca3 O22 2.162556 1_555
Ca3 O21 2.254917 1_555
Ca3 O23 2.285958 1_555
Ca3 O59 2.335712 1_555
Ca3 O57 2.371234 1_555
Ca3 O58 2.402129 1_555
Ca4 O27 2.215773 1_555
Ca4 O64 2.216108 1_555
Ca4 O28 2.224223 1_555
Ca4 O29 2.284135 1_555
Ca4 O65 2.315709 1_555
Ca4 O63 2.341424 1_555
Ca5 O71 2.226163 1_555
Ca5 O35 2.271218 1_555
Ca5 O34 2.273978 1_555
Ca5 O33 2.316678 1_555
Ca5 O70 2.363512 1_555
Ca5 O69 2.373080 1_555
O0 Si0 1.611961 1_555
O1 S0 1.485206 1_555
O2 S1 1.478796 1_555
O3 S2 1.475864 1_555
O3 Zn0 2.130645 1_445
O4 S3 1.474345 1_655
O4 Zn0 2.127360 1_555
O5 Si1 1.654612 1_545
O5 Zn0 1.918952 1_545
O6 Si1 1.634021 1_555
O7 S2 1.485694 1_555
O8 S3 1.487246 1_555
O9 S0 1.491170 1_555
O9 Zn1 2.125146 1_655
O10 S1 1.488986 1_455
O10 Zn1 2.146287 1_545
O11 Si0 1.655238 1_565
O11 Zn1 1.940765 1_555
O12 S4 1.481736 1_555
O13 S5 1.484664 1_555
O14 Si2 1.640317 1_555
O15 S6 1.501659 1_555
O15 Zn2 2.179208 1_555
O16 S7 1.506309 1_555
O16 Zn2 2.087886 1_555
O17 S8 1.502365 1_555
O17 Zn2 2.119016 1_555
O18 S8 1.486342 1_555
O18 Zn3 2.064200 1_554
O19 S6 1.473635 1_555
O19 Zn3 2.030680 1_554
O20 S7 1.494535 1_555
O20 Zn3 2.154928 1_554
O21 S5 1.470969 1_555
O22 Si2 1.639002 1_555
O23 S4 1.474268 1_555
O24 S9 1.497226 1_555
O24 Zn4 2.085189 1_556
O25 S10 1.479429 1_555
O25 Zn4 2.061713 1_556
O26 S11 1.498667 1_555
O26 Zn4 2.251273 1_556
O27 S12 1.482813 1_555
O28 S13 1.483958 1_555
O29 S14 1.478909 1_555
O30 S14 1.484544 1_555
O30 Zn5 2.064369 1_555
O31 S12 1.493577 1_555
O31 Zn5 2.082142 1_555
O32 S13 1.496557 1_555
O32 Zn5 2.205266 1_555
O33 S10 1.488178 1_555
O34 S11 1.500814 1_555
O35 S9 1.488795 1_555
O36 S14 1.493954 1_555
O37 S12 1.490865 1_555
O38 S13 1.474400 1_555
O39 S10 1.500836 1_555
O39 Zn0 2.363991 1_445
O40 S11 1.485470 1_555
O40 Zn0 2.368359 1_455
O41 S9 1.504776 1_555
O41 Zn0 2.300549 1_555
O42 S4 1.488825 1_455
O43 S5 1.487276 1_555
O44 Si2 1.655211 1_555
O45 S6 1.502049 1_555
O45 Zn1 2.365693 1_655
O46 S7 1.479347 1_555
O46 Zn1 2.468196 1_645
O47 S8 1.500323 1_555
O47 Zn1 2.374826 1_545
O48 Si1 1.654042 1_545
O49 S2 1.492805 1_555
O50 S3 1.494788 1_655
O51 S0 1.497759 1_555
O51 Zn2 2.367591 1_555
O52 S1 1.497005 1_555
O52 Zn2 2.326736 1_555
O53 Si0 1.673552 1_555
O53 Zn2 1.991054 1_555
O54 S9 1.483703 1_555
O54 Zn3 2.137169 1_555
O55 S10 1.506292 1_655
O55 Zn3 2.244816 1_555
O56 S11 1.506455 1_545
O56 Zn3 2.306015 1_555
O57 S12 1.477770 1_545
O58 S13 1.502657 1_555
O59 S14 1.491158 1_655
O60 S8 1.495537 1_555
O60 Zn4 2.134640 1_555
O61 S6 1.514565 1_455
O61 Zn4 2.359219 1_555
O62 S7 1.516567 1_565
O62 Zn4 2.351823 1_555
O63 S5 1.488120 1_565
O64 Si2 1.657957 1_555
O65 S4 1.488365 1_455
O66 Si0 1.682986 1_565
O66 Zn5 1.980599 1_555
O67 S0 1.500349 1_555
O67 Zn5 2.423128 1_555
O68 S1 1.506372 1_455
O68 Zn5 2.397609 1_555
O69 S2 1.495047 1_555
O70 S3 1.489752 1_555
O71 Si1 1.655836 1_555
