# generated using pymatgen
data_Na10Ca6Si3Sn2(S3O16)3
_symmetry_space_group_name_H-M   'P 1'
_cell_length_a   18.55785256
_cell_length_b   9.31606549
_cell_length_c   23.51673955
_cell_angle_alpha   90.09832191
_cell_angle_beta   89.98378910
_cell_angle_gamma   120.24448602
_symmetry_Int_Tables_number   1
_chemical_formula_structural   Na10Ca6Si3Sn2(S3O16)3
_chemical_formula_sum   'Na30 Ca18 Si9 Sn6 S27 O144'
_cell_volume   3512.30357886
_cell_formula_units_Z   3
loop_
 _symmetry_equiv_pos_site_id
 _symmetry_equiv_pos_as_xyz
  1  'x, y, z'
loop_
 _atom_site_type_symbol
 _atom_site_label
 _atom_site_symmetry_multiplicity
 _atom_site_fract_x
 _atom_site_fract_y
 _atom_site_fract_z
 _atom_site_occupancy
  Na  Na0  1  0.31256891  0.99855078  0.24534710  1
  Na  Na1  1  0.18886552  0.35469698  0.25016456  1
  Na  Na2  1  0.49254265  0.63713305  0.25396274  1
  Na  Na3  1  0.30654676  0.60806314  0.73775406  1
  Na  Na4  1  0.81204275  0.62795318  0.74492053  1
  Na  Na5  1  0.99986073  0.34167799  0.75250906  1
  Na  Na6  1  0.18333534  0.02526330  0.75521116  1
  Na  Na7  1  0.68941838  0.02388646  0.75016218  1
  Na  Na8  1  0.16724877  0.35731749  0.59222441  1
  Na  Na9  1  0.83455472  0.69958619  0.08449252  1
  Na  Na10  1  0.48457785  0.65001398  0.91583013  1
  Na  Na11  1  0.35711201  0.05105190  0.91689723  1
  Na  Na12  1  0.85472598  0.03730239  0.92039377  1
  Na  Na13  1  0.65621896  0.30293476  0.91623415  1
  Na  Na14  1  0.98316488  0.31697744  0.41419790  1
  Na  Na15  1  0.15550337  0.00966559  0.41413463  1
  Na  Na16  1  0.35483708  0.67047661  0.42158577  1
  Na  Na17  1  0.85641168  0.66364736  0.41496456  1
  Na  Na18  1  0.99477101  0.96408053  0.49956339  1
  Na  Na19  1  0.50341460  0.99838488  0.50608608  1
  Na  Na20  1  0.00986485  0.02410591  0.00455039  1
  Na  Na21  1  0.50101587  0.02472313  0.00159705  1
  Na  Na22  1  0.32900787  0.32997754  0.83469633  1
  Na  Na23  1  0.83179691  0.32673943  0.82683007  1
  Na  Na24  1  0.33122604  0.33359864  0.32657973  1
  Na  Na25  1  0.83351989  0.33899855  0.33515262  1
  Na  Na26  1  0.16131478  0.67209686  0.16454378  1
  Na  Na27  1  0.68097706  0.69937818  0.16046281  1
  Na  Na28  1  0.17668841  0.66189970  0.66104371  1
  Na  Na29  1  0.66203388  0.64999848  0.66389924  1
  Ca  Ca0  1  0.00028092  0.99235435  0.34631102  1
  Ca  Ca1  1  0.50397352  0.00734398  0.35184327  1
  Ca  Ca2  1  0.00531818  0.00795363  0.85105828  1
  Ca  Ca3  1  0.50185992  0.01056982  0.84696807  1
  Ca  Ca4  1  0.33728945  0.34189485  0.67844517  1
  Ca  Ca5  1  0.83130512  0.32704582  0.67926456  1
  Ca  Ca6  1  0.33029570  0.33337930  0.17944808  1
  Ca  Ca7  1  0.83368107  0.32030875  0.18076891  1
  Ca  Ca8  1  0.33284869  0.33257056  0.98601027  1
  Ca  Ca9  1  0.83811085  0.31575218  0.99473669  1
  Ca  Ca10  1  0.34208303  0.35581989  0.49301709  1
  Ca  Ca11  1  0.83258105  0.33471240  0.48652494  1
  Ca  Ca12  1  0.16370789  0.66016783  0.01740684  1
  Ca  Ca13  1  0.66486622  0.66747720  0.02028772  1
  Ca  Ca14  1  0.16855663  0.67861276  0.52021291  1
  Ca  Ca15  1  0.66380571  0.66750089  0.51743691  1
  Ca  Ca16  1  0.67107846  0.66986576  0.31603521  1
  Ca  Ca17  1  0.16486088  0.65292384  0.81713030  1
  Si  Si0  1  0.14874020  -0.00016354  0.25088876  1
  Si  Si1  1  0.34790925  0.70360136  0.25647539  1
  Si  Si2  1  0.14998370  0.29574976  0.74598691  1
  Si  Si3  1  0.64860991  0.29774575  0.75043647  1
  Si  Si4  1  0.84592236  0.99042472  0.75705359  1
  Si  Si5  1  0.33778894  0.65410742  0.58719462  1
  Si  Si6  1  0.83844667  0.02245645  0.08536339  1
  Si  Si7  1  0.51799312  0.37237745  0.91542550  1
  Si  Si8  1  0.01761081  0.66382008  0.41524969  1
  Sn  Sn0  1  0.99073411  0.00101739  0.65649888  1
  Sn  Sn1  1  0.50188767  0.00945888  0.64940076  1
  Sn  Sn2  1  0.00224681  0.00045043  0.15237031  1
  Sn  Sn3  1  0.49219721  0.98992166  0.15379222  1
  Sn  Sn4  1  0.16069890  0.67576964  0.31133855  1
  Sn  Sn5  1  0.66120863  0.64609928  0.81213547  1
  S  S0  1  0.64464606  0.99659503  0.24787647  1
  S  S1  1  0.84897075  0.69917024  0.24705509  1
  S  S2  1  0.00371923  0.30128729  0.25253058  1
  S  S3  1  0.50216207  0.29609060  0.24680820  1
  S  S4  1  0.00121504  0.71078974  0.74730184  1
  S  S5  1  0.50379667  0.70931398  0.75171251  1
  S  S6  1  0.34993066  0.99618502  0.74884879  1
  S  S7  1  0.48798509  0.32634608  0.58585517  1
  S  S8  1  0.98430821  0.31678791  0.58510785  1
  S  S9  1  0.17267433  0.03031012  0.58702859  1
  S  S10  1  0.67666646  0.02672741  0.58645308  1
  S  S11  1  0.84075299  0.65541649  0.58671549  1
  S  S12  1  0.48456249  0.65109267  0.08711625  1
  S  S13  1  0.98502533  0.64480548  0.08684104  1
  S  S14  1  0.33894051  0.02627735  0.08553616  1
  S  S15  1  0.17720428  0.32792239  0.08681693  1
  S  S16  1  0.67561256  0.31872208  0.08562856  1
  S  S17  1  0.31844306  0.66785083  0.91626027  1
  S  S18  1  0.81218998  0.66110931  0.91501175  1
  S  S19  1  0.01201825  0.36246852  0.91587076  1
  S  S20  1  0.16794886  0.96355420  0.91661986  1
  S  S21  1  0.66739794  0.95918846  0.91251132  1
  S  S22  1  0.31268382  0.96294226  0.41296310  1
  S  S23  1  0.81722935  0.96738437  0.41755707  1
  S  S24  1  0.16739210  0.37521201  0.41422984  1
  S  S25  1  0.66818556  0.37245825  0.41800640  1
  S  S26  1  0.51442673  0.66464488  0.41377186  1
  O  O0  1  0.11590612  0.03635371  0.30922785  1
  O  O1  1  0.60485020  0.01402260  0.29890011  1
  O  O2  1  0.40316449  0.78505881  0.31203757  1
  O  O3  1  0.89451131  0.78076912  0.29983562  1
  O  O4  1  0.49226146  0.19643084  0.29729114  1
  O  O5  1  0.99381731  0.21106119  0.30564376  1
  O  O6  1  0.10366307  0.16740628  0.79650146  1
  O  O7  1  0.61590463  0.19491676  0.80864145  1
  O  O8  1  0.49110228  0.77774252  0.80479944  1
  O  O9  1  0.98547253  0.78174292  0.79791581  1
  O  O10  1  0.39381315  0.01109913  0.80255685  1
  O  O11  1  0.89913546  0.01783664  0.81340443  1
  O  O12  1  0.39533401  0.97396417  0.69969329  1
  O  O13  1  0.88553036  0.93686232  0.70049795  1
  O  O14  1  0.08891970  0.20792787  0.68630127  1
  O  O15  1  0.58584471  0.19470506  0.69548030  1
  O  O16  1  0.01338116  0.81744006  0.69537167  1
  O  O17  1  0.51548030  0.82046783  0.70227820  1
  O  O18  1  0.39000236  0.83679268  0.19974388  1
  O  O19  1  0.89515647  0.80522340  0.19565783  1
  O  O20  1  0.01496061  0.21250776  0.20262001  1
  O  O21  1  0.51393350  0.21526495  0.19419166  1
  O  O22  1  0.08705238  0.98047846  0.19588926  1
  O  O23  1  0.58970747  0.97431670  0.19545289  1
  O  O24  1  0.44640980  0.33708385  0.63720688  1
  O  O25  1  0.94426438  0.33173438  0.63718689  1
  O  O26  1  0.22261043  0.11533233  0.63810914  1
  O  O27  1  0.72273711  0.10043310  0.63984880  1
  O  O28  1  0.32731034  0.54217792  0.64295383  1
  O  O29  1  0.83421084  0.55862598  0.63797210  1
  O  O30  1  0.44216520  0.55447803  0.13844481  1
  O  O31  1  0.94340085  0.54686963  0.13728752  1
  O  O32  1  0.33326003  0.10956463  0.13720449  1
  O  O33  1  0.82937190  0.12378576  0.13670538  1
  O  O34  1  0.22362149  0.34707678  0.13987887  1
  O  O35  1  0.73022843  0.33825512  0.13378122  1
  O  O36  1  0.21925733  0.30771877  0.03690490  1
  O  O37  1  0.71037917  0.29630301  0.03135706  1
  O  O38  1  0.43573268  0.57351517  0.03488446  1
  O  O39  1  0.93320050  0.57027217  0.03516924  1
  O  O40  1  0.34841523  0.12358452  0.03357639  1
  O  O41  1  0.85518221  0.11356394  0.02317782  1
  O  O42  1  0.21375567  0.13173579  0.53517923  1
  O  O43  1  0.71972350  0.13134516  0.53687673  1
  O  O44  1  0.35343733  0.58427604  0.52681464  1
  O  O45  1  0.85170267  0.57959214  0.53445542  1
  O  O46  1  0.43831017  0.30447254  0.53423596  1
  O  O47  1  0.93578749  0.30083965  0.53354155  1
  O  O48  1  0.27373041  0.68668166  0.96469605  1
  O  O49  1  0.77239410  0.68368358  0.96562019  1
  O  O50  1  0.06278435  0.45866429  0.96465145  1
  O  O51  1  0.58075589  0.46099696  0.96719725  1
  O  O52  1  0.16467252  0.86128186  0.96528688  1
  O  O53  1  0.66107028  0.86032085  0.96241996  1
  O  O54  1  0.27266460  0.85540353  0.46200676  1
  O  O55  1  0.77549427  0.86350746  0.46756154  1
  O  O56  1  0.16130229  0.45829923  0.46554644  1
  O  O57  1  0.66200996  0.45743224  0.46902299  1
  O  O58  1  0.08010567  0.70085307  0.46710172  1
  O  O59  1  0.56381334  0.67016720  0.46341837  1
  O  O60  1  0.06291742  0.62447430  0.35784161  1
  O  O61  1  0.55484016  0.65877391  0.35979335  1
  O  O62  1  0.26243433  0.88089301  0.35869462  1
  O  O63  1  0.77013993  0.88848575  0.36508477  1
  O  O64  1  0.17992528  0.47883039  0.36163320  1
  O  O65  1  0.67634228  0.47061509  0.36609455  1
  O  O66  1  0.05109601  0.44603478  0.86125100  1
  O  O67  1  0.56271793  0.50174392  0.85795374  1
  O  O68  1  0.17531893  0.88808933  0.86211637  1
  O  O69  1  0.67942537  0.88288174  0.85901919  1
  O  O70  1  0.27447900  0.65375360  0.86201518  1
  O  O71  1  0.76061539  0.64393277  0.86155958  1
  O  O72  1  0.00341639  0.82443155  0.41158358  1
  O  O73  1  0.50480241  0.81486526  0.41574475  1
  O  O74  1  0.39674788  0.98382345  0.40781821  1
  O  O75  1  0.90278935  0.98633713  0.41458511  1
  O  O76  1  0.08876036  0.21108044  0.41000490  1
  O  O77  1  0.59462093  0.20384331  0.41534284  1
  O  O78  1  0.00283320  0.19365551  0.91831977  1
  O  O79  1  0.50332821  0.18300713  0.91178337  1
  O  O80  1  0.09353850  0.98179410  0.91747287  1
  O  O81  1  0.58893160  0.96611774  0.90942838  1
  O  O82  1  0.40413306  0.81957424  0.91503199  1
  O  O83  1  0.89577076  0.80973362  0.90980124  1
  O  O84  1  0.49689674  0.17265719  0.58830502  1
  O  O85  1  0.99015451  0.15884683  0.58833373  1
  O  O86  1  0.08869664  0.02355702  0.59023143  1
  O  O87  1  0.59228076  0.01564012  0.58936749  1
  O  O88  1  0.42556104  0.84290217  0.59440495  1
  O  O89  1  0.92145839  0.82612942  0.59068367  1
  O  O90  1  0.49083913  0.82274548  0.09116500  1
  O  O91  1  0.99134977  0.81431160  0.09112003  1
  O  O92  1  0.41956481  0.01652339  0.08838860  1
  O  O93  1  0.92573390  0.00234594  0.09473995  1
  O  O94  1  0.09245864  0.17013965  0.09020330  1
  O  O95  1  0.58858753  0.16305972  0.09228950  1
  O  O96  1  0.33926309  0.14165332  0.74211214  1
  O  O97  1  0.83796800  0.15412431  0.74512471  1
  O  O98  1  0.24418297  0.32087478  0.74439822  1
  O  O99  1  0.74347836  0.33388614  0.74105967  1
  O  O100  1  0.43276430  0.54066386  0.74425052  1
  O  O101  1  0.92885302  0.54058026  0.73923942  1
  O  O102  1  0.33861024  0.52200049  0.24576519  1
  O  O103  1  0.84149710  0.53496268  0.24247522  1
  O  O104  1  0.42458276  0.30661523  0.24102585  1
  O  O105  1  0.93515470  0.33339192  0.24554720  1
  O  O106  1  0.24359514  0.15390260  0.24188019  1
  O  O107  1  0.72835912  0.14126504  0.24256160  1
  O  O108  1  0.32874253  0.51997057  0.92168634  1
  O  O109  1  0.81439199  0.50409679  0.91772886  1
  O  O110  1  0.42561117  0.35834579  0.91598564  1
  O  O111  1  0.92679242  0.34334775  0.91752746  1
  O  O112  1  0.24685696  0.12993000  0.92052700  1
  O  O113  1  0.74088806  0.13139597  0.91612726  1
  O  O114  1  0.31479959  0.12399933  0.41731358  1
  O  O115  1  0.82838917  0.13684332  0.42229753  1
  O  O116  1  0.24069664  0.34928734  0.41698396  1
  O  O117  1  0.74734625  0.36505477  0.42070939  1
  O  O118  1  0.42853897  0.51331096  0.41516766  1
  O  O119  1  0.92520132  0.49308272  0.41544822  1
  O  O120  1  0.16499038  0.47236676  0.08132645  1
  O  O121  1  0.66813789  0.46943631  0.08275144  1
  O  O122  1  0.06995962  0.66954939  0.08162261  1
  O  O123  1  0.56883028  0.67478915  0.08388599  1
  O  O124  1  0.26602591  0.85690233  0.08187708  1
  O  O125  1  0.76175656  0.82897442  0.08473725  1
  O  O126  1  0.16003013  0.86211357  0.58386138  1
  O  O127  1  0.66409033  0.85756570  0.58085242  1
  O  O128  1  0.25103463  0.65918993  0.58467172  1
  O  O129  1  0.76824842  0.67931677  0.58281239  1
  O  O130  1  0.07057715  0.45913776  0.58139458  1
  O  O131  1  0.57259225  0.47516126  0.58245654  1
  O  O132  1  0.15670843  0.82719981  0.25052213  1
  O  O133  1  0.64603407  0.83757308  0.24919301  1
  O  O134  1  0.25155684  0.68131795  0.25988266  1
  O  O135  1  0.76613508  0.68731450  0.24653581  1
  O  O136  1  0.08778169  0.46398638  0.25330719  1
  O  O137  1  0.57398437  0.46733825  0.24998008  1
  O  O138  1  0.15453476  0.47730664  0.74678097  1
  O  O139  1  0.65622401  0.48590517  0.75098665  1
  O  O140  1  0.07908868  0.70270755  0.75137844  1
  O  O141  1  0.58556625  0.70973967  0.75404206  1
  O  O142  1  0.26570930  0.84166891  0.74939227  1
  O  O143  1  0.74906963  0.82028019  0.75984129  1
loop_
_geom_bond_atom_site_label_1
_geom_bond_atom_site_label_2
_geom_bond_distance
_geom_bond_site_symmetry_2
Na0 O106 2.367761 1_565
Na0 O132 2.505666 1_555
Na0 O104 2.561065 1_565
Na0 O134 2.601026 1_555
Na0 O32 2.700580 1_565
Na0 O18 2.767858 1_555
Na0 O62 2.855451 1_555
Na1 O102 2.408239 1_555
Na1 O106 2.545840 1_555
Na1 O136 2.546524 1_555
Na1 O134 2.663850 1_555
Na1 O34 2.681820 1_555
Na1 O64 2.901573 1_555
Na1 O0 2.919908 1_555
Na1 O20 3.018388 1_555
Na2 O133 2.501103 1_555
Na2 O102 2.502211 1_555
Na2 O137 2.683840 1_555
Na2 O104 2.692424 1_555
Na2 O61 2.708582 1_555
Na2 O30 2.848853 1_555
Na3 O98 2.324655 1_555
Na3 O28 2.393424 1_555
Na3 O138 2.454761 1_555
Na3 O142 2.654204 1_555
Na3 O100 2.717759 1_555
Na4 O99 2.370664 1_555
Na4 O139 2.505754 1_555
Na4 O143 2.608854 1_555
Na4 O101 2.675164 1_555
Na4 O29 2.678338 1_555
Na4 O13 2.699798 1_555
Na4 O71 2.932087 1_555
Na5 O138 2.490118 1_655
Na5 O97 2.611599 1_555
Na5 O66 2.729545 1_655
Na5 O101 2.780184 1_555
Na5 O25 2.886603 1_555
Na5 O140 2.914342 1_655
Na5 O14 2.962230 1_655
Na5 O11 2.996503 1_555
Na6 O98 2.406960 1_555
Na6 O96 2.546344 1_555
Na6 O6 2.617183 1_555
Na6 O140 2.631236 1_545
Na6 O68 2.791957 1_545
Na6 O142 2.813182 1_545
Na6 O26 2.865265 1_555
Na7 O97 2.390963 1_555
Na7 O99 2.544800 1_555
Na7 O141 2.570324 1_545
Na7 O143 2.644246 1_545
Na7 O27 2.679932 1_555
Na7 O69 2.842399 1_545
Na7 O7 2.910732 1_555
Na8 O130 2.428688 1_555
Na8 O128 2.440200 1_555
Na8 O14 2.629698 1_555
Na8 O86 2.688613 1_555
Na8 O28 2.837962 1_555
Na8 O85 2.847136 1_455
Na8 O42 2.962739 1_555
Na9 O125 2.217788 1_555
Na9 O93 2.463069 1_565
Na9 O91 2.549550 1_555
Na9 O121 2.732371 1_555
Na9 O19 2.818771 1_555
Na9 O39 2.892002 1_555
Na9 O49 2.999278 1_554
Na10 O110 2.363331 1_555
Na10 O108 2.514170 1_555
Na10 O81 2.588715 1_555
Na10 O82 2.664588 1_555
Na10 O67 2.805983 1_555
Na10 O8 2.848451 1_555
Na10 O38 2.919403 1_556
Na11 O79 2.351286 1_555
Na11 O110 2.479121 1_555
Na11 O112 2.499621 1_555
Na11 O82 2.703514 1_545
Na11 O10 2.843164 1_555
Na11 O40 2.848675 1_556
Na12 O78 2.376063 1_655
Na12 O111 2.466074 1_555
Na12 O41 2.517037 1_556
Na12 O83 2.600323 1_545
Na12 O113 2.665977 1_555
Na12 O11 2.681488 1_555
Na13 O79 2.473050 1_555
Na13 O109 2.566673 1_555
Na13 O7 2.684836 1_555
Na13 O81 2.735323 1_545
Na13 O113 2.748137 1_555
Na13 O51 2.763379 1_555
Na13 O37 2.899701 1_556
Na14 O119 2.372163 1_555
Na14 O115 2.499530 1_555
Na14 O76 2.601962 1_655
Na14 O75 2.661700 1_545
Na14 O5 2.777996 1_555
Na14 O60 2.809639 1_655
Na14 O47 2.922222 1_555
Na15 O72 2.457795 1_545
Na15 O114 2.589798 1_555
Na15 O0 2.622098 1_555
Na15 O76 2.721470 1_555
Na15 O116 2.734004 1_555
Na15 O58 2.782478 1_545
Na16 O73 2.408893 1_555
Na16 O118 2.460450 1_555
Na16 O44 2.599072 1_555
Na16 O74 2.635744 1_555
Na16 O116 2.658191 1_555
Na16 O2 2.761234 1_555
Na16 O54 2.972737 1_555
Na17 O72 2.361402 1_655
Na17 O117 2.486393 1_555
Na17 O119 2.489625 1_555
Na17 O75 2.678005 1_555
Na17 O3 2.872745 1_555
Na17 O45 2.907852 1_555
Na18 O72 2.489957 1_655
Na18 O89 2.518111 1_555
Na18 O86 2.629967 1_665
Na18 O75 2.703762 1_555
Na18 O85 2.793047 1_565
Na18 O76 2.957086 1_665
Na19 O87 2.512971 1_565
Na19 O88 2.529777 1_555
Na19 O84 2.564355 1_565
Na19 O73 2.732979 1_555
Na19 O77 2.798345 1_565
Na19 O74 3.001381 1_555
Na20 O94 2.479761 1_555
Na20 O93 2.580305 1_455
Na20 O78 2.615907 1_554
Na20 O80 2.715144 1_544
Na20 O91 2.723847 1_445
Na20 O83 3.027215 1_444
Na21 O92 2.517739 1_555
Na21 O79 2.565971 1_554
Na21 O95 2.594885 1_555
Na21 O82 2.748918 1_544
Na21 O90 2.769172 1_545
Na21 O81 2.923924 1_544
Na22 O110 2.541881 1_555
Na22 O98 2.619412 1_555
Na22 O112 2.649640 1_555
Na22 O108 2.704478 1_555
Na22 O96 2.859692 1_555
Na22 O100 2.879044 1_555
Na23 O97 2.542798 1_555
Na23 O99 2.621350 1_555
Na23 O111 2.721637 1_555
Na23 O113 2.736087 1_555
Na23 O101 2.802342 1_555
Na23 O109 2.815841 1_555
Na24 O102 2.545637 1_555
Na24 O106 2.581182 1_555
Na24 O118 2.710869 1_555
Na24 O104 2.747309 1_555
Na24 O116 2.758273 1_555
Na24 O114 2.805883 1_555
Na25 O119 2.460318 1_555
Na25 O117 2.655584 1_555
Na25 O115 2.754676 1_555
Na25 O103 2.801087 1_555
Na25 O105 2.845560 1_555
Na25 O107 2.882756 1_555
Na26 O132 2.509521 1_555
Na26 O122 2.576551 1_555
Na26 O124 2.675561 1_555
Na26 O136 2.706553 1_555
Na26 O120 2.722496 1_555
Na26 O134 2.774052 1_555
Na27 O125 2.249188 1_555
Na27 O135 2.605543 1_555
Na27 O123 2.673450 1_555
Na27 O133 2.695017 1_555
Na27 O121 2.730944 1_555
Na27 O137 2.955747 1_555
Na28 O128 2.272321 1_555
Na28 O138 2.547713 1_555
Na28 O142 2.655850 1_555
Na28 O130 2.682739 1_555
Na28 O126 2.731642 1_555
Na28 O140 2.937144 1_555
Na29 O131 2.518709 1_555
Na29 O139 2.527349 1_555
Na29 O129 2.655836 1_555
Na29 O127 2.737415 1_555
Na29 O141 2.758119 1_555
Na29 O143 2.761270 1_555
Ca0 O0 2.155674 1_565
Ca0 O72 2.215148 1_555
Ca0 O3 2.242529 1_455
Ca0 O5 2.309399 1_465
Ca0 O76 2.390026 1_565
Ca0 O75 2.398097 1_455
Ca1 O2 2.180855 1_545
Ca1 O1 2.222661 1_555
Ca1 O4 2.278091 1_555
Ca1 O74 2.302318 1_545
Ca1 O77 2.302336 1_555
Ca1 O73 2.347535 1_545
Ca2 O6 2.111328 1_555
Ca2 O11 2.204445 1_455
Ca2 O9 2.312563 1_445
Ca2 O78 2.359661 1_555
Ca2 O80 2.363012 1_545
Ca2 O83 2.382581 1_445
Ca3 O7 2.140964 1_555
Ca3 O79 2.202777 1_555
Ca3 O10 2.263286 1_555
Ca3 O8 2.298800 1_545
Ca3 O81 2.370147 1_545
Ca3 O82 2.403025 1_545
Ca4 O28 2.136782 1_555
Ca4 O98 2.255684 1_555
Ca4 O24 2.265713 1_555
Ca4 O26 2.313684 1_555
Ca4 O100 2.376902 1_555
Ca4 O96 2.408624 1_555
Ca5 O99 2.208025 1_555
Ca5 O27 2.254978 1_555
Ca5 O97 2.284427 1_555
Ca5 O25 2.298305 1_555
Ca5 O29 2.343135 1_555
Ca5 O101 2.363839 1_555
Ca6 O106 2.199329 1_555
Ca6 O34 2.248801 1_555
Ca6 O30 2.276047 1_555
Ca6 O102 2.293777 1_555
Ca6 O32 2.333638 1_555
Ca6 O104 2.379714 1_555
Ca7 O33 2.068362 1_555
Ca7 O35 2.293472 1_555
Ca7 O31 2.307224 1_555
Ca7 O107 2.331652 1_555
Ca7 O105 2.377285 1_555
Ca7 O103 2.413235 1_555
Ca8 O110 2.305700 1_555
Ca8 O36 2.331887 1_556
Ca8 O112 2.332060 1_555
Ca8 O108 2.342030 1_555
Ca8 O38 2.383270 1_556
Ca8 O40 2.387360 1_556
Ca9 O41 2.168237 1_556
Ca9 O39 2.327757 1_556
Ca9 O111 2.375931 1_555
Ca9 O37 2.441334 1_556
Ca9 O113 2.547912 1_555
Ca9 O109 2.709520 1_555
Ca10 O44 2.179071 1_555
Ca10 O46 2.284844 1_555
Ca10 O118 2.390552 1_555
Ca10 O42 2.451548 1_555
Ca10 O116 2.574316 1_555
Ca10 O114 2.641156 1_555
Ca11 O119 2.318883 1_555
Ca11 O43 2.321002 1_555
Ca11 O117 2.330409 1_555
Ca11 O115 2.351904 1_555
Ca11 O47 2.366788 1_555
Ca11 O45 2.403481 1_555
Ca12 O52 2.233174 1_554
Ca12 O50 2.241083 1_554
Ca12 O48 2.293038 1_554
Ca12 O120 2.317779 1_555
Ca12 O122 2.337991 1_555
Ca12 O124 2.397816 1_555
Ca13 O51 2.159527 1_554
Ca13 O125 2.249964 1_555
Ca13 O53 2.284822 1_554
Ca13 O49 2.313708 1_554
Ca13 O123 2.353356 1_555
Ca13 O121 2.384861 1_555
Ca14 O58 2.154526 1_555
Ca14 O128 2.225896 1_555
Ca14 O54 2.262672 1_555
Ca14 O126 2.334835 1_555
Ca14 O56 2.365607 1_555
Ca14 O130 2.412527 1_555
Ca15 O57 2.248100 1_555
Ca15 O59 2.259573 1_555
Ca15 O55 2.280213 1_555
Ca15 O127 2.311022 1_555
Ca15 O131 2.316566 1_555
Ca15 O129 2.432836 1_555
Ca16 O65 2.243044 1_555
Ca16 O63 2.253779 1_555
Ca16 O61 2.344654 1_555
Ca16 O135 2.349459 1_555
Ca16 O137 2.405487 1_555
Ca16 O133 2.422451 1_555
Ca17 O138 2.263950 1_555
Ca17 O66 2.270488 1_555
Ca17 O70 2.288638 1_555
Ca17 O68 2.349550 1_555
Ca17 O142 2.413472 1_555
Ca17 O140 2.426365 1_555
O0 Si0 1.604992 1_555
O1 S0 1.459857 1_545
O2 Si1 1.596285 1_555
O3 S1 1.477473 1_555
O4 S3 1.461847 1_555
O5 S2 1.465706 1_655
O6 Si2 1.596443 1_555
O7 Si3 1.605606 1_555
O8 S5 1.472704 1_555
O9 S4 1.459682 1_655
O10 S6 1.470971 1_545
O11 Si4 1.594387 1_545
O12 S6 1.504471 1_555
O12 Sn1 2.181656 1_565
O13 Si4 1.710217 1_555
O13 Sn0 2.016193 1_565
O14 Si2 1.728193 1_555
O14 Sn0 1.996190 1_455
O15 Si3 1.678897 1_555
O15 Sn1 1.966199 1_555
O16 S4 1.519068 1_555
O16 Sn0 2.160286 1_465
O17 S5 1.499533 1_555
O17 Sn1 2.272648 1_565
O18 Si1 1.720009 1_555
O18 Sn3 2.019476 1_555
O19 S1 1.523864 1_555
O19 Sn2 2.158186 1_665
O20 S2 1.508500 1_555
O20 Sn2 2.208497 1_555
O21 S3 1.519254 1_555
O21 Sn3 2.147732 1_545
O22 Si0 1.675721 1_565
O22 Sn2 1.963527 1_565
O23 S0 1.545666 1_555
O23 Sn3 2.126518 1_555
O24 S7 1.463031 1_555
O25 S8 1.474696 1_555
O26 S9 1.478881 1_555
O27 S10 1.478336 1_555
O28 Si5 1.626299 1_555
O29 S11 1.474497 1_555
O30 S12 1.475131 1_555
O31 S13 1.459363 1_555
O32 S14 1.472629 1_555
O33 Si6 1.591668 1_555
O34 S15 1.475117 1_555
O35 S16 1.468626 1_555
O36 S15 1.472719 1_555
O37 S16 1.491032 1_555
O38 S12 1.479895 1_555
O39 S13 1.486182 1_555
O40 S14 1.479494 1_555
O41 Si6 1.641319 1_555
O42 S9 1.496177 1_555
O43 S10 1.471899 1_555
O44 Si5 1.646419 1_555
O45 S11 1.480593 1_555
O46 S7 1.474953 1_555
O47 S8 1.472640 1_555
O48 S17 1.470426 1_555
O49 S18 1.470102 1_555
O50 S19 1.467389 1_555
O51 Si7 1.596618 1_555
O52 S20 1.471965 1_555
O53 S21 1.460944 1_555
O54 S22 1.462669 1_555
O55 S23 1.472258 1_555
O56 S24 1.467353 1_555
O57 S25 1.472156 1_555
O58 Si8 1.596022 1_555
O59 S26 1.469234 1_555
O60 Si8 1.723964 1_555
O60 Sn4 1.960680 1_555
O61 S26 1.489090 1_555
O62 S22 1.536837 1_555
O62 Sn4 2.194507 1_555
O63 S23 1.475486 1_555
O64 S24 1.514468 1_555
O64 Sn4 2.357860 1_555
O65 S25 1.487864 1_555
O66 S19 1.488637 1_555
O67 Si7 1.722011 1_555
O67 Sn5 1.959079 1_555
O68 S20 1.499836 1_555
O69 S21 1.514677 1_555
O69 Sn5 2.331620 1_555
O70 S17 1.484017 1_555
O71 S18 1.538661 1_555
O71 Sn5 2.189369 1_555
O72 Si8 1.647163 1_555
O73 S26 1.498039 1_555
O74 S22 1.476648 1_555
O75 S23 1.508230 1_555
O76 S24 1.493016 1_555
O77 S25 1.474647 1_555
O78 S19 1.495302 1_555
O79 Si7 1.646081 1_555
O80 S20 1.473942 1_555
O81 S21 1.491515 1_555
O82 S17 1.504435 1_555
O83 S18 1.474778 1_555
O84 S7 1.522983 1_555
O84 Sn1 2.129281 1_555
O85 S8 1.530920 1_555
O85 Sn0 2.180769 1_555
O86 S9 1.529563 1_555
O86 Sn0 2.322214 1_455
O87 S10 1.518154 1_555
O87 Sn1 2.170736 1_555
O88 Si5 1.699561 1_555
O88 Sn1 1.966402 1_565
O89 S11 1.543118 1_555
O89 Sn0 2.141324 1_565
O90 S12 1.546508 1_555
O90 Sn3 2.132585 1_555
O91 S13 1.526534 1_555
O91 Sn2 2.181979 1_665
O92 S14 1.545462 1_555
O92 Sn3 2.140779 1_545
O93 Si6 1.736015 1_555
O93 Sn2 1.969690 1_655
O94 S15 1.520494 1_555
O94 Sn2 2.186229 1_555
O95 S16 1.541773 1_555
O95 Sn3 2.234578 1_545
O96 S6 1.473721 1_545
O97 Si4 1.629262 1_545
O98 Si2 1.643154 1_555
O99 Si3 1.632312 1_555
O100 S5 1.466214 1_555
O101 S4 1.485827 1_655
O102 Si1 1.630913 1_555
O103 S1 1.468582 1_555
O104 S3 1.497737 1_555
O105 S2 1.455717 1_655
O106 Si0 1.630719 1_555
O107 S0 1.461768 1_545
O108 S17 1.488842 1_555
O109 S18 1.485226 1_555
O110 Si7 1.652482 1_555
O111 S19 1.500303 1_655
O112 S20 1.506095 1_545
O113 S21 1.495485 1_545
O114 S22 1.484383 1_545
O115 S23 1.489170 1_545
O116 S24 1.498074 1_555
O117 S25 1.506337 1_555
O118 S26 1.505199 1_555
O119 Si8 1.650187 1_655
O120 S15 1.478751 1_555
O121 S16 1.480455 1_555
O122 S13 1.478704 1_455
O123 S12 1.467065 1_555
O124 S14 1.475430 1_565
O125 Si6 1.640236 1_565
O126 S9 1.464614 1_565
O127 S10 1.477883 1_565
O128 Si5 1.635431 1_555
O129 S11 1.473225 1_555
O130 S8 1.480171 1_455
O131 S7 1.483636 1_555
O132 Si0 1.687626 1_565
O132 Sn4 2.037980 1_555
O133 S0 1.494972 1_555
O134 Si1 1.694944 1_555
O134 Sn4 2.054567 1_555
O135 S1 1.484741 1_555
O136 S2 1.532745 1_555
O136 Sn4 2.210995 1_555
O137 S3 1.478111 1_555
O138 Si2 1.650542 1_555
O139 Si3 1.686184 1_555
O139 Sn5 2.038945 1_555
O140 S4 1.487645 1_555
O141 S5 1.516479 1_555
O141 Sn5 2.242928 1_555
O142 S6 1.499573 1_555
O143 Si4 1.696353 1_555
O143 Sn5 2.035786 1_555
