# generated using pymatgen
data_Na6Zn6SiSn2S11O48
_symmetry_space_group_name_H-M   'P 1'
_cell_length_a   17.56737862
_cell_length_b   8.80356758
_cell_length_c   22.70318899
_cell_angle_alpha   89.92737089
_cell_angle_beta   89.88527912
_cell_angle_gamma   119.97919369
_symmetry_Int_Tables_number   1
_chemical_formula_structural   Na6Zn6SiSn2S11O48
_chemical_formula_sum   'Na18 Zn18 Si3 Sn6 S33 O144'
_cell_volume   3041.38791331
_cell_formula_units_Z   3
loop_
 _symmetry_equiv_pos_site_id
 _symmetry_equiv_pos_as_xyz
  1  'x, y, z'
loop_
 _atom_site_type_symbol
 _atom_site_label
 _atom_site_symmetry_multiplicity
 _atom_site_fract_x
 _atom_site_fract_y
 _atom_site_fract_z
 _atom_site_occupancy
  Na  Na0  1  0.68671476  0.36539977  0.24465264  1
  Na  Na1  1  0.99579954  0.63342354  0.25324734  1
  Na  Na2  1  0.33428040  0.96411858  0.58923250  1
  Na  Na3  1  0.83515018  0.96546104  0.58910821  1
  Na  Na4  1  0.33388809  0.69970685  0.08187339  1
  Na  Na5  1  0.34660287  0.66520279  0.41458493  1
  Na  Na6  1  0.00541815  0.99889149  0.49720219  1
  Na  Na7  1  0.50859743  0.01215280  0.50060060  1
  Na  Na8  1  0.99830550  0.99838298  0.99893040  1
  Na  Na9  1  0.50703857  0.01224646  0.00196623  1
  Na  Na10  1  0.33457063  0.32527081  0.83661815  1
  Na  Na11  1  0.83408385  0.32538814  0.83682204  1
  Na  Na12  1  0.32989116  0.32348094  0.33042801  1
  Na  Na13  1  0.83646174  0.33691651  0.33393737  1
  Na  Na14  1  0.16765476  0.66943219  0.16613617  1
  Na  Na15  1  0.66958721  0.67417394  0.16022459  1
  Na  Na16  1  0.16754972  0.66786414  0.67348115  1
  Na  Na17  1  0.66853259  0.66874258  0.67397325  1
  Zn  Zn0  1  0.99754137  0.98915378  0.34987581  1
  Zn  Zn1  1  0.49849204  0.00261306  0.34741199  1
  Zn  Zn2  1  0.99735992  0.99854107  0.65538298  1
  Zn  Zn3  1  0.49786160  0.99877129  0.65593316  1
  Zn  Zn4  1  0.50266502  0.00461453  0.14835800  1
  Zn  Zn5  1  0.33476266  0.33446393  0.18138276  1
  Zn  Zn6  1  0.83346644  0.33917257  0.18068419  1
  Zn  Zn7  1  0.33576394  0.33087193  0.98276755  1
  Zn  Zn8  1  0.83194209  0.33260204  0.98353335  1
  Zn  Zn9  1  0.32928608  0.32287440  0.48271605  1
  Zn  Zn10  1  0.83643200  0.33989529  0.48059531  1
  Zn  Zn11  1  0.16228550  0.66982192  0.01292448  1
  Zn  Zn12  1  0.66662324  0.66456544  0.01539565  1
  Zn  Zn13  1  0.16024283  0.65733438  0.51368264  1
  Zn  Zn14  1  0.66479466  0.66035565  0.51693665  1
  Zn  Zn15  1  0.16896794  0.66558753  0.31814548  1
  Zn  Zn16  1  0.17420711  0.68041046  0.81530452  1
  Zn  Zn17  1  0.67507488  0.68125487  0.81578739  1
  Si  Si0  1  0.85339843  0.70434036  0.25177014  1
  Si  Si1  1  0.35001994  0.99198065  0.74663576  1
  Si  Si2  1  0.84968295  0.99251514  0.74653360  1
  Sn  Sn0  1  0.99636690  0.00272894  0.85045906  1
  Sn  Sn1  1  0.49736623  0.00352088  0.85083733  1
  Sn  Sn2  1  0.99487085  0.99614085  0.14984383  1
  Sn  Sn3  1  0.33424627  0.32934763  0.68703878  1
  Sn  Sn4  1  0.83436202  0.32980523  0.68662397  1
  Sn  Sn5  1  0.66985653  0.67305192  0.31627253  1
  S  S0  1  0.14950333  0.00500787  0.25048735  1
  S  S1  1  0.64421282  0.99688020  0.25076572  1
  S  S2  1  0.35197739  0.70353452  0.25023175  1
  S  S3  1  0.00159434  0.29443070  0.25112891  1
  S  S4  1  0.49699738  0.29157969  0.25126349  1
  S  S5  1  0.14593477  0.29428680  0.74878373  1
  S  S6  1  0.64613352  0.29480903  0.74865381  1
  S  S7  1  0.00121575  0.70797121  0.74872394  1
  S  S8  1  0.50124330  0.70794777  0.74878131  1
  S  S9  1  0.48196081  0.33818277  0.58085456  1
  S  S10  1  0.98214259  0.33752904  0.58117864  1
  S  S11  1  0.18389295  0.03848814  0.58213363  1
  S  S12  1  0.68481367  0.04070560  0.58110583  1
  S  S13  1  0.33370583  0.62394937  0.58105737  1
  S  S14  1  0.83341915  0.62274672  0.58185955  1
  S  S15  1  0.48060420  0.62549492  0.08366207  1
  S  S16  1  0.98256013  0.62970407  0.08334921  1
  S  S17  1  0.33271086  0.03954993  0.08367433  1
  S  S18  1  0.83288890  0.04227246  0.08325554  1
  S  S19  1  0.18544410  0.33034430  0.08391667  1
  S  S20  1  0.68467556  0.33301005  0.08349357  1
  S  S21  1  0.31354863  0.66306052  0.91810326  1
  S  S22  1  0.81308326  0.66350218  0.91737985  1
  S  S23  1  0.02134645  0.37722321  0.91613644  1
  S  S24  1  0.52164725  0.37757442  0.91598111  1
  S  S25  1  0.16620937  0.96354089  0.91595190  1
  S  S26  1  0.66591187  0.96064020  0.91641732  1
  S  S27  1  0.31400639  0.96250293  0.41756743  1
  S  S28  1  0.81439032  0.96425625  0.41986240  1
  S  S29  1  0.16582489  0.37004986  0.41691575  1
  S  S30  1  0.66556706  0.36919711  0.41757173  1
  S  S31  1  0.01939054  0.66671287  0.41632426  1
  S  S32  1  0.52022253  0.66704923  0.41754563  1
  O  O0  1  0.10981039  0.03398388  0.30285905  1
  O  O1  1  0.60585282  0.02834302  0.30440136  1
  O  O2  1  0.40482009  0.78307559  0.30497436  1
  O  O3  1  0.91617159  0.78758427  0.30757937  1
  O  O4  1  0.48616882  0.18996630  0.30531092  1
  O  O5  1  0.98985332  0.18802734  0.30311527  1
  O  O6  1  0.11064634  0.18042491  0.80316536  1
  O  O7  1  0.61090739  0.18077694  0.80300035  1
  O  O8  1  0.48503361  0.78487627  0.80347173  1
  O  O9  1  0.98542094  0.78513709  0.80361102  1
  O  O10  1  0.41432027  0.03850910  0.80540413  1
  O  O11  1  0.91409192  0.04021617  0.80534148  1
  O  O12  1  0.39051756  0.97093468  0.68505901  1
  O  O13  1  0.89048423  0.97105327  0.68522004  1
  O  O14  1  0.09610116  0.21164316  0.69556130  1
  O  O15  1  0.59614986  0.21214488  0.69541708  1
  O  O16  1  0.01523920  0.81358532  0.69593453  1
  O  O17  1  0.51503107  0.81298802  0.69579053  1
  O  O18  1  0.39377888  0.81331277  0.19665025  1
  O  O19  1  0.89062896  0.82209703  0.19132248  1
  O  O20  1  0.01941186  0.22118898  0.19570919  1
  O  O21  1  0.51752946  0.21806203  0.19874827  1
  O  O22  1  0.09189661  0.96902532  0.19590919  1
  O  O23  1  0.59161287  0.96814153  0.19772809  1
  O  O24  1  0.44202949  0.36764378  0.63607312  1
  O  O25  1  0.94221334  0.36781381  0.63641941  1
  O  O26  1  0.24297003  0.11983085  0.63589627  1
  O  O27  1  0.74255128  0.11973970  0.63565782  1
  O  O28  1  0.31971458  0.51338820  0.63584924  1
  O  O29  1  0.81868790  0.51507925  0.63769843  1
  O  O30  1  0.44110567  0.52043890  0.13741899  1
  O  O31  1  0.94501750  0.53191738  0.13931057  1
  O  O32  1  0.31929707  0.11771732  0.13711937  1
  O  O33  1  0.82295343  0.12218271  0.13803263  1
  O  O34  1  0.23896496  0.36004382  0.13742816  1
  O  O35  1  0.73521435  0.35745644  0.13923656  1
  O  O36  1  0.22344332  0.30015616  0.03075325  1
  O  O37  1  0.72772156  0.30686105  0.03149585  1
  O  O38  1  0.42326353  0.54593764  0.03115041  1
  O  O39  1  0.92715466  0.54949185  0.03170490  1
  O  O40  1  0.34580602  0.14495867  0.03002053  1
  O  O41  1  0.84737450  0.14896794  0.03014468  1
  O  O42  1  0.22478367  0.14727992  0.52979227  1
  O  O43  1  0.72657894  0.14958039  0.52917625  1
  O  O44  1  0.34476192  0.54144185  0.52789109  1
  O  O45  1  0.84358755  0.53691306  0.53028017  1
  O  O46  1  0.42399305  0.30647435  0.52991205  1
  O  O47  1  0.92348039  0.30375835  0.53058132  1
  O  O48  1  0.27669262  0.69470916  0.97298236  1
  O  O49  1  0.77555612  0.69692299  0.97034200  1
  O  O50  1  0.07381811  0.45153711  0.97018054  1
  O  O51  1  0.57319745  0.45244303  0.96988585  1
  O  O52  1  0.14956758  0.85775728  0.97008424  1
  O  O53  1  0.64998717  0.85498856  0.97001631  1
  O  O54  1  0.27582047  0.85430208  0.47207799  1
  O  O55  1  0.77234496  0.85417135  0.47241832  1
  O  O56  1  0.15400134  0.45015802  0.47089543  1
  O  O57  1  0.65213692  0.45512249  0.46853734  1
  O  O58  1  0.07365270  0.69022773  0.46918700  1
  O  O59  1  0.57491487  0.69398637  0.46906950  1
  O  O60  1  0.05883899  0.64174362  0.36121077  1
  O  O61  1  0.55987529  0.63715923  0.36216703  1
  O  O62  1  0.26001329  0.87980830  0.36480923  1
  O  O63  1  0.75769004  0.88311669  0.36503483  1
  O  O64  1  0.18357786  0.48428357  0.36433606  1
  O  O65  1  0.67923918  0.47589043  0.36090649  1
  O  O66  1  0.06235282  0.47929626  0.86273576  1
  O  O67  1  0.56238292  0.47876259  0.86224370  1
  O  O68  1  0.17724195  0.88196350  0.86286124  1
  O  O69  1  0.67677493  0.88161597  0.86270959  1
  O  O70  1  0.26125813  0.64128646  0.86552029  1
  O  O71  1  0.76284318  0.64033596  0.86356319  1
  O  O72  1  0.01226536  0.82783124  0.41339392  1
  O  O73  1  0.50982828  0.82442869  0.41042418  1
  O  O74  1  0.40225495  0.97361368  0.41176439  1
  O  O75  1  0.90109001  0.97959484  0.41248577  1
  O  O76  1  0.08744211  0.19401177  0.41032696  1
  O  O77  1  0.58576916  0.19474166  0.41066540  1
  O  O78  1  0.01408502  0.19522469  0.91287686  1
  O  O79  1  0.51395419  0.19496914  0.91294227  1
  O  O80  1  0.08283632  0.97956323  0.91031306  1
  O  O81  1  0.58261176  0.97838293  0.91082875  1
  O  O82  1  0.40486570  0.82718429  0.91326223  1
  O  O83  1  0.90532860  0.82772772  0.91286466  1
  O  O84  1  0.48914151  0.17781805  0.58686805  1
  O  O85  1  0.98940911  0.17721586  0.58753614  1
  O  O86  1  0.09693706  0.02076646  0.59081593  1
  O  O87  1  0.59722561  0.02177034  0.58982915  1
  O  O88  1  0.41346694  0.79990473  0.58620160  1
  O  O89  1  0.91293159  0.79938874  0.58675832  1
  O  O90  1  0.48653801  0.80174371  0.08913779  1
  O  O91  1  0.99249133  0.81224969  0.08770219  1
  O  O92  1  0.41169455  0.01611303  0.08891810  1
  O  O93  1  0.91726446  0.02952678  0.08657162  1
  O  O94  1  0.09475750  0.16910420  0.09031135  1
  O  O95  1  0.59634099  0.17311447  0.08856892  1
  O  O96  1  0.34393758  0.17762010  0.74565000  1
  O  O97  1  0.84355042  0.17810878  0.74543824  1
  O  O98  1  0.23733456  0.31663474  0.74453630  1
  O  O99  1  0.73734024  0.31670170  0.74431273  1
  O  O100  1  0.41577924  0.53336940  0.74427091  1
  O  O101  1  0.91606262  0.53364726  0.74434534  1
  O  O102  1  0.34359578  0.52813681  0.24476131  1
  O  O103  1  0.84008292  0.50620941  0.24420131  1
  O  O104  1  0.42042279  0.31386076  0.24472195  1
  O  O105  1  0.92174156  0.31077943  0.24346823  1
  O  O106  1  0.23714304  0.15889842  0.24188508  1
  O  O107  1  0.73374902  0.15147046  0.24514707  1
  O  O108  1  0.32483942  0.50816591  0.92372654  1
  O  O109  1  0.82536408  0.50904839  0.92344236  1
  O  O110  1  0.43133182  0.35084728  0.92121069  1
  O  O111  1  0.93147995  0.35140747  0.92220820  1
  O  O112  1  0.24340537  0.14094324  0.92211851  1
  O  O113  1  0.74338871  0.14012127  0.92218928  1
  O  O114  1  0.32488475  0.13982148  0.42276607  1
  O  O115  1  0.82035038  0.13727326  0.42303032  1
  O  O116  1  0.24866014  0.35883246  0.42203223  1
  O  O117  1  0.74564674  0.35582393  0.42137618  1
  O  O118  1  0.43128426  0.50990077  0.42112782  1
  O  O119  1  0.93131797  0.50680696  0.42146342  1
  O  O120  1  0.17657733  0.49053448  0.07805010  1
  O  O121  1  0.67642706  0.49252851  0.07762444  1
  O  O122  1  0.07141070  0.65034132  0.07763227  1
  O  O123  1  0.56935873  0.64681018  0.07682490  1
  O  O124  1  0.25424407  0.85750972  0.07814735  1
  O  O125  1  0.75623607  0.86367575  0.07819306  1
  O  O126  1  0.18025179  0.86603928  0.57772812  1
  O  O127  1  0.68007411  0.86663719  0.57732559  1
  O  O128  1  0.25471684  0.64512493  0.57824853  1
  O  O129  1  0.75429319  0.64485765  0.57888407  1
  O  O130  1  0.06913231  0.49615782  0.57686945  1
  O  O131  1  0.56900099  0.49681532  0.57637684  1
  O  O132  1  0.15331507  0.83902706  0.25483455  1
  O  O133  1  0.65113042  0.83320491  0.25708425  1
  O  O134  1  0.26389937  0.68878028  0.25579420  1
  O  O135  1  0.75181911  0.67654424  0.25565790  1
  O  O136  1  0.07928969  0.47573765  0.25472745  1
  O  O137  1  0.58052544  0.47176096  0.25729746  1
  O  O138  1  0.15254419  0.46408931  0.75682476  1
  O  O139  1  0.65252879  0.46424477  0.75665052  1
  O  O140  1  0.07475030  0.67807783  0.75638956  1
  O  O141  1  0.57453217  0.67771138  0.75642039  1
  O  O142  1  0.25401952  0.82301400  0.75412879  1
  O  O143  1  0.75389196  0.82363567  0.75408081  1
loop_
_geom_bond_atom_site_label_1
_geom_bond_atom_site_label_2
_geom_bond_distance
_geom_bond_site_symmetry_2
Na0 O103 2.336229 1_555
Na0 O135 2.397005 1_555
Na0 O107 2.405196 1_555
Na0 O137 2.486631 1_555
Na0 O35 2.551550 1_555
Na0 O21 2.786632 1_555
Na0 O65 2.839415 1_555
Na0 O1 2.903865 1_555
Na1 O103 2.391801 1_555
Na1 O132 2.435092 1_655
Na1 O136 2.472714 1_655
Na1 O105 2.473776 1_555
Na1 O60 2.677686 1_655
Na1 O3 2.686048 1_555
Na1 O31 2.739337 1_555
Na1 O22 2.875835 1_655
Na2 O12 2.379582 1_555
Na2 O126 2.409155 1_555
Na2 O84 2.414048 1_565
Na2 O128 2.445957 1_555
Na2 O88 2.457544 1_555
Na2 O26 2.787295 1_565
Na2 O54 2.844119 1_555
Na2 O46 2.935246 1_565
Na3 O13 2.381095 1_555
Na3 O85 2.402288 1_565
Na3 O127 2.425909 1_555
Na3 O89 2.450276 1_555
Na3 O129 2.456451 1_555
Na3 O27 2.795101 1_565
Na3 O55 2.851955 1_555
Na3 O47 2.899391 1_565
Na4 O90 2.370691 1_555
Na4 O124 2.416065 1_555
Na4 O92 2.418661 1_565
Na4 O120 2.439524 1_555
Na4 O48 2.662554 1_554
Na4 O38 2.782930 1_555
Na4 O18 2.804178 1_555
Na4 O34 2.883031 1_555
Na5 O116 2.371404 1_555
Na5 O74 2.382917 1_555
Na5 O118 2.477372 1_555
Na5 O73 2.485503 1_555
Na5 O2 2.690374 1_555
Na5 O64 2.738502 1_555
Na5 O44 2.786177 1_555
Na5 O54 2.844132 1_555
Na6 O72 2.467799 1_555
Na6 O76 2.534471 1_565
Na6 O75 2.605938 1_455
Na6 O86 2.616155 1_565
Na6 O89 2.642796 1_455
Na6 O85 2.682685 1_465
Na7 O77 2.528547 1_555
Na7 O87 2.533058 1_555
Na7 O84 2.565641 1_555
Na7 O88 2.630257 1_545
Na7 O73 2.639548 1_545
Na7 O74 2.656363 1_545
Na8 O83 2.512137 1_555
Na8 O78 2.530988 1_665
Na8 O93 2.537954 1_566
Na8 O80 2.552473 1_655
Na8 O91 2.565336 1_556
Na8 O94 2.628876 1_666
Na9 O95 2.476214 1_555
Na9 O79 2.546137 1_554
Na9 O81 2.553191 1_544
Na9 O92 2.597598 1_555
Na9 O90 2.607978 1_545
Na9 O82 2.651795 1_544
Na10 O96 2.490227 1_555
Na10 O110 2.502044 1_555
Na10 O112 2.519626 1_555
Na10 O108 2.610478 1_555
Na10 O100 2.674601 1_555
Na10 O98 2.679364 1_555
Na11 O97 2.496820 1_555
Na11 O113 2.517457 1_555
Na11 O111 2.522029 1_555
Na11 O109 2.599893 1_555
Na11 O101 2.680081 1_555
Na11 O99 2.681445 1_555
Na12 O104 2.538766 1_555
Na12 O106 2.540914 1_555
Na12 O102 2.577305 1_555
Na12 O114 2.620169 1_555
Na12 O116 2.625264 1_555
Na12 O118 2.684802 1_555
Na13 O103 2.504573 1_555
Na13 O119 2.548031 1_555
Na13 O115 2.598464 1_555
Na13 O117 2.601398 1_555
Na13 O105 2.617140 1_555
Na13 O107 2.657753 1_555
Na14 O124 2.551138 1_555
Na14 O122 2.579680 1_555
Na14 O136 2.587709 1_555
Na14 O132 2.594075 1_555
Na14 O120 2.599573 1_555
Na14 O134 2.599597 1_555
Na15 O125 2.451862 1_555
Na15 O121 2.507404 1_555
Na15 O123 2.516744 1_555
Na15 O135 2.600799 1_555
Na15 O133 2.712850 1_555
Na15 O137 2.769526 1_555
Na16 O142 2.338692 1_555
Na16 O140 2.518612 1_555
Na16 O138 2.526820 1_555
Na16 O128 2.711779 1_555
Na16 O126 2.723749 1_555
Na16 O130 2.738055 1_555
Na17 O143 2.321513 1_555
Na17 O139 2.515337 1_555
Na17 O141 2.520941 1_555
Na17 O129 2.698015 1_555
Na17 O127 2.743423 1_555
Na17 O131 2.763498 1_555
O0 S0 1.462958 1_555
O0 Zn0 2.097053 1_445
O1 S1 1.482478 1_545
O1 Zn1 2.031529 1_555
O2 S2 1.501307 1_555
O2 Zn1 2.050417 1_565
O3 Si0 1.599642 1_555
O3 Zn0 1.894520 1_555
O4 S4 1.472512 1_555
O4 Zn1 2.008630 1_555
O5 S3 1.454697 1_655
O5 Zn0 2.107778 1_545
O6 S5 1.512019 1_555
O6 Sn0 2.116365 1_455
O7 S6 1.511973 1_555
O7 Sn1 2.114130 1_555
O8 S8 1.508272 1_555
O8 Sn1 2.120800 1_565
O9 S7 1.510107 1_655
O9 Sn0 2.115550 1_565
O10 Si1 1.664012 1_545
O10 Sn1 1.934302 1_555
O11 Si2 1.664874 1_545
O11 Sn0 1.931050 1_555
O12 Si1 1.619645 1_555
O12 Zn3 1.893709 1_555
O13 Si2 1.618387 1_555
O13 Zn2 1.892871 1_555
O14 S5 1.457981 1_555
O14 Zn2 2.029544 1_445
O15 S6 1.459219 1_555
O15 Zn3 2.020533 1_545
O16 S7 1.458985 1_555
O16 Zn2 2.026321 1_455
O17 S8 1.460587 1_555
O17 Zn3 2.018711 1_555
O18 S2 1.495747 1_555
O18 Zn4 2.113011 1_565
O19 Si0 1.643480 1_555
O19 Sn2 1.942496 1_555
O20 S3 1.516239 1_555
O20 Sn2 2.085384 1_445
O21 S4 1.484594 1_555
O21 Zn4 2.103391 1_555
O22 S0 1.531501 1_565
O22 Sn2 2.114039 1_455
O23 S1 1.462658 1_555
O23 Zn4 2.075717 1_565
O24 S9 1.519898 1_555
O24 Sn3 2.095233 1_555
O25 S10 1.523225 1_555
O25 Sn4 2.087506 1_555
O26 S11 1.531105 1_555
O26 Sn3 2.092510 1_555
O27 S12 1.532558 1_555
O27 Sn4 2.095777 1_555
O28 S13 1.520468 1_555
O28 Sn3 2.109659 1_555
O29 S14 1.524146 1_555
O29 Sn4 2.101306 1_555
O30 S15 1.476063 1_555
O30 Zn5 2.024481 1_555
O31 S16 1.488862 1_555
O31 Zn6 2.065743 1_555
O32 S17 1.471185 1_555
O32 Zn5 2.052449 1_555
O33 S18 1.481893 1_555
O33 Zn6 2.067312 1_555
O34 S19 1.479195 1_555
O34 Zn5 2.064858 1_555
O35 S20 1.500134 1_555
O35 Zn6 2.043119 1_555
O36 S19 1.465582 1_555
O36 Zn7 2.147283 1_554
O37 S20 1.479710 1_555
O37 Zn8 2.041063 1_554
O38 S15 1.492782 1_555
O38 Zn7 2.063411 1_554
O39 S16 1.463058 1_555
O39 Zn8 2.111987 1_554
O40 S17 1.476659 1_555
O40 Zn7 2.036088 1_554
O41 S18 1.469008 1_555
O41 Zn8 2.059531 1_554
O42 S11 1.466813 1_555
O42 Zn9 2.013468 1_555
O43 S12 1.462139 1_555
O43 Zn10 2.122110 1_555
O44 S13 1.471242 1_555
O44 Zn9 2.076432 1_555
O45 S14 1.452752 1_555
O45 Zn10 2.020936 1_555
O46 S9 1.474454 1_555
O46 Zn9 2.045443 1_555
O47 S10 1.472881 1_555
O47 Zn10 2.054212 1_555
O48 S21 1.492352 1_555
O48 Zn11 2.112314 1_556
O49 S22 1.469197 1_555
O49 Zn12 2.058189 1_556
O50 S23 1.478870 1_555
O50 Zn11 2.018917 1_556
O51 S24 1.470448 1_555
O51 Zn12 2.048714 1_556
O52 S25 1.478748 1_555
O52 Zn11 2.024715 1_556
O53 S26 1.469648 1_555
O53 Zn12 2.107989 1_556
O54 S27 1.498006 1_555
O54 Zn13 2.119235 1_555
O55 S28 1.478734 1_555
O55 Zn14 2.066121 1_555
O56 S29 1.479846 1_555
O56 Zn13 2.021705 1_555
O57 S30 1.464993 1_555
O57 Zn14 2.031211 1_555
O58 S31 1.483204 1_555
O58 Zn13 1.965683 1_555
O59 S32 1.457808 1_555
O59 Zn14 2.057909 1_555
O60 S31 1.497890 1_555
O60 Zn15 2.080630 1_555
O61 S32 1.521754 1_555
O61 Sn5 2.073507 1_555
O62 S27 1.476829 1_555
O62 Zn15 2.057803 1_555
O63 S28 1.532318 1_555
O63 Sn5 2.046153 1_555
O64 S29 1.488500 1_555
O64 Zn15 2.029637 1_555
O65 S30 1.537925 1_555
O65 Sn5 2.085397 1_555
O66 S23 1.463926 1_555
O66 Zn16 2.159939 1_555
O67 S24 1.466545 1_555
O67 Zn17 2.160891 1_555
O68 S25 1.465098 1_555
O68 Zn16 2.056104 1_555
O69 S26 1.463247 1_555
O69 Zn17 2.049215 1_555
O70 S21 1.461075 1_555
O70 Zn16 2.071080 1_555
O71 S22 1.462339 1_555
O71 Zn17 2.060188 1_555
O72 S31 1.486346 1_555
O72 Zn0 2.127648 1_455
O73 S32 1.493813 1_555
O73 Zn1 2.203305 1_565
O74 S27 1.509287 1_555
O74 Zn1 2.148435 1_565
O75 S28 1.469508 1_555
O75 Zn0 2.178561 1_555
O76 S29 1.479520 1_555
O76 Zn0 2.190626 1_445
O77 S30 1.482691 1_555
O77 Zn1 2.167305 1_555
O78 S23 1.544341 1_555
O78 Sn0 2.111292 1_455
O79 S24 1.546133 1_555
O79 Sn1 2.104866 1_555
O80 S25 1.545523 1_555
O80 Sn0 2.124332 1_465
O81 S26 1.552758 1_555
O81 Sn1 2.117839 1_565
O82 S21 1.534824 1_555
O82 Sn1 2.126796 1_565
O83 S22 1.544137 1_555
O83 Sn0 2.112266 1_565
O84 S9 1.485005 1_555
O84 Zn3 2.280934 1_545
O85 S10 1.486129 1_555
O85 Zn2 2.254039 1_545
O86 S11 1.468761 1_555
O86 Zn2 2.212264 1_445
O87 S12 1.475448 1_555
O87 Zn3 2.230659 1_545
O88 S13 1.486094 1_555
O88 Zn3 2.278570 1_555
O89 S14 1.487285 1_555
O89 Zn2 2.262411 1_555
O90 S15 1.507561 1_555
O90 Zn4 2.140001 1_565
O91 S16 1.530718 1_555
O91 Sn2 2.133394 1_555
O92 S17 1.506223 1_555
O92 Zn4 2.134305 1_555
O93 S18 1.543369 1_555
O93 Sn2 2.101378 1_545
O94 S19 1.520731 1_555
O94 Sn2 2.130614 1_445
O95 S20 1.489533 1_555
O95 Zn4 2.073040 1_555
O96 Si1 1.690341 1_545
O96 Sn3 1.951288 1_555
O97 Si2 1.690452 1_545
O97 Sn4 1.950451 1_555
O98 S5 1.519791 1_555
O98 Sn3 2.101261 1_555
O99 S6 1.518160 1_555
O99 Sn4 2.104257 1_555
O100 S8 1.523714 1_555
O100 Sn3 2.099588 1_555
O101 S7 1.519722 1_655
O101 Sn4 2.106450 1_555
O102 S2 1.481476 1_555
O102 Zn5 2.178135 1_555
O103 Si0 1.649196 1_555
O103 Zn6 2.022536 1_555
O104 S4 1.461014 1_555
O104 Zn5 2.155463 1_555
O105 S3 1.490473 1_655
O105 Zn6 2.212338 1_555
O106 S0 1.468865 1_555
O106 Zn5 2.133746 1_555
O107 S1 1.483900 1_545
O107 Zn6 2.243184 1_555
O108 S21 1.478201 1_555
O108 Zn7 2.136538 1_555
O109 S22 1.485667 1_555
O109 Zn8 2.112373 1_555
O110 S24 1.487571 1_555
O110 Zn7 2.120753 1_555
O111 S23 1.484414 1_655
O111 Zn8 2.173446 1_555
O112 S25 1.477331 1_545
O112 Zn7 2.151225 1_555
O113 S26 1.489400 1_545
O113 Zn8 2.147396 1_555
O114 S27 1.479766 1_545
O114 Zn9 2.082523 1_555
O115 S28 1.475500 1_545
O115 Zn10 2.115069 1_555
O116 S29 1.511658 1_555
O116 Zn9 2.111696 1_555
O117 S30 1.471856 1_555
O117 Zn10 2.145328 1_555
O118 S32 1.483492 1_555
O118 Zn9 2.216410 1_555
O119 S31 1.487064 1_655
O119 Zn10 2.068382 1_555
O120 S19 1.499977 1_555
O120 Zn11 2.265397 1_555
O121 S20 1.487907 1_555
O121 Zn12 2.139089 1_555
O122 S16 1.483880 1_455
O122 Zn11 2.110104 1_555
O123 S15 1.482202 1_555
O123 Zn12 2.147566 1_555
O124 S17 1.509204 1_565
O124 Zn11 2.209246 1_555
O125 S18 1.477764 1_565
O125 Zn12 2.200246 1_555
O126 S11 1.490732 1_565
O126 Zn13 2.230922 1_555
O127 S12 1.495148 1_565
O127 Zn14 2.184100 1_555
O128 S13 1.491033 1_555
O128 Zn13 2.258843 1_555
O129 S14 1.498467 1_555
O129 Zn14 2.165946 1_555
O130 S10 1.470174 1_455
O130 Zn13 2.085444 1_555
O131 S9 1.470936 1_555
O131 Zn14 2.071367 1_555
O132 S0 1.498948 1_565
O132 Zn15 2.211022 1_555
O133 S1 1.512005 1_555
O133 Sn5 2.088607 1_555
O134 S2 1.491737 1_555
O134 Zn15 2.115719 1_555
O135 Si0 1.677786 1_555
O135 Sn5 1.978802 1_555
O136 S3 1.496958 1_555
O136 Zn15 2.175344 1_555
O137 S4 1.537307 1_555
O137 Sn5 2.151965 1_555
O138 S5 1.452155 1_555
O138 Zn16 2.195093 1_555
O139 S6 1.450469 1_555
O139 Zn17 2.204933 1_555
O140 S7 1.452188 1_555
O140 Zn16 2.194481 1_555
O141 S8 1.449776 1_555
O141 Zn17 2.211760 1_555
O142 Si1 1.605292 1_555
O142 Zn16 1.923439 1_555
O143 Si2 1.602952 1_555
O143 Zn17 1.924642 1_555
