# generated using pymatgen
data_Na2CaTa(PO4)3
_symmetry_space_group_name_H-M   'P 1'
_cell_length_a   9.12216040
_cell_length_b   9.09359468
_cell_length_c   22.63442940
_cell_angle_alpha   90.00000000
_cell_angle_beta   90.06592905
_cell_angle_gamma   119.89646827
_symmetry_Int_Tables_number   1
_chemical_formula_structural   Na2CaTa(PO4)3
_chemical_formula_sum   'Na12 Ca6 Ta6 P18 O72'
_cell_volume   1627.74073471
_cell_formula_units_Z   6
loop_
 _symmetry_equiv_pos_site_id
 _symmetry_equiv_pos_as_xyz
  1  'x, y, z'
loop_
 _atom_site_type_symbol
 _atom_site_label
 _atom_site_symmetry_multiplicity
 _atom_site_fract_x
 _atom_site_fract_y
 _atom_site_fract_z
 _atom_site_occupancy
  Na  Na0  1  0.97997768  0.64036164  0.24562323  1
  Na  Na1  1  0.97997768  0.33961603  0.74562323  1
  Na  Na2  1  0.64664468  0.97369464  0.57895623  1
  Na  Na3  1  0.64664468  0.67294903  0.07895623  1
  Na  Na4  1  0.31331068  0.30702864  0.91229023  1
  Na  Na5  1  0.31331068  0.00628303  0.41229023  1
  Na  Na6  1  0.99457647  0.00159272  0.49145109  1
  Na  Na7  1  0.99457647  0.99298375  0.99145109  1
  Na  Na8  1  0.66124347  0.33492572  0.82478409  1
  Na  Na9  1  0.66124347  0.32631675  0.32478409  1
  Na  Na10  1  0.32790947  0.66825972  0.15811809  1
  Na  Na11  1  0.32790947  0.65965075  0.65811809  1
  Ca  Ca0  1  0.99169862  0.00554701  0.35320116  1
  Ca  Ca1  1  0.99169862  0.98615161  0.85320116  1
  Ca  Ca2  1  0.65836562  0.33888001  0.68653416  1
  Ca  Ca3  1  0.65836562  0.31948461  0.18653416  1
  Ca  Ca4  1  0.32503162  0.67221401  0.01986816  1
  Ca  Ca5  1  0.32503162  0.65281861  0.51986816  1
  Ta  Ta0  1  0.00491704  0.99559445  0.64851475  1
  Ta  Ta1  1  0.00491704  0.00932259  0.14851475  1
  Ta  Ta2  1  0.67158404  0.32892745  0.98184775  1
  Ta  Ta3  1  0.67158404  0.34265559  0.48184775  1
  Ta  Ta4  1  0.33825004  0.66226145  0.31518175  1
  Ta  Ta5  1  0.33825004  0.67598959  0.81518175  1
  P  P0  1  0.28704983  0.98285317  0.25470016  1
  P  P1  1  0.69985507  0.71533206  0.24939668  1
  P  P2  1  0.01925665  0.30907699  0.25118910  1
  P  P3  1  0.28704983  0.30419665  0.75470016  1
  P  P4  1  0.01925665  0.71017966  0.75118910  1
  P  P5  1  0.69985507  0.98452301  0.74939668  1
  P  P6  1  0.95371683  0.31618617  0.58803316  1
  P  P7  1  0.36652207  0.04866506  0.58272968  1
  P  P8  1  0.68592365  0.64240999  0.58452210  1
  P  P9  1  0.95371683  0.63752965  0.08803316  1
  P  P10  1  0.68592365  0.04351266  0.08452210  1
  P  P11  1  0.36652207  0.31785601  0.08272968  1
  P  P12  1  0.62038283  0.64952017  0.92136716  1
  P  P13  1  0.03318807  0.38199906  0.91606368  1
  P  P14  1  0.35258965  0.97574399  0.91785610  1
  P  P15  1  0.62038283  0.97086365  0.42136716  1
  P  P16  1  0.35258965  0.37684666  0.41785610  1
  P  P17  1  0.03318807  0.65119001  0.41606368  1
  O  O0  1  0.21024699  0.99451333  0.31183803  1
  O  O1  1  0.81012966  0.79405031  0.30219851  1
  O  O2  1  0.99325241  0.21022536  0.30608947  1
  O  O3  1  0.21024699  0.21573365  0.81183803  1
  O  O4  1  0.99325241  0.78302705  0.80608947  1
  O  O5  1  0.81012966  0.01607934  0.80219851  1
  O  O6  1  0.79524706  0.96172808  0.69245140  1
  O  O7  1  0.16012397  0.19226419  0.70071265  1
  O  O8  1  0.03141093  0.82797635  0.69531646  1
  O  O9  1  0.79524706  0.83351898  0.19245140  1
  O  O10  1  0.03141093  0.20343458  0.19531646  1
  O  O11  1  0.16012397  0.96785977  0.20071265  1
  O  O12  1  0.87691399  0.32784633  0.64517103  1
  O  O13  1  0.47679666  0.12738331  0.63553151  1
  O  O14  1  0.65991941  0.54355836  0.63942247  1
  O  O15  1  0.87691399  0.54906665  0.14517103  1
  O  O16  1  0.65991941  0.11636005  0.13942247  1
  O  O17  1  0.47679666  0.34941234  0.13553151  1
  O  O18  1  0.46191406  0.29506108  0.02578440  1
  O  O19  1  0.82679097  0.52559719  0.03404565  1
  O  O20  1  0.69807793  0.16130935  0.02864946  1
  O  O21  1  0.46191406  0.16685198  0.52578440  1
  O  O22  1  0.69807793  0.53676758  0.52864946  1
  O  O23  1  0.82679097  0.30119277  0.53404565  1
  O  O24  1  0.54357999  0.66118033  0.97850503  1
  O  O25  1  0.14346266  0.46071731  0.96886551  1
  O  O26  1  0.32658541  0.87689236  0.97275647  1
  O  O27  1  0.54357999  0.88240065  0.47850503  1
  O  O28  1  0.32658541  0.44969405  0.47275647  1
  O  O29  1  0.14346266  0.68274634  0.46886551  1
  O  O30  1  0.12858006  0.62839508  0.35911840  1
  O  O31  1  0.49345697  0.85893119  0.36737965  1
  O  O32  1  0.36474393  0.49464335  0.36198346  1
  O  O33  1  0.12858006  0.50018598  0.85911840  1
  O  O34  1  0.36474393  0.87010158  0.86198346  1
  O  O35  1  0.49345697  0.63452677  0.86737965  1
  O  O36  1  0.00258120  0.79934121  0.40812825  1
  O  O37  1  0.79916085  0.00710869  0.41373565  1
  O  O38  1  0.21695563  0.19273017  0.40946501  1
  O  O39  1  0.00258120  0.20323999  0.90812825  1
  O  O40  1  0.21695563  0.02422546  0.90946501  1
  O  O41  1  0.79916085  0.79205216  0.91373565  1
  O  O42  1  0.94920510  0.13798531  0.58763768  1
  O  O43  1  0.19165899  0.04500590  0.59072454  1
  O  O44  1  0.86269585  0.81476935  0.58762617  1
  O  O45  1  0.94920510  0.81121978  0.08763768  1
  O  O46  1  0.86269585  0.04792651  0.08762617  1
  O  O47  1  0.19165899  0.14665309  0.09072454  1
  O  O48  1  0.66924820  0.13267421  0.74146125  1
  O  O49  1  0.46582785  0.34044169  0.74706865  1
  O  O50  1  0.88362263  0.52606317  0.74279801  1
  O  O51  1  0.66924820  0.53657299  0.24146125  1
  O  O52  1  0.88362263  0.35755846  0.24279801  1
  O  O53  1  0.46582785  0.12538516  0.24706865  1
  O  O54  1  0.61587210  0.47131831  0.92097068  1
  O  O55  1  0.85832599  0.37833890  0.92405754  1
  O  O56  1  0.52936285  0.14810235  0.92095917  1
  O  O57  1  0.61587210  0.14455278  0.42097068  1
  O  O58  1  0.52936285  0.38125951  0.42095917  1
  O  O59  1  0.85832599  0.47998609  0.42405754  1
  O  O60  1  0.33591420  0.46600821  0.07479525  1
  O  O61  1  0.13249385  0.67377569  0.08040265  1
  O  O62  1  0.55028863  0.85939717  0.07613201  1
  O  O63  1  0.33591420  0.86990699  0.57479525  1
  O  O64  1  0.55028863  0.69089246  0.57613201  1
  O  O65  1  0.13249385  0.45871916  0.58040265  1
  O  O66  1  0.28253810  0.80465231  0.25430468  1
  O  O67  1  0.52499199  0.71167290  0.25739154  1
  O  O68  1  0.19602885  0.48143635  0.25429317  1
  O  O69  1  0.28253810  0.47788678  0.75430468  1
  O  O70  1  0.19602885  0.71459351  0.75429317  1
  O  O71  1  0.52499199  0.81332009  0.75739154  1
loop_
_geom_bond_atom_site_label_1
_geom_bond_atom_site_label_2
_geom_bond_distance
_geom_bond_site_symmetry_2
Na0 O52 2.266454 1_555
Na0 O66 2.403433 1_655
Na0 O15 2.441260 1_555
Na0 O51 2.503335 1_555
Na0 O11 2.779974 1_655
Na0 O1 2.856011 1_555
Na0 O30 2.930478 1_655
Na1 O50 2.266445 1_555
Na1 O69 2.403432 1_655
Na1 O12 2.441259 1_555
Na1 O48 2.503337 1_555
Na1 O7 2.779974 1_655
Na1 O5 2.856011 1_555
Na1 O33 2.930480 1_655
Na2 O64 2.266443 1_555
Na2 O42 2.403433 1_565
Na2 O27 2.441240 1_555
Na2 O63 2.503345 1_555
Na2 O23 2.779974 1_565
Na2 O13 2.856011 1_565
Na2 O6 2.930478 1_555
Na3 O62 2.266460 1_555
Na3 O45 2.403432 1_555
Na3 O24 2.441243 1_554
Na3 O60 2.503341 1_555
Na3 O19 2.779974 1_555
Na3 O17 2.856011 1_555
Na3 O9 2.930480 1_555
Na4 O40 2.266454 1_555
Na4 O54 2.403438 1_555
Na4 O3 2.441260 1_555
Na4 O39 2.503335 1_555
Na4 O35 2.779974 1_555
Na4 O25 2.856011 1_555
Na4 O18 2.930465 1_556
Na5 O38 2.266445 1_555
Na5 O57 2.403439 1_555
Na5 O0 2.441259 1_545
Na5 O36 2.503337 1_545
Na5 O31 2.779974 1_545
Na5 O29 2.856011 1_545
Na5 O21 2.930460 1_555
Na6 O37 2.521186 1_555
Na6 O42 2.638814 1_555
Na6 O44 2.653468 1_545
Na6 O38 2.659633 1_655
Na6 O36 2.660643 1_645
Na6 O43 2.778522 1_655
Na7 O41 2.521186 1_555
Na7 O45 2.638814 1_556
Na7 O46 2.653468 1_566
Na7 O40 2.659633 1_665
Na7 O39 2.660643 1_665
Na7 O47 2.778522 1_666
Na8 O49 2.521186 1_555
Na8 O54 2.638814 1_555
Na8 O56 2.653468 1_555
Na8 O50 2.659633 1_555
Na8 O48 2.660643 1_555
Na8 O55 2.778522 1_555
Na9 O53 2.521186 1_555
Na9 O57 2.638814 1_555
Na9 O58 2.653468 1_555
Na9 O52 2.659633 1_555
Na9 O51 2.660643 1_555
Na9 O59 2.778522 1_555
Na10 O61 2.521186 1_555
Na10 O66 2.638814 1_555
Na10 O68 2.653468 1_555
Na10 O62 2.659633 1_555
Na10 O60 2.660643 1_555
Na10 O67 2.778522 1_555
Na11 O65 2.521186 1_555
Na11 O69 2.638814 1_555
Na11 O70 2.653468 1_555
Na11 O64 2.659633 1_555
Na11 O63 2.660643 1_555
Na11 O71 2.778522 1_555
Ca0 O2 2.139001 1_555
Ca0 O1 2.143601 1_545
Ca0 O37 2.234447 1_555
Ca0 O0 2.250527 1_645
Ca0 O38 2.291020 1_655
Ca0 O36 2.292812 1_645
Ca1 O4 2.139001 1_555
Ca1 O5 2.143601 1_565
Ca1 O41 2.234447 1_555
Ca1 O3 2.250527 1_665
Ca1 O40 2.291020 1_665
Ca1 O39 2.292812 1_665
Ca2 O14 2.139001 1_555
Ca2 O13 2.143601 1_555
Ca2 O49 2.234447 1_555
Ca2 O12 2.250527 1_555
Ca2 O50 2.291020 1_555
Ca2 O48 2.292812 1_555
Ca3 O16 2.139001 1_555
Ca3 O17 2.143601 1_555
Ca3 O53 2.234447 1_555
Ca3 O15 2.250527 1_555
Ca3 O52 2.291020 1_555
Ca3 O51 2.292812 1_555
Ca4 O26 2.139001 1_554
Ca4 O25 2.143601 1_554
Ca4 O61 2.234447 1_555
Ca4 O24 2.250527 1_554
Ca4 O62 2.291020 1_555
Ca4 O60 2.292812 1_555
Ca5 O28 2.139001 1_555
Ca5 O29 2.143601 1_555
Ca5 O65 2.234447 1_555
Ca5 O27 2.250527 1_555
Ca5 O64 2.291020 1_555
Ca5 O63 2.292812 1_555
O0 P0 1.500272 1_555
O1 P1 1.494020 1_555
O2 P2 1.482087 1_655
O3 P3 1.500272 1_555
O4 P4 1.482087 1_655
O5 P5 1.494020 1_545
O6 P5 1.626008 1_555
O6 Ta0 2.039419 1_655
O7 P3 1.640664 1_555
O7 Ta0 2.017646 1_545
O8 P4 1.625118 1_555
O8 Ta0 1.967377 1_555
O9 P1 1.626008 1_555
O9 Ta1 2.039419 1_665
O10 P2 1.625118 1_555
O10 Ta1 1.967377 1_555
O11 P0 1.640664 1_555
O11 Ta1 2.017646 1_565
O12 P6 1.500272 1_555
O13 P7 1.494020 1_555
O14 P8 1.482087 1_555
O15 P9 1.500272 1_555
O16 P10 1.482087 1_555
O17 P11 1.494020 1_555
O18 P11 1.626008 1_555
O18 Ta2 2.039419 1_554
O19 P9 1.640664 1_555
O19 Ta2 2.017646 1_554
O20 P10 1.625118 1_555
O20 Ta2 1.967377 1_554
O21 P7 1.626008 1_555
O21 Ta3 2.039419 1_555
O22 P8 1.625118 1_555
O22 Ta3 1.967377 1_555
O23 P6 1.640664 1_555
O23 Ta3 2.017646 1_555
O24 P12 1.500272 1_555
O25 P13 1.494020 1_555
O26 P14 1.482087 1_555
O27 P15 1.500272 1_555
O28 P16 1.482087 1_555
O29 P17 1.494020 1_555
O30 P17 1.626008 1_555
O30 Ta4 2.039419 1_555
O31 P15 1.640664 1_555
O31 Ta4 2.017646 1_555
O32 P16 1.625118 1_555
O32 Ta4 1.967377 1_555
O33 P13 1.626008 1_555
O33 Ta5 2.039419 1_555
O34 P14 1.625118 1_555
O34 Ta5 1.967377 1_555
O35 P12 1.640664 1_555
O35 Ta5 2.017646 1_555
O36 P17 1.516604 1_555
O37 P15 1.504303 1_545
O38 P16 1.518071 1_555
O39 P13 1.516613 1_555
O40 P14 1.518064 1_545
O41 P12 1.504300 1_555
O42 P6 1.600395 1_555
O42 Ta0 2.118477 1_645
O43 P7 1.589353 1_555
O43 Ta0 2.014166 1_545
O44 P8 1.594390 1_555
O44 Ta0 2.038544 1_655
O45 P9 1.600404 1_555
O45 Ta1 2.118477 1_665
O46 P10 1.594385 1_555
O46 Ta1 2.038544 1_655
O47 P11 1.589349 1_555
O47 Ta1 2.014166 1_555
O48 P5 1.516604 1_545
O49 P3 1.504303 1_555
O50 P4 1.518071 1_655
O51 P1 1.516613 1_555
O52 P2 1.518064 1_655
O53 P0 1.504300 1_545
O54 P12 1.600409 1_555
O54 Ta2 2.118477 1_555
O55 P13 1.589337 1_655
O55 Ta2 2.014166 1_555
O56 P14 1.594389 1_545
O56 Ta2 2.038544 1_555
O57 P15 1.600390 1_545
O57 Ta3 2.118477 1_555
O58 P16 1.594398 1_555
O58 Ta3 2.038544 1_555
O59 P17 1.589346 1_655
O59 Ta3 2.014166 1_555
O60 P11 1.516616 1_555
O61 P9 1.504288 1_455
O62 P10 1.518064 1_565
O63 P7 1.516598 1_565
O64 P8 1.518077 1_555
O65 P6 1.504294 1_455
O66 P0 1.600395 1_555
O66 Ta4 2.118477 1_555
O67 P1 1.589353 1_555
O67 Ta4 2.014166 1_555
O68 P2 1.594390 1_555
O68 Ta4 2.038544 1_555
O69 P3 1.600404 1_555
O69 Ta5 2.118477 1_555
O70 P4 1.594385 1_555
O70 Ta5 2.038544 1_555
O71 P5 1.589349 1_555
O71 Ta5 2.014166 1_555
