# generated using pymatgen
data_NdCuSb2
_symmetry_space_group_name_H-M   'P 1'
_cell_length_a   4.35169421
_cell_length_b   4.35169421
_cell_length_c   10.19226151
_cell_angle_alpha   90.00000000
_cell_angle_beta   90.00000000
_cell_angle_gamma   90.00000000
_symmetry_Int_Tables_number   1
_chemical_formula_structural   NdCuSb2
_chemical_formula_sum   'Nd2 Cu2 Sb4'
_cell_volume   193.01332781
_cell_formula_units_Z   2
loop_
 _symmetry_equiv_pos_site_id
 _symmetry_equiv_pos_as_xyz
  1  'x, y, z'
loop_
 _atom_site_type_symbol
 _atom_site_label
 _atom_site_symmetry_multiplicity
 _atom_site_fract_x
 _atom_site_fract_y
 _atom_site_fract_z
 _atom_site_occupancy
  Nd  Nd0  1  0.24999900  0.24999900  0.25159226  1
  Nd  Nd1  1  0.74999900  0.74999900  0.74840774  1
  Cu  Cu0  1  0.74999900  0.24999900  0.00000000  1
  Cu  Cu1  1  0.24999900  0.74999900  0.00000000  1
  Sb  Sb0  1  0.24999900  0.24999900  0.85183205  1
  Sb  Sb1  1  0.74999900  0.74999900  0.14816695  1
  Sb  Sb2  1  0.74999900  0.24999900  0.50000100  1
  Sb  Sb3  1  0.24999900  0.74999900  0.50000100  1
loop_
_geom_bond_atom_site_label_1
_geom_bond_atom_site_label_2
_geom_bond_distance
_geom_bond_site_symmetry_2
Nd0 Sb1 3.252665 1_545
Nd0 Sb1 3.252665 1_445
Nd0 Sb1 3.252665 1_455
Nd0 Sb1 3.252665 1_555
Nd0 Sb2 3.338347 1_555
Nd0 Sb3 3.338347 1_545
Nd0 Sb3 3.338347 1_555
Nd0 Sb2 3.338347 1_455
Nd1 Sb0 3.252661 1_555
Nd1 Sb0 3.252661 1_655
Nd1 Sb0 3.252661 1_565
Nd1 Sb0 3.252661 1_665
Nd1 Sb2 3.338331 1_555
Nd1 Sb3 3.338331 1_555
Nd1 Sb2 3.338331 1_565
Nd1 Sb3 3.338331 1_655
Cu0 Sb1 2.648562 1_555
Cu0 Sb1 2.648562 1_545
Cu0 Sb0 2.648568 1_554
Cu0 Sb0 2.648568 1_654
Cu0 Nd1 3.363022 1_554
Cu0 Nd0 3.363022 1_555
Cu0 Nd1 3.363022 1_544
Cu0 Nd0 3.363022 1_655
Cu1 Sb1 2.648562 1_455
Cu1 Sb1 2.648562 1_555
Cu1 Sb0 2.648568 1_554
Cu1 Sb0 2.648568 1_564
Cu1 Nd1 3.363022 1_554
Cu1 Nd0 3.363022 1_555
Cu1 Nd1 3.363022 1_454
Cu1 Nd0 3.363022 1_565
Sb2 Sb3 3.077112 1_545
Sb2 Sb3 3.077112 1_555
Sb2 Sb3 3.077112 1_655
Sb2 Sb3 3.077112 1_645
