# generated using pymatgen
data_Na6Ga8Si3(S3O16)3
_symmetry_space_group_name_H-M   'P 1'
_cell_length_a   17.22980448
_cell_length_b   8.59232871
_cell_length_c   22.18707985
_cell_angle_alpha   90.00817360
_cell_angle_beta   89.43505708
_cell_angle_gamma   119.85206806
_symmetry_Int_Tables_number   1
_chemical_formula_structural   Na6Ga8Si3(S3O16)3
_chemical_formula_sum   'Na18 Ga24 Si9 S27 O144'
_cell_volume   2848.65464006
_cell_formula_units_Z   3
loop_
 _symmetry_equiv_pos_site_id
 _symmetry_equiv_pos_as_xyz
  1  'x, y, z'
loop_
 _atom_site_type_symbol
 _atom_site_label
 _atom_site_symmetry_multiplicity
 _atom_site_fract_x
 _atom_site_fract_y
 _atom_site_fract_z
 _atom_site_occupancy
  Na  Na0  1  0.00377013  0.64224261  0.25274228  1
  Na  Na1  1  0.50212523  0.36517539  0.74632860  1
  Na  Na2  1  0.16312054  0.30162310  0.91316146  1
  Na  Na3  1  0.66301732  0.30128403  0.91342725  1
  Na  Na4  1  0.16417670  0.02673331  0.41673568  1
  Na  Na5  1  0.66267869  0.02260241  0.41628990  1
  Na  Na6  1  0.99661608  0.99324769  0.50042298  1
  Na  Na7  1  0.49584072  0.99982045  0.50191646  1
  Na  Na8  1  0.99714628  0.00094079  0.99829723  1
  Na  Na9  1  0.49631309  0.99956608  0.99901507  1
  Na  Na10  1  0.33262150  0.33289229  0.83085602  1
  Na  Na11  1  0.83800421  0.33469710  0.83067411  1
  Na  Na12  1  0.33877274  0.34239548  0.33369735  1
  Na  Na13  1  0.83153897  0.33079451  0.33446400  1
  Na  Na14  1  0.17137703  0.67455282  0.16803310  1
  Na  Na15  1  0.66460016  0.67195318  0.16963171  1
  Na  Na16  1  0.16692228  0.65944012  0.66827430  1
  Na  Na17  1  0.66602346  0.66066656  0.66453591  1
  Ga  Ga0  1  0.00359160  0.99223843  0.35294931  1
  Ga  Ga1  1  0.50399095  0.99006985  0.35117928  1
  Ga  Ga2  1  0.00404156  0.02086073  0.84805791  1
  Ga  Ga3  1  0.50310877  0.01653805  0.84891137  1
  Ga  Ga4  1  0.00488327  0.00957296  0.65146603  1
  Ga  Ga5  1  0.50383295  0.02312541  0.64721002  1
  Ga  Ga6  1  0.00434826  0.99880465  0.15174643  1
  Ga  Ga7  1  0.50285544  0.99644263  0.15396190  1
  Ga  Ga8  1  0.32978942  0.33566362  0.68246409  1
  Ga  Ga9  1  0.82962455  0.33410283  0.68624887  1
  Ga  Ga10  1  0.33149446  0.32717507  0.18800271  1
  Ga  Ga11  1  0.82386223  0.31682632  0.18613953  1
  Ga  Ga12  1  0.34057361  0.33412253  0.98118943  1
  Ga  Ga13  1  0.84026883  0.33402920  0.98109961  1
  Ga  Ga14  1  0.34935842  0.35150617  0.48431839  1
  Ga  Ga15  1  0.83989644  0.34691937  0.48237373  1
  Ga  Ga16  1  0.16314022  0.65717385  0.01396483  1
  Ga  Ga17  1  0.66174353  0.65592642  0.01499211  1
  Ga  Ga18  1  0.16415203  0.67020583  0.51702105  1
  Ga  Ga19  1  0.65047146  0.65273041  0.51987049  1
  Ga  Ga20  1  0.16495910  0.67733139  0.31641803  1
  Ga  Ga21  1  0.65773988  0.67385960  0.31452872  1
  Ga  Ga22  1  0.15691145  0.64158055  0.81111045  1
  Ga  Ga23  1  0.66230633  0.65252245  0.81295349  1
  Si  Si0  1  0.14882099  0.00526020  0.24970031  1
  Si  Si1  1  0.64653316  0.99918870  0.24962165  1
  Si  Si2  1  0.14941159  0.29242328  0.74830004  1
  Si  Si3  1  0.64991906  0.29209783  0.75027177  1
  Si  Si4  1  0.47745592  0.33031409  0.58619596  1
  Si  Si5  1  0.01854230  0.37425475  0.91733654  1
  Si  Si6  1  0.51838078  0.37377072  0.91656326  1
  Si  Si7  1  0.01835372  0.65979114  0.41723567  1
  Si  Si8  1  0.51716040  0.66265968  0.41683691  1
  S  S0  1  0.35342946  0.70888215  0.24967391  1
  S  S1  1  0.85265727  0.71021138  0.24923327  1
  S  S2  1  0.00022009  0.28647507  0.24976329  1
  S  S3  1  0.50040144  0.28820037  0.24989962  1
  S  S4  1  0.99992062  0.71240815  0.75018732  1
  S  S5  1  0.50039453  0.71851546  0.75034620  1
  S  S6  1  0.35138392  0.99256689  0.75082730  1
  S  S7  1  0.85373139  0.99816009  0.74949866  1
  S  S8  1  0.97770199  0.33138868  0.58433005  1
  S  S9  1  0.18682106  0.04030429  0.58176338  1
  S  S10  1  0.69089078  0.04492809  0.58240375  1
  S  S11  1  0.33142608  0.62749043  0.58273479  1
  S  S12  1  0.83491114  0.62996365  0.58397003  1
  S  S13  1  0.47779850  0.62436838  0.08425996  1
  S  S14  1  0.97806227  0.62442543  0.08460190  1
  S  S15  1  0.33321820  0.03795668  0.08367344  1
  S  S16  1  0.83330174  0.03705725  0.08336382  1
  S  S17  1  0.18897884  0.33524865  0.08274767  1
  S  S18  1  0.68831322  0.33506887  0.08202774  1
  S  S19  1  0.31396216  0.67144068  0.91714417  1
  S  S20  1  0.81400663  0.67182330  0.91740600  1
  S  S21  1  0.16647514  0.95268764  0.91675066  1
  S  S22  1  0.66646063  0.95276064  0.91704451  1
  S  S23  1  0.31409526  0.95719659  0.41661453  1
  S  S24  1  0.81301442  0.95390730  0.41753274  1
  S  S25  1  0.16670274  0.38040751  0.41658955  1
  S  S26  1  0.66683529  0.38139391  0.41594472  1
  O  O0  1  0.10543630  0.04044911  0.31015837  1
  O  O1  1  0.60688181  0.04312266  0.31014534  1
  O  O2  1  0.40802856  0.78877135  0.30358487  1
  O  O3  1  0.91010750  0.78828256  0.30284310  1
  O  O4  1  0.48159129  0.17444503  0.30399555  1
  O  O5  1  0.98172864  0.17448354  0.30398363  1
  O  O6  1  0.11017709  0.17464707  0.81102280  1
  O  O7  1  0.60980586  0.17669048  0.81284694  1
  O  O8  1  0.48435463  0.79529530  0.80611368  1
  O  O9  1  0.98160842  0.78889914  0.80502150  1
  O  O10  1  0.40870834  0.02853547  0.80525190  1
  O  O11  1  0.90762381  0.02778146  0.80459115  1
  O  O12  1  0.38998701  0.95725382  0.69645913  1
  O  O13  1  0.89148904  0.96031548  0.69471981  1
  O  O14  1  0.08368950  0.20619832  0.69093117  1
  O  O15  1  0.58177090  0.20590451  0.69475128  1
  O  O16  1  0.01323383  0.81858860  0.69439540  1
  O  O17  1  0.51266290  0.82368467  0.69499950  1
  O  O18  1  0.39032456  0.82071245  0.19391712  1
  O  O19  1  0.89116518  0.82214195  0.19381197  1
  O  O20  1  0.01306687  0.20683378  0.19354906  1
  O  O21  1  0.51331680  0.20832304  0.19333512  1
  O  O22  1  0.08113689  0.95150937  0.19192450  1
  O  O23  1  0.58554874  0.96140421  0.18959243  1
  O  O24  1  0.43392104  0.36667716  0.64712991  1
  O  O25  1  0.93683307  0.36351900  0.63865793  1
  O  O26  1  0.24087327  0.11983617  0.63586035  1
  O  O27  1  0.74674303  0.12890571  0.63618806  1
  O  O28  1  0.31241266  0.51472073  0.63735789  1
  O  O29  1  0.81902580  0.51566451  0.63807466  1
  O  O30  1  0.43690581  0.51000807  0.13841621  1
  O  O31  1  0.93749770  0.51260600  0.14000722  1
  O  O32  1  0.31713525  0.11958974  0.13773171  1
  O  O33  1  0.81778024  0.11873367  0.13779581  1
  O  O34  1  0.24461665  0.36337878  0.13620133  1
  O  O35  1  0.74495396  0.36611707  0.13562044  1
  O  O36  1  0.22858344  0.30393947  0.02680970  1
  O  O37  1  0.72922162  0.30435076  0.02654165  1
  O  O38  1  0.42274346  0.54444824  0.02967984  1
  O  O39  1  0.92203263  0.54266553  0.03078248  1
  O  O40  1  0.34915176  0.15004609  0.02878274  1
  O  O41  1  0.84935575  0.15015321  0.02887871  1
  O  O42  1  0.22495762  0.14936874  0.52596120  1
  O  O43  1  0.73045679  0.15796995  0.52647135  1
  O  O44  1  0.34532252  0.54671218  0.52750878  1
  O  O45  1  0.85165934  0.54988349  0.52907012  1
  O  O46  1  0.41626095  0.28894946  0.52678741  1
  O  O47  1  0.92292473  0.30111659  0.52958083  1
  O  O48  1  0.27629290  0.70694357  0.97311505  1
  O  O49  1  0.77575768  0.70685592  0.97299100  1
  O  O50  1  0.08405754  0.45266813  0.97638036  1
  O  O51  1  0.58505771  0.45491205  0.97481575  1
  O  O52  1  0.15360093  0.84770017  0.97341109  1
  O  O53  1  0.65391211  0.84745257  0.97330453  1
  O  O54  1  0.27564316  0.84467633  0.47135004  1
  O  O55  1  0.77474296  0.84333465  0.47206020  1
  O  O56  1  0.15255082  0.46036332  0.47192829  1
  O  O57  1  0.65526282  0.46194384  0.47148096  1
  O  O58  1  0.08645295  0.71204096  0.47393985  1
  O  O59  1  0.58700998  0.72209430  0.47311712  1
  O  O60  1  0.05951104  0.62511793  0.35514569  1
  O  O61  1  0.55969347  0.62111767  0.35790751  1
  O  O62  1  0.25707847  0.87672887  0.36233124  1
  O  O63  1  0.75815717  0.87853738  0.36250863  1
  O  O64  1  0.18399873  0.49130117  0.36153549  1
  O  O65  1  0.68557060  0.49195508  0.36097259  1
  O  O66  1  0.06301718  0.50271580  0.85974852  1
  O  O67  1  0.56171273  0.49713729  0.85670781  1
  O  O68  1  0.18513230  0.87804253  0.86288525  1
  O  O69  1  0.68521106  0.87803964  0.86283048  1
  O  O70  1  0.25722413  0.63657705  0.86389113  1
  O  O71  1  0.75687013  0.63576396  0.86387006  1
  O  O72  1  0.01094063  0.84385746  0.41199229  1
  O  O73  1  0.51009198  0.84658173  0.41160667  1
  O  O74  1  0.40399383  0.98135161  0.40808422  1
  O  O75  1  0.90472637  0.98185755  0.40887958  1
  O  O76  1  0.08340743  0.20117155  0.41179698  1
  O  O77  1  0.58451952  0.20157016  0.41123307  1
  O  O78  1  0.01008895  0.17465733  0.91167316  1
  O  O79  1  0.51023781  0.17459371  0.91163211  1
  O  O80  1  0.08422061  0.96753096  0.91282196  1
  O  O81  1  0.58436139  0.96710191  0.91294127  1
  O  O82  1  0.40456999  0.82601645  0.90994663  1
  O  O83  1  0.90429818  0.82622273  0.90956780  1
  O  O84  1  0.48591696  0.14893437  0.58819844  1
  O  O85  1  0.98492561  0.16620810  0.58899684  1
  O  O86  1  0.09502329  0.01735967  0.58784605  1
  O  O87  1  0.60030327  0.02177313  0.58845852  1
  O  O88  1  0.41343899  0.80259891  0.59009468  1
  O  O89  1  0.91732872  0.80890402  0.59086155  1
  O  O90  1  0.48518175  0.80402357  0.08899461  1
  O  O91  1  0.98511356  0.80434963  0.08893284  1
  O  O92  1  0.41475026  0.02112528  0.09030355  1
  O  O93  1  0.91502986  0.02106987  0.09019417  1
  O  O94  1  0.09777453  0.17354891  0.08844393  1
  O  O95  1  0.59809704  0.17462200  0.08788136  1
  O  O96  1  0.34677517  0.16004912  0.74540625  1
  O  O97  1  0.84848477  0.16427435  0.74223683  1
  O  O98  1  0.24804478  0.31026906  0.74112316  1
  O  O99  1  0.74857977  0.31235951  0.74392587  1
  O  O100  1  0.42221515  0.53369798  0.74707902  1
  O  O101  1  0.92153770  0.52934832  0.74363459  1
  O  O102  1  0.34825442  0.53220977  0.24180247  1
  O  O103  1  0.85036041  0.53415447  0.24152437  1
  O  O104  1  0.42120557  0.31304482  0.24290995  1
  O  O105  1  0.92230889  0.31725382  0.24285430  1
  O  O106  1  0.24665811  0.18293101  0.24266149  1
  O  O107  1  0.74576483  0.18108708  0.24398272  1
  O  O108  1  0.31712613  0.50095128  0.92529281  1
  O  O109  1  0.81702472  0.50128802  0.92522330  1
  O  O110  1  0.42010320  0.35579203  0.92329921  1
  O  O111  1  0.91975248  0.35510371  0.92376065  1
  O  O112  1  0.24443413  0.13963751  0.92417546  1
  O  O113  1  0.74451132  0.13920196  0.92396095  1
  O  O114  1  0.31594487  0.13147948  0.42232113  1
  O  O115  1  0.81792388  0.13297531  0.42420906  1
  O  O116  1  0.24346001  0.34917520  0.42302393  1
  O  O117  1  0.74465077  0.34866180  0.42249572  1
  O  O118  1  0.41754808  0.48814657  0.42119139  1
  O  O119  1  0.91969278  0.48311339  0.42343376  1
  O  O120  1  0.18137659  0.50048818  0.07803581  1
  O  O121  1  0.68185985  0.50147498  0.07753818  1
  O  O122  1  0.06866574  0.64443632  0.07846860  1
  O  O123  1  0.56871000  0.64421669  0.07802968  1
  O  O124  1  0.25165597  0.85832832  0.07653786  1
  O  O125  1  0.75192364  0.85813414  0.07644607  1
  O  O126  1  0.17968988  0.85938194  0.57753596  1
  O  O127  1  0.68651696  0.86907252  0.57718694  1
  O  O128  1  0.24984581  0.64649651  0.57559501  1
  O  O129  1  0.75539682  0.64885318  0.57649730  1
  O  O130  1  0.06827694  0.49258264  0.57807993  1
  O  O131  1  0.57763500  0.50837183  0.58076714  1
  O  O132  1  0.15611857  0.82118965  0.25483711  1
  O  O133  1  0.66015128  0.82480380  0.25415520  1
  O  O134  1  0.26254756  0.68451427  0.25696357  1
  O  O135  1  0.76269655  0.68374672  0.25713713  1
  O  O136  1  0.08239859  0.46511509  0.25408106  1
  O  O137  1  0.58333587  0.46371099  0.25437974  1
  O  O138  1  0.15979396  0.49177781  0.75389114  1
  O  O139  1  0.65671329  0.49054566  0.75509189  1
  O  O140  1  0.08345870  0.70348205  0.75518531  1
  O  O141  1  0.58314833  0.70275927  0.75497887  1
  O  O142  1  0.26133247  0.83669894  0.75937801  1
  O  O143  1  0.76308240  0.84064229  0.75781332  1
loop_
_geom_bond_atom_site_label_1
_geom_bond_atom_site_label_2
_geom_bond_distance
_geom_bond_site_symmetry_2
Na0 O132 2.289321 1_555
Na0 O103 2.340973 1_455
Na0 O105 2.433062 1_455
Na0 O136 2.491177 1_555
Na0 O60 2.507981 1_555
Na0 O22 2.664252 1_555
Na0 O3 2.719322 1_455
Na0 O31 2.755033 1_455
Na1 O139 2.333741 1_555
Na1 O96 2.361331 1_555
Na1 O100 2.444778 1_555
Na1 O24 2.508252 1_555
Na1 O141 2.524535 1_555
Na1 O15 2.627481 1_555
Na1 O67 2.688338 1_555
Na1 O10 2.826874 1_555
Na2 O78 2.298162 1_555
Na2 O108 2.352963 1_555
Na2 O112 2.430611 1_555
Na2 O80 2.490755 1_545
Na2 O6 2.491425 1_555
Na2 O50 2.688737 1_555
Na2 O70 2.725327 1_555
Na2 O36 2.768462 1_556
Na3 O79 2.294617 1_555
Na3 O109 2.353040 1_555
Na3 O113 2.432896 1_555
Na3 O7 2.455434 1_555
Na3 O81 2.491586 1_545
Na3 O51 2.670284 1_555
Na3 O71 2.724477 1_555
Na3 O37 2.761677 1_556
Na4 O72 2.307875 1_545
Na4 O114 2.307961 1_555
Na4 O116 2.407755 1_555
Na4 O76 2.504937 1_555
Na4 O0 2.606864 1_555
Na4 O42 2.651537 1_555
Na4 O58 2.660480 1_545
Na4 O62 2.774122 1_545
Na5 O73 2.292812 1_545
Na5 O115 2.359853 1_555
Na5 O117 2.434602 1_555
Na5 O77 2.501074 1_555
Na5 O59 2.563928 1_545
Na5 O1 2.591338 1_555
Na5 O43 2.719554 1_555
Na5 O63 2.765957 1_545
Na6 O72 2.421406 1_655
Na6 O89 2.488801 1_555
Na6 O86 2.528852 1_665
Na6 O85 2.529925 1_565
Na6 O75 2.559418 1_555
Na6 O76 2.564739 1_665
Na7 O84 2.355091 1_565
Na7 O73 2.473902 1_555
Na7 O88 2.503190 1_555
Na7 O74 2.584285 1_555
Na7 O77 2.586751 1_565
Na7 O87 2.586894 1_565
Na8 O78 2.373290 1_655
Na8 O80 2.510424 1_645
Na8 O83 2.521685 1_545
Na8 O93 2.524985 1_556
Na8 O91 2.565987 1_546
Na8 O94 2.591077 1_656
Na9 O79 2.389678 1_565
Na9 O92 2.512864 1_566
Na9 O82 2.518277 1_555
Na9 O81 2.527907 1_555
Na9 O90 2.553017 1_556
Na9 O95 2.582016 1_566
Na10 O98 2.429025 1_555
Na10 O100 2.471383 1_555
Na10 O96 2.491999 1_555
Na10 O110 2.506597 1_555
Na10 O112 2.603863 1_555
Na10 O108 2.630315 1_555
Na11 O99 2.424707 1_555
Na11 O111 2.468112 1_555
Na11 O101 2.479480 1_555
Na11 O97 2.506470 1_555
Na11 O113 2.634745 1_555
Na11 O109 2.660734 1_555
Na12 O118 2.353310 1_555
Na12 O106 2.524583 1_555
Na12 O104 2.537383 1_555
Na12 O102 2.563754 1_555
Na12 O114 2.565442 1_555
Na12 O116 2.580545 1_555
Na13 O119 2.448649 1_555
Na13 O107 2.456445 1_555
Na13 O117 2.500139 1_555
Na13 O115 2.550238 1_555
Na13 O105 2.590198 1_555
Na13 O103 2.614224 1_555
Na14 O132 2.384297 1_555
Na14 O134 2.509038 1_555
Na14 O124 2.509735 1_555
Na14 O136 2.535814 1_555
Na14 O120 2.550015 1_555
Na14 O122 2.600183 1_555
Na15 O133 2.311772 1_555
Na15 O137 2.480431 1_555
Na15 O135 2.555487 1_555
Na15 O123 2.567319 1_555
Na15 O125 2.577005 1_555
Na15 O121 2.613413 1_555
Na16 O138 2.349236 1_555
Na16 O128 2.526302 1_555
Na16 O140 2.533069 1_555
Na16 O130 2.566953 1_555
Na16 O142 2.578578 1_555
Na16 O126 2.582416 1_555
Na17 O131 2.357363 1_555
Na17 O139 2.441358 1_555
Na17 O129 2.508634 1_555
Na17 O127 2.538741 1_555
Na17 O141 2.579515 1_555
Na17 O143 2.638917 1_555
Ga0 O0 1.842765 1_565
Ga0 O72 1.876709 1_555
Ga0 O3 2.031276 1_455
Ga0 O75 2.063157 1_455
Ga0 O5 2.090463 1_465
Ga0 O76 2.096604 1_565
Ga1 O1 1.828452 1_565
Ga1 O73 1.860337 1_555
Ga1 O2 2.006837 1_555
Ga1 O4 2.090869 1_565
Ga1 O74 2.096852 1_555
Ga1 O77 2.128043 1_565
Ga2 O6 1.824953 1_555
Ga2 O78 1.901207 1_555
Ga2 O11 1.955336 1_455
Ga2 O9 2.067212 1_445
Ga2 O83 2.169326 1_445
Ga2 O80 2.202887 1_545
Ga3 O7 1.834761 1_555
Ga3 O79 1.905969 1_555
Ga3 O10 1.947430 1_555
Ga3 O8 2.003460 1_545
Ga3 O82 2.141171 1_545
Ga3 O81 2.188594 1_545
Ga4 O14 1.789966 1_555
Ga4 O16 1.964432 1_545
Ga4 O13 2.014255 1_445
Ga4 O86 2.064553 1_555
Ga4 O85 2.078764 1_455
Ga4 O89 2.122875 1_445
Ga5 O15 1.819417 1_555
Ga5 O84 1.821718 1_555
Ga5 O12 2.052959 1_545
Ga5 O17 2.085013 1_545
Ga5 O87 2.106798 1_555
Ga5 O88 2.173077 1_545
Ga6 O22 1.808004 1_555
Ga6 O20 1.952624 1_565
Ga6 O19 1.998946 1_455
Ga6 O91 2.073869 1_455
Ga6 O94 2.089998 1_565
Ga6 O93 2.145830 1_465
Ga7 O23 1.787434 1_555
Ga7 O21 1.945761 1_565
Ga7 O18 1.969020 1_555
Ga7 O90 2.100172 1_555
Ga7 O95 2.153698 1_565
Ga7 O92 2.169593 1_565
Ga8 O98 1.839333 1_555
Ga8 O24 1.844180 1_555
Ga8 O28 1.980692 1_555
Ga8 O26 2.014345 1_555
Ga8 O96 2.181984 1_555
Ga8 O100 2.198484 1_555
Ga9 O99 1.824145 1_555
Ga9 O29 1.974191 1_555
Ga9 O27 1.976291 1_555
Ga9 O25 2.021811 1_555
Ga9 O97 2.063626 1_555
Ga9 O101 2.082717 1_555
Ga10 O106 1.818057 1_555
Ga10 O32 2.013006 1_555
Ga10 O30 2.024256 1_555
Ga10 O102 2.027715 1_555
Ga10 O104 2.027815 1_555
Ga10 O34 2.038619 1_555
Ga11 O107 1.794988 1_555
Ga11 O33 1.970447 1_555
Ga11 O35 1.971696 1_555
Ga11 O103 2.089772 1_555
Ga11 O31 2.095944 1_555
Ga11 O105 2.120485 1_555
Ga12 O110 1.809260 1_555
Ga12 O40 1.968442 1_556
Ga12 O38 1.977417 1_556
Ga12 O36 2.068425 1_556
Ga12 O108 2.083972 1_555
Ga12 O112 2.102751 1_555
Ga13 O111 1.801547 1_555
Ga13 O41 1.973434 1_556
Ga13 O39 1.982250 1_556
Ga13 O37 2.053936 1_556
Ga13 O109 2.084705 1_555
Ga13 O113 2.103018 1_555
Ga14 O46 1.773110 1_555
Ga14 O118 1.820791 1_555
Ga14 O44 1.962321 1_555
Ga14 O42 2.172497 1_555
Ga14 O114 2.174635 1_555
Ga14 O116 2.278507 1_555
Ga15 O119 1.825670 1_555
Ga15 O45 1.951296 1_555
Ga15 O47 1.971942 1_555
Ga15 O43 2.016203 1_555
Ga15 O115 2.122292 1_555
Ga15 O117 2.127377 1_555
Ga16 O50 1.810548 1_554
Ga16 O52 1.946222 1_554
Ga16 O48 1.985077 1_554
Ga16 O120 2.088663 1_555
Ga16 O122 2.118154 1_555
Ga16 O124 2.158142 1_555
Ga17 O51 1.809540 1_554
Ga17 O53 1.950855 1_554
Ga17 O49 2.006776 1_554
Ga17 O121 2.067606 1_555
Ga17 O123 2.081101 1_555
Ga17 O125 2.155366 1_555
Ga18 O58 1.827425 1_555
Ga18 O56 1.984058 1_555
Ga18 O54 2.014804 1_555
Ga18 O126 2.022316 1_555
Ga18 O128 2.061017 1_555
Ga18 O130 2.083254 1_555
Ga19 O59 1.816079 1_555
Ga19 O131 1.832038 1_555
Ga19 O57 1.994809 1_555
Ga19 O127 2.079407 1_555
Ga19 O55 2.203805 1_555
Ga19 O129 2.225459 1_555
Ga20 O60 1.843476 1_555
Ga20 O132 1.899971 1_555
Ga20 O62 1.953585 1_555
Ga20 O64 2.047829 1_555
Ga20 O134 2.103348 1_555
Ga20 O136 2.171903 1_555
Ga21 O61 1.786451 1_555
Ga21 O133 1.850374 1_555
Ga21 O63 2.055779 1_555
Ga21 O137 2.100820 1_555
Ga21 O65 2.119202 1_555
Ga21 O135 2.168080 1_555
Ga22 O66 1.802691 1_555
Ga22 O138 1.825615 1_555
Ga22 O140 2.031127 1_555
Ga22 O142 2.078968 1_555
Ga22 O70 2.115268 1_555
Ga22 O68 2.170462 1_555
Ga23 O67 1.841868 1_555
Ga23 O139 1.860854 1_555
Ga23 O71 2.054631 1_555
Ga23 O143 2.070978 1_555
Ga23 O141 2.078908 1_555
Ga23 O69 2.093281 1_555
O0 Si0 1.629301 1_555
O1 Si1 1.628184 1_545
O2 S0 1.471728 1_555
O3 S1 1.485443 1_555
O4 S3 1.475890 1_555
O5 S2 1.470448 1_655
O6 Si2 1.648797 1_555
O7 Si3 1.639426 1_555
O8 S5 1.488989 1_555
O9 S4 1.486705 1_555
O10 S6 1.499561 1_545
O11 S7 1.485978 1_545
O12 S6 1.474628 1_555
O13 S7 1.483580 1_555
O14 Si2 1.626123 1_555
O15 Si3 1.614672 1_555
O16 S4 1.484472 1_455
O17 S5 1.474530 1_555
O18 S0 1.494827 1_555
O19 S1 1.492036 1_555
O20 S2 1.489279 1_555
O21 S3 1.497295 1_555
O22 Si0 1.646092 1_565
O23 Si1 1.634390 1_555
O24 Si4 1.643540 1_555
O25 S8 1.483811 1_555
O26 S9 1.470771 1_555
O27 S10 1.483865 1_555
O28 S11 1.480358 1_555
O29 S12 1.485497 1_555
O30 S13 1.483290 1_555
O31 S14 1.495869 1_555
O32 S15 1.481225 1_555
O33 S16 1.484173 1_555
O34 S17 1.474995 1_555
O35 S18 1.483595 1_555
O36 S17 1.498098 1_555
O37 S18 1.500004 1_555
O38 S13 1.487201 1_555
O39 S14 1.482795 1_555
O40 S15 1.488845 1_555
O41 S16 1.486045 1_555
O42 S9 1.487981 1_555
O43 S10 1.507530 1_555
O44 S11 1.483188 1_555
O45 S12 1.493622 1_555
O46 Si4 1.621614 1_555
O47 S8 1.487313 1_555
O48 S19 1.495843 1_555
O49 S20 1.492388 1_555
O50 Si5 1.648048 1_555
O51 Si6 1.645592 1_555
O52 S21 1.496315 1_555
O53 S22 1.491255 1_555
O54 S23 1.481648 1_555
O55 S24 1.470376 1_555
O56 S25 1.483092 1_555
O57 S26 1.472873 1_555
O58 Si7 1.632675 1_555
O59 Si8 1.638912 1_555
O60 Si7 1.637173 1_555
O61 Si8 1.617195 1_555
O62 S23 1.496858 1_555
O63 S24 1.488736 1_555
O64 S25 1.482974 1_555
O65 S26 1.477004 1_555
O66 Si5 1.605347 1_555
O67 Si6 1.624083 1_555
O68 S21 1.463031 1_555
O69 S22 1.470383 1_555
O70 S19 1.473961 1_555
O71 S20 1.481664 1_555
O72 Si7 1.653065 1_555
O73 Si8 1.648526 1_555
O74 S23 1.467067 1_555
O75 S24 1.485846 1_555
O76 S25 1.498463 1_555
O77 S26 1.493685 1_555
O78 Si5 1.652234 1_555
O79 Si6 1.649769 1_555
O80 S21 1.488216 1_555
O81 S22 1.483410 1_555
O82 S19 1.468905 1_555
O83 S20 1.466477 1_555
O84 Si4 1.636581 1_555
O85 S8 1.488871 1_555
O86 S9 1.498030 1_555
O87 S10 1.476643 1_555
O88 S11 1.474829 1_555
O89 S12 1.494823 1_555
O90 S13 1.488226 1_555
O91 S14 1.492386 1_555
O92 S15 1.490737 1_555
O93 S16 1.490482 1_555
O94 S17 1.496106 1_555
O95 S18 1.482011 1_555
O96 S6 1.485150 1_545
O97 S7 1.483287 1_545
O98 Si2 1.634681 1_555
O99 Si3 1.624954 1_555
O100 S5 1.487910 1_555
O101 S4 1.485987 1_555
O102 S0 1.486048 1_555
O103 S1 1.503217 1_555
O104 S3 1.491887 1_555
O105 S2 1.500984 1_655
O106 Si0 1.621579 1_555
O107 Si1 1.648397 1_545
O108 S19 1.503783 1_555
O109 S20 1.501993 1_555
O110 Si6 1.627293 1_555
O111 Si5 1.631265 1_655
O112 S21 1.505978 1_545
O113 S22 1.502546 1_545
O114 S23 1.487298 1_545
O115 S24 1.505668 1_545
O116 S25 1.482730 1_555
O117 S26 1.508996 1_555
O118 Si8 1.624249 1_555
O119 Si7 1.624672 1_655
O120 S17 1.493100 1_555
O121 S18 1.491707 1_555
O122 S14 1.487837 1_455
O123 S13 1.493840 1_555
O124 S15 1.492362 1_565
O125 S16 1.487029 1_565
O126 S9 1.500179 1_565
O127 S10 1.479522 1_565
O128 S11 1.503471 1_555
O129 S12 1.468546 1_555
O130 S8 1.488951 1_455
O131 Si4 1.643627 1_555
O132 Si0 1.651832 1_565
O133 Si1 1.631196 1_555
O134 S0 1.480065 1_555
O135 S1 1.459022 1_555
O136 S2 1.486285 1_555
O137 S3 1.477651 1_555
O138 Si2 1.636097 1_555
O139 Si3 1.653507 1_555
O140 S4 1.484231 1_455
O141 S5 1.502316 1_555
O142 S6 1.470578 1_555
O143 S7 1.481627 1_555
