# generated using pymatgen
data_U2S3
_symmetry_space_group_name_H-M   'P 1'
_cell_length_a   3.90069997
_cell_length_b   10.68895098
_cell_length_c   10.81956362
_cell_angle_alpha   90.00000000
_cell_angle_beta   90.00000000
_cell_angle_gamma   90.00000000
_symmetry_Int_Tables_number   1
_chemical_formula_structural   U2S3
_chemical_formula_sum   'U8 S12'
_cell_volume   451.11511350
_cell_formula_units_Z   4
loop_
 _symmetry_equiv_pos_site_id
 _symmetry_equiv_pos_as_xyz
  1  'x, y, z'
loop_
 _atom_site_type_symbol
 _atom_site_label
 _atom_site_symmetry_multiplicity
 _atom_site_fract_x
 _atom_site_fract_y
 _atom_site_fract_z
 _atom_site_occupancy
  U  U0  1  0.25000000  0.31417129  0.98888476  1
  U  U1  1  0.75000000  0.68582871  0.01111524  1
  U  U2  1  0.75000000  0.81417129  0.51111524  1
  U  U3  1  0.25000000  0.18582871  0.48888476  1
  U  U4  1  0.25000000  0.51009999  0.30736977  1
  U  U5  1  0.75000000  0.48990001  0.69263023  1
  U  U6  1  0.75000000  0.01009999  0.19263023  1
  U  U7  1  0.25000000  0.98990001  0.80736977  1
  S  S0  1  0.25000000  0.87194499  0.04983646  1
  S  S1  1  0.75000000  0.12805501  0.95016354  1
  S  S2  1  0.75000000  0.37194499  0.45016354  1
  S  S3  1  0.25000000  0.62805501  0.54983646  1
  S  S4  1  0.25000000  0.55312276  0.87784346  1
  S  S5  1  0.75000000  0.44687724  0.12215654  1
  S  S6  1  0.75000000  0.05312276  0.62215654  1
  S  S7  1  0.25000000  0.94687724  0.37784346  1
  S  S8  1  0.25000000  0.20318663  0.22516994  1
  S  S9  1  0.75000000  0.79681337  0.77483006  1
  S  S10  1  0.75000000  0.70318663  0.27483006  1
  S  S11  1  0.25000000  0.29681337  0.72516994  1
loop_
_geom_bond_atom_site_label_1
_geom_bond_atom_site_label_2
_geom_bond_distance
_geom_bond_site_symmetry_2
S0 U1 2.817276 1_555
S0 U1 2.817276 1_455
S0 U6 2.893358 1_565
S0 U6 2.893358 1_465
S0 U7 2.910635 1_554
S1 U0 2.817276 1_655
S1 U0 2.817276 1_555
S1 U7 2.893358 1_645
S1 U7 2.893358 1_545
S1 U6 2.910635 1_556
S2 U3 2.817276 1_555
S2 U3 2.817276 1_655
S2 U4 2.893358 1_555
S2 U4 2.893358 1_655
S2 U5 2.910635 1_555
S3 U2 2.817276 1_555
S3 U2 2.817276 1_455
S3 U5 2.893358 1_455
S3 U5 2.893358 1_555
S3 U4 2.910635 1_555
S4 U1 2.809834 1_456
S4 U1 2.809834 1_556
S4 U0 2.822595 1_555
S4 U5 2.876851 1_455
S4 U5 2.876851 1_555
S5 U0 2.809834 1_654
S5 U0 2.809834 1_554
S5 U1 2.822595 1_555
S5 U4 2.876851 1_555
S5 U4 2.876851 1_655
S6 U3 2.809834 1_555
S6 U3 2.809834 1_655
S6 U2 2.822595 1_545
S6 U7 2.876851 1_545
S6 U7 2.876851 1_645
S7 U2 2.809834 1_555
S7 U2 2.809834 1_455
S7 U3 2.822595 1_565
S7 U6 2.876851 1_565
S7 U6 2.876851 1_465
S8 U0 2.818339 1_554
S8 U3 2.859305 1_555
S8 U6 2.861376 1_555
S8 U6 2.861376 1_455
S8 U4 3.398998 1_555
S9 U1 2.818339 1_556
S9 U2 2.859305 1_555
S9 U7 2.861376 1_655
S9 U7 2.861376 1_555
S9 U5 3.398998 1_555
S10 U2 2.818339 1_555
S10 U1 2.859305 1_555
S10 U4 2.861376 1_555
S10 U4 2.861376 1_655
S10 U6 3.398998 1_565
S11 U3 2.818339 1_555
S11 U0 2.859305 1_555
S11 U5 2.861376 1_555
S11 U5 2.861376 1_455
S11 U7 3.398998 1_545
