# generated using pymatgen
data_Na4YAlSi(PO6)2
_symmetry_space_group_name_H-M   'P 1'
_cell_length_a   9.10577653
_cell_length_b   9.11450357
_cell_length_c   22.22990837
_cell_angle_alpha   90.04102490
_cell_angle_beta   89.66886885
_cell_angle_gamma   120.12957141
_symmetry_Int_Tables_number   1
_chemical_formula_structural   Na4YAlSi(PO6)2
_chemical_formula_sum   'Na24 Y6 Al6 Si6 P12 O72'
_cell_volume   1595.66292651
_cell_formula_units_Z   6
loop_
 _symmetry_equiv_pos_site_id
 _symmetry_equiv_pos_as_xyz
  1  'x, y, z'
loop_
 _atom_site_type_symbol
 _atom_site_label
 _atom_site_symmetry_multiplicity
 _atom_site_fract_x
 _atom_site_fract_y
 _atom_site_fract_z
 _atom_site_occupancy
  Na  Na0  1  0.63192822  0.99985847  0.25682844  1
  Na  Na1  1  0.36641121  0.36893423  0.25215845  1
  Na  Na2  1  0.00258217  0.62312968  0.25235497  1
  Na  Na3  1  0.63818783  0.63678000  0.74105896  1
  Na  Na4  1  0.99000337  0.35820037  0.74657261  1
  Na  Na5  1  0.38120882  0.01115877  0.74362397  1
  Na  Na6  1  0.29541900  0.32973570  0.58220469  1
  Na  Na7  1  0.04454475  0.71381779  0.58184040  1
  Na  Na8  1  0.66455653  0.96256539  0.58927891  1
  Na  Na9  1  0.29908062  0.97425626  0.08516144  1
  Na  Na10  1  0.68038310  0.69648320  0.08621301  1
  Na  Na11  1  0.02524813  0.33393968  0.09397642  1
  Na  Na12  1  0.97859971  0.67687577  0.92242923  1
  Na  Na13  1  0.68941144  0.03089698  0.90992197  1
  Na  Na14  1  0.33315881  0.29968995  0.91650244  1
  Na  Na15  1  0.96674356  0.30133609  0.41029231  1
  Na  Na16  1  0.32902205  0.02788182  0.41921709  1
  Na  Na17  1  0.69885052  0.66719830  0.41512026  1
  Na  Na18  1  0.00455589  0.99502566  0.49864113  1
  Na  Na19  1  0.00482041  0.99357286  0.00286553  1
  Na  Na20  1  0.66245573  0.32073510  0.83077406  1
  Na  Na21  1  0.67385347  0.33364969  0.34055777  1
  Na  Na22  1  0.32510367  0.66328732  0.17160819  1
  Na  Na23  1  0.33744569  0.67553883  0.66271327  1
  Y  Y0  1  0.99920663  0.99964509  0.84094050  1
  Y  Y1  1  0.67035247  0.33200756  0.19099657  1
  Y  Y2  1  0.67046502  0.33702413  0.99062682  1
  Y  Y3  1  0.33050207  0.67115350  0.01745212  1
  Y  Y4  1  0.32918999  0.67147595  0.51468348  1
  Y  Y5  1  0.33826253  0.67557595  0.81038179  1
  Al  Al0  1  0.99673887  0.99450972  0.35093037  1
  Al  Al1  1  0.00604978  0.99963639  0.64628480  1
  Al  Al2  1  0.00237036  0.00343857  0.15454407  1
  Al  Al3  1  0.66476423  0.32696452  0.68053238  1
  Al  Al4  1  0.67069283  0.33899468  0.48499745  1
  Al  Al5  1  0.31548167  0.65208548  0.31813811  1
  Si  Si0  1  0.01371594  0.28772066  0.25538275  1
  Si  Si1  1  0.71150041  0.01434289  0.74038042  1
  Si  Si2  1  0.37730316  0.05640936  0.58309231  1
  Si  Si3  1  0.97581875  0.65662547  0.08947486  1
  Si  Si4  1  0.33450325  0.98116644  0.91538658  1
  Si  Si5  1  0.02574746  0.66618633  0.41497279  1
  P  P0  1  0.27442563  0.98559635  0.25478660  1
  P  P1  1  0.70850652  0.72355549  0.25402756  1
  P  P2  1  0.30580276  0.29431402  0.74073347  1
  P  P3  1  0.98651189  0.69346305  0.74038042  1
  P  P4  1  0.94400855  0.32416262  0.58306858  1
  P  P5  1  0.67619616  0.61852952  0.58426387  1
  P  P6  1  0.68125694  0.02642748  0.08873270  1
  P  P7  1  0.34840934  0.32093426  0.08938152  1
  P  P8  1  0.63901505  0.66442467  0.91544295  1
  P  P9  1  0.02772338  0.36005040  0.91514151  1
  P  P10  1  0.63247443  0.96265684  0.41246900  1
  P  P11  1  0.33088465  0.36507503  0.41361477  1
  O  O0  1  0.18417203  0.00424462  0.31036066  1
  O  O1  1  0.82000553  0.80870016  0.30927393  1
  O  O2  1  0.99115295  0.16786471  0.31291484  1
  O  O3  1  0.24177543  0.19988620  0.80151215  1
  O  O4  1  0.95836747  0.75859555  0.80115947  1
  O  O5  1  0.80439610  0.04559460  0.80585863  1
  O  O6  1  0.82566712  0.98720088  0.68836759  1
  O  O7  1  0.18144859  0.18936563  0.68979192  1
  O  O8  1  0.01704803  0.82224857  0.68945737  1
  O  O9  1  0.79632670  0.82815644  0.19635510  1
  O  O10  1  0.03435761  0.19878811  0.19422188  1
  O  O11  1  0.17246952  0.96812082  0.19681881  1
  O  O12  1  0.85973465  0.35126800  0.63884214  1
  O  O13  1  0.49526548  0.14860569  0.64163370  1
  O  O14  1  0.65665390  0.50912912  0.63966665  1
  O  O15  1  0.88034613  0.52333458  0.14442990  1
  O  O16  1  0.64023913  0.10951808  0.14173975  1
  O  O17  1  0.46603027  0.34817606  0.14283029  1
  O  O18  1  0.42717441  0.29516631  0.03090824  1
  O  O19  1  0.86644727  0.58179353  0.02735642  1
  O  O20  1  0.70625685  0.13068206  0.03056157  1
  O  O21  1  0.47113617  0.17214330  0.52230277  1
  O  O22  1  0.69697501  0.53395564  0.52621178  1
  O  O23  1  0.83712402  0.30539225  0.52567855  1
  O  O24  1  0.55227721  0.67635493  0.97336284  1
  O  O25  1  0.13164339  0.44497327  0.97215003  1
  O  O26  1  0.31477411  0.87268464  0.97634889  1
  O  O27  1  0.56686963  0.85671765  0.47126998  1
  O  O28  1  0.29329100  0.43406237  0.47186097  1
  O  O29  1  0.14428328  0.72066586  0.47575866  1
  O  O30  1  0.12648823  0.62649578  0.36051245  1
  O  O31  1  0.50441959  0.86414051  0.36029643  1
  O  O32  1  0.35983526  0.49168621  0.36078308  1
  O  O33  1  0.11857604  0.46286540  0.85791405  1
  O  O34  1  0.35333205  0.88805921  0.85522171  1
  O  O35  1  0.53118261  0.64588691  0.85927115  1
  O  O36  1  0.99955956  0.83208017  0.40458292  1
  O  O37  1  0.81375890  0.98754182  0.40445382  1
  O  O38  1  0.17540381  0.18229639  0.40630627  1
  O  O39  1  0.00447214  0.18094349  0.91341586  1
  O  O40  1  0.16450465  0.99736344  0.91349585  1
  O  O41  1  0.81392021  0.82762225  0.91238696  1
  O  O42  1  0.96435367  0.16309414  0.58635725  1
  O  O43  1  0.18038618  0.02897445  0.58907190  1
  O  O44  1  0.83684618  0.80155573  0.58791306  1
  O  O45  1  0.98731087  0.84067931  0.09918917  1
  O  O46  1  0.84724907  0.02306717  0.09725943  1
  O  O47  1  0.17386464  0.15818674  0.09579775  1
  O  O48  1  0.68692328  0.18141462  0.73518233  1
  O  O49  1  0.48917070  0.32472907  0.73482709  1
  O  O50  1  0.82657678  0.51553823  0.73322684  1
  O  O51  1  0.68224670  0.53967777  0.25207511  1
  O  O52  1  0.84194002  0.30828692  0.25579368  1
  O  O53  1  0.45501050  0.14703891  0.25333522  1
  O  O54  1  0.66023321  0.50709377  0.91668224  1
  O  O55  1  0.85361423  0.35044688  0.91796657  1
  O  O56  1  0.50596178  0.16724596  0.91781190  1
  O  O57  1  0.64478492  0.13961103  0.41889823  1
  O  O58  1  0.49800891  0.35663753  0.41848216  1
  O  O59  1  0.83882445  0.48962668  0.42597835  1
  O  O60  1  0.32754642  0.47861678  0.08586571  1
  O  O61  1  0.16522160  0.67764790  0.08812653  1
  O  O62  1  0.53079483  0.84307941  0.08463750  1
  O  O63  1  0.35737838  0.86479984  0.58254868  1
  O  O64  1  0.51397225  0.63541707  0.58181736  1
  O  O65  1  0.12656341  0.48287453  0.58033489  1
  O  O66  1  0.29834133  0.82605683  0.25877901  1
  O  O67  1  0.52765436  0.70506540  0.25877932  1
  O  O68  1  0.18428254  0.48314622  0.25969281  1
  O  O69  1  0.31438927  0.46900301  0.74149309  1
  O  O70  1  0.14616711  0.67292159  0.74178208  1
  O  O71  1  0.52376498  0.83939496  0.73949204  1
loop_
_geom_bond_atom_site_label_1
_geom_bond_atom_site_label_2
_geom_bond_distance
_geom_bond_site_symmetry_2
Na0 O67 2.358247 1_555
Na0 O52 2.482512 1_565
Na0 O53 2.563584 1_565
Na0 O31 2.588431 1_555
Na0 O66 2.627927 1_555
Na0 O16 2.734167 1_565
Na1 O68 2.364691 1_555
Na1 O51 2.489907 1_555
Na1 O53 2.525922 1_555
Na1 O17 2.628959 1_555
Na1 O67 2.655089 1_555
Na1 O32 2.673559 1_555
Na1 O10 2.922450 1_555
Na2 O66 2.386976 1_555
Na2 O52 2.483006 1_455
Na2 O68 2.552367 1_555
Na2 O15 2.614112 1_455
Na2 O51 2.619115 1_455
Na2 O30 2.655413 1_555
Na3 O49 2.465157 1_555
Na3 O50 2.468502 1_555
Na3 O71 2.535624 1_555
Na3 O69 2.550514 1_555
Na3 O14 2.578850 1_555
Na3 O35 2.813030 1_555
Na3 O4 2.882874 1_555
Na3 O6 2.999308 1_555
Na4 O48 2.412477 1_555
Na4 O70 2.483053 1_655
Na4 O50 2.550917 1_555
Na4 O69 2.599825 1_655
Na4 O12 2.665274 1_555
Na4 O33 2.704768 1_655
Na4 O5 2.803004 1_555
Na5 O48 2.418735 1_555
Na5 O71 2.486555 1_545
Na5 O49 2.520113 1_555
Na5 O13 2.541470 1_555
Na5 O34 2.681136 1_545
Na5 O70 2.731902 1_545
Na5 O3 2.897830 1_555
Na6 O43 2.398179 1_555
Na6 O64 2.481241 1_555
Na6 O65 2.543494 1_555
Na6 O42 2.608373 1_455
Na6 O28 2.635112 1_555
Na6 O7 2.660194 1_555
Na6 O21 2.945573 1_555
Na7 O44 2.397875 1_455
Na7 O63 2.464462 1_555
Na7 O43 2.498344 1_565
Na7 O29 2.511635 1_555
Na7 O65 2.562705 1_555
Na7 O8 2.645882 1_555
Na8 O42 2.405448 1_565
Na8 O63 2.478427 1_555
Na8 O64 2.587679 1_555
Na8 O6 2.600114 1_555
Na8 O44 2.631819 1_555
Na8 O27 2.786693 1_555
Na9 O61 2.343043 1_555
Na9 O47 2.466094 1_565
Na9 O45 2.481804 1_455
Na9 O26 2.618040 1_554
Na9 O11 2.719498 1_555
Na9 O18 2.816749 1_565
Na9 O62 2.900638 1_555
Na9 O16 2.991708 1_565
Na10 O62 2.338724 1_555
Na10 O45 2.437778 1_555
Na10 O46 2.586922 1_565
Na10 O9 2.702500 1_555
Na10 O19 2.724981 1_555
Na10 O24 2.739713 1_554
Na10 O60 2.803756 1_555
Na11 O60 2.387276 1_555
Na11 O46 2.459524 1_455
Na11 O47 2.564386 1_555
Na11 O10 2.568839 1_555
Na11 O61 2.728661 1_555
Na11 O15 2.871497 1_455
Na11 O25 2.878606 1_554
Na11 O20 2.915100 1_455
Na12 O41 2.501792 1_555
Na12 O54 2.513046 1_555
Na12 O19 2.514257 1_556
Na12 O40 2.543724 1_655
Na12 O55 2.599744 1_555
Na12 O4 2.828872 1_555
Na12 O26 2.923549 1_655
Na13 O39 2.484026 1_655
Na13 O5 2.509439 1_555
Na13 O55 2.526055 1_555
Na13 O56 2.538896 1_555
Na13 O41 2.613561 1_545
Na13 O20 2.811406 1_556
Na13 O34 2.929123 1_545
Na14 O40 2.389266 1_545
Na14 O56 2.416918 1_555
Na14 O54 2.606081 1_555
Na14 O39 2.623761 1_555
Na14 O18 2.695061 1_556
Na14 O3 2.704724 1_555
Na15 O37 2.477744 1_545
Na15 O59 2.534737 1_555
Na15 O57 2.541603 1_555
Na15 O2 2.545063 1_555
Na15 O38 2.619652 1_655
Na15 O30 2.789628 1_655
Na15 O23 2.825328 1_555
Na15 O28 2.934569 1_655
Na16 O38 2.449794 1_555
Na16 O57 2.522801 1_555
Na16 O58 2.591844 1_555
Na16 O36 2.631803 1_445
Na16 O21 2.641329 1_555
Na16 O0 2.718959 1_555
Na16 O29 2.738996 1_545
Na16 O31 2.976519 1_545
Na17 O36 2.381805 1_555
Na17 O58 2.482799 1_555
Na17 O59 2.525335 1_555
Na17 O37 2.570451 1_555
Na17 O1 2.638709 1_555
Na17 O22 2.748971 1_555
Na17 O27 2.837211 1_555
Na17 O32 2.937750 1_555
Na18 O43 2.497861 1_565
Na18 O36 2.551176 1_455
Na18 O44 2.578068 1_455
Na18 O42 2.614046 1_465
Na18 O38 2.617081 1_565
Na18 O37 2.707364 1_455
Na19 O40 2.445123 1_554
Na19 O45 2.515888 1_455
Na19 O47 2.569460 1_565
Na19 O41 2.598353 1_454
Na19 O39 2.623146 1_564
Na19 O46 2.624063 1_465
Na20 O56 2.387895 1_555
Na20 O55 2.534786 1_555
Na20 O48 2.540160 1_555
Na20 O54 2.561646 1_555
Na20 O49 2.671513 1_555
Na20 O50 2.718891 1_555
Na21 O57 2.399967 1_555
Na21 O59 2.401794 1_555
Na21 O58 2.431597 1_555
Na21 O52 2.503572 1_555
Na21 O51 2.694540 1_555
Na21 O53 2.694579 1_555
Na22 O61 2.409038 1_555
Na22 O68 2.456878 1_555
Na22 O66 2.523645 1_555
Na22 O60 2.549335 1_555
Na22 O67 2.576242 1_555
Na22 O62 2.610109 1_555
Na23 O71 2.346926 1_555
Na23 O63 2.422950 1_555
Na23 O70 2.458998 1_555
Na23 O69 2.501684 1_555
Na23 O64 2.550917 1_555
Na23 O65 2.602952 1_555
Al0 O2 1.815594 1_565
Al0 O0 1.887970 1_665
Al0 O1 1.895880 1_555
Al0 O36 1.912068 1_555
Al0 O37 2.016633 1_555
Al0 O38 2.077574 1_665
Al1 O6 1.838853 1_455
Al1 O8 1.926404 1_555
Al1 O7 1.928581 1_565
Al1 O43 1.939105 1_565
Al1 O44 2.131742 1_455
Al1 O42 2.171413 1_465
Al2 O10 1.874336 1_555
Al2 O45 1.878514 1_445
Al2 O47 1.975164 1_555
Al2 O11 1.975759 1_545
Al2 O9 1.977156 1_445
Al2 O46 1.980808 1_455
Al3 O13 1.807525 1_555
Al3 O48 1.884246 1_555
Al3 O12 1.909538 1_555
Al3 O14 1.927040 1_555
Al3 O49 1.989658 1_555
Al3 O50 1.992979 1_555
Al4 O21 1.874177 1_555
Al4 O22 1.904622 1_555
Al4 O23 1.921074 1_555
Al4 O59 1.954315 1_555
Al4 O58 2.228401 1_555
Al4 O57 2.255446 1_555
Al5 O30 1.865998 1_555
Al5 O68 1.911687 1_555
Al5 O32 1.948923 1_555
Al5 O31 2.061945 1_555
Al5 O66 2.129253 1_555
Al5 O67 2.177576 1_555
O0 P0 1.535812 1_545
O1 P1 1.537333 1_555
O2 Si0 1.626321 1_655
O3 P2 1.547562 1_555
O3 Y0 2.216035 1_445
O4 P3 1.546347 1_555
O4 Y0 2.219942 1_555
O5 Si1 1.639240 1_555
O5 Y0 2.166242 1_545
O6 Si1 1.650058 1_565
O7 P2 1.550956 1_555
O8 P3 1.551521 1_455
O9 P1 1.554542 1_555
O10 Si0 1.639907 1_555
O11 P0 1.553350 1_555
O12 P4 1.538181 1_555
O13 Si2 1.631537 1_555
O14 P5 1.537486 1_555
O15 Si3 1.629013 1_555
O15 Y1 2.097874 1_555
O16 P6 1.542447 1_555
O16 Y1 2.197389 1_555
O17 P7 1.538765 1_555
O17 Y1 2.219954 1_555
O18 P7 1.554696 1_555
O18 Y2 2.232539 1_554
O19 Si3 1.642106 1_555
O19 Y2 2.201332 1_554
O20 P6 1.551825 1_555
O20 Y2 2.247764 1_554
O21 Si2 1.659148 1_555
O22 P5 1.561267 1_555
O23 P4 1.565566 1_555
O24 P8 1.538731 1_555
O24 Y3 2.218567 1_556
O25 P9 1.541990 1_555
O25 Y3 2.193962 1_556
O26 Si4 1.633165 1_555
O26 Y3 2.120719 1_556
O27 P10 1.552911 1_555
O27 Y4 2.185365 1_555
O28 P11 1.548832 1_555
O28 Y4 2.232949 1_555
O29 Si5 1.647829 1_555
O29 Y4 2.135389 1_555
O30 Si5 1.660634 1_555
O31 P10 1.572914 1_555
O32 P11 1.572730 1_555
O33 P9 1.546679 1_555
O33 Y5 2.227536 1_555
O34 Si4 1.637117 1_555
O34 Y5 2.120181 1_555
O35 P8 1.548943 1_555
O35 Y5 2.200007 1_555
O36 Si5 1.661200 1_655
O37 P10 1.558494 1_555
O38 P11 1.562244 1_555
O39 P9 1.537622 1_555
O39 Y0 2.290442 1_445
O40 Si4 1.627866 1_555
O40 Y0 2.219670 1_455
O41 P8 1.540878 1_555
O41 Y0 2.268111 1_555
O42 P4 1.571053 1_555
O43 Si2 1.685974 1_555
O44 P5 1.575017 1_555
O45 Si3 1.641736 1_555
O46 P6 1.539888 1_555
O47 P7 1.541960 1_555
O48 Si1 1.650744 1_555
O49 P2 1.553977 1_555
O50 P3 1.551588 1_555
O51 P1 1.570217 1_555
O51 Y1 2.286967 1_555
O52 Si0 1.666127 1_655
O52 Y1 2.219997 1_555
O53 P0 1.562226 1_545
O53 Y1 2.293642 1_555
O54 P8 1.540352 1_555
O54 Y2 2.294322 1_555
O55 P9 1.544227 1_655
O55 Y2 2.273660 1_555
O56 Si4 1.630792 1_545
O56 Y2 2.226178 1_555
O57 P10 1.566087 1_545
O58 P11 1.566171 1_555
O59 Si5 1.671101 1_655
O60 P7 1.543427 1_555
O60 Y3 2.312827 1_555
O61 Si3 1.636985 1_455
O61 Y3 2.190624 1_555
O62 P6 1.542968 1_565
O62 Y3 2.274087 1_555
O63 Si2 1.662819 1_565
O63 Y4 2.234573 1_555
O64 P5 1.561376 1_555
O64 Y4 2.398166 1_555
O65 P4 1.563468 1_455
O65 Y4 2.297294 1_555
O66 P0 1.577368 1_555
O67 P1 1.571911 1_555
O68 Si0 1.678781 1_555
O69 P2 1.554513 1_555
O69 Y5 2.350788 1_555
O70 P3 1.556694 1_455
O70 Y5 2.318194 1_555
O71 Si1 1.652011 1_565
O71 Y5 2.237551 1_555
