# generated using pymatgen
data_AgClO2
_symmetry_space_group_name_H-M   'P 1'
_cell_length_a   6.12946100
_cell_length_b   6.28252500
_cell_length_c   7.07005200
_cell_angle_alpha   90.00000000
_cell_angle_beta   90.00000000
_cell_angle_gamma   90.00000000
_symmetry_Int_Tables_number   1
_chemical_formula_structural   AgClO2
_chemical_formula_sum   'Ag4 Cl4 O8'
_cell_volume   272.25704066
_cell_formula_units_Z   4
loop_
 _symmetry_equiv_pos_site_id
 _symmetry_equiv_pos_as_xyz
  1  'x, y, z'
loop_
 _atom_site_type_symbol
 _atom_site_label
 _atom_site_symmetry_multiplicity
 _atom_site_fract_x
 _atom_site_fract_y
 _atom_site_fract_z
 _atom_site_occupancy
  Ag  Ag0  1  0.50000000  0.25000000  0.10887700  1
  Ag  Ag1  1  0.00000000  0.25000000  0.89112300  1
  Ag  Ag2  1  0.50000000  0.75000000  0.89112300  1
  Ag  Ag3  1  0.00000000  0.75000000  0.10887700  1
  Cl  Cl0  1  0.00000000  0.75000000  0.64735100  1
  Cl  Cl1  1  0.00000000  0.25000000  0.35264900  1
  Cl  Cl2  1  0.50000000  0.75000000  0.35264900  1
  Cl  Cl3  1  0.50000000  0.25000000  0.64735100  1
  O  O0  1  0.65114900  0.39345200  0.77994900  1
  O  O1  1  0.15114900  0.10654800  0.22005100  1
  O  O2  1  0.84885100  0.39345200  0.22005100  1
  O  O3  1  0.34885100  0.10654800  0.77994900  1
  O  O4  1  0.34885100  0.60654800  0.22005100  1
  O  O5  1  0.65114900  0.89345200  0.22005100  1
  O  O6  1  0.15114900  0.60654800  0.77994900  1
  O  O7  1  0.84885100  0.89345200  0.77994900  1
loop_
_geom_bond_atom_site_label_1
_geom_bond_atom_site_label_2
_geom_bond_distance
_geom_bond_site_symmetry_2
Ag0 O2 2.449945 1_555
Ag0 O1 2.449945 1_555
Ag0 O4 2.548300 1_555
Ag0 O5 2.548300 1_545
Ag0 O0 2.660581 1_554
Ag0 O3 2.660581 1_554
Ag1 O3 2.449945 1_555
Ag1 O0 2.449945 1_455
Ag1 O6 2.548300 1_555
Ag1 O7 2.548300 1_445
Ag1 O2 2.660581 1_456
Ag1 O1 2.660581 1_556
Ag2 O7 2.449945 1_555
Ag2 O6 2.449945 1_555
Ag2 O3 2.548300 1_565
Ag2 O0 2.548300 1_555
Ag2 O5 2.660581 1_556
Ag2 O4 2.660581 1_556
Ag3 O4 2.449945 1_555
Ag3 O5 2.449945 1_455
Ag3 O1 2.548300 1_565
Ag3 O2 2.548300 1_455
Ag3 O7 2.660581 1_454
Ag3 O6 2.660581 1_554
Cl0 O7 1.596692 1_455
Cl0 O6 1.596692 1_555
Cl1 O2 1.596692 1_455
Cl1 O1 1.596692 1_555
Cl2 O5 1.596692 1_555
Cl2 O4 1.596692 1_555
Cl3 O0 1.596692 1_555
Cl3 O3 1.596692 1_555
