# generated using pymatgen
data_Li2PrSb2
_symmetry_space_group_name_H-M   'P 1'
_cell_length_a   4.61700200
_cell_length_b   4.61700200
_cell_length_c   11.10609200
_cell_angle_alpha   90.00000000
_cell_angle_beta   90.00000000
_cell_angle_gamma   90.00000000
_symmetry_Int_Tables_number   1
_chemical_formula_structural   Li2PrSb2
_chemical_formula_sum   'Li4 Pr2 Sb4'
_cell_volume   236.74531428
_cell_formula_units_Z   2
loop_
 _symmetry_equiv_pos_site_id
 _symmetry_equiv_pos_as_xyz
  1  'x, y, z'
loop_
 _atom_site_type_symbol
 _atom_site_label
 _atom_site_symmetry_multiplicity
 _atom_site_fract_x
 _atom_site_fract_y
 _atom_site_fract_z
 _atom_site_occupancy
  Li  Li0  1  0.00000000  0.50000000  0.37694700  1
  Li  Li1  1  0.50000000  0.00000000  0.62305300  1
  Li  Li2  1  0.00000000  0.00000000  0.00000000  1
  Li  Li3  1  0.50000000  0.50000000  0.00000000  1
  Pr  Pr0  1  0.00000000  0.50000000  0.73259300  1
  Pr  Pr1  1  0.50000000  0.00000000  0.26740700  1
  Sb  Sb0  1  0.50000000  0.00000000  0.85317800  1
  Sb  Sb1  1  0.00000000  0.50000000  0.14682200  1
  Sb  Sb2  1  0.00000000  0.00000000  0.50000000  1
  Sb  Sb3  1  0.50000000  0.50000000  0.50000000  1
loop_
_geom_bond_atom_site_label_1
_geom_bond_atom_site_label_2
_geom_bond_distance
_geom_bond_site_symmetry_2
Li0 Sb1 2.555789 1_555
Li0 Sb3 2.682699 1_455
Li0 Sb3 2.682699 1_555
Li0 Sb2 2.682699 1_565
Li0 Sb2 2.682699 1_555
Li0 Pr1 3.484017 1_565
Li0 Pr1 3.484017 1_465
Li0 Pr1 3.484017 1_555
Li0 Pr1 3.484017 1_455
Li1 Sb0 2.555789 1_555
Li1 Sb3 2.682699 1_545
Li1 Sb2 2.682699 1_555
Li1 Sb3 2.682699 1_555
Li1 Sb2 2.682699 1_655
Li1 Pr0 3.484017 1_555
Li1 Pr0 3.484017 1_655
Li1 Pr0 3.484017 1_545
Li1 Pr0 3.484017 1_645
Li2 Sb1 2.826322 1_545
Li2 Sb1 2.826322 1_555
Li2 Sb0 2.826322 1_454
Li2 Sb0 2.826322 1_554
Li2 Pr1 3.761538 1_455
Li2 Pr1 3.761538 1_555
Li2 Pr0 3.761538 1_554
Li2 Pr0 3.761538 1_544
Li3 Sb1 2.826322 1_655
Li3 Sb1 2.826322 1_555
Li3 Sb0 2.826322 1_564
Li3 Sb0 2.826322 1_554
Li3 Pr1 3.761538 1_565
Li3 Pr1 3.761538 1_555
Li3 Pr0 3.761538 1_554
Li3 Pr0 3.761538 1_654
Pr0 Sb3 3.464404 1_455
Pr0 Sb3 3.464404 1_555
Pr0 Sb2 3.464404 1_565
Pr0 Sb2 3.464404 1_555
Pr0 Sb0 3.528723 1_565
Pr0 Sb0 3.528723 1_455
Pr0 Sb0 3.528723 1_465
Pr0 Sb0 3.528723 1_555
Pr1 Sb2 3.464404 1_655
Pr1 Sb3 3.464404 1_545
Pr1 Sb2 3.464404 1_555
Pr1 Sb3 3.464404 1_555
Pr1 Sb1 3.528723 1_545
Pr1 Sb1 3.528723 1_555
Pr1 Sb1 3.528723 1_655
Pr1 Sb1 3.528723 1_645
