# generated using pymatgen
data_Ba2MgTiO4
_symmetry_space_group_name_H-M   'P 1'
_cell_length_a   3.79216047
_cell_length_b   3.78823382
_cell_length_c   11.17293970
_cell_angle_alpha   90.04060786
_cell_angle_beta   90.04418650
_cell_angle_gamma   90.03857871
_symmetry_Int_Tables_number   1
_chemical_formula_structural   Ba2MgTiO4
_chemical_formula_sum   'Ba2 Mg1 Ti1 O4'
_cell_volume   160.50575261
_cell_formula_units_Z   1
loop_
 _symmetry_equiv_pos_site_id
 _symmetry_equiv_pos_as_xyz
  1  'x, y, z'
loop_
 _atom_site_type_symbol
 _atom_site_label
 _atom_site_symmetry_multiplicity
 _atom_site_fract_x
 _atom_site_fract_y
 _atom_site_fract_z
 _atom_site_occupancy
  Ba  Ba0  1  0.33569890  0.34396856  0.07257130  1
  Ba  Ba1  1  0.83431521  0.84216172  0.45053028  1
  Mg  Mg0  1  0.83678667  0.84422582  0.83019900  1
  Ti  Ti0  1  0.33656419  0.34403927  0.69759874  1
  O  O0  1  0.83656713  0.34413489  0.75453417  1
  O  O1  1  0.83618774  0.84446410  0.00505358  1
  O  O2  1  0.33471704  0.34283536  0.53410510  1
  O  O3  1  0.33649813  0.84417027  0.75540783  1
loop_
_geom_bond_atom_site_label_1
_geom_bond_atom_site_label_2
_geom_bond_distance
_geom_bond_site_symmetry_2
Ba0 O1 2.780052 1_445
Ba0 O1 2.785072 1_455
Ba0 O1 2.785107 1_545
Ba0 O1 2.786649 1_555
Ba1 O2 2.835438 1_555
Ba1 O2 2.838215 1_655
Ba1 O2 2.839032 1_665
Ba1 O2 2.839664 1_565
Mg0 O1 1.953642 1_556
Mg0 O3 2.071643 1_655
Mg0 O3 2.072466 1_555
Mg0 O0 2.073984 1_555
Mg0 O0 2.074450 1_565
O0 Ti0 1.999492 1_555
O0 Ti0 2.000402 1_655
O2 Ti0 1.826715 1_555
O3 Ti0 2.001179 1_565
O3 Ti0 2.001252 1_555
