# generated using pymatgen
data_Na3ScBr6
_symmetry_space_group_name_H-M   'P 1'
_cell_length_a   7.23854888
_cell_length_b   7.23843687
_cell_length_c   13.14095628
_cell_angle_alpha   89.99089522
_cell_angle_beta   90.00372259
_cell_angle_gamma   120.01324999
_symmetry_Int_Tables_number   1
_chemical_formula_structural   Na3ScBr6
_chemical_formula_sum   'Na6 Sc2 Br12'
_cell_volume   596.20539060
_cell_formula_units_Z   2
loop_
 _symmetry_equiv_pos_site_id
 _symmetry_equiv_pos_as_xyz
  1  'x, y, z'
loop_
 _atom_site_type_symbol
 _atom_site_label
 _atom_site_symmetry_multiplicity
 _atom_site_fract_x
 _atom_site_fract_y
 _atom_site_fract_z
 _atom_site_occupancy
  Na  Na0  1  0.66667770  0.33336428  0.46654391  1
  Na  Na1  1  0.66665911  0.33336592  0.03343458  1
  Na  Na2  1  0.33334942  0.66666692  0.53343343  1
  Na  Na3  1  0.33335974  0.66668828  0.96655328  1
  Na  Na4  1  0.00000437  0.00004705  0.74998873  1
  Na  Na5  1  0.00004949  0.99998655  0.24997667  1
  Sc  Sc0  1  0.66664651  0.33337270  0.75000738  1
  Sc  Sc1  1  0.33335292  0.66664401  0.25000463  1
  Br  Br0  1  0.36393324  0.32132137  0.87010293  1
  Br  Br1  1  0.95742362  0.32144901  0.62993487  1
  Br  Br2  1  0.36397868  0.04249014  0.62993141  1
  Br  Br3  1  0.67863493  0.63609392  0.62990516  1
  Br  Br4  1  0.95741483  0.63608931  0.87009256  1
  Br  Br5  1  0.67864489  0.04258198  0.87005878  1
  Br  Br6  1  0.32125904  0.36386256  0.37012120  1
  Br  Br7  1  0.63615235  0.95747667  0.37005506  1
  Br  Br8  1  0.04260324  0.67856272  0.37005610  1
  Br  Br9  1  0.63594766  0.67853911  0.12992427  1
  Br  Br10  1  0.04250197  0.36395440  0.12994457  1
  Br  Br11  1  0.32140528  0.95744111  0.12993148  1
loop_
_geom_bond_atom_site_label_1
_geom_bond_atom_site_label_2
_geom_bond_distance
_geom_bond_site_symmetry_2
Br0 Sc0 2.666232 1_555
Br0 Na3 2.908523 1_555
Br0 Na4 2.951455 1_555
Br0 Na1 3.037179 1_556
Br1 Sc0 2.666370 1_555
Br1 Na2 2.907577 1_655
Br1 Na4 2.951673 1_655
Br1 Na0 3.037718 1_555
Br2 Sc0 2.666237 1_555
Br2 Na2 2.907796 1_545
Br2 Na4 2.952189 1_555
Br2 Na0 3.037741 1_555
Br3 Sc0 2.666196 1_555
Br3 Na2 2.907882 1_555
Br3 Na4 2.951592 1_665
Br3 Na0 3.037992 1_555
Br4 Sc0 2.666155 1_555
Br4 Na3 2.908255 1_655
Br4 Na4 2.951738 1_665
Br4 Na1 3.037084 1_556
Br5 Sc0 2.666200 1_555
Br5 Na3 2.907583 1_545
Br5 Na4 2.951706 1_655
Br5 Na1 3.038287 1_556
Br6 Sc1 2.666370 1_555
Br6 Na0 2.908193 1_555
Br6 Na5 2.951347 1_545
Br6 Na2 3.037599 1_555
Br7 Sc1 2.666308 1_555
Br7 Na0 2.908457 1_565
Br7 Na5 2.951702 1_655
Br7 Na2 3.037783 1_555
Br8 Sc1 2.666031 1_555
Br8 Na0 2.907443 1_455
Br8 Na5 2.951888 1_555
Br8 Na2 3.037539 1_555
Br9 Sc1 2.665851 1_555
Br9 Na1 2.907995 1_555
Br9 Na5 2.952073 1_655
Br9 Na3 3.037304 1_554
Br10 Sc1 2.666103 1_555
Br10 Na1 2.907904 1_455
Br10 Na5 2.951635 1_545
Br10 Na3 3.037815 1_554
Br11 Sc1 2.666249 1_555
Br11 Na1 2.907622 1_565
Br11 Na5 2.951547 1_555
Br11 Na3 3.038065 1_554
