# generated using pymatgen
data_Na7Al4SiP5O24
_symmetry_space_group_name_H-M   'P 1'
_cell_length_a   8.63640620
_cell_length_b   8.63517373
_cell_length_c   21.57682741
_cell_angle_alpha   90.15483509
_cell_angle_beta   89.70610032
_cell_angle_gamma   120.02022555
_symmetry_Int_Tables_number   1
_chemical_formula_structural   Na7Al4SiP5O24
_chemical_formula_sum   'Na21 Al12 Si3 P15 O72'
_cell_volume   1393.24692317
_cell_formula_units_Z   3
loop_
 _symmetry_equiv_pos_site_id
 _symmetry_equiv_pos_as_xyz
  1  'x, y, z'
loop_
 _atom_site_type_symbol
 _atom_site_label
 _atom_site_symmetry_multiplicity
 _atom_site_fract_x
 _atom_site_fract_y
 _atom_site_fract_z
 _atom_site_occupancy
  Na  Na0  1  0.36505528  0.36571697  0.25032049  1
  Na  Na1  1  0.99793905  0.63335171  0.24911179  1
  Na  Na2  1  0.63487094  0.63764145  0.74971597  1
  Na  Na3  1  0.99699348  0.36199835  0.75068630  1
  Na  Na4  1  0.36956084  0.00103219  0.74919077  1
  Na  Na5  1  0.30157242  0.32991051  0.58276519  1
  Na  Na6  1  0.03460393  0.70167118  0.58302930  1
  Na  Na7  1  0.66428291  0.96746806  0.58460341  1
  Na  Na8  1  0.29883788  0.96550135  0.08331332  1
  Na  Na9  1  0.66978849  0.69871600  0.08306724  1
  Na  Na10  1  0.03195695  0.33636671  0.08366889  1
  Na  Na11  1  0.96667707  0.66524112  0.91783155  1
  Na  Na12  1  0.69982005  0.03177994  0.91552994  1
  Na  Na13  1  0.96824761  0.30093107  0.41625604  1
  Na  Na14  1  0.33540683  0.03331505  0.41755960  1
  Na  Na15  1  0.99704154  0.99475353  0.49949062  1
  Na  Na16  1  0.00493750  0.00276146  0.99938528  1
  Na  Na17  1  0.66153571  0.33079473  0.83392945  1
  Na  Na18  1  0.66666556  0.33332888  0.33332497  1
  Na  Na19  1  0.33617359  0.67166236  0.16723402  1
  Na  Na20  1  0.33645779  0.67093923  0.66664730  1
  Al  Al0  1  0.99390791  0.99472960  0.35142984  1
  Al  Al1  1  0.00214653  0.00661006  0.85156203  1
  Al  Al2  1  0.00003019  0.99895513  0.64854684  1
  Al  Al3  1  0.99815902  0.99519345  0.14879207  1
  Al  Al4  1  0.66389086  0.32501405  0.68495913  1
  Al  Al5  1  0.67040297  0.33102154  0.18486267  1
  Al  Al6  1  0.66442219  0.33712043  0.98189860  1
  Al  Al7  1  0.66221034  0.33562820  0.48165529  1
  Al  Al8  1  0.32883437  0.66537330  0.01799796  1
  Al  Al9  1  0.33566981  0.67175476  0.51779806  1
  Al  Al10  1  0.33942654  0.67191763  0.31524502  1
  Al  Al11  1  0.33859621  0.66990286  0.81541345  1
  Si  Si0  1  0.71080813  0.00029709  0.75016381  1
  Si  Si1  1  0.37502565  0.04239776  0.58291920  1
  Si  Si2  1  0.95672336  0.62339724  0.08328862  1
  P  P0  1  0.29288250  0.00070148  0.25038130  1
  P  P1  1  0.70899035  0.71353599  0.25037871  1
  P  P2  1  0.99555785  0.28528510  0.25032802  1
  P  P3  1  0.28815144  0.28863472  0.75037480  1
  P  P4  1  0.99930671  0.71080906  0.75049469  1
  P  P5  1  0.95539347  0.33383521  0.58258135  1
  P  P6  1  0.66683827  0.62026006  0.58326804  1
  P  P7  1  0.66668719  0.04573194  0.08311392  1
  P  P8  1  0.37893783  0.33334290  0.08366467  1
  P  P9  1  0.61914298  0.66162511  0.91694435  1
  P  P10  1  0.04767321  0.37608944  0.91642309  1
  P  P11  1  0.33329267  0.96038706  0.91671177  1
  P  P12  1  0.62442091  0.95321114  0.41626681  1
  P  P13  1  0.33767953  0.38135489  0.41631643  1
  P  P14  1  0.04038868  0.66590570  0.41626937  1
  O  O0  1  0.20604934  0.03637394  0.30790129  1
  O  O1  1  0.83441578  0.79794849  0.30608300  1
  O  O2  1  0.96964855  0.17131396  0.30840484  1
  O  O3  1  0.20477627  0.16504186  0.80634737  1
  O  O4  1  0.96489613  0.79480343  0.80826172  1
  O  O5  1  0.83697927  0.03825883  0.81050287  1
  O  O6  1  0.79903393  0.96094902  0.68942584  1
  O  O7  1  0.17079587  0.20810462  0.69194207  1
  O  O8  1  0.03836528  0.83015185  0.69254834  1
  O  O9  1  0.79346342  0.82775523  0.19157717  1
  O  O10  1  0.03541152  0.20316573  0.19231812  1
  O  O11  1  0.17136746  0.96465688  0.19282868  1
  O  O12  1  0.87543520  0.37412844  0.64075825  1
  O  O13  1  0.50153384  0.12951006  0.64327620  1
  O  O14  1  0.63162209  0.50350233  0.64199103  1
  O  O15  1  0.86923820  0.49629165  0.14378733  1
  O  O16  1  0.62648025  0.12820079  0.13965650  1
  O  O17  1  0.49584156  0.36898052  0.14187630  1
  O  O18  1  0.46152091  0.29313607  0.02703567  1
  O  O19  1  0.82982538  0.53596667  0.02289605  1
  O  O20  1  0.70240705  0.16283803  0.02469828  1
  O  O21  1  0.46325735  0.16974187  0.52263118  1
  O  O22  1  0.70538103  0.53662049  0.52690006  1
  O  O23  1  0.83675345  0.29882506  0.52526254  1
  O  O24  1  0.53604975  0.70166077  0.97451658  1
  O  O25  1  0.16214824  0.46315148  0.97451713  1
  O  O26  1  0.29797125  0.83836226  0.97411934  1
  O  O27  1  0.53993531  0.83891821  0.47507087  1
  O  O28  1  0.29778759  0.46348319  0.47436136  1
  O  O29  1  0.16195441  0.70188796  0.47383977  1
  O  O30  1  0.12730561  0.63029436  0.35875861  1
  O  O31  1  0.49894814  0.86878697  0.36057398  1
  O  O32  1  0.36367006  0.49540707  0.35825924  1
  O  O33  1  0.13065775  0.49897162  0.85886250  1
  O  O34  1  0.36856165  0.87331136  0.85916146  1
  O  O35  1  0.50472461  0.63413528  0.85882699  1
  O  O36  1  0.02761427  0.83758467  0.40851581  1
  O  O37  1  0.81432854  0.97936483  0.40864142  1
  O  O38  1  0.16688981  0.19086521  0.40953865  1
  O  O39  1  0.02366767  0.18742124  0.91021638  1
  O  O40  1  0.16208741  0.97266798  0.90869827  1
  O  O41  1  0.80931181  0.83170439  0.91035933  1
  O  O42  1  0.97489266  0.16597844  0.58994253  1
  O  O43  1  0.17580649  0.02085314  0.59153067  1
  O  O44  1  0.83335308  0.80931203  0.58969938  1
  O  O45  1  0.97933256  0.82344887  0.09131064  1
  O  O46  1  0.83567813  0.02728644  0.09099732  1
  O  O47  1  0.18869652  0.16774328  0.09137698  1
  O  O48  1  0.69123123  0.17937480  0.74352201  1
  O  O49  1  0.47824049  0.31423781  0.74302239  1
  O  O50  1  0.83059016  0.52413831  0.74239336  1
  O  O51  1  0.68813893  0.52322450  0.24339331  1
  O  O52  1  0.83140829  0.30990356  0.24381081  1
  O  O53  1  0.47703527  0.17128012  0.24206281  1
  O  O54  1  0.64305856  0.49695942  0.92310557  1
  O  O55  1  0.85746523  0.35581677  0.92302147  1
  O  O56  1  0.50474910  0.14400548  0.92470948  1
  O  O57  1  0.64535641  0.14354546  0.42329785  1
  O  O58  1  0.50179634  0.35677694  0.42276983  1
  O  O59  1  0.85634502  0.49536040  0.42459368  1
  O  O60  1  0.36035804  0.50226353  0.07563903  1
  O  O61  1  0.15673256  0.64582315  0.07536946  1
  O  O62  1  0.50122798  0.85555546  0.07543072  1
  O  O63  1  0.35360372  0.84285535  0.57515803  1
  O  O64  1  0.49759896  0.63882658  0.57573460  1
  O  O65  1  0.14523751  0.50008610  0.57533772  1
  O  O66  1  0.30573862  0.82906070  0.25813887  1
  O  O67  1  0.51902893  0.68735046  0.25800042  1
  O  O68  1  0.16640553  0.47579938  0.25711840  1
  O  O69  1  0.30603327  0.47607977  0.75804206  1
  O  O70  1  0.16543345  0.68746463  0.75778819  1
  O  O71  1  0.51062488  0.82240575  0.75788869  1
loop_
_geom_bond_atom_site_label_1
_geom_bond_atom_site_label_2
_geom_bond_distance
_geom_bond_site_symmetry_2
Na0 O53 2.325390 1_555
Na0 O68 2.344561 1_555
Na0 O67 2.411171 1_555
Na0 O51 2.420190 1_555
Na0 O32 2.584079 1_555
Na0 O17 2.587094 1_555
Na0 O0 2.758829 1_555
Na0 O10 2.769489 1_555
Na1 O66 2.338542 1_655
Na1 O51 2.352660 1_555
Na1 O52 2.421383 1_555
Na1 O68 2.445843 1_655
Na1 O15 2.548694 1_555
Na1 O30 2.627374 1_655
Na1 O1 2.739878 1_555
Na1 O11 2.759582 1_655
Na2 O71 2.331872 1_555
Na2 O50 2.344545 1_555
Na2 O49 2.422691 1_555
Na2 O69 2.464891 1_555
Na2 O14 2.588192 1_555
Na2 O35 2.597317 1_555
Na2 O6 2.745307 1_555
Na2 O4 2.778228 1_555
Na3 O48 2.306514 1_555
Na3 O69 2.343458 1_655
Na3 O70 2.438728 1_655
Na3 O50 2.464752 1_555
Na3 O33 2.612680 1_655
Na3 O12 2.622200 1_555
Na3 O5 2.743389 1_555
Na3 O7 2.755533 1_655
Na4 O49 2.382027 1_555
Na4 O70 2.386832 1_545
Na4 O71 2.404763 1_545
Na4 O48 2.412665 1_555
Na4 O13 2.544449 1_555
Na4 O34 2.617465 1_545
Na4 O3 2.746154 1_555
Na4 O8 2.766846 1_545
Na5 O43 2.331943 1_555
Na5 O64 2.342150 1_555
Na5 O42 2.447087 1_455
Na5 O65 2.448845 1_555
Na5 O7 2.593961 1_555
Na5 O28 2.618304 1_555
Na5 O21 2.729560 1_555
Na5 O14 2.785078 1_555
Na6 O44 2.349225 1_455
Na6 O65 2.373108 1_555
Na6 O63 2.395987 1_555
Na6 O43 2.398699 1_565
Na6 O29 2.594537 1_555
Na6 O8 2.601271 1_555
Na6 O12 2.748097 1_455
Na6 O22 2.748373 1_455
Na7 O63 2.348228 1_555
Na7 O42 2.355563 1_565
Na7 O44 2.450944 1_555
Na7 O64 2.464669 1_555
Na7 O6 2.562461 1_555
Na7 O27 2.605769 1_555
Na7 O13 2.734294 1_565
Na7 O23 2.789422 1_565
Na8 O62 2.375311 1_555
Na8 O47 2.375686 1_565
Na8 O45 2.399586 1_455
Na8 O61 2.401141 1_555
Na8 O26 2.595066 1_554
Na8 O11 2.600215 1_555
Na8 O18 2.734308 1_565
Na8 O16 2.739867 1_565
Na9 O45 2.336920 1_555
Na9 O60 2.347713 1_555
Na9 O62 2.440709 1_555
Na9 O46 2.462606 1_565
Na9 O9 2.585500 1_555
Na9 O24 2.622592 1_554
Na9 O19 2.736113 1_555
Na9 O17 2.773826 1_555
Na10 O61 2.335222 1_555
Na10 O46 2.344006 1_455
Na10 O47 2.440526 1_555
Na10 O60 2.461115 1_555
Na10 O25 2.600885 1_554
Na10 O10 2.620931 1_555
Na10 O15 2.734616 1_455
Na10 O20 2.779253 1_455
Na11 O40 2.334704 1_655
Na11 O55 2.349515 1_555
Na11 O54 2.422768 1_555
Na11 O41 2.428492 1_555
Na11 O19 2.539323 1_556
Na11 O4 2.621663 1_555
Na11 O26 2.764455 1_655
Na11 O33 2.773480 1_655
Na12 O56 2.333620 1_555
Na12 O41 2.350349 1_545
Na12 O39 2.424512 1_655
Na12 O55 2.428396 1_555
Na12 O5 2.539408 1_555
Na12 O20 2.605860 1_556
Na12 O34 2.765124 1_545
Na12 O24 2.777278 1_545
Na13 O59 2.324936 1_555
Na13 O38 2.344290 1_655
Na13 O37 2.410578 1_545
Na13 O57 2.418901 1_555
Na13 O2 2.582135 1_555
Na13 O23 2.602717 1_555
Na13 O30 2.758147 1_655
Na13 O28 2.769806 1_655
Na14 O36 2.338555 1_545
Na14 O57 2.353745 1_555
Na14 O58 2.421372 1_555
Na14 O38 2.446231 1_555
Na14 O21 2.540963 1_555
Na14 O0 2.627567 1_555
Na14 O31 2.739677 1_545
Na14 O29 2.760366 1_545
Na15 O43 2.461540 1_665
Na15 O44 2.464699 1_555
Na15 O36 2.470561 1_655
Na15 O37 2.484095 1_555
Na15 O38 2.507884 1_665
Na15 O42 2.509042 1_565
Na16 O39 2.454754 1_555
Na16 O45 2.459679 1_446
Na16 O40 2.461967 1_545
Na16 O47 2.498547 1_556
Na16 O41 2.499394 1_445
Na16 O46 2.523267 1_456
Na17 O48 2.428436 1_555
Na17 O54 2.449007 1_555
Na17 O56 2.465014 1_555
Na17 O49 2.485492 1_555
Na17 O55 2.504115 1_555
Na17 O50 2.523707 1_555
Na18 O58 2.459930 1_555
Na18 O52 2.460353 1_555
Na18 O51 2.489538 1_555
Na18 O57 2.489997 1_555
Na18 O53 2.498574 1_555
Na18 O59 2.498812 1_555
Na19 O61 2.462410 1_555
Na19 O66 2.470106 1_555
Na19 O67 2.482745 1_555
Na19 O62 2.490039 1_555
Na19 O68 2.505763 1_555
Na19 O60 2.524897 1_555
Na20 O71 2.428358 1_555
Na20 O63 2.432178 1_555
Na20 O64 2.493346 1_555
Na20 O70 2.499766 1_555
Na20 O69 2.521780 1_555
Na20 O65 2.522942 1_555
Al0 O1 1.845240 1_555
Al0 O2 1.886838 1_565
Al0 O0 1.921740 1_665
Al0 O37 1.929289 1_555
Al0 O36 1.962462 1_655
Al0 O38 2.036748 1_665
Al1 O5 1.816224 1_455
Al1 O3 1.865476 1_555
Al1 O4 1.930456 1_445
Al1 O39 1.943027 1_555
Al1 O40 1.984516 1_545
Al1 O41 2.033716 1_445
Al2 O6 1.820662 1_455
Al2 O43 1.883782 1_565
Al2 O8 1.905078 1_555
Al2 O7 1.911384 1_565
Al2 O44 2.003715 1_455
Al2 O42 2.013012 1_465
Al3 O9 1.871056 1_555
Al3 O45 1.874824 1_555
Al3 O11 1.902813 1_655
Al3 O10 1.904348 1_665
Al3 O47 1.999589 1_665
Al3 O46 2.002481 1_565
Al4 O13 1.805871 1_555
Al4 O48 1.882242 1_555
Al4 O12 1.906909 1_555
Al4 O14 1.937244 1_555
Al4 O49 1.994916 1_555
Al4 O50 2.023558 1_555
Al5 O15 1.819359 1_555
Al5 O16 1.868818 1_555
Al5 O17 1.936743 1_555
Al5 O52 1.964091 1_555
Al5 O53 1.974319 1_555
Al5 O51 2.027139 1_555
Al6 O19 1.822597 1_556
Al6 O18 1.866006 1_556
Al6 O20 1.931312 1_556
Al6 O54 1.953213 1_555
Al6 O56 1.977489 1_555
Al6 O55 2.032126 1_555
Al7 O21 1.820554 1_555
Al7 O22 1.857808 1_555
Al7 O23 1.937564 1_555
Al7 O58 1.959460 1_555
Al7 O59 1.975715 1_555
Al7 O57 2.026545 1_555
Al8 O25 1.868551 1_554
Al8 O61 1.871168 1_555
Al8 O24 1.898499 1_554
Al8 O26 1.899329 1_554
Al8 O60 2.000349 1_555
Al8 O62 2.002677 1_555
Al9 O27 1.867664 1_555
Al9 O63 1.871315 1_555
Al9 O29 1.903865 1_555
Al9 O28 1.903989 1_555
Al9 O65 1.998307 1_555
Al9 O64 2.004264 1_555
Al10 O31 1.845524 1_555
Al10 O32 1.886101 1_555
Al10 O30 1.921484 1_555
Al10 O67 1.929700 1_555
Al10 O66 1.962645 1_555
Al10 O68 2.037024 1_555
Al11 O35 1.868187 1_555
Al11 O71 1.874651 1_555
Al11 O34 1.892587 1_555
Al11 O33 1.902751 1_555
Al11 O69 1.983462 1_555
Al11 O70 2.013088 1_555
O0 P0 1.554714 1_555
O1 P1 1.538789 1_555
O2 P2 1.540250 1_555
O3 P3 1.531391 1_555
O4 P4 1.541093 1_555
O5 Si0 1.626243 1_555
O6 Si0 1.630926 1_565
O7 P3 1.550339 1_555
O8 P4 1.547209 1_455
O9 P1 1.546620 1_555
O10 P2 1.556597 1_455
O11 P0 1.557158 1_565
O12 P5 1.550096 1_555
O13 Si1 1.625584 1_555
O14 P6 1.552600 1_555
O15 Si2 1.627075 1_555
O16 P7 1.534447 1_555
O17 P8 1.546504 1_555
O18 P8 1.535821 1_555
O19 Si2 1.628040 1_555
O20 P7 1.548282 1_555
O21 Si1 1.625152 1_555
O22 P6 1.530798 1_555
O23 P5 1.540080 1_555
O24 P9 1.553838 1_555
O25 P10 1.541998 1_555
O26 P11 1.555381 1_555
O27 P12 1.546937 1_555
O28 P13 1.557393 1_555
O29 P14 1.557793 1_555
O30 P14 1.554743 1_555
O31 P12 1.538799 1_555
O32 P13 1.540178 1_555
O33 P10 1.555358 1_555
O34 P11 1.555747 1_555
O35 P9 1.543273 1_555
O36 P14 1.550188 1_555
O37 P12 1.547535 1_555
O38 P13 1.573513 1_555
O39 P10 1.541521 1_555
O40 P11 1.544997 1_555
O41 P9 1.568350 1_555
O42 P5 1.549297 1_555
O43 Si1 1.644994 1_555
O44 P6 1.550521 1_555
O45 Si2 1.647267 1_555
O46 P7 1.555529 1_555
O47 P8 1.555498 1_555
O48 Si0 1.644212 1_555
O49 P3 1.550329 1_555
O50 P4 1.550142 1_555
O51 P1 1.568005 1_555
O52 P2 1.542238 1_555
O53 P0 1.544579 1_555
O54 P9 1.541867 1_555
O55 P10 1.568251 1_655
O56 P11 1.545426 1_545
O57 P12 1.567996 1_545
O58 P13 1.541617 1_555
O59 P14 1.543947 1_655
O60 P8 1.555402 1_555
O61 Si2 1.647092 1_455
O62 P7 1.555360 1_565
O63 Si1 1.646532 1_565
O64 P6 1.557406 1_555
O65 P5 1.554654 1_455
O66 P0 1.550259 1_565
O67 P1 1.547880 1_555
O68 P2 1.573869 1_455
O69 P3 1.555584 1_555
O70 P4 1.554271 1_455
O71 Si0 1.648479 1_565
