# generated using pymatgen
data_NpO2
_symmetry_space_group_name_H-M   'P 1'
_cell_length_a   3.83460816
_cell_length_b   3.83460720
_cell_length_c   3.83460769
_cell_angle_alpha   59.99997755
_cell_angle_beta   59.99998591
_cell_angle_gamma   59.99998751
_symmetry_Int_Tables_number   1
_chemical_formula_structural   NpO2
_chemical_formula_sum   'Np1 O2'
_cell_volume   39.87013039
_cell_formula_units_Z   1
loop_
 _symmetry_equiv_pos_site_id
 _symmetry_equiv_pos_as_xyz
  1  'x, y, z'
loop_
 _atom_site_type_symbol
 _atom_site_label
 _atom_site_symmetry_multiplicity
 _atom_site_fract_x
 _atom_site_fract_y
 _atom_site_fract_z
 _atom_site_occupancy
  Np  Np0  1  0.00000000  -0.00000000  0.00000000  1
  O  O0  1  0.75000000  0.75000000  0.75000000  1
  O  O1  1  0.25000000  0.25000000  0.25000000  1
loop_
_geom_bond_atom_site_label_1
_geom_bond_atom_site_label_2
_geom_bond_distance
_geom_bond_site_symmetry_2
Np0 O1 2.348207 1_545
Np0 O0 2.348207 1_454
Np0 O0 2.348207 1_445
Np0 O1 2.348207 1_554
Np0 O0 2.348208 1_544
Np0 O1 2.348208 1_455
Np0 O1 2.348208 1_555
Np0 O0 2.348208 1_444
