# generated using pymatgen
data_Na5Mg2Ge2P5SO24
_symmetry_space_group_name_H-M   'P 1'
_cell_length_a   8.70764985
_cell_length_b   8.70904601
_cell_length_c   21.91734105
_cell_angle_alpha   90.39752628
_cell_angle_beta   89.39100070
_cell_angle_gamma   120.23622646
_symmetry_Int_Tables_number   1
_chemical_formula_structural   Na5Mg2Ge2P5SO24
_chemical_formula_sum   'Na15 Mg6 Ge6 P15 S3 O72'
_cell_volume   1435.90616999
_cell_formula_units_Z   3
loop_
 _symmetry_equiv_pos_site_id
 _symmetry_equiv_pos_as_xyz
  1  'x, y, z'
loop_
 _atom_site_type_symbol
 _atom_site_label
 _atom_site_symmetry_multiplicity
 _atom_site_fract_x
 _atom_site_fract_y
 _atom_site_fract_z
 _atom_site_occupancy
  Na  Na0  1  0.63801090  0.00018849  0.25247396  1
  Na  Na1  1  0.36951793  0.37276855  0.24745718  1
  Na  Na2  1  0.99452086  0.62408457  0.25235262  1
  Na  Na3  1  0.63886320  0.63171957  0.74795219  1
  Na  Na4  1  0.99251277  0.36085182  0.74879323  1
  Na  Na5  1  0.36903469  0.00921234  0.74887321  1
  Na  Na6  1  0.30358787  0.96522547  0.07712562  1
  Na  Na7  1  0.03684264  0.34400816  0.07835897  1
  Na  Na8  1  0.70453862  0.67455024  0.41818991  1
  Na  Na9  1  0.00441094  0.00432440  0.50067995  1
  Na  Na10  1  0.99841873  0.99763798  0.99151042  1
  Na  Na11  1  0.66673858  0.33121770  0.83463372  1
  Na  Na12  1  0.67595807  0.32788197  0.33728301  1
  Na  Na13  1  0.34368070  0.66327035  0.16197677  1
  Na  Na14  1  0.33428317  0.66635808  0.66268615  1
  Mg  Mg0  1  0.99453751  0.99982771  0.35691738  1
  Mg  Mg1  1  0.00404286  0.00417811  0.85435973  1
  Mg  Mg2  1  0.66796783  0.33480031  0.68122930  1
  Mg  Mg3  1  0.66907662  0.33610983  0.18290261  1
  Mg  Mg4  1  0.33442417  0.66616510  0.01779260  1
  Mg  Mg5  1  0.33104948  0.66645195  0.31860495  1
  Ge  Ge0  1  0.00029047  -0.00007729  0.64585449  1
  Ge  Ge1  1  0.98643240  0.99776568  0.14400449  1
  Ge  Ge2  1  0.66933842  0.32653169  0.98110779  1
  Ge  Ge3  1  0.67925688  0.32832043  0.48796630  1
  Ge  Ge4  1  0.33256016  0.67635304  0.52077895  1
  Ge  Ge5  1  0.32622277  0.66993757  0.81850983  1
  P  P0  1  0.71101697  0.70981242  0.25067000  1
  P  P1  1  0.99956450  0.28739966  0.24953454  1
  P  P2  1  0.28851689  0.29122953  0.75089353  1
  P  P3  1  0.00091914  0.71311797  0.75099370  1
  P  P4  1  0.71003099  0.99702327  0.75162405  1
  P  P5  1  0.96730032  0.33387421  0.58424638  1
  P  P6  1  0.37264663  0.04169404  0.58383884  1
  P  P7  1  0.66416557  0.62837623  0.58270619  1
  P  P8  1  0.95290956  0.62665148  0.08421851  1
  P  P9  1  0.66667530  0.03975854  0.08495881  1
  P  P10  1  0.37743618  0.33343860  0.08532974  1
  P  P11  1  0.03702158  0.37398578  0.91951491  1
  P  P12  1  0.33576737  0.96285823  0.91973886  1
  P  P13  1  0.62024722  0.96442920  0.41888796  1
  P  P14  1  0.03983390  0.66106616  0.41919944  1
  S  S0  1  0.28747628  0.00004283  0.24960053  1
  S  S1  1  0.62314297  0.66200902  0.91747417  1
  S  S2  1  0.33565186  0.37411172  0.41857938  1
  O  O0  1  0.20475714  0.02876830  0.30276423  1
  O  O1  1  0.82538310  0.78906111  0.30684258  1
  O  O2  1  0.97070187  0.16896501  0.30334266  1
  O  O3  1  0.20836064  0.17490990  0.80532113  1
  O  O4  1  0.96559695  0.79311785  0.80596151  1
  O  O5  1  0.82494403  0.03056076  0.80590200  1
  O  O6  1  0.78749468  0.95144533  0.69246107  1
  O  O7  1  0.16522221  0.21375200  0.69256493  1
  O  O8  1  0.04727706  0.83576210  0.69245117  1
  O  O9  1  0.79939124  0.83515007  0.19267107  1
  O  O10  1  0.03771272  0.20587484  0.18865702  1
  O  O11  1  0.17873740  0.96721287  0.19237652  1
  O  O12  1  0.89448569  0.37040958  0.64168442  1
  O  O13  1  0.47798525  0.11270670  0.64162421  1
  O  O14  1  0.63035410  0.52067171  0.64003611  1
  O  O15  1  0.87985246  0.51893086  0.14220168  1
  O  O16  1  0.63520870  0.11657879  0.14299673  1
  O  O17  1  0.47547520  0.35373476  0.14402380  1
  O  O18  1  0.46189962  0.28876928  0.02879077  1
  O  O19  1  0.83166608  0.53968464  0.02746770  1
  O  O20  1  0.71299123  0.16921146  0.02909702  1
  O  O21  1  0.46221907  0.16448051  0.52689171  1
  O  O22  1  0.69830881  0.54117456  0.52422685  1
  O  O23  1  0.84519677  0.29528998  0.52721227  1
  O  O24  1  0.53786986  0.68522365  0.97055342  1
  O  O25  1  0.14477531  0.45926221  0.97591784  1
  O  O26  1  0.31739195  0.85676361  0.97609342  1
  O  O27  1  0.52708783  0.83038783  0.47302152  1
  O  O28  1  0.30690236  0.46078072  0.47249007  1
  O  O29  1  0.16093761  0.68830521  0.47440875  1
  O  O30  1  0.10640860  0.62352586  0.35941756  1
  O  O31  1  0.51672698  0.89312084  0.35952574  1
  O  O32  1  0.37144625  0.48197573  0.36222791  1
  O  O33  1  0.12123538  0.49435564  0.85880049  1
  O  O34  1  0.37623330  0.88160048  0.85874638  1
  O  O35  1  0.51250770  0.62840837  0.85905820  1
  O  O36  1  0.01442267  0.82269891  0.41687968  1
  O  O37  1  0.80342663  0.98004850  0.41714872  1
  O  O38  1  0.17923067  0.19663385  0.41341183  1
  O  O39  1  0.01031532  0.19035376  0.91139066  1
  O  O40  1  0.17456073  0.98202268  0.91171845  1
  O  O41  1  0.79926553  0.81821431  0.91000850  1
  O  O42  1  0.98368050  0.16365929  0.58843193  1
  O  O43  1  0.18374230  0.02206842  0.58763814  1
  O  O44  1  0.83651184  0.81673232  0.58688096  1
  O  O45  1  0.97615601  0.81942084  0.08911950  1
  O  O46  1  0.84521228  0.03276757  0.08748372  1
  O  O47  1  0.18513184  0.15403091  0.08801797  1
  O  O48  1  0.68114899  0.15543889  0.74290649  1
  O  O49  1  0.47657058  0.32089935  0.74193323  1
  O  O50  1  0.84277637  0.52456784  0.74243219  1
  O  O51  1  0.68606806  0.52282275  0.24404632  1
  O  O52  1  0.83329075  0.30578525  0.24410968  1
  O  O53  1  0.46755762  0.15880632  0.24412793  1
  O  O54  1  0.63567686  0.49581744  0.92078021  1
  O  O55  1  0.85025420  0.36676391  0.92265880  1
  O  O56  1  0.51275012  0.15283407  0.92275084  1
  O  O57  1  0.63474512  0.15027916  0.42860171  1
  O  O58  1  0.50215444  0.36352710  0.42475281  1
  O  O59  1  0.84541583  0.49014458  0.42784733  1
  O  O60  1  0.34485479  0.48793821  0.07750008  1
  O  O61  1  0.14110202  0.65519270  0.07697405  1
  O  O62  1  0.50569319  0.85658203  0.07672451  1
  O  O63  1  0.35091684  0.85240191  0.57462633  1
  O  O64  1  0.49686197  0.64816967  0.57236981  1
  O  O65  1  0.15468171  0.50159816  0.57302390  1
  O  O66  1  0.30590854  0.83928411  0.25301257  1
  O  O67  1  0.52683271  0.69519443  0.25324623  1
  O  O68  1  0.16763918  0.47387914  0.25114167  1
  O  O69  1  0.30544758  0.48278791  0.75687239  1
  O  O70  1  0.17662828  0.69738932  0.75580257  1
  O  O71  1  0.51814736  0.82080154  0.75674596  1
loop_
_geom_bond_atom_site_label_1
_geom_bond_atom_site_label_2
_geom_bond_distance
_geom_bond_site_symmetry_2
Na0 O67 2.324522 1_545
Na0 O52 2.334665 1_555
Na0 O53 2.493793 1_555
Na0 O66 2.498948 1_545
Na0 O31 2.544758 1_545
Na0 O16 2.616360 1_555
Na0 O2 2.748325 1_555
Na0 O9 2.779840 1_545
Na1 O68 2.329615 1_555
Na1 O51 2.383339 1_555
Na1 O53 2.409424 1_555
Na1 O67 2.429469 1_555
Na1 O17 2.474331 1_555
Na1 O32 2.680309 1_555
Na1 O10 2.818677 1_555
Na1 O0 2.861431 1_555
Na2 O51 2.376453 1_555
Na2 O66 2.397333 1_655
Na2 O52 2.401453 1_555
Na2 O68 2.443168 1_655
Na2 O30 2.551315 1_655
Na2 O15 2.600717 1_555
Na2 O1 2.780244 1_555
Na2 O11 2.900530 1_655
Na3 O49 2.342726 1_555
Na3 O71 2.363970 1_555
Na3 O50 2.387658 1_555
Na3 O69 2.519609 1_555
Na3 O14 2.536722 1_555
Na3 O35 2.655826 1_555
Na3 O6 2.700320 1_555
Na3 O4 2.776907 1_555
Na4 O50 2.373043 1_555
Na4 O69 2.382770 1_655
Na4 O48 2.384785 1_555
Na4 O12 2.522568 1_555
Na4 O70 2.539837 1_655
Na4 O33 2.669733 1_655
Na4 O7 2.701986 1_655
Na4 O5 2.784617 1_555
Na5 O48 2.352492 1_555
Na5 O70 2.371280 1_545
Na5 O49 2.389812 1_555
Na5 O13 2.521631 1_555
Na5 O71 2.561755 1_545
Na5 O34 2.673701 1_545
Na5 O8 2.728768 1_545
Na5 O3 2.746336 1_555
Na6 O61 2.333410 1_555
Na6 O47 2.349933 1_565
Na6 O62 2.380973 1_555
Na6 O26 2.426883 1_554
Na6 O45 2.480541 1_455
Na6 O18 2.657194 1_565
Na6 O11 2.742775 1_555
Na6 O16 2.896382 1_565
Na7 O60 2.319134 1_555
Na7 O46 2.370000 1_455
Na7 O61 2.385893 1_555
Na7 O25 2.442996 1_554
Na7 O47 2.571360 1_555
Na7 O20 2.674674 1_455
Na7 O10 2.709470 1_555
Na7 O15 2.859123 1_455
Na8 O36 2.332210 1_655
Na8 O37 2.348160 1_555
Na8 O58 2.378218 1_555
Na8 O59 2.474515 1_555
Na8 O22 2.593206 1_555
Na8 O1 2.641944 1_555
Na8 O27 2.779165 1_555
Na8 O32 2.806730 1_555
Na9 O42 2.421793 1_455
Na9 O43 2.431235 1_555
Na9 O44 2.440198 1_445
Na9 O36 2.445035 1_545
Na9 O37 2.479801 1_445
Na9 O38 2.489087 1_555
Na10 O40 2.362020 1_655
Na10 O39 2.402741 1_665
Na10 O41 2.436783 1_555
Na10 O46 2.576906 1_566
Na10 O45 2.599532 1_556
Na10 O47 2.602957 1_666
Na11 O56 2.414533 1_555
Na11 O55 2.435269 1_555
Na11 O54 2.456645 1_555
Na11 O48 2.558606 1_555
Na11 O50 2.578885 1_555
Na11 O49 2.607154 1_555
Na12 O57 2.448618 1_555
Na12 O59 2.457138 1_555
Na12 O52 2.506940 1_555
Na12 O58 2.542704 1_555
Na12 O51 2.638140 1_555
Na12 O53 2.641166 1_555
Na13 O60 2.394977 1_555
Na13 O62 2.431354 1_555
Na13 O67 2.497164 1_555
Na13 O68 2.514779 1_555
Na13 O61 2.555493 1_555
Na13 O66 2.624969 1_555
Na14 O64 2.471753 1_555
Na14 O65 2.476437 1_555
Na14 O63 2.484427 1_555
Na14 O70 2.535585 1_555
Na14 O71 2.546618 1_555
Na14 O69 2.551633 1_555
Mg0 O2 1.982108 1_565
Mg0 O1 2.006699 1_555
Mg0 O37 2.051691 1_555
Mg0 O38 2.072217 1_665
Mg0 O0 2.077581 1_665
Mg0 O36 2.106848 1_655
Mg1 O3 1.961795 1_555
Mg1 O4 1.994183 1_445
Mg1 O5 2.003095 1_455
Mg1 O39 2.019533 1_555
Mg1 O40 2.038113 1_545
Mg1 O41 2.088740 1_445
Mg2 O13 2.004006 1_555
Mg2 O12 2.022181 1_555
Mg2 O14 2.025668 1_555
Mg2 O49 2.077094 1_555
Mg2 O50 2.080093 1_555
Mg2 O48 2.119848 1_555
Mg3 O15 1.934221 1_555
Mg3 O17 1.970939 1_555
Mg3 O16 1.980342 1_555
Mg3 O51 2.047834 1_555
Mg3 O52 2.083280 1_555
Mg3 O53 2.124620 1_555
Mg4 O25 1.956713 1_554
Mg4 O26 1.970918 1_554
Mg4 O24 1.976133 1_554
Mg4 O62 2.040335 1_555
Mg4 O60 2.074304 1_555
Mg4 O61 2.078140 1_555
Mg5 O30 1.999288 1_555
Mg5 O31 2.026626 1_555
Mg5 O32 2.053461 1_555
Mg5 O67 2.131746 1_555
Mg5 O68 2.151891 1_555
Mg5 O66 2.179190 1_555
Ge0 O6 1.957802 1_445
Ge0 O43 1.966426 1_555
Ge0 O8 1.967905 1_545
Ge0 O42 1.968452 1_455
Ge0 O7 1.972276 1_555
Ge0 O44 1.992217 1_445
Ge1 O9 1.859311 1_555
Ge1 O46 1.885420 1_565
Ge1 O10 1.900443 1_665
Ge1 O45 1.924555 1_555
Ge1 O47 1.989473 1_665
Ge1 O11 2.118780 1_655
Ge2 O55 1.911281 1_555
Ge2 O20 1.918585 1_556
Ge2 O56 1.927782 1_555
Ge2 O18 1.956898 1_556
Ge2 O19 1.959120 1_556
Ge2 O54 2.116201 1_555
Ge3 O23 1.832754 1_555
Ge3 O21 1.897963 1_555
Ge3 O57 1.903902 1_555
Ge3 O59 1.935821 1_555
Ge3 O22 1.941178 1_555
Ge3 O58 2.217948 1_555
Ge4 O27 1.859491 1_555
Ge4 O29 1.862113 1_555
Ge4 O63 1.871159 1_555
Ge4 O65 1.907598 1_555
Ge4 O64 1.943596 1_555
Ge4 O28 2.061504 1_555
Ge5 O33 1.881614 1_555
Ge5 O34 1.882163 1_555
Ge5 O70 1.999786 1_555
Ge5 O71 2.029012 1_555
Ge5 O35 2.043970 1_555
Ge5 O69 2.047432 1_555
O0 S0 1.448691 1_555
O1 P0 1.518510 1_555
O2 P1 1.505782 1_555
O3 P2 1.491103 1_555
O4 P3 1.492561 1_655
O5 P4 1.492618 1_545
O6 P4 1.593075 1_555
O7 P2 1.590557 1_555
O8 P3 1.588685 1_555
O9 P0 1.597524 1_555
O10 P1 1.615456 1_455
O11 S0 1.516219 1_565
O12 P5 1.506226 1_555
O13 P6 1.506773 1_555
O14 P7 1.508552 1_555
O15 P8 1.515958 1_555
O16 P9 1.518605 1_555
O17 P10 1.510998 1_555
O18 P10 1.577956 1_555
O19 P8 1.563610 1_555
O20 P9 1.575896 1_555
O21 P6 1.570830 1_555
O22 P7 1.585472 1_555
O23 P5 1.571169 1_555
O24 S1 1.440551 1_555
O25 P11 1.506733 1_555
O26 P12 1.505875 1_555
O27 P13 1.572747 1_555
O28 S2 1.483297 1_555
O29 P14 1.550388 1_555
O30 P14 1.525950 1_555
O31 P13 1.530004 1_555
O32 S2 1.489311 1_555
O33 P11 1.622296 1_555
O34 P12 1.624802 1_555
O35 S1 1.545977 1_555
O36 P14 1.532320 1_555
O37 P13 1.531155 1_555
O38 S2 1.462073 1_555
O39 P11 1.505253 1_555
O40 P12 1.506927 1_555
O41 S1 1.458073 1_555
O42 P5 1.562502 1_555
O43 P6 1.567168 1_555
O44 P7 1.572565 1_555
O45 P8 1.589563 1_555
O46 P9 1.587725 1_555
O47 P10 1.616456 1_555
O48 P4 1.535355 1_545
O49 P2 1.534433 1_555
O50 P3 1.533555 1_655
O51 P0 1.536675 1_555
O52 P1 1.540605 1_555
O53 S0 1.483158 1_555
O54 S1 1.507567 1_555
O55 P11 1.596318 1_655
O56 P12 1.596699 1_545
O57 P13 1.571957 1_545
O58 S2 1.505923 1_555
O59 P14 1.605252 1_655
O60 P10 1.519582 1_555
O61 P8 1.535305 1_455
O62 P9 1.513834 1_565
O63 P6 1.573638 1_565
O64 P7 1.569664 1_555
O65 P5 1.566063 1_455
O66 S0 1.489809 1_565
O67 P0 1.544069 1_555
O68 P1 1.545064 1_455
O69 P2 1.603675 1_555
O70 P3 1.607956 1_555
O71 P4 1.604851 1_555
