# generated using pymatgen
data_Rb2SnTe5
_symmetry_space_group_name_H-M   'P 1'
_cell_length_a   8.83535055
_cell_length_b   8.83550161
_cell_length_c   9.96762861
_cell_angle_alpha   116.01071615
_cell_angle_beta   116.01157471
_cell_angle_gamma   90.18067910
_symmetry_Int_Tables_number   1
_chemical_formula_structural   Rb2SnTe5
_chemical_formula_sum   'Rb4 Sn2 Te10'
_cell_volume   609.78633968
_cell_formula_units_Z   2
loop_
 _symmetry_equiv_pos_site_id
 _symmetry_equiv_pos_as_xyz
  1  'x, y, z'
loop_
 _atom_site_type_symbol
 _atom_site_label
 _atom_site_symmetry_multiplicity
 _atom_site_fract_x
 _atom_site_fract_y
 _atom_site_fract_z
 _atom_site_occupancy
  Rb  Rb0  1  0.24595828  0.24697460  0.49298254  1
  Rb  Rb1  1  0.74697924  0.74595546  0.49298581  1
  Rb  Rb2  1  0.99638520  0.99640108  0.99280500  1
  Rb  Rb3  1  0.49640180  0.49638197  0.99280324  1
  Sn  Sn0  1  0.74668235  0.24667905  0.49404463  1
  Sn  Sn1  1  0.24655990  0.74655885  0.49280035  1
  Te  Te0  1  0.46133375  0.96133046  0.27096604  1
  Te  Te1  1  0.30759457  0.46074385  0.26812513  1
  Te  Te2  1  0.96074359  0.80759654  0.26812367  1
  Te  Te3  1  0.80686816  0.30687095  0.26702435  1
  Te  Te4  1  0.18612583  0.68612848  0.71952042  1
  Te  Te5  1  0.03259854  0.18604723  0.71900433  1
  Te  Te6  1  0.68604112  0.53259692  0.71899929  1
  Te  Te7  1  0.53202422  0.03202708  0.71536038  1
  Te  Te8  1  0.49686929  0.99687051  0.99326320  1
  Te  Te9  1  0.99703217  0.49703497  0.99359363  1
loop_
_geom_bond_atom_site_label_1
_geom_bond_atom_site_label_2
_geom_bond_distance
_geom_bond_site_symmetry_2
Rb0 Te1 3.696533 1_555
Rb0 Te5 3.701531 1_555
Rb0 Te0 3.703142 1_545
Rb0 Te7 3.703631 1_555
Rb0 Te2 3.714499 1_445
Rb0 Te3 3.714551 1_455
Rb0 Te4 3.716063 1_555
Rb0 Te6 3.719028 1_555
Rb1 Te2 3.696549 1_555
Rb1 Te6 3.701498 1_555
Rb1 Te0 3.703132 1_555
Rb1 Te7 3.703715 1_565
Rb1 Te1 3.714485 1_555
Rb1 Te3 3.714577 1_555
Rb1 Te4 3.715902 1_655
Rb1 Te5 3.719121 1_665
Rb2 Te5 3.889948 1_665
Rb2 Te2 3.896529 1_556
Rb2 Te4 3.902640 1_655
Rb2 Te3 3.907270 1_566
Rb2 Te6 3.913596 1_555
Rb2 Te1 3.919078 1_666
Rb2 Te7 3.924241 1_565
Rb2 Te0 3.928152 1_656
Rb3 Te6 3.889933 1_555
Rb3 Te1 3.896558 1_556
Rb3 Te4 3.902641 1_555
Rb3 Te3 3.907189 1_556
Rb3 Te5 3.913516 1_555
Rb3 Te2 3.919043 1_556
Rb3 Te7 3.924276 1_555
Rb3 Te0 3.928239 1_556
Sn0 Te0 2.789778 1_545
Sn0 Te5 2.791106 1_655
Sn0 Te6 2.791188 1_555
Sn0 Te3 2.792001 1_555
Sn1 Te7 2.790908 1_565
Sn1 Te2 2.791198 1_455
Sn1 Te1 2.791222 1_555
Sn1 Te4 2.791422 1_555
Te0 Te8 3.063206 1_554
Te1 Te9 3.051119 1_454
Te2 Te9 3.051154 1_554
Te3 Te8 3.048282 1_544
Te4 Te8 3.054876 1_555
Te5 Te9 3.050194 1_455
Te6 Te9 3.050159 1_555
Te7 Te8 3.061823 1_545
