# generated using pymatgen
data_Na8MgW2(NO)4
_symmetry_space_group_name_H-M   'P 1'
_cell_length_a   6.03412300
_cell_length_b   6.09703835
_cell_length_c   9.36825918
_cell_angle_alpha   87.18805821
_cell_angle_beta   71.38255537
_cell_angle_gamma   68.17741828
_symmetry_Int_Tables_number   1
_chemical_formula_structural   Na8MgW2(NO)4
_chemical_formula_sum   'Na8 Mg1 W2 N4 O4'
_cell_volume   302.26818820
_cell_formula_units_Z   1
loop_
 _symmetry_equiv_pos_site_id
 _symmetry_equiv_pos_as_xyz
  1  'x, y, z'
loop_
 _atom_site_type_symbol
 _atom_site_label
 _atom_site_symmetry_multiplicity
 _atom_site_fract_x
 _atom_site_fract_y
 _atom_site_fract_z
 _atom_site_occupancy
  Na  Na0  1  0.27140899  0.76821399  0.03600032  1
  Na  Na1  1  0.78751759  0.26358770  0.01244740  1
  Na  Na2  1  0.92549170  0.75195659  0.40070631  1
  Na  Na3  1  0.90487553  0.23697671  0.58577063  1
  Na  Na4  1  0.37670856  0.78203028  0.69424979  1
  Na  Na5  1  0.49652431  0.17546259  0.46085054  1
  Na  Na6  1  0.71542908  0.80372846  0.12737905  1
  Na  Na7  1  0.39306493  0.29597519  0.82634995  1
  Mg  Mg0  1  0.41508220  0.61807090  0.36903493  1
  W  W0  1  0.87803256  0.71951135  0.73911510  1
  W  W1  1  0.12988963  0.24910282  0.24869198  1
  N  N0  1  0.29467025  0.97805668  0.34108801  1
  N  N1  1  0.18098428  0.55557463  0.58855897  1
  N  N2  1  0.78616776  0.43401064  0.35406800  1
  N  N3  1  0.68660615  0.96088455  0.65216534  1
  O  O0  1  0.68151627  0.52622394  0.81365407  1
  O  O1  1  0.18761000  0.17722365  0.03363245  1
  O  O2  1  0.32903920  0.46770569  0.21321327  1
  O  O3  1  0.96563100  0.83987062  0.88873787  1
loop_
_geom_bond_atom_site_label_1
_geom_bond_atom_site_label_2
_geom_bond_distance
_geom_bond_site_symmetry_2
Na0 O1 2.353550 1_565
Na0 O2 2.414660 1_555
Na0 O3 2.542711 1_454
Na0 O0 2.633513 1_554
Na1 O1 2.344271 1_655
Na1 O0 2.479541 1_554
Na1 O3 2.570311 1_544
Na1 O2 2.662245 1_555
Na2 O2 2.539393 1_655
Na3 O0 2.499880 1_555
Na4 O0 2.465038 1_555
Na4 O3 2.474663 1_455
Na6 O3 2.317315 1_554
Na7 O1 2.196436 1_556
Na7 O0 2.585049 1_555
Mg0 O2 2.051856 1_555
Mg0 N2 2.059053 1_555
Mg0 N0 2.072020 1_555
Mg0 N1 2.199641 1_555
N0 W1 1.912183 1_565
N0 Na5 2.507180 1_565
N0 Na6 2.557551 1_555
N0 Na3 2.725946 1_465
N0 Na2 2.930530 1_455
N1 W0 1.861122 1_455
N1 Na5 2.442258 1_555
N1 Na4 2.524809 1_555
N1 Na2 2.657192 1_455
N1 Na3 2.998116 1_455
N1 Na7 3.012285 1_555
N2 W1 1.900192 1_655
N2 Na2 2.486934 1_555
N2 Na3 2.600986 1_555
N2 Na5 2.705102 1_555
N3 W0 1.839256 1_555
N3 Na7 2.401131 1_565
N3 Na4 2.417535 1_555
N3 Na3 2.444937 1_565
N3 Na2 2.451755 1_555
N3 Na5 2.491252 1_565
O0 W0 1.926676 1_555
O1 W1 1.974241 1_555
O2 W1 2.055058 1_555
O3 W0 1.909205 1_555
