# generated using pymatgen
data_Ba3NiO4
_symmetry_space_group_name_H-M   'P 1'
_cell_length_a   7.24463800
_cell_length_b   7.24463762
_cell_length_c   7.24463806
_cell_angle_alpha   66.61914453
_cell_angle_beta   66.61915161
_cell_angle_gamma   66.61914367
_symmetry_Int_Tables_number   1
_chemical_formula_structural   Ba3NiO4
_chemical_formula_sum   'Ba6 Ni2 O8'
_cell_volume   307.15281516
_cell_formula_units_Z   2
loop_
 _symmetry_equiv_pos_site_id
 _symmetry_equiv_pos_as_xyz
  1  'x, y, z'
loop_
 _atom_site_type_symbol
 _atom_site_label
 _atom_site_symmetry_multiplicity
 _atom_site_fract_x
 _atom_site_fract_y
 _atom_site_fract_z
 _atom_site_occupancy
  Ba  Ba0  1  0.75000000  0.33509100  0.16491000  1
  Ba  Ba1  1  0.16491000  0.75000000  0.33509000  1
  Ba  Ba2  1  0.25000100  0.66491000  0.83509000  1
  Ba  Ba3  1  0.66491000  0.83509000  0.25000000  1
  Ba  Ba4  1  0.83509000  0.25000000  0.66491000  1
  Ba  Ba5  1  0.33509100  0.16490900  0.75000000  1
  Ni  Ni0  1  0.75000000  0.74999900  0.75000000  1
  Ni  Ni1  1  0.25000100  0.25000000  0.24999900  1
  O  O0  1  0.75000000  0.98275300  0.51724600  1
  O  O1  1  0.48275300  0.25000000  0.01724800  1
  O  O2  1  0.00000000  0.00000000  0.00000000  1
  O  O3  1  0.50000000  0.49999900  0.50000000  1
  O  O4  1  0.01724700  0.48275200  0.25000000  1
  O  O5  1  0.51724800  0.74999900  0.98275200  1
  O  O6  1  0.25000000  0.01724700  0.48275200  1
  O  O7  1  0.98275200  0.51724700  0.75000000  1
loop_
_geom_bond_atom_site_label_1
_geom_bond_atom_site_label_2
_geom_bond_distance
_geom_bond_site_symmetry_2
Ba0 O3 2.774121 1_555
Ba0 O2 2.774134 1_655
Ba0 O0 2.803534 1_545
Ba0 O5 2.866185 1_554
Ba0 O7 2.866191 1_554
Ba0 O4 2.896097 1_655
Ba0 O1 2.896106 1_555
Ba1 O2 2.774128 1_565
Ba1 O3 2.774129 1_555
Ba1 O5 2.803542 1_554
Ba1 O0 2.866193 1_455
Ba1 O7 2.866197 1_455
Ba1 O6 2.896102 1_565
Ba1 O4 2.896114 1_555
Ba2 O2 2.774129 1_566
Ba2 O3 2.774131 1_555
Ba2 O6 2.803538 1_565
Ba2 O1 2.866194 1_556
Ba2 O4 2.866200 1_556
Ba2 O5 2.896097 1_555
Ba2 O7 2.896120 1_455
Ba3 O2 2.774129 1_665
Ba3 O3 2.774134 1_555
Ba3 O4 2.803537 1_655
Ba3 O1 2.866192 1_565
Ba3 O6 2.866193 1_565
Ba3 O0 2.896101 1_555
Ba3 O5 2.896113 1_554
Ba4 O3 2.774127 1_555
Ba4 O2 2.774128 1_656
Ba4 O1 2.803538 1_556
Ba4 O4 2.866193 1_655
Ba4 O6 2.866197 1_655
Ba4 O7 2.896102 1_555
Ba4 O0 2.896112 1_545
Ba5 O3 2.774125 1_555
Ba5 O2 2.774131 1_556
Ba5 O7 2.803545 1_455
Ba5 O0 2.866191 1_545
Ba5 O5 2.866192 1_545
Ba5 O1 2.896113 1_556
Ba5 O6 2.896113 1_555
Ni0 O7 1.852000 1_555
Ni0 O5 1.852000 1_555
Ni0 O0 1.852016 1_555
Ni1 O1 1.851996 1_555
Ni1 O4 1.852008 1_555
Ni1 O6 1.852008 1_555
