# generated using pymatgen
data_Na10Zn6Si3Sn2(S3O16)3
_symmetry_space_group_name_H-M   'P 1'
_cell_length_a   17.86991982
_cell_length_b   8.97581605
_cell_length_c   22.61782690
_cell_angle_alpha   90.29048548
_cell_angle_beta   89.72482849
_cell_angle_gamma   120.09193815
_symmetry_Int_Tables_number   1
_chemical_formula_structural   Na10Zn6Si3Sn2(S3O16)3
_chemical_formula_sum   'Na30 Zn18 Si9 Sn6 S27 O144'
_cell_volume   3138.83077271
_cell_formula_units_Z   3
loop_
 _symmetry_equiv_pos_site_id
 _symmetry_equiv_pos_as_xyz
  1  'x, y, z'
loop_
 _atom_site_type_symbol
 _atom_site_label
 _atom_site_symmetry_multiplicity
 _atom_site_fract_x
 _atom_site_fract_y
 _atom_site_fract_z
 _atom_site_occupancy
  Na  Na0  1  0.31613726  0.00336006  0.24640799  1
  Na  Na1  1  0.18720717  0.35950667  0.24903870  1
  Na  Na2  1  0.49774459  0.63324145  0.25215984  1
  Na  Na3  1  0.31046823  0.62040924  0.74537166  1
  Na  Na4  1  0.81564089  0.62964555  0.74622103  1
  Na  Na5  1  0.00083712  0.35968145  0.75162059  1
  Na  Na6  1  0.18400244  0.01167340  0.75362735  1
  Na  Na7  1  0.68792198  0.01613230  0.74906757  1
  Na  Na8  1  0.15850494  0.34774084  0.58641562  1
  Na  Na9  1  0.82990709  0.70119819  0.08187719  1
  Na  Na10  1  0.48189907  0.65744891  0.91749981  1
  Na  Na11  1  0.35207527  0.03954296  0.91726317  1
  Na  Na12  1  0.85451726  0.04036635  0.91902677  1
  Na  Na13  1  0.66205298  0.30026678  0.91713063  1
  Na  Na14  1  0.98094868  0.30489912  0.41627738  1
  Na  Na15  1  0.16156098  0.02322433  0.41619239  1
  Na  Na16  1  0.35428089  0.66810103  0.41998242  1
  Na  Na17  1  0.85192203  0.66459321  0.41629063  1
  Na  Na18  1  0.99570122  0.98259482  0.49817796  1
  Na  Na19  1  0.50303238  0.00250398  0.49990291  1
  Na  Na20  1  0.00696467  0.01249873  0.99872525  1
  Na  Na21  1  0.49932011  0.00817228  0.99896217  1
  Na  Na22  1  0.32986933  0.32952722  0.83407324  1
  Na  Na23  1  0.83487334  0.33368583  0.83071339  1
  Na  Na24  1  0.33465241  0.33462720  0.33056728  1
  Na  Na25  1  0.83097321  0.33249826  0.33303163  1
  Na  Na26  1  0.16418089  0.67060105  0.16271879  1
  Na  Na27  1  0.67262753  0.68160774  0.16335309  1
  Na  Na28  1  0.17142178  0.66526308  0.66258942  1
  Na  Na29  1  0.66453026  0.65725264  0.66234517  1
  Zn  Zn0  1  0.00178140  0.97781270  0.34746910  1
  Zn  Zn1  1  0.50359574  0.99938616  0.34912922  1
  Zn  Zn2  1  0.00602523  0.01978664  0.84687306  1
  Zn  Zn3  1  0.50432064  0.02722775  0.84878435  1
  Zn  Zn4  1  0.32969137  0.34445147  0.67911184  1
  Zn  Zn5  1  0.82597896  0.31800351  0.68427545  1
  Zn  Zn6  1  0.32654857  0.33389045  0.18430204  1
  Zn  Zn7  1  0.83237426  0.32033575  0.17907897  1
  Zn  Zn8  1  0.33307956  0.32953611  0.98271062  1
  Zn  Zn9  1  0.84366788  0.33009508  0.99195217  1
  Zn  Zn10  1  0.34615496  0.35564129  0.49184448  1
  Zn  Zn11  1  0.83234455  0.33597238  0.48211001  1
  Zn  Zn12  1  0.16425513  0.66352879  0.01534822  1
  Zn  Zn13  1  0.66367248  0.66630883  0.02057208  1
  Zn  Zn14  1  0.16909174  0.67762057  0.51977938  1
  Zn  Zn15  1  0.66315837  0.66342160  0.51560806  1
  Zn  Zn16  1  0.67104592  0.66713350  0.32028255  1
  Zn  Zn17  1  0.16466549  0.65011891  0.81974002  1
  Si  Si0  1  0.14616220  0.00289919  0.25031991  1
  Si  Si1  1  0.35434482  0.70695808  0.25400052  1
  Si  Si2  1  0.15034988  0.29681103  0.75070162  1
  Si  Si3  1  0.64597807  0.28947612  0.75030521  1
  Si  Si4  1  0.85219753  0.00031016  0.75438390  1
  Si  Si5  1  0.33259764  0.63383712  0.58238725  1
  Si  Si6  1  0.83002481  0.03450192  0.08288079  1
  Si  Si7  1  0.51938902  0.37471057  0.92087783  1
  Si  Si8  1  0.01923192  0.66443741  0.42100440  1
  Sn  Sn0  1  0.99531402  0.00115433  0.65195325  1
  Sn  Sn1  1  0.50038506  0.00569964  0.64540844  1
  Sn  Sn2  1  0.00052224  0.00213845  0.14814584  1
  Sn  Sn3  1  0.49728893  0.99545210  0.15010400  1
  Sn  Sn4  1  0.16168279  0.67240548  0.31396612  1
  Sn  Sn5  1  0.66229576  0.65153822  0.81471746  1
  S  S0  1  0.64825067  0.00280927  0.25129004  1
  S  S1  1  0.84940388  0.69859171  0.25011181  1
  S  S2  1  0.99719798  0.29025772  0.25263775  1
  S  S3  1  0.50351639  0.29542214  0.25072272  1
  S  S4  1  0.00073526  0.70908160  0.75088151  1
  S  S5  1  0.49932988  0.70860639  0.75186075  1
  S  S6  1  0.35294633  0.00236362  0.75071965  1
  S  S7  1  0.48090304  0.33714040  0.58404307  1
  S  S8  1  0.97779456  0.33080942  0.58372716  1
  S  S9  1  0.18504148  0.03681902  0.58423517  1
  S  S10  1  0.68802969  0.03791014  0.58207483  1
  S  S11  1  0.83335559  0.62888758  0.58398106  1
  S  S12  1  0.47871562  0.62644611  0.08461665  1
  S  S13  1  0.98157652  0.62568234  0.08366725  1
  S  S14  1  0.33319043  0.03771851  0.08360255  1
  S  S15  1  0.18815094  0.33846048  0.08216561  1
  S  S16  1  0.68504407  0.32807041  0.08430093  1
  S  S17  1  0.31261354  0.66537805  0.91691513  1
  S  S18  1  0.81721632  0.66570062  0.91790565  1
  S  S19  1  0.01934707  0.37492432  0.91717403  1
  S  S20  1  0.16423405  0.95455724  0.91656021  1
  S  S21  1  0.66647328  0.96049331  0.91646925  1
  S  S22  1  0.31634111  0.96660309  0.41777818  1
  S  S23  1  0.81118113  0.95784929  0.41704689  1
  S  S24  1  0.16618428  0.37227548  0.41676640  1
  S  S25  1  0.66397614  0.37160385  0.41677887  1
  S  S26  1  0.52109023  0.66630021  0.41558820  1
  O  O0  1  0.11014346  0.04824775  0.30928516  1
  O  O1  1  0.60686162  0.02881735  0.30330030  1
  O  O2  1  0.41293469  0.79210367  0.31167040  1
  O  O3  1  0.90211496  0.78021452  0.30366799  1
  O  O4  1  0.48771223  0.18420376  0.30209240  1
  O  O5  1  0.98609886  0.18888942  0.30623947  1
  O  O6  1  0.10720289  0.16443279  0.80431905  1
  O  O7  1  0.61052805  0.17222046  0.80901611  1
  O  O8  1  0.48481622  0.78494166  0.80573973  1
  O  O9  1  0.98296510  0.78481680  0.80253502  1
  O  O10  1  0.40322476  0.02363416  0.80507481  1
  O  O11  1  0.90840647  0.03012369  0.81299592  1
  O  O12  1  0.39234435  0.96359409  0.69815731  1
  O  O13  1  0.88799273  0.94197450  0.69553016  1
  O  O14  1  0.08827701  0.21699501  0.68899580  1
  O  O15  1  0.58418924  0.20077771  0.69222081  1
  O  O16  1  0.01838768  0.81906033  0.69585541  1
  O  O17  1  0.51534882  0.81948813  0.69862816  1
  O  O18  1  0.39259588  0.83693617  0.19552398  1
  O  O19  1  0.88978923  0.80914757  0.19550572  1
  O  O20  1  0.01507458  0.21382775  0.19877819  1
  O  O21  1  0.51927445  0.21937994  0.19531456  1
  O  O22  1  0.08471135  0.96848134  0.19196588  1
  O  O23  1  0.59052988  0.96610500  0.19632444  1
  O  O24  1  0.43968518  0.35622011  0.63750461  1
  O  O25  1  0.93744617  0.35038005  0.63799101  1
  O  O26  1  0.23561416  0.11731026  0.63819126  1
  O  O27  1  0.73628002  0.11082708  0.63773979  1
  O  O28  1  0.31500899  0.51924046  0.64178452  1
  O  O29  1  0.82406746  0.52985322  0.63812108  1
  O  O30  1  0.43783911  0.52520472  0.13860513  1
  O  O31  1  0.94139949  0.52547250  0.13762578  1
  O  O32  1  0.32393621  0.11871704  0.13819599  1
  O  O33  1  0.81719808  0.12174458  0.14087864  1
  O  O34  1  0.23663119  0.36253435  0.13790091  1
  O  O35  1  0.73935617  0.35632085  0.13672453  1
  O  O36  1  0.22905907  0.30843756  0.03039350  1
  O  O37  1  0.72109864  0.29960912  0.02911438  1
  O  O38  1  0.42691914  0.55445092  0.03066970  1
  O  O39  1  0.92590617  0.55418849  0.03065659  1
  O  O40  1  0.34742301  0.14165073  0.02992120  1
  O  O41  1  0.85069474  0.14049346  0.02103037  1
  O  O42  1  0.22297398  0.14447731  0.53035761  1
  O  O43  1  0.72916477  0.14945292  0.53037926  1
  O  O44  1  0.34912137  0.55581872  0.52148975  1
  O  O45  1  0.84770741  0.55317939  0.52987619  1
  O  O46  1  0.42806389  0.30152959  0.52976638  1
  O  O47  1  0.92629720  0.30206428  0.52997216  1
  O  O48  1  0.27231022  0.69859971  0.96873466  1
  O  O49  1  0.77630683  0.69704510  0.96980762  1
  O  O50  1  0.07345957  0.46035827  0.96935882  1
  O  O51  1  0.58752803  0.46758494  0.97356241  1
  O  O52  1  0.15453949  0.84881073  0.96929672  1
  O  O53  1  0.65455828  0.85125802  0.96813958  1
  O  O54  1  0.27533684  0.85149259  0.46788426  1
  O  O55  1  0.77241180  0.84608870  0.46935825  1
  O  O56  1  0.15459351  0.45482504  0.46935450  1
  O  O57  1  0.65173392  0.45266097  0.47030233  1
  O  O58  1  0.08703436  0.70769301  0.47365765  1
  O  O59  1  0.57406157  0.68833112  0.46834325  1
  O  O60  1  0.05823933  0.61532890  0.36035208  1
  O  O61  1  0.56037821  0.64418292  0.36016417  1
  O  O62  1  0.26184248  0.88979901  0.36127885  1
  O  O63  1  0.75952527  0.88001676  0.36274825  1
  O  O64  1  0.18353494  0.48354498  0.36200959  1
  O  O65  1  0.68147099  0.48245980  0.36338761  1
  O  O66  1  0.05728219  0.47369012  0.86173448  1
  O  O67  1  0.55815389  0.50116645  0.86039794  1
  O  O68  1  0.18077740  0.87875745  0.86150178  1
  O  O69  1  0.68351322  0.88464759  0.86100433  1
  O  O70  1  0.26334118  0.64245265  0.86159909  1
  O  O71  1  0.76137723  0.63378108  0.86230551  1
  O  O72  1  0.00768311  0.83490334  0.41361899  1
  O  O73  1  0.51039820  0.82124204  0.41296354  1
  O  O74  1  0.40246902  0.98376994  0.40991872  1
  O  O75  1  0.90040486  0.97935422  0.41079559  1
  O  O76  1  0.08574605  0.20251821  0.41072482  1
  O  O77  1  0.58650197  0.19864898  0.40960846  1
  O  O78  1  0.00891347  0.19903700  0.91445006  1
  O  O79  1  0.50760586  0.18089244  0.91383537  1
  O  O80  1  0.08615368  0.97047276  0.91181660  1
  O  O81  1  0.58573661  0.96855596  0.91105112  1
  O  O82  1  0.40171642  0.82197759  0.91144862  1
  O  O83  1  0.90265331  0.82113591  0.90993813  1
  O  O84  1  0.49024037  0.17745120  0.58730412  1
  O  O85  1  0.98873587  0.16940354  0.58672637  1
  O  O86  1  0.09559084  0.02677145  0.58873845  1
  O  O87  1  0.59930829  0.02223978  0.58687896  1
  O  O88  1  0.42290249  0.82781785  0.58919912  1
  O  O89  1  0.91681553  0.80776567  0.58803635  1
  O  O90  1  0.48846511  0.80818013  0.08925693  1
  O  O91  1  0.98798420  0.80226998  0.08808847  1
  O  O92  1  0.41650031  0.02553036  0.08751665  1
  O  O93  1  0.91988461  0.00808290  0.08985294  1
  O  O94  1  0.09926834  0.17682006  0.08719171  1
  O  O95  1  0.59494839  0.16535877  0.09039777  1
  O  O96  1  0.34489676  0.15621433  0.74265584  1
  O  O97  1  0.84584639  0.17257178  0.74428795  1
  O  O98  1  0.24630334  0.31486182  0.74512177  1
  O  O99  1  0.74408182  0.32152220  0.74309312  1
  O  O100  1  0.42461808  0.53460510  0.74456184  1
  O  O101  1  0.92435317  0.53504534  0.74194580  1
  O  O102  1  0.34632085  0.52007497  0.24439788  1
  O  O103  1  0.84288496  0.52883922  0.24216754  1
  O  O104  1  0.42430158  0.30925734  0.24308337  1
  O  O105  1  0.92367390  0.31787362  0.24532479  1
  O  O106  1  0.24416580  0.16746052  0.24320743  1
  O  O107  1  0.73348200  0.15753495  0.24412208  1
  O  O108  1  0.32275612  0.51187521  0.92323001  1
  O  O109  1  0.82029435  0.50423261  0.92302187  1
  O  O110  1  0.42257091  0.35539101  0.92336510  1
  O  O111  1  0.93110927  0.35646325  0.92076665  1
  O  O112  1  0.24472216  0.12828106  0.92224068  1
  O  O113  1  0.74285183  0.13625321  0.92011168  1
  O  O114  1  0.31974410  0.13530299  0.42353458  1
  O  O115  1  0.82203774  0.13240950  0.42331265  1
  O  O116  1  0.24310464  0.34891705  0.41984789  1
  O  O117  1  0.74434644  0.35858537  0.42236073  1
  O  O118  1  0.43246052  0.50890302  0.41933696  1
  O  O119  1  0.92245674  0.49027951  0.42325654  1
  O  O120  1  0.17693522  0.49041322  0.07601031  1
  O  O121  1  0.67493457  0.48150304  0.08029821  1
  O  O122  1  0.06851843  0.64730423  0.07663538  1
  O  O123  1  0.56629146  0.64992590  0.08007205  1
  O  O124  1  0.25722346  0.86275517  0.07811580  1
  O  O125  1  0.74979331  0.83404709  0.07690722  1
  O  O126  1  0.17303154  0.86404845  0.57998205  1
  O  O127  1  0.67678333  0.86345561  0.57568498  1
  O  O128  1  0.24339468  0.64412163  0.57650695  1
  O  O129  1  0.75716208  0.65156059  0.57835322  1
  O  O130  1  0.06643832  0.47981252  0.57951710  1
  O  O131  1  0.56818604  0.49143355  0.57780558  1
  O  O132  1  0.15820760  0.83118619  0.25305452  1
  O  O133  1  0.65192643  0.84054843  0.25539277  1
  O  O134  1  0.25461408  0.68084525  0.25848272  1
  O  O135  1  0.76320490  0.68481422  0.25531494  1
  O  O136  1  0.08203732  0.46165619  0.25507360  1
  O  O137  1  0.57945933  0.47187555  0.25574198  1
  O  O138  1  0.15640439  0.48655885  0.75485198  1
  O  O139  1  0.65752497  0.48473383  0.75336188  1
  O  O140  1  0.08022434  0.69537586  0.75584124  1
  O  O141  1  0.58249572  0.70409237  0.75530163  1
  O  O142  1  0.26480588  0.84559831  0.75516821  1
  O  O143  1  0.75248493  0.82728537  0.75852369  1
loop_
_geom_bond_atom_site_label_1
_geom_bond_atom_site_label_2
_geom_bond_distance
_geom_bond_site_symmetry_2
Na0 O106 2.393849 1_555
Na0 O104 2.441172 1_555
Na0 O132 2.449565 1_545
Na0 O134 2.545001 1_545
Na0 O32 2.638104 1_555
Na0 O18 2.727061 1_545
Na0 O62 2.782364 1_545
Na0 O4 2.940633 1_555
Na1 O106 2.404289 1_555
Na1 O102 2.462145 1_555
Na1 O136 2.472965 1_555
Na1 O134 2.515538 1_555
Na1 O34 2.656078 1_555
Na1 O0 2.778683 1_555
Na1 O64 2.795617 1_555
Na1 O20 2.906720 1_555
Na2 O102 2.373013 1_555
Na2 O133 2.432797 1_555
Na2 O137 2.521881 1_555
Na2 O104 2.527957 1_555
Na2 O61 2.672709 1_555
Na2 O30 2.764597 1_555
Na2 O2 2.875731 1_555
Na2 O23 2.884625 1_555
Na3 O98 2.383863 1_555
Na3 O138 2.397730 1_555
Na3 O100 2.515819 1_555
Na3 O28 2.524069 1_555
Na3 O142 2.539293 1_555
Na3 O70 2.792773 1_555
Na3 O12 2.875522 1_555
Na4 O99 2.396153 1_555
Na4 O139 2.452315 1_555
Na4 O101 2.481099 1_555
Na4 O143 2.549076 1_555
Na4 O29 2.629154 1_555
Na4 O13 2.688668 1_555
Na4 O71 2.801069 1_555
Na4 O9 2.888803 1_555
Na5 O97 2.419977 1_455
Na5 O138 2.420109 1_555
Na5 O101 2.560698 1_455
Na5 O140 2.610091 1_555
Na5 O66 2.688978 1_555
Na5 O25 2.797555 1_455
Na5 O14 2.838168 1_555
Na5 O11 2.919836 1_455
Na6 O98 2.376426 1_555
Na6 O140 2.494536 1_545
Na6 O96 2.503444 1_555
Na6 O142 2.543168 1_545
Na6 O6 2.633246 1_555
Na6 O68 2.709040 1_545
Na6 O26 2.773370 1_555
Na6 O16 2.887656 1_545
Na7 O99 2.404802 1_555
Na7 O97 2.443871 1_555
Na7 O141 2.474654 1_545
Na7 O143 2.493428 1_545
Na7 O27 2.659652 1_555
Na7 O7 2.760405 1_555
Na7 O69 2.782808 1_545
Na7 O17 2.912423 1_545
Na8 O128 2.320440 1_555
Na8 O130 2.469107 1_555
Na8 O86 2.513897 1_555
Na8 O14 2.618778 1_555
Na8 O85 2.626075 1_455
Na8 O28 2.730666 1_555
Na8 O56 2.834401 1_555
Na8 O42 2.886815 1_555
Na9 O125 2.280095 1_555
Na9 O93 2.400373 1_565
Na9 O121 2.466412 1_555
Na9 O91 2.501020 1_555
Na9 O49 2.707480 1_554
Na9 O19 2.765939 1_555
Na9 O39 2.874293 1_555
Na9 O35 2.955749 1_555
Na10 O110 2.369009 1_555
Na10 O81 2.463270 1_555
Na10 O108 2.466505 1_555
Na10 O82 2.525572 1_555
Na10 O67 2.715541 1_555
Na10 O38 2.731451 1_556
Na10 O8 2.769499 1_555
Na10 O53 2.913632 1_555
Na11 O79 2.408989 1_555
Na11 O112 2.420033 1_555
Na11 O110 2.461627 1_555
Na11 O82 2.520149 1_545
Na11 O40 2.718508 1_556
Na11 O10 2.720197 1_555
Na11 O48 2.897957 1_545
Na11 O68 2.938072 1_545
Na12 O78 2.389520 1_655
Na12 O111 2.455613 1_555
Na12 O41 2.484774 1_556
Na12 O83 2.519099 1_545
Na12 O113 2.538636 1_555
Na12 O11 2.598361 1_555
Na12 O49 2.910381 1_545
Na12 O69 2.958178 1_545
Na13 O79 2.409710 1_555
Na13 O109 2.485051 1_555
Na13 O113 2.527843 1_555
Na13 O81 2.582529 1_545
Na13 O7 2.660871 1_555
Na13 O37 2.749663 1_556
Na13 O51 2.761879 1_555
Na13 O71 2.887529 1_555
Na14 O119 2.371912 1_555
Na14 O115 2.464909 1_555
Na14 O76 2.467716 1_655
Na14 O75 2.530988 1_545
Na14 O5 2.711932 1_555
Na14 O60 2.726033 1_655
Na14 O47 2.742045 1_555
Na14 O56 2.951758 1_655
Na15 O72 2.400314 1_545
Na15 O114 2.486201 1_555
Na15 O116 2.530463 1_555
Na15 O76 2.575006 1_555
Na15 O0 2.641071 1_555
Na15 O58 2.778931 1_545
Na15 O42 2.803121 1_555
Na15 O62 2.881640 1_545
Na16 O73 2.418714 1_555
Na16 O118 2.448529 1_555
Na16 O44 2.494695 1_555
Na16 O74 2.525749 1_555
Na16 O116 2.539143 1_555
Na16 O2 2.678058 1_555
Na16 O54 2.858224 1_555
Na16 O64 2.953175 1_555
Na17 O72 2.412582 1_655
Na17 O117 2.442346 1_555
Na17 O119 2.458363 1_555
Na17 O75 2.509187 1_555
Na17 O3 2.727928 1_555
Na17 O45 2.748538 1_555
Na17 O55 2.897963 1_555
Na17 O65 2.898952 1_555
Na18 O72 2.390815 1_655
Na18 O89 2.523273 1_555
Na18 O75 2.605585 1_555
Na18 O86 2.618416 1_665
Na18 O85 2.647821 1_565
Na18 O76 2.687409 1_665
Na19 O88 2.518115 1_545
Na19 O87 2.566043 1_555
Na19 O73 2.590529 1_545
Na19 O84 2.598087 1_555
Na19 O77 2.620903 1_555
Na19 O74 2.669938 1_545
Na20 O78 2.532026 1_555
Na20 O94 2.542042 1_556
Na20 O80 2.551425 1_545
Na20 O93 2.565036 1_456
Na20 O91 2.674184 1_446
Na20 O83 2.692213 1_445
Na21 O79 2.435120 1_555
Na21 O92 2.534928 1_556
Na21 O95 2.602768 1_556
Na21 O82 2.613364 1_545
Na21 O81 2.641726 1_545
Na21 O90 2.667405 1_546
Na22 O98 2.474687 1_555
Na22 O110 2.553154 1_555
Na22 O112 2.608829 1_555
Na22 O108 2.633271 1_555
Na22 O96 2.673625 1_555
Na22 O100 2.689509 1_555
Na23 O97 2.490547 1_555
Na23 O99 2.534312 1_555
Na23 O111 2.612414 1_555
Na23 O101 2.638617 1_555
Na23 O113 2.648617 1_555
Na23 O109 2.670670 1_555
Na24 O102 2.508704 1_555
Na24 O106 2.517505 1_555
Na24 O118 2.606375 1_555
Na24 O104 2.619995 1_555
Na24 O116 2.635631 1_555
Na24 O114 2.692225 1_555
Na25 O119 2.554162 1_555
Na25 O107 2.608324 1_555
Na25 O117 2.619533 1_555
Na25 O105 2.623065 1_555
Na25 O103 2.651616 1_555
Na25 O115 2.677136 1_555
Na26 O132 2.527046 1_555
Na26 O122 2.535018 1_555
Na26 O124 2.555009 1_555
Na26 O120 2.616685 1_555
Na26 O134 2.682173 1_555
Na26 O136 2.699083 1_555
Na27 O125 2.388670 1_555
Na27 O123 2.593619 1_555
Na27 O121 2.606880 1_555
Na27 O135 2.632879 1_555
Na27 O133 2.645266 1_555
Na27 O137 2.746983 1_555
Na28 O128 2.387035 1_555
Na28 O138 2.568354 1_555
Na28 O126 2.580145 1_555
Na28 O130 2.586759 1_555
Na28 O142 2.660810 1_555
Na28 O140 2.753250 1_555
Na29 O131 2.503730 1_555
Na29 O129 2.530858 1_555
Na29 O139 2.546922 1_555
Na29 O127 2.634707 1_555
Na29 O143 2.669363 1_555
Na29 O141 2.706590 1_555
O0 Si0 1.614808 1_555
O0 Zn0 1.912363 1_545
O1 S0 1.465384 1_555
O1 Zn1 2.011247 1_545
O2 Si1 1.606946 1_555
O2 Zn1 1.943887 1_555
O3 S1 1.483664 1_555
O3 Zn0 2.032416 1_655
O4 S3 1.467021 1_555
O4 Zn1 2.111221 1_545
O5 S2 1.471361 1_555
O5 Zn0 2.256201 1_645
O6 Si2 1.601226 1_555
O6 Zn2 1.876971 1_555
O7 Si3 1.615506 1_555
O7 Zn3 1.903539 1_555
O8 S5 1.479348 1_555
O8 Zn3 2.240630 1_565
O9 S4 1.460376 1_655
O9 Zn2 2.175905 1_665
O10 S6 1.480315 1_555
O10 Zn3 2.049515 1_555
O11 Si4 1.605491 1_555
O11 Zn2 1.953112 1_655
O12 S6 1.504515 1_565
O12 Sn1 2.131786 1_565
O13 Si4 1.666100 1_565
O13 Sn0 1.974143 1_565
O14 Si2 1.702748 1_555
O14 Sn0 1.996133 1_455
O15 Si3 1.643396 1_555
O15 Sn1 1.948496 1_555
O16 S4 1.522943 1_555
O16 Sn0 2.126873 1_465
O17 S5 1.498417 1_555
O17 Sn1 2.187619 1_565
O18 Si1 1.668806 1_555
O18 Sn3 1.976596 1_555
O19 S1 1.522062 1_555
O19 Sn2 2.150557 1_665
O20 S2 1.504727 1_455
O20 Sn2 2.115354 1_555
O21 S3 1.515378 1_555
O21 Sn3 2.104993 1_545
O22 Si0 1.647086 1_565
O22 Sn2 1.951939 1_565
O23 S0 1.544479 1_565
O23 Sn3 2.097178 1_555
O24 S7 1.466223 1_555
O24 Zn4 2.129625 1_555
O25 S8 1.474243 1_555
O25 Zn5 2.133224 1_555
O26 S9 1.474760 1_555
O26 Zn4 2.097212 1_555
O27 S10 1.480916 1_555
O27 Zn5 2.035320 1_555
O28 Si5 1.627080 1_555
O28 Zn4 1.916068 1_555
O29 S11 1.475915 1_555
O29 Zn5 2.189136 1_555
O30 S12 1.479018 1_555
O30 Zn6 2.132100 1_555
O31 S13 1.472780 1_555
O31 Zn7 2.113716 1_555
O32 S14 1.479903 1_555
O32 Zn6 2.170121 1_555
O33 Si6 1.597877 1_555
O33 Zn7 1.870643 1_555
O34 S15 1.485389 1_555
O34 Zn6 2.045139 1_555
O35 S16 1.474243 1_555
O35 Zn7 2.083707 1_555
O36 S15 1.471162 1_555
O36 Zn8 2.069803 1_554
O37 S16 1.480699 1_555
O37 Zn9 2.227651 1_554
O38 S12 1.471795 1_555
O38 Zn8 2.159796 1_554
O39 S13 1.484092 1_555
O39 Zn9 2.000545 1_554
O40 S14 1.476386 1_555
O40 Zn8 2.122327 1_554
O41 Si6 1.629311 1_555
O41 Zn9 1.889702 1_554
O42 S9 1.491775 1_555
O42 Zn10 2.238576 1_555
O43 S10 1.474945 1_555
O43 Zn11 2.073201 1_555
O44 Si5 1.633521 1_555
O44 Zn10 1.890329 1_555
O45 S11 1.479323 1_555
O45 Zn11 2.118564 1_555
O46 S7 1.485025 1_555
O46 Zn10 1.960403 1_555
O47 S8 1.470078 1_555
O47 Zn11 2.148608 1_555
O48 S17 1.478184 1_555
O48 Zn12 2.076880 1_556
O49 S18 1.478616 1_555
O49 Zn13 2.206773 1_556
O50 S19 1.474595 1_555
O50 Zn12 2.017429 1_556
O51 Si7 1.607327 1_555
O51 Zn13 1.929887 1_556
O52 S20 1.482653 1_555
O52 Zn12 2.046861 1_556
O53 S21 1.473888 1_555
O53 Zn13 2.116999 1_556
O54 S22 1.460651 1_555
O54 Zn14 2.108049 1_555
O55 S23 1.481017 1_555
O55 Zn15 2.093326 1_555
O56 S24 1.466029 1_555
O56 Zn14 2.197071 1_555
O57 S25 1.480149 1_555
O57 Zn15 2.065311 1_555
O58 Si8 1.604515 1_555
O58 Zn14 1.930216 1_555
O59 S26 1.476358 1_555
O59 Zn15 2.025709 1_555
O60 Si8 1.689639 1_555
O60 Sn4 1.953817 1_555
O61 S26 1.494170 1_555
O61 Zn16 2.084064 1_555
O62 S22 1.544825 1_555
O62 Sn4 2.156669 1_555
O63 S23 1.484566 1_555
O63 Zn16 2.009976 1_555
O64 S24 1.525047 1_555
O64 Sn4 2.212114 1_555
O65 S25 1.497568 1_555
O65 Zn16 2.015103 1_555
O66 S19 1.489373 1_555
O66 Zn17 2.010653 1_555
O67 Si7 1.690442 1_555
O67 Sn5 1.956892 1_555
O68 S20 1.513485 1_555
O68 Zn17 2.139423 1_555
O69 S21 1.524954 1_555
O69 Sn5 2.191749 1_555
O70 S17 1.486344 1_555
O70 Zn17 2.036856 1_555
O71 S18 1.543027 1_555
O71 Sn5 2.149857 1_555
O72 Si8 1.652629 1_555
O72 Zn0 2.012874 1_555
O73 S26 1.497185 1_555
O73 Zn1 2.208187 1_555
O74 S22 1.477838 1_555
O74 Zn1 2.213562 1_555
O75 S23 1.512918 1_555
O75 Zn0 2.309452 1_655
O76 S24 1.486616 1_555
O76 Zn0 2.307138 1_545
O77 S25 1.482360 1_555
O77 Zn1 2.145347 1_545
O78 S19 1.494961 1_555
O78 Zn2 2.195445 1_555
O79 Si7 1.651170 1_555
O79 Zn3 1.992395 1_555
O80 S20 1.476558 1_555
O80 Zn2 2.250822 1_565
O81 S21 1.486033 1_555
O81 Zn3 2.274423 1_565
O82 S17 1.510588 1_555
O82 Zn3 2.319250 1_565
O83 S18 1.474396 1_555
O83 Zn2 2.307335 1_665
O84 S7 1.526029 1_555
O84 Sn1 2.107038 1_555
O85 S8 1.557843 1_555
O85 Sn0 2.161758 1_555
O86 S9 1.558077 1_555
O86 Sn0 2.207655 1_455
O87 S10 1.523189 1_555
O87 Sn1 2.148441 1_555
O88 Si5 1.685696 1_555
O88 Sn1 1.965232 1_565
O89 S11 1.552162 1_555
O89 Sn0 2.150134 1_565
O90 S12 1.554244 1_555
O90 Sn3 2.111208 1_555
O91 S13 1.533591 1_555
O91 Sn2 2.165383 1_665
O92 S14 1.549464 1_555
O92 Sn3 2.139010 1_545
O93 Si6 1.744794 1_555
O93 Sn2 1.978304 1_655
O94 S15 1.526364 1_555
O94 Sn2 2.167241 1_555
O95 S16 1.544705 1_555
O95 Sn3 2.127068 1_545
O96 S6 1.470693 1_555
O96 Zn4 2.341555 1_555
O97 Si4 1.623430 1_555
O97 Zn5 2.039550 1_555
O98 Si2 1.643731 1_555
O98 Zn4 2.026298 1_555
O99 Si3 1.635479 1_555
O99 Zn5 1.984896 1_555
O100 S5 1.468848 1_555
O100 Zn4 2.253273 1_555
O101 S4 1.485076 1_655
O101 Zn5 2.269143 1_555
O102 Si1 1.623857 1_555
O102 Zn6 2.038286 1_555
O103 S1 1.478801 1_555
O103 Zn7 2.279665 1_555
O104 S3 1.492627 1_555
O104 Zn6 2.297936 1_555
O105 S2 1.464287 1_555
O105 Zn7 2.228749 1_555
O106 Si0 1.637201 1_555
O106 Zn6 1.992475 1_555
O107 S0 1.467510 1_555
O107 Zn7 2.197687 1_555
O108 S17 1.484683 1_555
O108 Zn8 2.202271 1_555
O109 S18 1.482770 1_555
O109 Zn9 2.394533 1_555
O110 Si7 1.650728 1_555
O110 Zn8 2.005834 1_555
O111 S19 1.502420 1_655
O111 Zn9 2.167669 1_555
O112 S20 1.505804 1_545
O112 Zn8 2.182283 1_555
O113 S21 1.482913 1_545
O113 Zn9 2.401939 1_555
O114 S22 1.489714 1_545
O114 Zn10 2.358225 1_555
O115 S23 1.485208 1_545
O115 Zn11 2.186590 1_555
O116 S24 1.492747 1_555
O116 Zn10 2.441891 1_555
O117 S25 1.504153 1_555
O117 Zn11 2.164150 1_555
O118 S26 1.505889 1_555
O118 Zn10 2.198080 1_555
O119 Si8 1.651064 1_655
O119 Zn11 2.011193 1_555
O120 S15 1.481920 1_555
O120 Zn12 2.173933 1_555
O121 S16 1.479316 1_555
O121 Zn13 2.230924 1_555
O122 S13 1.473890 1_455
O122 Zn12 2.144529 1_555
O123 S12 1.473792 1_555
O123 Zn13 2.140996 1_555
O124 S14 1.478635 1_565
O124 Zn12 2.234065 1_555
O125 Si6 1.650369 1_565
O125 Zn13 1.983595 1_555
O126 S9 1.457774 1_565
O126 Zn14 2.125750 1_555
O127 S10 1.481771 1_565
O127 Zn15 2.160884 1_555
O128 Si5 1.648310 1_555
O128 Zn14 1.979970 1_555
O129 S11 1.480299 1_555
O129 Zn15 2.247437 1_555
O130 S8 1.477298 1_455
O130 Zn14 2.253328 1_555
O131 S7 1.484733 1_555
O131 Zn15 2.148092 1_555
O132 Si0 1.661153 1_565
O132 Sn4 2.010602 1_555
O133 S0 1.493806 1_565
O133 Zn16 2.292350 1_555
O134 Si1 1.679586 1_555
O134 Sn4 2.047726 1_555
O135 S1 1.486360 1_555
O135 Zn16 2.147936 1_555
O136 S2 1.526233 1_455
O136 Sn4 2.161284 1_555
O137 S3 1.485718 1_555
O137 Zn16 2.236468 1_555
O138 Si2 1.653755 1_555
O138 Zn17 2.023339 1_555
O139 Si3 1.659886 1_555
O139 Sn5 2.006679 1_555
O140 S4 1.490750 1_555
O140 Zn17 2.274266 1_555
O141 S5 1.509277 1_555
O141 Sn5 2.182059 1_555
O142 S6 1.499453 1_565
O142 Zn17 2.294819 1_555
O143 Si4 1.679464 1_565
O143 Sn5 2.037775 1_555
