# generated using pymatgen
data_Ba7(BIr)12
_symmetry_space_group_name_H-M   'P 1'
_cell_length_a   9.31389036
_cell_length_b   9.31389036
_cell_length_c   9.31389111
_cell_angle_alpha   111.36061947
_cell_angle_beta   111.36061947
_cell_angle_gamma   111.36061254
_symmetry_Int_Tables_number   1
_chemical_formula_structural   Ba7(BIr)12
_chemical_formula_sum   'Ba7 B12 Ir12'
_cell_volume   574.36673967
_cell_formula_units_Z   1
loop_
 _symmetry_equiv_pos_site_id
 _symmetry_equiv_pos_as_xyz
  1  'x, y, z'
loop_
 _atom_site_type_symbol
 _atom_site_label
 _atom_site_symmetry_multiplicity
 _atom_site_fract_x
 _atom_site_fract_y
 _atom_site_fract_z
 _atom_site_occupancy
  Ba  Ba0  1  0.01125055  0.70805667  0.70805667  1
  Ba  Ba1  1  0.70805667  0.70805667  0.01125055  1
  Ba  Ba2  1  0.70805667  0.01125055  0.70805667  1
  Ba  Ba3  1  0.29194333  0.98874945  0.29194333  1
  Ba  Ba4  1  0.98874945  0.29194333  0.29194333  1
  Ba  Ba5  1  0.29194333  0.29194333  0.98874945  1
  Ba  Ba6  1  0.50000000  0.50000000  0.50000000  1
  B  B0  1  0.27260403  0.72739597  0.50000000  1
  B  B1  1  0.72739597  0.50000000  0.27260403  1
  B  B2  1  0.50000000  0.27260403  0.72739597  1
  B  B3  1  0.72739597  0.27260403  0.50000000  1
  B  B4  1  0.27260403  0.50000000  0.72739597  1
  B  B5  1  0.50000000  0.72739597  0.27260403  1
  B  B6  1  0.05944777  0.94055223  0.50000000  1
  B  B7  1  0.94055223  0.50000000  0.05944777  1
  B  B8  1  0.50000000  0.05944777  0.94055223  1
  B  B9  1  0.94055223  0.05944777  0.50000000  1
  B  B10  1  0.05944777  0.50000000  0.94055223  1
  B  B11  1  0.50000000  0.94055223  0.05944777  1
  Ir  Ir0  1  0.66958260  0.33041740  -0.00000000  1
  Ir  Ir1  1  0.33041740  0.00000000  0.66958260  1
  Ir  Ir2  1  -0.00000000  0.66958260  0.33041740  1
  Ir  Ir3  1  0.33041740  0.66958260  -0.00000000  1
  Ir  Ir4  1  0.66958260  -0.00000000  0.33041740  1
  Ir  Ir5  1  0.00000000  0.33041740  0.66958260  1
  Ir  Ir6  1  0.61555364  0.23555270  0.23555270  1
  Ir  Ir7  1  0.23555270  0.23555270  0.61555364  1
  Ir  Ir8  1  0.23555270  0.61555364  0.23555270  1
  Ir  Ir9  1  0.76444730  0.38444636  0.76444730  1
  Ir  Ir10  1  0.38444636  0.76444730  0.76444730  1
  Ir  Ir11  1  0.76444730  0.76444730  0.38444636  1
loop_
_geom_bond_atom_site_label_1
_geom_bond_atom_site_label_2
_geom_bond_distance
_geom_bond_site_symmetry_2
Ba0 Ir10 3.126158 1_555
Ba1 Ir11 3.126158 1_555
Ba2 Ir9 3.126158 1_555
Ba3 Ir8 3.126158 1_555
Ba4 Ir6 3.126158 1_555
Ba5 Ir7 3.126158 1_555
Ba6 Ir10 3.568505 1_555
Ba6 Ir9 3.568505 1_555
Ba6 Ir6 3.568505 1_555
Ba6 Ir8 3.568505 1_555
Ba6 Ir11 3.568505 1_555
Ba6 Ir7 3.568505 1_555
B0 Ir10 2.126177 1_555
B0 Ir8 2.126177 1_555
B0 Ir2 2.166639 1_555
B0 Ir1 2.166639 1_565
B0 Ba4 3.150463 1_455
B0 Ba2 3.150463 1_565
B0 Ba6 3.498434 1_555
B1 Ir11 2.126177 1_555
B1 Ir6 2.126177 1_555
B1 Ir2 2.166639 1_655
B1 Ir0 2.166639 1_555
B1 Ba5 3.150463 1_554
B1 Ba0 3.150464 1_655
B1 Ba6 3.498435 1_555
B2 Ir7 2.126177 1_555
B2 Ir9 2.126177 1_555
B2 Ir1 2.166639 1_555
B2 Ir0 2.166639 1_556
B2 Ba1 3.150463 1_556
B2 Ba3 3.150464 1_545
B2 Ba6 3.498435 1_555
B3 Ir9 2.126177 1_555
B3 Ir6 2.126177 1_555
B3 Ir4 2.166639 1_555
B3 Ir5 2.166639 1_655
B3 Ba3 3.150463 1_545
B3 Ba0 3.150463 1_655
B3 Ba6 3.498434 1_555
B4 Ir7 2.126177 1_555
B4 Ir10 2.126177 1_555
B4 Ir5 2.166639 1_555
B4 Ir3 2.166639 1_556
B4 Ba1 3.150463 1_556
B4 Ba4 3.150464 1_455
B4 Ba6 3.498435 1_555
B5 Ir11 2.126177 1_555
B5 Ir8 2.126177 1_555
B5 Ir4 2.166639 1_565
B5 Ir3 2.166639 1_555
B5 Ba5 3.150463 1_554
B5 Ba2 3.150464 1_565
B5 Ba6 3.498435 1_555
B6 B9 1.829180 1_465
B6 Ir1 2.147526 1_565
B6 Ir2 2.147526 1_555
B6 Ir7 2.162133 1_565
B6 Ir11 2.162133 1_455
B7 Ir0 2.147526 1_555
B7 Ir2 2.147526 1_655
B7 Ir8 2.162133 1_655
B7 Ir9 2.162133 1_554
B8 Ir0 2.147526 1_556
B8 Ir1 2.147526 1_555
B8 Ir10 2.162133 1_545
B8 Ir6 2.162133 1_556
B9 Ir5 2.147526 1_655
B9 Ir4 2.147526 1_555
B9 Ir7 2.162133 1_655
B9 Ir11 2.162133 1_545
B10 B7 1.829181 1_456
B10 Ir3 2.147526 1_556
B10 Ir5 2.147526 1_555
B10 Ir9 2.162133 1_455
B10 Ir8 2.162133 1_556
B11 B8 1.829181 1_564
B11 Ir3 2.147526 1_555
B11 Ir4 2.147526 1_565
B11 Ir6 2.162133 1_565
B11 Ir10 2.162133 1_554
