# generated using pymatgen
data_MgMn3CuO8
_symmetry_space_group_name_H-M   'P 1'
_cell_length_a   5.97124433
_cell_length_b   5.97098047
_cell_length_c   5.78705937
_cell_angle_alpha   61.97635446
_cell_angle_beta   61.97310388
_cell_angle_gamma   58.41271927
_symmetry_Int_Tables_number   1
_chemical_formula_structural   MgMn3CuO8
_chemical_formula_sum   'Mg1 Mn3 Cu1 O8'
_cell_volume   148.12556438
_cell_formula_units_Z   1
loop_
 _symmetry_equiv_pos_site_id
 _symmetry_equiv_pos_as_xyz
  1  'x, y, z'
loop_
 _atom_site_type_symbol
 _atom_site_label
 _atom_site_symmetry_multiplicity
 _atom_site_fract_x
 _atom_site_fract_y
 _atom_site_fract_z
 _atom_site_occupancy
  Mg  Mg0  1  0.00000000  0.00000000  0.50000000  1
  Mn  Mn0  1  0.50000000  0.50000000  0.00000000  1
  Mn  Mn1  1  0.50000000  0.00000000  0.50000000  1
  Mn  Mn2  1  0.00000000  0.50000000  0.50000000  1
  Cu  Cu0  1  0.50000000  0.50000000  0.50000000  1
  O  O0  1  0.23557000  0.23553400  0.29566200  1
  O  O1  1  0.70320500  0.23949900  0.27512800  1
  O  O2  1  0.23949600  0.70320300  0.27518700  1
  O  O3  1  0.26705200  0.26707100  0.70261400  1
  O  O4  1  0.73294800  0.73292900  0.29738600  1
  O  O5  1  0.76050400  0.29679700  0.72481300  1
  O  O6  1  0.29679500  0.76050100  0.72487200  1
  O  O7  1  0.76443000  0.76446600  0.70433800  1
loop_
_geom_bond_atom_site_label_1
_geom_bond_atom_site_label_2
_geom_bond_distance
_geom_bond_site_symmetry_2
Mg0 O0 2.073973 1_555
Mg0 O7 2.073973 1_445
Mg0 O2 2.154388 1_545
Mg0 O5 2.154388 1_455
Mg0 O6 2.154769 1_545
Mg0 O1 2.154769 1_455
Mn0 O1 1.984442 1_555
Mn0 O6 1.984442 1_554
Mn0 O5 1.984546 1_554
Mn0 O2 1.984546 1_555
Mn0 O0 2.334221 1_555
Mn0 O7 2.334221 1_554
Mn1 O0 1.932630 1_555
Mn1 O7 1.932630 1_545
Mn1 O4 1.937318 1_545
Mn1 O3 1.937318 1_555
Mn1 O1 1.948325 1_555
Mn1 O6 1.948325 1_545
Mn2 O0 1.932647 1_555
Mn2 O7 1.932647 1_455
Mn2 O4 1.937377 1_455
Mn2 O3 1.937377 1_555
Mn2 O2 1.948295 1_555
Mn2 O5 1.948295 1_455
Cu0 O2 2.006446 1_555
Cu0 O5 2.006446 1_555
Cu0 O6 2.006531 1_555
Cu0 O1 2.006531 1_555
Cu0 O3 2.050753 1_555
Cu0 O4 2.050753 1_555
