# generated using pymatgen
data_Na5Y2In2P5SO24
_symmetry_space_group_name_H-M   'P 1'
_cell_length_a   9.16926004
_cell_length_b   9.18071109
_cell_length_c   23.20355352
_cell_angle_alpha   90.21970191
_cell_angle_beta   90.05508923
_cell_angle_gamma   120.06034985
_symmetry_Int_Tables_number   1
_chemical_formula_structural   Na5Y2In2P5SO24
_chemical_formula_sum   'Na15 Y6 In6 P15 S3 O72'
_cell_volume   1690.54102377
_cell_formula_units_Z   3
loop_
 _symmetry_equiv_pos_site_id
 _symmetry_equiv_pos_as_xyz
  1  'x, y, z'
loop_
 _atom_site_type_symbol
 _atom_site_label
 _atom_site_symmetry_multiplicity
 _atom_site_fract_x
 _atom_site_fract_y
 _atom_site_fract_z
 _atom_site_occupancy
  Na  Na0  1  0.64901137  -0.00054673  0.25027061  1
  Na  Na1  1  0.99637093  0.36310414  0.74889852  1
  Na  Na2  1  0.36516847  0.00042654  0.75018904  1
  Na  Na3  1  0.02808413  0.69637944  0.58352051  1
  Na  Na4  1  0.66908171  0.97197248  0.58656457  1
  Na  Na5  1  0.30547736  0.97272604  0.07748178  1
  Na  Na6  1  0.02613533  0.33310214  0.08288808  1
  Na  Na7  1  0.97952922  0.66592154  0.91557090  1
  Na  Na8  1  0.70500123  0.67447447  0.42100880  1
  Na  Na9  1  0.02307190  0.01921725  0.50460461  1
  Na  Na10  1  0.99882867  0.01413462  0.99445445  1
  Na  Na11  1  0.65092655  0.32152323  0.83396624  1
  Na  Na12  1  0.69903382  0.34758202  0.33371244  1
  Na  Na13  1  0.33961675  0.63627883  0.16721076  1
  Na  Na14  1  0.35133752  0.64771289  0.66691097  1
  Y  Y0  1  -0.00026742  0.00156786  0.35275003  1
  Y  Y1  1  0.98883924  0.98904351  0.14801604  1
  Y  Y2  1  0.67306990  0.35216593  0.18339096  1
  Y  Y3  1  0.66635436  0.32241567  0.48549250  1
  Y  Y4  1  0.34073043  0.66443688  0.01294142  1
  Y  Y5  1  0.31639135  0.65847436  0.31650032  1
  In  In0  1  0.00592622  0.01012382  0.84687787  1
  In  In1  1  0.00008395  0.00155737  0.65380628  1
  In  In2  1  0.66575251  0.34316375  0.68232055  1
  In  In3  1  0.66126406  0.32505074  0.98055881  1
  In  In4  1  0.32823326  0.66877710  0.51896798  1
  In  In5  1  0.33639711  0.66898878  0.81711723  1
  P  P0  1  0.69312350  0.69681704  0.25520966  1
  P  P1  1  0.99714744  0.29873929  0.24634254  1
  P  P2  1  0.29919434  0.29968602  0.75049648  1
  P  P3  1  0.99931590  0.70100506  0.75144786  1
  P  P4  1  0.69989485  0.00100163  0.74786752  1
  P  P5  1  0.97106370  0.33386292  0.58893647  1
  P  P6  1  0.36314826  0.03040371  0.58823444  1
  P  P7  1  0.66695210  0.63792852  0.58253729  1
  P  P8  1  0.96641449  0.63119677  0.07532267  1
  P  P9  1  0.66532473  0.04013006  0.08402185  1
  P  P10  1  0.36606674  0.32831350  0.08053924  1
  P  P11  1  0.02555009  0.36176085  0.91381630  1
  P  P12  1  0.33115957  0.97092307  0.91388826  1
  P  P13  1  0.62795422  0.95989690  0.41757354  1
  P  P14  1  0.02959587  0.66848802  0.42290005  1
  S  S0  1  0.30536010  0.00162887  0.24812699  1
  S  S1  1  0.64228474  0.66703642  0.91272052  1
  S  S2  1  0.33473748  0.37256804  0.42011184  1
  O  O0  1  0.21211374  0.00808290  0.29864398  1
  O  O1  1  0.78882508  0.78042917  0.31174528  1
  O  O2  1  0.99042513  0.18833492  0.29763795  1
  O  O3  1  0.22556027  0.18505402  0.80369024  1
  O  O4  1  0.97770306  0.78243716  0.80671117  1
  O  O5  1  0.82085538  0.03194934  0.79844232  1
  O  O6  1  0.76988074  0.97492354  0.69025346  1
  O  O7  1  0.18088818  0.22204744  0.69782885  1
  O  O8  1  0.02703406  0.80994335  0.69718965  1
  O  O9  1  0.79422378  0.80661750  0.20322674  1
  O  O10  1  0.00839483  0.21829074  0.18887546  1
  O  O11  1  0.21601943  0.99221998  0.19387563  1
  O  O12  1  0.89438499  0.36441932  0.64454045  1
  O  O13  1  0.46927549  0.10989615  0.64370460  1
  O  O14  1  0.64365825  0.52836702  0.63555548  1
  O  O15  1  0.87642843  0.52039843  0.12771683  1
  O  O16  1  0.64360618  0.11639123  0.14060050  1
  O  O17  1  0.46570224  0.34567284  0.13556918  1
  O  O18  1  0.45338382  0.30939424  0.02656233  1
  O  O19  1  0.86767734  0.55425204  0.01871159  1
  O  O20  1  0.69484592  0.15697005  0.03226658  1
  O  O21  1  0.44891709  0.13762093  0.53527996  1
  O  O22  1  0.68961464  0.55890865  0.52696645  1
  O  O23  1  0.85328304  0.30573281  0.53751963  1
  O  O24  1  0.56357887  0.68399247  0.96562515  1
  O  O25  1  0.12919349  0.44474830  0.96897584  1
  O  O26  1  0.31326374  0.86454029  0.96797794  1
  O  O27  1  0.54098151  0.85173365  0.47210404  1
  O  O28  1  0.31561537  0.45289436  0.47262672  1
  O  O29  1  0.11835723  0.67463388  0.48079674  1
  O  O30  1  0.12377817  0.65403846  0.37072881  1
  O  O31  1  0.53128771  0.87077834  0.36209795  1
  O  O32  1  0.34752124  0.46974462  0.36795448  1
  O  O33  1  0.11540731  0.47349894  0.86019354  1
  O  O34  1  0.35321181  0.88609263  0.85886514  1
  O  O35  1  0.54001407  0.64926026  0.86126467  1
  O  O36  1  0.01452814  0.82955078  0.42003465  1
  O  O37  1  0.80522474  0.97489926  0.41732022  1
  O  O38  1  0.18890598  0.20027312  0.41684453  1
  O  O39  1  0.00016497  0.18253546  0.90973423  1
  O  O40  1  0.16093699  0.97113080  0.91103287  1
  O  O41  1  0.81406537  0.81827279  0.90970389  1
  O  O42  1  0.98231608  0.17122591  0.59153722  1
  O  O43  1  0.18039240  -0.00145456  0.59149756  1
  O  O44  1  0.83127609  0.81431021  0.58820887  1
  O  O45  1  0.99848232  0.81274421  0.08164176  1
  O  O46  1  0.82481560  0.02241690  0.08536177  1
  O  O47  1  0.18939054  0.16503655  0.08278641  1
  O  O48  1  0.68336022  0.16320868  0.74568687  1
  O  O49  1  0.47365046  0.31289662  0.74354735  1
  O  O50  1  0.84619622  0.51970075  0.74655400  1
  O  O51  1  0.66909713  0.51908123  0.25243554  1
  O  O52  1  0.82856582  0.30052504  0.24910129  1
  O  O53  1  0.47688982  0.15109765  0.24916633  1
  O  O54  1  0.66309730  0.51604759  0.91518087  1
  O  O55  1  0.85346729  0.35898357  0.91611675  1
  O  O56  1  0.48533571  0.15067260  0.91708365  1
  O  O57  1  0.64547036  0.13528437  0.42009937  1
  O  O58  1  0.49372389  0.36730223  0.42237174  1
  O  O59  1  0.84734402  0.51509538  0.42109875  1
  O  O60  1  0.33566087  0.47991650  0.07772412  1
  O  O61  1  0.14227910  0.64364235  0.07440856  1
  O  O62  1  0.50282610  0.86734918  0.07692589  1
  O  O63  1  0.35114033  0.85379709  0.58369217  1
  O  O64  1  0.51459215  0.66870981  0.57973170  1
  O  O65  1  0.14534461  0.49632436  0.58230452  1
  O  O66  1  0.32544069  0.85028847  0.25007173  1
  O  O67  1  0.52266415  0.69457338  0.25296441  1
  O  O68  1  0.14944337  0.47821312  0.24933324  1
  O  O69  1  0.31174520  0.47454334  0.75731321  1
  O  O70  1  0.16283959  0.68617686  0.75449884  1
  O  O71  1  0.51931068  0.84682307  0.75513995  1
loop_
_geom_bond_atom_site_label_1
_geom_bond_atom_site_label_2
_geom_bond_distance
_geom_bond_site_symmetry_2
Na0 O52 2.406859 1_555
Na0 O67 2.435860 1_545
Na0 O66 2.570491 1_545
Na0 O53 2.575093 1_555
Na0 O16 2.775737 1_555
Na0 O31 2.836382 1_545
Na0 O9 2.906568 1_545
Na0 O2 2.924969 1_555
Na1 O50 2.439196 1_555
Na1 O48 2.516467 1_555
Na1 O69 2.545685 1_655
Na1 O70 2.570060 1_655
Na1 O12 2.597183 1_555
Na1 O33 2.784561 1_655
Na1 O7 2.851457 1_655
Na1 O5 2.878062 1_555
Na2 O71 2.448904 1_545
Na2 O49 2.527369 1_555
Na2 O48 2.527891 1_555
Na2 O70 2.532922 1_545
Na2 O13 2.662457 1_555
Na2 O34 2.716282 1_545
Na2 O3 2.865923 1_555
Na2 O8 2.954253 1_545
Na3 O43 2.407191 1_565
Na3 O44 2.529311 1_455
Na3 O65 2.551102 1_555
Na3 O29 2.563599 1_555
Na3 O63 2.564048 1_555
Na3 O8 2.834197 1_555
Na4 O64 2.414211 1_555
Na4 O42 2.518519 1_565
Na4 O44 2.542683 1_555
Na4 O63 2.551633 1_555
Na4 O6 2.571714 1_555
Na4 O27 2.885222 1_555
Na4 O23 2.895254 1_565
Na4 O13 3.005596 1_565
Na5 O45 2.439255 1_455
Na5 O62 2.442190 1_555
Na5 O47 2.479241 1_565
Na5 O61 2.615535 1_555
Na5 O26 2.738555 1_554
Na5 O11 2.854214 1_555
Na5 O18 2.936027 1_565
Na6 O60 2.460800 1_555
Na6 O61 2.502785 1_555
Na6 O46 2.504624 1_455
Na6 O47 2.633520 1_555
Na6 O10 2.652251 1_555
Na6 O25 2.825799 1_554
Na6 O15 2.876931 1_455
Na6 O20 2.877421 1_455
Na7 O40 2.441840 1_655
Na7 O55 2.452350 1_555
Na7 O54 2.512377 1_555
Na7 O41 2.530557 1_555
Na7 O19 2.607800 1_556
Na7 O4 2.750173 1_555
Na7 O33 2.918018 1_655
Na7 O26 2.924660 1_655
Na8 O59 2.399530 1_555
Na8 O37 2.433461 1_555
Na8 O36 2.456579 1_655
Na8 O58 2.496870 1_555
Na8 O22 2.657249 1_555
Na8 O1 2.690423 1_555
Na9 O43 2.540399 1_555
Na9 O42 2.580390 1_455
Na9 O38 2.592606 1_555
Na9 O36 2.593400 1_545
Na9 O44 2.667419 1_445
Na9 O37 2.725639 1_445
Na10 O39 2.501834 1_655
Na10 O40 2.588383 1_645
Na10 O47 2.592207 1_656
Na10 O41 2.623974 1_545
Na10 O46 2.669807 1_556
Na10 O45 2.744820 1_546
Na11 O56 2.475510 1_555
Na11 O54 2.554826 1_555
Na11 O55 2.559124 1_555
Na11 O48 2.609257 1_555
Na11 O49 2.629346 1_555
Na11 O50 2.720605 1_555
Na12 O52 2.442088 1_555
Na12 O59 2.490277 1_555
Na12 O51 2.562377 1_555
Na12 O57 2.670356 1_555
Na12 O53 2.745106 1_555
Na12 O58 2.855677 1_555
Na13 O67 2.479568 1_555
Na13 O68 2.504017 1_555
Na13 O60 2.509647 1_555
Na13 O66 2.793063 1_555
Na13 O62 2.826342 1_555
Na13 O61 2.834024 1_555
Na14 O64 2.467726 1_555
Na14 O69 2.551137 1_555
Na14 O65 2.587529 1_555
Na14 O71 2.655086 1_555
Na14 O63 2.709198 1_555
Na14 O70 2.802707 1_555
In0 O3 2.101234 1_555
In0 O5 2.126414 1_455
In0 O39 2.168329 1_555
In0 O4 2.178930 1_445
In0 O40 2.207737 1_545
In0 O41 2.289692 1_445
In1 O7 2.123285 1_555
In1 O8 2.148867 1_545
In1 O6 2.172189 1_445
In1 O42 2.193531 1_455
In1 O43 2.207834 1_555
In1 O44 2.231025 1_445
In2 O14 2.113846 1_555
In2 O49 2.171562 1_555
In2 O13 2.179850 1_555
In2 O12 2.190074 1_555
In2 O50 2.208160 1_555
In2 O48 2.280964 1_555
In3 O20 2.098812 1_556
In3 O18 2.126960 1_556
In3 O56 2.173606 1_555
In3 O19 2.187761 1_556
In3 O55 2.213020 1_555
In3 O54 2.316724 1_555
In4 O27 2.131821 1_555
In4 O29 2.142771 1_555
In4 O63 2.192557 1_555
In4 O65 2.200310 1_555
In4 O28 2.202604 1_555
In4 O64 2.214555 1_555
In5 O34 2.147536 1_555
In5 O33 2.168038 1_555
In5 O69 2.177065 1_555
In5 O71 2.196813 1_555
In5 O35 2.214594 1_555
In5 O70 2.217531 1_555
O0 S0 1.469924 1_555
O0 Y0 2.293601 1_555
O1 P0 1.547707 1_555
O1 Y0 2.194355 1_665
O2 P1 1.547459 1_555
O2 Y0 2.178497 1_655
O3 P2 1.544857 1_555
O4 P3 1.544038 1_555
O5 P4 1.538586 1_555
O6 P4 1.552226 1_565
O7 P2 1.547392 1_555
O8 P3 1.550972 1_455
O9 P0 1.551032 1_555
O9 Y1 2.158067 1_555
O10 P1 1.550230 1_455
O10 Y1 2.228648 1_445
O11 S0 1.479683 1_565
O11 Y1 2.325298 1_455
O12 P5 1.560203 1_555
O13 P6 1.554060 1_555
O14 P7 1.538032 1_555
O15 P8 1.537560 1_555
O15 Y2 2.160083 1_555
O16 P9 1.544826 1_555
O16 Y2 2.267460 1_555
O17 P10 1.529972 1_555
O17 Y2 2.175334 1_555
O18 P10 1.542532 1_555
O19 P8 1.547268 1_555
O20 P9 1.544569 1_555
O21 P6 1.527344 1_555
O21 Y3 2.195149 1_555
O22 P7 1.541588 1_555
O22 Y3 2.281503 1_555
O23 P5 1.540174 1_555
O23 Y3 2.163111 1_555
O24 S1 1.471317 1_555
O24 Y4 2.247495 1_556
O25 P11 1.544848 1_555
O25 Y4 2.220815 1_556
O26 P12 1.550890 1_555
O26 Y4 2.237083 1_556
O27 P13 1.562453 1_555
O28 S2 1.477314 1_555
O29 P14 1.556161 1_555
O30 P14 1.531134 1_555
O30 Y5 2.153312 1_555
O31 P13 1.541173 1_555
O31 Y5 2.221179 1_555
O32 S2 1.475849 1_555
O32 Y5 2.240481 1_555
O33 P11 1.563434 1_555
O34 P12 1.558236 1_555
O35 S1 1.474644 1_555
O36 P14 1.554149 1_555
O36 Y0 2.276624 1_565
O37 P13 1.561025 1_555
O37 Y0 2.248568 1_665
O38 S2 1.475037 1_555
O38 Y0 2.313578 1_555
O39 P11 1.544545 1_555
O40 P12 1.563113 1_555
O41 S1 1.491196 1_555
O42 P5 1.548780 1_555
O43 P6 1.552020 1_555
O44 P7 1.569519 1_555
O45 P8 1.546941 1_555
O45 Y1 2.263629 1_555
O46 P9 1.550570 1_555
O46 Y1 2.220409 1_545
O47 P10 1.562707 1_555
O47 Y1 2.308798 1_445
O48 P4 1.571604 1_555
O49 P2 1.551071 1_555
O50 P3 1.552963 1_555
O51 P0 1.534369 1_555
O51 Y2 2.225634 1_555
O52 P1 1.555422 1_555
O52 Y2 2.293673 1_555
O53 S0 1.481483 1_555
O53 Y2 2.381795 1_555
O54 S1 1.492243 1_555
O55 P11 1.566220 1_655
O56 P12 1.545624 1_545
O57 P13 1.536909 1_545
O57 Y3 2.222705 1_555
O58 S2 1.483478 1_555
O58 Y3 2.339691 1_555
O59 P14 1.555416 1_655
O59 Y3 2.280307 1_555
O60 P10 1.551959 1_555
O60 Y4 2.252164 1_555
O61 P8 1.558627 1_455
O61 Y4 2.245182 1_555
O62 P9 1.546962 1_565
O62 Y4 2.254848 1_555
O63 P6 1.572230 1_565
O64 P7 1.559251 1_555
O65 P5 1.554473 1_455
O66 S0 1.491027 1_565
O66 Y5 2.314843 1_555
O67 P0 1.553591 1_555
O67 Y5 2.289474 1_555
O68 P1 1.537400 1_455
O68 Y5 2.224575 1_555
O69 P2 1.558279 1_555
O70 P3 1.573556 1_455
O71 P4 1.558238 1_565
