# generated using pymatgen
data_NaAl4PS5O24
_symmetry_space_group_name_H-M   'P 1'
_cell_length_a   8.28091609
_cell_length_b   8.28033448
_cell_length_c   21.61020510
_cell_angle_alpha   89.90415093
_cell_angle_beta   90.18926406
_cell_angle_gamma   119.90851197
_symmetry_Int_Tables_number   1
_chemical_formula_structural   NaAl4PS5O24
_chemical_formula_sum   'Na3 Al12 P3 S15 O72'
_cell_volume   1284.43771959
_cell_formula_units_Z   3
loop_
 _symmetry_equiv_pos_site_id
 _symmetry_equiv_pos_as_xyz
  1  'x, y, z'
loop_
 _atom_site_type_symbol
 _atom_site_label
 _atom_site_symmetry_multiplicity
 _atom_site_fract_x
 _atom_site_fract_y
 _atom_site_fract_z
 _atom_site_occupancy
  Na  Na0  1  0.99943296  0.99570632  0.99840898  1
  Na  Na1  1  0.66228345  0.33258601  0.83595837  1
  Na  Na2  1  0.67019656  0.33261113  0.33156965  1
  Al  Al0  1  0.99800714  0.00498178  0.35198733  1
  Al  Al1  1  0.99910747  0.99320339  0.85641929  1
  Al  Al2  1  0.00028793  0.00038003  0.64671541  1
  Al  Al3  1  0.00175817  0.00715183  0.14798729  1
  Al  Al4  1  0.66635398  0.33313235  0.68626394  1
  Al  Al5  1  0.67328410  0.33311850  0.18583060  1
  Al  Al6  1  0.65950979  0.33287816  0.97793661  1
  Al  Al7  1  0.66656118  0.33313317  0.48160446  1
  Al  Al8  1  0.33947563  0.67451235  0.01849378  1
  Al  Al9  1  0.33330381  0.66693667  0.52112411  1
  Al  Al10  1  0.32830149  0.66104104  0.30941973  1
  Al  Al11  1  0.34090139  0.67244427  0.81589609  1
  P  P0  1  -0.00034261  0.28874796  0.24995080  1
  P  P1  1  0.62086150  0.66666247  0.91679975  1
  P  P2  1  0.33403093  0.95448083  0.91675176  1
  S  S0  1  0.28800138  -0.00034665  0.25009618  1
  S  S1  1  0.71127426  0.71206334  0.25001695  1
  S  S2  1  0.28709535  0.28977036  0.75009022  1
  S  S3  1  0.00197837  0.71097672  0.74963207  1
  S  S4  1  0.71169986  -0.00094229  0.74980167  1
  S  S5  1  0.95646221  0.33325001  0.58346571  1
  S  S6  1  0.37664760  0.04368523  0.58341123  1
  S  S7  1  0.66711438  0.62336648  0.58341920  1
  S  S8  1  0.95721106  0.62245792  0.08304664  1
  S  S9  1  0.66559480  0.04434711  0.08298082  1
  S  S10  1  0.37843949  0.33513854  0.08381147  1
  S  S11  1  0.04634179  0.37982362  0.91668167  1
  S  S12  1  0.62117066  0.95318022  0.41649921  1
  S  S13  1  0.33264713  0.37769182  0.41690754  1
  S  S14  1  0.04526227  0.66907679  0.41662130  1
  O  O0  1  0.20725186  0.03451240  0.30626103  1
  O  O1  1  0.82925404  0.79033714  0.30614657  1
  O  O2  1  0.96128156  0.16614830  0.30797241  1
  O  O3  1  0.20576107  0.17035502  0.80488001  1
  O  O4  1  0.96267291  0.79156803  0.80429197  1
  O  O5  1  0.83118771  0.03772120  0.80478199  1
  O  O6  1  0.79545544  0.96832383  0.69367154  1
  O  O7  1  0.17310895  0.20537826  0.69363864  1
  O  O8  1  0.03278021  0.82630547  0.69359370  1
  O  O9  1  0.79356658  0.82601039  0.19440704  1
  O  O10  1  0.03417150  0.20157088  0.19284839  1
  O  O11  1  0.17171688  0.96349665  0.19452702  1
  O  O12  1  0.87313968  0.36919530  0.63846056  1
  O  O13  1  0.49632823  0.12699641  0.63853357  1
  O  O14  1  0.63108408  0.50386798  0.63849781  1
  O  O15  1  0.87298704  0.50800781  0.13907575  1
  O  O16  1  0.63321780  0.12715696  0.13886850  1
  O  O17  1  0.49441209  0.36578442  0.13971290  1
  O  O18  1  0.45938200  0.29720292  0.02873153  1
  O  O19  1  0.83769390  0.53971909  0.02798242  1
  O  O20  1  0.70368369  0.16411152  0.02804013  1
  O  O21  1  0.45975220  0.16224184  0.52786564  1
  O  O22  1  0.70215945  0.54000669  0.52790759  1
  O  O23  1  0.83761458  0.29774404  0.52780947  1
  O  O24  1  0.53686047  0.70078514  0.97489200  1
  O  O25  1  0.16014454  0.45777033  0.97285235  1
  O  O26  1  0.29432479  0.83355047  0.97466226  1
  O  O27  1  0.53777345  0.83893972  0.47256486  1
  O  O28  1  0.30053811  0.46099583  0.47267145  1
  O  O29  1  0.16014000  0.70017709  0.47271714  1
  O  O30  1  0.12651094  0.63150180  0.36174348  1
  O  O31  1  0.50273255  0.87213019  0.36120137  1
  O  O32  1  0.37158924  0.49695564  0.36189518  1
  O  O33  1  0.12414578  0.49293833  0.86019601  1
  O  O34  1  0.36742007  0.87095258  0.85812409  1
  O  O35  1  0.50096289  0.62731117  0.85829768  1
  O  O36  1  0.02492255  0.83358487  0.40765353  1
  O  O37  1  0.80559507  0.97180272  0.40893398  1
  O  O38  1  0.16912197  0.19246876  0.40864524  1
  O  O39  1  0.02661451  0.19381709  0.90838824  1
  O  O40  1  0.16316262  0.97889337  0.90805122  1
  O  O41  1  0.81280386  0.84118336  0.90796363  1
  O  O42  1  0.97444914  0.16722147  0.59242147  1
  O  O43  1  0.19275184  0.02549517  0.59234692  1
  O  O44  1  0.83259092  0.80715724  0.59246428  1
  O  O45  1  0.97460364  0.80909348  0.09179904  1
  O  O46  1  0.83345648  0.02448050  0.09081330  1
  O  O47  1  0.19258898  0.16466178  0.09102287  1
  O  O48  1  0.69346912  0.16849006  0.74129501  1
  O  O49  1  0.47450949  0.30737752  0.74144631  1
  O  O50  1  0.83197915  0.52433248  0.74107077  1
  O  O51  1  0.68955643  0.52453784  0.24232469  1
  O  O52  1  0.82538382  0.30902483  0.24165868  1
  O  O53  1  0.47304390  0.16794086  0.24220836  1
  O  O54  1  0.64569616  0.49613418  0.92508462  1
  O  O55  1  0.86030014  0.35963634  0.92454657  1
  O  O56  1  0.50821758  0.14664053  0.92525653  1
  O  O57  1  0.64039309  0.14117025  0.42486345  1
  O  O58  1  0.50180997  0.35912125  0.42529749  1
  O  O59  1  0.85809985  0.49983792  0.42508542  1
  O  O60  1  0.35704180  0.49869823  0.07523031  1
  O  O61  1  0.14054551  0.63958293  0.07511662  1
  O  O62  1  0.50041109  0.86009231  0.07597399  1
  O  O63  1  0.35927925  0.85983058  0.57403583  1
  O  O64  1  0.50063280  0.64092484  0.57393548  1
  O  O65  1  0.14018334  0.49922318  0.57401012  1
  O  O66  1  0.30954237  0.83602707  0.25944134  1
  O  O67  1  0.52857164  0.69583216  0.25947545  1
  O  O68  1  0.17071338  0.47957513  0.26037087  1
  O  O69  1  0.30580132  0.47367801  0.75772555  1
  O  O70  1  0.16523357  0.68937293  0.75798561  1
  O  O71  1  0.52719588  0.83470644  0.75679935  1
loop_
_geom_bond_atom_site_label_1
_geom_bond_atom_site_label_2
_geom_bond_distance
_geom_bond_site_symmetry_2
Na0 O41 2.421213 1_555
Na0 O40 2.424280 1_655
Na0 O39 2.479940 1_665
Na0 O45 2.485657 1_556
Na0 O47 2.505586 1_666
Na0 O46 2.505923 1_566
Na1 O54 2.399668 1_555
Na1 O56 2.402016 1_555
Na1 O55 2.453237 1_555
Na1 O49 2.507924 1_555
Na1 O48 2.541757 1_555
Na1 O50 2.546265 1_555
Na2 O52 2.394345 1_555
Na2 O51 2.451231 1_555
Na2 O53 2.453946 1_555
Na2 O57 2.498170 1_555
Na2 O59 2.502502 1_555
Na2 O58 2.533865 1_555
Al0 O2 1.782334 1_555
Al0 O1 1.900784 1_545
Al0 O0 1.904364 1_655
Al0 O37 1.924571 1_545
Al0 O38 1.928283 1_655
Al0 O36 1.954212 1_645
Al1 O40 1.804069 1_655
Al1 O41 1.809811 1_555
Al1 O4 1.910310 1_555
Al1 O39 1.923481 1_665
Al1 O5 1.952999 1_565
Al1 O3 1.955642 1_665
Al2 O7 1.879181 1_555
Al2 O6 1.881148 1_445
Al2 O8 1.885831 1_545
Al2 O42 1.902281 1_455
Al2 O44 1.908559 1_445
Al2 O43 1.909142 1_555
Al3 O10 1.782167 1_555
Al3 O11 1.902566 1_545
Al3 O9 1.912050 1_445
Al3 O47 1.914624 1_555
Al3 O46 1.917546 1_455
Al3 O45 1.962552 1_445
Al4 O14 1.885309 1_555
Al4 O13 1.886646 1_555
Al4 O12 1.894546 1_555
Al4 O50 1.902770 1_555
Al4 O48 1.902981 1_555
Al4 O49 1.914459 1_555
Al5 O52 1.822493 1_555
Al5 O15 1.862990 1_555
Al5 O16 1.867568 1_555
Al5 O17 1.910317 1_555
Al5 O51 1.952768 1_555
Al5 O53 1.962313 1_555
Al6 O54 1.814705 1_555
Al6 O56 1.820304 1_555
Al6 O18 1.887158 1_556
Al6 O19 1.937963 1_556
Al6 O20 1.939354 1_556
Al6 O55 1.946631 1_555
Al7 O23 1.868927 1_555
Al7 O22 1.876877 1_555
Al7 O21 1.877387 1_555
Al7 O58 1.915499 1_555
Al7 O59 1.933071 1_555
Al7 O57 1.933476 1_555
Al8 O26 1.804353 1_554
Al8 O24 1.806022 1_554
Al8 O62 1.906196 1_555
Al8 O25 1.933265 1_554
Al8 O61 1.957448 1_555
Al8 O60 1.961590 1_555
Al9 O64 1.885529 1_555
Al9 O63 1.888574 1_555
Al9 O65 1.893212 1_555
Al9 O27 1.896960 1_555
Al9 O29 1.899736 1_555
Al9 O28 1.902781 1_555
Al10 O68 1.767775 1_555
Al10 O66 1.873012 1_555
Al10 O67 1.879520 1_555
Al10 O30 1.932515 1_555
Al10 O32 1.933476 1_555
Al10 O31 1.967702 1_555
Al11 O35 1.794693 1_555
Al11 O34 1.796251 1_555
Al11 O33 1.921875 1_555
Al11 O71 1.938131 1_555
Al11 O70 1.972980 1_555
Al11 O69 1.975095 1_555
O0 S0 1.484119 1_555
O1 S1 1.486341 1_555
O2 P0 1.542846 1_655
O3 S2 1.473252 1_555
O4 S3 1.472515 1_655
O5 S4 1.473369 1_555
O6 S4 1.483153 1_565
O7 S2 1.484918 1_555
O8 S3 1.482834 1_555
O9 S1 1.469429 1_555
O10 P0 1.528580 1_555
O11 S0 1.471402 1_565
O12 S5 1.479353 1_555
O13 S6 1.479941 1_555
O14 S7 1.479466 1_555
O15 S8 1.480942 1_555
O16 S9 1.479510 1_555
O17 S10 1.482020 1_555
O18 S10 1.476895 1_555
O19 S8 1.477716 1_555
O20 S9 1.476203 1_555
O21 S6 1.485246 1_555
O22 S7 1.484780 1_555
O23 S5 1.485405 1_555
O24 P1 1.530570 1_555
O25 S11 1.471949 1_555
O26 P2 1.532038 1_555
O27 S12 1.479841 1_555
O28 S13 1.478680 1_555
O29 S14 1.479842 1_555
O30 S14 1.473483 1_555
O31 S12 1.476105 1_555
O32 S13 1.474305 1_555
O33 S11 1.477155 1_555
O34 P2 1.534909 1_555
O35 P1 1.536468 1_555
O36 S14 1.466003 1_555
O37 S12 1.466143 1_555
O38 S13 1.464939 1_555
O39 S11 1.476764 1_555
O40 P2 1.536761 1_555
O41 P1 1.536767 1_555
O42 S5 1.467229 1_555
O43 S6 1.466998 1_555
O44 S7 1.466818 1_555
O45 S8 1.491184 1_555
O46 S9 1.488063 1_555
O47 S10 1.489918 1_555
O48 S4 1.495005 1_555
O49 S2 1.496969 1_555
O50 S3 1.494690 1_655
O51 S1 1.480968 1_555
O52 P0 1.543629 1_655
O53 S0 1.480009 1_555
O54 P1 1.535147 1_555
O55 S11 1.474818 1_655
O56 P2 1.535117 1_545
O57 S12 1.494902 1_545
O58 S13 1.493942 1_555
O59 S14 1.494813 1_655
O60 S10 1.462275 1_555
O61 S8 1.463315 1_455
O62 S9 1.462862 1_565
O63 S6 1.470326 1_565
O64 S7 1.470255 1_555
O65 S5 1.470079 1_455
O66 S0 1.465662 1_565
O67 S1 1.465612 1_555
O68 P0 1.523477 1_555
O69 S2 1.461379 1_555
O70 S3 1.460026 1_555
O71 S4 1.461705 1_565
