# generated using pymatgen
data_YbIn4Pt
_symmetry_space_group_name_H-M   'P 1'
_cell_length_a   8.32444247
_cell_length_b   8.32444247
_cell_length_c   7.86462990
_cell_angle_alpha   90.00000000
_cell_angle_beta   90.00000000
_cell_angle_gamma   149.87541737
_symmetry_Int_Tables_number   1
_chemical_formula_structural   YbIn4Pt
_chemical_formula_sum   'Yb2 In8 Pt2'
_cell_volume   273.52065036
_cell_formula_units_Z   2
loop_
 _symmetry_equiv_pos_site_id
 _symmetry_equiv_pos_as_xyz
  1  'x, y, z'
loop_
 _atom_site_type_symbol
 _atom_site_label
 _atom_site_symmetry_multiplicity
 _atom_site_fract_x
 _atom_site_fract_y
 _atom_site_fract_z
 _atom_site_occupancy
  Yb  Yb0  1  0.13316096  0.86683904  0.75000000  1
  Yb  Yb1  1  0.86683904  0.13316096  0.25000000  1
  In  In0  1  0.50000000  0.50000000  0.50000000  1
  In  In1  1  0.50000000  0.50000000  0.00000000  1
  In  In2  1  0.06119444  0.93880556  0.25000000  1
  In  In3  1  0.93880556  0.06119444  0.75000000  1
  In  In4  1  0.31981904  0.68018096  0.94929690  1
  In  In5  1  0.68018096  0.31981904  0.05070310  1
  In  In6  1  0.68018096  0.31981904  0.44929690  1
  In  In7  1  0.31981904  0.68018096  0.55070310  1
  Pt  Pt0  1  0.76557899  0.23442101  0.75000000  1
  Pt  Pt1  1  0.23442101  0.76557899  0.25000000  1
loop_
_geom_bond_atom_site_label_1
_geom_bond_atom_site_label_2
_geom_bond_distance
_geom_bond_site_symmetry_2
In0 In7 2.924068 1_555
In0 In6 2.924068 1_555
In0 In3 3.084378 1_565
In0 In2 3.084378 1_655
In0 In2 3.084378 1_545
In0 In3 3.084378 1_455
In0 Yb0 3.623338 1_655
In0 Yb1 3.623338 1_565
In0 Yb0 3.623338 1_545
In0 Yb1 3.623338 1_455
In1 In5 2.924068 1_555
In1 In4 2.924068 1_554
In1 In3 3.084378 1_564
In1 In2 3.084378 1_655
In1 In2 3.084378 1_545
In1 In3 3.084378 1_454
In1 Yb0 3.623338 1_654
In1 Yb1 3.623338 1_565
In1 Yb1 3.623338 1_455
In1 Yb0 3.623338 1_544
In2 Pt1 2.784945 1_555
In2 Yb1 3.124631 1_465
In2 In6 3.285690 1_455
In2 In6 3.285690 1_565
In2 In5 3.285690 1_455
In2 In5 3.285690 1_565
In3 Pt0 2.784945 1_555
In3 Yb0 3.124631 1_645
In3 In4 3.285690 1_545
In3 In4 3.285690 1_655
In3 In7 3.285690 1_545
In3 In7 3.285690 1_655
In4 Pt1 2.734555 1_556
In4 Pt0 2.810133 1_455
In4 Pt0 2.810133 1_565
In4 In7 3.134793 1_555
In4 In5 3.218003 1_566
In4 In5 3.218003 1_456
In4 Yb1 3.293022 1_566
In4 Yb1 3.293022 1_456
In4 Yb0 3.385561 1_555
In5 Pt0 2.734555 1_554
In5 Pt1 2.810133 1_655
In5 Pt1 2.810133 1_545
In5 In6 3.134793 1_555
In5 Yb0 3.293022 1_544
In5 Yb0 3.293022 1_654
In5 Yb1 3.385561 1_555
In6 Pt0 2.734555 1_555
In6 Pt1 2.810133 1_545
In6 Pt1 2.810133 1_655
In6 In7 3.218003 1_655
In6 In7 3.218003 1_545
In6 Yb0 3.293022 1_655
In6 Yb0 3.293022 1_545
In6 Yb1 3.385561 1_555
In7 Pt1 2.734555 1_555
In7 Pt0 2.810133 1_565
In7 Pt0 2.810133 1_455
In7 Yb1 3.293022 1_565
In7 Yb1 3.293022 1_455
In7 Yb0 3.385561 1_555
Pt0 Yb0 3.035096 1_655
Pt0 Yb0 3.035096 1_545
Pt1 Yb1 3.035096 1_565
Pt1 Yb1 3.035096 1_455
