# generated using pymatgen
data_ThFe5P3
_symmetry_space_group_name_H-M   'P 1'
_cell_length_a   3.72633800
_cell_length_b   10.41676800
_cell_length_c   11.91026300
_cell_angle_alpha   90.00000000
_cell_angle_beta   90.00000000
_cell_angle_gamma   90.00000000
_symmetry_Int_Tables_number   1
_chemical_formula_structural   ThFe5P3
_chemical_formula_sum   'Th4 Fe20 P12'
_cell_volume   462.31351408
_cell_formula_units_Z   4
loop_
 _symmetry_equiv_pos_site_id
 _symmetry_equiv_pos_as_xyz
  1  'x, y, z'
loop_
 _atom_site_type_symbol
 _atom_site_label
 _atom_site_symmetry_multiplicity
 _atom_site_fract_x
 _atom_site_fract_y
 _atom_site_fract_z
 _atom_site_occupancy
  Th  Th0  1  0.75000000  0.41919800  0.29671800  1
  Th  Th1  1  0.25000000  0.58080200  0.70328200  1
  Th  Th2  1  0.25000000  0.91919800  0.20328200  1
  Th  Th3  1  0.75000000  0.08080200  0.79671800  1
  Fe  Fe0  1  0.75000000  0.37918200  0.80046800  1
  Fe  Fe1  1  0.75000000  0.29428900  0.01144700  1
  Fe  Fe2  1  0.75000000  0.59651500  0.51078900  1
  Fe  Fe3  1  0.25000000  0.70571100  0.98855300  1
  Fe  Fe4  1  0.25000000  0.22203700  0.17406400  1
  Fe  Fe5  1  0.25000000  0.62081800  0.19953200  1
  Fe  Fe6  1  0.25000000  0.09651500  0.98921100  1
  Fe  Fe7  1  0.25000000  0.27796300  0.67406400  1
  Fe  Fe8  1  0.25000000  0.87918200  0.69953200  1
  Fe  Fe9  1  0.75000000  0.90348500  0.01078900  1
  Fe  Fe10  1  0.25000000  0.40348500  0.48921100  1
  Fe  Fe11  1  0.75000000  0.96579000  0.56670000  1
  Fe  Fe12  1  0.75000000  0.53421000  0.06670000  1
  Fe  Fe13  1  0.25000000  0.79428900  0.48855300  1
  Fe  Fe14  1  0.75000000  0.77796300  0.82593600  1
  Fe  Fe15  1  0.75000000  0.12081800  0.30046800  1
  Fe  Fe16  1  0.25000000  0.46579000  0.93330000  1
  Fe  Fe17  1  0.75000000  0.72203700  0.32593600  1
  Fe  Fe18  1  0.75000000  0.20571100  0.51144700  1
  Fe  Fe19  1  0.25000000  0.03421000  0.43330000  1
  P  P0  1  0.25000000  0.07742700  0.60948800  1
  P  P1  1  0.75000000  0.72562000  0.13103300  1
  P  P2  1  0.75000000  0.92257300  0.39051200  1
  P  P3  1  0.25000000  0.42257300  0.10948800  1
  P  P4  1  0.75000000  0.57742700  0.89051200  1
  P  P5  1  0.25000000  0.22562000  0.36896700  1
  P  P6  1  0.25000000  0.89248900  0.89637000  1
  P  P7  1  0.25000000  0.60751100  0.39637000  1
  P  P8  1  0.25000000  0.27438000  0.86896700  1
  P  P9  1  0.75000000  0.39248900  0.60363000  1
  P  P10  1  0.75000000  0.10751100  0.10363000  1
  P  P11  1  0.75000000  0.77438000  0.63103300  1
loop_
_geom_bond_atom_site_label_1
_geom_bond_atom_site_label_2
_geom_bond_distance
_geom_bond_site_symmetry_2
Fe0 P8 2.308419 1_555
Fe0 P8 2.308419 1_655
Fe0 P4 2.326944 1_555
Fe0 P9 2.348487 1_555
Fe0 Th1 3.036806 1_555
Fe0 Th1 3.036806 1_655
Fe0 Th3 3.108476 1_555
Fe1 P10 2.234029 1_555
Fe1 P8 2.528662 1_554
Fe1 P8 2.528662 1_654
Fe1 P3 2.573056 1_655
Fe1 P3 2.573056 1_555
Fe2 P7 2.311198 1_555
Fe2 P7 2.311198 1_655
Fe2 P11 2.341753 1_555
Fe2 P9 2.395740 1_555
Fe2 Th1 2.958783 1_555
Fe2 Th1 2.958783 1_655
Fe2 Th0 3.148387 1_555
Fe3 P6 2.234029 1_555
Fe3 P1 2.528662 1_456
Fe3 P1 2.528662 1_556
Fe3 P4 2.573056 1_555
Fe3 P4 2.573056 1_455
Fe4 P3 2.226028 1_555
Fe4 P5 2.321646 1_555
Fe4 P10 2.366085 1_555
Fe4 P10 2.366085 1_455
Fe4 Th0 3.134242 1_455
Fe4 Th0 3.134242 1_555
Fe4 Th2 3.173740 1_545
Fe5 P1 2.308419 1_555
Fe5 P1 2.308419 1_455
Fe5 P3 2.326944 1_555
Fe5 P7 2.348487 1_555
Fe5 Th0 3.036806 1_455
Fe5 Th0 3.036806 1_555
Fe5 Th2 3.108476 1_555
Fe6 P10 2.311198 1_456
Fe6 P10 2.311198 1_556
Fe6 P8 2.341753 1_555
Fe6 P6 2.395740 1_545
Fe6 Th3 2.958783 1_555
Fe6 Th3 2.958783 1_455
Fe6 Th2 3.148387 1_546
Fe7 P0 2.226028 1_555
Fe7 P8 2.321646 1_555
Fe7 P9 2.366085 1_555
Fe7 P9 2.366085 1_455
Fe7 Th3 3.134242 1_555
Fe7 Th3 3.134242 1_455
Fe7 Th1 3.173740 1_555
Fe8 P11 2.308419 1_555
Fe8 P11 2.308419 1_455
Fe8 P0 2.326944 1_565
Fe8 P6 2.348487 1_555
Fe8 Th3 3.036806 1_465
Fe8 Th3 3.036806 1_565
Fe8 Th1 3.108476 1_555
Fe9 P6 2.311198 1_654
Fe9 P6 2.311198 1_554
Fe9 P1 2.341753 1_555
Fe9 P10 2.395740 1_565
Fe9 Th2 2.958783 1_655
Fe9 Th2 2.958783 1_555
Fe9 Th3 3.148387 1_564
Fe10 P9 2.311198 1_555
Fe10 P9 2.311198 1_455
Fe10 P5 2.341753 1_555
Fe10 P7 2.395740 1_555
Fe10 Th0 2.958783 1_455
Fe10 Th0 2.958783 1_555
Fe10 Th1 3.148387 1_555
Fe11 P11 2.136031 1_555
Fe11 P2 2.146191 1_555
Fe11 P0 2.254648 1_665
Fe11 P0 2.254648 1_565
Fe11 Th3 2.990084 1_565
Fe12 P1 2.136031 1_555
Fe12 P4 2.146191 1_554
Fe12 P3 2.254648 1_655
Fe12 P3 2.254648 1_555
Fe12 Th0 2.990084 1_555
Fe13 P7 2.234029 1_555
Fe13 P11 2.528662 1_455
Fe13 P11 2.528662 1_555
Fe13 P2 2.573056 1_555
Fe13 P2 2.573056 1_455
Fe14 P4 2.226028 1_555
Fe14 P11 2.321646 1_555
Fe14 P6 2.366085 1_555
Fe14 P6 2.366085 1_655
Fe14 Th1 3.134242 1_655
Fe14 Th1 3.134242 1_555
Fe14 Th3 3.173740 1_565
Fe15 P5 2.308419 1_655
Fe15 P5 2.308419 1_555
Fe15 P2 2.326944 1_545
Fe15 P10 2.348487 1_555
Fe15 Th2 3.036806 1_645
Fe15 Th2 3.036806 1_545
Fe15 Th0 3.108476 1_555
Fe16 P8 2.136031 1_555
Fe16 P3 2.146191 1_556
Fe16 P4 2.254648 1_555
Fe16 P4 2.254648 1_455
Fe16 Th1 2.990084 1_555
Fe17 P2 2.226028 1_555
Fe17 P1 2.321646 1_555
Fe17 P7 2.366085 1_655
Fe17 P7 2.366085 1_555
Fe17 Th2 3.134242 1_555
Fe17 Th2 3.134242 1_655
Fe17 Th0 3.173740 1_555
Fe18 P9 2.234029 1_555
Fe18 P5 2.528662 1_555
Fe18 P5 2.528662 1_655
Fe18 P0 2.573056 1_555
Fe18 P0 2.573056 1_655
Fe19 P5 2.136031 1_555
Fe19 P0 2.146191 1_555
Fe19 P2 2.254648 1_445
Fe19 P2 2.254648 1_545
Fe19 Th2 2.990084 1_545
P0 Th3 2.906088 1_455
P0 Th3 2.906088 1_555
P1 Th2 2.877145 1_655
P1 Th2 2.877145 1_555
P2 Th2 2.906088 1_655
P2 Th2 2.906088 1_555
P3 Th0 2.906088 1_555
P3 Th0 2.906088 1_455
P4 Th1 2.906088 1_555
P4 Th1 2.906088 1_655
P5 Th0 2.877145 1_455
P5 Th0 2.877145 1_555
P6 Th3 2.954321 1_565
P6 Th3 2.954321 1_465
P7 Th0 2.954321 1_555
P7 Th0 2.954321 1_455
P8 Th3 2.877145 1_455
P8 Th3 2.877145 1_555
P9 Th1 2.954321 1_655
P9 Th1 2.954321 1_555
P10 Th2 2.954321 1_545
P10 Th2 2.954321 1_645
P11 Th1 2.877145 1_655
P11 Th1 2.877145 1_555
