# generated using pymatgen
data_Rb3Bi2I9
_symmetry_space_group_name_H-M   'P 1'
_cell_length_a   8.45412600
_cell_length_b   15.09137700
_cell_length_c   25.94747331
_cell_angle_alpha   56.05994482
_cell_angle_beta   90.00000000
_cell_angle_gamma   90.00000000
_symmetry_Int_Tables_number   1
_chemical_formula_structural   Rb3Bi2I9
_chemical_formula_sum   'Rb12 Bi8 I36'
_cell_volume   2746.45827496
_cell_formula_units_Z   4
loop_
 _symmetry_equiv_pos_site_id
 _symmetry_equiv_pos_as_xyz
  1  'x, y, z'
loop_
 _atom_site_type_symbol
 _atom_site_label
 _atom_site_symmetry_multiplicity
 _atom_site_fract_x
 _atom_site_fract_y
 _atom_site_fract_z
 _atom_site_occupancy
  Rb  Rb0  1  0.22219100  0.65217400  0.54753800  1
  Rb  Rb1  1  0.77780900  0.65217400  0.04753800  1
  Rb  Rb2  1  0.73389000  0.06008200  0.59456700  1
  Rb  Rb3  1  0.26611000  0.06008200  0.09456700  1
  Rb  Rb4  1  0.77292800  0.99744700  0.37607800  1
  Rb  Rb5  1  0.22707200  0.99744700  0.87607800  1
  Rb  Rb6  1  0.76780400  0.32171300  0.71124000  1
  Rb  Rb7  1  0.23219600  0.32171300  0.21124000  1
  Rb  Rb8  1  0.27373700  0.37934000  0.43156100  1
  Rb  Rb9  1  0.72626300  0.37934000  0.93156100  1
  Rb  Rb10  1  0.28208500  0.72624900  0.76002700  1
  Rb  Rb11  1  0.71791500  0.72624900  0.26002700  1
  Bi  Bi0  1  0.75866500  0.86247700  0.81219000  1
  Bi  Bi1  1  0.24133500  0.86247700  0.31219000  1
  Bi  Bi2  1  0.24087000  0.01206000  0.49435300  1
  Bi  Bi3  1  0.75913000  0.01206000  0.99435300  1
  Bi  Bi4  1  0.25815900  0.36259900  0.81309000  1
  Bi  Bi5  1  0.74184100  0.36259900  0.31309000  1
  Bi  Bi6  1  0.74389800  0.51869600  0.49228900  1
  Bi  Bi7  1  0.25610200  0.51869600  0.99228900  1
  I  I0  1  0.66853600  0.59827400  0.57206200  1
  I  I1  1  0.55954000  0.16553300  0.43672700  1
  I  I2  1  0.65738200  0.92480000  0.90930100  1
  I  I3  1  0.34261800  0.92480000  0.40930100  1
  I  I4  1  0.82234300  0.10374200  0.06902800  1
  I  I5  1  0.17765700  0.10374200  0.56902800  1
  I  I6  1  0.55947900  0.83676500  0.09487200  1
  I  I7  1  0.44052100  0.83676500  0.59487200  1
  I  I8  1  0.45173800  0.49793800  0.26933900  1
  I  I9  1  0.54826200  0.49793800  0.76933900  1
  I  I10  1  0.96035300  0.40978600  0.06348000  1
  I  I11  1  0.44046000  0.16553300  0.93672700  1
  I  I12  1  0.05059400  0.87831200  0.03691000  1
  I  I13  1  0.94940600  0.87831200  0.53691000  1
  I  I14  1  0.04885900  0.06196100  0.23671800  1
  I  I15  1  0.95114100  0.06196100  0.73671800  1
  I  I16  1  0.15722400  0.45250400  0.89684400  1
  I  I17  1  0.84277600  0.45250400  0.39684400  1
  I  I18  1  0.56901800  0.63554900  0.90503100  1
  I  I19  1  0.43098200  0.63554900  0.40503100  1
  I  I20  1  0.94546200  0.53482400  0.21282900  1
  I  I21  1  0.05453800  0.53482400  0.71282900  1
  I  I22  1  0.07124400  0.74539900  0.89835900  1
  I  I23  1  0.92875600  0.74539900  0.39835900  1
  I  I24  1  0.53432700  0.97315200  0.23944800  1
  I  I25  1  0.46567300  0.97315200  0.73944800  1
  I  I26  1  0.06093500  0.21066600  0.37109800  1
  I  I27  1  0.93906500  0.21066600  0.87109800  1
  I  I28  1  0.44702800  0.31891000  0.07038200  1
  I  I29  1  0.55297200  0.31891000  0.57038200  1
  I  I30  1  0.67593700  0.27059000  0.23883900  1
  I  I31  1  0.32406300  0.27059000  0.73883900  1
  I  I32  1  0.83824300  0.78476000  0.73180100  1
  I  I33  1  0.16175700  0.78476000  0.23180100  1
  I  I34  1  0.03964700  0.40978600  0.56348000  1
  I  I35  1  0.33146400  0.59827400  0.07206200  1
loop_
_geom_bond_atom_site_label_1
_geom_bond_atom_site_label_2
_geom_bond_distance
_geom_bond_site_symmetry_2
Bi0 I32 2.985126 1_555
Bi0 I15 2.993772 1_565
Bi0 I25 2.994572 1_555
Bi0 I2 3.257841 1_555
Bi0 I22 3.269994 1_655
Bi0 I18 3.299962 1_555
Bi1 I33 2.985126 1_555
Bi1 I14 2.993772 1_565
Bi1 I24 2.994572 1_555
Bi1 I3 3.257841 1_555
Bi1 I23 3.269994 1_455
Bi1 I19 3.299962 1_555
Bi2 I13 2.979307 1_445
Bi2 I7 2.990872 1_545
Bi2 I5 2.991323 1_555
Bi2 I3 3.254169 1_545
Bi2 I26 3.289660 1_555
Bi2 I1 3.315278 1_555
Bi3 I12 2.979307 1_646
Bi3 I6 2.990872 1_546
Bi3 I4 2.991323 1_556
Bi3 I2 3.254169 1_545
Bi3 I27 3.289660 1_555
Bi3 I11 3.315278 1_555
Bi4 I9 2.980993 1_555
Bi4 I21 2.989356 1_555
Bi4 I31 2.989587 1_555
Bi4 I16 3.253365 1_555
Bi4 I11 3.295136 1_555
Bi4 I27 3.308541 1_455
Bi5 I8 2.980993 1_555
Bi5 I20 2.989356 1_555
Bi5 I30 2.989587 1_555
Bi5 I17 3.253365 1_555
Bi5 I1 3.295136 1_555
Bi5 I26 3.308541 1_655
Bi6 I0 2.984713 1_555
Bi6 I34 2.995814 1_655
Bi6 I29 2.996617 1_555
Bi6 I17 3.254604 1_555
Bi6 I19 3.282671 1_555
Bi6 I23 3.282748 1_555
Bi7 I35 2.984713 1_556
Bi7 I10 2.995814 1_456
Bi7 I28 2.996617 1_556
Bi7 I16 3.254604 1_555
Bi7 I18 3.282671 1_555
Bi7 I22 3.282748 1_555
I0 Rb6 3.786139 1_555
I0 Rb0 3.837652 1_555
I1 Rb2 3.768387 1_555
I1 Rb8 3.972948 1_555
I1 Rb4 4.077142 1_545
I2 Rb5 3.758195 1_555
I2 Rb1 3.788245 1_556
I3 Rb4 3.758195 1_555
I3 Rb0 3.788245 1_555
I4 Rb9 3.757039 1_554
I4 Rb3 3.802720 1_655
I5 Rb8 3.757039 1_555
I5 Rb2 3.802720 1_455
I6 Rb11 3.867691 1_555
I6 Rb1 4.061558 1_555
I6 Rb3 4.180855 1_565
I7 Rb10 3.867691 1_555
I7 Rb0 4.061558 1_555
I7 Rb2 4.180855 1_565
I8 Rb8 3.843591 1_555
I8 Rb11 4.008021 1_555
I8 Rb7 4.155384 1_555
I9 Rb9 3.843591 1_555
I9 Rb10 4.008021 1_555
I9 Rb6 4.155384 1_555
I10 Rb1 3.774099 1_555
I10 Rb7 4.007180 1_655
I10 Rb9 4.195303 1_554
I11 Rb3 3.768387 1_556
I11 Rb9 3.972948 1_555
I11 Rb5 4.077142 1_545
I12 Rb5 3.807318 1_554
I12 Rb1 3.998782 1_455
I12 Rb3 4.203025 1_565
I13 Rb4 3.807318 1_555
I13 Rb0 3.998782 1_655
I13 Rb2 4.203025 1_565
I14 Rb7 3.913073 1_555
I14 Rb4 3.941335 1_445
I14 Rb3 4.134692 1_555
I15 Rb6 3.913073 1_555
I15 Rb5 3.941335 1_645
I15 Rb2 4.134692 1_555
I16 Rb9 3.767533 1_455
I16 Rb10 3.795675 1_555
I17 Rb8 3.767533 1_655
I17 Rb11 3.795675 1_555
I18 Rb9 3.770824 1_555
I18 Rb10 4.020378 1_555
I18 Rb1 4.229373 1_556
I19 Rb8 3.770824 1_555
I19 Rb11 4.020378 1_555
I19 Rb0 4.229373 1_555
I20 Rb1 3.880498 1_555
I20 Rb7 4.045925 1_655
I20 Rb11 4.182898 1_555
I21 Rb0 3.880498 1_555
I21 Rb6 4.045925 1_455
I21 Rb10 4.182898 1_555
I22 Rb5 3.752689 1_555
I22 Rb1 4.127414 1_456
I22 Rb10 4.159642 1_555
I23 Rb4 3.752689 1_555
I23 Rb0 4.127414 1_655
I23 Rb11 4.159642 1_555
I24 Rb11 3.788958 1_555
I24 Rb3 3.935482 1_565
I24 Rb4 4.268876 1_555
I25 Rb10 3.788958 1_555
I25 Rb2 3.935482 1_565
I25 Rb5 4.268876 1_555
I26 Rb7 3.787848 1_555
I26 Rb4 3.979311 1_445
I26 Rb8 4.078853 1_555
I27 Rb6 3.787848 1_555
I27 Rb5 3.979311 1_645
I27 Rb9 4.078853 1_555
I28 Rb3 3.905564 1_555
I28 Rb9 3.963732 1_554
I28 Rb7 4.102613 1_555
I29 Rb2 3.905564 1_555
I29 Rb8 3.963732 1_555
I29 Rb6 4.102613 1_555
I30 Rb4 3.735469 1_545
I30 Rb7 3.816339 1_555
I31 Rb5 3.735469 1_545
I31 Rb6 3.816339 1_555
I32 Rb2 3.768392 1_565
I32 Rb10 3.830625 1_655
I33 Rb3 3.768392 1_565
I33 Rb11 3.830625 1_455
I34 Rb0 3.774099 1_555
I34 Rb6 4.007180 1_455
I34 Rb8 4.195303 1_555
I35 Rb7 3.786139 1_555
I35 Rb1 3.837652 1_555
