# generated using pymatgen
data_Re(TeCl6)2
_symmetry_space_group_name_H-M   'P 1'
_cell_length_a   6.62769744
_cell_length_b   7.13617314
_cell_length_c   10.88545443
_cell_angle_alpha   70.97292912
_cell_angle_beta   87.80974306
_cell_angle_gamma   64.04809768
_symmetry_Int_Tables_number   1
_chemical_formula_structural   Re(TeCl6)2
_chemical_formula_sum   'Re1 Te2 Cl12'
_cell_volume   434.31818894
_cell_formula_units_Z   1
loop_
 _symmetry_equiv_pos_site_id
 _symmetry_equiv_pos_as_xyz
  1  'x, y, z'
loop_
 _atom_site_type_symbol
 _atom_site_label
 _atom_site_symmetry_multiplicity
 _atom_site_fract_x
 _atom_site_fract_y
 _atom_site_fract_z
 _atom_site_occupancy
  Re  Re0  1  0.00000000  0.00000000  0.00000000  1
  Te  Te0  1  0.25711339  0.49707593  0.75703357  1
  Te  Te1  1  0.74288661  0.50292407  0.24296643  1
  Cl  Cl0  1  0.97542821  0.72561274  0.57896234  1
  Cl  Cl1  1  0.02457179  0.27438726  0.42103766  1
  Cl  Cl2  1  0.43077755  0.73040924  0.70063744  1
  Cl  Cl3  1  0.60507402  0.21547104  0.98707785  1
  Cl  Cl4  1  0.39492598  0.78452896  0.01292215  1
  Cl  Cl5  1  0.99648266  0.76397208  0.21024390  1
  Cl  Cl6  1  0.00351734  0.23602792  0.78975610  1
  Cl  Cl7  1  0.93105638  0.77974964  0.90170857  1
  Cl  Cl8  1  0.06894362  0.22025036  0.09829143  1
  Cl  Cl9  1  0.51611208  0.73252721  0.35397796  1
  Cl  Cl10  1  0.48388792  0.26747279  0.64602204  1
  Cl  Cl11  1  0.56922245  0.26959076  0.29936256  1
loop_
_geom_bond_atom_site_label_1
_geom_bond_atom_site_label_2
_geom_bond_distance
_geom_bond_site_symmetry_2
Cl0 Te0 2.335172 1_655
Cl1 Te1 2.335172 1_455
Cl2 Te0 2.330478 1_555
Cl3 Re0 2.366376 1_656
Cl3 Te0 2.954924 1_555
Cl4 Re0 2.366376 1_565
Cl4 Te1 2.954924 1_555
Cl5 Re0 2.364759 1_665
Cl5 Te1 2.946887 1_555
Cl6 Re0 2.364759 1_556
Cl6 Te0 2.946887 1_555
Cl7 Re0 2.363561 1_666
Cl7 Te0 3.035650 1_655
Cl8 Re0 2.363561 1_555
Cl8 Te1 3.035650 1_455
Cl9 Te1 2.323936 1_555
Cl10 Te0 2.323936 1_555
Cl11 Te1 2.330478 1_555
