# generated using pymatgen
data_InAgO2
_symmetry_space_group_name_H-M   'P 1'
_cell_length_a   3.28800579
_cell_length_b   3.28800584
_cell_length_c   12.63342042
_cell_angle_alpha   90.00000000
_cell_angle_beta   90.00000000
_cell_angle_gamma   119.99999957
_symmetry_Int_Tables_number   1
_chemical_formula_structural   InAgO2
_chemical_formula_sum   'In2 Ag2 O4'
_cell_volume   118.28147641
_cell_formula_units_Z   2
loop_
 _symmetry_equiv_pos_site_id
 _symmetry_equiv_pos_as_xyz
  1  'x, y, z'
loop_
 _atom_site_type_symbol
 _atom_site_label
 _atom_site_symmetry_multiplicity
 _atom_site_fract_x
 _atom_site_fract_y
 _atom_site_fract_z
 _atom_site_occupancy
  In  In0  1  0.00000000  -0.00000000  -0.00000000  1
  In  In1  1  0.00000000  -0.00000000  0.50000000  1
  Ag  Ag0  1  0.66666700  0.33333300  0.75000000  1
  Ag  Ag1  1  0.33333300  0.66666700  0.25000000  1
  O  O0  1  0.33333300  0.66666700  0.41476210  1
  O  O1  1  0.66666700  0.33333300  0.91476210  1
  O  O2  1  0.33333300  0.66666700  0.08523790  1
  O  O3  1  0.66666700  0.33333300  0.58523790  1
loop_
_geom_bond_atom_site_label_1
_geom_bond_atom_site_label_2
_geom_bond_distance
_geom_bond_site_symmetry_2
In0 O2 2.182487 1_545
In0 O1 2.182487 1_454
In0 O2 2.182490 1_445
In0 O1 2.182490 1_554
In0 O2 2.182490 1_555
In0 O1 2.182490 1_444
In1 O3 2.182487 1_455
In1 O0 2.182487 1_545
In1 O3 2.182490 1_555
In1 O0 2.182490 1_445
In1 O3 2.182490 1_445
In1 O0 2.182490 1_555
Ag0 O1 2.081509 1_555
Ag0 O3 2.081509 1_555
Ag1 O0 2.081509 1_555
Ag1 O2 2.081509 1_555
