# generated using pymatgen
data_SbBrF8
_symmetry_space_group_name_H-M   'P 1'
_cell_length_a   5.80718082
_cell_length_b   9.86319615
_cell_length_c   10.76871403
_cell_angle_alpha   90.00000000
_cell_angle_beta   90.00000000
_cell_angle_gamma   90.00000000
_symmetry_Int_Tables_number   1
_chemical_formula_structural   SbBrF8
_chemical_formula_sum   'Sb4 Br4 F32'
_cell_volume   616.80354799
_cell_formula_units_Z   4
loop_
 _symmetry_equiv_pos_site_id
 _symmetry_equiv_pos_as_xyz
  1  'x, y, z'
loop_
 _atom_site_type_symbol
 _atom_site_label
 _atom_site_symmetry_multiplicity
 _atom_site_fract_x
 _atom_site_fract_y
 _atom_site_fract_z
 _atom_site_occupancy
  Sb  Sb0  1  0.88947070  -0.00000000  0.25000000  1
  Sb  Sb1  1  0.11052930  0.50000000  0.25000000  1
  Sb  Sb2  1  0.11052930  -0.00000000  0.75000000  1
  Sb  Sb3  1  0.88947070  0.50000000  0.75000000  1
  Br  Br0  1  0.50000000  0.75000000  0.03885701  1
  Br  Br1  1  0.50000000  0.25000000  0.46114299  1
  Br  Br2  1  0.50000000  0.25000000  0.96114299  1
  Br  Br3  1  0.50000000  0.75000000  0.53885701  1
  F  F0  1  0.11005220  0.38176381  0.81617739  1
  F  F1  1  0.11005220  0.61823619  0.68382261  1
  F  F2  1  0.88994780  0.88176381  0.68382261  1
  F  F3  1  0.88994780  0.11823619  0.81617739  1
  F  F4  1  0.88994780  0.61823619  0.18382261  1
  F  F5  1  0.88994780  0.38176381  0.31617739  1
  F  F6  1  0.11005220  0.11823619  0.31617739  1
  F  F7  1  0.11005220  0.88176381  0.18382261  1
  F  F8  1  0.63977682  0.88764184  0.18588664  1
  F  F9  1  0.63977682  0.11235816  0.31411336  1
  F  F10  1  0.36022318  0.38764184  0.31411336  1
  F  F11  1  0.36022318  0.61235816  0.18588664  1
  F  F12  1  0.36022318  0.11235816  0.81411336  1
  F  F13  1  0.36022318  0.88764184  0.68588664  1
  F  F14  1  0.63977682  0.61235816  0.68588664  1
  F  F15  1  0.63977682  0.38764184  0.81411336  1
  F  F16  1  0.61680490  0.85925417  0.92840690  1
  F  F17  1  0.61680490  0.14074583  0.57159310  1
  F  F18  1  0.38319510  0.35925417  0.57159310  1
  F  F19  1  0.38319510  0.64074583  0.92840690  1
  F  F20  1  0.38319510  0.14074583  0.07159310  1
  F  F21  1  0.38319510  0.85925417  0.42840690  1
  F  F22  1  0.61680490  0.64074583  0.42840690  1
  F  F23  1  0.61680490  0.35925417  0.07159310  1
  F  F24  1  0.86933606  0.90056416  0.39814739  1
  F  F25  1  0.86933606  0.09943584  0.10185261  1
  F  F26  1  0.13066394  0.40056416  0.10185261  1
  F  F27  1  0.13066394  0.59943584  0.39814739  1
  F  F28  1  0.13066394  0.09943584  0.60185261  1
  F  F29  1  0.13066394  0.90056416  0.89814739  1
  F  F30  1  0.86933606  0.59943584  0.89814739  1
  F  F31  1  0.86933606  0.40056416  0.60185261  1
loop_
_geom_bond_atom_site_label_1
_geom_bond_atom_site_label_2
_geom_bond_distance
_geom_bond_site_symmetry_2
Br0 F16 1.742412 1_554
Br0 F19 1.742412 1_554
Br0 F8 2.238039 1_555
Br0 F11 2.238039 1_555
Br1 F17 1.742412 1_555
Br1 F18 1.742412 1_555
Br1 F10 2.238039 1_555
Br1 F9 2.238039 1_555
Br2 F23 1.742412 1_556
Br2 F20 1.742412 1_556
Br2 F12 2.238039 1_555
Br2 F15 2.238039 1_555
Br3 F22 1.742412 1_555
Br3 F21 1.742412 1_555
Br3 F13 2.238039 1_555
Br3 F14 2.238039 1_555
F0 Sb3 1.873154 1_455
F1 Sb3 1.873154 1_455
F2 Sb2 1.873154 1_665
F3 Sb2 1.873154 1_655
F4 Sb1 1.873154 1_655
F5 Sb1 1.873154 1_655
F6 Sb0 1.873154 1_455
F7 Sb0 1.873154 1_465
F8 Sb0 1.951246 1_565
F9 Sb0 1.951246 1_555
F10 Sb1 1.951246 1_555
F11 Sb1 1.951246 1_555
F12 Sb2 1.951246 1_555
F13 Sb2 1.951246 1_565
F14 Sb3 1.951246 1_555
F15 Sb3 1.951246 1_555
F24 Sb0 1.876357 1_565
F25 Sb0 1.876357 1_555
F26 Sb1 1.876357 1_555
F27 Sb1 1.876357 1_555
F28 Sb2 1.876357 1_555
F29 Sb2 1.876357 1_565
F30 Sb3 1.876357 1_555
F31 Sb3 1.876357 1_555
