# generated using pymatgen
data_Na2CoCl4
_symmetry_space_group_name_H-M   'P 1'
_cell_length_a   6.33891615
_cell_length_b   8.03705130
_cell_length_c   13.59919293
_cell_angle_alpha   90.00000000
_cell_angle_beta   90.00000000
_cell_angle_gamma   90.00000000
_symmetry_Int_Tables_number   1
_chemical_formula_structural   Na2CoCl4
_chemical_formula_sum   'Na8 Co4 Cl16'
_cell_volume   692.82712512
_cell_formula_units_Z   4
loop_
 _symmetry_equiv_pos_site_id
 _symmetry_equiv_pos_as_xyz
  1  'x, y, z'
loop_
 _atom_site_type_symbol
 _atom_site_label
 _atom_site_symmetry_multiplicity
 _atom_site_fract_x
 _atom_site_fract_y
 _atom_site_fract_z
 _atom_site_occupancy
  Na  Na0  1  -0.00000000  -0.00000000  0.00000000  1
  Na  Na1  1  0.50000000  -0.00000000  0.50000000  1
  Na  Na2  1  -0.00000000  0.50000000  0.00000000  1
  Na  Na3  1  0.50000000  0.50000000  0.50000000  1
  Na  Na4  1  0.01714338  0.75000000  0.27058128  1
  Na  Na5  1  0.51714338  0.25000000  0.22941872  1
  Na  Na6  1  0.98285662  0.25000000  0.72941872  1
  Na  Na7  1  0.48285662  0.75000000  0.77058128  1
  Co  Co0  1  0.59405870  0.75000000  0.09127456  1
  Co  Co1  1  0.90594130  0.75000000  0.59127456  1
  Co  Co2  1  0.40594130  0.25000000  0.90872544  1
  Co  Co3  1  0.09405870  0.25000000  0.40872544  1
  Cl  Cl0  1  0.75634691  0.97292218  0.66647456  1
  Cl  Cl1  1  0.24365309  0.47292218  0.33352544  1
  Cl  Cl2  1  0.74365309  0.52707782  0.16647456  1
  Cl  Cl3  1  0.76021009  0.25000000  0.90899585  1
  Cl  Cl4  1  0.23978991  0.75000000  0.09100415  1
  Cl  Cl5  1  0.73978991  0.25000000  0.40899585  1
  Cl  Cl6  1  0.23293171  0.25000000  0.56300816  1
  Cl  Cl7  1  0.26021009  0.75000000  0.59100415  1
  Cl  Cl8  1  0.76706829  0.75000000  0.43699184  1
  Cl  Cl9  1  0.26706829  0.25000000  0.06300816  1
  Cl  Cl10  1  0.75634691  0.52707782  0.66647456  1
  Cl  Cl11  1  0.73293171  0.75000000  0.93699184  1
  Cl  Cl12  1  0.74365309  0.97292218  0.16647456  1
  Cl  Cl13  1  0.24365309  0.02707782  0.33352544  1
  Cl  Cl14  1  0.25634691  0.47292218  0.83352544  1
  Cl  Cl15  1  0.25634691  0.02707782  0.83352544  1
loop_
_geom_bond_atom_site_label_1
_geom_bond_atom_site_label_2
_geom_bond_distance
_geom_bond_site_symmetry_2
Cl0 Co1 2.270463 1_555
Cl0 Na6 2.784483 1_565
Cl0 Na1 2.795209 1_565
Cl0 Na7 2.867026 1_555
Cl1 Co3 2.270463 1_555
Cl1 Na4 2.784483 1_555
Cl1 Na3 2.795209 1_555
Cl1 Na5 2.867026 1_555
Cl2 Co0 2.270463 1_555
Cl2 Na5 2.784483 1_555
Cl2 Na2 2.795209 1_655
Cl2 Na4 2.867026 1_655
Cl3 Co2 2.245683 1_555
Cl3 Na0 2.806987 1_656
Cl3 Na2 2.806987 1_656
Cl3 Na6 2.820593 1_555
Cl4 Co0 2.245683 1_555
Cl4 Na0 2.806987 1_565
Cl4 Na2 2.806987 1_555
Cl4 Na4 2.820593 1_555
Cl5 Co3 2.245683 1_655
Cl5 Na3 2.806987 1_555
Cl5 Na1 2.806987 1_555
Cl5 Na5 2.820593 1_555
Cl6 Co3 2.275312 1_555
Cl6 Na6 2.763018 1_455
Cl6 Na1 2.763573 1_555
Cl6 Na3 2.763573 1_555
Cl7 Co1 2.245683 1_455
Cl7 Na1 2.806987 1_565
Cl7 Na3 2.806987 1_555
Cl7 Na7 2.820593 1_555
Cl8 Co1 2.275312 1_555
Cl8 Na4 2.763018 1_655
Cl8 Na3 2.763573 1_555
Cl8 Na1 2.763573 1_565
Cl9 Co2 2.275312 1_554
Cl9 Na5 2.763018 1_555
Cl9 Na2 2.763573 1_555
Cl9 Na0 2.763573 1_555
Cl10 Co1 2.270463 1_555
Cl10 Na6 2.784483 1_555
Cl10 Na3 2.795209 1_555
Cl10 Na7 2.867026 1_555
Cl11 Co0 2.275312 1_556
Cl11 Na7 2.763018 1_555
Cl11 Na2 2.763573 1_656
Cl11 Na0 2.763573 1_666
Cl12 Co0 2.270463 1_555
Cl12 Na5 2.784483 1_565
Cl12 Na0 2.795209 1_665
Cl12 Na4 2.867026 1_655
Cl13 Co3 2.270463 1_555
Cl13 Na4 2.784483 1_545
Cl13 Na1 2.795209 1_555
Cl13 Na5 2.867026 1_555
Cl14 Co2 2.270463 1_555
Cl14 Na7 2.784483 1_555
Cl14 Na2 2.795209 1_556
Cl14 Na6 2.867026 1_455
Cl15 Co2 2.270463 1_555
Cl15 Na7 2.784483 1_545
Cl15 Na0 2.795209 1_556
Cl15 Na6 2.867026 1_455
