# generated using pymatgen
data_Sr8CaCu4(ReO8)3
_symmetry_space_group_name_H-M   'P 1'
_cell_length_a   8.07886900
_cell_length_b   8.07886900
_cell_length_c   8.07886900
_cell_angle_alpha   90.00000000
_cell_angle_beta   90.00000000
_cell_angle_gamma   90.00000000
_symmetry_Int_Tables_number   1
_chemical_formula_structural   Sr8CaCu4(ReO8)3
_chemical_formula_sum   'Sr8 Ca1 Cu4 Re3 O24'
_cell_volume   527.29262625
_cell_formula_units_Z   1
loop_
 _symmetry_equiv_pos_site_id
 _symmetry_equiv_pos_as_xyz
  1  'x, y, z'
loop_
 _atom_site_type_symbol
 _atom_site_label
 _atom_site_symmetry_multiplicity
 _atom_site_fract_x
 _atom_site_fract_y
 _atom_site_fract_z
 _atom_site_occupancy
  Sr  Sr0  1  0.72953500  0.27046500  0.27046500  1
  Sr  Sr1  1  0.27046500  0.27046500  0.72953500  1
  Sr  Sr2  1  0.27046500  0.27046500  0.27046500  1
  Sr  Sr3  1  0.72953500  0.72953500  0.72953500  1
  Sr  Sr4  1  0.27046500  0.72953500  0.72953500  1
  Sr  Sr5  1  0.72953500  0.27046500  0.72953500  1
  Sr  Sr6  1  0.27046500  0.72953500  0.27046500  1
  Sr  Sr7  1  0.72953500  0.72953500  0.27046500  1
  Ca  Ca0  1  0.00000000  0.00000000  0.00000000  1
  Cu  Cu0  1  0.50000000  0.50000000  0.50000000  1
  Cu  Cu1  1  0.00000000  0.50000000  0.50000000  1
  Cu  Cu2  1  0.50000000  0.50000000  0.00000000  1
  Cu  Cu3  1  0.50000000  0.00000000  0.50000000  1
  Re  Re0  1  0.50000000  0.00000000  0.00000000  1
  Re  Re1  1  0.00000000  0.00000000  0.50000000  1
  Re  Re2  1  0.00000000  0.50000000  0.00000000  1
  O  O0  1  0.76343300  0.00000000  0.50000000  1
  O  O1  1  0.76343300  0.50000000  0.00000000  1
  O  O2  1  0.50000000  0.00000000  0.76343300  1
  O  O3  1  0.00000000  0.76343300  0.50000000  1
  O  O4  1  0.50000000  0.00000000  0.23656700  1
  O  O5  1  0.00000000  0.23656700  0.50000000  1
  O  O6  1  0.50000000  0.76343300  0.00000000  1
  O  O7  1  0.50000000  0.23656700  0.00000000  1
  O  O8  1  0.00000000  0.50000000  0.23656700  1
  O  O9  1  0.00000000  0.50000000  0.76343300  1
  O  O10  1  0.23656700  0.00000000  0.50000000  1
  O  O11  1  0.23656700  0.50000000  0.00000000  1
  O  O12  1  0.75363100  0.50000000  0.50000000  1
  O  O13  1  0.50000000  0.75363100  0.50000000  1
  O  O14  1  0.50000000  0.24636900  0.50000000  1
  O  O15  1  0.50000000  0.50000000  0.24636900  1
  O  O16  1  0.27003700  0.00000000  0.00000000  1
  O  O17  1  0.00000000  0.00000000  0.72996300  1
  O  O18  1  0.00000000  0.00000000  0.27003700  1
  O  O19  1  0.00000000  0.27003700  0.00000000  1
  O  O20  1  0.00000000  0.72996300  0.00000000  1
  O  O21  1  0.72996300  0.00000000  0.00000000  1
  O  O22  1  0.24636900  0.50000000  0.50000000  1
  O  O23  1  0.50000000  0.50000000  0.75363100  1
loop_
_geom_bond_atom_site_label_1
_geom_bond_atom_site_label_2
_geom_bond_distance
_geom_bond_site_symmetry_2
Ca0 O18 2.181594 1_555
Ca0 O19 2.181594 1_555
Ca0 O16 2.181594 1_555
Ca0 O17 2.181594 1_554
Ca0 O21 2.181594 1_455
Ca0 O20 2.181594 1_545
Cu0 O23 2.049052 1_555
Cu0 O12 2.049052 1_555
Cu0 O13 2.049052 1_555
Cu0 O22 2.049052 1_555
Cu0 O14 2.049052 1_555
Cu0 O15 2.049052 1_555
Cu1 O22 1.990383 1_555
Cu1 O12 1.990383 1_455
Cu1 O9 2.128241 1_555
Cu1 O3 2.128241 1_555
Cu1 O8 2.128241 1_555
Cu1 O5 2.128241 1_555
Cu2 O15 1.990383 1_555
Cu2 O23 1.990383 1_554
Cu2 O1 2.128241 1_555
Cu2 O6 2.128241 1_555
Cu2 O11 2.128241 1_555
Cu2 O7 2.128241 1_555
Cu3 O14 1.990383 1_555
Cu3 O13 1.990383 1_545
Cu3 O2 2.128241 1_555
Cu3 O0 2.128241 1_555
Cu3 O4 2.128241 1_555
Cu3 O10 2.128241 1_555
O0 Re1 1.911194 1_655
O0 Sr5 2.878921 1_555
O0 Sr0 2.878921 1_555
O0 Sr3 2.878921 1_545
O0 Sr7 2.878921 1_545
O1 Re2 1.911194 1_655
O1 Sr7 2.878921 1_555
O1 Sr0 2.878921 1_555
O1 Sr3 2.878921 1_554
O1 Sr5 2.878921 1_554
O2 Re0 1.911194 1_556
O2 Sr5 2.878921 1_555
O2 Sr1 2.878921 1_555
O2 Sr3 2.878921 1_545
O2 Sr4 2.878921 1_545
O3 Re1 1.911194 1_565
O3 Sr4 2.878921 1_555
O3 Sr6 2.878921 1_555
O3 Sr3 2.878921 1_455
O3 Sr7 2.878921 1_455
O4 Re0 1.911194 1_555
O4 Sr0 2.878921 1_555
O4 Sr2 2.878921 1_555
O4 Sr7 2.878921 1_545
O4 Sr6 2.878921 1_545
O5 Re1 1.911194 1_555
O5 Sr1 2.878921 1_555
O5 Sr2 2.878921 1_555
O5 Sr5 2.878921 1_455
O5 Sr0 2.878921 1_455
O6 Re0 1.911194 1_565
O6 Sr7 2.878921 1_555
O6 Sr6 2.878921 1_555
O6 Sr3 2.878921 1_554
O6 Sr4 2.878921 1_554
O7 Re0 1.911194 1_555
O7 Sr0 2.878921 1_555
O7 Sr2 2.878921 1_555
O7 Sr5 2.878921 1_554
O7 Sr1 2.878921 1_554
O8 Re2 1.911194 1_555
O8 Sr6 2.878921 1_555
O8 Sr2 2.878921 1_555
O8 Sr7 2.878921 1_455
O8 Sr0 2.878921 1_455
O9 Re2 1.911194 1_556
O9 Sr4 2.878921 1_555
O9 Sr1 2.878921 1_555
O9 Sr3 2.878921 1_455
O9 Sr5 2.878921 1_455
O10 Re1 1.911194 1_555
O10 Sr1 2.878921 1_555
O10 Sr2 2.878921 1_555
O10 Sr4 2.878921 1_545
O10 Sr6 2.878921 1_545
O11 Re2 1.911194 1_555
O11 Sr6 2.878921 1_555
O11 Sr2 2.878921 1_555
O11 Sr4 2.878921 1_554
O11 Sr1 2.878921 1_554
O12 Sr3 2.629709 1_555
O12 Sr7 2.629709 1_555
O12 Sr5 2.629709 1_555
O12 Sr0 2.629709 1_555
O13 Sr3 2.629709 1_555
O13 Sr4 2.629709 1_555
O13 Sr7 2.629709 1_555
O13 Sr6 2.629709 1_555
O14 Sr5 2.629709 1_555
O14 Sr1 2.629709 1_555
O14 Sr0 2.629709 1_555
O14 Sr2 2.629709 1_555
O15 Sr7 2.629709 1_555
O15 Sr0 2.629709 1_555
O15 Sr6 2.629709 1_555
O15 Sr2 2.629709 1_555
O16 Re0 1.857841 1_555
O16 Sr2 3.090131 1_555
O16 Sr1 3.090131 1_554
O16 Sr6 3.090131 1_545
O16 Sr4 3.090131 1_544
O17 Re1 1.857841 1_555
O17 Sr1 3.090131 1_555
O17 Sr5 3.090131 1_455
O17 Sr4 3.090131 1_545
O17 Sr3 3.090131 1_445
O18 Re1 1.857841 1_555
O18 Sr2 3.090131 1_555
O18 Sr6 3.090131 1_545
O18 Sr0 3.090131 1_455
O18 Sr7 3.090131 1_445
O19 Re2 1.857841 1_555
O19 Sr2 3.090131 1_555
O19 Sr1 3.090131 1_554
O19 Sr0 3.090131 1_455
O19 Sr5 3.090131 1_454
O20 Re2 1.857841 1_555
O20 Sr6 3.090131 1_555
O20 Sr4 3.090131 1_554
O20 Sr7 3.090131 1_455
O20 Sr3 3.090131 1_454
O21 Re0 1.857841 1_555
O21 Sr0 3.090131 1_555
O21 Sr7 3.090131 1_545
O21 Sr5 3.090131 1_554
O21 Sr3 3.090131 1_544
O22 Sr4 2.629709 1_555
O22 Sr1 2.629709 1_555
O22 Sr6 2.629709 1_555
O22 Sr2 2.629709 1_555
O23 Sr3 2.629709 1_555
O23 Sr4 2.629709 1_555
O23 Sr5 2.629709 1_555
O23 Sr1 2.629709 1_555
