# generated using pymatgen
data_CaInAu
_symmetry_space_group_name_H-M   'P 1'
_cell_length_a   4.63571864
_cell_length_b   7.40669507
_cell_length_c   8.38335480
_cell_angle_alpha   90.00000000
_cell_angle_beta   90.00000000
_cell_angle_gamma   90.00000000
_symmetry_Int_Tables_number   1
_chemical_formula_structural   CaInAu
_chemical_formula_sum   'Ca4 In4 Au4'
_cell_volume   287.84545809
_cell_formula_units_Z   4
loop_
 _symmetry_equiv_pos_site_id
 _symmetry_equiv_pos_as_xyz
  1  'x, y, z'
loop_
 _atom_site_type_symbol
 _atom_site_label
 _atom_site_symmetry_multiplicity
 _atom_site_fract_x
 _atom_site_fract_y
 _atom_site_fract_z
 _atom_site_occupancy
  Ca  Ca0  1  0.75000000  0.97663508  0.68541943  1
  Ca  Ca1  1  0.25000000  0.02336492  0.31458057  1
  Ca  Ca2  1  0.75000000  0.47663508  0.81458057  1
  Ca  Ca3  1  0.25000000  0.52336492  0.18541943  1
  In  In0  1  0.75000000  0.34038708  0.43497971  1
  In  In1  1  0.25000000  0.15961292  0.93497971  1
  In  In2  1  0.25000000  0.65961292  0.56502029  1
  In  In3  1  0.75000000  0.84038708  0.06502029  1
  Au  Au0  1  0.25000000  0.77376856  0.88281105  1
  Au  Au1  1  0.25000000  0.27376856  0.61718895  1
  Au  Au2  1  0.75000000  0.72623144  0.38281105  1
  Au  Au3  1  0.75000000  0.22623144  0.11718895  1
loop_
_geom_bond_atom_site_label_1
_geom_bond_atom_site_label_2
_geom_bond_distance
_geom_bond_site_symmetry_2
Ca0 In3 3.338502 1_556
Ca0 In1 3.403866 1_565
Ca0 In1 3.403866 1_665
Ca0 In0 3.415658 1_565
Ca0 In2 3.450328 1_655
Ca0 In2 3.450328 1_555
Ca1 In1 3.338502 1_554
Ca1 In3 3.403866 1_445
Ca1 In3 3.403866 1_545
Ca1 In2 3.415658 1_545
Ca1 In0 3.450328 1_455
Ca1 In0 3.450328 1_555
Ca2 In0 3.338502 1_555
Ca2 In2 3.403866 1_555
Ca2 In2 3.403866 1_655
Ca2 In3 3.415658 1_556
Ca2 In1 3.450328 1_555
Ca2 In1 3.450328 1_655
Ca3 In2 3.338502 1_555
Ca3 In0 3.403866 1_455
Ca3 In0 3.403866 1_555
Ca3 In1 3.415658 1_554
Ca3 In3 3.450328 1_455
Ca3 In3 3.450328 1_555
Au0 In2 2.795104 1_555
Au0 In3 2.819445 1_556
Au0 In3 2.819445 1_456
Au0 In1 2.891103 1_565
Au0 Ca3 3.142531 1_556
Au0 Ca0 3.220026 1_455
Au0 Ca0 3.220026 1_555
Au0 Ca2 3.247010 1_455
Au0 Ca2 3.247010 1_555
Au1 In1 2.795104 1_555
Au1 In0 2.819445 1_455
Au1 In0 2.819445 1_555
Au1 In2 2.891103 1_555
Au1 Ca1 3.142531 1_555
Au1 Ca2 3.220026 1_455
Au1 Ca2 3.220026 1_555
Au1 Ca0 3.247010 1_445
Au1 Ca0 3.247010 1_545
Au2 In3 2.795104 1_555
Au2 In2 2.819445 1_555
Au2 In2 2.819445 1_655
Au2 In0 2.891103 1_555
Au2 Ca0 3.142531 1_555
Au2 Ca3 3.220026 1_655
Au2 Ca3 3.220026 1_555
Au2 Ca1 3.247010 1_665
Au2 Ca1 3.247010 1_565
Au3 In0 2.795104 1_555
Au3 In1 2.819445 1_654
Au3 In1 2.819445 1_554
Au3 In3 2.891103 1_545
Au3 Ca2 3.142531 1_554
Au3 Ca1 3.220026 1_555
Au3 Ca1 3.220026 1_655
Au3 Ca3 3.247010 1_555
Au3 Ca3 3.247010 1_655
