# generated using pymatgen
data_CsMg6Bi
_symmetry_space_group_name_H-M   'P 1'
_cell_length_a   9.03952286
_cell_length_b   9.03952286
_cell_length_c   5.14282140
_cell_angle_alpha   90.00000000
_cell_angle_beta   90.00000000
_cell_angle_gamma   139.31576012
_symmetry_Int_Tables_number   1
_chemical_formula_structural   CsMg6Bi
_chemical_formula_sum   'Cs1 Mg6 Bi1'
_cell_volume   273.94707683
_cell_formula_units_Z   1
loop_
 _symmetry_equiv_pos_site_id
 _symmetry_equiv_pos_as_xyz
  1  'x, y, z'
loop_
 _atom_site_type_symbol
 _atom_site_label
 _atom_site_symmetry_multiplicity
 _atom_site_fract_x
 _atom_site_fract_y
 _atom_site_fract_z
 _atom_site_occupancy
  Cs  Cs0  1  0.79396095  0.20603905  0.50000000  1
  Mg  Mg0  1  0.32123732  0.17508653  0.50000000  1
  Mg  Mg1  1  0.82491347  0.67876268  0.50000000  1
  Mg  Mg2  1  0.19767948  0.28509946  0.00000000  1
  Mg  Mg3  1  0.71490054  0.80232052  0.00000000  1
  Mg  Mg4  1  0.61403848  0.38596152  0.00000000  1
  Mg  Mg5  1  0.11394169  0.88605831  0.00000000  1
  Bi  Bi0  1  0.41933106  0.58066894  0.50000000  1
loop_
_geom_bond_atom_site_label_1
_geom_bond_atom_site_label_2
_geom_bond_distance
_geom_bond_site_symmetry_2
Cs0 Mg4 3.989286 1_555
Cs0 Mg4 3.989286 1_556
Cs0 Mg2 4.060251 1_656
Cs0 Mg2 4.060251 1_655
Cs0 Mg3 4.060251 1_545
Cs0 Mg3 4.060251 1_546
Cs0 Mg0 4.065117 1_555
Cs0 Mg1 4.065117 1_555
Mg0 Mg5 3.086178 1_545
Mg0 Mg5 3.086178 1_546
Mg0 Mg4 3.098285 1_555
Mg0 Mg4 3.098285 1_556
Mg0 Mg1 3.119261 1_445
Mg0 Mg1 3.165468 1_555
Mg0 Mg2 3.245479 1_556
Mg0 Mg2 3.245479 1_555
Mg1 Mg5 3.086178 1_656
Mg1 Mg5 3.086178 1_655
Mg1 Mg4 3.098285 1_555
Mg1 Mg4 3.098285 1_556
Mg1 Mg3 3.245479 1_555
Mg1 Mg3 3.245479 1_556
Mg2 Mg3 3.034135 1_445
Mg2 Mg5 3.073013 1_545
Mg2 Mg4 3.129261 1_555
Mg2 Mg3 3.250594 1_555
Mg3 Mg5 3.073013 1_655
Mg3 Mg4 3.129261 1_555
Mg4 Mg5 3.142365 1_545
Mg4 Mg5 3.142365 1_655
Bi0 Mg1 3.049152 1_555
Bi0 Mg0 3.049152 1_555
Bi0 Mg2 3.105843 1_556
Bi0 Mg2 3.105843 1_555
Bi0 Mg3 3.105843 1_555
Bi0 Mg3 3.105843 1_556
Bi0 Cs0 3.793546 1_455
Bi0 Cs0 3.793546 1_565
