# generated using pymatgen
data_Na4La2Mg2SiS5O24
_symmetry_space_group_name_H-M   'P 1'
_cell_length_a   9.26763340
_cell_length_b   9.18767510
_cell_length_c   23.71953649
_cell_angle_alpha   90.14222497
_cell_angle_beta   89.79120370
_cell_angle_gamma   119.73879443
_symmetry_Int_Tables_number   1
_chemical_formula_structural   Na4La2Mg2SiS5O24
_chemical_formula_sum   'Na12 La6 Mg6 Si3 S15 O72'
_cell_volume   1753.65993976
_cell_formula_units_Z   3
loop_
 _symmetry_equiv_pos_site_id
 _symmetry_equiv_pos_as_xyz
  1  'x, y, z'
loop_
 _atom_site_type_symbol
 _atom_site_label
 _atom_site_symmetry_multiplicity
 _atom_site_fract_x
 _atom_site_fract_y
 _atom_site_fract_z
 _atom_site_occupancy
  Na  Na0  1  0.98990411  0.62737449  0.24058656  1
  Na  Na1  1  0.98672128  0.34117137  0.76270927  1
  Na  Na2  1  0.37134754  0.99105100  0.75524695  1
  Na  Na3  1  0.65351128  0.97148241  0.58946840  1
  Na  Na4  1  0.67679991  0.68421166  0.07616920  1
  Na  Na5  1  0.33779467  0.03478191  0.41884900  1
  Na  Na6  1  0.01545725  0.00170851  0.49857806  1
  Na  Na7  1  0.01315531  0.99061058  0.00489115  1
  Na  Na8  1  0.66568210  0.32713699  0.84452461  1
  Na  Na9  1  0.66699388  0.33364605  0.33022322  1
  Na  Na10  1  0.31547326  0.66366611  0.16724532  1
  Na  Na11  1  0.35931926  0.69041209  0.67187773  1
  La  La0  1  0.97912226  0.99084307  0.85437395  1
  La  La1  1  0.00569074  0.99566506  0.64808703  1
  La  La2  1  0.00767007  0.00244422  0.15112726  1
  La  La3  1  0.65483964  0.32605197  0.67973394  1
  La  La4  1  0.30908072  0.66719851  0.02342972  1
  La  La5  1  0.32651299  0.66761362  0.50907281  1
  Mg  Mg0  1  0.99194517  0.00247936  0.34601042  1
  Mg  Mg1  1  0.67163611  0.33285703  0.17853510  1
  Mg  Mg2  1  0.68034382  0.34500027  0.98685813  1
  Mg  Mg3  1  0.65710666  0.32951465  0.48310176  1
  Mg  Mg4  1  0.34141564  0.66256891  0.31824858  1
  Mg  Mg5  1  0.36090982  0.68236552  0.82054650  1
  Si  Si0  1  0.68556016  0.99075876  0.74626635  1
  Si  Si1  1  0.36449043  0.03338228  0.57639192  1
  Si  Si2  1  0.94499370  0.61653287  0.08919021  1
  S  S0  1  0.30408157  0.99387894  0.25762178  1
  S  S1  1  0.69596538  0.69960242  0.25473287  1
  S  S2  1  0.00385791  0.30815104  0.25620456  1
  S  S3  1  0.29972596  0.31601764  0.75471673  1
  S  S4  1  0.01670417  0.69104941  0.75389960  1
  S  S5  1  0.95659816  0.33108004  0.57816137  1
  S  S6  1  0.66997799  0.63264737  0.57597686  1
  S  S7  1  0.66926379  0.05356058  0.08323901  1
  S  S8  1  0.39286317  0.33188786  0.08304075  1
  S  S9  1  0.61565729  0.64322104  0.91976979  1
  S  S10  1  0.02496813  0.37806326  0.91331412  1
  S  S11  1  0.35150930  0.97913948  0.91319628  1
  S  S12  1  0.64031063  0.97154593  0.41200132  1
  S  S13  1  0.33069250  0.35642569  0.41070959  1
  S  S14  1  0.02401101  0.67139896  0.40920242  1
  O  O0  1  0.21806415  0.01849355  0.30685267  1
  O  O1  1  0.81825165  0.79898235  0.29951625  1
  O  O2  1  0.98778186  0.19688341  0.30342228  1
  O  O3  1  0.21725317  0.19666356  0.80152219  1
  O  O4  1  0.99493862  0.77715397  0.80269273  1
  O  O5  1  0.82750249  0.03163402  0.79445947  1
  O  O6  1  0.76229385  0.97591504  0.68474903  1
  O  O7  1  0.20470000  0.24312504  0.70148219  1
  O  O8  1  0.04082052  0.79154490  0.70190423  1
  O  O9  1  0.75784522  0.79017644  0.19964658  1
  O  O10  1  0.02953665  0.24045470  0.20242351  1
  O  O11  1  0.19646433  0.95941796  0.20618527  1
  O  O12  1  0.89437311  0.34659870  0.63470583  1
  O  O13  1  0.45396397  0.10807752  0.63846783  1
  O  O14  1  0.66801473  0.55897236  0.63173926  1
  O  O15  1  0.86318409  0.53082349  0.14960558  1
  O  O16  1  0.65714624  0.13451709  0.13534819  1
  O  O17  1  0.48056217  0.33276828  0.13504302  1
  O  O18  1  0.47138226  0.31872184  0.03085619  1
  O  O19  1  0.83608567  0.52494920  0.03387584  1
  O  O20  1  0.66946178  0.14008386  0.03127567  1
  O  O21  1  0.47149444  0.14337106  0.52253220  1
  O  O22  1  0.67590817  0.53290545  0.52873999  1
  O  O23  1  0.85169570  0.33369163  0.53222467  1
  O  O24  1  0.54229534  0.66341213  0.97278397  1
  O  O25  1  0.12648188  0.46317005  0.96329339  1
  O  O26  1  0.32971542  0.87671164  0.96394849  1
  O  O27  1  0.58335015  0.88305507  0.46769354  1
  O  O28  1  0.30401096  0.42068873  0.46508924  1
  O  O29  1  0.12976264  0.70923812  0.46152690  1
  O  O30  1  0.11309809  0.64581552  0.36138774  1
  O  O31  1  0.51395951  0.87024286  0.36839027  1
  O  O32  1  0.34896496  0.47126417  0.36441542  1
  O  O33  1  0.11102026  0.46848325  0.86062744  1
  O  O34  1  0.35737331  0.88877124  0.86127838  1
  O  O35  1  0.51906810  0.64210977  0.86974653  1
  O  O36  1  0.01277211  0.82741075  0.40159136  1
  O  O37  1  0.80655078  0.99321733  0.40052378  1
  O  O38  1  0.18433609  0.18353368  0.40282004  1
  O  O39  1  0.00675154  0.20675712  0.91436045  1
  O  O40  1  0.20238540  0.00129420  0.91117167  1
  O  O41  1  0.78784057  0.79310445  0.91715811  1
  O  O42  1  0.95331648  0.16622519  0.57637939  1
  O  O43  1  0.17723994  0.01113193  0.57776450  1
  O  O44  1  0.81679628  0.80593335  0.57360333  1
  O  O45  1  0.96249593  0.80946907  0.08644859  1
  O  O46  1  0.82198164  0.03534351  0.08407541  1
  O  O47  1  0.21705028  0.19184673  0.08411608  1
  O  O48  1  0.66659187  0.16226178  0.75033767  1
  O  O49  1  0.46978872  0.34031993  0.75018066  1
  O  O50  1  0.86871540  0.52159569  0.74939990  1
  O  O51  1  0.68650180  0.53227282  0.25117371  1
  O  O52  1  0.85092480  0.32469395  0.25219757  1
  O  O53  1  0.46963204  0.14282890  0.24856616  1
  O  O54  1  0.62953733  0.48959232  0.92050938  1
  O  O55  1  0.85817419  0.36242521  0.91780994  1
  O  O56  1  0.50478455  0.14347971  0.91785614  1
  O  O57  1  0.64686066  0.13808640  0.41648481  1
  O  O58  1  0.48386782  0.33934615  0.41496393  1
  O  O59  1  0.85915913  0.52164470  0.41874478  1
  O  O60  1  0.38881953  0.49461836  0.08333820  1
  O  O61  1  0.13685734  0.64608589  0.08981709  1
  O  O62  1  0.52613937  0.87540663  0.08349584  1
  O  O63  1  0.36183157  0.85034668  0.57713728  1
  O  O64  1  0.51909508  0.65136573  0.57470053  1
  O  O65  1  0.13014430  0.46898555  0.57467117  1
  O  O66  1  0.31464883  0.83695276  0.26454142  1
  O  O67  1  0.52907282  0.67937477  0.26511216  1
  O  O68  1  0.15092259  0.48180718  0.26331635  1
  O  O69  1  0.30329534  0.47653183  0.76427915  1
  O  O70  1  0.16711655  0.67440412  0.76035540  1
  O  O71  1  0.50247810  0.82985173  0.75774883  1
loop_
_geom_bond_atom_site_label_1
_geom_bond_atom_site_label_2
_geom_bond_distance
_geom_bond_site_symmetry_2
Na0 O15 2.408031 1_555
Na0 O52 2.432296 1_555
Na0 O51 2.508260 1_555
Na0 O68 2.509117 1_655
Na0 O66 2.710360 1_655
Na0 O11 2.800783 1_655
Na1 O50 2.418115 1_555
Na1 O69 2.556650 1_655
Na1 O5 2.582962 1_555
Na1 O48 2.599220 1_555
Na1 O33 2.599764 1_655
Na1 O70 2.663427 1_655
Na1 O7 2.962954 1_655
Na2 O71 2.336772 1_555
Na2 O48 2.388165 1_565
Na2 O70 2.568665 1_555
Na2 O34 2.667164 1_555
Na2 O49 2.870699 1_565
Na3 O63 2.377145 1_555
Na3 O42 2.466200 1_565
Na3 O6 2.470043 1_555
Na3 O64 2.586110 1_555
Na3 O44 2.649823 1_555
Na3 O13 2.936916 1_565
Na3 O27 2.983941 1_555
Na4 O45 2.318326 1_555
Na4 O60 2.360535 1_555
Na4 O24 2.718001 1_554
Na4 O19 2.729751 1_555
Na4 O62 2.737808 1_555
Na4 O46 2.818799 1_565
Na5 O58 2.431763 1_555
Na5 O38 2.443331 1_555
Na5 O57 2.531848 1_555
Na5 O36 2.679991 1_545
Na5 O21 2.713398 1_555
Na5 O29 2.822712 1_545
Na5 O0 2.857519 1_555
Na5 O31 2.967936 1_545
Na6 O43 2.382087 1_555
Na6 O44 2.549215 1_445
Na6 O42 2.619908 1_455
Na6 O38 2.792539 1_555
Na6 O36 2.792825 1_545
Na6 O37 3.007636 1_445
Na7 O45 2.442684 1_455
Na7 O47 2.657619 1_565
Na7 O46 2.744074 1_465
Na7 O40 2.797980 1_564
Na7 O41 2.870083 1_454
Na7 O39 2.949132 1_564
Na8 O56 2.365518 1_555
Na8 O55 2.399008 1_555
Na8 O54 2.463061 1_555
Na8 O48 2.698436 1_555
Na8 O50 2.911599 1_555
Na8 O49 2.927017 1_555
Na9 O52 2.540275 1_555
Na9 O51 2.562401 1_555
Na9 O58 2.643100 1_555
Na9 O53 2.645413 1_555
Na9 O57 2.670659 1_555
Na9 O59 2.742494 1_555
Na10 O61 2.427889 1_555
Na10 O62 2.786635 1_555
Na10 O68 2.788512 1_555
Na10 O66 2.802601 1_555
Na10 O60 2.803140 1_555
Na10 O67 3.012736 1_555
Na11 O71 2.422939 1_555
Na11 O63 2.681741 1_555
Na11 O70 2.704300 1_555
Na11 O69 2.817012 1_555
Na11 O64 2.851727 1_555
La0 O5 2.161995 1_565
La0 O41 2.336656 1_555
La0 O39 2.347346 1_665
La0 O4 2.377188 1_555
La0 O3 2.422653 1_665
La0 O40 2.434756 1_665
La1 O43 2.255621 1_565
La1 O6 2.336192 1_455
La1 O8 2.423477 1_555
La1 O7 2.453047 1_565
La1 O44 2.490858 1_455
La1 O42 2.521522 1_465
La2 O45 2.219720 1_445
La2 O11 2.372458 1_545
La2 O10 2.419164 1_555
La2 O47 2.441561 1_555
La2 O9 2.449597 1_445
La2 O46 2.474010 1_455
La3 O13 2.176985 1_555
La3 O48 2.292916 1_555
La3 O14 2.375358 1_555
La3 O12 2.381663 1_555
La3 O49 2.439578 1_555
La3 O50 2.522568 1_555
La4 O61 2.177343 1_555
La4 O25 2.295535 1_554
La4 O26 2.319228 1_554
La4 O62 2.434241 1_555
La4 O24 2.484191 1_554
La4 O60 2.502166 1_555
La5 O63 2.231030 1_555
La5 O29 2.334927 1_555
La5 O65 2.400397 1_555
La5 O28 2.408155 1_555
La5 O27 2.421864 1_555
La5 O64 2.432415 1_555
Mg0 O2 2.071177 1_555
Mg0 O1 2.078444 1_545
Mg0 O37 2.114372 1_545
Mg0 O36 2.163998 1_645
Mg0 O38 2.196782 1_655
Mg0 O0 2.226300 1_655
Mg1 O15 1.929880 1_555
Mg1 O16 2.033974 1_555
Mg1 O17 2.052278 1_555
Mg1 O52 2.442288 1_555
Mg1 O53 2.461970 1_555
Mg1 O51 2.465771 1_555
Mg2 O19 1.922396 1_556
Mg2 O18 2.102478 1_556
Mg2 O20 2.117888 1_556
Mg2 O54 2.258229 1_555
Mg2 O55 2.268035 1_555
Mg2 O56 2.402037 1_555
Mg3 O21 1.958626 1_555
Mg3 O22 2.088660 1_555
Mg3 O23 2.134880 1_555
Mg3 O58 2.315479 1_555
Mg3 O57 2.328245 1_555
Mg3 O59 2.380321 1_555
Mg4 O67 2.086997 1_555
Mg4 O32 2.103681 1_555
Mg4 O31 2.141915 1_555
Mg4 O66 2.158265 1_555
Mg4 O68 2.160984 1_555
Mg4 O30 2.282519 1_555
Mg5 O71 2.002056 1_555
Mg5 O35 2.049283 1_555
Mg5 O34 2.140824 1_555
Mg5 O69 2.152583 1_555
Mg5 O70 2.270939 1_555
Mg5 O33 2.367912 1_555
O0 S0 1.490302 1_545
O1 S1 1.491236 1_555
O2 S2 1.474788 1_655
O3 S3 1.479049 1_555
O4 S4 1.469033 1_655
O5 Si0 1.642233 1_545
O6 Si0 1.655639 1_555
O7 S3 1.495751 1_555
O8 S4 1.490781 1_555
O9 S1 1.501705 1_555
O10 S2 1.487109 1_555
O11 S0 1.509025 1_555
O12 S5 1.492218 1_555
O13 Si1 1.663091 1_555
O14 S6 1.483241 1_555
O15 Si2 1.629069 1_555
O16 S7 1.473383 1_555
O17 S8 1.477440 1_555
O18 S8 1.468439 1_555
O19 Si2 1.615481 1_555
O20 S7 1.467827 1_555
O21 Si1 1.624703 1_555
O22 S6 1.463762 1_555
O23 S5 1.471040 1_555
O24 S9 1.481770 1_555
O25 S10 1.474988 1_555
O26 S11 1.480160 1_555
O27 S12 1.503049 1_555
O28 S13 1.487356 1_555
O29 S14 1.513423 1_555
O30 S14 1.485789 1_555
O31 S12 1.493421 1_555
O32 S13 1.474726 1_555
O33 S10 1.492821 1_555
O34 S11 1.499341 1_555
O35 S9 1.485889 1_555
O36 S14 1.499191 1_555
O37 S12 1.476567 1_555
O38 S13 1.503620 1_555
O39 S10 1.497613 1_555
O40 S11 1.494441 1_545
O41 S9 1.505382 1_555
O42 S5 1.500272 1_555
O43 Si1 1.643783 1_555
O44 S6 1.496678 1_555
O45 Si2 1.699416 1_555
O46 S7 1.505593 1_555
O47 S8 1.493644 1_555
O48 Si0 1.672432 1_545
O49 S3 1.481625 1_555
O50 S4 1.482619 1_655
O51 S1 1.497987 1_555
O52 S2 1.501907 1_655
O53 S0 1.479498 1_545
O54 S9 1.479673 1_555
O55 S10 1.483241 1_655
O56 S11 1.477262 1_545
O57 S12 1.504444 1_545
O58 S13 1.507354 1_555
O59 S14 1.480547 1_655
O60 S8 1.514053 1_555
O61 Si2 1.660377 1_455
O62 S7 1.511509 1_565
O63 Si1 1.669722 1_565
O64 S6 1.491552 1_555
O65 S5 1.475421 1_455
O66 S0 1.502216 1_555
O67 S1 1.483140 1_555
O68 S2 1.508190 1_555
O69 S3 1.475612 1_555
O70 S4 1.484300 1_555
O71 Si0 1.627490 1_555
