# generated using pymatgen
data_Ho3Ni19B10
_symmetry_space_group_name_H-M   'P 1'
_cell_length_a   7.88377618
_cell_length_b   7.88377618
_cell_length_c   5.75822777
_cell_angle_alpha   88.84983277
_cell_angle_beta   88.84983277
_cell_angle_gamma   66.90996557
_symmetry_Int_Tables_number   1
_chemical_formula_structural   Ho3Ni19B10
_chemical_formula_sum   'Ho3 Ni19 B10'
_cell_volume   329.12998553
_cell_formula_units_Z   1
loop_
 _symmetry_equiv_pos_site_id
 _symmetry_equiv_pos_as_xyz
  1  'x, y, z'
loop_
 _atom_site_type_symbol
 _atom_site_label
 _atom_site_symmetry_multiplicity
 _atom_site_fract_x
 _atom_site_fract_y
 _atom_site_fract_z
 _atom_site_occupancy
  Ho  Ho0  1  0.62573200  0.62573200  0.61424100  1
  Ho  Ho1  1  0.37426800  0.37426800  0.38575900  1
  Ho  Ho2  1  0.00000000  0.00000000  0.00000000  1
  Ni  Ni0  1  0.18178600  0.18178600  0.72910000  1
  Ni  Ni1  1  0.48265000  0.95487800  0.30230100  1
  Ni  Ni2  1  0.95487800  0.48265000  0.30230100  1
  Ni  Ni3  1  0.51735000  0.04512200  0.69769900  1
  Ni  Ni4  1  0.04512200  0.51735000  0.69769900  1
  Ni  Ni5  1  0.12187500  0.62279600  0.07371300  1
  Ni  Ni6  1  0.62279600  0.12187500  0.07371300  1
  Ni  Ni7  1  0.87812500  0.37720400  0.92628700  1
  Ni  Ni8  1  0.71106600  0.22977700  0.69901700  1
  Ni  Ni9  1  0.77022300  0.28893400  0.30098300  1
  Ni  Ni10  1  0.28893400  0.77022300  0.30098300  1
  Ni  Ni11  1  0.22977700  0.71106600  0.69901700  1
  Ni  Ni12  1  0.16223300  0.16223300  0.29623500  1
  Ni  Ni13  1  0.83776700  0.83776700  0.70376500  1
  Ni  Ni14  1  0.62208500  0.62208500  0.12670300  1
  Ni  Ni15  1  0.37791500  0.37791500  0.87329700  1
  Ni  Ni16  1  0.00000000  0.00000000  0.50000000  1
  Ni  Ni17  1  0.37720400  0.87812500  0.92628700  1
  Ni  Ni18  1  0.81821400  0.81821400  0.27090000  1
  B  B0  1  0.06526200  0.69891200  0.43091900  1
  B  B1  1  0.30108800  0.93473800  0.56908100  1
  B  B2  1  0.93473800  0.30108800  0.56908100  1
  B  B3  1  0.85743000  0.65048600  0.97482900  1
  B  B4  1  0.65048600  0.85743000  0.97482900  1
  B  B5  1  0.14257000  0.34951400  0.02517100  1
  B  B6  1  0.61529100  0.38470900  0.00000000  1
  B  B7  1  0.38470900  0.61529100  0.00000000  1
  B  B8  1  0.69891200  0.06526200  0.43091900  1
  B  B9  1  0.34951400  0.14257000  0.02517100  1
loop_
_geom_bond_atom_site_label_1
_geom_bond_atom_site_label_2
_geom_bond_distance
_geom_bond_site_symmetry_2
Ho0 Ni14 2.808919 1_555
Ho0 Ni17 2.823329 1_555
Ho0 Ni7 2.823329 1_555
Ho0 Ni13 2.848761 1_555
Ho0 Ni14 2.950109 1_556
Ho0 Ni8 2.956385 1_555
Ho0 Ni11 2.956385 1_555
Ho0 Ni2 2.971657 1_555
Ho0 Ni1 2.971657 1_555
Ho0 Ni9 3.055983 1_555
Ho0 Ni10 3.055983 1_555
Ho0 Ni4 3.118421 1_655
Ho0 Ni3 3.118421 1_565
Ho0 Ni18 3.174821 1_555
Ho1 Ni15 2.808919 1_555
Ho1 Ni6 2.823329 1_555
Ho1 Ni5 2.823329 1_555
Ho1 Ni12 2.848761 1_555
Ho1 Ni15 2.950109 1_554
Ho1 Ni9 2.956385 1_555
Ho1 Ni10 2.956385 1_555
Ho1 Ni4 2.971657 1_555
Ho1 Ni3 2.971657 1_555
Ho1 Ni11 3.055983 1_555
Ho1 Ni8 3.055983 1_555
Ho1 Ni2 3.118421 1_455
Ho1 Ni1 3.118421 1_545
Ho1 Ni0 3.174821 1_555
Ho2 Ni12 2.764003 1_555
Ho2 Ni13 2.764003 1_444
Ho2 Ni7 2.769720 1_454
Ho2 Ni17 2.769720 1_544
Ho2 Ni5 2.769720 1_545
Ho2 Ni6 2.769720 1_455
Ho2 Ni0 2.823601 1_554
Ho2 Ni18 2.823601 1_445
Ho2 Ni10 2.875755 1_545
Ho2 Ni9 2.875755 1_455
Ho2 Ni11 2.875755 1_544
Ho2 Ni8 2.875755 1_454
Ho2 Ni16 2.879114 1_555
Ho2 Ni16 2.879114 1_554
Ni0 Ni12 2.511921 1_555
Ni1 Ni12 2.411847 1_565
Ni12 Ni16 2.410606 1_555
Ni12 Ni2 2.411847 1_455
Ni13 Ni16 2.410606 1_665
Ni13 Ni4 2.411847 1_655
Ni13 Ni3 2.411847 1_565
Ni13 Ni18 2.511921 1_555
B0 Ni18 2.031623 1_455
B0 Ni11 2.063592 1_555
B0 Ni4 2.124652 1_555
B0 Ni5 2.143048 1_555
B0 Ni10 2.166360 1_555
B0 Ni16 2.264777 1_565
B0 Ni13 2.302046 1_455
B0 Ni2 2.335178 1_455
B0 Ho1 2.768352 1_555
B1 Ni0 2.031623 1_565
B1 Ni10 2.063592 1_555
B1 Ni1 2.124652 1_555
B1 Ni17 2.143048 1_555
B1 Ni11 2.166360 1_555
B1 Ni16 2.264777 1_565
B1 Ni12 2.302046 1_565
B1 Ni3 2.335178 1_565
B1 Ho0 2.768352 1_555
B2 Ni0 2.031623 1_655
B2 Ni9 2.063592 1_555
B2 Ni2 2.124652 1_555
B2 Ni7 2.143048 1_555
B2 Ni8 2.166360 1_555
B2 Ni16 2.264777 1_655
B2 Ni12 2.302046 1_655
B2 Ni4 2.335178 1_655
B2 Ho0 2.768352 1_555
B3 B4 1.798832 1_555
B3 Ni13 2.092354 1_555
B3 Ni5 2.098584 1_656
B3 Ni7 2.119723 1_555
B3 Ni18 2.121159 1_556
B3 Ni14 2.123750 1_556
B3 Ni4 2.142897 1_655
B3 Ni2 2.248866 1_556
B3 Ho0 2.852037 1_555
B4 Ni13 2.092354 1_555
B4 Ni6 2.098584 1_566
B4 Ni17 2.119723 1_555
B4 Ni18 2.121159 1_556
B4 Ni14 2.123750 1_556
B4 Ni3 2.142897 1_565
B4 Ni1 2.248866 1_556
B4 Ho0 2.852037 1_555
B5 B9 1.798832 1_555
B5 Ni12 2.092354 1_555
B5 Ni7 2.098584 1_454
B5 Ni5 2.119723 1_555
B5 Ni0 2.121159 1_554
B5 Ni15 2.123750 1_554
B5 Ni2 2.142897 1_455
B5 Ni4 2.248866 1_554
B5 Ho1 2.852037 1_555
B6 B7 2.004302 1_555
B6 Ni15 2.042640 1_554
B6 Ni14 2.042640 1_555
B6 Ni6 2.084922 1_555
B6 Ni7 2.084922 1_554
B6 Ni8 2.091616 1_554
B6 Ni9 2.091616 1_555
B6 Ho1 2.915037 1_555
B6 Ho0 2.915037 1_554
B7 Ni15 2.042640 1_554
B7 Ni14 2.042640 1_555
B7 Ni5 2.084922 1_555
B7 Ni17 2.084922 1_554
B7 Ni11 2.091616 1_554
B7 Ni10 2.091616 1_555
B7 Ho1 2.915037 1_555
B7 Ho0 2.915037 1_554
B8 Ni18 2.031623 1_545
B8 Ni8 2.063592 1_555
B8 Ni3 2.124652 1_555
B8 Ni6 2.143048 1_555
B8 Ni9 2.166360 1_555
B8 Ni16 2.264777 1_655
B8 Ni13 2.302046 1_545
B8 Ni1 2.335178 1_545
B8 Ho1 2.768352 1_555
B9 Ni12 2.092354 1_555
B9 Ni17 2.098584 1_544
B9 Ni6 2.119723 1_555
B9 Ni0 2.121159 1_554
B9 Ni15 2.123750 1_554
B9 Ni1 2.142897 1_545
B9 Ni3 2.248866 1_554
B9 Ho1 2.852037 1_555
