# generated using pymatgen
data_Na5Ca3TiP3(SO8)3
_symmetry_space_group_name_H-M   'P 1'
_cell_length_a   9.21667456
_cell_length_b   9.20595098
_cell_length_c   23.07677153
_cell_angle_alpha   90.40383783
_cell_angle_beta   89.98048989
_cell_angle_gamma   119.69300841
_symmetry_Int_Tables_number   1
_chemical_formula_structural   Na5Ca3TiP3(SO8)3
_chemical_formula_sum   'Na15 Ca9 Ti3 P9 S9 O72'
_cell_volume   1700.86608933
_cell_formula_units_Z   3
loop_
 _symmetry_equiv_pos_site_id
 _symmetry_equiv_pos_as_xyz
  1  'x, y, z'
loop_
 _atom_site_type_symbol
 _atom_site_label
 _atom_site_symmetry_multiplicity
 _atom_site_fract_x
 _atom_site_fract_y
 _atom_site_fract_z
 _atom_site_occupancy
  Na  Na0  1  0.99720621  0.63598719  0.25880870  1
  Na  Na1  1  0.30717878  0.34673895  0.58611403  1
  Na  Na2  1  0.02723967  0.68990368  0.57729284  1
  Na  Na3  1  0.66711629  0.95444299  0.57575284  1
  Na  Na4  1  0.66150370  0.69562831  0.07832124  1
  Na  Na5  1  0.03877645  0.34388990  0.08216381  1
  Na  Na6  1  0.99658007  0.68632685  0.90986723  1
  Na  Na7  1  0.32352421  0.29695067  0.90685482  1
  Na  Na8  1  0.68792574  0.67652253  0.42114955  1
  Na  Na9  1  0.99727998  0.00429315  0.49401962  1
  Na  Na10  1  0.00138380  0.99334165  0.99415856  1
  Na  Na11  1  0.65310513  0.31366221  0.82343538  1
  Na  Na12  1  0.64783718  0.28827644  0.33751839  1
  Na  Na13  1  0.33955004  0.68172470  0.17498113  1
  Na  Na14  1  0.33332758  0.65327999  0.67147609  1
  Ca  Ca0  1  0.00193317  0.01050318  0.35151661  1
  Ca  Ca1  1  0.99362905  0.00228338  0.84655910  1
  Ca  Ca2  1  0.00111408  0.00900312  0.65651687  1
  Ca  Ca3  1  0.00654388  0.99736469  0.14739864  1
  Ca  Ca4  1  0.66659994  0.33977502  0.68762703  1
  Ca  Ca5  1  0.65584188  0.32413973  0.18548708  1
  Ca  Ca6  1  0.33315943  0.67785050  0.01415382  1
  Ca  Ca7  1  0.32936776  0.66708098  0.50992993  1
  Ca  Ca8  1  0.33734456  0.67545532  0.32564190  1
  Ti  Ti0  1  0.67701363  0.33789894  0.97267691  1
  Ti  Ti1  1  0.69215718  0.34345942  0.48149913  1
  Ti  Ti2  1  0.33756599  0.66377547  0.82156593  1
  P  P0  1  0.30969700  0.32205282  0.75648181  1
  P  P1  1  0.95988346  0.33246343  0.58270411  1
  P  P2  1  0.66797913  0.62414581  0.57969538  1
  P  P3  1  0.94560223  0.61581606  0.07930935  1
  P  P4  1  0.62853655  0.65690683  0.92089388  1
  P  P5  1  0.03657844  0.37705305  0.91966534  1
  P  P6  1  0.34522586  0.97025947  0.91654887  1
  P  P7  1  0.64278729  0.98454314  0.42355387  1
  P  P8  1  0.01404331  0.66090542  0.41895530  1
  S  S0  1  0.29928184  0.99234376  0.25064483  1
  S  S1  1  0.69471253  0.69843160  0.24840096  1
  S  S2  1  0.00606490  0.31240120  0.24628078  1
  S  S3  1  0.01917735  0.69285812  0.75533725  1
  S  S4  1  0.67230429  0.98080968  0.75249637  1
  S  S5  1  0.37640451  0.04577045  0.58130807  1
  S  S6  1  0.67344268  0.04821934  0.07765541  1
  S  S7  1  0.37418019  0.33232072  0.07672986  1
  S  S8  1  0.35028364  0.35924705  0.42185889  1
  O  O0  1  0.21080216  0.00116452  0.30220070  1
  O  O1  1  0.79597424  0.79091155  0.29960202  1
  O  O2  1  0.00225175  0.21185358  0.29560634  1
  O  O3  1  0.21785858  0.21327018  0.80822381  1
  O  O4  1  0.00053701  0.77801042  0.80674368  1
  O  O5  1  0.78277745  0.00119363  0.80078489  1
  O  O6  1  0.73920381  0.95658765  0.69659816  1
  O  O7  1  0.21306367  0.25878773  0.69854570  1
  O  O8  1  0.03744478  0.78824317  0.70147867  1
  O  O9  1  0.77584401  0.78996018  0.19375345  1
  O  O10  1  0.01001642  0.23235962  0.19008421  1
  O  O11  1  0.20601955  0.98435386  0.19694177  1
  O  O12  1  0.87511308  0.34921537  0.63611919  1
  O  O13  1  0.46902708  0.11841268  0.63502225  1
  O  O14  1  0.64389175  0.51866743  0.63283110  1
  O  O15  1  0.86150651  0.52319169  0.13462476  1
  O  O16  1  0.65954327  0.12273173  0.13161813  1
  O  O17  1  0.46591888  0.33919268  0.12913134  1
  O  O18  1  0.46152402  0.32175360  0.02350021  1
  O  O19  1  0.82831816  0.50164187  0.02497722  1
  O  O20  1  0.67305789  0.14735611  0.02643106  1
  O  O21  1  0.46813940  0.14839166  0.53036768  1
  O  O22  1  0.67847136  0.52273256  0.52410728  1
  O  O23  1  0.84804877  0.33041266  0.52825980  1
  O  O24  1  0.56452501  0.68060181  0.97870999  1
  O  O25  1  0.12564937  0.44248449  0.97742421  1
  O  O26  1  0.30649075  0.86818175  0.97137967  1
  O  O27  1  0.56795747  0.87881506  0.47849910  1
  O  O28  1  0.32985056  0.43286260  0.47648854  1
  O  O29  1  0.11464089  0.68100667  0.47396558  1
  O  O30  1  0.08807295  0.63363264  0.36305840  1
  O  O31  1  0.53199132  0.90586574  0.37007191  1
  O  O32  1  0.37431674  0.47229788  0.37263738  1
  O  O33  1  0.13587293  0.50897187  0.87058521  1
  O  O34  1  0.36799858  0.87141944  0.86475960  1
  O  O35  1  0.50096700  0.63409149  0.87097773  1
  O  O36  1  0.97222624  0.80337879  0.41508802  1
  O  O37  1  0.81870020  0.00612484  0.41648038  1
  O  O38  1  0.20640724  0.19074013  0.41442935  1
  O  O39  1  0.01152810  0.20306663  0.90886334  1
  O  O40  1  0.19855587  0.00452083  0.90678679  1
  O  O41  1  0.80945073  0.79122582  0.90975634  1
  O  O42  1  0.96573897  0.16662448  0.57956251  1
  O  O43  1  0.20769888  0.03522381  0.58307896  1
  O  O44  1  0.83453283  0.79626698  0.58049879  1
  O  O45  1  0.94673574  0.78457006  0.07355049  1
  O  O46  1  0.83605547  0.04620135  0.07588447  1
  O  O47  1  0.20008474  0.18671989  0.07653155  1
  O  O48  1  0.64474321  0.12511804  0.75021014  1
  O  O49  1  0.48887542  0.35447662  0.75435762  1
  O  O50  1  0.87580113  0.52189638  0.75233151  1
  O  O51  1  0.69014261  0.53363684  0.24825216  1
  O  O52  1  0.85481673  0.33374088  0.24918839  1
  O  O53  1  0.47003803  0.13803727  0.25038136  1
  O  O54  1  0.62896243  0.48032238  0.92309098  1
  O  O55  1  0.85729759  0.36909720  0.92215169  1
  O  O56  1  0.51097571  0.14931935  0.92373801  1
  O  O57  1  0.65858373  0.16263994  0.43245897  1
  O  O58  1  0.50855198  0.34990493  0.42456462  1
  O  O59  1  0.83436490  0.49364725  0.42628407  1
  O  O60  1  0.36157483  0.48904077  0.07685074  1
  O  O61  1  0.11858920  0.63042321  0.07561333  1
  O  O62  1  0.53580389  0.87210654  0.07553820  1
  O  O63  1  0.34836433  0.87105549  0.57671401  1
  O  O64  1  0.51504605  0.65169548  0.57455361  1
  O  O65  1  0.13742408  0.48563586  0.57734314  1
  O  O66  1  0.30607916  0.83286103  0.25139116  1
  O  O67  1  0.52398289  0.67476305  0.25099721  1
  O  O68  1  0.15583175  0.48431526  0.24858660  1
  O  O69  1  0.32059774  0.50011063  0.77079731  1
  O  O70  1  0.17731928  0.68306866  0.76197275  1
  O  O71  1  0.50647460  0.82305483  0.76166919  1
loop_
_geom_bond_atom_site_label_1
_geom_bond_atom_site_label_2
_geom_bond_distance
_geom_bond_site_symmetry_2
Na0 O52 2.426421 1_555
Na0 O68 2.481978 1_655
Na0 O66 2.512122 1_655
Na0 O51 2.512379 1_555
Na0 O30 2.551385 1_655
Na1 O65 2.471787 1_555
Na1 O64 2.510944 1_555
Na1 O43 2.542056 1_555
Na1 O28 2.633620 1_555
Na1 O7 2.733500 1_555
Na1 O42 2.739112 1_455
Na1 O14 2.900051 1_555
Na2 O44 2.416754 1_455
Na2 O29 2.530330 1_555
Na2 O65 2.541552 1_555
Na2 O63 2.579049 1_555
Na2 O43 2.765160 1_565
Na2 O8 2.986727 1_555
Na3 O27 2.388694 1_555
Na3 O64 2.421143 1_555
Na3 O42 2.463732 1_565
Na3 O44 2.596477 1_555
Na3 O63 2.643209 1_555
Na3 O6 2.864660 1_555
Na4 O45 2.337129 1_555
Na4 O62 2.419102 1_555
Na4 O24 2.444693 1_554
Na4 O60 2.459762 1_555
Na4 O46 2.804607 1_565
Na4 O9 2.832526 1_555
Na5 O61 2.367531 1_555
Na5 O46 2.438057 1_455
Na5 O47 2.539514 1_555
Na5 O25 2.572292 1_554
Na5 O60 2.591424 1_555
Na5 O10 2.663229 1_555
Na6 O41 2.357392 1_555
Na6 O4 2.524824 1_655
Na6 O55 2.560143 1_555
Na6 O40 2.579073 1_665
Na6 O33 2.681546 1_655
Na6 O26 2.865004 1_655
Na7 O40 2.345641 1_555
Na7 O3 2.440491 1_555
Na7 O54 2.489731 1_555
Na7 O39 2.560523 1_555
Na7 O56 2.705172 1_555
Na7 O35 2.828366 1_555
Na7 O18 2.936255 1_556
Na8 O36 2.284692 1_555
Na8 O58 2.618943 1_555
Na8 O59 2.631357 1_555
Na8 O37 2.655676 1_565
Na8 O22 2.753569 1_555
Na8 O32 2.780538 1_555
Na8 O27 2.906288 1_555
Na8 O1 2.994836 1_555
Na9 O37 2.437423 1_555
Na9 O36 2.514329 1_545
Na9 O42 2.569647 1_555
Na9 O38 2.607501 1_655
Na9 O44 2.665725 1_545
Na9 O43 2.741064 1_655
Na10 O45 2.528665 1_456
Na10 O46 2.614441 1_466
Na10 O47 2.619401 1_566
Na10 O41 2.659964 1_455
Na10 O40 2.682071 1_565
Na10 O39 2.735942 1_565
Na11 O49 2.355203 1_555
Na11 O48 2.387538 1_555
Na11 O50 2.593073 1_555
Na11 O56 2.728819 1_555
Na11 O54 2.824956 1_555
Na11 O55 2.833165 1_555
Na12 O57 2.509391 1_555
Na12 O53 2.521791 1_555
Na12 O58 2.590114 1_555
Na12 O52 2.680984 1_555
Na12 O59 2.730160 1_555
Na12 O51 2.947898 1_555
Na13 O66 2.351706 1_555
Na13 O68 2.459261 1_555
Na13 O67 2.466253 1_555
Na13 O62 2.919400 1_555
Na13 O60 2.935237 1_555
Na13 O61 2.943429 1_555
Na14 O71 2.609014 1_555
Na14 O70 2.623837 1_555
Na14 O69 2.671490 1_555
Na14 O65 2.748728 1_555
Na14 O64 2.798059 1_555
Na14 O63 2.933767 1_555
Ca0 O37 2.243394 1_455
Ca0 O2 2.264714 1_555
Ca0 O0 2.273669 1_555
Ca0 O38 2.298371 1_555
Ca0 O1 2.300207 1_445
Ca0 O36 2.320530 1_445
Ca1 O3 2.207370 1_655
Ca1 O5 2.207818 1_555
Ca1 O39 2.274119 1_655
Ca1 O4 2.283524 1_645
Ca1 O40 2.337163 1_655
Ca1 O41 2.356758 1_545
Ca2 O7 2.358823 1_555
Ca2 O6 2.401306 1_445
Ca2 O42 2.423006 1_455
Ca2 O8 2.454200 1_545
Ca2 O43 2.470598 1_555
Ca2 O44 2.498923 1_445
Ca3 O11 2.218803 1_555
Ca3 O9 2.305682 1_455
Ca3 O10 2.356441 1_565
Ca3 O47 2.419245 1_565
Ca3 O45 2.435042 1_455
Ca3 O46 2.471211 1_465
Ca4 O14 2.173938 1_555
Ca4 O12 2.224443 1_555
Ca4 O13 2.287507 1_555
Ca4 O49 2.299524 1_555
Ca4 O50 2.349950 1_555
Ca4 O48 2.382656 1_555
Ca5 O15 2.217260 1_555
Ca5 O16 2.239317 1_555
Ca5 O17 2.240321 1_555
Ca5 O53 2.288729 1_555
Ca5 O51 2.296588 1_555
Ca5 O52 2.317613 1_555
Ca6 O26 2.134507 1_554
Ca6 O25 2.222801 1_554
Ca6 O24 2.272106 1_554
Ca6 O61 2.294461 1_555
Ca6 O62 2.313030 1_555
Ca6 O60 2.381152 1_555
Ca7 O29 2.208149 1_555
Ca7 O27 2.221148 1_555
Ca7 O28 2.287100 1_555
Ca7 O64 2.327570 1_555
Ca7 O65 2.333910 1_555
Ca7 O63 2.359144 1_555
Ca8 O31 2.229252 1_555
Ca8 O30 2.301974 1_555
Ca8 O32 2.334600 1_555
Ca8 O66 2.359626 1_555
Ca8 O67 2.436180 1_555
Ca8 O68 2.469514 1_555
O0 S0 1.466522 1_545
O1 S1 1.480310 1_555
O2 S2 1.461610 1_555
O3 P0 1.523637 1_555
O4 S3 1.473601 1_555
O5 S4 1.456787 1_545
O6 S4 1.491810 1_555
O7 P0 1.547866 1_555
O8 S3 1.487600 1_555
O9 S1 1.499867 1_555
O10 S2 1.496380 1_555
O11 S0 1.488932 1_555
O12 P1 1.506542 1_555
O13 S5 1.461475 1_555
O14 P2 1.516173 1_555
O15 P3 1.522236 1_555
O16 S6 1.453476 1_555
O17 S7 1.458713 1_555
O18 S7 1.497209 1_555
O18 Ti0 2.247363 1_554
O19 P3 1.643784 1_555
O19 Ti0 1.888534 1_554
O20 S6 1.499566 1_555
O20 Ti0 2.141109 1_554
O21 S5 1.487582 1_555
O21 Ti1 2.261253 1_555
O22 P2 1.612144 1_555
O22 Ti1 1.972243 1_555
O23 P1 1.619443 1_555
O23 Ti1 1.848540 1_555
O24 P4 1.516122 1_555
O25 P5 1.520819 1_555
O26 P6 1.515139 1_555
O27 P7 1.543535 1_555
O28 S8 1.482662 1_555
O29 P8 1.527395 1_555
O30 P8 1.535261 1_555
O31 P7 1.531707 1_555
O32 S8 1.486782 1_555
O33 P5 1.585180 1_555
O33 Ti2 2.040331 1_555
O34 P6 1.572908 1_555
O34 Ti2 2.041674 1_555
O35 P4 1.583123 1_555
O35 Ti2 2.014011 1_555
O36 P8 1.542497 1_655
O37 P7 1.541422 1_545
O38 S8 1.467213 1_555
O39 P5 1.519528 1_555
O40 P6 1.549593 1_545
O41 P4 1.528695 1_555
O42 P1 1.555334 1_555
O43 S5 1.509726 1_555
O44 P2 1.567605 1_555
O45 P3 1.555021 1_555
O46 S6 1.508574 1_555
O47 S7 1.496829 1_555
O48 S4 1.472256 1_545
O49 P0 1.526602 1_555
O50 S3 1.471790 1_655
O51 S1 1.496655 1_555
O52 S2 1.502467 1_655
O53 S0 1.478076 1_545
O54 P4 1.628722 1_555
O54 Ti0 1.954836 1_555
O55 P5 1.618361 1_655
O55 Ti0 1.932234 1_555
O56 P6 1.606254 1_545
O56 Ti0 1.993166 1_555
O57 P7 1.584405 1_545
O57 Ti1 1.900209 1_555
O58 S8 1.504509 1_555
O58 Ti1 2.166909 1_555
O59 P8 1.618400 1_655
O59 Ti1 1.865862 1_555
O60 S7 1.503681 1_555
O61 P3 1.534607 1_455
O62 S6 1.483763 1_565
O63 S5 1.500280 1_565
O64 P2 1.555600 1_555
O65 P1 1.548434 1_455
O66 S0 1.500429 1_555
O67 S1 1.479053 1_555
O68 S2 1.499169 1_555
O69 P0 1.623395 1_555
O69 Ti2 1.846338 1_555
O70 S3 1.512112 1_555
O70 Ti2 2.090177 1_555
O71 S4 1.514930 1_555
O71 Ti2 2.061498 1_555
