# generated using pymatgen
data_MgZn2Ni3O8
_symmetry_space_group_name_H-M   'P 1'
_cell_length_a   5.08871766
_cell_length_b   5.78647650
_cell_length_c   6.00739166
_cell_angle_alpha   118.79079731
_cell_angle_beta   90.25761834
_cell_angle_gamma   90.00000084
_symmetry_Int_Tables_number   1
_chemical_formula_structural   MgZn2Ni3O8
_chemical_formula_sum   'Mg1 Zn2 Ni3 O8'
_cell_volume   155.02339522
_cell_formula_units_Z   1
loop_
 _symmetry_equiv_pos_site_id
 _symmetry_equiv_pos_as_xyz
  1  'x, y, z'
loop_
 _atom_site_type_symbol
 _atom_site_label
 _atom_site_symmetry_multiplicity
 _atom_site_fract_x
 _atom_site_fract_y
 _atom_site_fract_z
 _atom_site_occupancy
  Mg  Mg0  1  0.50000000  0.50000000  0.00000000  1
  Zn  Zn0  1  0.73396924  0.76292348  0.52584696  1
  Zn  Zn1  1  0.26602976  0.23707752  0.47415304  1
  Ni  Ni0  1  0.50000000  0.99999900  0.00000000  1
  Ni  Ni1  1  0.99999900  0.75289574  0.00000000  1
  Ni  Ni2  1  0.99999900  0.24710426  1.00000000  1
  O  O0  1  0.15171460  0.40569006  0.81138112  1
  O  O1  1  0.84828540  0.59430894  0.18861888  1
  O  O2  1  0.16993586  0.91092661  0.82185421  1
  O  O3  1  0.83006414  0.08907239  0.17814479  1
  O  O4  1  0.35345882  0.33495377  0.21306813  1
  O  O5  1  0.35345882  0.87811336  0.21306813  1
  O  O6  1  0.64654218  0.12188564  0.78693187  1
  O  O7  1  0.64654218  0.66504623  0.78693187  1
loop_
_geom_bond_atom_site_label_1
_geom_bond_atom_site_label_2
_geom_bond_distance
_geom_bond_site_symmetry_2
Mg0 O1 2.027117 1_555
Mg0 O0 2.027117 1_554
Mg0 O5 2.071853 1_555
Mg0 O4 2.071857 1_555
Mg0 O7 2.071859 1_554
Mg0 O6 2.071859 1_554
Ni0 O7 1.889446 1_554
Ni0 O5 1.889447 1_555
Ni0 O4 1.889452 1_565
Ni0 O6 1.889453 1_564
Ni0 O3 1.919517 1_565
Ni0 O2 1.919520 1_554
Ni1 O3 1.918403 1_565
Ni1 O2 1.918407 1_654
Ni1 O1 1.931707 1_555
Ni1 O0 1.931711 1_654
Ni1 O7 2.117649 1_554
Ni1 O5 2.117662 1_655
Ni2 O3 1.918402 1_556
Ni2 O2 1.918412 1_645
Ni2 O1 1.931703 1_556
Ni2 O0 1.931707 1_655
Ni2 O6 2.117649 1_555
Ni2 O4 2.117662 1_656
O0 Zn1 1.871137 1_555
O1 Zn0 1.871138 1_555
O4 Zn1 1.959747 1_555
O5 Zn1 1.959759 1_565
O6 Zn0 1.959749 1_545
O7 Zn0 1.959749 1_555
