# generated using pymatgen
data_MgMn6O11F
_symmetry_space_group_name_H-M   'P 1'
_cell_length_a   8.15119537
_cell_length_b   5.68322173
_cell_length_c   5.87877135
_cell_angle_alpha   67.52856036
_cell_angle_beta   62.94844223
_cell_angle_gamma   64.65945265
_symmetry_Int_Tables_number   1
_chemical_formula_structural   MgMn6O11F
_chemical_formula_sum   'Mg1 Mn6 O11 F1'
_cell_volume   213.16793666
_cell_formula_units_Z   1
loop_
 _symmetry_equiv_pos_site_id
 _symmetry_equiv_pos_as_xyz
  1  'x, y, z'
loop_
 _atom_site_type_symbol
 _atom_site_label
 _atom_site_symmetry_multiplicity
 _atom_site_fract_x
 _atom_site_fract_y
 _atom_site_fract_z
 _atom_site_occupancy
  Mg  Mg0  1  0.49414890  0.99812723  0.52568484  1
  Mn  Mn0  1  0.86916207  0.67905150  0.68216234  1
  Mn  Mn1  1  0.31617331  0.63437297  0.66886475  1
  Mn  Mn2  1  0.67273387  0.36913630  0.32958864  1
  Mn  Mn3  1  0.11928955  0.31788489  0.32222275  1
  Mn  Mn4  1  0.52177065  0.02646880  0.01375711  1
  Mn  Mn5  1  0.97829998  0.00324545  0.01008496  1
  O  O0  1  0.67164709  0.04010761  0.64434213  1
  O  O1  1  0.32089352  0.35919375  0.97565736  1
  O  O2  1  0.58838528  0.59122670  0.55671664  1
  O  O3  1  0.94682137  0.23587181  0.20999213  1
  O  O4  1  0.70043367  0.11117957  0.14690601  1
  O  O5  1  0.39557055  0.41371094  0.45430213  1
  O  O6  1  0.04110932  0.76851980  0.78917118  1
  O  O7  1  0.99180732  0.30167924  0.69616952  1
  O  O8  1  0.32757543  0.97573346  0.36868378  1
  O  O9  1  0.66839128  0.65451264  0.02884983  1
  O  O10  1  0.00053947  0.69785661  0.30884140  1
  F  F0  1  0.28265238  0.89712071  0.86799950  1
loop_
_geom_bond_atom_site_label_1
_geom_bond_atom_site_label_2
_geom_bond_distance
_geom_bond_site_symmetry_2
Mg0 O0 1.994368 1_565
Mg0 O8 2.022182 1_555
Mg0 O2 2.062872 1_555
Mg0 O5 2.079574 1_565
Mg0 O4 2.150344 1_565
Mn0 O7 1.926255 1_555
Mn0 O10 1.937966 1_655
Mn0 O9 1.948270 1_556
Mn0 O0 2.000243 1_565
Mn0 O6 2.067663 1_655
Mn1 O5 1.831544 1_555
Mn1 O1 1.885613 1_555
Mn1 O6 1.901340 1_555
Mn1 O2 1.935290 1_555
Mn1 O8 2.067494 1_555
Mn2 O2 1.886572 1_555
Mn2 O9 1.890295 1_555
Mn2 O3 1.894523 1_555
Mn2 O5 1.962451 1_555
Mn2 O4 2.013268 1_555
Mn2 O0 2.067569 1_555
Mn3 O10 1.938183 1_555
Mn3 O7 1.941733 1_455
Mn3 O1 1.955957 1_554
Mn3 O8 1.981931 1_545
Mn3 O3 2.066043 1_455
Mn4 O1 1.914775 1_554
Mn4 O9 1.922320 1_545
Mn4 O0 1.937510 1_554
Mn4 O8 1.966975 1_545
Mn4 O4 2.211431 1_555
Mn5 O4 1.919384 1_555
Mn5 O3 1.953940 1_555
Mn5 O10 1.954445 1_645
Mn5 O6 1.965520 1_644
Mn5 O7 1.968942 1_554
F0 Mg0 2.039530 1_555
F0 Mn1 2.090707 1_555
F0 Mn5 2.106060 1_466
