# generated using pymatgen
data_K5Pb24
_symmetry_space_group_name_H-M   'P 1'
_cell_length_a   10.78681879
_cell_length_b   10.78681894
_cell_length_c   10.78681827
_cell_angle_alpha   109.47121938
_cell_angle_beta   109.47121965
_cell_angle_gamma   109.47121857
_symmetry_Int_Tables_number   1
_chemical_formula_structural   K5Pb24
_chemical_formula_sum   'K5 Pb24'
_cell_volume   966.18049626
_cell_formula_units_Z   1
loop_
 _symmetry_equiv_pos_site_id
 _symmetry_equiv_pos_as_xyz
  1  'x, y, z'
loop_
 _atom_site_type_symbol
 _atom_site_label
 _atom_site_symmetry_multiplicity
 _atom_site_fract_x
 _atom_site_fract_y
 _atom_site_fract_z
 _atom_site_occupancy
  K  K0  1  0.00000000  0.00000000  0.36312756  1
  K  K1  1  -0.00000000  0.36312756  -0.00000000  1
  K  K2  1  0.36312756  -0.00000000  -0.00000000  1
  K  K3  1  0.63687244  0.63687244  0.63687244  1
  K  K4  1  0.00000000  0.00000000  -0.00000000  1
  Pb  Pb0  1  0.19951127  0.80897538  0.19951127  1
  Pb  Pb1  1  0.80048873  0.00000000  0.60946411  1
  Pb  Pb2  1  0.60946411  0.00000000  0.80048873  1
  Pb  Pb3  1  0.00000000  0.60946411  0.80048873  1
  Pb  Pb4  1  0.19102462  0.39053589  0.39053589  1
  Pb  Pb5  1  0.39053589  0.19102462  0.39053589  1
  Pb  Pb6  1  0.19951127  0.19951127  0.80897538  1
  Pb  Pb7  1  0.40079409  0.72097822  0.40079409  1
  Pb  Pb8  1  0.27902178  0.67981487  0.67981487  1
  Pb  Pb9  1  -0.00000000  0.59920591  0.32018513  1
  Pb  Pb10  1  0.32018513  -0.00000000  0.59920591  1
  Pb  Pb11  1  0.59920591  -0.00000000  0.32018513  1
  Pb  Pb12  1  0.32018513  0.59920591  -0.00000000  1
  Pb  Pb13  1  0.67981487  0.67981487  0.27902178  1
  Pb  Pb14  1  -0.00000000  0.32018513  0.59920591  1
  Pb  Pb15  1  0.59920591  0.32018513  -0.00000000  1
  Pb  Pb16  1  0.40079409  0.40079409  0.72097822  1
  Pb  Pb17  1  0.72097822  0.40079409  0.40079409  1
  Pb  Pb18  1  0.67981487  0.27902178  0.67981487  1
  Pb  Pb19  1  0.80897538  0.19951127  0.19951127  1
  Pb  Pb20  1  0.00000000  0.80048873  0.60946411  1
  Pb  Pb21  1  0.80048873  0.60946411  0.00000000  1
  Pb  Pb22  1  0.60946411  0.80048873  0.00000000  1
  Pb  Pb23  1  0.39053589  0.39053589  0.19102462  1
loop_
_geom_bond_atom_site_label_1
_geom_bond_atom_site_label_2
_geom_bond_distance
_geom_bond_site_symmetry_2
K0 Pb10 3.542595 1_555
K0 Pb14 3.542595 1_555
K0 Pb13 3.542600 1_445
K0 Pb0 3.880240 1_545
K0 Pb19 3.880240 1_455
K0 Pb5 3.880240 1_555
K0 Pb22 3.880240 1_445
K0 Pb4 3.880240 1_555
K0 Pb21 3.880240 1_445
K0 K4 3.916991 1_555
K0 Pb1 3.937574 1_455
K0 Pb20 3.937574 1_545
K0 Pb6 3.937574 1_555
K1 Pb9 3.542595 1_555
K1 Pb12 3.542595 1_555
K1 Pb18 3.542600 1_454
K1 Pb4 3.880240 1_555
K1 Pb19 3.880240 1_455
K1 Pb6 3.880240 1_554
K1 Pb23 3.880240 1_555
K1 Pb1 3.880240 1_454
K1 Pb2 3.880240 1_454
K1 K4 3.916991 1_555
K1 Pb3 3.937574 1_554
K1 Pb21 3.937574 1_455
K1 Pb0 3.937574 1_555
K2 Pb11 3.542595 1_555
K2 Pb15 3.542595 1_555
K2 Pb8 3.542600 1_544
K2 Pb5 3.880240 1_555
K2 Pb0 3.880240 1_545
K2 Pb6 3.880240 1_554
K2 Pb20 3.880240 1_544
K2 Pb23 3.880240 1_555
K2 Pb3 3.880240 1_544
K2 K4 3.916991 1_555
K2 Pb2 3.937574 1_554
K2 Pb22 3.937574 1_545
K2 Pb19 3.937574 1_555
K3 Pb7 3.542587 1_555
K3 Pb17 3.542587 1_555
K3 Pb16 3.542587 1_555
K3 Pb21 3.880240 1_556
K3 Pb22 3.880240 1_556
K3 Pb3 3.880240 1_655
K3 Pb20 3.880240 1_655
K3 Pb2 3.880240 1_565
K3 Pb1 3.880240 1_565
K3 K4 3.916991 1_666
K3 Pb23 3.937574 1_555
K3 Pb4 3.937574 1_555
K3 Pb5 3.937574 1_555
K4 Pb1 4.041515 1_454
K4 Pb20 4.041515 1_544
K4 Pb6 4.041515 1_554
K4 Pb0 4.041515 1_545
K4 Pb19 4.041515 1_455
K4 Pb2 4.041515 1_454
K4 Pb3 4.041515 1_544
K4 Pb5 4.041515 1_555
K4 Pb22 4.041515 1_445
K4 Pb4 4.041515 1_555
K4 Pb21 4.041515 1_445
K4 Pb23 4.041515 1_555
Pb0 Pb7 3.151886 1_555
Pb0 Pb5 3.364861 1_565
Pb0 Pb12 3.468521 1_555
Pb0 Pb9 3.468521 1_555
Pb0 Pb3 3.514351 1_554
Pb0 Pb21 3.514352 1_455
Pb0 Pb10 3.616151 1_565
Pb0 Pb11 3.616151 1_565
Pb1 Pb11 3.151878 1_555
Pb1 Pb2 3.364861 1_555
Pb1 Pb13 3.468515 1_545
Pb1 Pb14 3.468521 1_655
Pb1 Pb20 3.514351 1_645
Pb1 Pb6 3.514352 1_655
Pb1 Pb7 3.616153 1_545
Pb1 Pb18 3.616160 1_555
Pb2 Pb8 3.468515 1_545
Pb2 Pb22 3.514351 1_546
Pb2 Pb7 3.616153 1_545
Pb3 Pb8 3.616160 1_555
Pb4 Pb8 3.151874 1_555
Pb4 Pb7 3.468513 1_555
Pb4 Pb5 3.514351 1_555
Pb4 Pb9 3.616151 1_555
Pb10 Pb2 3.151878 1_555
Pb10 Pb6 3.468521 1_555
Pb10 Pb20 3.468521 1_545
Pb10 Pb5 3.616151 1_555
Pb11 Pb22 3.468521 1_545
Pb11 Pb19 3.468521 1_555
Pb11 Pb5 3.616151 1_555
Pb12 Pb22 3.151878 1_555
Pb12 Pb3 3.468521 1_554
Pb12 Pb23 3.616151 1_555
Pb12 Pb6 3.616151 1_554
Pb13 Pb23 3.151874 1_555
Pb13 Pb20 3.468515 1_655
Pb13 Pb21 3.616160 1_555
Pb13 Pb22 3.616160 1_555
Pb14 Pb3 3.151878 1_555
Pb14 Pb6 3.468521 1_555
Pb14 Pb4 3.616151 1_555
Pb14 Pb19 3.616151 1_455
Pb15 Pb21 3.151878 1_555
Pb15 Pb19 3.468521 1_555
Pb15 Pb2 3.468521 1_554
Pb15 Pb23 3.616151 1_555
Pb15 Pb6 3.616151 1_554
Pb16 Pb6 3.151886 1_555
Pb16 Pb4 3.468512 1_555
Pb16 Pb5 3.468512 1_555
Pb16 Pb21 3.616153 1_556
Pb16 Pb22 3.616153 1_556
Pb17 Pb19 3.151886 1_555
Pb17 Pb23 3.468512 1_555
Pb17 Pb5 3.468513 1_555
Pb17 Pb3 3.616153 1_655
Pb17 Pb20 3.616153 1_655
Pb18 Pb5 3.151874 1_555
Pb18 Pb21 3.468515 1_556
Pb18 Pb3 3.468515 1_655
Pb18 Pb2 3.616160 1_555
Pb19 Pb4 3.364861 1_655
Pb19 Pb2 3.514351 1_554
Pb19 Pb22 3.514352 1_545
Pb19 Pb9 3.616151 1_655
Pb20 Pb9 3.151878 1_555
Pb20 Pb3 3.364861 1_555
Pb20 Pb6 3.514352 1_565
Pb20 Pb8 3.616160 1_555
Pb21 Pb22 3.364861 1_555
Pb21 Pb9 3.468521 1_655
Pb21 Pb3 3.514351 1_654
Pb22 Pb8 3.468515 1_554
Pb23 Pb6 3.364861 1_554
Pb23 Pb7 3.468513 1_555
Pb23 Pb4 3.514351 1_555
Pb23 Pb5 3.514351 1_555
