# generated using pymatgen
data_MoN
_symmetry_space_group_name_H-M   'P 1'
_cell_length_a   5.74303458
_cell_length_b   5.74303557
_cell_length_c   5.64355837
_cell_angle_alpha   90.00000000
_cell_angle_beta   90.00000000
_cell_angle_gamma   120.00000027
_symmetry_Int_Tables_number   1
_chemical_formula_structural   MoN
_chemical_formula_sum   'Mo8 N8'
_cell_volume   161.20057594
_cell_formula_units_Z   8
loop_
 _symmetry_equiv_pos_site_id
 _symmetry_equiv_pos_as_xyz
  1  'x, y, z'
loop_
 _atom_site_type_symbol
 _atom_site_label
 _atom_site_symmetry_multiplicity
 _atom_site_fract_x
 _atom_site_fract_y
 _atom_site_fract_z
 _atom_site_occupancy
  Mo  Mo0  1  0.51426464  0.48573536  0.49263880  1
  Mo  Mo1  1  0.02853028  0.51426464  0.99263880  1
  Mo  Mo2  1  0.48573536  0.97146972  0.99263880  1
  Mo  Mo3  1  0.51426464  0.02853028  0.49263880  1
  Mo  Mo4  1  0.97146972  0.48573536  0.49263880  1
  Mo  Mo5  1  0.48573536  0.51426464  0.99263880  1
  Mo  Mo6  1  0.00000000  -0.00000000  0.48565562  1
  Mo  Mo7  1  0.00000000  -0.00000000  0.98565562  1
  N  N0  1  0.83350938  0.16649062  0.74876490  1
  N  N1  1  0.66701777  0.83350938  0.24876490  1
  N  N2  1  0.16649062  0.33298223  0.24876490  1
  N  N3  1  0.83350938  0.66701777  0.74876490  1
  N  N4  1  0.33298223  0.16649062  0.74876490  1
  N  N5  1  0.16649062  0.83350938  0.24876490  1
  N  N6  1  0.66666700  0.33333300  0.21713928  1
  N  N7  1  0.33333300  0.66666700  0.71713928  1
loop_
_geom_bond_atom_site_label_1
_geom_bond_atom_site_label_2
_geom_bond_distance
_geom_bond_site_symmetry_2
Mo0 N3 2.150801 1_555
Mo0 N4 2.150801 1_555
Mo0 N6 2.171542 1_555
Mo0 N7 2.201002 1_555
Mo0 N2 2.213779 1_555
Mo0 N1 2.213780 1_555
Mo1 N2 2.150794 1_556
Mo1 N5 2.150802 1_556
Mo1 N7 2.171535 1_555
Mo1 N6 2.201002 1_456
Mo1 N3 2.213779 1_455
Mo1 N0 2.213780 1_455
Mo2 N1 2.150794 1_556
Mo2 N5 2.150802 1_556
Mo2 N7 2.171535 1_555
Mo2 N6 2.201002 1_566
Mo2 N0 2.213779 1_565
Mo2 N4 2.213780 1_565
Mo3 N4 2.150794 1_555
Mo3 N0 2.150802 1_555
Mo3 N6 2.171535 1_555
Mo3 N7 2.201002 1_545
Mo3 N5 2.213779 1_545
Mo3 N1 2.213780 1_545
Mo4 N3 2.150794 1_555
Mo4 N0 2.150802 1_555
Mo4 N6 2.171535 1_555
Mo4 N7 2.201002 1_655
Mo4 N2 2.213779 1_655
Mo4 N5 2.213780 1_655
Mo5 N2 2.150801 1_556
Mo5 N1 2.150801 1_556
Mo5 N7 2.171542 1_555
Mo5 N6 2.201002 1_556
Mo5 N3 2.213779 1_555
Mo5 N4 2.213780 1_555
Mo6 N5 2.128392 1_545
Mo6 N1 2.128396 1_445
Mo6 N2 2.128396 1_555
Mo6 N0 2.224316 1_455
Mo6 N4 2.224319 1_555
Mo6 N3 2.224320 1_445
Mo7 N0 2.128392 1_455
Mo7 N4 2.128396 1_555
Mo7 N3 2.128396 1_445
Mo7 N5 2.224316 1_546
Mo7 N1 2.224319 1_446
Mo7 N2 2.224320 1_556
