# generated using pymatgen
data_Ho4MgTi2O10
_symmetry_space_group_name_H-M   'P 1'
_cell_length_a   6.28547134
_cell_length_b   6.74232799
_cell_length_c   7.76961162
_cell_angle_alpha   66.65469545
_cell_angle_beta   118.35296828
_cell_angle_gamma   131.79674328
_symmetry_Int_Tables_number   1
_chemical_formula_structural   Ho4MgTi2O10
_chemical_formula_sum   'Ho4 Mg1 Ti2 O10'
_cell_volume   214.42320060
_cell_formula_units_Z   1
loop_
 _symmetry_equiv_pos_site_id
 _symmetry_equiv_pos_as_xyz
  1  'x, y, z'
loop_
 _atom_site_type_symbol
 _atom_site_label
 _atom_site_symmetry_multiplicity
 _atom_site_fract_x
 _atom_site_fract_y
 _atom_site_fract_z
 _atom_site_occupancy
  Ho  Ho0  1  0.28872571  0.50060370  0.74014048  1
  Ho  Ho1  1  0.28937299  0.60470755  0.24229569  1
  Ho  Ho2  1  0.71062701  0.39529245  0.75770431  1
  Ho  Ho3  1  0.71127429  0.49939630  0.25985952  1
  Mg  Mg0  1  0.50000000  0.00000000  0.50000000  1
  Ti  Ti0  1  0.00000000  0.00000000  0.50000000  1
  Ti  Ti1  1  0.00000000  0.00000000  0.00000000  1
  O  O0  1  0.05310463  0.69332188  0.57825778  1
  O  O1  1  0.29334461  0.95289373  0.21649482  1
  O  O2  1  0.58449571  0.72545083  0.55022173  1
  O  O3  1  0.22436688  0.12275972  0.77249160  1
  O  O4  1  0.77960167  0.58905897  0.97428963  1
  O  O5  1  0.22039833  0.41094103  0.02571037  1
  O  O6  1  0.77563312  0.87724028  0.22750840  1
  O  O7  1  0.41550429  0.27454917  0.44977827  1
  O  O8  1  0.70665539  0.04710627  0.78350518  1
  O  O9  1  0.94689537  0.30667812  0.42174222  1
loop_
_geom_bond_atom_site_label_1
_geom_bond_atom_site_label_2
_geom_bond_distance
_geom_bond_site_symmetry_2
Ho0 O3 2.220856 1_555
Ho0 O0 2.228070 1_555
Ho0 O5 2.229071 1_556
Ho0 O2 2.237754 1_555
Ho0 O9 2.493230 1_455
Ho0 O4 2.502140 1_555
Ho0 O8 2.798579 1_565
Ho0 O8 2.879354 1_455
Ho1 O5 2.240747 1_555
Ho1 O1 2.259564 1_555
Ho1 O2 2.267828 1_555
Ho1 O6 2.326178 1_555
Ho1 O9 2.340906 1_455
Ho1 O7 2.544995 1_555
Ho1 O4 2.828444 1_454
Ho2 O4 2.240747 1_555
Ho2 O8 2.259564 1_555
Ho2 O7 2.267828 1_555
Ho2 O3 2.326178 1_555
Ho2 O0 2.340906 1_655
Ho2 O2 2.544995 1_555
Ho2 O5 2.828444 1_656
Ho3 O6 2.220856 1_555
Ho3 O9 2.228070 1_555
Ho3 O4 2.229071 1_554
Ho3 O7 2.237754 1_555
Ho3 O0 2.493230 1_655
Ho3 O5 2.502140 1_555
Ho3 O1 2.798579 1_545
Ho3 O1 2.879354 1_655
Mg0 O8 1.981683 1_555
Mg0 O1 1.981683 1_545
Mg0 O2 2.098111 1_545
Mg0 O7 2.098111 1_555
Mg0 O9 2.327882 1_555
Mg0 O0 2.327882 1_545
O0 Ti0 2.118352 1_565
O1 Ti1 1.934254 1_565
O2 Ti0 2.085854 1_665
O3 Ti0 2.037954 1_555
O3 Ti1 2.334677 1_556
O4 Ti1 2.166848 1_666
O5 Ti1 2.166848 1_555
O6 Ti0 2.037954 1_665
O6 Ti1 2.334677 1_665
O7 Ti0 2.085854 1_555
O8 Ti1 1.934254 1_656
O9 Ti0 2.118352 1_655
