# generated using pymatgen
data_MgCr3InO8
_symmetry_space_group_name_H-M   'P 1'
_cell_length_a   5.27892766
_cell_length_b   5.27342158
_cell_length_c   6.42442741
_cell_angle_alpha   89.42815354
_cell_angle_beta   89.34484454
_cell_angle_gamma   65.60425995
_symmetry_Int_Tables_number   1
_chemical_formula_structural   MgCr3InO8
_chemical_formula_sum   'Mg1 Cr3 In1 O8'
_cell_volume   162.86178441
_cell_formula_units_Z   1
loop_
 _symmetry_equiv_pos_site_id
 _symmetry_equiv_pos_as_xyz
  1  'x, y, z'
loop_
 _atom_site_type_symbol
 _atom_site_label
 _atom_site_symmetry_multiplicity
 _atom_site_fract_x
 _atom_site_fract_y
 _atom_site_fract_z
 _atom_site_occupancy
  Mg  Mg0  1  0.33438400  0.34130100  0.25127400  1
  Cr  Cr0  1  0.35447600  0.35573400  0.73673600  1
  Cr  Cr1  1  0.65591500  0.65925300  0.26962200  1
  Cr  Cr2  1  0.99540500  0.99785500  0.50009300  1
  In  In0  1  0.99762600  0.00039900  0.99262100  1
  O  O0  1  0.73062800  0.21649100  0.72969200  1
  O  O1  1  0.24281000  0.24175700  0.97571600  1
  O  O2  1  0.75180100  0.26599000  0.26481500  1
  O  O3  1  0.22642600  0.22442300  0.51882400  1
  O  O4  1  0.26324400  0.75629600  0.26392000  1
  O  O5  1  0.21556000  0.73197600  0.72933400  1
  O  O6  1  0.78074300  0.77382000  0.47641100  1
  O  O7  1  0.76348300  0.75970400  0.04094000  1
loop_
_geom_bond_atom_site_label_1
_geom_bond_atom_site_label_2
_geom_bond_distance
_geom_bond_site_symmetry_2
Mg0 O1 1.972553 1_554
Mg0 O3 1.976298 1_555
Mg0 O4 2.064184 1_555
Mg0 O2 2.074018 1_555
Cr0 O5 1.809311 1_555
Cr0 O0 1.810605 1_555
Cr0 O1 1.821945 1_555
Cr0 O3 1.823177 1_555
Cr1 O6 1.711451 1_555
Cr1 O7 1.724913 1_555
Cr1 O4 1.919671 1_555
Cr1 O2 1.921394 1_555
Cr2 O6 1.953586 1_555
Cr2 O0 2.028371 1_565
Cr2 O5 2.034047 1_655
Cr2 O3 2.034498 1_665
Cr2 O4 2.103714 1_655
Cr2 O2 2.106536 1_565
In0 O7 2.124751 1_546
In0 O1 2.159139 1_655
In0 O0 2.197195 1_555
In0 O5 2.201437 1_645
In0 O4 2.276192 1_646
In0 O2 2.280159 1_556
