# generated using pymatgen
data_V2NiO6
_symmetry_space_group_name_H-M   'P 1'
_cell_length_a   4.77475809
_cell_length_b   7.11597590
_cell_length_c   8.74218884
_cell_angle_alpha   102.07688625
_cell_angle_beta   90.11247227
_cell_angle_gamma   94.96382929
_symmetry_Int_Tables_number   1
_chemical_formula_structural   V2NiO6
_chemical_formula_sum   'V6 Ni3 O18'
_cell_volume   289.30911133
_cell_formula_units_Z   3
loop_
 _symmetry_equiv_pos_site_id
 _symmetry_equiv_pos_as_xyz
  1  'x, y, z'
loop_
 _atom_site_type_symbol
 _atom_site_label
 _atom_site_symmetry_multiplicity
 _atom_site_fract_x
 _atom_site_fract_y
 _atom_site_fract_z
 _atom_site_occupancy
  V  V0  1  0.88683582  0.41830691  0.73686661  1
  V  V1  1  0.11316418  0.58169309  0.26313339  1
  V  V2  1  0.54800489  0.28421399  0.39209357  1
  V  V3  1  0.45199511  0.71578601  0.60790643  1
  V  V4  1  0.54776007  0.28530742  0.03268503  1
  V  V5  1  0.45223993  0.71469258  0.96731497  1
  Ni  Ni0  1  0.99593104  0.98930884  0.83322673  1
  Ni  Ni1  1  0.00406896  0.01069116  0.16677327  1
  Ni  Ni2  1  0.00000000  0.00000000  0.50000000  1
  O  O0  1  0.78120949  0.46992130  0.24508774  1
  O  O1  1  0.21879051  0.53007870  0.75491226  1
  O  O2  1  0.29004014  0.52421494  0.42278465  1
  O  O3  1  0.70995986  0.47578506  0.57721535  1
  O  O4  1  0.29002343  0.52146784  0.08430209  1
  O  O5  1  0.70997657  0.47853216  0.91569791  1
  O  O6  1  0.36005844  0.20460377  0.19922310  1
  O  O7  1  0.63994156  0.79539623  0.80077690  1
  O  O8  1  0.65629250  0.83497861  0.11151878  1
  O  O9  1  0.34199761  0.16341540  0.49399985  1
  O  O10  1  0.65800239  0.83658460  0.50600015  1
  O  O11  1  0.16832890  0.85120168  0.64050778  1
  O  O12  1  0.83167110  0.14879832  0.35949222  1
  O  O13  1  0.89051800  0.17466241  0.69835375  1
  O  O14  1  0.10948200  0.82533759  0.30164625  1
  O  O15  1  0.83495625  0.15198379  0.01910704  1
  O  O16  1  0.16504375  0.84801621  0.98089296  1
  O  O17  1  0.34370750  0.16502139  0.88848122  1
loop_
_geom_bond_atom_site_label_1
_geom_bond_atom_site_label_2
_geom_bond_distance
_geom_bond_site_symmetry_2
Ni0 O11 1.983562 1_655
Ni0 O17 1.984685 1_665
Ni0 O15 1.985738 1_566
Ni0 O16 2.002230 1_655
Ni0 O13 2.036315 1_565
Ni0 O7 2.074162 1_555
Ni1 O12 1.983562 1_455
Ni1 O8 1.984685 1_445
Ni1 O16 1.985738 1_544
Ni1 O15 2.002230 1_455
Ni1 O14 2.036315 1_545
Ni1 O6 2.074162 1_555
Ni2 O9 1.928416 1_555
Ni2 O10 1.928416 1_445
Ni2 O11 1.990882 1_545
Ni2 O12 1.990882 1_455
Ni2 O14 2.009753 1_545
Ni2 O13 2.009753 1_455
O0 V1 1.702375 1_655
O0 V2 2.258197 1_555
O0 V4 2.265825 1_555
O1 V0 1.702375 1_455
O1 V3 2.258197 1_555
O1 V5 2.265825 1_555
O2 V1 1.767073 1_555
O2 V3 1.991217 1_555
O2 V2 2.163199 1_555
O3 V0 1.767073 1_555
O3 V2 1.991217 1_555
O3 V3 2.163199 1_555
O4 V1 1.768721 1_555
O4 V5 1.985876 1_554
O4 V4 2.141248 1_555
O5 V0 1.768721 1_555
O5 V4 1.985876 1_556
O5 V5 2.141248 1_555
O6 V2 1.864297 1_555
O6 V4 1.875798 1_555
O7 V3 1.864297 1_555
O7 V5 1.875798 1_555
O8 V5 1.634167 1_554
O9 V2 1.636365 1_555
O10 V3 1.636365 1_555
O11 V3 1.719517 1_555
O12 V2 1.719517 1_555
O13 V0 1.697249 1_555
O14 V1 1.697249 1_555
O15 V4 1.724318 1_555
O16 V5 1.724318 1_555
O17 V4 1.634167 1_556
