# generated using pymatgen
data_Na6Sc5Ta3Si6(SO8)6
_symmetry_space_group_name_H-M   'P 1'
_cell_length_a   17.91264442
_cell_length_b   8.94220297
_cell_length_c   23.00349018
_cell_angle_alpha   90.10883341
_cell_angle_beta   90.04986688
_cell_angle_gamma   119.92203063
_symmetry_Int_Tables_number   1
_chemical_formula_structural   Na6Sc5Ta3Si6(SO8)6
_chemical_formula_sum   'Na18 Sc15 Ta9 Si18 S18 O144'
_cell_volume   3193.50449311
_cell_formula_units_Z   3
loop_
 _symmetry_equiv_pos_site_id
 _symmetry_equiv_pos_as_xyz
  1  'x, y, z'
loop_
 _atom_site_type_symbol
 _atom_site_label
 _atom_site_symmetry_multiplicity
 _atom_site_fract_x
 _atom_site_fract_y
 _atom_site_fract_z
 _atom_site_occupancy
  Na  Na0  1  0.48430164  0.68591764  0.91078243  1
  Na  Na1  1  0.16277738  0.31801619  0.91168191  1
  Na  Na2  1  0.48732870  0.29643615  0.41528401  1
  Na  Na3  1  0.97717126  0.28946506  0.40939689  1
  Na  Na4  1  0.16418262  0.02384324  0.41196514  1
  Na  Na5  1  0.66508536  0.03005330  0.41931147  1
  Na  Na6  1  0.98246690  0.96720632  0.49195887  1
  Na  Na7  1  0.49388005  0.98492795  0.49354861  1
  Na  Na8  1  0.99269415  0.99654779  0.99667072  1
  Na  Na9  1  0.50111964  0.99937373  0.98848872  1
  Na  Na10  1  0.33353084  0.32627450  0.82021703  1
  Na  Na11  1  0.83189561  0.33981882  0.82994065  1
  Na  Na12  1  0.33705856  0.33198878  0.32965452  1
  Na  Na13  1  0.83987257  0.34049845  0.33287728  1
  Na  Na14  1  0.15275402  0.65868834  0.16174848  1
  Na  Na15  1  0.66661526  0.64718379  0.16465396  1
  Na  Na16  1  0.16915894  0.67018384  0.67102588  1
  Na  Na17  1  0.66195311  0.65722296  0.66264579  1
  Sc  Sc0  1  0.99697521  0.99612238  0.35109205  1
  Sc  Sc1  1  0.49436844  0.00211215  0.35519303  1
  Sc  Sc2  1  0.00205435  0.99966594  0.85123448  1
  Sc  Sc3  1  0.50015077  0.99833990  0.85129254  1
  Sc  Sc4  1  0.33489530  0.33382393  0.69147818  1
  Sc  Sc5  1  0.83300734  0.34301589  0.68920762  1
  Sc  Sc6  1  0.33524241  0.32684683  0.19096799  1
  Sc  Sc7  1  0.84129490  0.34746125  0.18303366  1
  Sc  Sc8  1  0.33212768  0.33814724  0.97823201  1
  Sc  Sc9  1  0.33883483  0.33918152  0.47723387  1
  Sc  Sc10  1  0.83368211  0.33743213  0.47398985  1
  Sc  Sc11  1  0.16108908  0.65434461  0.01675900  1
  Sc  Sc12  1  0.66716519  0.66850708  0.02129400  1
  Sc  Sc13  1  0.16949595  0.67652021  0.51787855  1
  Sc  Sc14  1  0.66721422  0.66930692  0.51421941  1
  Ta  Ta0  1  0.00416174  0.99836987  0.65045274  1
  Ta  Ta1  1  0.50061125  0.00406849  0.65448118  1
  Ta  Ta2  1  0.00409858  0.99899922  0.14906761  1
  Ta  Ta3  1  0.50685144  0.01930685  0.14647819  1
  Ta  Ta4  1  0.83365527  0.33869443  0.97897011  1
  Ta  Ta5  1  0.16014408  0.67229880  0.30953905  1
  Ta  Ta6  1  0.66389006  0.65762961  0.31700818  1
  Ta  Ta7  1  0.16416412  0.64972438  0.80881702  1
  Ta  Ta8  1  0.66522309  0.67364782  0.80973122  1
  Si  Si0  1  0.14712075  0.00658365  0.25352495  1
  Si  Si1  1  0.99762623  0.29012988  0.25246921  1
  Si  Si2  1  0.50483088  0.30352884  0.25249401  1
  Si  Si3  1  0.14610663  0.28814722  0.75252992  1
  Si  Si4  1  0.64689374  0.29143600  0.75393538  1
  Si  Si5  1  0.99970144  0.70476501  0.75382170  1
  Si  Si6  1  0.49979317  0.71055354  0.75276983  1
  Si  Si7  1  0.35318709  0.99738758  0.75409875  1
  Si  Si8  1  0.98219324  0.63186291  0.08305372  1
  Si  Si9  1  0.69176074  0.33971739  0.08478359  1
  Si  Si10  1  0.31206759  0.67413937  0.91949926  1
  Si  Si11  1  0.01822853  0.37149708  0.91622045  1
  Si  Si12  1  0.66871793  0.96062710  0.91931674  1
  Si  Si13  1  0.30966874  0.95322106  0.41747083  1
  Si  Si14  1  0.81385561  0.95440747  0.41699287  1
  Si  Si15  1  0.66713476  0.37469807  0.41809322  1
  Si  Si16  1  0.02155836  0.67078943  0.41845208  1
  Si  Si17  1  0.52011730  0.66753453  0.41754826  1
  S  S0  1  0.64414154  0.99651122  0.24940345  1
  S  S1  1  0.35523278  0.71364920  0.24805187  1
  S  S2  1  0.85272403  0.71182609  0.24860971  1
  S  S3  1  0.85483866  0.99618021  0.74928189  1
  S  S4  1  0.48062840  0.32812394  0.58394617  1
  S  S5  1  0.98024888  0.32670866  0.58417498  1
  S  S6  1  0.18410567  0.04052292  0.58404032  1
  S  S7  1  0.68412929  0.03950791  0.58454771  1
  S  S8  1  0.33557351  0.63026753  0.58429206  1
  S  S9  1  0.83473745  0.63281963  0.58504406  1
  S  S10  1  0.47809164  0.62855873  0.08473553  1
  S  S11  1  0.33574207  0.04086569  0.08497525  1
  S  S12  1  0.83565103  0.04670247  0.08303651  1
  S  S13  1  0.18666778  0.32937845  0.08510511  1
  S  S14  1  0.80990797  0.66385208  0.91678181  1
  S  S15  1  0.52447480  0.38275349  0.91679655  1
  S  S16  1  0.16739642  0.95594634  0.91682316  1
  S  S17  1  0.16858411  0.38296266  0.41641997  1
  O  O0  1  0.10554398  0.02286188  0.31278177  1
  O  O1  1  0.60311516  0.01299931  0.30197788  1
  O  O2  1  0.40646404  0.78841193  0.30072756  1
  O  O3  1  0.90343864  0.79049554  0.30122732  1
  O  O4  1  0.49114433  0.19228580  0.30978372  1
  O  O5  1  0.98978538  0.18674350  0.31158060  1
  O  O6  1  0.10354248  0.18408667  0.81128186  1
  O  O7  1  0.60396576  0.17930081  0.80989500  1
  O  O8  1  0.48851045  0.78314780  0.81329485  1
  O  O9  1  0.98107064  0.79363469  0.80775739  1
  O  O10  1  0.41248208  0.03044427  0.80947765  1
  O  O11  1  0.90467346  0.02174771  0.80180472  1
  O  O12  1  0.40334204  0.96862558  0.69490752  1
  O  O13  1  0.89657371  0.96845756  0.69660087  1
  O  O14  1  0.08019836  0.18540503  0.69531871  1
  O  O15  1  0.58287182  0.20146194  0.69468558  1
  O  O16  1  0.00918459  0.83148798  0.69478776  1
  O  O17  1  0.51682290  0.83997501  0.69580505  1
  O  O18  1  0.39968912  0.82399725  0.19603168  1
  O  O19  1  0.89838825  0.81903984  0.19572851  1
  O  O20  1  0.00700095  0.18102963  0.19513294  1
  O  O21  1  0.51349964  0.19151944  0.19496156  1
  O  O22  1  0.08205094  0.97249741  0.19564049  1
  O  O23  1  0.58597838  0.97479533  0.19688581  1
  O  O24  1  0.43380310  0.34125539  0.63354603  1
  O  O25  1  0.93579579  0.34515036  0.63478766  1
  O  O26  1  0.23611770  0.13197654  0.63392861  1
  O  O27  1  0.73804070  0.13301477  0.63488514  1
  O  O28  1  0.32767929  0.52746094  0.63551331  1
  O  O29  1  0.82807634  0.53060845  0.63671470  1
  O  O30  1  0.43325197  0.51839801  0.13435924  1
  O  O31  1  0.93812004  0.51877178  0.14013182  1
  O  O32  1  0.32832263  0.12994505  0.13661793  1
  O  O33  1  0.82250177  0.12225484  0.13566737  1
  O  O34  1  0.23974884  0.34209854  0.13515310  1
  O  O35  1  0.74334329  0.35203148  0.14250545  1
  O  O36  1  0.22254592  0.30151440  0.03032928  1
  O  O37  1  0.73701530  0.30773535  0.02653941  1
  O  O38  1  0.42893644  0.55333304  0.02987984  1
  O  O39  1  0.91749435  0.52641356  0.02645298  1
  O  O40  1  0.35210041  0.14667287  0.03228405  1
  O  O41  1  0.84791274  0.15491106  0.03039878  1
  O  O42  1  0.21837040  0.13567159  0.52907884  1
  O  O43  1  0.72226555  0.13575433  0.52980916  1
  O  O44  1  0.34500556  0.54722190  0.53060620  1
  O  O45  1  0.84950155  0.55939931  0.53190586  1
  O  O46  1  0.43207931  0.30808993  0.52850120  1
  O  O47  1  0.93164950  0.30349276  0.52967640  1
  O  O48  1  0.26527910  0.68782774  0.97697167  1
  O  O49  1  0.76837308  0.67972610  0.96937382  1
  O  O50  1  0.08041451  0.45469116  0.97208416  1
  O  O51  1  0.57506656  0.46520857  0.96937711  1
  O  O52  1  0.15722491  0.85689457  0.96972287  1
  O  O53  1  0.65562694  0.83191273  0.97257657  1
  O  O54  1  0.26732858  0.84072904  0.47510460  1
  O  O55  1  0.76928592  0.83800107  0.47332236  1
  O  O56  1  0.15616232  0.46213173  0.46881513  1
  O  O57  1  0.64470663  0.45737714  0.47267064  1
  O  O58  1  0.08299697  0.69633389  0.47335332  1
  O  O59  1  0.57958442  0.70392946  0.47413521  1
  O  O60  1  0.06972856  0.64083347  0.35857964  1
  O  O61  1  0.56879664  0.63121842  0.35979037  1
  O  O62  1  0.24760962  0.84911186  0.35993382  1
  O  O63  1  0.75071602  0.85746628  0.35824404  1
  O  O64  1  0.17995164  0.48673220  0.36341885  1
  O  O65  1  0.67982718  0.49897047  0.35932844  1
  O  O66  1  0.06688952  0.49543192  0.85869522  1
  O  O67  1  0.56892272  0.49398376  0.86387354  1
  O  O68  1  0.17836952  0.87604387  0.86404883  1
  O  O69  1  0.68039289  0.85484860  0.86107054  1
  O  O70  1  0.24634644  0.63690374  0.86233874  1
  O  O71  1  0.75767109  0.64117522  0.86350615  1
  O  O72  1  0.01680579  0.84527024  0.41269455  1
  O  O73  1  0.51505732  0.83863655  0.40601851  1
  O  O74  1  0.40775933  0.99340846  0.41261002  1
  O  O75  1  0.91213347  0.99314835  0.41221437  1
  O  O76  1  0.09055632  0.20878646  0.41195786  1
  O  O77  1  0.58438806  0.18379019  0.40870005  1
  O  O78  1  0.00748355  0.17970610  0.90987372  1
  O  O79  1  0.51290799  0.21174488  0.91163984  1
  O  O80  1  0.09133158  0.98231222  0.91319443  1
  O  O81  1  0.58431184  0.97856032  0.91434512  1
  O  O82  1  0.40953296  0.83093668  0.91541233  1
  O  O83  1  0.89634124  0.81455357  0.91216926  1
  O  O84  1  0.48795095  0.16651585  0.58876167  1
  O  O85  1  0.98623920  0.16283520  0.59180732  1
  O  O86  1  0.09350027  0.02198749  0.59095609  1
  O  O87  1  0.59598220  0.02409498  0.59029132  1
  O  O88  1  0.41542460  0.80756746  0.58871566  1
  O  O89  1  0.91384116  0.81264619  0.59220732  1
  O  O90  1  0.48514948  0.80280497  0.09270493  1
  O  O91  1  0.98379700  0.82234727  0.09043144  1
  O  O92  1  0.41595811  0.02122818  0.09357911  1
  O  O93  1  0.91522766  0.03127884  0.08793822  1
  O  O94  1  0.09757072  0.16858048  0.09140286  1
  O  O95  1  0.59232545  0.15491106  0.09280314  1
  O  O96  1  0.33875171  0.15663824  0.73955840  1
  O  O97  1  0.84076320  0.14112155  0.73956697  1
  O  O98  1  0.23955943  0.31578202  0.74125311  1
  O  O99  1  0.74073722  0.31519043  0.74061575  1
  O  O100  1  0.42349164  0.51936387  0.74051933  1
  O  O101  1  0.92104663  0.51316774  0.74105235  1
  O  O102  1  0.34334600  0.53991736  0.23963740  1
  O  O103  1  0.83995241  0.53777313  0.24308333  1
  O  O104  1  0.42408955  0.33283060  0.24149840  1
  O  O105  1  0.91585810  0.31796397  0.24520304  1
  O  O106  1  0.24064193  0.17096400  0.24233408  1
  O  O107  1  0.72876161  0.14778567  0.24118642  1
  O  O108  1  0.31736921  0.48858802  0.92407173  1
  O  O109  1  0.81629368  0.50118227  0.92061819  1
  O  O110  1  0.43987207  0.37977072  0.92015198  1
  O  O111  1  0.92460365  0.36211027  0.92552746  1
  O  O112  1  0.24560441  0.13453515  0.92234838  1
  O  O113  1  0.75772274  0.14857170  0.92582635  1
  O  O114  1  0.31055456  0.13957778  0.42168999  1
  O  O115  1  0.81678172  0.14122634  0.42062180  1
  O  O116  1  0.24489959  0.35971364  0.42196798  1
  O  O117  1  0.75211916  0.35533848  0.42062161  1
  O  O118  1  0.42815208  0.48561957  0.42037342  1
  O  O119  1  0.93136283  0.48992724  0.42098518  1
  O  O120  1  0.17524222  0.48059596  0.08247736  1
  O  O121  1  0.67136283  0.49506612  0.07623214  1
  O  O122  1  0.07965924  0.66947785  0.07653549  1
  O  O123  1  0.56583761  0.65302198  0.08094727  1
  O  O124  1  0.26117908  0.86811370  0.08086688  1
  O  O125  1  0.76073007  0.87146569  0.07588999  1
  O  O126  1  0.17006965  0.86273390  0.58214795  1
  O  O127  1  0.67287983  0.86361816  0.58320551  1
  O  O128  1  0.25831832  0.65110938  0.58059015  1
  O  O129  1  0.75842469  0.65423293  0.58243840  1
  O  O130  1  0.06924908  0.47481939  0.58083079  1
  O  O131  1  0.56803078  0.48080257  0.58210909  1
  O  O132  1  0.15341560  0.82592159  0.25511772  1
  O  O133  1  0.64900605  0.83436803  0.25009618  1
  O  O134  1  0.26902646  0.70044835  0.25294890  1
  O  O135  1  0.76837732  0.70766568  0.25086012  1
  O  O136  1  0.09165294  0.47800750  0.25657762  1
  O  O137  1  0.59533628  0.49185967  0.25324940  1
  O  O138  1  0.14744856  0.47435675  0.75333235  1
  O  O139  1  0.65772980  0.48774396  0.76149149  1
  O  O140  1  0.09101349  0.70610102  0.75816827  1
  O  O141  1  0.59236893  0.70081848  0.75724253  1
  O  O142  1  0.25922290  0.81813307  0.75945757  1
  O  O143  1  0.76858875  0.83141965  0.75411750  1
loop_
_geom_bond_atom_site_label_1
_geom_bond_atom_site_label_2
_geom_bond_distance
_geom_bond_site_symmetry_2
Na0 O82 2.284550 1_555
Na0 O81 2.320777 1_555
Na0 O8 2.394366 1_555
Na0 O110 2.450178 1_555
Na0 O108 2.624523 1_555
Na1 O78 2.415920 1_555
Na1 O108 2.420558 1_555
Na1 O6 2.571312 1_555
Na1 O80 2.611200 1_545
Na1 O112 2.717135 1_555
Na1 O50 2.719728 1_555
Na1 O70 2.723470 1_555
Na1 O36 2.961611 1_556
Na2 O74 2.350333 1_545
Na2 O118 2.405765 1_555
Na2 O77 2.409840 1_555
Na2 O4 2.610935 1_555
Na2 O114 2.754342 1_555
Na2 O57 2.774833 1_555
Na2 O46 2.807042 1_555
Na2 O61 2.894941 1_555
Na3 O75 2.302954 1_545
Na3 O119 2.328879 1_555
Na3 O76 2.472001 1_655
Na3 O5 2.481515 1_555
Na3 O115 2.506222 1_555
Na3 O47 2.905295 1_555
Na4 O114 2.299247 1_555
Na4 O72 2.305190 1_545
Na4 O0 2.509074 1_555
Na4 O76 2.578828 1_555
Na4 O116 2.613141 1_555
Na4 O42 2.866490 1_555
Na4 O62 2.903899 1_545
Na4 O58 2.907979 1_545
Na5 O73 2.377589 1_545
Na5 O115 2.382773 1_555
Na5 O77 2.454009 1_555
Na5 O117 2.523454 1_555
Na5 O43 2.724684 1_555
Na5 O59 2.828812 1_545
Na5 O1 2.892205 1_555
Na5 O63 3.010829 1_545
Na6 O75 2.301141 1_555
Na6 O72 2.356991 1_655
Na6 O89 2.657315 1_555
Na6 O76 2.765993 1_665
Na6 O85 2.864772 1_565
Na6 O86 2.897860 1_665
Na7 O74 2.442197 1_555
Na7 O73 2.528986 1_555
Na7 O77 2.596674 1_565
Na7 O88 2.660411 1_555
Na7 O84 2.757545 1_565
Na7 O87 2.787654 1_565
Na8 O78 2.513905 1_665
Na8 O83 2.566277 1_555
Na8 O93 2.619597 1_566
Na8 O91 2.620977 1_556
Na8 O80 2.656068 1_655
Na8 O94 2.782353 1_666
Na9 O82 2.303534 1_555
Na9 O81 2.333274 1_555
Na9 O79 2.527740 1_565
Na9 O95 2.841688 1_566
Na9 O90 2.904190 1_556
Na9 O92 2.917418 1_566
Na10 O96 2.425604 1_555
Na10 O98 2.445029 1_555
Na10 O100 2.486053 1_555
Na10 O110 2.867254 1_555
Na10 O112 2.875345 1_555
Na10 O108 2.881863 1_555
Na11 O99 2.563326 1_555
Na11 O101 2.584987 1_555
Na11 O109 2.627368 1_555
Na11 O111 2.700753 1_555
Na11 O113 2.703273 1_555
Na11 O97 2.787865 1_555
Na12 O104 2.556682 1_555
Na12 O106 2.567668 1_555
Na12 O118 2.579070 1_555
Na12 O114 2.620823 1_555
Na12 O102 2.750232 1_555
Na12 O116 2.776407 1_555
Na13 O105 2.497519 1_555
Na13 O119 2.525547 1_555
Na13 O115 2.588482 1_555
Na13 O117 2.602905 1_555
Na13 O103 2.718432 1_555
Na13 O107 2.817243 1_555
Na14 O122 2.385011 1_555
Na14 O120 2.579513 1_555
Na14 O132 2.611448 1_555
Na14 O136 2.611554 1_555
Na14 O124 2.670538 1_555
Na14 O134 2.844659 1_555
Na15 O137 2.441085 1_555
Na15 O121 2.469808 1_555
Na15 O135 2.560032 1_555
Na15 O123 2.656601 1_555
Na15 O133 2.698076 1_555
Na15 O125 2.771663 1_555
Na16 O138 2.477274 1_555
Na16 O142 2.519097 1_555
Na16 O140 2.555753 1_555
Na16 O126 2.670269 1_555
Na16 O128 2.680255 1_555
Na16 O130 2.724015 1_555
Na17 O131 2.467197 1_555
Na17 O127 2.537145 1_555
Na17 O129 2.538223 1_555
Na17 O141 2.631931 1_555
Na17 O139 2.715082 1_555
Na17 O143 2.741296 1_555
O0 Si0 1.594706 1_555
O0 Sc0 2.038565 1_445
O1 S0 1.460619 1_545
O1 Sc1 2.262270 1_555
O2 S1 1.462975 1_555
O2 Sc1 2.164816 1_565
O3 S2 1.463717 1_555
O3 Sc0 2.102173 1_555
O4 Si2 1.596450 1_555
O4 Sc1 2.022630 1_555
O5 Si1 1.612131 1_555
O5 Sc0 1.993226 1_545
O6 Si3 1.603908 1_555
O6 Sc2 1.971513 1_545
O7 Si4 1.578357 1_555
O7 Sc3 1.997586 1_545
O8 Si6 1.590173 1_555
O8 Sc3 2.025684 1_555
O9 Si5 1.594937 1_555
O9 Sc2 1.958915 1_655
O10 Si7 1.587870 1_545
O10 Sc3 1.980384 1_545
O11 S3 1.449954 1_545
O11 Sc2 2.171559 1_645
O12 Si7 1.720051 1_555
O12 Ta1 1.858509 1_565
O13 S3 1.508058 1_555
O13 Ta0 2.098306 1_655
O14 Si3 1.697201 1_555
O14 Ta0 1.853626 1_545
O15 Si4 1.700803 1_555
O15 Ta1 1.881188 1_555
O16 Si5 1.723745 1_455
O16 Ta0 1.847895 1_555
O17 Si6 1.674455 1_555
O17 Ta1 1.889714 1_565
O18 S1 1.503996 1_555
O18 Ta3 2.168206 1_565
O19 S2 1.513865 1_555
O19 Ta2 2.073016 1_655
O20 Si1 1.696619 1_455
O20 Ta2 1.919399 1_545
O21 Si2 1.711530 1_555
O21 Ta3 1.854673 1_555
O22 Si0 1.692867 1_565
O22 Ta2 1.866056 1_555
O23 S0 1.541989 1_555
O23 Ta3 2.018329 1_565
O24 S4 1.455522 1_555
O24 Sc4 2.192318 1_555
O25 S5 1.465828 1_555
O25 Sc5 2.219594 1_555
O26 S6 1.445079 1_555
O26 Sc4 2.223024 1_555
O27 S7 1.470153 1_555
O27 Sc5 2.186810 1_555
O28 S8 1.458824 1_555
O28 Sc4 2.214447 1_555
O29 S9 1.469006 1_555
O29 Sc5 2.105994 1_555
O30 S10 1.461195 1_555
O30 Sc6 2.173536 1_555
O31 Si8 1.606321 1_555
O31 Sc7 1.920119 1_555
O32 S11 1.471641 1_555
O32 Sc6 2.110046 1_555
O33 S12 1.460768 1_555
O33 Sc7 2.161199 1_555
O34 S13 1.460186 1_555
O34 Sc6 2.196049 1_555
O35 Si9 1.588941 1_555
O35 Sc7 2.004543 1_555
O36 S13 1.490896 1_555
O36 Sc8 2.181877 1_554
O37 Si9 1.663053 1_555
O37 Ta4 1.948594 1_554
O38 S10 1.491323 1_555
O38 Sc8 2.186344 1_554
O39 Si8 1.682256 1_555
O39 Ta4 1.934264 1_554
O40 S11 1.476004 1_555
O40 Sc8 2.285624 1_554
O41 S12 1.497860 1_555
O41 Ta4 2.142719 1_554
O42 S6 1.477687 1_555
O42 Sc9 2.342105 1_555
O43 S7 1.487272 1_555
O43 Sc10 2.303636 1_555
O44 S8 1.492380 1_555
O44 Sc9 2.183206 1_555
O45 S9 1.471698 1_555
O45 Sc10 2.285420 1_555
O46 S4 1.502286 1_555
O46 Sc9 2.172318 1_555
O47 S5 1.479667 1_555
O47 Sc10 2.311156 1_555
O48 Si10 1.602786 1_555
O48 Sc11 1.963926 1_556
O49 S14 1.464096 1_555
O49 Sc12 2.132115 1_556
O50 Si11 1.616409 1_555
O50 Sc11 1.936080 1_556
O51 S15 1.468325 1_555
O51 Sc12 2.109282 1_556
O52 S16 1.463559 1_555
O52 Sc11 2.142077 1_556
O53 Si12 1.617832 1_555
O53 Sc12 1.934129 1_556
O54 Si13 1.609496 1_555
O54 Sc13 1.907005 1_555
O55 Si14 1.605551 1_555
O55 Sc14 1.939166 1_555
O56 S17 1.468929 1_555
O56 Sc13 2.130880 1_555
O57 Si15 1.605583 1_555
O57 Sc14 1.974261 1_555
O58 Si16 1.613691 1_555
O58 Sc13 1.937259 1_555
O59 Si17 1.607835 1_555
O59 Sc14 1.973163 1_555
O60 Si16 1.715931 1_555
O60 Ta5 1.877390 1_555
O61 Si17 1.707029 1_555
O61 Ta6 1.878364 1_555
O62 Si13 1.677657 1_555
O62 Ta5 1.953705 1_555
O63 Si14 1.694623 1_555
O63 Ta6 1.931391 1_555
O64 S17 1.484997 1_555
O64 Ta5 2.238302 1_555
O65 Si15 1.693560 1_555
O65 Ta6 1.857671 1_555
O66 Si11 1.668207 1_555
O66 Ta7 1.966539 1_555
O67 S15 1.523665 1_555
O67 Ta8 2.086728 1_555
O68 S16 1.469749 1_555
O68 Ta7 2.291428 1_555
O69 Si12 1.710763 1_555
O69 Ta8 1.909701 1_555
O70 Si10 1.682345 1_555
O70 Ta7 1.965147 1_555
O71 S14 1.492091 1_555
O71 Ta8 2.198713 1_555
O72 Si16 1.610100 1_555
O72 Sc0 2.106744 1_455
O73 Si17 1.599812 1_555
O73 Sc1 2.046324 1_565
O74 Si13 1.612287 1_555
O74 Sc1 2.010194 1_565
O75 Si14 1.619636 1_555
O75 Sc0 2.061739 1_555
O76 S17 1.489053 1_555
O76 Sc0 2.278649 1_445
O77 Si15 1.622229 1_555
O77 Sc1 2.032219 1_555
O78 Si11 1.633825 1_555
O78 Sc2 2.063077 1_545
O79 S15 1.441739 1_555
O79 Sc3 2.274928 1_545
O80 S16 1.496457 1_555
O80 Sc2 2.203953 1_555
O81 Si12 1.601999 1_555
O81 Sc3 2.161229 1_555
O82 Si10 1.606692 1_555
O82 Sc3 2.153985 1_555
O83 S14 1.464135 1_555
O83 Sc2 2.275282 1_655
O84 S4 1.519069 1_555
O84 Ta1 2.187111 1_555
O85 S5 1.532162 1_555
O85 Ta0 2.136288 1_645
O86 S6 1.555323 1_555
O86 Ta0 2.036275 1_545
O87 S7 1.520807 1_555
O87 Ta1 2.197958 1_555
O88 S8 1.518761 1_555
O88 Ta1 2.239558 1_565
O89 S9 1.531717 1_555
O89 Ta0 2.116148 1_655
O90 S10 1.509887 1_555
O90 Ta3 2.160687 1_565
O91 Si8 1.697382 1_555
O91 Ta2 1.965930 1_655
O92 S11 1.544668 1_555
O92 Ta3 2.038732 1_555
O93 S12 1.503161 1_555
O93 Ta2 2.247431 1_645
O94 S13 1.532122 1_555
O94 Ta2 2.083510 1_545
O95 Si9 1.732835 1_555
O95 Ta3 1.869723 1_555
O96 Si7 1.604892 1_545
O96 Sc4 1.963205 1_555
O97 S3 1.456155 1_545
O97 Sc5 2.208750 1_555
O98 Si3 1.587103 1_555
O98 Sc4 1.995642 1_555
O99 Si4 1.615434 1_555
O99 Sc5 1.945859 1_555
O100 Si6 1.592700 1_555
O100 Sc4 1.976582 1_555
O101 Si5 1.611177 1_555
O101 Sc5 1.954576 1_555
O102 S1 1.471423 1_555
O102 Sc6 2.149521 1_555
O103 S2 1.461130 1_555
O103 Sc7 2.199276 1_555
O104 Si2 1.613094 1_555
O104 Sc6 1.948948 1_555
O105 Si1 1.612022 1_555
O105 Sc7 2.061132 1_555
O106 Si0 1.605876 1_555
O106 Sc6 1.965691 1_555
O107 S0 1.455692 1_545
O107 Sc7 2.337516 1_555
O108 Si10 1.712016 1_555
O108 Sc8 1.947420 1_555
O109 S14 1.517655 1_555
O109 Ta4 2.113569 1_555
O110 S15 1.504383 1_555
O110 Sc8 2.222188 1_555
O111 Si11 1.650968 1_655
O111 Ta4 1.968092 1_555
O112 S16 1.515261 1_545
O112 Sc8 2.131225 1_555
O113 Si12 1.647508 1_545
O113 Ta4 1.979177 1_555
O114 Si13 1.661233 1_545
O114 Sc9 2.040382 1_555
O115 Si14 1.647008 1_545
O115 Sc10 2.034297 1_555
O116 S17 1.487130 1_555
O116 Sc9 2.187817 1_555
O117 Si15 1.616643 1_555
O117 Sc10 1.974420 1_555
O118 Si17 1.640524 1_555
O118 Sc9 1.976188 1_555
O119 Si16 1.619589 1_655
O119 Sc10 2.009323 1_555
O120 S13 1.466430 1_555
O120 Sc11 2.272632 1_555
O121 Si9 1.615318 1_555
O121 Sc12 2.032687 1_555
O122 Si8 1.611982 1_455
O122 Sc11 2.058255 1_555
O123 S10 1.477557 1_555
O123 Sc12 2.225063 1_555
O124 S11 1.456027 1_565
O124 Sc11 2.368294 1_555
O125 S12 1.477905 1_565
O125 Sc12 2.152483 1_555
O126 S6 1.481079 1_565
O126 Sc13 2.220843 1_555
O127 S7 1.482903 1_565
O127 Sc14 2.315403 1_555
O128 S8 1.488009 1_555
O128 Sc13 2.240990 1_555
O129 S9 1.473051 1_555
O129 Sc14 2.316509 1_555
O130 S5 1.481803 1_455
O130 Sc13 2.314734 1_555
O131 S4 1.478103 1_555
O131 Sc14 2.337489 1_555
O132 Si0 1.675082 1_565
O132 Ta5 1.907958 1_555
O133 S0 1.495405 1_555
O133 Ta6 2.316658 1_555
O134 S1 1.493193 1_555
O134 Ta5 2.253396 1_555
O135 S2 1.493609 1_555
O135 Ta6 2.278312 1_555
O136 Si1 1.686528 1_455
O136 Ta5 1.967438 1_555
O137 Si2 1.655528 1_555
O137 Ta6 2.007244 1_555
O138 Si3 1.653332 1_555
O138 Ta7 1.923840 1_555
O139 Si4 1.675786 1_555
O139 Ta8 1.945013 1_555
O140 Si5 1.632690 1_455
O140 Ta7 1.996781 1_555
O141 Si6 1.706400 1_555
O141 Ta8 1.880067 1_555
O142 Si7 1.651385 1_555
O142 Ta7 1.976896 1_555
O143 S3 1.516583 1_555
O143 Ta8 2.111926 1_555
