# generated using pymatgen
data_Sr5Al2F16
_symmetry_space_group_name_H-M   'P 1'
_cell_length_a   7.36031434
_cell_length_b   7.36031434
_cell_length_c   14.30435500
_cell_angle_alpha   90.00000000
_cell_angle_beta   90.00000000
_cell_angle_gamma   117.93740187
_symmetry_Int_Tables_number   1
_chemical_formula_structural   Sr5Al2F16
_chemical_formula_sum   'Sr10 Al4 F32'
_cell_volume   684.61732757
_cell_formula_units_Z   2
loop_
 _symmetry_equiv_pos_site_id
 _symmetry_equiv_pos_as_xyz
  1  'x, y, z'
loop_
 _atom_site_type_symbol
 _atom_site_label
 _atom_site_symmetry_multiplicity
 _atom_site_fract_x
 _atom_site_fract_y
 _atom_site_fract_z
 _atom_site_occupancy
  Sr  Sr0  1  0.00000000  0.00000000  0.71775900  1
  Sr  Sr1  1  0.00000000  0.00000000  0.28224100  1
  Sr  Sr2  1  0.50000000  0.50000000  0.78224100  1
  Sr  Sr3  1  0.50000000  0.50000000  0.21775900  1
  Sr  Sr4  1  0.50000000  0.50000000  0.50000000  1
  Sr  Sr5  1  0.00000000  0.00000000  0.00000000  1
  Sr  Sr6  1  0.00000000  0.50000000  0.62684300  1
  Sr  Sr7  1  0.50000000  0.00000000  0.37315700  1
  Sr  Sr8  1  0.50000000  0.00000000  0.87315700  1
  Sr  Sr9  1  0.00000000  0.50000000  0.12684300  1
  Al  Al0  1  0.50000000  0.00000000  0.62180900  1
  Al  Al1  1  0.00000000  0.50000000  0.37819100  1
  Al  Al2  1  0.00000000  0.50000000  0.87819100  1
  Al  Al3  1  0.50000000  0.00000000  0.12180900  1
  F  F0  1  0.51787300  0.18092400  0.71277700  1
  F  F1  1  0.48212700  0.81907600  0.71277700  1
  F  F2  1  0.18092400  0.51787300  0.28722300  1
  F  F3  1  0.81907600  0.48212700  0.28722300  1
  F  F4  1  0.98212700  0.31907600  0.78722300  1
  F  F5  1  0.01787300  0.68092400  0.78722300  1
  F  F6  1  0.31907600  0.98212700  0.21277700  1
  F  F7  1  0.68092400  0.01787300  0.21277700  1
  F  F8  1  0.21561400  0.88189700  0.62231300  1
  F  F9  1  0.78438600  0.11810300  0.62231300  1
  F  F10  1  0.88189700  0.21561400  0.37768700  1
  F  F11  1  0.11810300  0.78438600  0.37768700  1
  F  F12  1  0.28438600  0.61810300  0.87768700  1
  F  F13  1  0.71561400  0.38189700  0.87768700  1
  F  F14  1  0.66941900  0.00047800  0.02986700  1
  F  F15  1  0.33058100  0.99952200  0.02986700  1
  F  F16  1  0.00047800  0.66941900  0.97013300  1
  F  F17  1  0.99952200  0.33058100  0.97013300  1
  F  F18  1  0.83058100  0.49952200  0.47013300  1
  F  F19  1  0.16941900  0.50047800  0.47013300  1
  F  F20  1  0.49952200  0.83058100  0.52986700  1
  F  F21  1  0.50047800  0.16941900  0.52986700  1
  F  F22  1  0.86324000  0.75778900  0.14612900  1
  F  F23  1  0.13676000  0.24221100  0.14612900  1
  F  F24  1  0.75778900  0.86324000  0.85387100  1
  F  F25  1  0.24221100  0.13676000  0.85387100  1
  F  F26  1  0.63676000  0.74221100  0.35387100  1
  F  F27  1  0.36324000  0.25778900  0.35387100  1
  F  F28  1  0.74221100  0.63676000  0.64612900  1
  F  F29  1  0.25778900  0.36324000  0.64612900  1
  F  F30  1  0.38189700  0.71561400  0.12231300  1
  F  F31  1  0.61810300  0.28438600  0.12231300  1
loop_
_geom_bond_atom_site_label_1
_geom_bond_atom_site_label_2
_geom_bond_distance
_geom_bond_site_symmetry_2
Al0 F20 1.811223 1_545
Al0 F21 1.811223 1_555
Al0 F1 1.822002 1_545
Al0 F0 1.822002 1_555
Al0 F9 1.852598 1_555
Al0 F8 1.852598 1_545
Al1 F19 1.811223 1_555
Al1 F18 1.811223 1_455
Al1 F3 1.822002 1_455
Al1 F2 1.822002 1_555
Al1 F11 1.852598 1_555
Al1 F10 1.852598 1_455
Al2 F17 1.811223 1_455
Al2 F16 1.811223 1_555
Al2 F5 1.822002 1_555
Al2 F4 1.822002 1_455
Al2 F13 1.852598 1_455
Al2 F12 1.852598 1_555
Al3 F14 1.811223 1_555
Al3 F15 1.811223 1_545
Al3 F6 1.822002 1_545
Al3 F7 1.822002 1_555
Al3 F31 1.852598 1_555
Al3 F30 1.852598 1_545
F0 Sr2 2.609513 1_555
F0 Sr8 2.624788 1_555
F1 Sr2 2.609513 1_555
F1 Sr8 2.624788 1_565
F2 Sr3 2.609513 1_555
F2 Sr9 2.624788 1_555
F3 Sr3 2.609513 1_555
F3 Sr9 2.624788 1_655
F4 Sr0 2.609513 1_655
F4 Sr6 2.624788 1_655
F5 Sr0 2.609513 1_565
F5 Sr6 2.624788 1_555
F6 Sr1 2.609513 1_565
F6 Sr7 2.624788 1_565
F7 Sr1 2.609513 1_655
F7 Sr7 2.624788 1_555
F8 Sr6 2.498785 1_555
F8 Sr0 2.535908 1_565
F9 Sr6 2.498785 1_655
F9 Sr0 2.535908 1_655
F10 Sr7 2.498785 1_555
F10 Sr1 2.535908 1_655
F11 Sr7 2.498785 1_565
F11 Sr1 2.535908 1_565
F12 Sr8 2.498785 1_565
F12 Sr2 2.535908 1_555
F13 Sr8 2.498785 1_555
F13 Sr2 2.535908 1_555
F14 Sr5 2.472028 1_655
F14 Sr8 2.564329 1_554
F15 Sr5 2.472028 1_565
F15 Sr8 2.564329 1_564
F16 Sr5 2.472028 1_566
F16 Sr9 2.564329 1_556
F17 Sr5 2.472028 1_656
F17 Sr9 2.564329 1_656
F18 Sr4 2.472028 1_555
F18 Sr6 2.564329 1_655
F19 Sr4 2.472028 1_555
F19 Sr6 2.564329 1_555
F20 Sr4 2.472028 1_555
F20 Sr7 2.564329 1_565
F21 Sr4 2.472028 1_555
F21 Sr7 2.564329 1_555
F22 Sr1 2.510127 1_665
F22 Sr9 2.545413 1_655
F22 Sr5 2.622828 1_665
F22 Sr3 2.654170 1_555
F23 Sr1 2.510127 1_555
F23 Sr9 2.545413 1_555
F23 Sr5 2.622828 1_555
F23 Sr3 2.654170 1_555
F24 Sr0 2.510127 1_665
F24 Sr8 2.545413 1_565
F24 Sr5 2.622828 1_666
F24 Sr2 2.654170 1_555
F25 Sr0 2.510127 1_555
F25 Sr8 2.545413 1_555
F25 Sr5 2.622828 1_556
F25 Sr2 2.654170 1_555
F26 Sr3 2.510127 1_555
F26 Sr7 2.545413 1_565
F26 Sr4 2.622828 1_555
F26 Sr1 2.654170 1_665
F27 Sr3 2.510127 1_555
F27 Sr7 2.545413 1_555
F27 Sr4 2.622828 1_555
F27 Sr1 2.654170 1_555
F28 Sr2 2.510127 1_555
F28 Sr6 2.545413 1_655
F28 Sr4 2.622828 1_555
F28 Sr0 2.654170 1_665
F29 Sr2 2.510127 1_555
F29 Sr6 2.545413 1_555
F29 Sr4 2.622828 1_555
F29 Sr0 2.654170 1_555
F30 Sr9 2.498785 1_555
F30 Sr3 2.535908 1_555
F31 Sr9 2.498785 1_655
F31 Sr3 2.535908 1_555
