# generated using pymatgen
data_Ba2Mg(VS3)2
_symmetry_space_group_name_H-M   'P 1'
_cell_length_a   6.40423468
_cell_length_b   7.12878897
_cell_length_c   7.12878843
_cell_angle_alpha   122.44950873
_cell_angle_beta   72.36831218
_cell_angle_gamma   107.63168828
_symmetry_Int_Tables_number   1
_chemical_formula_structural   Ba2Mg(VS3)2
_chemical_formula_sum   'Ba2 Mg1 V2 S6'
_cell_volume   257.72483992
_cell_formula_units_Z   1
loop_
 _symmetry_equiv_pos_site_id
 _symmetry_equiv_pos_as_xyz
  1  'x, y, z'
loop_
 _atom_site_type_symbol
 _atom_site_label
 _atom_site_symmetry_multiplicity
 _atom_site_fract_x
 _atom_site_fract_y
 _atom_site_fract_z
 _atom_site_occupancy
  Ba  Ba0  1  0.19526421  0.66833432  0.33166568  1
  Ba  Ba1  1  0.83149401  0.27574930  0.72425070  1
  Mg  Mg0  1  0.45252776  0.42687401  0.57312599  1
  V  V0  1  0.51666241  0.96301865  0.03698135  1
  V  V1  1  0.98767914  0.00225196  0.99774804  1
  S  S0  1  0.21049864  0.16201632  0.28973792  1
  S  S1  1  0.76237308  0.80092341  0.69379130  1
  S  S2  1  0.21049864  0.71026208  0.83798368  1
  S  S3  1  0.76237308  0.30620870  0.19907659  1
  S  S4  1  0.67877941  0.82609527  0.17390473  1
  S  S5  1  0.30250461  0.20826599  0.79173401  1
loop_
_geom_bond_atom_site_label_1
_geom_bond_atom_site_label_2
_geom_bond_distance
_geom_bond_site_symmetry_2
Ba0 S4 3.042395 1_555
Ba0 S1 3.142753 1_455
Ba0 S3 3.142753 1_455
Ba0 S2 3.487810 1_555
Ba0 S0 3.487811 1_555
Ba0 S5 3.501408 1_554
Ba0 S5 3.501408 1_565
Ba0 S2 3.658943 1_554
Ba0 S0 3.658943 1_565
Ba1 S3 3.172168 1_556
Ba1 S1 3.172168 1_545
Ba1 S0 3.175866 1_655
Ba1 S2 3.175866 1_655
Ba1 S5 3.195874 1_555
Ba1 S5 3.401242 1_655
Ba1 Mg0 3.553169 1_555
Ba1 S4 3.681534 1_545
Ba1 S4 3.681534 1_556
Mg0 S0 2.465672 1_555
Mg0 S2 2.465672 1_555
Mg0 S5 2.563687 1_555
Mg0 S3 2.674884 1_555
Mg0 S1 2.674884 1_555
S0 V0 2.430107 1_545
S0 V1 2.436604 1_454
S1 V0 2.352136 1_556
S1 V1 2.477763 1_565
S2 V0 2.430107 1_556
S2 V1 2.436604 1_465
S3 V0 2.352136 1_545
S3 V1 2.477763 1_554
S4 V0 2.287737 1_555
S4 V1 2.397894 1_564
S5 V1 2.665679 1_455
