# generated using pymatgen
data_Na15Ca7Ta5Si9(SO8)9
_symmetry_space_group_name_H-M   'P 1'
_cell_length_a   9.24229571
_cell_length_b   9.23164383
_cell_length_c   23.22100205
_cell_angle_alpha   89.20794438
_cell_angle_beta   90.22207599
_cell_angle_gamma   119.85908873
_symmetry_Int_Tables_number   1
_chemical_formula_structural   Na15Ca7Ta5Si9(SO8)9
_chemical_formula_sum   'Na15 Ca7 Ta5 Si9 S9 O72'
_cell_volume   1718.07173052
_cell_formula_units_Z   1
loop_
 _symmetry_equiv_pos_site_id
 _symmetry_equiv_pos_as_xyz
  1  'x, y, z'
loop_
 _atom_site_type_symbol
 _atom_site_label
 _atom_site_symmetry_multiplicity
 _atom_site_fract_x
 _atom_site_fract_y
 _atom_site_fract_z
 _atom_site_occupancy
  Na  Na0  1  0.63250133  0.00162174  0.23819356  1
  Na  Na1  1  0.98687080  0.64790621  0.25119067  1
  Na  Na2  1  0.65827507  0.64014584  0.75651664  1
  Na  Na3  1  0.33803954  0.99002883  0.74581702  1
  Na  Na4  1  0.98110600  0.69309945  0.91322700  1
  Na  Na5  1  0.70229082  0.00114624  0.92137465  1
  Na  Na6  1  0.31064171  0.30258104  0.92085465  1
  Na  Na7  1  0.30190824  0.01233888  0.41101904  1
  Na  Na8  1  0.70385888  0.68034361  0.40695729  1
  Na  Na9  1  0.02054462  0.01685642  0.49547833  1
  Na  Na10  1  0.99821714  0.00148836  0.99227206  1
  Na  Na11  1  0.69658658  0.35800091  0.82923601  1
  Na  Na12  1  0.63945544  0.33056616  0.32059577  1
  Na  Na13  1  0.35824365  0.68289788  0.15538660  1
  Na  Na14  1  0.30428982  0.65704407  0.66603590  1
  Ca  Ca0  1  0.00613486  0.00528977  0.35091949  1
  Ca  Ca1  1  0.99862306  0.99674327  0.84655572  1
  Ca  Ca2  1  0.00982171  0.99324201  0.64759182  1
  Ca  Ca3  1  0.67901125  0.33714893  0.68404900  1
  Ca  Ca4  1  0.65199398  0.32699276  0.18377218  1
  Ca  Ca5  1  0.33961549  0.67193771  0.02058509  1
  Ca  Ca6  1  0.32708203  0.66363226  0.51912061  1
  Ta  Ta0  1  0.98920331  0.97839502  0.14706871  1
  Ta  Ta1  1  0.66194402  0.31733501  0.97879517  1
  Ta  Ta2  1  0.67101947  0.34191886  0.47834860  1
  Ta  Ta3  1  0.32110494  0.65055937  0.31234931  1
  Ta  Ta4  1  0.32265469  0.66649825  0.82470102  1
  Si  Si0  1  0.29441018  0.99370551  0.25349616  1
  Si  Si1  1  0.69742011  0.70373028  0.25504379  1
  Si  Si2  1  0.00858620  0.69396824  0.75399339  1
  Si  Si3  1  0.67684140  0.03897754  0.08961143  1
  Si  Si4  1  0.62462565  0.65919493  0.91758259  1
  Si  Si5  1  0.03313085  0.37059389  0.92261656  1
  Si  Si6  1  0.33387375  0.96487797  0.91915352  1
  Si  Si7  1  0.33400350  0.37416156  0.42028418  1
  Si  Si8  1  0.03921784  0.66225312  0.41751330  1
  S  S0  1  0.01111853  0.29923832  0.24850121  1
  S  S1  1  0.30237584  0.31442396  0.75103677  1
  S  S2  1  0.68461564  0.98700846  0.75171372  1
  S  S3  1  0.95288779  0.32704401  0.58046915  1
  S  S4  1  0.38104590  0.04784465  0.58090670  1
  S  S5  1  0.67032118  0.62469419  0.58029256  1
  S  S6  1  0.95404474  0.62952774  0.08508744  1
  S  S7  1  0.36195033  0.31699866  0.08219620  1
  S  S8  1  0.61776339  0.96398679  0.41675093  1
  O  O0  1  0.21854680  0.01136569  0.31225456  1
  O  O1  1  0.79371837  0.78852796  0.31238191  1
  O  O2  1  0.98010615  0.20284143  0.30155312  1
  O  O3  1  0.22827100  0.21769758  0.80420447  1
  O  O4  1  0.98324764  0.77004113  0.81266763  1
  O  O5  1  0.78026189  0.01436444  0.80480495  1
  O  O6  1  0.77100816  0.97023766  0.70136689  1
  O  O7  1  0.19884903  0.23648224  0.70022434  1
  O  O8  1  0.06249277  0.82309779  0.69897366  1
  O  O9  1  0.80932097  0.83872727  0.19647245  1
  O  O10  1  0.03636413  0.21708717  0.19803832  1
  O  O11  1  0.16057916  0.97130179  0.19712584  1
  O  O12  1  0.87470678  0.33498650  0.63368164  1
  O  O13  1  0.46499357  0.12628966  0.63497014  1
  O  O14  1  0.65693074  0.53227223  0.63349003  1
  O  O15  1  0.87763133  0.54127521  0.13798726  1
  O  O16  1  0.67492542  0.12827709  0.14688049  1
  O  O17  1  0.46172145  0.34001767  0.13301059  1
  O  O18  1  0.45347354  0.30260976  0.02889461  1
  O  O19  1  0.84895311  0.55023269  0.03289742  1
  O  O20  1  0.69000784  0.16861467  0.03029249  1
  O  O21  1  0.48898663  0.15745717  0.52982373  1
  O  O22  1  0.67528463  0.51815999  0.52866437  1
  O  O23  1  0.84347341  0.32692511  0.53001194  1
  O  O24  1  0.54081839  0.70054725  0.96838457  1
  O  O25  1  0.15114360  0.44505006  0.97544252  1
  O  O26  1  0.28662210  0.84088101  0.97122542  1
  O  O27  1  0.54729626  0.86410067  0.46807269  1
  O  O28  1  0.33859817  0.47354576  0.47449381  1
  O  O29  1  0.16618189  0.71255155  0.46854150  1
  O  O30  1  0.13569502  0.63234503  0.35838634  1
  O  O31  1  0.50950446  0.88436892  0.36411006  1
  O  O32  1  0.36335519  0.50162632  0.36064097  1
  O  O33  1  0.13361653  0.50718622  0.86537908  1
  O  O34  1  0.37033158  0.87055216  0.86083010  1
  O  O35  1  0.50040006  0.62781862  0.85730598  1
  O  O36  1  0.98395877  0.80118101  0.41064390  1
  O  O37  1  0.78774912  0.99402692  0.40838647  1
  O  O38  1  0.19014991  0.18438186  0.41544249  1
  O  O39  1  0.98654332  0.18364069  0.90766806  1
  O  O40  1  0.19883998  0.02193881  0.90758512  1
  O  O41  1  0.81283047  0.81104197  0.90915994  1
  O  O42  1  0.95892806  0.17099899  0.57648382  1
  O  O43  1  0.21935633  0.04260902  0.57545523  1
  O  O44  1  0.82759533  0.78472410  0.57616142  1
  O  O45  1  0.96524169  0.80528706  0.08904723  1
  O  O46  1  0.86171264  0.03309303  0.09396110  1
  O  O47  1  0.19765626  0.15426869  0.08688894  1
  O  O48  1  0.64099149  0.12147417  0.74541424  1
  O  O49  1  0.47094610  0.32881192  0.74510948  1
  O  O50  1  0.83838924  0.51440900  0.74800784  1
  O  O51  1  0.69488557  0.53158209  0.24516875  1
  O  O52  1  0.87704459  0.33974382  0.24074021  1
  O  O53  1  0.48708138  0.13492451  0.24762881  1
  O  O54  1  0.62724511  0.47829237  0.92801650  1
  O  O55  1  0.85165067  0.37565400  0.92894485  1
  O  O56  1  0.52120410  0.14521478  0.92618531  1
  O  O57  1  0.62321020  0.13284561  0.42265798  1
  O  O58  1  0.51878496  0.36301504  0.42686250  1
  O  O59  1  0.85197267  0.48177257  0.42907963  1
  O  O60  1  0.33161512  0.45623135  0.07600326  1
  O  O61  1  0.12404273  0.65993103  0.07967250  1
  O  O62  1  0.52500275  0.85414935  0.08373001  1
  O  O63  1  0.36750150  0.88356606  0.57769271  1
  O  O64  1  0.52397957  0.64396860  0.57534701  1
  O  O65  1  0.11829234  0.47690724  0.57681973  1
  O  O66  1  0.29176462  0.80567517  0.25771981  1
  O  O67  1  0.51328908  0.70056015  0.25805608  1
  O  O68  1  0.17300559  0.47000745  0.25469011  1
  O  O69  1  0.33003161  0.48958421  0.75613371  1
  O  O70  1  0.18865765  0.68173753  0.76227178  1
  O  O71  1  0.51882540  0.82333264  0.75675113  1
loop_
_geom_bond_atom_site_label_1
_geom_bond_atom_site_label_2
_geom_bond_distance
_geom_bond_site_symmetry_2
Na0 O53 2.241740 1_555
Na0 O16 2.344840 1_555
Na0 O67 2.463838 1_545
Na0 O66 2.776907 1_545
Na0 O52 2.798982 1_555
Na0 O9 2.893132 1_545
Na1 O51 2.360273 1_555
Na1 O66 2.449700 1_655
Na1 O52 2.514794 1_555
Na1 O15 2.821301 1_555
Na2 O50 2.467883 1_555
Na2 O49 2.528026 1_555
Na2 O71 2.586809 1_555
Na2 O69 2.633800 1_555
Na2 O35 2.733749 1_555
Na2 O4 2.930123 1_555
Na2 O6 2.958472 1_555
Na2 O14 3.036321 1_555
Na3 O48 2.434981 1_565
Na3 O8 2.482069 1_555
Na3 O70 2.492691 1_555
Na3 O49 2.732020 1_565
Na3 O71 2.787592 1_555
Na3 O13 2.837015 1_565
Na3 O34 2.945931 1_555
Na4 O41 2.301170 1_555
Na4 O4 2.428592 1_555
Na4 O55 2.575906 1_555
Na4 O40 2.681513 1_665
Na4 O26 2.798867 1_655
Na4 O54 2.877235 1_555
Na4 O33 2.939504 1_655
Na4 O19 3.045382 1_556
Na5 O39 2.329378 1_555
Na5 O41 2.450603 1_545
Na5 O56 2.608542 1_555
Na5 O24 2.631486 1_545
Na5 O5 2.789220 1_555
Na6 O40 2.286655 1_555
Na6 O54 2.549235 1_555
Na6 O39 2.645580 1_455
Na6 O25 2.738752 1_555
Na6 O3 2.824808 1_555
Na6 O18 2.830319 1_556
Na7 O38 2.288839 1_555
Na7 O0 2.415240 1_555
Na7 O36 2.594544 1_445
Na7 O57 2.615642 1_555
Na7 O29 2.733295 1_545
Na7 O58 2.863428 1_555
Na7 O31 2.927834 1_545
Na8 O36 2.253626 1_555
Na8 O1 2.374402 1_555
Na8 O58 2.588518 1_555
Na8 O37 2.598995 1_555
Na8 O59 2.822308 1_555
Na8 O32 2.938602 1_555
Na9 O38 2.414999 1_555
Na9 O43 2.536257 1_555
Na9 O42 2.603207 1_455
Na9 O36 2.718848 1_445
Na9 O44 2.718868 1_445
Na9 O37 2.879258 1_445
Na10 O39 2.605109 1_555
Na10 O41 2.611531 1_545
Na10 O40 2.647711 1_655
Na10 O46 2.767906 1_556
Na10 O47 2.771237 1_656
Na10 O45 2.786870 1_546
Na11 O50 2.328049 1_555
Na11 O55 2.682055 1_555
Na11 O49 2.767896 1_555
Na11 O54 2.774132 1_555
Na11 O48 2.795169 1_555
Na11 O56 2.879206 1_555
Na12 O53 2.376883 1_555
Na12 O51 2.396725 1_555
Na12 O58 2.792337 1_555
Na12 O52 2.847721 1_555
Na12 O57 2.929389 1_555
Na13 O62 2.272531 1_555
Na13 O61 2.710202 1_555
Na13 O60 2.725337 1_555
Na13 O67 2.741440 1_555
Na13 O66 2.843960 1_555
Na13 O68 2.943774 1_555
Na14 O70 2.542270 1_555
Na14 O69 2.663943 1_555
Na14 O65 2.689529 1_555
Na14 O63 2.756231 1_555
Na14 O71 2.784168 1_555
Na14 O64 2.975941 1_555
Ca0 O0 2.136805 1_555
Ca0 O1 2.187101 1_445
Ca0 O36 2.249718 1_445
Ca0 O2 2.252744 1_455
Ca0 O38 2.262667 1_555
Ca0 O37 2.381911 1_445
Ca1 O4 2.183555 1_555
Ca1 O41 2.240559 1_555
Ca1 O40 2.246526 1_665
Ca1 O39 2.294322 1_565
Ca1 O3 2.298375 1_665
Ca1 O5 2.312297 1_565
Ca2 O8 2.198348 1_555
Ca2 O7 2.396088 1_565
Ca2 O43 2.426763 1_565
Ca2 O6 2.454250 1_455
Ca2 O44 2.476217 1_455
Ca2 O42 2.515593 1_465
Ca3 O12 2.166246 1_555
Ca3 O50 2.168741 1_555
Ca3 O14 2.229443 1_555
Ca3 O13 2.282640 1_555
Ca3 O48 2.312358 1_555
Ca3 O49 2.363260 1_555
Ca4 O16 2.139175 1_555
Ca4 O17 2.164937 1_555
Ca4 O53 2.218012 1_555
Ca4 O51 2.254208 1_555
Ca4 O15 2.289927 1_555
Ca4 O52 2.414397 1_555
Ca5 O24 2.125244 1_554
Ca5 O26 2.166307 1_554
Ca5 O25 2.221218 1_554
Ca5 O62 2.257016 1_555
Ca5 O60 2.325970 1_555
Ca5 O61 2.379402 1_555
Ca6 O28 2.098016 1_555
Ca6 O29 2.106022 1_555
Ca6 O65 2.265897 1_555
Ca6 O27 2.275948 1_555
Ca6 O64 2.313701 1_555
Ca6 O63 2.330005 1_555
O0 Si0 1.583429 1_545
O1 Si1 1.582268 1_555
O2 S0 1.452635 1_655
O3 S1 1.468944 1_555
O4 Si2 1.611541 1_655
O5 S2 1.463885 1_545
O6 S2 1.470936 1_555
O7 S1 1.467866 1_555
O8 Si2 1.634934 1_555
O9 Si1 1.775729 1_555
O9 Ta0 1.892605 1_555
O10 S0 1.485125 1_555
O10 Ta0 2.357554 1_445
O11 Si0 1.739636 1_555
O11 Ta0 1.987729 1_455
O12 S3 1.454817 1_555
O13 S4 1.469886 1_555
O14 S5 1.461556 1_555
O15 S6 1.441386 1_555
O16 Si3 1.579061 1_555
O17 S7 1.446078 1_555
O18 S7 1.545850 1_555
O18 Ta1 2.199190 1_554
O19 S6 1.501798 1_555
O19 Ta1 2.354967 1_554
O20 Si3 1.776266 1_555
O20 Ta1 1.920676 1_554
O21 S4 1.548243 1_555
O21 Ta2 2.065341 1_555
O22 S5 1.576248 1_555
O22 Ta2 2.000530 1_555
O23 S3 1.544395 1_555
O23 Ta2 2.049162 1_555
O24 Si4 1.565659 1_555
O25 Si5 1.559890 1_555
O26 Si6 1.559222 1_555
O27 S8 1.439566 1_555
O28 Si7 1.555916 1_555
O29 Si8 1.567961 1_555
O30 Si8 1.738250 1_555
O30 Ta3 1.957008 1_555
O31 S8 1.522704 1_555
O31 Ta3 2.334227 1_555
O32 Si7 1.736777 1_555
O32 Ta3 1.946508 1_555
O33 Si5 1.736733 1_555
O33 Ta4 1.877111 1_555
O34 Si6 1.741927 1_555
O34 Ta4 1.913331 1_555
O35 Si4 1.740351 1_555
O35 Ta4 1.991588 1_555
O36 Si8 1.605337 1_655
O37 S8 1.466255 1_555
O38 Si7 1.592053 1_555
O39 Si5 1.600005 1_655
O40 Si6 1.598532 1_545
O41 Si4 1.611229 1_555
O42 S3 1.473321 1_555
O43 S4 1.475914 1_555
O44 S5 1.470886 1_555
O45 S6 1.577555 1_555
O45 Ta0 2.030505 1_555
O46 Si3 1.738827 1_555
O46 Ta0 1.930846 1_545
O47 S7 1.516489 1_555
O47 Ta0 2.268062 1_445
O48 S2 1.489216 1_545
O49 S1 1.502990 1_555
O50 Si2 1.627800 1_655
O51 Si1 1.597400 1_555
O52 S0 1.471594 1_655
O53 Si0 1.604524 1_545
O54 Si4 1.696263 1_555
O54 Ta1 2.030818 1_555
O55 Si5 1.707984 1_655
O55 Ta1 1.939730 1_555
O56 Si6 1.712041 1_545
O56 Ta1 1.921587 1_555
O57 S8 1.542421 1_545
O57 Ta2 2.192763 1_555
O58 Si7 1.767215 1_555
O58 Ta2 1.923616 1_555
O59 Si8 1.721389 1_655
O59 Ta2 1.896513 1_555
O60 S7 1.450797 1_555
O61 S6 1.457607 1_455
O62 Si3 1.587467 1_565
O63 S4 1.461239 1_565
O64 S5 1.453293 1_555
O65 S3 1.466291 1_455
O66 Si0 1.725216 1_555
O66 Ta3 2.016699 1_555
O67 Si1 1.689120 1_555
O67 Ta3 2.035285 1_555
O68 S0 1.549352 1_555
O68 Ta3 2.054303 1_555
O69 S1 1.512478 1_555
O69 Ta4 2.321795 1_555
O70 Si2 1.733072 1_555
O70 Ta4 1.951665 1_555
O71 S2 1.528327 1_555
O71 Ta4 2.284357 1_555
