# generated using pymatgen
data_Mg(CoO2)4
_symmetry_space_group_name_H-M   'P 1'
_cell_length_a   5.96867048
_cell_length_b   5.96927279
_cell_length_c   5.96905493
_cell_angle_alpha   57.72090520
_cell_angle_beta   57.72589296
_cell_angle_gamma   57.72488240
_symmetry_Int_Tables_number   1
_chemical_formula_structural   Mg(CoO2)4
_chemical_formula_sum   'Mg1 Co4 O8'
_cell_volume   142.51675411
_cell_formula_units_Z   1
loop_
 _symmetry_equiv_pos_site_id
 _symmetry_equiv_pos_as_xyz
  1  'x, y, z'
loop_
 _atom_site_type_symbol
 _atom_site_label
 _atom_site_symmetry_multiplicity
 _atom_site_fract_x
 _atom_site_fract_y
 _atom_site_fract_z
 _atom_site_occupancy
  Mg  Mg0  1  0.04068000  0.04069100  0.04068900  1
  Co  Co0  1  0.00692800  0.49449900  0.49448800  1
  Co  Co1  1  0.49449200  0.49450200  0.00691900  1
  Co  Co2  1  0.49449600  0.00692300  0.49449500  1
  Co  Co3  1  0.86309600  0.86313000  0.86316200  1
  O  O0  1  0.26475900  0.26480800  0.26479500  1
  O  O1  1  0.25516400  0.69035700  0.25511100  1
  O  O2  1  0.25516500  0.25509600  0.69036700  1
  O  O3  1  0.69038900  0.25511500  0.25512900  1
  O  O4  1  0.27233900  0.77001500  0.76999800  1
  O  O5  1  0.76999000  0.77003300  0.27234800  1
  O  O6  1  0.76999400  0.27235100  0.77001800  1
  O  O7  1  0.73322200  0.73319300  0.73319500  1
loop_
_geom_bond_atom_site_label_1
_geom_bond_atom_site_label_2
_geom_bond_distance
_geom_bond_site_symmetry_2
Mg0 O3 1.918831 1_455
Mg0 O2 1.918852 1_554
Mg0 O1 1.918896 1_545
Mg0 O6 2.268957 1_454
Mg0 O5 2.269002 1_445
Mg0 O4 2.269307 1_544
Co0 O1 1.846232 1_555
Co0 O2 1.846261 1_555
Co0 O0 1.905009 1_555
Co0 O5 1.911141 1_455
Co0 O6 1.911211 1_455
Co0 O7 1.981370 1_455
Co1 O1 1.846205 1_555
Co1 O3 1.846219 1_555
Co1 O0 1.905014 1_555
Co1 O4 1.911113 1_554
Co1 O6 1.911252 1_554
Co1 O7 1.981271 1_554
Co2 O3 1.846191 1_555
Co2 O2 1.846196 1_555
Co2 O0 1.904993 1_555
Co2 O4 1.911131 1_545
Co2 O5 1.911192 1_545
Co2 O7 1.981229 1_545
Co3 O7 1.931672 1_555
Co3 O5 2.003440 1_556
Co3 O4 2.003547 1_655
Co3 O6 2.003649 1_565
