# generated using pymatgen
data_Li2Cr3(P2O7)2
_symmetry_space_group_name_H-M   'P 1'
_cell_length_a   6.09204800
_cell_length_b   6.64849675
_cell_length_c   7.46470504
_cell_angle_alpha   75.27069506
_cell_angle_beta   77.54137300
_cell_angle_gamma   71.69815576
_symmetry_Int_Tables_number   1
_chemical_formula_structural   Li2Cr3(P2O7)2
_chemical_formula_sum   'Li2 Cr3 P4 O14'
_cell_volume   274.55855602
_cell_formula_units_Z   1
loop_
 _symmetry_equiv_pos_site_id
 _symmetry_equiv_pos_as_xyz
  1  'x, y, z'
loop_
 _atom_site_type_symbol
 _atom_site_label
 _atom_site_symmetry_multiplicity
 _atom_site_fract_x
 _atom_site_fract_y
 _atom_site_fract_z
 _atom_site_occupancy
  Li  Li0  1  0.61466900  0.02693600  0.69954600  1
  Li  Li1  1  0.38533100  0.97306400  0.30045400  1
  Cr  Cr0  1  0.78054900  0.51153400  0.66973500  1
  Cr  Cr1  1  0.21945100  0.48846600  0.33026500  1
  Cr  Cr2  1  0.00000000  0.00000000  0.00000000  1
  P  P0  1  0.17459900  0.74642100  0.66744500  1
  P  P1  1  0.35382300  0.32058700  0.92598300  1
  P  P2  1  0.64617700  0.67941300  0.07401700  1
  P  P3  1  0.82540100  0.25357900  0.33255500  1
  O  O0  1  0.34388400  0.29013100  0.13719200  1
  O  O1  1  0.59435800  0.21915600  0.43930500  1
  O  O2  1  0.93800300  0.35602600  0.44367400  1
  O  O3  1  0.06199700  0.64397400  0.55632600  1
  O  O4  1  0.24107800  0.17314100  0.87136800  1
  O  O5  1  0.75892200  0.82685900  0.12863200  1
  O  O6  1  0.99821400  0.94055100  0.73773200  1
  O  O7  1  0.00178600  0.05944900  0.26226800  1
  O  O8  1  0.39668800  0.71139500  0.18272400  1
  O  O9  1  0.65611600  0.70986900  0.86280800  1
  O  O10  1  0.40564200  0.78084400  0.56069500  1
  O  O11  1  0.60331200  0.28860500  0.81727600  1
  O  O12  1  0.78720700  0.42914700  0.13606000  1
  O  O13  1  0.21279300  0.57085300  0.86394000  1
loop_
_geom_bond_atom_site_label_1
_geom_bond_atom_site_label_2
_geom_bond_distance
_geom_bond_site_symmetry_2
Li0 O1 2.040658 1_555
Li0 O11 2.116437 1_555
Li0 O9 2.117745 1_545
Li0 O6 2.287356 1_545
Li0 O4 2.398926 1_555
Li1 O10 2.040658 1_555
Li1 O8 2.116437 1_555
Li1 O0 2.117745 1_565
Li1 O7 2.287356 1_565
Li1 O5 2.398926 1_555
Cr0 O11 2.058513 1_555
Cr0 O9 2.063441 1_555
Cr0 O3 2.091576 1_655
Cr0 O2 2.098224 1_555
Cr0 O10 2.564671 1_555
Cr1 O8 2.058513 1_555
Cr1 O0 2.063441 1_555
Cr1 O2 2.091576 1_455
Cr1 O3 2.098224 1_555
Cr1 O1 2.564671 1_555
Cr2 O4 2.072511 1_554
Cr2 O5 2.072511 1_445
Cr2 O6 2.096308 1_444
Cr2 O7 2.096308 1_555
O0 P1 1.527923 1_554
O1 P3 1.514637 1_555
O2 P3 1.564847 1_555
O3 P0 1.564847 1_555
O4 P1 1.531620 1_555
O5 P2 1.531620 1_555
O6 P0 1.525067 1_655
O7 P3 1.525067 1_455
O8 P2 1.538310 1_555
O9 P2 1.527923 1_556
O10 P0 1.514637 1_555
O11 P1 1.538310 1_555
O12 P2 1.613441 1_555
O12 P3 1.635279 1_555
O13 P1 1.613441 1_555
O13 P0 1.635279 1_555
