# generated using pymatgen
data_Ba6MgCo2(Sb2O9)2
_symmetry_space_group_name_H-M   'P 1'
_cell_length_a   6.01898563
_cell_length_b   6.01522833
_cell_length_c   15.50689843
_cell_angle_alpha   90.01554757
_cell_angle_beta   90.53215844
_cell_angle_gamma   120.03131901
_symmetry_Int_Tables_number   1
_chemical_formula_structural   Ba6MgCo2(Sb2O9)2
_chemical_formula_sum   'Ba6 Mg1 Co2 Sb4 O18'
_cell_volume   486.03562857
_cell_formula_units_Z   1
loop_
 _symmetry_equiv_pos_site_id
 _symmetry_equiv_pos_as_xyz
  1  'x, y, z'
loop_
 _atom_site_type_symbol
 _atom_site_label
 _atom_site_symmetry_multiplicity
 _atom_site_fract_x
 _atom_site_fract_y
 _atom_site_fract_z
 _atom_site_occupancy
  Ba  Ba0  1  0.34343700  0.67189900  0.57123800  1
  Ba  Ba1  1  0.66996500  0.33527400  0.06514200  1
  Ba  Ba2  1  0.66729000  0.33447300  0.41530000  1
  Ba  Ba3  1  0.32084100  0.65979000  0.88850900  1
  Ba  Ba4  1  0.00772900  0.00379200  0.71914900  1
  Ba  Ba5  1  0.99600100  0.99841800  0.27936300  1
  Mg  Mg0  1  0.97538400  0.98707800  0.94215500  1
  Co  Co0  1  0.01447000  0.00796100  0.09764200  1
  Co  Co1  1  0.00710100  0.00231600  0.49770600  1
  Sb  Sb0  1  0.33934400  0.67038600  0.15884200  1
  Sb  Sb1  1  0.67545500  0.33747100  0.64084400  1
  Sb  Sb2  1  0.64947400  0.32396300  0.83116900  1
  Sb  Sb3  1  0.33242800  0.66650000  0.34515500  1
  O  O0  1  0.18792000  0.82507100  0.08101700  1
  O  O1  1  0.18874200  0.36431800  0.08096700  1
  O  O2  1  0.65469200  0.82807400  0.08766000  1
  O  O3  1  0.34276500  0.17240700  0.57116700  1
  O  O4  1  0.78481100  0.62626500  0.91044200  1
  O  O5  1  0.84469700  0.16861600  0.57470300  1
  O  O6  1  0.84895600  0.67663900  0.57470400  1
  O  O7  1  0.17046600  0.82667300  0.41246200  1
  O  O8  1  0.65386700  0.82688500  0.41501200  1
  O  O9  1  0.31194600  0.15582300  0.89109500  1
  O  O10  1  0.78460100  0.15740000  0.91066900  1
  O  O11  1  0.16867300  0.34420700  0.41239900  1
  O  O12  1  0.48105600  0.96101500  0.25385500  1
  O  O13  1  0.51685100  0.48611300  0.74317400  1
  O  O14  1  0.96933300  0.48343800  0.75652800  1
  O  O15  1  0.51638200  0.02881600  0.74332300  1
  O  O16  1  0.48092600  0.52102100  0.25373800  1
  O  O17  1  0.04231800  0.52186200  0.24987000  1
loop_
_geom_bond_atom_site_label_1
_geom_bond_atom_site_label_2
_geom_bond_distance
_geom_bond_site_symmetry_2
Ba0 O8 2.927620 1_555
Ba0 O11 2.988744 1_555
Ba0 O7 2.989405 1_555
Ba0 O6 2.991625 1_455
Ba0 O5 3.001121 1_565
Ba0 O3 3.002536 1_555
Ba0 O3 3.012697 1_565
Ba0 O5 3.014280 1_455
Ba0 O6 3.028518 1_555
Ba0 O15 3.243787 1_565
Ba0 O13 3.250302 1_555
Ba0 O14 3.489699 1_455
Ba1 O4 2.849287 1_554
Ba1 O10 2.850804 1_554
Ba1 O0 2.999726 1_545
Ba1 O1 2.999999 1_555
Ba1 O2 3.026377 1_545
Ba1 O2 3.031547 1_555
Ba1 O0 3.041661 1_655
Ba1 O1 3.046395 1_655
Ba2 O3 2.964912 1_555
Ba2 O11 2.989704 1_655
Ba2 O7 2.994561 1_655
Ba2 O8 3.003223 1_555
Ba2 O8 3.013636 1_545
Ba2 O7 3.021439 1_545
Ba2 O11 3.030817 1_555
Ba2 O6 3.039129 1_555
Ba2 O5 3.043718 1_555
Ba2 O12 3.161465 1_545
Ba2 O16 3.162803 1_555
Ba2 O17 3.241764 1_655
Ba3 O14 2.731688 1_455
Ba3 O10 2.913378 1_565
Ba3 O4 2.915683 1_555
Ba3 O15 2.969553 1_565
Ba3 O13 2.973927 1_555
Ba3 O9 3.005324 1_555
Ba3 O9 3.011166 1_565
Ba3 O10 3.150578 1_455
Ba3 O4 3.151967 1_455
Ba3 O1 3.366060 1_556
Ba3 O0 3.373258 1_556
Ba4 O6 2.806860 1_445
Ba4 O5 2.810213 1_455
Ba4 O3 2.898465 1_555
Ba4 O13 3.004305 1_555
Ba4 O15 3.008952 1_555
Ba4 O15 3.061961 1_455
Ba4 O13 3.062192 1_445
Ba4 O14 3.063109 1_455
Ba4 O14 3.076687 1_445
Ba4 O9 3.087143 1_555
Ba5 O11 2.730653 1_665
Ba5 O7 2.734346 1_655
Ba5 O8 2.772159 1_555
Ba5 Co0 2.820620 1_665
Ba5 O16 3.013469 1_555
Ba5 O12 3.015432 1_555
Ba5 O17 3.050542 1_655
Ba5 O17 3.053740 1_665
Ba5 O16 3.065504 1_665
Ba5 O12 3.067519 1_655
Mg0 O9 1.932095 1_665
Mg0 O4 1.940397 1_555
Mg0 O10 1.942713 1_565
Co0 O1 1.875303 1_555
Co0 O0 1.876463 1_545
Co0 O2 1.879485 1_445
Co1 O3 2.076987 1_555
Co1 O6 2.079745 1_445
Co1 O5 2.093221 1_455
Co1 O7 2.212174 1_545
Co1 O11 2.224538 1_555
Co1 O8 2.231856 1_445
O0 Sb0 1.995470 1_555
O1 Sb0 1.994373 1_555
O2 Sb0 1.989523 1_555
O3 Sb1 2.032785 1_555
O4 Sb2 1.994702 1_555
O5 Sb1 2.043465 1_555
O6 Sb1 2.047740 1_555
O7 Sb3 1.981529 1_555
O8 Sb3 1.984845 1_555
O9 Sb2 1.998165 1_555
O10 Sb2 1.995702 1_555
O11 Sb3 1.981107 1_555
O12 Sb3 2.093264 1_555
O12 Sb0 2.106472 1_555
O13 Sb2 2.051906 1_555
O13 Sb1 2.260642 1_555
O14 Sb2 2.039564 1_555
O14 Sb1 2.345947 1_555
O15 Sb2 2.050411 1_555
O15 Sb1 2.267086 1_555
O16 Sb3 2.092848 1_555
O16 Sb0 2.107769 1_555
O17 Sb3 2.102380 1_555
O17 Sb0 2.106114 1_555
