# generated using pymatgen
data_RbLiCl2
_symmetry_space_group_name_H-M   'P 1'
_cell_length_a   4.12174329
_cell_length_b   7.18437020
_cell_length_c   7.49965117
_cell_angle_alpha   90.00000000
_cell_angle_beta   105.94984245
_cell_angle_gamma   90.00000000
_symmetry_Int_Tables_number   1
_chemical_formula_structural   RbLiCl2
_chemical_formula_sum   'Rb2 Li2 Cl4'
_cell_volume   213.53112082
_cell_formula_units_Z   2
loop_
 _symmetry_equiv_pos_site_id
 _symmetry_equiv_pos_as_xyz
  1  'x, y, z'
loop_
 _atom_site_type_symbol
 _atom_site_label
 _atom_site_symmetry_multiplicity
 _atom_site_fract_x
 _atom_site_fract_y
 _atom_site_fract_z
 _atom_site_occupancy
  Rb  Rb0  1  0.37056542  0.25000000  0.74113083  1
  Rb  Rb1  1  0.62943458  0.75000000  0.25886917  1
  Li  Li0  1  0.89593462  0.75000000  0.79186924  1
  Li  Li1  1  0.10406538  0.25000000  0.20813076  1
  Cl  Cl0  1  0.00000000  -0.00000000  -0.00000000  1
  Cl  Cl1  1  0.00000000  0.50000000  -0.00000000  1
  Cl  Cl2  1  0.69008755  0.25000000  0.38017411  1
  Cl  Cl3  1  0.30991245  0.75000000  0.61982589  1
loop_
_geom_bond_atom_site_label_1
_geom_bond_atom_site_label_2
_geom_bond_distance
_geom_bond_site_symmetry_2
Cl0 Li0 2.340598 1_444
Cl0 Li1 2.340598 1_555
Cl0 Rb0 3.310237 1_454
Cl0 Rb1 3.310237 1_545
Cl0 Rb0 3.310237 1_554
Cl0 Rb1 3.310237 1_445
Cl1 Li0 2.340598 1_454
Cl1 Li1 2.340598 1_555
Cl1 Rb0 3.310237 1_454
Cl1 Rb1 3.310237 1_555
Cl1 Rb0 3.310237 1_554
Cl1 Rb1 3.310237 1_455
Cl2 Li1 2.405464 1_655
Cl2 Li1 2.405467 1_555
Cl2 Rb0 3.319930 1_655
Cl2 Rb0 3.319933 1_555
Cl2 Rb1 3.697152 1_555
Cl2 Rb1 3.697152 1_545
Cl3 Li0 2.405464 1_455
Cl3 Li0 2.405467 1_555
Cl3 Rb1 3.319930 1_455
Cl3 Rb1 3.319933 1_555
Cl3 Rb0 3.697152 1_555
Cl3 Rb0 3.697152 1_565
