# generated using pymatgen
data_LiNb2(PO4)3
_symmetry_space_group_name_H-M   'P 1'
_cell_length_a   8.67207300
_cell_length_b   8.67806306
_cell_length_c   9.12914196
_cell_angle_alpha   90.82209519
_cell_angle_beta   118.07085947
_cell_angle_gamma   119.13711427
_symmetry_Int_Tables_number   1
_chemical_formula_structural   LiNb2(PO4)3
_chemical_formula_sum   'Li2 Nb4 P6 O24'
_cell_volume   502.38614414
_cell_formula_units_Z   2
loop_
 _symmetry_equiv_pos_site_id
 _symmetry_equiv_pos_as_xyz
  1  'x, y, z'
loop_
 _atom_site_type_symbol
 _atom_site_label
 _atom_site_symmetry_multiplicity
 _atom_site_fract_x
 _atom_site_fract_y
 _atom_site_fract_z
 _atom_site_occupancy
  Li  Li0  1  0.76720100  0.23618100  0.58576900  1
  Li  Li1  1  0.23279900  0.76381900  0.41423100  1
  Nb  Nb0  1  0.78821400  0.13301500  0.93069700  1
  Nb  Nb1  1  0.21020500  0.35650000  0.56308400  1
  Nb  Nb2  1  0.21178600  0.86698500  0.06930300  1
  Nb  Nb3  1  0.78979500  0.64350000  0.43691600  1
  P  P0  1  0.72258200  0.46728100  0.75060600  1
  P  P1  1  0.28800100  0.75179000  0.74534700  1
  P  P2  1  0.71199900  0.24821000  0.25465300  1
  P  P3  1  0.99231700  0.96026800  0.24850500  1
  P  P4  1  0.27741800  0.53271900  0.24939400  1
  P  P5  1  0.00768300  0.03973200  0.75149500  1
  O  O0  1  0.23556300  0.52438100  0.39953100  1
  O  O1  1  0.31251900  0.72022700  0.22330700  1
  O  O2  1  0.68748100  0.27977300  0.77669300  1
  O  O3  1  0.50275800  0.10350900  0.23887000  1
  O  O4  1  0.47164200  0.52981400  0.30166400  1
  O  O5  1  0.86585100  0.96877500  0.06492200  1
  O  O6  1  0.52835800  0.47018600  0.69833600  1
  O  O7  1  0.25835500  0.56002300  0.72696400  1
  O  O8  1  0.13104100  0.89330400  0.25270500  1
  O  O9  1  0.14234000  0.15906500  0.38165100  1
  O  O10  1  0.28960000  0.80899800  0.90525100  1
  O  O11  1  0.15793900  0.17495100  0.70131200  1
  O  O12  1  0.91698500  0.63152900  0.91757000  1
  O  O13  1  0.13414900  0.03122500  0.93507800  1
  O  O14  1  0.76443700  0.47561900  0.60046900  1
  O  O15  1  0.86895900  0.10669600  0.74729500  1
  O  O16  1  0.08301500  0.36847100  0.08243000  1
  O  O17  1  0.11445300  0.74314400  0.57096400  1
  O  O18  1  0.71040000  0.19100200  0.09474900  1
  O  O19  1  0.74164500  0.43997700  0.27303600  1
  O  O20  1  0.88554700  0.25685600  0.42903600  1
  O  O21  1  0.49724200  0.89649100  0.76113000  1
  O  O22  1  0.84206100  0.82504900  0.29868800  1
  O  O23  1  0.85766000  0.84093500  0.61834900  1
loop_
_geom_bond_atom_site_label_1
_geom_bond_atom_site_label_2
_geom_bond_distance
_geom_bond_site_symmetry_2
Li0 O15 2.001079 1_555
Li0 O20 2.083954 1_555
Li0 O14 2.092750 1_555
Li0 O2 2.242500 1_555
Li1 O8 2.001079 1_555
Li1 O17 2.083954 1_555
Li1 O0 2.092750 1_555
Li1 O1 2.242500 1_555
Nb0 O16 2.031937 1_656
Nb0 O21 2.040978 1_545
Nb0 O5 2.048022 1_546
Nb0 O18 2.052253 1_556
Nb0 O2 2.083424 1_555
Nb0 O15 2.143340 1_555
Nb1 O9 2.011115 1_555
Nb1 O7 2.037183 1_555
Nb1 O11 2.044497 1_555
Nb1 O6 2.053889 1_555
Nb1 O0 2.111789 1_555
Nb1 O20 2.127997 1_455
Nb2 O12 2.031937 1_454
Nb2 O3 2.040978 1_565
Nb2 O13 2.048022 1_564
Nb2 O10 2.052253 1_554
Nb2 O1 2.083424 1_555
Nb2 O8 2.143340 1_555
Nb3 O23 2.011115 1_555
Nb3 O19 2.037183 1_555
Nb3 O22 2.044497 1_555
Nb3 O4 2.053889 1_555
Nb3 O14 2.111789 1_555
Nb3 O17 2.127997 1_655
O0 P4 1.568777 1_555
O1 P4 1.547313 1_555
O2 P0 1.547313 1_555
O3 P2 1.555658 1_555
O4 P4 1.533158 1_555
O5 P3 1.539359 1_555
O6 P0 1.533158 1_555
O7 P1 1.548694 1_555
O8 P3 1.557064 1_455
O9 P3 1.553120 1_445
O10 P1 1.526789 1_555
O11 P5 1.540453 1_555
O12 P0 1.541546 1_555
O13 P5 1.539359 1_555
O14 P0 1.568777 1_555
O15 P5 1.557064 1_655
O16 P4 1.541546 1_555
O17 P1 1.561025 1_555
O18 P2 1.526789 1_555
O19 P2 1.548694 1_555
O20 P2 1.561025 1_555
O21 P1 1.555658 1_555
O22 P3 1.540453 1_555
O23 P5 1.553120 1_665
