# generated using pymatgen
data_Ba3Sb2O
_symmetry_space_group_name_H-M   'P 1'
_cell_length_a   5.15242008
_cell_length_b   12.56559003
_cell_length_c   12.84353491
_cell_angle_alpha   90.00000000
_cell_angle_beta   90.00000000
_cell_angle_gamma   90.00000000
_symmetry_Int_Tables_number   1
_chemical_formula_structural   Ba3Sb2O
_chemical_formula_sum   'Ba12 Sb8 O4'
_cell_volume   831.53152868
_cell_formula_units_Z   4
loop_
 _symmetry_equiv_pos_site_id
 _symmetry_equiv_pos_as_xyz
  1  'x, y, z'
loop_
 _atom_site_type_symbol
 _atom_site_label
 _atom_site_symmetry_multiplicity
 _atom_site_fract_x
 _atom_site_fract_y
 _atom_site_fract_z
 _atom_site_occupancy
  Ba  Ba0  1  0.50000000  0.24409076  0.75955124  1
  Ba  Ba1  1  0.50000000  0.75590924  0.24044876  1
  Ba  Ba2  1  0.50000000  0.74409076  0.74044876  1
  Ba  Ba3  1  0.50000000  0.25590924  0.25955124  1
  Ba  Ba4  1  -0.00000000  0.18027718  0.98362566  1
  Ba  Ba5  1  0.00000000  0.81972282  0.01637434  1
  Ba  Ba6  1  -0.00000000  0.68027718  0.51637434  1
  Ba  Ba7  1  0.00000000  0.31972282  0.48362566  1
  Ba  Ba8  1  0.00000000  0.47145965  0.82771948  1
  Ba  Ba9  1  -0.00000000  0.52854035  0.17228052  1
  Ba  Ba10  1  -0.00000000  0.97145965  0.67228052  1
  Ba  Ba11  1  -0.00000000  0.02854035  0.32771948  1
  Sb  Sb0  1  0.50000000  0.98842932  0.88837221  1
  Sb  Sb1  1  0.50000000  0.48842932  0.61162779  1
  Sb  Sb2  1  0.50000000  0.51157068  0.38837221  1
  Sb  Sb3  1  0.50000000  0.01157068  0.11162779  1
  Sb  Sb4  1  0.50000000  0.11198419  0.52123159  1
  Sb  Sb5  1  0.50000000  0.88801581  0.47876841  1
  Sb  Sb6  1  0.50000000  0.61198419  0.97876841  1
  Sb  Sb7  1  0.50000000  0.38801581  0.02123159  1
  O  O0  1  -0.00000000  0.27000710  0.80532021  1
  O  O1  1  0.00000000  0.72999290  0.19467979  1
  O  O2  1  -0.00000000  0.77000710  0.69467979  1
  O  O3  1  0.00000000  0.22999290  0.30532021  1
loop_
_geom_bond_atom_site_label_1
_geom_bond_atom_site_label_2
_geom_bond_distance
_geom_bond_site_symmetry_2
Ba0 O0 2.662416 1_555
Ba0 O0 2.662416 1_655
Ba0 Sb4 3.482025 1_555
Ba0 Sb1 3.610534 1_555
Ba0 Sb0 3.613560 1_545
Ba0 Sb7 3.816587 1_556
Ba1 O1 2.662416 1_555
Ba1 O1 2.662416 1_655
Ba1 Sb5 3.482025 1_555
Ba1 Sb2 3.610534 1_555
Ba1 Sb3 3.613560 1_565
Ba1 Sb6 3.816587 1_554
Ba2 O2 2.662416 1_555
Ba2 O2 2.662416 1_655
Ba2 Sb6 3.482025 1_555
Ba2 Sb0 3.610534 1_555
Ba2 Sb1 3.613560 1_555
Ba2 Sb5 3.816587 1_555
Ba3 O3 2.662416 1_655
Ba3 O3 2.662416 1_555
Ba3 Sb7 3.482025 1_555
Ba3 Sb3 3.610534 1_555
Ba3 Sb2 3.613560 1_555
Ba3 Sb4 3.816587 1_555
Ba4 O0 2.552589 1_555
Ba4 Sb7 3.699204 1_556
Ba4 Sb7 3.699204 1_456
Ba4 Sb3 3.719349 1_456
Ba4 Sb3 3.719349 1_556
Ba4 Sb0 3.734291 1_545
Ba4 Sb0 3.734291 1_445
Ba5 O1 2.552589 1_555
Ba5 Sb6 3.699204 1_454
Ba5 Sb6 3.699204 1_554
Ba5 Sb0 3.719349 1_454
Ba5 Sb0 3.719349 1_554
Ba5 Sb3 3.734291 1_465
Ba5 Sb3 3.734291 1_565
Ba6 O2 2.552589 1_555
Ba6 Sb5 3.699204 1_555
Ba6 Sb5 3.699204 1_455
Ba6 Sb2 3.719349 1_455
Ba6 Sb2 3.719349 1_555
Ba6 Sb1 3.734291 1_455
Ba6 Sb1 3.734291 1_555
Ba7 O3 2.552589 1_555
Ba7 Sb4 3.699204 1_455
Ba7 Sb4 3.699204 1_555
Ba7 Sb1 3.719349 1_455
Ba7 Sb1 3.719349 1_555
Ba7 Sb2 3.734291 1_455
Ba7 Sb2 3.734291 1_555
Ba8 O0 2.547665 1_555
Ba8 Sb6 3.676741 1_455
Ba8 Sb6 3.676741 1_555
Ba8 Sb7 3.730062 1_556
Ba8 Sb7 3.730062 1_456
Ba8 Sb1 3.792765 1_455
Ba8 Sb1 3.792765 1_555
Ba9 O1 2.547665 1_555
Ba9 Sb7 3.676741 1_455
Ba9 Sb7 3.676741 1_555
Ba9 Sb6 3.730062 1_454
Ba9 Sb6 3.730062 1_554
Ba9 Sb2 3.792765 1_455
Ba9 Sb2 3.792765 1_555
Ba10 O2 2.547665 1_555
Ba10 Sb4 3.676741 1_565
Ba10 Sb4 3.676741 1_465
Ba10 Sb5 3.730062 1_555
Ba10 Sb5 3.730062 1_455
Ba10 Sb0 3.792765 1_455
Ba10 Sb0 3.792765 1_555
Ba11 O3 2.547665 1_555
Ba11 Sb5 3.676741 1_545
Ba11 Sb5 3.676741 1_445
Ba11 Sb4 3.730062 1_455
Ba11 Sb4 3.730062 1_555
Ba11 Sb3 3.792765 1_455
Ba11 Sb3 3.792765 1_555
Sb0 Sb3 2.882098 1_566
Sb1 Sb2 2.882098 1_555
Sb4 Sb5 2.866652 1_545
Sb6 Sb7 2.866652 1_556
