# generated using pymatgen
data_K2BeO2
_symmetry_space_group_name_H-M   'P 1'
_cell_length_a   5.73329515
_cell_length_b   7.07371749
_cell_length_c   7.85352494
_cell_angle_alpha   89.97859721
_cell_angle_beta   90.00000000
_cell_angle_gamma   90.00000000
_symmetry_Int_Tables_number   1
_chemical_formula_structural   K2BeO2
_chemical_formula_sum   'K8 Be4 O8'
_cell_volume   318.50525890
_cell_formula_units_Z   4
loop_
 _symmetry_equiv_pos_site_id
 _symmetry_equiv_pos_as_xyz
  1  'x, y, z'
loop_
 _atom_site_type_symbol
 _atom_site_label
 _atom_site_symmetry_multiplicity
 _atom_site_fract_x
 _atom_site_fract_y
 _atom_site_fract_z
 _atom_site_occupancy
  K  K0  1  0.65909137  0.14012672  0.11129517  1
  K  K1  1  0.15909137  0.35987328  0.38870483  1
  K  K2  1  0.34090863  0.85987328  0.88870483  1
  K  K3  1  0.84090863  0.64012672  0.61129517  1
  K  K4  1  0.56120959  0.59730005  0.24326580  1
  K  K5  1  0.06120959  0.90269995  0.25673420  1
  K  K6  1  0.43879041  0.40269995  0.75673420  1
  K  K7  1  0.93879041  0.09730005  0.74326580  1
  Be  Be0  1  0.08445072  0.37506552  0.02273633  1
  Be  Be1  1  0.41554928  0.87506552  0.52273633  1
  Be  Be2  1  0.91554928  0.62493448  0.97726367  1
  Be  Be3  1  0.58445072  0.12493448  0.47726367  1
  O  O0  1  0.79593759  0.80924092  0.94413243  1
  O  O1  1  0.64059374  0.91824048  0.40979148  1
  O  O2  1  0.35940626  0.08175952  0.59020852  1
  O  O3  1  0.85940626  0.41824048  0.90979148  1
  O  O4  1  0.29593759  0.69075908  0.55586757  1
  O  O5  1  0.20406241  0.19075908  0.05586757  1
  O  O6  1  0.70406241  0.30924092  0.44413243  1
  O  O7  1  0.14059374  0.58175952  0.09020852  1
loop_
_geom_bond_atom_site_label_1
_geom_bond_atom_site_label_2
_geom_bond_distance
_geom_bond_site_symmetry_2
K0 O5 2.669001 1_555
K0 O3 2.773312 1_554
K0 O0 2.796377 1_544
K0 O1 2.822679 1_545
K0 O6 2.886621 1_555
K1 O6 2.669001 1_455
K1 O2 2.773312 1_555
K1 O4 2.796377 1_555
K1 O7 2.822679 1_555
K1 O5 2.886621 1_555
K2 O0 2.669001 1_555
K2 O7 2.773312 1_556
K2 O5 2.796377 1_566
K2 O2 2.822679 1_565
K2 O4 2.886621 1_555
K3 O4 2.669001 1_655
K3 O1 2.773312 1_555
K3 O6 2.796377 1_555
K3 O3 2.822679 1_555
K3 O0 2.886621 1_555
K4 O1 2.659650 1_555
K4 O7 2.696755 1_555
K4 O6 2.703506 1_555
K4 O4 2.962854 1_555
K4 O0 3.094360 1_554
K5 O7 2.659650 1_555
K5 O1 2.696755 1_455
K5 O5 2.703506 1_565
K5 O0 2.962854 1_454
K5 O4 3.094360 1_555
K6 O2 2.659650 1_555
K6 O3 2.696755 1_555
K6 O4 2.703506 1_555
K6 O6 2.962854 1_555
K6 O5 3.094360 1_556
K7 O3 2.659650 1_555
K7 O2 2.696755 1_655
K7 O0 2.703506 1_545
K7 O5 2.962854 1_656
K7 O6 3.094360 1_555
Be0 O5 1.495809 1_555
Be0 O7 1.588300 1_555
Be0 O3 1.595181 1_454
Be0 K6 2.920477 1_554
Be1 O4 1.495809 1_555
Be1 O2 1.588300 1_565
Be1 O1 1.595181 1_555
Be1 K5 2.920477 1_555
Be2 O0 1.495809 1_555
Be2 O3 1.588300 1_555
Be2 O7 1.595181 1_656
Be2 K4 2.920477 1_556
Be3 O6 1.495809 1_555
Be3 O1 1.588300 1_545
Be3 O2 1.595181 1_555
Be3 K7 2.920477 1_555
