# generated using pymatgen
data_MgTe2Mo2W2(Se2S)2
_symmetry_space_group_name_H-M   'P 1'
_cell_length_a   6.66822800
_cell_length_b   6.66836585
_cell_length_c   91.41484428
_cell_angle_alpha   89.99195296
_cell_angle_beta   90.00000000
_cell_angle_gamma   119.99931617
_symmetry_Int_Tables_number   1
_chemical_formula_structural   MgTe2Mo2W2(Se2S)2
_chemical_formula_sum   'Mg8 Te16 Mo16 W16 Se32 S16'
_cell_volume   3520.30426516
_cell_formula_units_Z   8
loop_
 _symmetry_equiv_pos_site_id
 _symmetry_equiv_pos_as_xyz
  1  'x, y, z'
loop_
 _atom_site_type_symbol
 _atom_site_label
 _atom_site_symmetry_multiplicity
 _atom_site_fract_x
 _atom_site_fract_y
 _atom_site_fract_z
 _atom_site_occupancy
  Mg  Mg0_0  1  0.00001600  0.00003200  0.27993350  1
  Mg  Mg0_1  1  0.00001600  0.00003200  0.77993350  1
  Mg  Mg0_2  1  0.00001600  0.50003200  0.27993350  1
  Mg  Mg0_3  1  0.00001600  0.50003200  0.77993350  1
  Mg  Mg0_4  1  0.50001600  0.00003200  0.27993350  1
  Mg  Mg0_5  1  0.50001600  0.00003200  0.77993350  1
  Mg  Mg0_6  1  0.50001600  0.50003200  0.27993350  1
  Mg  Mg0_7  1  0.50001600  0.50003200  0.77993350  1
  Te  Te0_0  1  0.33335600  0.16671150  0.02610150  1
  Te  Te0_1  1  0.33335600  0.16671150  0.52610150  1
  Te  Te0_2  1  0.33335600  0.66671150  0.02610150  1
  Te  Te0_3  1  0.33335600  0.66671150  0.52610150  1
  Te  Te0_4  1  0.83335600  0.16671150  0.02610150  1
  Te  Te0_5  1  0.83335600  0.16671150  0.52610150  1
  Te  Te0_6  1  0.83335600  0.66671150  0.02610150  1
  Te  Te0_7  1  0.83335600  0.66671150  0.52610150  1
  Te  Te1_0  1  0.33330300  0.16660500  0.06772250  1
  Te  Te1_1  1  0.33330300  0.16660500  0.56772250  1
  Te  Te1_2  1  0.33330300  0.66660500  0.06772250  1
  Te  Te1_3  1  0.33330300  0.66660500  0.56772250  1
  Te  Te1_4  1  0.83330300  0.16660500  0.06772250  1
  Te  Te1_5  1  0.83330300  0.16660500  0.56772250  1
  Te  Te1_6  1  0.83330300  0.66660500  0.06772250  1
  Te  Te1_7  1  0.83330300  0.66660500  0.56772250  1
  Mo  Mo0_0  1  0.16665600  0.33331250  0.04690900  1
  Mo  Mo0_1  1  0.16665600  0.33331250  0.54690900  1
  Mo  Mo0_2  1  0.16665600  0.83331250  0.04690900  1
  Mo  Mo0_3  1  0.16665600  0.83331250  0.54690900  1
  Mo  Mo0_4  1  0.66665600  0.33331250  0.04690900  1
  Mo  Mo0_5  1  0.66665600  0.33331250  0.54690900  1
  Mo  Mo0_6  1  0.66665600  0.83331250  0.04690900  1
  Mo  Mo0_7  1  0.66665600  0.83331250  0.54690900  1
  Mo  Mo1_0  1  0.16664500  0.33329000  0.23142300  1
  Mo  Mo1_1  1  0.16664500  0.33329000  0.73142300  1
  Mo  Mo1_2  1  0.16664500  0.83329000  0.23142300  1
  Mo  Mo1_3  1  0.16664500  0.83329000  0.73142300  1
  Mo  Mo1_4  1  0.66664500  0.33329000  0.23142300  1
  Mo  Mo1_5  1  0.66664500  0.33329000  0.73142300  1
  Mo  Mo1_6  1  0.66664500  0.83329000  0.23142300  1
  Mo  Mo1_7  1  0.66664500  0.83329000  0.73142300  1
  W  W0_0  1  0.33337700  0.16675400  0.14094950  1
  W  W0_1  1  0.33337700  0.16675400  0.64094950  1
  W  W0_2  1  0.33337700  0.66675400  0.14094950  1
  W  W0_3  1  0.33337700  0.66675400  0.64094950  1
  W  W0_4  1  0.83337700  0.16675400  0.14094950  1
  W  W0_5  1  0.83337700  0.16675400  0.64094950  1
  W  W0_6  1  0.83337700  0.66675400  0.14094950  1
  W  W0_7  1  0.83337700  0.66675400  0.64094950  1
  W  W1_0  1  0.33330150  0.16660250  0.33283900  1
  W  W1_1  1  0.33330150  0.16660250  0.83283900  1
  W  W1_2  1  0.33330150  0.66660250  0.33283900  1
  W  W1_3  1  0.33330150  0.66660250  0.83283900  1
  W  W1_4  1  0.83330150  0.16660250  0.33283900  1
  W  W1_5  1  0.83330150  0.16660250  0.83283900  1
  W  W1_6  1  0.83330150  0.66660250  0.33283900  1
  W  W1_7  1  0.83330150  0.66660250  0.83283900  1
  Se  Se0_0  1  0.16660750  0.33321550  0.35116450  1
  Se  Se0_1  1  0.16660750  0.33321550  0.85116450  1
  Se  Se0_2  1  0.16660750  0.83321550  0.35116450  1
  Se  Se0_3  1  0.16660750  0.83321550  0.85116450  1
  Se  Se0_4  1  0.66660750  0.33321550  0.35116450  1
  Se  Se0_5  1  0.66660750  0.33321550  0.85116450  1
  Se  Se0_6  1  0.66660750  0.83321550  0.35116450  1
  Se  Se0_7  1  0.66660750  0.83321550  0.85116450  1
  Se  Se1_0  1  0.33333700  0.16667500  0.21323850  1
  Se  Se1_1  1  0.33333700  0.16667500  0.71323850  1
  Se  Se1_2  1  0.33333700  0.66667500  0.21323850  1
  Se  Se1_3  1  0.33333700  0.66667500  0.71323850  1
  Se  Se1_4  1  0.83333700  0.16667500  0.21323850  1
  Se  Se1_5  1  0.83333700  0.16667500  0.71323850  1
  Se  Se1_6  1  0.83333700  0.66667500  0.21323850  1
  Se  Se1_7  1  0.83333700  0.66667500  0.71323850  1
  Se  Se2_0  1  0.33329750  0.16659350  0.24998050  1
  Se  Se2_1  1  0.33329750  0.16659350  0.74998050  1
  Se  Se2_2  1  0.33329750  0.66659350  0.24998050  1
  Se  Se2_3  1  0.33329750  0.66659350  0.74998050  1
  Se  Se2_4  1  0.83329750  0.16659350  0.24998050  1
  Se  Se2_5  1  0.83329750  0.16659350  0.74998050  1
  Se  Se2_6  1  0.83329750  0.66659350  0.24998050  1
  Se  Se2_7  1  0.83329750  0.66659350  0.74998050  1
  Se  Se3_0  1  0.16664450  0.33328850  0.31433300  1
  Se  Se3_1  1  0.16664450  0.33328850  0.81433300  1
  Se  Se3_2  1  0.16664450  0.83328850  0.31433300  1
  Se  Se3_3  1  0.16664450  0.83328850  0.81433300  1
  Se  Se3_4  1  0.66664450  0.33328850  0.31433300  1
  Se  Se3_5  1  0.66664450  0.33328850  0.81433300  1
  Se  Se3_6  1  0.66664450  0.83328850  0.31433300  1
  Se  Se3_7  1  0.66664450  0.83328850  0.81433300  1
  S  S0_0  1  0.16671000  0.33342050  0.15761700  1
  S  S0_1  1  0.16671000  0.33342050  0.65761700  1
  S  S0_2  1  0.16671000  0.83342050  0.15761700  1
  S  S0_3  1  0.16671000  0.83342050  0.65761700  1
  S  S0_4  1  0.66671000  0.33342050  0.15761700  1
  S  S0_5  1  0.66671000  0.33342050  0.65761700  1
  S  S0_6  1  0.66671000  0.83342050  0.15761700  1
  S  S0_7  1  0.66671000  0.83342050  0.65761700  1
  S  S1_0  1  0.16674950  0.33350050  0.12428000  1
  S  S1_1  1  0.16674950  0.33350050  0.62428000  1
  S  S1_2  1  0.16674950  0.83350050  0.12428000  1
  S  S1_3  1  0.16674950  0.83350050  0.62428000  1
  S  S1_4  1  0.66674950  0.33350050  0.12428000  1
  S  S1_5  1  0.66674950  0.33350050  0.62428000  1
  S  S1_6  1  0.66674950  0.83350050  0.12428000  1
  S  S1_7  1  0.66674950  0.83350050  0.62428000  1
loop_
_geom_bond_atom_site_label_1
_geom_bond_atom_site_label_2
_geom_bond_distance
_geom_bond_site_symmetry_2
Mg0_0 Mg0_4 3.334114 1_555
Mg0_0 Mg0_4 3.334114 1_455
Mg0_0 Mg0_6 3.334183 1_555
Mg0_0 Mg0_2 3.334183 1_545
Mg0_0 Mg0_2 3.334183 1_555
Mg0_0 Mg0_6 3.334183 1_445
Mg0_0 Se2_4 3.346776 1_455
Mg0_0 Se2_0 3.346781 1_555
Mg0_0 Se2_6 3.347708 1_445
Mg0_1 Mg0_5 3.334114 1_555
Mg0_1 Mg0_5 3.334114 1_455
Mg0_1 Mg0_3 3.334183 1_545
Mg0_1 Mg0_7 3.334183 1_445
Mg0_1 Mg0_7 3.334183 1_555
Mg0_1 Mg0_3 3.334183 1_555
Mg0_1 Se2_5 3.346776 1_455
Mg0_1 Se2_1 3.346781 1_555
Mg0_1 Se2_7 3.347708 1_445
Mg0_2 Mg0_6 3.334114 1_555
Mg0_2 Mg0_6 3.334114 1_455
Mg0_2 Mg0_4 3.334183 1_455
Mg0_2 Mg0_4 3.334183 1_565
Mg0_2 Se2_6 3.346776 1_455
Mg0_2 Se2_2 3.346781 1_555
Mg0_2 Se2_4 3.347708 1_455
Mg0_3 Mg0_7 3.334114 1_455
Mg0_3 Mg0_7 3.334114 1_555
Mg0_3 Mg0_5 3.334183 1_565
Mg0_3 Mg0_5 3.334183 1_455
Mg0_3 Se2_7 3.346776 1_455
Mg0_3 Se2_3 3.346781 1_555
Mg0_3 Se2_5 3.347708 1_455
Mg0_4 Mg0_6 3.334183 1_545
Mg0_4 Mg0_6 3.334183 1_555
Mg0_4 Se2_0 3.346776 1_555
Mg0_4 Se2_4 3.346781 1_555
Mg0_4 Se2_2 3.347708 1_545
Mg0_5 Mg0_7 3.334183 1_555
Mg0_5 Mg0_7 3.334183 1_545
Mg0_5 Se2_1 3.346776 1_555
Mg0_5 Se2_5 3.346781 1_555
Mg0_5 Se2_3 3.347708 1_545
Mg0_6 Se2_2 3.346776 1_555
Mg0_6 Se2_6 3.346781 1_555
Mg0_6 Se2_0 3.347708 1_555
Mg0_7 Se2_3 3.346776 1_555
Mg0_7 Se2_7 3.346781 1_555
Mg0_7 Se2_1 3.347708 1_555
Mo0_0 Te0_4 2.706175 1_455
Mo0_0 Te0_0 2.706179 1_555
Mo0_0 Te0_2 2.706281 1_555
Mo0_0 Te1_4 2.706559 1_455
Mo0_0 Te1_0 2.706565 1_555
Mo0_0 Te1_2 2.706667 1_555
Mo0_1 Te0_5 2.706175 1_455
Mo0_1 Te0_1 2.706179 1_555
Mo0_1 Te0_3 2.706281 1_555
Mo0_1 Te1_5 2.706559 1_455
Mo0_1 Te1_1 2.706565 1_555
Mo0_1 Te1_3 2.706667 1_555
Mo0_2 Te0_6 2.706175 1_455
Mo0_2 Te0_2 2.706179 1_555
Mo0_2 Te0_0 2.706281 1_565
Mo0_2 Te1_6 2.706559 1_455
Mo0_2 Te1_2 2.706565 1_555
Mo0_2 Te1_0 2.706667 1_565
Mo0_3 Te0_7 2.706175 1_455
Mo0_3 Te0_3 2.706179 1_555
Mo0_3 Te0_1 2.706281 1_565
Mo0_3 Te1_7 2.706559 1_455
Mo0_3 Te1_3 2.706565 1_555
Mo0_3 Te1_1 2.706667 1_565
Mo0_4 Te0_0 2.706175 1_555
Mo0_4 Te0_4 2.706179 1_555
Mo0_4 Te0_6 2.706281 1_555
Mo0_4 Te1_0 2.706559 1_555
Mo0_4 Te1_4 2.706565 1_555
Mo0_4 Te1_6 2.706667 1_555
Mo0_5 Te0_1 2.706175 1_555
Mo0_5 Te0_5 2.706179 1_555
Mo0_5 Te0_7 2.706281 1_555
Mo0_5 Te1_1 2.706559 1_555
Mo0_5 Te1_5 2.706565 1_555
Mo0_5 Te1_7 2.706667 1_555
Mo0_6 Te0_2 2.706175 1_555
Mo0_6 Te0_6 2.706179 1_555
Mo0_6 Te0_4 2.706281 1_565
Mo0_6 Te1_2 2.706559 1_555
Mo0_6 Te1_6 2.706565 1_555
Mo0_6 Te1_4 2.706667 1_565
Mo0_7 Te0_3 2.706175 1_555
Mo0_7 Te0_7 2.706179 1_555
Mo0_7 Te0_5 2.706281 1_565
Mo0_7 Te1_3 2.706559 1_555
Mo0_7 Te1_7 2.706565 1_555
Mo0_7 Te1_5 2.706667 1_565
Mo1_0 Se1_0 2.543379 1_555
Mo1_0 Se1_4 2.543383 1_455
Mo1_0 Se1_2 2.543444 1_555
Mo1_0 Se2_4 2.565766 1_455
Mo1_0 Se2_0 2.565772 1_555
Mo1_0 Se2_2 2.565914 1_555
Mo1_1 Se1_1 2.543379 1_555
Mo1_1 Se1_5 2.543383 1_455
Mo1_1 Se1_3 2.543444 1_555
Mo1_1 Se2_5 2.565766 1_455
Mo1_1 Se2_1 2.565772 1_555
Mo1_1 Se2_3 2.565914 1_555
Mo1_2 Se1_2 2.543379 1_555
Mo1_2 Se1_6 2.543383 1_455
Mo1_2 Se1_0 2.543444 1_565
Mo1_2 Se2_6 2.565766 1_455
Mo1_2 Se2_2 2.565772 1_555
Mo1_2 Se2_0 2.565914 1_565
Mo1_3 Se1_3 2.543379 1_555
Mo1_3 Se1_7 2.543383 1_455
Mo1_3 Se1_1 2.543444 1_565
Mo1_3 Se2_7 2.565766 1_455
Mo1_3 Se2_3 2.565772 1_555
Mo1_3 Se2_1 2.565914 1_565
Mo1_4 Se1_4 2.543379 1_555
Mo1_4 Se1_0 2.543383 1_555
Mo1_4 Se1_6 2.543444 1_555
Mo1_4 Se2_0 2.565766 1_555
Mo1_4 Se2_4 2.565772 1_555
Mo1_4 Se2_6 2.565914 1_555
Mo1_5 Se1_5 2.543379 1_555
Mo1_5 Se1_1 2.543383 1_555
Mo1_5 Se1_7 2.543444 1_555
Mo1_5 Se2_1 2.565766 1_555
Mo1_5 Se2_5 2.565772 1_555
Mo1_5 Se2_7 2.565914 1_555
Mo1_6 Se1_6 2.543379 1_555
Mo1_6 Se1_2 2.543383 1_555
Mo1_6 Se1_4 2.543444 1_565
Mo1_6 Se2_2 2.565766 1_555
Mo1_6 Se2_6 2.565772 1_555
Mo1_6 Se2_4 2.565914 1_565
Mo1_7 Se1_7 2.543379 1_555
Mo1_7 Se1_3 2.543383 1_555
Mo1_7 Se1_5 2.543444 1_565
Mo1_7 Se2_3 2.565766 1_555
Mo1_7 Se2_7 2.565772 1_555
Mo1_7 Se2_5 2.565914 1_565
Se0_0 W1_4 2.551818 1_455
Se0_0 W1_0 2.551823 1_555
Se0_0 W1_2 2.551894 1_555
Se0_1 W1_5 2.551818 1_455
Se0_1 W1_1 2.551823 1_555
Se0_1 W1_3 2.551894 1_555
Se0_2 W1_6 2.551818 1_455
Se0_2 W1_2 2.551823 1_555
Se0_2 W1_0 2.551894 1_565
Se0_3 W1_7 2.551818 1_455
Se0_3 W1_3 2.551823 1_555
Se0_3 W1_1 2.551894 1_565
Se0_4 W1_0 2.551818 1_555
Se0_4 W1_4 2.551823 1_555
Se0_4 W1_6 2.551894 1_555
Se0_5 W1_1 2.551818 1_555
Se0_5 W1_5 2.551823 1_555
Se0_5 W1_7 2.551894 1_555
Se0_6 W1_2 2.551818 1_555
Se0_6 W1_6 2.551823 1_555
Se0_6 W1_4 2.551894 1_565
Se0_7 W1_3 2.551818 1_555
Se0_7 W1_7 2.551823 1_555
Se0_7 W1_5 2.551894 1_565
Se3_0 W1_0 2.562636 1_555
Se3_0 W1_4 2.562636 1_455
Se3_0 W1_2 2.562849 1_555
Se3_1 W1_5 2.562636 1_455
Se3_1 W1_1 2.562636 1_555
Se3_1 W1_3 2.562849 1_555
Se3_2 W1_6 2.562636 1_455
Se3_2 W1_2 2.562636 1_555
Se3_2 W1_0 2.562849 1_565
Se3_3 W1_3 2.562636 1_555
Se3_3 W1_7 2.562636 1_455
Se3_3 W1_1 2.562849 1_565
Se3_4 W1_0 2.562636 1_555
Se3_4 W1_4 2.562636 1_555
Se3_4 W1_6 2.562849 1_555
Se3_5 W1_1 2.562636 1_555
Se3_5 W1_5 2.562636 1_555
Se3_5 W1_7 2.562849 1_555
Se3_6 W1_2 2.562636 1_555
Se3_6 W1_6 2.562636 1_555
Se3_6 W1_4 2.562849 1_565
Se3_7 W1_7 2.562636 1_555
Se3_7 W1_3 2.562636 1_555
Se3_7 W1_5 2.562849 1_565
S0_0 W0_2 2.454837 1_555
S0_0 W0_4 2.455094 1_455
S0_0 W0_0 2.455097 1_555
S0_1 W0_3 2.454837 1_555
S0_1 W0_5 2.455094 1_455
S0_1 W0_1 2.455097 1_555
S0_2 W0_0 2.454837 1_565
S0_2 W0_6 2.455094 1_455
S0_2 W0_2 2.455097 1_555
S0_3 W0_1 2.454837 1_565
S0_3 W0_7 2.455094 1_455
S0_3 W0_3 2.455097 1_555
S0_4 W0_6 2.454837 1_555
S0_4 W0_0 2.455094 1_555
S0_4 W0_4 2.455097 1_555
S0_5 W0_7 2.454837 1_555
S0_5 W0_1 2.455094 1_555
S0_5 W0_5 2.455097 1_555
S0_6 W0_4 2.454837 1_565
S0_6 W0_2 2.455094 1_555
S0_6 W0_6 2.455097 1_555
S0_7 W0_5 2.454837 1_565
S0_7 W0_3 2.455094 1_555
S0_7 W0_7 2.455097 1_555
S1_0 W0_2 2.454976 1_555
S1_0 W0_4 2.455193 1_455
S1_0 W0_0 2.455200 1_555
S1_1 W0_3 2.454976 1_555
S1_1 W0_5 2.455193 1_455
S1_1 W0_1 2.455200 1_555
S1_2 W0_0 2.454976 1_565
S1_2 W0_6 2.455193 1_455
S1_2 W0_2 2.455200 1_555
S1_3 W0_1 2.454976 1_565
S1_3 W0_7 2.455193 1_455
S1_3 W0_3 2.455200 1_555
S1_4 W0_6 2.454976 1_555
S1_4 W0_0 2.455193 1_555
S1_4 W0_4 2.455200 1_555
S1_5 W0_7 2.454976 1_555
S1_5 W0_1 2.455193 1_555
S1_5 W0_5 2.455200 1_555
S1_6 W0_4 2.454976 1_565
S1_6 W0_2 2.455193 1_555
S1_6 W0_6 2.455200 1_555
S1_7 W0_5 2.454976 1_565
S1_7 W0_3 2.455193 1_555
S1_7 W0_7 2.455200 1_555
