# generated using pymatgen
data_RbPb2Br5
_symmetry_space_group_name_H-M   'P 1'
_cell_length_a   9.54845393
_cell_length_b   9.54845393
_cell_length_c   9.54845393
_cell_angle_alpha   127.32959070
_cell_angle_beta   127.32959070
_cell_angle_gamma   77.71361011
_symmetry_Int_Tables_number   1
_chemical_formula_structural   RbPb2Br5
_chemical_formula_sum   'Rb2 Pb4 Br10'
_cell_volume   533.65979963
_cell_formula_units_Z   2
loop_
 _symmetry_equiv_pos_site_id
 _symmetry_equiv_pos_as_xyz
  1  'x, y, z'
loop_
 _atom_site_type_symbol
 _atom_site_label
 _atom_site_symmetry_multiplicity
 _atom_site_fract_x
 _atom_site_fract_y
 _atom_site_fract_z
 _atom_site_occupancy
  Rb  Rb0  1  0.75000000  0.75000000  0.00000000  1
  Rb  Rb1  1  0.25000000  0.25000000  0.00000000  1
  Pb  Pb0  1  0.66625231  0.83374769  0.50000000  1
  Pb  Pb1  1  0.16625231  0.66625231  0.83250662  1
  Pb  Pb2  1  0.33374769  0.16625231  0.50000000  1
  Pb  Pb3  1  0.83374769  0.33374769  0.16749338  1
  Br  Br0  1  0.21063737  0.71063737  0.18831723  1
  Br  Br1  1  0.47768186  0.97768186  0.18831723  1
  Br  Br2  1  0.50000000  0.50000000  0.00000000  1
  Br  Br3  1  -0.00000000  0.00000000  0.00000000  1
  Br  Br4  1  0.78936363  0.28936363  0.81168277  1
  Br  Br5  1  0.28936363  0.47768186  0.50000000  1
  Br  Br6  1  0.97768186  0.78936363  0.50000000  1
  Br  Br7  1  0.71063637  0.52231814  0.50000000  1
  Br  Br8  1  0.52231814  0.02231814  0.81168277  1
  Br  Br9  1  0.02231814  0.21063737  0.50000000  1
loop_
_geom_bond_atom_site_label_1
_geom_bond_atom_site_label_2
_geom_bond_distance
_geom_bond_site_symmetry_2
Br0 Pb1 2.913030 1_554
Br0 Pb2 3.375840 1_565
Br0 Pb0 3.375840 1_555
Br0 Rb1 3.639294 1_555
Br0 Rb0 3.639294 1_455
Br1 Pb1 2.913071 1_554
Br1 Pb0 3.375857 1_555
Br1 Pb2 3.375857 1_565
Br1 Rb0 3.639280 1_555
Br1 Rb1 3.639280 1_565
Br2 Pb1 3.158826 1_554
Br2 Pb3 3.158826 1_555
Br2 Pb0 3.158830 1_555
Br2 Pb2 3.158830 1_554
Br2 Rb1 3.717769 1_555
Br2 Rb0 3.717769 1_555
Br3 Pb3 3.158826 1_455
Br3 Pb1 3.158826 1_544
Br3 Pb2 3.158830 1_555
Br3 Pb0 3.158830 1_444
Br3 Rb1 3.717769 1_555
Br3 Rb0 3.717769 1_445
Br4 Pb3 2.913040 1_556
Br4 Pb2 3.375848 1_555
Br4 Pb0 3.375848 1_545
Br4 Rb1 3.639287 1_656
Br4 Rb0 3.639287 1_556
Br5 Pb2 2.913069 1_555
Br5 Pb3 3.375848 1_455
Br5 Pb1 3.375865 1_555
Br5 Rb0 3.639286 1_556
Br5 Rb1 3.639286 1_555
Br6 Pb0 2.913069 1_555
Br6 Pb3 3.375848 1_555
Br6 Pb1 3.375865 1_655
Br6 Rb1 3.639286 1_666
Br6 Rb0 3.639286 1_555
Br7 Pb0 2.913069 1_555
Br7 Pb1 3.375848 1_655
Br7 Pb3 3.375865 1_555
Br7 Rb0 3.639286 1_556
Br7 Rb1 3.639286 1_555
Br8 Pb3 2.913071 1_556
Br8 Pb0 3.375857 1_545
Br8 Pb2 3.375857 1_555
Br8 Rb1 3.639280 1_556
Br8 Rb0 3.639280 1_546
Br9 Pb2 2.913068 1_555
Br9 Pb1 3.375840 1_555
Br9 Pb3 3.375858 1_455
Br9 Rb1 3.639291 1_556
Br9 Rb0 3.639291 1_445
