# generated using pymatgen
data_MgMn3FeO8
_symmetry_space_group_name_H-M   'P 1'
_cell_length_a   5.85871046
_cell_length_b   5.98495398
_cell_length_c   5.98496510
_cell_angle_alpha   58.80322072
_cell_angle_beta   61.44824680
_cell_angle_gamma   61.44837400
_symmetry_Int_Tables_number   1
_chemical_formula_structural   MgMn3FeO8
_chemical_formula_sum   'Mg1 Mn3 Fe1 O8'
_cell_volume   150.08470390
_cell_formula_units_Z   1
loop_
 _symmetry_equiv_pos_site_id
 _symmetry_equiv_pos_as_xyz
  1  'x, y, z'
loop_
 _atom_site_type_symbol
 _atom_site_label
 _atom_site_symmetry_multiplicity
 _atom_site_fract_x
 _atom_site_fract_y
 _atom_site_fract_z
 _atom_site_occupancy
  Mg  Mg0  1  0.50000000  0.00000000  0.00000000  1
  Mn  Mn0  1  0.50000000  0.50000000  0.00000000  1
  Mn  Mn1  1  0.50000000  0.00000000  0.50000000  1
  Mn  Mn2  1  0.00000000  0.50000000  0.50000000  1
  Fe  Fe0  1  0.50000000  0.50000000  0.50000000  1
  O  O0  1  0.29847700  0.23658800  0.23658900  1
  O  O1  1  0.70115900  0.26624900  0.26624800  1
  O  O2  1  0.27316400  0.70585200  0.24192500  1
  O  O3  1  0.27316300  0.24192500  0.70585100  1
  O  O4  1  0.72683700  0.75807500  0.29414900  1
  O  O5  1  0.72683600  0.29414800  0.75807500  1
  O  O6  1  0.29884100  0.73375100  0.73375200  1
  O  O7  1  0.70152300  0.76341200  0.76341100  1
loop_
_geom_bond_atom_site_label_1
_geom_bond_atom_site_label_2
_geom_bond_distance
_geom_bond_site_symmetry_2
Mg0 O0 2.069991 1_555
Mg0 O7 2.069991 1_544
Mg0 O5 2.172147 1_554
Mg0 O2 2.172147 1_545
Mg0 O4 2.172162 1_545
Mg0 O3 2.172162 1_554
Mn0 O0 1.937251 1_555
Mn0 O7 1.937251 1_554
Mn0 O1 1.948074 1_555
Mn0 O6 1.948074 1_554
Mn0 O2 1.955499 1_555
Mn0 O5 1.955499 1_554
Mn1 O7 1.937252 1_545
Mn1 O0 1.937252 1_555
Mn1 O1 1.948073 1_555
Mn1 O6 1.948073 1_545
Mn1 O3 1.955495 1_555
Mn1 O4 1.955495 1_545
Mn2 O4 2.003815 1_455
Mn2 O3 2.003815 1_555
Mn2 O2 2.003817 1_555
Mn2 O5 2.003817 1_455
Mn2 O0 2.309308 1_555
Mn2 O7 2.309308 1_455
Fe0 O4 2.023712 1_555
Fe0 O3 2.023712 1_555
Fe0 O5 2.023713 1_555
Fe0 O2 2.023713 1_555
Fe0 O6 2.044200 1_555
Fe0 O1 2.044200 1_555
