# generated using pymatgen
data_EuAsPt
_symmetry_space_group_name_H-M   'P 1'
_cell_length_a   4.23159403
_cell_length_b   4.23165860
_cell_length_c   8.04997576
_cell_angle_alpha   105.23844941
_cell_angle_beta   105.23819090
_cell_angle_gamma   89.99999346
_symmetry_Int_Tables_number   1
_chemical_formula_structural   EuAsPt
_chemical_formula_sum   'Eu2 As2 Pt2'
_cell_volume   133.82015034
_cell_formula_units_Z   2
loop_
 _symmetry_equiv_pos_site_id
 _symmetry_equiv_pos_as_xyz
  1  'x, y, z'
loop_
 _atom_site_type_symbol
 _atom_site_label
 _atom_site_symmetry_multiplicity
 _atom_site_fract_x
 _atom_site_fract_y
 _atom_site_fract_z
 _atom_site_occupancy
  Eu  Eu0  1  0.74953758  0.24953758  0.49907616  1
  Eu  Eu1  1  0.99954542  0.99954542  0.99909184  1
  As  As0  1  0.33150703  0.83150703  0.66301307  1
  As  As1  1  0.58151829  0.58151829  0.16303758  1
  Pt  Pt0  1  0.41603045  0.41603045  0.83206191  1
  Pt  Pt1  1  0.16605922  0.66605922  0.33211944  1
loop_
_geom_bond_atom_site_label_1
_geom_bond_atom_site_label_2
_geom_bond_distance
_geom_bond_site_symmetry_2
Eu0 Pt1 3.241926 1_645
Eu0 Pt1 3.241927 1_655
Eu0 Pt1 3.241927 1_555
Eu0 Pt1 3.241927 1_545
Eu0 Pt0 3.266356 1_555
Eu0 Pt0 3.266357 1_655
Eu1 Pt0 3.242137 1_655
Eu1 Pt0 3.242137 1_665
Eu1 Pt0 3.242138 1_565
Eu1 Pt0 3.242138 1_555
Eu1 Pt1 3.266615 1_656
Eu1 Pt1 3.266616 1_666
As0 Pt0 2.464292 1_565
As0 Pt0 2.464299 1_555
As0 Pt1 2.472836 1_555
As0 Eu0 3.233303 1_565
As0 Eu0 3.233308 1_555
As0 Eu0 3.233309 1_465
As0 Eu0 3.233315 1_455
As0 Eu1 3.283998 1_555
As0 Eu1 3.284002 1_455
As1 Pt1 2.464394 1_555
As1 Pt1 2.464395 1_655
As1 Pt0 2.473449 1_554
As1 Eu1 3.233333 1_544
As1 Eu1 3.233333 1_554
As1 Eu1 3.233334 1_454
As1 Eu1 3.233334 1_444
As1 Eu0 3.283791 1_555
As1 Eu0 3.283792 1_565
