# generated using pymatgen
data_Na14Hf4Sc4Si9(SO16)3
_symmetry_space_group_name_H-M   'P 1'
_cell_length_a   18.36220700
_cell_length_b   9.18424420
_cell_length_c   22.63609891
_cell_angle_alpha   90.03133516
_cell_angle_beta   90.10723812
_cell_angle_gamma   120.01421047
_symmetry_Int_Tables_number   1
_chemical_formula_structural   Na14Hf4Sc4Si9(SO16)3
_chemical_formula_sum   'Na42 Hf12 Sc12 Si27 S9 O144'
_cell_volume   3305.49810243
_cell_formula_units_Z   3
loop_
 _symmetry_equiv_pos_site_id
 _symmetry_equiv_pos_as_xyz
  1  'x, y, z'
loop_
 _atom_site_type_symbol
 _atom_site_label
 _atom_site_symmetry_multiplicity
 _atom_site_fract_x
 _atom_site_fract_y
 _atom_site_fract_z
 _atom_site_occupancy
  Na  Na0  1  0.81885589  0.00798712  0.25563269  1
  Na  Na1  1  0.17404316  0.35213620  0.25465927  1
  Na  Na2  1  0.69210754  0.37057187  0.25428645  1
  Na  Na3  1  0.99663930  0.62976577  0.24581889  1
  Na  Na4  1  0.50218726  0.64834271  0.25071433  1
  Na  Na5  1  0.31820531  0.62864216  0.75216797  1
  Na  Na6  1  0.00047620  0.35402280  0.74325742  1
  Na  Na7  1  0.49834164  0.36570257  0.74257742  1
  Na  Na8  1  0.19024516  0.01317068  0.74985872  1
  Na  Na9  1  0.67932105  0.99971514  0.74922641  1
  Na  Na10  1  0.14715870  0.32209527  0.58199797  1
  Na  Na11  1  0.65254125  0.33179175  0.58184603  1
  Na  Na12  1  0.33503747  0.98973420  0.58673789  1
  Na  Na13  1  0.83321495  0.97211547  0.58184081  1
  Na  Na14  1  0.14405492  0.96733344  0.08037132  1
  Na  Na15  1  0.65095927  0.97593196  0.07951019  1
  Na  Na16  1  0.33332275  0.68313238  0.08143544  1
  Na  Na17  1  0.83510773  0.68098248  0.08705321  1
  Na  Na18  1  0.48120448  0.67975944  0.91505889  1
  Na  Na19  1  0.98071098  0.67753980  0.92314010  1
  Na  Na20  1  0.34529002  0.02339469  0.90673936  1
  Na  Na21  1  0.84431061  0.02175357  0.90964474  1
  Na  Na22  1  0.17178976  0.29483664  0.90949324  1
  Na  Na23  1  0.66925921  0.29102858  0.91007321  1
  Na  Na24  1  0.48376490  0.28982924  0.42689416  1
  Na  Na25  1  0.97843766  0.28041574  0.42030929  1
  Na  Na26  1  0.16813993  0.04747922  0.41347421  1
  Na  Na27  1  0.67519403  0.05146979  0.41603465  1
  Na  Na28  1  0.34526494  0.66734146  0.41320302  1
  Na  Na29  1  0.84504969  0.66491150  0.41885307  1
  Na  Na30  1  0.99770008  0.99550931  0.50029482  1
  Na  Na31  1  0.50614608  0.01478751  0.50170577  1
  Na  Na32  1  0.00313122  0.99425772  0.99979663  1
  Na  Na33  1  0.50482164  0.99923322  0.99560833  1
  Na  Na34  1  0.32917376  0.33482967  0.82647432  1
  Na  Na35  1  0.82215583  0.32908988  0.83077203  1
  Na  Na36  1  0.32217014  0.31215144  0.33664393  1
  Na  Na37  1  0.82845692  0.32223200  0.33239418  1
  Na  Na38  1  0.15586027  0.64986964  0.16887774  1
  Na  Na39  1  0.66405414  0.65832320  0.16956161  1
  Na  Na40  1  0.16156401  0.66750276  0.66781708  1
  Na  Na41  1  0.66314741  0.66324561  0.66445260  1
  Hf  Hf0  1  0.99764756  0.00392594  0.64486946  1
  Hf  Hf1  1  0.50482994  0.00644477  0.65106493  1
  Hf  Hf2  1  0.00394589  0.00345776  0.15114448  1
  Hf  Hf3  1  0.50213029  0.99152243  0.14780121  1
  Hf  Hf4  1  0.82916119  0.32754298  0.68185005  1
  Hf  Hf5  1  0.33084962  0.34199401  0.18551920  1
  Hf  Hf6  1  0.16432664  0.66542250  0.01931665  1
  Hf  Hf7  1  0.66649060  0.66643410  0.01987654  1
  Hf  Hf8  1  0.16586225  0.66625552  0.51980198  1
  Hf  Hf9  1  0.66969379  0.66213730  0.52197504  1
  Hf  Hf10  1  0.17453741  0.67301967  0.31053547  1
  Hf  Hf11  1  0.67541191  0.67822319  0.80942488  1
  Sc  Sc0  1  0.99956725  0.00959450  0.34974025  1
  Sc  Sc1  1  0.50182324  0.00088519  0.35181573  1
  Sc  Sc2  1  0.00104373  0.00097406  0.85000180  1
  Sc  Sc3  1  0.50019874  0.99074624  0.84867910  1
  Sc  Sc4  1  0.33575804  0.32351541  0.68617765  1
  Sc  Sc5  1  0.83575775  0.34785487  0.18683344  1
  Sc  Sc6  1  0.32812381  0.34150918  0.98144284  1
  Sc  Sc7  1  0.82666864  0.34117352  0.98332752  1
  Sc  Sc8  1  0.32755438  0.31346479  0.48348163  1
  Sc  Sc9  1  0.82897429  0.32769938  0.48501624  1
  Sc  Sc10  1  0.67775531  0.67975174  0.31548350  1
  Sc  Sc11  1  0.17668716  0.67533933  0.81390087  1
  Si  Si0  1  0.14899544  0.00078550  0.25165453  1
  Si  Si1  1  0.64801657  0.99657150  0.25142797  1
  Si  Si2  1  0.35510344  0.70908122  0.25017563  1
  Si  Si3  1  0.85378491  0.70927153  0.25056866  1
  Si  Si4  1  0.99880446  0.29515080  0.25143473  1
  Si  Si5  1  0.14642658  0.29607069  0.75075490  1
  Si  Si6  1  0.64932989  0.29639147  0.75279806  1
  Si  Si7  1  0.49893883  0.70281471  0.75187607  1
  Si  Si8  1  0.35373330  0.99886462  0.75095107  1
  Si  Si9  1  0.85608053  0.00851310  0.75123128  1
  Si  Si10  1  0.48056114  0.33195185  0.58329630  1
  Si  Si11  1  0.98139713  0.34002006  0.58352724  1
  Si  Si12  1  0.18467144  0.03467625  0.58462313  1
  Si  Si13  1  0.68209766  0.03254966  0.58177170  1
  Si  Si14  1  0.83638303  0.62705364  0.58010919  1
  Si  Si15  1  0.48171305  0.62462651  0.08329814  1
  Si  Si16  1  0.98122062  0.62915987  0.08338767  1
  Si  Si17  1  0.18249692  0.33303203  0.08205895  1
  Si  Si18  1  0.68312970  0.33340659  0.08465375  1
  Si  Si19  1  0.31572942  0.67105453  0.91813472  1
  Si  Si20  1  0.81394386  0.66817432  0.91765320  1
  Si  Si21  1  0.16741394  0.96231584  0.91563368  1
  Si  Si22  1  0.66787906  0.96308516  0.91742099  1
  Si  Si23  1  0.31421128  0.96044176  0.41743722  1
  Si  Si24  1  0.81636191  0.96513893  0.41740267  1
  Si  Si25  1  0.16773678  0.37244097  0.41681385  1
  Si  Si26  1  0.66675962  0.37125113  0.41426292  1
  S  S0  1  0.49719520  0.28860859  0.24958984  1
  S  S1  1  0.99818672  0.70524932  0.75081070  1
  S  S2  1  0.33410528  0.62794040  0.58232449  1
  S  S3  1  0.33439262  0.04356602  0.08218018  1
  S  S4  1  0.83439461  0.04048690  0.08224127  1
  S  S5  1  0.02070245  0.37543253  0.91622829  1
  S  S6  1  0.52167210  0.37750134  0.91683068  1
  S  S7  1  0.02279953  0.66613840  0.41518291  1
  S  S8  1  0.52114459  0.66608585  0.41590852  1
  O  O0  1  0.10971532  0.04186783  0.30917383  1
  O  O1  1  0.60309768  0.02876370  0.30826154  1
  O  O2  1  0.41314865  0.79194802  0.30807390  1
  O  O3  1  0.91251104  0.79801989  0.30814737  1
  O  O4  1  0.48606394  0.19258561  0.30467624  1
  O  O5  1  0.98414756  0.18412626  0.31093391  1
  O  O6  1  0.10423374  0.17953053  0.81006224  1
  O  O7  1  0.60719433  0.17914255  0.81091536  1
  O  O8  1  0.48355233  0.78187851  0.81231347  1
  O  O9  1  0.98807733  0.78042444  0.80614386  1
  O  O10  1  0.41008347  0.02443777  0.81004807  1
  O  O11  1  0.91189601  0.03315402  0.81063852  1
  O  O12  1  0.39904214  0.97161888  0.69279709  1
  O  O13  1  0.90077214  0.98372361  0.69324469  1
  O  O14  1  0.08586071  0.19720079  0.69393480  1
  O  O15  1  0.58961640  0.20699826  0.69412668  1
  O  O16  1  0.00960609  0.81450791  0.69968647  1
  O  O17  1  0.51709573  0.83473555  0.69769840  1
  O  O18  1  0.39826753  0.81986352  0.19078526  1
  O  O19  1  0.89870173  0.82564904  0.19146831  1
  O  O20  1  0.01786876  0.20145526  0.19658542  1
  O  O21  1  0.50722850  0.20000347  0.19823624  1
  O  O22  1  0.09025127  0.97289165  0.19244662  1
  O  O23  1  0.58671421  0.97233974  0.19311387  1
  O  O24  1  0.43716301  0.35393957  0.64234191  1
  O  O25  1  0.93682897  0.35993435  0.64319938  1
  O  O26  1  0.24504294  0.12152345  0.64159252  1
  O  O27  1  0.74300145  0.12296210  0.64027228  1
  O  O28  1  0.32127137  0.52487733  0.63499751  1
  O  O29  1  0.81964967  0.49966371  0.63548692  1
  O  O30  1  0.43596024  0.51150123  0.14213400  1
  O  O31  1  0.93824346  0.52071562  0.14226491  1
  O  O32  1  0.32285709  0.12850531  0.13381496  1
  O  O33  1  0.82144912  0.11760669  0.13488215  1
  O  O34  1  0.24513366  0.36142670  0.13930354  1
  O  O35  1  0.74264719  0.36322452  0.14156693  1
  O  O36  1  0.22637628  0.30094607  0.02471380  1
  O  O37  1  0.72336495  0.29486854  0.02577473  1
  O  O38  1  0.42325928  0.53693743  0.02577449  1
  O  O39  1  0.92394738  0.53906626  0.02447581  1
  O  O40  1  0.34534696  0.13865756  0.02750456  1
  O  O41  1  0.84340256  0.13747976  0.02791995  1
  O  O42  1  0.22546089  0.15196610  0.52541410  1
  O  O43  1  0.72455781  0.15267388  0.52442951  1
  O  O44  1  0.34328231  0.54902362  0.52792972  1
  O  O45  1  0.84806231  0.54856388  0.51937792  1
  O  O46  1  0.42193031  0.30378675  0.52466938  1
  O  O47  1  0.92413581  0.30897031  0.52533240  1
  O  O48  1  0.26551406  0.68831714  0.97613578  1
  O  O49  1  0.76818026  0.69195676  0.97680834  1
  O  O50  1  0.07528482  0.46304675  0.96869245  1
  O  O51  1  0.57582197  0.46597464  0.96924924  1
  O  O52  1  0.15424870  0.84207428  0.97420144  1
  O  O53  1  0.65534338  0.84464000  0.97599420  1
  O  O54  1  0.26822555  0.84420117  0.47600022  1
  O  O55  1  0.76482361  0.84300297  0.47356064  1
  O  O56  1  0.15598517  0.46843574  0.47463261  1
  O  O57  1  0.65188387  0.46377030  0.47173408  1
  O  O58  1  0.07651614  0.68632108  0.46786652  1
  O  O59  1  0.57503265  0.68758271  0.46738183  1
  O  O60  1  0.06332697  0.64655808  0.36150390  1
  O  O61  1  0.55713936  0.64106132  0.36102898  1
  O  O62  1  0.25092660  0.86458368  0.36187338  1
  O  O63  1  0.75821638  0.88127601  0.35791416  1
  O  O64  1  0.17800442  0.48966352  0.35874297  1
  O  O65  1  0.67488498  0.48261010  0.35550862  1
  O  O66  1  0.05769420  0.47538904  0.86271117  1
  O  O67  1  0.55933996  0.47841672  0.86314736  1
  O  O68  1  0.17753302  0.86814500  0.85786171  1
  O  O69  1  0.67782588  0.86447789  0.86031866  1
  O  O70  1  0.25635426  0.63650021  0.86001459  1
  O  O71  1  0.74994781  0.63650917  0.86284328  1
  O  O72  1  0.01650263  0.82025661  0.41318736  1
  O  O73  1  0.51395546  0.82119035  0.41329829  1
  O  O74  1  0.40629177  0.97425275  0.41172619  1
  O  O75  1  0.90748610  0.97184183  0.41542335  1
  O  O76  1  0.08520812  0.18449744  0.41490877  1
  O  O77  1  0.58184579  0.18186491  0.41252355  1
  O  O78  1  0.01524766  0.20846997  0.91446294  1
  O  O79  1  0.51568856  0.21110663  0.91483539  1
  O  O80  1  0.08334063  0.98280593  0.91403156  1
  O  O81  1  0.58512843  0.98580039  0.91547756  1
  O  O82  1  0.40705714  0.84384818  0.91678260  1
  O  O83  1  0.90645144  0.83796129  0.91261113  1
  O  O84  1  0.48710536  0.15724855  0.58773603  1
  O  O85  1  0.99081709  0.16903347  0.58872304  1
  O  O86  1  0.09251059  0.01851191  0.59165646  1
  O  O87  1  0.59062217  0.02037723  0.58912986  1
  O  O88  1  0.40673168  0.80042757  0.58697124  1
  O  O89  1  0.91411939  0.81830870  0.58966909  1
  O  O90  1  0.48709225  0.81241268  0.08831460  1
  O  O91  1  0.98869243  0.81795698  0.08674475  1
  O  O92  1  0.40678730  0.01624267  0.08931603  1
  O  O93  1  0.90705522  0.01304770  0.08666921  1
  O  O94  1  0.09121693  0.16389142  0.08861400  1
  O  O95  1  0.58876542  0.16555357  0.09102068  1
  O  O96  1  0.34336090  0.16563209  0.74750380  1
  O  O97  1  0.84783046  0.17910959  0.74650294  1
  O  O98  1  0.24083781  0.32308020  0.74425299  1
  O  O99  1  0.74139019  0.31062846  0.74453458  1
  O  O100  1  0.41536418  0.51997914  0.74369680  1
  O  O101  1  0.92378839  0.53495431  0.74518832  1
  O  O102  1  0.34760874  0.52024454  0.24431777  1
  O  O103  1  0.84317145  0.52148114  0.24642212  1
  O  O104  1  0.42190886  0.30843291  0.24292705  1
  O  O105  1  0.91527336  0.31038744  0.24298887  1
  O  O106  1  0.24276232  0.16807492  0.24118652  1
  O  O107  1  0.74124906  0.15838052  0.24350660  1
  O  O108  1  0.32693706  0.50408235  0.92180381  1
  O  O109  1  0.82427909  0.50029813  0.92070658  1
  O  O110  1  0.43681947  0.35666643  0.92367226  1
  O  O111  1  0.93556553  0.35264106  0.92393383  1
  O  O112  1  0.25462735  0.14540067  0.92139382  1
  O  O113  1  0.75565700  0.14554099  0.92125544  1
  O  O114  1  0.32437677  0.14866535  0.41993011  1
  O  O115  1  0.82796776  0.15365248  0.42119229  1
  O  O116  1  0.25567692  0.36595657  0.42034795  1
  O  O117  1  0.75229490  0.35779709  0.41786372  1
  O  O118  1  0.43529755  0.51767858  0.42246796  1
  O  O119  1  0.93936272  0.51482737  0.41970027  1
  O  O120  1  0.18022361  0.50904481  0.07808498  1
  O  O121  1  0.67836821  0.50698378  0.07721353  1
  O  O122  1  0.07907389  0.66459291  0.07802919  1
  O  O123  1  0.57900481  0.66371593  0.07954782  1
  O  O124  1  0.25579472  0.87308423  0.07914813  1
  O  O125  1  0.75580123  0.86795534  0.07805783  1
  O  O126  1  0.17983661  0.85144797  0.57677112  1
  O  O127  1  0.67732440  0.85107043  0.57655052  1
  O  O128  1  0.25546817  0.64270566  0.57800880  1
  O  O129  1  0.74979050  0.64253821  0.57786810  1
  O  O130  1  0.07893753  0.49881564  0.57921584  1
  O  O131  1  0.57632113  0.49101606  0.57696807  1
  O  O132  1  0.15105366  0.82556503  0.25592449  1
  O  O133  1  0.64856537  0.81887684  0.25374371  1
  O  O134  1  0.25882210  0.67403500  0.25350829  1
  O  O135  1  0.75939556  0.68934224  0.25230577  1
  O  O136  1  0.08276653  0.48357751  0.25635218  1
  O  O137  1  0.57290968  0.45796082  0.25224978  1
  O  O138  1  0.14857241  0.47743442  0.75461646  1
  O  O139  1  0.65132160  0.47596533  0.75749440  1
  O  O140  1  0.07486822  0.68859200  0.75415697  1
  O  O141  1  0.58287082  0.68251497  0.75718442  1
  O  O142  1  0.25917577  0.82980395  0.75258496  1
  O  O143  1  0.75986815  0.84626850  0.75449592  1
loop_
_geom_bond_atom_site_label_1
_geom_bond_atom_site_label_2
_geom_bond_distance
_geom_bond_site_symmetry_2
Na0 O107 2.445820 1_555
Na0 O105 2.452233 1_555
Na0 O135 2.562239 1_545
Na0 O63 2.582783 1_545
Na0 O133 2.713328 1_545
Na0 O33 2.905588 1_555
Na0 O5 2.909890 1_555
Na1 O136 2.508434 1_555
Na1 O134 2.561312 1_555
Na1 O106 2.584141 1_555
Na1 O64 2.656281 1_555
Na1 O102 2.770611 1_555
Na1 O0 2.771285 1_555
Na1 O20 2.807237 1_555
Na1 O34 2.903662 1_555
Na2 O103 2.408923 1_555
Na2 O107 2.535987 1_555
Na2 O135 2.545846 1_555
Na2 O65 2.595082 1_555
Na2 O137 2.682156 1_555
Na2 O35 2.728993 1_555
Na2 O1 2.982883 1_555
Na3 O103 2.475242 1_555
Na3 O132 2.494327 1_655
Na3 O105 2.540742 1_555
Na3 O136 2.546331 1_655
Na3 O31 2.561465 1_555
Na3 O60 2.859939 1_655
Na4 O133 2.338763 1_555
Na4 O102 2.473684 1_555
Na4 O137 2.648858 1_555
Na4 O61 2.704879 1_555
Na4 O104 2.710047 1_555
Na4 O30 2.748769 1_555
Na4 O2 2.874323 1_555
Na4 O23 2.890491 1_555
Na5 O98 2.436373 1_555
Na5 O100 2.449058 1_555
Na5 O142 2.567433 1_555
Na5 O138 2.703155 1_555
Na5 O70 2.710507 1_555
Na5 O28 2.827977 1_555
Na6 O138 2.378925 1_555
Na6 O97 2.436929 1_455
Na6 O25 2.559766 1_455
Na6 O101 2.662188 1_455
Na6 O140 2.677204 1_555
Na6 O14 2.836022 1_555
Na6 O66 2.910707 1_555
Na6 O11 2.979140 1_455
Na7 O139 2.486057 1_555
Na7 O96 2.501476 1_555
Na7 O24 2.508089 1_555
Na7 O141 2.542355 1_555
Na7 O100 2.547490 1_555
Na7 O15 2.930095 1_555
Na7 O67 2.932638 1_555
Na8 O96 2.435242 1_555
Na8 O98 2.517139 1_555
Na8 O142 2.564041 1_545
Na8 O26 2.649331 1_555
Na8 O140 2.658407 1_545
Na8 O68 2.738635 1_545
Na9 O99 2.491797 1_565
Na9 O143 2.504522 1_555
Na9 O141 2.548745 1_555
Na9 O97 2.681998 1_565
Na9 O27 2.724129 1_565
Na9 O69 2.799410 1_555
Na9 O17 2.828297 1_555
Na9 O7 2.933838 1_565
Na10 O86 2.455841 1_555
Na10 O85 2.491026 1_455
Na10 O130 2.498266 1_555
Na10 O128 2.603121 1_555
Na10 O56 2.743413 1_555
Na10 O14 2.779400 1_555
Na10 O42 2.898533 1_555
Na10 O28 3.025822 1_555
Na11 O131 2.481253 1_555
Na11 O129 2.498870 1_555
Na11 O87 2.499612 1_555
Na11 O84 2.635440 1_555
Na11 O57 2.774851 1_555
Na11 O15 2.792435 1_555
Na11 O43 2.885228 1_555
Na11 O29 2.918567 1_555
Na12 O84 2.422058 1_565
Na12 O126 2.482288 1_555
Na12 O88 2.654391 1_555
Na12 O12 2.712583 1_555
Na12 O128 2.769746 1_555
Na12 O26 2.782920 1_565
Na12 O54 2.814132 1_555
Na12 O46 2.871917 1_565
Na13 O127 2.501811 1_555
Na13 O89 2.516450 1_555
Na13 O85 2.536111 1_565
Na13 O129 2.622460 1_555
Na13 O55 2.736112 1_555
Na13 O13 2.786595 1_555
Na13 O27 2.952118 1_565
Na13 O47 2.973183 1_565
Na14 O122 2.416186 1_555
Na14 O94 2.446950 1_565
Na14 O91 2.475420 1_455
Na14 O124 2.595549 1_555
Na14 O52 2.710772 1_554
Na14 O22 2.733945 1_555
Na14 O36 2.939052 1_565
Na15 O123 2.485521 1_555
Na15 O95 2.528903 1_565
Na15 O125 2.569199 1_555
Na15 O90 2.613568 1_555
Na15 O53 2.654389 1_554
Na15 O37 2.818010 1_565
Na15 O23 2.824551 1_555
Na15 O33 2.995481 1_565
Na16 O120 2.442852 1_555
Na16 O90 2.459806 1_555
Na16 O92 2.661015 1_565
Na16 O48 2.698581 1_554
Na16 O124 2.749038 1_555
Na16 O18 2.759227 1_555
Na16 O34 2.879844 1_555
Na16 O38 2.888212 1_555
Na17 O91 2.446770 1_555
Na17 O121 2.506522 1_555
Na17 O93 2.648727 1_565
Na17 O19 2.673825 1_555
Na17 O125 2.758968 1_555
Na17 O49 2.803702 1_554
Na17 O35 2.824346 1_555
Na17 O39 2.915511 1_555
Na18 O108 2.465804 1_555
Na18 O81 2.485126 1_555
Na18 O82 2.485804 1_555
Na18 O8 2.500588 1_555
Na18 O110 2.662569 1_555
Na18 O38 2.784041 1_556
Na19 O83 2.468994 1_555
Na19 O80 2.484071 1_655
Na19 O109 2.495038 1_555
Na19 O39 2.579056 1_556
Na19 O111 2.667755 1_555
Na19 O9 2.793040 1_555
Na20 O82 2.434699 1_545
Na20 O112 2.450503 1_555
Na20 O10 2.490870 1_555
Na20 O110 2.681452 1_555
Na20 O79 2.719689 1_555
Na20 O68 2.887459 1_545
Na20 O40 2.930736 1_556
Na21 O113 2.421647 1_555
Na21 O83 2.466282 1_545
Na21 O11 2.540542 1_555
Na21 O111 2.655209 1_555
Na21 O78 2.723640 1_655
Na21 O69 2.871650 1_545
Na21 O41 2.883159 1_556
Na22 O80 2.491091 1_545
Na22 O112 2.521364 1_555
Na22 O6 2.529577 1_555
Na22 O108 2.531015 1_555
Na22 O78 2.573835 1_555
Na22 O36 2.782807 1_556
Na22 O70 2.940722 1_555
Na23 O81 2.434854 1_545
Na23 O7 2.491794 1_555
Na23 O109 2.525509 1_555
Na23 O79 2.536275 1_555
Na23 O113 2.546745 1_555
Na23 O37 2.793334 1_556
Na23 O71 2.951684 1_555
Na24 O77 2.474060 1_555
Na24 O46 2.521664 1_555
Na24 O74 2.532617 1_545
Na24 O114 2.544283 1_555
Na24 O118 2.654095 1_555
Na24 O57 2.857422 1_555
Na24 O4 2.913521 1_555
Na25 O115 2.402480 1_555
Na25 O75 2.458972 1_545
Na25 O76 2.522568 1_655
Na25 O119 2.587531 1_555
Na25 O47 2.642802 1_555
Na25 O5 2.648422 1_555
Na26 O76 2.412651 1_555
Na26 O72 2.508919 1_545
Na26 O114 2.538970 1_555
Na26 O116 2.541329 1_555
Na26 O0 2.581229 1_555
Na26 O42 2.725099 1_555
Na27 O117 2.436409 1_555
Na27 O115 2.475626 1_555
Na27 O77 2.536101 1_555
Na27 O43 2.617669 1_555
Na27 O73 2.641461 1_545
Na27 O1 2.731060 1_555
Na28 O116 2.416643 1_555
Na28 O74 2.458131 1_555
Na28 O118 2.634158 1_555
Na28 O2 2.667102 1_555
Na28 O73 2.685620 1_555
Na28 O44 2.808958 1_555
Na28 O64 2.930012 1_555
Na28 O54 2.993985 1_555
Na29 O75 2.456445 1_555
Na29 O117 2.459857 1_555
Na29 O45 2.526672 1_555
Na29 O119 2.699546 1_555
Na29 O72 2.733420 1_655
Na29 O3 2.794406 1_555
Na30 O75 2.471757 1_555
Na30 O76 2.560364 1_665
Na30 O89 2.571637 1_555
Na30 O85 2.600282 1_565
Na30 O86 2.640167 1_665
Na30 O72 2.674474 1_655
Na31 O84 2.466553 1_555
Na31 O87 2.496736 1_555
Na31 O77 2.498419 1_555
Na31 O74 2.636529 1_545
Na31 O88 2.712082 1_545
Na31 O73 2.727465 1_545
Na32 O80 2.472792 1_555
Na32 O91 2.478247 1_456
Na32 O83 2.557601 1_455
Na32 O94 2.559062 1_566
Na32 O78 2.686839 1_565
Na32 O93 2.706697 1_466
Na33 O81 2.381493 1_555
Na33 O82 2.421825 1_555
Na33 O79 2.605019 1_565
Na33 O90 2.627048 1_556
Na33 O95 2.646168 1_566
Na33 O92 2.838929 1_566
Na34 O98 2.433103 1_555
Na34 O96 2.466127 1_555
Na34 O100 2.495899 1_555
Na34 O108 2.671149 1_555
Na34 O112 2.673878 1_555
Na34 O110 2.893902 1_555
Na35 O99 2.403330 1_555
Na35 O97 2.531492 1_555
Na35 O113 2.545919 1_555
Na35 O109 2.559929 1_555
Na35 O101 2.701504 1_555
Na35 O111 2.891876 1_555
Na36 O114 2.423647 1_555
Na36 O116 2.436431 1_555
Na36 O106 2.569209 1_555
Na36 O102 2.711716 1_555
Na36 O118 2.776763 1_555
Na36 O104 2.816485 1_555
Na37 O117 2.504395 1_555
Na37 O115 2.535166 1_555
Na37 O107 2.539898 1_555
Na37 O103 2.592323 1_555
Na37 O105 2.614223 1_555
Na37 O119 2.749370 1_555
Na38 O136 2.452998 1_555
Na38 O122 2.532883 1_555
Na38 O132 2.575600 1_555
Na38 O120 2.583825 1_555
Na38 O134 2.619117 1_555
Na38 O124 2.819664 1_555
Na39 O135 2.478380 1_555
Na39 O133 2.510951 1_555
Na39 O137 2.573919 1_555
Na39 O123 2.580421 1_555
Na39 O121 2.595217 1_555
Na39 O125 2.758207 1_555
Na40 O130 2.521538 1_555
Na40 O142 2.535248 1_555
Na40 O138 2.559977 1_555
Na40 O126 2.579413 1_555
Na40 O140 2.590583 1_555
Na40 O128 2.750133 1_555
Na41 O131 2.535221 1_555
Na41 O127 2.561070 1_555
Na41 O129 2.592803 1_555
Na41 O141 2.623449 1_555
Na41 O139 2.659574 1_555
Na41 O143 2.670239 1_555
Hf0 O13 2.018693 1_545
Hf0 O85 2.030326 1_555
Hf0 O14 2.030465 1_655
Hf0 O89 2.048072 1_545
Hf0 O86 2.068243 1_655
Hf0 O16 2.235585 1_645
Hf1 O15 1.972350 1_555
Hf1 O17 2.002069 1_545
Hf1 O12 2.038037 1_545
Hf1 O87 2.066487 1_555
Hf1 O84 2.128514 1_555
Hf1 O88 2.346736 1_545
Hf2 O22 1.975893 1_545
Hf2 O20 1.990490 1_555
Hf2 O19 2.021285 1_445
Hf2 O94 2.095495 1_555
Hf2 O91 2.150446 1_445
Hf2 O93 2.334584 1_455
Hf3 O23 1.939936 1_555
Hf3 O18 2.017441 1_555
Hf3 O90 2.034004 1_555
Hf3 O95 2.050244 1_565
Hf3 O21 2.190034 1_565
Hf3 O92 2.293135 1_565
Hf4 O29 1.976910 1_555
Hf4 O27 1.984368 1_555
Hf4 O25 2.044729 1_555
Hf4 O99 2.096022 1_555
Hf4 O97 2.141402 1_555
Hf4 O101 2.319434 1_555
Hf5 O34 1.969417 1_555
Hf5 O102 2.009563 1_555
Hf5 O30 2.028789 1_555
Hf5 O106 2.044646 1_555
Hf5 O32 2.223684 1_555
Hf5 O104 2.255512 1_555
Hf6 O52 2.002711 1_554
Hf6 O48 2.016938 1_554
Hf6 O122 2.052509 1_555
Hf6 O120 2.082696 1_555
Hf6 O50 2.095584 1_554
Hf6 O124 2.253144 1_555
Hf7 O53 2.010847 1_554
Hf7 O49 2.015232 1_554
Hf7 O121 2.048702 1_555
Hf7 O123 2.091350 1_555
Hf7 O51 2.097321 1_554
Hf7 O125 2.191377 1_555
Hf8 O56 2.011664 1_555
Hf8 O54 2.030403 1_555
Hf8 O126 2.044857 1_555
Hf8 O130 2.067834 1_555
Hf8 O58 2.098348 1_555
Hf8 O128 2.199596 1_555
Hf9 O129 2.013550 1_555
Hf9 O55 2.029261 1_555
Hf9 O57 2.029713 1_555
Hf9 O131 2.067263 1_555
Hf9 O127 2.076176 1_555
Hf9 O59 2.236451 1_555
Hf10 O62 1.983963 1_555
Hf10 O134 2.013634 1_555
Hf10 O64 2.034613 1_555
Hf10 O132 2.069111 1_555
Hf10 O136 2.104251 1_555
Hf10 O60 2.252293 1_555
Hf11 O143 1.986905 1_555
Hf11 O71 2.000242 1_555
Hf11 O69 2.043803 1_555
Hf11 O139 2.049808 1_555
Hf11 O141 2.084928 1_555
Hf11 O67 2.342693 1_555
O0 Si0 1.622673 1_555
O0 Sc0 2.104594 1_455
O1 Si1 1.634108 1_545
O1 Sc1 2.006623 1_555
O2 Si2 1.617109 1_555
O2 Sc1 2.044490 1_565
O3 Si3 1.624864 1_555
O3 Sc0 2.025444 1_565
O4 S0 1.481961 1_555
O4 Sc1 2.198349 1_555
O5 Si4 1.629244 1_555
O5 Sc0 1.968726 1_555
O6 Si5 1.650452 1_555
O6 Sc2 1.999077 1_555
O7 Si6 1.631171 1_555
O7 Sc3 2.047326 1_545
O8 Si7 1.638388 1_555
O8 Sc3 1.965100 1_555
O9 S1 1.485973 1_555
O9 Sc2 2.158634 1_665
O10 Si8 1.632989 1_545
O10 Sc3 2.026234 1_545
O11 Si9 1.634760 1_555
O11 Sc2 2.009906 1_655
O12 Si8 1.643064 1_555
O13 Si9 1.624437 1_565
O14 Si5 1.642776 1_555
O15 Si6 1.653145 1_555
O16 S1 1.477094 1_455
O17 Si7 1.637723 1_555
O18 Si2 1.633843 1_555
O19 Si3 1.654130 1_555
O20 Si4 1.645106 1_455
O21 S0 1.482295 1_555
O22 Si0 1.656247 1_565
O23 Si1 1.674071 1_555
O24 Si10 1.620768 1_555
O24 Sc4 2.004120 1_555
O25 Si11 1.637468 1_555
O26 Si12 1.623887 1_555
O26 Sc4 2.033452 1_555
O27 Si13 1.660714 1_555
O28 S2 1.467051 1_555
O28 Sc4 2.307897 1_555
O29 Si14 1.636465 1_555
O30 Si15 1.640567 1_555
O31 Si16 1.615560 1_555
O31 Sc5 2.024747 1_555
O32 S3 1.478102 1_555
O33 S4 1.465136 1_555
O33 Sc5 2.316031 1_555
O34 Si17 1.662503 1_555
O35 Si18 1.619874 1_555
O35 Sc5 2.056215 1_555
O36 Si17 1.631578 1_555
O36 Sc6 1.974762 1_554
O37 Si18 1.646883 1_555
O37 Sc7 1.975465 1_554
O38 Si15 1.620179 1_555
O38 Sc6 2.033436 1_554
O39 Si16 1.640716 1_555
O39 Sc7 2.026223 1_554
O40 S3 1.470142 1_555
O40 Sc6 2.290940 1_554
O41 S4 1.478992 1_555
O41 Sc7 2.277955 1_554
O42 Si12 1.647983 1_555
O42 Sc8 1.960039 1_555
O43 Si13 1.629316 1_555
O43 Sc9 1.995156 1_555
O44 S2 1.480463 1_555
O44 Sc8 2.268832 1_555
O45 Si14 1.615605 1_555
O45 Sc9 2.031876 1_555
O46 Si10 1.644015 1_555
O46 Sc8 2.007087 1_555
O47 Si11 1.617586 1_555
O47 Sc9 2.051987 1_555
O48 Si19 1.658206 1_555
O49 Si20 1.653601 1_555
O50 S5 1.500010 1_555
O51 S6 1.497684 1_555
O52 Si21 1.664723 1_555
O53 Si22 1.657256 1_555
O54 Si23 1.647405 1_555
O55 Si24 1.647379 1_555
O56 Si25 1.651335 1_555
O57 Si26 1.649653 1_555
O58 S7 1.497290 1_555
O59 S8 1.475016 1_555
O60 S7 1.483101 1_555
O61 S8 1.479056 1_555
O61 Sc10 2.305647 1_555
O62 Si23 1.636212 1_555
O63 Si24 1.648411 1_555
O63 Sc10 1.946282 1_555
O64 Si25 1.649827 1_555
O65 Si26 1.639104 1_555
O65 Sc10 2.002099 1_555
O66 S5 1.467020 1_555
O66 Sc11 2.316087 1_555
O67 S6 1.475509 1_555
O68 Si21 1.628854 1_555
O68 Sc11 2.024009 1_555
O69 Si22 1.639928 1_555
O70 Si19 1.633476 1_555
O70 Sc11 1.968129 1_555
O71 Si20 1.630033 1_555
O72 S7 1.477402 1_555
O72 Sc0 2.392753 1_465
O73 S8 1.496115 1_555
O73 Sc1 2.253750 1_565
O74 Si23 1.636425 1_555
O74 Sc1 2.134494 1_565
O75 Si24 1.644009 1_555
O75 Sc0 2.147822 1_565
O76 Si25 1.631130 1_555
O76 Sc0 2.165862 1_455
O77 Si26 1.656675 1_555
O77 Sc1 2.087298 1_555
O78 S5 1.486366 1_555
O78 Sc2 2.308049 1_555
O79 S6 1.476978 1_555
O79 Sc3 2.416323 1_545
O80 Si21 1.646329 1_555
O80 Sc2 2.157884 1_565
O81 Si22 1.634376 1_555
O81 Sc3 2.186898 1_555
O82 Si19 1.633851 1_555
O82 Sc3 2.196708 1_555
O83 Si20 1.637380 1_555
O83 Sc2 2.162611 1_665
O84 Si10 1.670940 1_555
O85 Si11 1.667851 1_555
O86 Si12 1.631221 1_555
O87 Si13 1.635485 1_555
O88 S2 1.478125 1_555
O89 Si14 1.630888 1_555
O90 Si15 1.681211 1_555
O91 Si16 1.671236 1_555
O92 S3 1.479575 1_555
O93 S4 1.479720 1_555
O94 Si17 1.625065 1_555
O95 Si18 1.651825 1_555
O96 Si8 1.637125 1_545
O96 Sc4 2.062318 1_555
O97 Si9 1.651316 1_555
O98 Si5 1.630745 1_555
O98 Sc4 2.183496 1_555
O99 Si6 1.640037 1_555
O100 Si7 1.621608 1_555
O100 Sc4 2.106970 1_555
O101 S1 1.479943 1_555
O102 Si2 1.674902 1_555
O103 Si3 1.638570 1_555
O103 Sc5 2.039746 1_555
O104 S0 1.489311 1_555
O105 Si4 1.619378 1_555
O105 Sc5 2.088594 1_555
O106 Si0 1.654284 1_555
O107 Si1 1.620999 1_545
O107 Sc5 2.162201 1_555
O108 Si19 1.648247 1_555
O108 Sc6 2.021630 1_555
O109 Si20 1.646446 1_555
O109 Sc7 2.052609 1_555
O110 S6 1.480163 1_555
O110 Sc6 2.333463 1_555
O111 S5 1.480486 1_655
O111 Sc7 2.369914 1_555
O112 Si21 1.647432 1_545
O112 Sc6 2.114625 1_555
O113 Si22 1.646419 1_545
O113 Sc7 2.132903 1_555
O114 Si23 1.644213 1_545
O114 Sc8 2.067043 1_555
O115 Si24 1.637378 1_545
O115 Sc9 2.147221 1_555
O116 Si25 1.647172 1_555
O116 Sc8 2.155678 1_555
O117 Si26 1.637815 1_555
O117 Sc9 2.179752 1_555
O118 S8 1.488724 1_555
O118 Sc8 2.374891 1_555
O119 S7 1.469580 1_655
O119 Sc9 2.403571 1_555
O120 Si17 1.640336 1_555
O121 Si18 1.648358 1_555
O122 Si16 1.662827 1_455
O123 Si15 1.639087 1_555
O124 S3 1.509303 1_565
O125 S4 1.521211 1_565
O126 Si12 1.649693 1_565
O127 Si13 1.628896 1_565
O128 S2 1.519312 1_555
O129 Si14 1.666410 1_555
O130 Si11 1.652867 1_455
O131 Si10 1.636414 1_555
O132 Si0 1.631415 1_565
O133 Si1 1.637922 1_555
O133 Sc10 2.134808 1_555
O134 Si2 1.632828 1_555
O135 Si3 1.649821 1_555
O135 Sc10 2.043597 1_555
O136 Si4 1.647452 1_455
O137 S0 1.480522 1_555
O137 Sc10 2.442888 1_555
O138 Si5 1.648599 1_555
O138 Sc11 2.104064 1_555
O139 Si6 1.634661 1_555
O140 S1 1.492259 1_455
O140 Sc11 2.357450 1_555
O141 Si7 1.646576 1_555
O142 Si8 1.652313 1_555
O142 Sc11 2.023243 1_555
O143 Si9 1.647404 1_565
