# generated using pymatgen
data_K(V5S8)2
_symmetry_space_group_name_H-M   'P 1'
_cell_length_a   6.47140600
_cell_length_b   8.48001500
_cell_length_c   17.55674836
_cell_angle_alpha   75.66669834
_cell_angle_beta   90.00000000
_cell_angle_gamma   90.00000000
_symmetry_Int_Tables_number   1
_chemical_formula_structural   K(V5S8)2
_chemical_formula_sum   'K2 V20 S32'
_cell_volume   933.48159575
_cell_formula_units_Z   2
loop_
 _symmetry_equiv_pos_site_id
 _symmetry_equiv_pos_as_xyz
  1  'x, y, z'
loop_
 _atom_site_type_symbol
 _atom_site_label
 _atom_site_symmetry_multiplicity
 _atom_site_fract_x
 _atom_site_fract_y
 _atom_site_fract_z
 _atom_site_occupancy
  K  K0  1  0.37519000  0.00000000  0.75000000  1
  K  K1  1  0.62481000  0.00000000  0.25000000  1
  V  V0  1  0.63054400  0.85879100  0.04013200  1
  V  V1  1  0.63054400  0.14120900  0.45986800  1
  V  V2  1  0.12691500  0.86118800  0.03939500  1
  V  V3  1  0.12691500  0.13881200  0.46060500  1
  V  V4  1  0.36945600  0.85879100  0.54013200  1
  V  V5  1  0.36945600  0.14120900  0.95986800  1
  V  V6  1  0.87308500  0.86118800  0.53939500  1
  V  V7  1  0.87308500  0.13881200  0.96060500  1
  V  V8  1  0.37943800  0.50588800  0.89774400  1
  V  V9  1  0.37943800  0.49411200  0.60225600  1
  V  V10  1  0.87840600  0.50463300  0.89737000  1
  V  V11  1  0.87840600  0.49536700  0.60263000  1
  V  V12  1  0.62056200  0.50588800  0.39774400  1
  V  V13  1  0.62056200  0.49411200  0.10225600  1
  V  V14  1  0.12159400  0.50463300  0.39737000  1
  V  V15  1  0.12159400  0.49536700  0.10263000  1
  V  V16  1  0.65533600  0.50000000  0.75000000  1
  V  V17  1  0.10323200  0.50000000  0.75000000  1
  V  V18  1  0.34466400  0.50000000  0.25000000  1
  V  V19  1  0.89676800  0.50000000  0.25000000  1
  S  S0  1  0.62843100  0.32711000  0.32221400  1
  S  S1  1  0.87927000  0.31416700  0.82646300  1
  S  S2  1  0.62971300  0.99464500  0.91147800  1
  S  S3  1  0.62971300  0.00535500  0.58852200  1
  S  S4  1  0.12756800  0.99549100  0.91048300  1
  S  S5  1  0.12756800  0.00450900  0.58951700  1
  S  S6  1  0.37028700  0.99464500  0.41147800  1
  S  S7  1  0.37028700  0.00535500  0.08852200  1
  S  S8  1  0.87243200  0.99549100  0.41048300  1
  S  S9  1  0.87243200  0.00450900  0.08951700  1
  S  S10  1  0.37870400  0.66014000  0.00951900  1
  S  S11  1  0.37870400  0.33986000  0.49048100  1
  S  S12  1  0.87861300  0.65819800  0.00933200  1
  S  S13  1  0.87861300  0.34180200  0.49066800  1
  S  S14  1  0.12138700  0.65819800  0.50933200  1
  S  S15  1  0.12138700  0.34180200  0.99066800  1
  S  S16  1  0.62129600  0.66014000  0.50951900  1
  S  S17  1  0.62129600  0.33986000  0.99048100  1
  S  S18  1  0.63273200  0.68475900  0.83366100  1
  S  S19  1  0.63273200  0.31524100  0.66633900  1
  S  S20  1  0.12531100  0.68415200  0.83388600  1
  S  S21  1  0.12531100  0.31584800  0.66611400  1
  S  S22  1  0.36726800  0.68475900  0.33366100  1
  S  S23  1  0.36726800  0.31524100  0.16633900  1
  S  S24  1  0.87468900  0.68415200  0.33388600  1
  S  S25  1  0.87468900  0.31584800  0.16611400  1
  S  S26  1  0.62843100  0.67289000  0.17778600  1
  S  S27  1  0.37156900  0.32711000  0.82221400  1
  S  S28  1  0.12073000  0.68583300  0.17353700  1
  S  S29  1  0.12073000  0.31416700  0.32646300  1
  S  S30  1  0.37156900  0.67289000  0.67778600  1
  S  S31  1  0.87927000  0.68583300  0.67353700  1
loop_
_geom_bond_atom_site_label_1
_geom_bond_atom_site_label_2
_geom_bond_distance
_geom_bond_site_symmetry_2
K0 S21 3.163014 1_555
K0 S20 3.163014 1_545
K0 S19 3.183915 1_555
K0 S18 3.183915 1_545
K0 S4 3.233365 1_545
K0 S5 3.233365 1_555
K0 S2 3.269360 1_545
K0 S3 3.269360 1_555
K0 S30 3.323217 1_545
K0 S27 3.323217 1_555
K1 S24 3.163014 1_545
K1 S25 3.163014 1_555
K1 S22 3.183915 1_545
K1 S23 3.183915 1_555
K1 S8 3.233365 1_545
K1 S9 3.233365 1_555
K1 S6 3.269360 1_545
K1 S7 3.269360 1_555
K1 S26 3.323217 1_545
K1 S0 3.323217 1_555
S0 V12 2.248286 1_555
S0 V19 2.419104 1_555
S0 V18 2.491752 1_555
S0 V1 2.537658 1_555
S1 V10 2.270257 1_555
S1 V16 2.310444 1_555
S1 V17 2.310558 1_655
S1 V7 2.454656 1_555
S2 V0 2.267326 1_556
S2 V7 2.289346 1_565
S2 V5 2.371901 1_565
S3 V1 2.267326 1_555
S3 V6 2.289346 1_545
S3 V4 2.371901 1_545
S4 V2 2.267876 1_556
S4 V5 2.293360 1_565
S4 V7 2.343750 1_465
S5 V3 2.267876 1_555
S5 V4 2.293360 1_545
S5 V6 2.343750 1_445
S6 V4 2.267326 1_555
S6 V3 2.289346 1_565
S6 V1 2.371901 1_565
S7 V5 2.267326 1_554
S7 V2 2.289346 1_545
S7 V0 2.371901 1_545
S8 V6 2.267876 1_555
S8 V1 2.293360 1_565
S8 V3 2.343750 1_665
S9 V7 2.267876 1_554
S9 V0 2.293360 1_545
S9 V2 2.343750 1_645
S10 V13 2.438830 1_555
S10 V0 2.496201 1_555
S10 V15 2.502441 1_555
S10 V2 2.505910 1_555
S10 V8 2.614007 1_554
S11 V12 2.438830 1_555
S11 V1 2.496201 1_555
S11 V14 2.502441 1_555
S11 V3 2.505910 1_555
S11 V9 2.614007 1_555
S12 V15 2.437700 1_655
S12 V0 2.493694 1_555
S12 V13 2.502502 1_555
S12 V2 2.504697 1_655
S12 V10 2.612883 1_554
S13 V14 2.437700 1_655
S13 V1 2.493694 1_555
S13 V12 2.502502 1_555
S13 V3 2.504697 1_655
S13 V11 2.612883 1_555
S14 V11 2.437700 1_455
S14 V4 2.493694 1_555
S14 V9 2.502502 1_555
S14 V6 2.504697 1_455
S14 V14 2.612883 1_555
S15 V10 2.437700 1_455
S15 V5 2.493694 1_555
S15 V8 2.502502 1_555
S15 V7 2.504697 1_455
S15 V15 2.612883 1_556
S16 V9 2.438830 1_555
S16 V4 2.496201 1_555
S16 V11 2.502441 1_555
S16 V6 2.505910 1_555
S16 V12 2.614007 1_555
S17 V8 2.438830 1_555
S17 V5 2.496201 1_555
S17 V10 2.502441 1_555
S17 V7 2.505910 1_555
S17 V13 2.614007 1_556
S18 V10 2.294772 1_555
S18 V8 2.325619 1_555
S18 V16 2.402700 1_555
S19 V11 2.294772 1_555
S19 V9 2.325619 1_555
S19 V16 2.402700 1_555
S20 V10 2.296232 1_455
S20 V8 2.325418 1_555
S20 V17 2.401419 1_555
S21 V11 2.296232 1_455
S21 V9 2.325418 1_555
S21 V17 2.401419 1_555
S22 V14 2.294772 1_555
S22 V12 2.325619 1_555
S22 V18 2.402700 1_555
S23 V15 2.294772 1_555
S23 V13 2.325619 1_555
S23 V18 2.402700 1_555
S24 V14 2.296232 1_655
S24 V12 2.325418 1_555
S24 V19 2.401419 1_555
S25 V15 2.296232 1_655
S25 V13 2.325418 1_555
S25 V19 2.401419 1_555
S26 V13 2.248286 1_555
S26 V19 2.419104 1_555
S26 V18 2.491752 1_555
S26 V0 2.537658 1_555
S27 V8 2.248286 1_555
S27 V17 2.419104 1_555
S27 V16 2.491752 1_555
S27 V5 2.537658 1_555
S28 V15 2.270257 1_555
S28 V18 2.310444 1_555
S28 V19 2.310558 1_455
S28 V2 2.454656 1_555
S29 V14 2.270257 1_555
S29 V18 2.310444 1_555
S29 V19 2.310558 1_455
S29 V3 2.454656 1_555
S30 V9 2.248286 1_555
S30 V17 2.419104 1_555
S30 V16 2.491752 1_555
S30 V4 2.537658 1_555
S31 V11 2.270257 1_555
S31 V16 2.310444 1_555
S31 V17 2.310558 1_655
S31 V6 2.454656 1_555
