# generated using pymatgen
data_CaIn2Ir
_symmetry_space_group_name_H-M   'P 1'
_cell_length_a   5.74836840
_cell_length_b   7.84807057
_cell_length_c   15.97460168
_cell_angle_alpha   90.00000000
_cell_angle_beta   90.00000000
_cell_angle_gamma   90.00000000
_symmetry_Int_Tables_number   1
_chemical_formula_structural   CaIn2Ir
_chemical_formula_sum   'Ca8 In16 Ir8'
_cell_volume   720.67180418
_cell_formula_units_Z   8
loop_
 _symmetry_equiv_pos_site_id
 _symmetry_equiv_pos_as_xyz
  1  'x, y, z'
loop_
 _atom_site_type_symbol
 _atom_site_label
 _atom_site_symmetry_multiplicity
 _atom_site_fract_x
 _atom_site_fract_y
 _atom_site_fract_z
 _atom_site_occupancy
  Ca  Ca0  1  0.46090896  0.75000000  0.13802379  1
  Ca  Ca1  1  0.96090896  0.25000000  0.36197621  1
  Ca  Ca2  1  0.53909104  0.25000000  0.86197621  1
  Ca  Ca3  1  0.03909104  0.75000000  0.63802379  1
  Ca  Ca4  1  0.74841419  0.75000000  0.39759768  1
  Ca  Ca5  1  0.24841419  0.25000000  0.10240232  1
  Ca  Ca6  1  0.25158581  0.25000000  0.60240232  1
  Ca  Ca7  1  0.75158581  0.75000000  0.89759768  1
  In  In0  1  0.74691945  0.44597423  0.53957577  1
  In  In1  1  0.25308055  0.94597423  0.46042423  1
  In  In2  1  0.75308055  0.05402577  0.03957577  1
  In  In3  1  0.96714159  0.94973720  0.21210185  1
  In  In4  1  0.24691945  0.55402577  0.96042423  1
  In  In5  1  0.74691945  0.05402577  0.53957577  1
  In  In6  1  0.24691945  0.94597423  0.96042423  1
  In  In7  1  0.25308055  0.55402577  0.46042423  1
  In  In8  1  0.03285841  0.05026280  0.78789815  1
  In  In9  1  0.46714159  0.05026280  0.28789815  1
  In  In10  1  0.03285841  0.44973720  0.78789815  1
  In  In11  1  0.53285841  0.55026280  0.71210185  1
  In  In12  1  0.46714159  0.44973720  0.28789815  1
  In  In13  1  0.53285841  0.94973720  0.71210185  1
  In  In14  1  0.96714159  0.55026280  0.21210185  1
  In  In15  1  0.75308055  0.44597423  0.03957577  1
  Ir  Ir0  1  0.23267261  0.75000000  0.31427442  1
  Ir  Ir1  1  0.51925855  0.75000000  0.57034198  1
  Ir  Ir2  1  0.01925855  0.25000000  0.92965802  1
  Ir  Ir3  1  0.48074145  0.25000000  0.42965802  1
  Ir  Ir4  1  0.98074145  0.75000000  0.07034198  1
  Ir  Ir5  1  0.26732739  0.75000000  0.81427442  1
  Ir  Ir6  1  0.76732739  0.25000000  0.68572558  1
  Ir  Ir7  1  0.73267261  0.25000000  0.18572558  1
loop_
_geom_bond_atom_site_label_1
_geom_bond_atom_site_label_2
_geom_bond_distance
_geom_bond_site_symmetry_2
Ca0 Ir4 2.964383 1_455
Ca0 Ir0 3.106210 1_555
Ca0 Ir4 3.177773 1_555
Ca0 In2 3.314681 1_565
Ca0 In15 3.314681 1_555
Ca0 In12 3.359526 1_555
Ca0 In9 3.359526 1_565
Ca0 In14 3.451644 1_455
Ca0 In3 3.451644 1_455
Ca0 In6 3.453645 1_554
Ca0 In4 3.453645 1_554
Ca0 In14 3.510804 1_555
Ca0 In3 3.510804 1_555
Ca1 Ir3 2.964383 1_555
Ca1 Ir7 3.106210 1_555
Ca1 Ir3 3.177773 1_655
Ca1 In1 3.314681 1_645
Ca1 In7 3.314681 1_655
Ca1 In14 3.359526 1_555
Ca1 In3 3.359526 1_545
Ca1 In12 3.451644 1_555
Ca1 In9 3.451644 1_555
Ca1 In5 3.453645 1_555
Ca1 In0 3.453645 1_555
Ca1 In9 3.510804 1_655
Ca1 In12 3.510804 1_655
Ca2 Ir2 2.964383 1_655
Ca2 Ir6 3.106210 1_555
Ca2 Ir2 3.177773 1_555
Ca2 In4 3.314681 1_555
Ca2 In6 3.314681 1_545
Ca2 In11 3.359526 1_555
Ca2 In13 3.359526 1_545
Ca2 In10 3.451644 1_655
Ca2 In8 3.451644 1_655
Ca2 In2 3.453645 1_556
Ca2 In15 3.453645 1_556
Ca2 In10 3.510804 1_555
Ca2 In8 3.510804 1_555
Ca3 Ir1 2.964383 1_555
Ca3 Ir5 3.106210 1_555
Ca3 Ir1 3.177773 1_455
Ca3 In5 3.314681 1_465
Ca3 In0 3.314681 1_455
Ca3 In8 3.359526 1_565
Ca3 In10 3.359526 1_555
Ca3 In11 3.451644 1_555
Ca3 In13 3.451644 1_555
Ca3 In1 3.453645 1_555
Ca3 In7 3.453645 1_555
Ca3 In13 3.510804 1_455
Ca3 In11 3.510804 1_455
Ca4 Ir1 3.057803 1_555
Ca4 Ir0 3.085559 1_655
Ca4 Ir0 3.249768 1_555
Ca4 In0 3.291985 1_555
Ca4 In5 3.291985 1_565
Ca4 In12 3.352339 1_555
Ca4 In9 3.352339 1_565
Ca4 In7 3.388250 1_555
Ca4 In1 3.388250 1_555
Ca4 In7 3.433457 1_655
Ca4 In1 3.433457 1_655
Ca4 In14 3.580331 1_555
Ca4 In3 3.580331 1_555
Ca5 Ir2 3.057803 1_554
Ca5 Ir7 3.085559 1_555
Ca5 Ir7 3.249768 1_455
Ca5 In4 3.291985 1_554
Ca5 In6 3.291985 1_544
Ca5 In14 3.352339 1_455
Ca5 In3 3.352339 1_445
Ca5 In2 3.388250 1_455
Ca5 In15 3.388250 1_455
Ca5 In15 3.433457 1_555
Ca5 In2 3.433457 1_555
Ca5 In12 3.580331 1_555
Ca5 In9 3.580331 1_555
Ca6 Ir3 3.057803 1_555
Ca6 Ir6 3.085559 1_455
Ca6 Ir6 3.249768 1_555
Ca6 In1 3.291985 1_545
Ca6 In7 3.291985 1_555
Ca6 In13 3.352339 1_545
Ca6 In11 3.352339 1_555
Ca6 In5 3.388250 1_555
Ca6 In0 3.388250 1_555
Ca6 In5 3.433457 1_455
Ca6 In0 3.433457 1_455
Ca6 In10 3.580331 1_555
Ca6 In8 3.580331 1_555
Ca7 Ir4 3.057803 1_556
Ca7 Ir5 3.085559 1_555
Ca7 Ir5 3.249768 1_655
Ca7 In15 3.291985 1_556
Ca7 In2 3.291985 1_566
Ca7 In10 3.352339 1_655
Ca7 In8 3.352339 1_665
Ca7 In6 3.388250 1_655
Ca7 In4 3.388250 1_655
Ca7 In4 3.433457 1_555
Ca7 In6 3.433457 1_555
Ca7 In13 3.580331 1_555
Ca7 In11 3.580331 1_555
In0 Ir1 2.765368 1_555
In0 Ir3 2.791028 1_555
In0 Ir6 2.798217 1_555
In0 In5 3.076039 1_555
In0 In11 3.127259 1_555
In0 In7 3.221249 1_555
In0 In7 3.283842 1_655
In1 Ir3 2.765368 1_565
In1 Ir1 2.791028 1_555
In1 Ir0 2.798217 1_555
In1 In7 3.076039 1_555
In1 In9 3.127259 1_565
In1 In5 3.221249 1_565
In1 In5 3.283842 1_465
In2 Ir4 2.765368 1_545
In2 Ir2 2.791028 1_654
In2 Ir7 2.798217 1_555
In2 In3 3.127259 1_545
In2 In6 3.221249 1_644
In2 In6 3.283842 1_544
In3 Ir0 2.729650 1_655
In3 Ir7 2.747208 1_565
In3 Ir4 2.755277 1_555
In3 In9 3.217052 1_665
In3 In9 3.217052 1_565
In4 Ir2 2.765368 1_555
In4 Ir4 2.791028 1_456
In4 Ir5 2.798217 1_555
In4 In6 3.076039 1_555
In5 Ir1 2.765368 1_545
In5 Ir3 2.791028 1_555
In5 Ir6 2.798217 1_555
In6 Ir2 2.765368 1_565
In6 Ir4 2.791028 1_456
In6 Ir5 2.798217 1_555
In6 In8 3.127259 1_565
In7 Ir3 2.765368 1_555
In7 Ir1 2.791028 1_555
In7 Ir0 2.798217 1_555
In8 Ir6 2.729650 1_455
In8 Ir5 2.747208 1_545
In8 Ir2 2.755277 1_555
In9 Ir7 2.729650 1_555
In9 Ir0 2.747208 1_545
In9 Ir3 2.755277 1_555
In10 Ir6 2.729650 1_455
In10 Ir5 2.747208 1_555
In10 Ir2 2.755277 1_555
In10 In4 3.127259 1_555
In10 In8 3.135103 1_555
In10 In11 3.217052 1_455
In10 In11 3.217052 1_555
In11 Ir5 2.729650 1_555
In11 Ir6 2.747208 1_555
In11 Ir1 2.755277 1_555
In11 In13 3.135103 1_555
In12 Ir7 2.729650 1_555
In12 Ir0 2.747208 1_555
In12 Ir3 2.755277 1_555
In12 In7 3.127259 1_555
In12 In9 3.135103 1_555
In12 In14 3.217052 1_455
In12 In14 3.217052 1_555
In13 Ir5 2.729650 1_555
In13 Ir6 2.747208 1_565
In13 Ir1 2.755277 1_555
In13 In5 3.127259 1_565
In13 In8 3.217052 1_665
In13 In8 3.217052 1_565
In14 Ir0 2.729650 1_655
In14 Ir7 2.747208 1_555
In14 Ir4 2.755277 1_555
In14 In15 3.127259 1_555
In14 In3 3.135103 1_555
In15 Ir4 2.765368 1_555
In15 Ir2 2.791028 1_654
In15 Ir7 2.798217 1_555
In15 In2 3.076039 1_555
In15 In4 3.221249 1_654
In15 In4 3.283842 1_554
