# generated using pymatgen
data_Ba2La2MgMn(WO6)2
_symmetry_space_group_name_H-M   'P 1'
_cell_length_a   10.03326024
_cell_length_b   10.33568019
_cell_length_c   10.33568118
_cell_angle_alpha   33.04481152
_cell_angle_beta   33.61835945
_cell_angle_gamma   33.61835722
_symmetry_Int_Tables_number   1
_chemical_formula_structural   Ba2La2MgMn(WO6)2
_chemical_formula_sum   'Ba2 La2 Mg1 Mn1 W2 O12'
_cell_volume   289.59567707
_cell_formula_units_Z   1
loop_
 _symmetry_equiv_pos_site_id
 _symmetry_equiv_pos_as_xyz
  1  'x, y, z'
loop_
 _atom_site_type_symbol
 _atom_site_label
 _atom_site_symmetry_multiplicity
 _atom_site_fract_x
 _atom_site_fract_y
 _atom_site_fract_z
 _atom_site_occupancy
  Ba  Ba0  1  0.15018100  0.12647200  0.12647200  1
  Ba  Ba1  1  0.84981900  0.87352800  0.87352800  1
  La  La0  1  0.30522100  0.27631400  0.27631400  1
  La  La1  1  0.69477900  0.72368600  0.72368600  1
  Mg  Mg0  1  0.50000000  0.50000000  0.50000000  1
  Mn  Mn0  1  0.00000000  0.00000000  0.00000000  1
  W  W0  1  0.45049300  0.38633600  0.38633600  1
  W  W1  1  0.54950700  0.61366400  0.61366400  1
  O  O0  1  0.86036300  0.41337500  0.41337500  1
  O  O1  1  0.70270500  0.36666700  0.84858500  1
  O  O2  1  0.13963700  0.58662500  0.58662500  1
  O  O3  1  0.21288800  0.81063300  0.81063300  1
  O  O4  1  0.29729500  0.15141500  0.63333200  1
  O  O5  1  0.78711200  0.18936700  0.18936700  1
  O  O6  1  0.38243000  0.38376000  0.86379300  1
  O  O7  1  0.29729500  0.63333200  0.15141500  1
  O  O8  1  0.38243000  0.86379300  0.38376000  1
  O  O9  1  0.70270500  0.84858500  0.36666700  1
  O  O10  1  0.61757000  0.61624000  0.13620700  1
  O  O11  1  0.61757000  0.13620700  0.61624000  1
loop_
_geom_bond_atom_site_label_1
_geom_bond_atom_site_label_2
_geom_bond_distance
_geom_bond_site_symmetry_2
Ba0 O5 2.633538 1_455
Ba0 O6 2.748169 1_554
Ba0 O8 2.748170 1_545
Ba0 O10 2.918936 1_545
Ba0 O11 2.918936 1_554
Ba0 O10 3.016081 1_455
Ba0 O11 3.016082 1_455
Ba0 O2 3.069168 1_545
Ba0 O2 3.069168 1_554
Ba1 O3 2.633538 1_655
Ba1 O10 2.748169 1_556
Ba1 O11 2.748170 1_565
Ba1 O6 2.918936 1_565
Ba1 O8 2.918936 1_556
Ba1 O6 3.016081 1_655
Ba1 O8 3.016082 1_655
Ba1 O0 3.069168 1_565
Ba1 O0 3.069168 1_556
La0 O0 2.497659 1_455
La0 O9 2.497703 1_545
La0 O1 2.497704 1_554
La0 O7 2.642979 1_555
La0 O4 2.642980 1_555
La0 O8 2.829515 1_545
La0 O6 2.829515 1_554
La0 O3 2.977600 1_554
La0 O3 2.977600 1_545
La1 O2 2.497659 1_655
La1 O4 2.497706 1_565
La1 O7 2.497706 1_556
La1 O1 2.642989 1_555
La1 O9 2.642990 1_555
La1 O11 2.829515 1_565
La1 O10 2.829515 1_556
La1 O5 2.977600 1_556
La1 O5 2.977600 1_565
Mg0 O8 2.091110 1_555
Mg0 O11 2.091110 1_555
Mg0 O10 2.091110 1_555
Mg0 O6 2.091110 1_555
Mg0 O0 2.288424 1_555
Mg0 O2 2.288424 1_555
Mn0 O7 2.170999 1_545
Mn0 O1 2.170999 1_454
Mn0 O4 2.170999 1_554
Mn0 O9 2.170999 1_445
Mn0 O3 2.172722 1_544
Mn0 O5 2.172722 1_455
O0 W1 1.994074 1_555
O1 W1 2.015928 1_555
O2 W0 1.994074 1_555
O3 W1 1.934213 1_555
O4 W0 2.015932 1_555
O5 W0 1.934213 1_555
O6 W1 2.063376 1_555
O7 W0 2.015932 1_555
O8 W1 2.063376 1_555
O9 W1 2.015928 1_555
O10 W0 2.063376 1_555
O11 W0 2.063376 1_555
