# generated using pymatgen
data_CeIn2Pd
_symmetry_space_group_name_H-M   'P 1'
_cell_length_a   5.80999177
_cell_length_b   5.80999177
_cell_length_c   7.53782000
_cell_angle_alpha   90.00000000
_cell_angle_beta   90.00000000
_cell_angle_gamma   132.56859902
_symmetry_Int_Tables_number   1
_chemical_formula_structural   CeIn2Pd
_chemical_formula_sum   'Ce2 In4 Pd2'
_cell_volume   187.39182572
_cell_formula_units_Z   2
loop_
 _symmetry_equiv_pos_site_id
 _symmetry_equiv_pos_as_xyz
  1  'x, y, z'
loop_
 _atom_site_type_symbol
 _atom_site_label
 _atom_site_symmetry_multiplicity
 _atom_site_fract_x
 _atom_site_fract_y
 _atom_site_fract_z
 _atom_site_occupancy
  Ce  Ce0  1  0.07953000  0.92047000  0.25000000  1
  Ce  Ce1  1  0.92047000  0.07953000  0.75000000  1
  In  In0  1  0.36343800  0.63656200  0.04988300  1
  In  In1  1  0.63656200  0.36343800  0.54988300  1
  In  In2  1  0.63656200  0.36343800  0.95011700  1
  In  In3  1  0.36343800  0.63656200  0.45011700  1
  Pd  Pd0  1  0.79531500  0.20468500  0.25000000  1
  Pd  Pd1  1  0.20468500  0.79531500  0.75000000  1
loop_
_geom_bond_atom_site_label_1
_geom_bond_atom_site_label_2
_geom_bond_distance
_geom_bond_site_symmetry_2
Ce0 Pd0 3.023679 1_465
Ce0 Pd0 3.275761 1_565
Ce0 Pd0 3.275761 1_455
Ce0 In1 3.307316 1_565
Ce0 In2 3.307316 1_564
Ce0 In2 3.307316 1_454
Ce0 In1 3.307316 1_455
Ce0 In3 3.376138 1_555
Ce0 In0 3.376138 1_555
Ce0 In3 3.608466 1_565
Ce0 In3 3.608466 1_455
Ce0 In0 3.608466 1_565
Ce0 In0 3.608466 1_455
Ce1 Pd1 3.023679 1_645
Ce1 Pd1 3.275761 1_655
Ce1 Pd1 3.275761 1_545
Ce1 In0 3.307316 1_656
Ce1 In0 3.307316 1_546
Ce1 In3 3.307316 1_655
Ce1 In3 3.307316 1_545
Ce1 In2 3.376138 1_555
Ce1 In1 3.376138 1_555
Ce1 In1 3.608466 1_545
Ce1 In2 3.608466 1_545
Ce1 In2 3.608466 1_655
Ce1 In1 3.608466 1_655
In0 Pd1 2.821732 1_554
In0 Pd0 2.874223 1_565
In0 Pd0 2.874223 1_455
In0 In2 3.001423 1_554
In0 In3 3.016892 1_555
In1 Pd0 2.821732 1_555
In1 Pd1 2.874223 1_655
In1 Pd1 2.874223 1_545
In1 In3 3.001423 1_555
In1 In2 3.016892 1_555
In2 Pd0 2.821732 1_556
In2 Pd1 2.874223 1_655
In2 Pd1 2.874223 1_545
In3 Pd1 2.821732 1_555
In3 Pd0 2.874223 1_565
In3 Pd0 2.874223 1_455
