# generated using pymatgen
data_CaC2
_symmetry_space_group_name_H-M   'P 1'
_cell_length_a   3.86859725
_cell_length_b   3.86859715
_cell_length_c   4.21147648
_cell_angle_alpha   117.34143411
_cell_angle_beta   117.34144362
_cell_angle_gamma   90.00000369
_symmetry_Int_Tables_number   1
_chemical_formula_structural   CaC2
_chemical_formula_sum   'Ca1 C2'
_cell_volume   47.92293867
_cell_formula_units_Z   1
loop_
 _symmetry_equiv_pos_site_id
 _symmetry_equiv_pos_as_xyz
  1  'x, y, z'
loop_
 _atom_site_type_symbol
 _atom_site_label
 _atom_site_symmetry_multiplicity
 _atom_site_fract_x
 _atom_site_fract_y
 _atom_site_fract_z
 _atom_site_occupancy
  Ca  Ca0  1  0.00000000  0.00000000  -0.00000000  1
  C  C0  1  0.59789322  0.59789322  0.19578543  1
  C  C1  1  0.40210678  0.40210678  0.80421457  1
loop_
_geom_bond_atom_site_label_1
_geom_bond_atom_site_label_2
_geom_bond_distance
_geom_bond_site_symmetry_2
C0 C1 1.253853 1_554
C0 Ca0 2.575185 1_666
C0 Ca0 2.806429 1_665
C0 Ca0 2.806432 1_565
C0 Ca0 2.806432 1_655
C0 Ca0 2.806435 1_555
C1 Ca0 2.575185 1_555
C1 Ca0 2.806429 1_556
C1 Ca0 2.806432 1_656
C1 Ca0 2.806432 1_566
C1 Ca0 2.806435 1_666
