# generated using pymatgen
data_Li2CuPO4
_symmetry_space_group_name_H-M   'P 1'
_cell_length_a   5.20837100
_cell_length_b   6.22843600
_cell_length_c   10.61615800
_cell_angle_alpha   90.00000000
_cell_angle_beta   90.00000000
_cell_angle_gamma   90.00000000
_symmetry_Int_Tables_number   1
_chemical_formula_structural   Li2CuPO4
_chemical_formula_sum   'Li8 Cu4 P4 O16'
_cell_volume   344.38822325
_cell_formula_units_Z   4
loop_
 _symmetry_equiv_pos_site_id
 _symmetry_equiv_pos_as_xyz
  1  'x, y, z'
loop_
 _atom_site_type_symbol
 _atom_site_label
 _atom_site_symmetry_multiplicity
 _atom_site_fract_x
 _atom_site_fract_y
 _atom_site_fract_z
 _atom_site_occupancy
  Li  Li0  1  0.80590600  0.00207400  0.33870800  1
  Li  Li1  1  0.69409400  0.00207400  0.83870800  1
  Li  Li2  1  0.80590600  0.49792600  0.33870800  1
  Li  Li3  1  0.69409400  0.49792600  0.83870800  1
  Li  Li4  1  0.19409400  0.99792600  0.66129200  1
  Li  Li5  1  0.30590600  0.99792600  0.16129200  1
  Li  Li6  1  0.19409400  0.50207400  0.66129200  1
  Li  Li7  1  0.30590600  0.50207400  0.16129200  1
  Cu  Cu0  1  0.24652100  0.75000000  0.39248800  1
  Cu  Cu1  1  0.25347900  0.75000000  0.89248800  1
  Cu  Cu2  1  0.74652100  0.25000000  0.10751200  1
  Cu  Cu3  1  0.75347900  0.25000000  0.60751200  1
  P  P0  1  0.18609300  0.25000000  0.91259700  1
  P  P1  1  0.31390700  0.25000000  0.41259700  1
  P  P2  1  0.68609300  0.75000000  0.58740300  1
  P  P3  1  0.81390700  0.75000000  0.08740300  1
  O  O0  1  0.76246000  0.75000000  0.44711800  1
  O  O1  1  0.11071600  0.75000000  0.10121400  1
  O  O2  1  0.80219400  0.95032400  0.65755800  1
  O  O3  1  0.61071600  0.25000000  0.39878600  1
  O  O4  1  0.30219400  0.04967600  0.84244200  1
  O  O5  1  0.38928400  0.75000000  0.60121400  1
  O  O6  1  0.88928400  0.25000000  0.89878600  1
  O  O7  1  0.23754000  0.25000000  0.55288200  1
  O  O8  1  0.19780600  0.04967600  0.34244200  1
  O  O9  1  0.26246000  0.25000000  0.05288200  1
  O  O10  1  0.30219400  0.45032400  0.84244200  1
  O  O11  1  0.19780600  0.45032400  0.34244200  1
  O  O12  1  0.80219400  0.54967600  0.65755800  1
  O  O13  1  0.69780600  0.54967600  0.15755800  1
  O  O14  1  0.73754000  0.75000000  0.94711800  1
  O  O15  1  0.69780600  0.95032400  0.15755800  1
loop_
_geom_bond_atom_site_label_1
_geom_bond_atom_site_label_2
_geom_bond_distance
_geom_bond_site_symmetry_2
Li0 O3 1.955718 1_555
Li0 O0 1.959784 1_545
Li0 O15 2.029598 1_545
Li0 O8 2.062962 1_655
Li1 O6 1.955718 1_555
Li1 O14 1.959784 1_545
Li1 O2 2.029598 1_545
Li1 O4 2.062962 1_555
Li2 O3 1.955718 1_555
Li2 O0 1.959784 1_555
Li2 O13 2.029598 1_555
Li2 O11 2.062962 1_655
Li3 O6 1.955718 1_555
Li3 O14 1.959784 1_555
Li3 O12 2.029598 1_555
Li3 O10 2.062962 1_555
Li4 O5 1.955718 1_555
Li4 O7 1.959784 1_565
Li4 O4 2.029598 1_565
Li4 O2 2.062962 1_455
Li5 O1 1.955718 1_555
Li5 O9 1.959784 1_565
Li5 O8 2.029598 1_565
Li5 O15 2.062962 1_555
Li6 O5 1.955718 1_555
Li6 O7 1.959784 1_555
Li6 O10 2.029598 1_555
Li6 O12 2.062962 1_455
Li7 O1 1.955718 1_555
Li7 O9 1.959784 1_555
Li7 O11 2.029598 1_555
Li7 O13 2.062962 1_555
Cu0 O11 1.957172 1_555
Cu0 O8 1.957172 1_565
Cu0 O5 2.337297 1_555
Cu1 O10 1.957172 1_555
Cu1 O4 1.957172 1_565
Cu1 O1 2.337297 1_556
Cu2 O13 1.957172 1_555
Cu2 O15 1.957172 1_545
Cu2 O6 2.337297 1_554
Cu3 O12 1.957172 1_555
Cu3 O2 1.957172 1_545
Cu3 O3 2.337297 1_555
O0 P2 1.541487 1_555
O1 P3 1.552829 1_455
O2 P2 1.573887 1_555
O3 P1 1.552829 1_555
O4 P0 1.573887 1_555
O5 P2 1.552829 1_555
O6 P0 1.552829 1_655
O7 P1 1.541487 1_555
O8 P1 1.573887 1_555
O9 P0 1.541487 1_554
O10 P0 1.573887 1_555
O11 P1 1.573887 1_555
O12 P2 1.573887 1_555
O13 P3 1.573887 1_555
O14 P3 1.541487 1_556
O15 P3 1.573887 1_555
