# generated using pymatgen
data_Tm4MgTi2O10
_symmetry_space_group_name_H-M   'P 1'
_cell_length_a   5.49280371
_cell_length_b   5.73605713
_cell_length_c   8.48395395
_cell_angle_alpha   71.56873898
_cell_angle_beta   100.99652491
_cell_angle_gamma   78.44416048
_symmetry_Int_Tables_number   1
_chemical_formula_structural   Tm4MgTi2O10
_chemical_formula_sum   'Tm4 Mg1 Ti2 O10'
_cell_volume   238.98877110
_cell_formula_units_Z   1
loop_
 _symmetry_equiv_pos_site_id
 _symmetry_equiv_pos_as_xyz
  1  'x, y, z'
loop_
 _atom_site_type_symbol
 _atom_site_label
 _atom_site_symmetry_multiplicity
 _atom_site_fract_x
 _atom_site_fract_y
 _atom_site_fract_z
 _atom_site_occupancy
  Tm  Tm0  1  0.66931149  0.78167062  0.71577981  1
  Tm  Tm1  1  0.72437075  0.58494365  0.37411101  1
  Tm  Tm2  1  0.33551697  0.38186460  0.62456468  1
  Tm  Tm3  1  0.38274653  0.20874459  0.26735654  1
  Mg  Mg0  1  0.35139690  0.87141069  0.96967274  1
  Ti  Ti0  1  0.03077633  0.98687025  0.49851856  1
  Ti  Ti1  1  0.82250454  0.11940272  0.02986563  1
  O  O0  1  0.72506719  0.88062693  0.94911757  1
  O  O1  1  0.40699634  0.77515370  0.47716656  1
  O  O2  1  0.97079334  0.63241749  0.60923278  1
  O  O3  1  0.60035403  0.41647484  0.84264318  1
  O  O4  1  0.45217778  0.56329546  0.16871528  1
  O  O5  1  0.08909715  0.34217463  0.38463899  1
  O  O6  1  0.65642430  0.19235914  0.52505317  1
  O  O7  1  0.26023527  0.99402904  0.71463480  1
  O  O8  1  0.16420668  0.13518546  0.04918812  1
  O  O9  1  0.78302440  0.98754319  0.26402559  1
loop_
_geom_bond_atom_site_label_1
_geom_bond_atom_site_label_2
_geom_bond_distance
_geom_bond_site_symmetry_2
Mg0 O4 1.909405 1_556
Mg0 O7 1.977474 1_555
Mg0 O8 2.021953 1_566
Mg0 O0 2.102414 1_555
O0 Ti1 1.838141 1_566
O0 Tm0 2.209932 1_555
O1 Ti0 2.248226 1_555
O1 Tm0 2.265442 1_555
O1 Tm1 2.327335 1_555
O1 Tm2 2.359125 1_555
O1 Tm3 2.519784 1_565
O2 Ti0 2.074471 1_655
O2 Tm2 2.173636 1_655
O2 Tm0 2.187406 1_555
O2 Tm1 2.312236 1_555
O3 Ti1 1.905686 1_556
O3 Tm0 2.176639 1_555
O3 Tm2 2.213564 1_555
O4 Tm3 2.082816 1_555
O4 Tm1 2.122399 1_555
O5 Ti0 2.079482 1_545
O5 Tm1 2.167027 1_455
O5 Tm3 2.185569 1_555
O5 Tm2 2.322204 1_555
O6 Ti0 2.245324 1_645
O6 Tm2 2.319864 1_555
O6 Tm1 2.354943 1_555
O6 Tm3 2.368145 1_555
O6 Tm0 2.377377 1_545
O7 Ti0 2.034393 1_555
O7 Tm2 2.262328 1_565
O7 Tm0 2.328168 1_555
O8 Ti1 1.875610 1_455
O8 Tm3 2.212252 1_555
O9 Ti1 1.961027 1_565
O9 Ti0 2.184023 1_655
O9 Tm1 2.314766 1_555
O9 Tm3 2.318073 1_565
