# generated using pymatgen
data_KBiO3
_symmetry_space_group_name_H-M   'P 1'
_cell_length_a   10.06653795
_cell_length_b   10.06653795
_cell_length_c   10.06653795
_cell_angle_alpha   90.00000000
_cell_angle_beta   90.00000000
_cell_angle_gamma   90.00000000
_symmetry_Int_Tables_number   1
_chemical_formula_structural   KBiO3
_chemical_formula_sum   'K12 Bi12 O36'
_cell_volume   1020.09449855
_cell_formula_units_Z   12
loop_
 _symmetry_equiv_pos_site_id
 _symmetry_equiv_pos_as_xyz
  1  'x, y, z'
loop_
 _atom_site_type_symbol
 _atom_site_label
 _atom_site_symmetry_multiplicity
 _atom_site_fract_x
 _atom_site_fract_y
 _atom_site_fract_z
 _atom_site_occupancy
  K  K0  1  0.75000000  0.75000000  0.75000000  1
  K  K1  1  0.25000000  0.25000000  0.75000000  1
  K  K2  1  0.75000000  0.25000000  0.25000000  1
  K  K3  1  0.25000000  0.75000000  0.25000000  1
  K  K4  1  0.15560686  0.15560686  0.15560686  1
  K  K5  1  0.84439314  0.84439314  0.15560686  1
  K  K6  1  0.15560686  0.84439314  0.84439314  1
  K  K7  1  0.84439314  0.15560686  0.84439314  1
  K  K8  1  0.34439314  0.34439314  0.34439314  1
  K  K9  1  0.65560686  0.65560686  0.34439314  1
  K  K10  1  0.34439314  0.65560686  0.65560686  1
  K  K11  1  0.65560686  0.34439314  0.65560686  1
  Bi  Bi0  1  0.34000346  0.50000000  -0.00000000  1
  Bi  Bi1  1  0.00000000  0.34000346  0.50000000  1
  Bi  Bi2  1  0.50000000  0.00000000  0.34000346  1
  Bi  Bi3  1  0.00000000  0.65999654  0.50000000  1
  Bi  Bi4  1  0.50000000  0.00000000  0.65999654  1
  Bi  Bi5  1  0.65999654  0.50000000  -0.00000000  1
  Bi  Bi6  1  0.15999654  0.00000000  0.50000000  1
  Bi  Bi7  1  0.50000000  0.15999654  -0.00000000  1
  Bi  Bi8  1  0.00000000  0.50000000  0.15999654  1
  Bi  Bi9  1  0.50000000  0.84000346  -0.00000000  1
  Bi  Bi10  1  0.00000000  0.50000000  0.84000346  1
  Bi  Bi11  1  0.84000346  0.00000000  0.50000000  1
  O  O0  1  0.78741907  0.50296205  0.16545230  1
  O  O1  1  0.78741907  0.49703795  0.83454770  1
  O  O2  1  0.21258093  0.50296205  0.83454770  1
  O  O3  1  0.49703795  0.83454770  0.78741907  1
  O  O4  1  0.83454770  0.21258093  0.50296205  1
  O  O5  1  0.83454770  0.78741907  0.49703795  1
  O  O6  1  0.50296205  0.16545230  0.78741907  1
  O  O7  1  0.16545230  0.78741907  0.50296205  1
  O  O8  1  0.50296205  0.83454770  0.21258093  1
  O  O9  1  0.49703795  0.16545230  0.21258093  1
  O  O10  1  0.16545230  0.21258093  0.49703795  1
  O  O11  1  0.21258093  0.49703795  0.16545230  1
  O  O12  1  0.71258093  0.99703795  0.33454770  1
  O  O13  1  0.71258093  0.00296205  0.66545230  1
  O  O14  1  0.85964243  0.50000000  0.50000000  1
  O  O15  1  0.28741907  0.99703795  0.66545230  1
  O  O16  1  0.66545230  0.28741907  0.99703795  1
  O  O17  1  0.66545230  0.71258093  0.00296205  1
  O  O18  1  0.99703795  0.33454770  0.71258093  1
  O  O19  1  0.33454770  0.71258093  0.99703795  1
  O  O20  1  0.99703795  0.66545230  0.28741907  1
  O  O21  1  0.00296205  0.33454770  0.28741907  1
  O  O22  1  0.33454770  0.28741907  0.00296205  1
  O  O23  1  0.28741907  0.00296205  0.33454770  1
  O  O24  1  0.35964243  0.00000000  -0.00000000  1
  O  O25  1  0.00000000  0.35964243  -0.00000000  1
  O  O26  1  0.00000000  0.00000000  0.35964243  1
  O  O27  1  0.00000000  0.64035757  -0.00000000  1
  O  O28  1  0.00000000  0.00000000  0.64035757  1
  O  O29  1  0.64035757  0.00000000  -0.00000000  1
  O  O30  1  0.14035757  0.50000000  0.50000000  1
  O  O31  1  0.50000000  0.14035757  0.50000000  1
  O  O32  1  0.50000000  0.50000000  0.14035757  1
  O  O33  1  0.50000000  0.85964243  0.50000000  1
  O  O34  1  0.50000000  0.50000000  0.85964243  1
  O  O35  1  0.00296205  0.66545230  0.71258093  1
loop_
_geom_bond_atom_site_label_1
_geom_bond_atom_site_label_2
_geom_bond_distance
_geom_bond_site_symmetry_2
K0 O3 2.711214 1_555
K0 O1 2.711214 1_555
K0 O5 2.711214 1_555
K0 O13 2.711214 1_565
K0 O35 2.711214 1_655
K0 O17 2.711214 1_556
K1 O10 2.711214 1_555
K1 O22 2.711214 1_556
K1 O6 2.711214 1_555
K1 O15 2.711214 1_545
K1 O2 2.711214 1_555
K1 O18 2.711214 1_455
K2 O9 2.711214 1_555
K2 O21 2.711214 1_655
K2 O12 2.711214 1_545
K2 O0 2.711214 1_555
K2 O16 2.711214 1_554
K2 O4 2.711214 1_555
K3 O11 2.711214 1_555
K3 O23 2.711214 1_565
K3 O19 2.711214 1_554
K3 O20 2.711214 1_455
K3 O7 2.711214 1_555
K3 O8 2.711214 1_555
K4 O21 2.714136 1_555
K4 O22 2.714136 1_555
K4 O23 2.714136 1_555
K4 O25 3.020926 1_555
K4 O26 3.020926 1_555
K4 O24 3.020926 1_555
K5 O17 2.714136 1_555
K5 O12 2.714136 1_555
K5 O20 2.714136 1_555
K5 O27 3.020926 1_655
K5 O29 3.020926 1_565
K5 O26 3.020926 1_665
K6 O19 2.714136 1_555
K6 O15 2.714136 1_555
K6 O35 2.714136 1_555
K6 O28 3.020926 1_565
K6 O27 3.020926 1_556
K6 O24 3.020926 1_566
K7 O18 2.714136 1_555
K7 O16 2.714136 1_555
K7 O13 2.714136 1_555
K7 O28 3.020926 1_655
K7 O29 3.020926 1_556
K7 O25 3.020926 1_656
K8 O9 2.714136 1_555
K8 O10 2.714136 1_555
K8 O11 2.714136 1_555
K8 O32 3.020926 1_555
K8 O31 3.020926 1_555
K8 O30 3.020926 1_555
K9 O0 2.714136 1_555
K9 O8 2.714136 1_555
K9 O5 2.714136 1_555
K9 O33 3.020926 1_555
K9 O32 3.020926 1_555
K9 O14 3.020926 1_555
K10 O7 2.714136 1_555
K10 O2 2.714136 1_555
K10 O3 2.714136 1_555
K10 O34 3.020926 1_555
K10 O33 3.020926 1_555
K10 O30 3.020926 1_555
K11 O4 2.714136 1_555
K11 O6 2.714136 1_555
K11 O1 2.714136 1_555
K11 O34 3.020926 1_555
K11 O31 3.020926 1_555
K11 O14 3.020926 1_555
Bi0 O2 2.102431 1_554
Bi0 O11 2.102431 1_555
Bi0 O22 2.140866 1_555
Bi0 O19 2.140866 1_554
Bi0 O32 2.142521 1_555
Bi0 O34 2.142521 1_554
Bi1 O4 2.102431 1_455
Bi1 O10 2.102431 1_555
Bi1 O18 2.140866 1_455
Bi1 O21 2.140866 1_555
Bi1 O30 2.142521 1_555
Bi1 O14 2.142521 1_455
Bi2 O9 2.102431 1_555
Bi2 O8 2.102431 1_545
Bi2 O12 2.140866 1_545
Bi2 O23 2.140866 1_555
Bi2 O31 2.142521 1_555
Bi2 O33 2.142521 1_545
Bi3 O7 2.102431 1_555
Bi3 O5 2.102431 1_455
Bi3 O35 2.140866 1_555
Bi3 O20 2.140866 1_455
Bi3 O30 2.142521 1_555
Bi3 O14 2.142521 1_455
Bi4 O3 2.102431 1_545
Bi4 O6 2.102431 1_555
Bi4 O13 2.140866 1_555
Bi4 O15 2.140866 1_545
Bi4 O31 2.142521 1_555
Bi4 O33 2.142521 1_545
Bi5 O0 2.102431 1_555
Bi5 O1 2.102431 1_554
Bi5 O16 2.140866 1_554
Bi5 O17 2.140866 1_555
Bi5 O32 2.142521 1_555
Bi5 O34 2.142521 1_554
Bi6 O23 2.102431 1_555
Bi6 O15 2.102431 1_545
Bi6 O7 2.140866 1_545
Bi6 O10 2.140866 1_555
Bi6 O26 2.142521 1_555
Bi6 O28 2.142521 1_555
Bi7 O16 2.102431 1_554
Bi7 O22 2.102431 1_555
Bi7 O6 2.140866 1_554
Bi7 O9 2.140866 1_555
Bi7 O24 2.142521 1_555
Bi7 O29 2.142521 1_555
Bi8 O21 2.102431 1_555
Bi8 O20 2.102431 1_455
Bi8 O11 2.140866 1_555
Bi8 O0 2.140866 1_455
Bi8 O27 2.142521 1_555
Bi8 O25 2.142521 1_555
Bi9 O17 2.102431 1_555
Bi9 O19 2.102431 1_554
Bi9 O8 2.140866 1_555
Bi9 O3 2.140866 1_554
Bi9 O24 2.142521 1_565
Bi9 O29 2.142521 1_565
Bi10 O18 2.102431 1_455
Bi10 O35 2.102431 1_555
Bi10 O1 2.140866 1_455
Bi10 O2 2.140866 1_555
Bi10 O25 2.142521 1_556
Bi10 O27 2.142521 1_556
Bi11 O12 2.102431 1_545
Bi11 O13 2.102431 1_555
Bi11 O5 2.140866 1_545
Bi11 O4 2.140866 1_555
Bi11 O26 2.142521 1_655
Bi11 O28 2.142521 1_655
