# generated using pymatgen
data_Rb2FeF5
_symmetry_space_group_name_H-M   'P 1'
_cell_length_a   5.80021455
_cell_length_b   7.50615804
_cell_length_c   11.97165432
_cell_angle_alpha   90.00000000
_cell_angle_beta   90.00000000
_cell_angle_gamma   90.00000000
_symmetry_Int_Tables_number   1
_chemical_formula_structural   Rb2FeF5
_chemical_formula_sum   'Rb8 Fe4 F20'
_cell_volume   521.21382980
_cell_formula_units_Z   4
loop_
 _symmetry_equiv_pos_site_id
 _symmetry_equiv_pos_as_xyz
  1  'x, y, z'
loop_
 _atom_site_type_symbol
 _atom_site_label
 _atom_site_symmetry_multiplicity
 _atom_site_fract_x
 _atom_site_fract_y
 _atom_site_fract_z
 _atom_site_occupancy
  Rb  Rb0  1  0.25000000  0.48355421  0.27702012  1
  Rb  Rb1  1  0.75000000  0.51644579  0.72297988  1
  Rb  Rb2  1  0.25000000  0.98355421  0.22297988  1
  Rb  Rb3  1  0.75000000  0.01644579  0.77702012  1
  Rb  Rb4  1  0.25000000  0.15696387  0.58546905  1
  Rb  Rb5  1  0.75000000  0.84303613  0.41453095  1
  Rb  Rb6  1  0.25000000  0.65696387  0.91453095  1
  Rb  Rb7  1  0.75000000  0.34303613  0.08546905  1
  Fe  Fe0  1  0.25000000  0.66522111  0.56362187  1
  Fe  Fe1  1  0.75000000  0.33477889  0.43637813  1
  Fe  Fe2  1  0.25000000  0.16522111  0.93637813  1
  Fe  Fe3  1  0.75000000  0.83477889  0.06362187  1
  F  F0  1  0.51046906  0.18678417  0.38223337  1
  F  F1  1  0.01046906  0.81321583  0.61776663  1
  F  F2  1  0.98953094  0.68678417  0.11776663  1
  F  F3  1  0.48953094  0.31321583  0.88223337  1
  F  F4  1  0.48953094  0.81321583  0.61776663  1
  F  F5  1  0.98953094  0.18678417  0.38223337  1
  F  F6  1  0.01046906  0.31321583  0.88223337  1
  F  F7  1  0.51046906  0.68678417  0.11776663  1
  F  F8  1  0.25000000  0.78145189  0.41966005  1
  F  F9  1  0.75000000  0.21854811  0.58033995  1
  F  F10  1  0.25000000  0.28145189  0.08033995  1
  F  F11  1  0.75000000  0.71854811  0.91966005  1
  F  F12  1  0.50000000  0.50000000  0.50000000  1
  F  F13  1  -0.00000000  0.50000000  0.50000000  1
  F  F14  1  -0.00000000  -0.00000000  -0.00000000  1
  F  F15  1  0.50000000  -0.00000000  -0.00000000  1
  F  F16  1  0.75000000  0.98400258  0.19137742  1
  F  F17  1  0.25000000  0.01599742  0.80862258  1
  F  F18  1  0.75000000  0.48400258  0.30862258  1
  F  F19  1  0.25000000  0.51599742  0.69137742  1
loop_
_geom_bond_atom_site_label_1
_geom_bond_atom_site_label_2
_geom_bond_distance
_geom_bond_site_symmetry_2
F0 Fe1 1.893262 1_555
F0 Rb2 2.871301 1_545
F0 Rb4 2.872693 1_555
F0 Rb5 2.955895 1_545
F0 Rb0 2.971732 1_555
F1 Fe0 1.893262 1_555
F1 Rb3 2.871301 1_465
F1 Rb5 2.872693 1_455
F1 Rb4 2.955895 1_565
F1 Rb1 2.971732 1_455
F2 Fe3 1.893262 1_555
F2 Rb0 2.871301 1_655
F2 Rb6 2.872693 1_654
F2 Rb7 2.955895 1_555
F2 Rb2 2.971732 1_655
F3 Fe2 1.893262 1_555
F3 Rb1 2.871301 1_555
F3 Rb7 2.872693 1_556
F3 Rb6 2.955895 1_555
F3 Rb3 2.971732 1_555
F4 Fe0 1.893262 1_555
F4 Rb3 2.871301 1_565
F4 Rb5 2.872693 1_555
F4 Rb4 2.955895 1_565
F4 Rb1 2.971732 1_555
F5 Fe1 1.893262 1_555
F5 Rb2 2.871301 1_645
F5 Rb4 2.872693 1_655
F5 Rb5 2.955895 1_545
F5 Rb0 2.971732 1_655
F6 Fe2 1.893262 1_555
F6 Rb1 2.871301 1_455
F6 Rb7 2.872693 1_456
F6 Rb6 2.955895 1_555
F6 Rb3 2.971732 1_455
F7 Fe3 1.893262 1_555
F7 Rb0 2.871301 1_555
F7 Rb6 2.872693 1_554
F7 Rb7 2.955895 1_555
F7 Rb2 2.971732 1_555
F8 Fe0 1.931704 1_555
F8 Rb2 2.800965 1_555
F8 Rb0 2.813542 1_555
F8 Rb5 2.937359 1_555
F8 Rb5 2.937359 1_455
F9 Fe1 1.931704 1_555
F9 Rb3 2.800965 1_555
F9 Rb1 2.813542 1_555
F9 Rb4 2.937359 1_655
F9 Rb4 2.937359 1_555
F10 Fe2 1.931704 1_554
F10 Rb0 2.800965 1_555
F10 Rb2 2.813542 1_545
F10 Rb7 2.937359 1_555
F10 Rb7 2.937359 1_455
F11 Fe3 1.931704 1_556
F11 Rb1 2.800965 1_555
F11 Rb3 2.813542 1_565
F11 Rb6 2.937359 1_655
F11 Rb6 2.937359 1_555
F12 Fe0 2.054462 1_555
F12 Fe1 2.054462 1_555
F12 Rb0 3.040361 1_555
F12 Rb1 3.040361 1_555
F12 Rb5 3.127240 1_555
F12 Rb4 3.127240 1_555
F13 Fe0 2.054462 1_555
F13 Fe1 2.054462 1_455
F13 Rb0 3.040361 1_555
F13 Rb1 3.040361 1_455
F13 Rb5 3.127240 1_455
F13 Rb4 3.127240 1_555
F14 Fe3 2.054462 1_445
F14 Fe2 2.054462 1_554
F14 Rb2 3.040361 1_545
F14 Rb3 3.040361 1_454
F14 Rb7 3.127240 1_455
F14 Rb6 3.127240 1_544
F15 Fe3 2.054462 1_545
F15 Fe2 2.054462 1_554
F15 Rb2 3.040361 1_545
F15 Rb3 3.040361 1_554
F15 Rb7 3.127240 1_555
F15 Rb6 3.127240 1_544
F16 Fe3 1.895737 1_555
F16 Rb5 2.873432 1_555
F16 Rb2 2.924683 1_655
F16 Rb2 2.924683 1_555
F16 Rb7 2.978320 1_565
F17 Fe2 1.895737 1_555
F17 Rb4 2.873432 1_555
F17 Rb3 2.924683 1_555
F17 Rb3 2.924683 1_455
F17 Rb6 2.978320 1_545
F18 Fe1 1.895737 1_555
F18 Rb7 2.873432 1_555
F18 Rb0 2.924683 1_655
F18 Rb0 2.924683 1_555
F18 Rb5 2.978320 1_555
F19 Fe0 1.895737 1_555
F19 Rb6 2.873432 1_555
F19 Rb1 2.924683 1_455
F19 Rb1 2.924683 1_555
F19 Rb4 2.978320 1_555
