# generated using pymatgen
data_Na2Sm2MgTi3O10
_symmetry_space_group_name_H-M   'P 1'
_cell_length_a   3.82107506
_cell_length_b   3.82107500
_cell_length_c   17.44475661
_cell_angle_alpha   96.25949315
_cell_angle_beta   96.25949338
_cell_angle_gamma   89.89103766
_symmetry_Int_Tables_number   1
_chemical_formula_structural   Na2Sm2MgTi3O10
_chemical_formula_sum   'Na2 Sm2 Mg1 Ti3 O10'
_cell_volume   251.66341751
_cell_formula_units_Z   1
loop_
 _symmetry_equiv_pos_site_id
 _symmetry_equiv_pos_as_xyz
  1  'x, y, z'
loop_
 _atom_site_type_symbol
 _atom_site_label
 _atom_site_symmetry_multiplicity
 _atom_site_fract_x
 _atom_site_fract_y
 _atom_site_fract_z
 _atom_site_occupancy
  Na  Na0  1  0.73026189  0.73026189  0.47397891  1
  Na  Na1  1  0.29393714  0.29393714  0.59594638  1
  Sm  Sm0  1  0.49638889  0.49638889  0.06554077  1
  Sm  Sm1  1  0.41278395  0.41278395  0.82331581  1
  Mg  Mg0  1  0.64485413  0.64485413  0.27231101  1
  Ti  Ti0  1  0.85796589  0.85796589  0.70970118  1
  Ti  Ti1  1  0.18698645  0.18698645  0.35888130  1
  Ti  Ti2  1  0.96828139  0.96828139  0.96072346  1
  O  O0  1  0.87144838  0.37267150  0.73825759  1
  O  O1  1  0.37267150  0.87144838  0.73825759  1
  O  O2  1  0.17082610  0.67057588  0.32532170  1
  O  O3  1  0.67057588  0.17082610  0.32532170  1
  O  O4  1  0.80863136  0.80863136  0.60658580  1
  O  O5  1  0.23994733  0.23994733  0.46122405  1
  O  O6  1  0.96574822  0.47811661  0.96893905  1
  O  O7  1  0.06523330  0.06523330  0.07892915  1
  O  O8  1  0.93200958  0.93200958  0.84925450  1
  O  O9  1  0.47811661  0.96574822  0.96893905  1
loop_
_geom_bond_atom_site_label_1
_geom_bond_atom_site_label_2
_geom_bond_distance
_geom_bond_site_symmetry_2
Na0 O4 2.286680 1_555
Na0 O5 2.627027 1_555
Na0 O5 2.709662 1_565
Na0 O5 2.709662 1_655
Na0 O5 2.799786 1_665
Na1 O5 2.323200 1_555
Na1 O4 2.659917 1_445
Na1 O4 2.706038 1_455
Na1 O4 2.706038 1_545
Na1 O4 2.761461 1_555
Mg0 O3 2.116529 1_565
Mg0 O2 2.116529 1_655
Mg0 O3 2.119055 1_555
Mg0 O2 2.119055 1_555
O0 Ti0 1.971014 1_555
O0 Ti0 1.974837 1_545
O0 Sm1 2.405444 1_655
O0 Sm1 2.411069 1_555
O1 Ti0 1.971014 1_555
O1 Ti0 1.974837 1_455
O1 Sm1 2.405444 1_565
O1 Sm1 2.411069 1_555
O2 Ti1 1.995222 1_565
O2 Ti1 1.997152 1_555
O3 Ti1 1.995222 1_655
O3 Ti1 1.997152 1_555
O4 Ti0 1.777381 1_555
O5 Ti1 1.764071 1_555
O6 Ti2 1.894071 1_555
O6 Ti2 1.937820 1_545
O6 Sm0 2.487119 1_656
O6 Sm0 2.587308 1_556
O6 Sm1 3.110213 1_555
O6 Sm1 3.199984 1_655
O7 Ti2 2.047919 1_444
O7 Sm0 2.379296 1_555
O7 Sm0 2.729989 1_545
O7 Sm0 2.729989 1_455
O7 Sm0 3.049617 1_445
O8 Ti2 1.924116 1_555
O8 Ti0 2.405549 1_555
O8 Sm1 2.707363 1_665
O8 Sm1 2.736328 1_565
O8 Sm1 2.736328 1_655
O8 Sm1 2.775014 1_555
O9 Ti2 1.894071 1_555
O9 Ti2 1.937820 1_455
O9 Sm0 2.487119 1_566
O9 Sm0 2.587308 1_556
O9 Sm1 3.110213 1_555
O9 Sm1 3.199984 1_565
