# generated using pymatgen
data_Na4LaAlSi2SO12
_symmetry_space_group_name_H-M   'P 1'
_cell_length_a   9.29012599
_cell_length_b   9.23745969
_cell_length_c   22.45405300
_cell_angle_alpha   89.94147313
_cell_angle_beta   90.17185052
_cell_angle_gamma   119.54189628
_symmetry_Int_Tables_number   1
_chemical_formula_structural   Na4LaAlSi2SO12
_chemical_formula_sum   'Na24 La6 Al6 Si12 S6 O72'
_cell_volume   1676.42389018
_cell_formula_units_Z   6
loop_
 _symmetry_equiv_pos_site_id
 _symmetry_equiv_pos_as_xyz
  1  'x, y, z'
loop_
 _atom_site_type_symbol
 _atom_site_label
 _atom_site_symmetry_multiplicity
 _atom_site_fract_x
 _atom_site_fract_y
 _atom_site_fract_z
 _atom_site_occupancy
  Na  Na0  1  0.64741219  0.00037412  0.25737852  1
  Na  Na1  1  0.35234962  0.37109419  0.24731269  1
  Na  Na2  1  0.99493632  0.62935470  0.26257560  1
  Na  Na3  1  0.62529167  0.62500282  0.72324894  1
  Na  Na4  1  0.99063371  0.34931765  0.74728169  1
  Na  Na5  1  0.38923996  0.02314104  0.74535784  1
  Na  Na6  1  0.31232122  0.33388674  0.59239289  1
  Na  Na7  1  0.04221982  0.72127236  0.57536836  1
  Na  Na8  1  0.66562307  0.94509124  0.59081466  1
  Na  Na9  1  0.28323886  0.97212043  0.07933071  1
  Na  Na10  1  0.67332390  0.68852558  0.09830726  1
  Na  Na11  1  0.04943896  0.33847140  0.09631947  1
  Na  Na12  1  0.98982549  0.66999669  0.92565992  1
  Na  Na13  1  0.68769622  0.04100369  0.90053794  1
  Na  Na14  1  0.31662898  0.28922027  0.92348219  1
  Na  Na15  1  0.95473570  0.30665884  0.40674560  1
  Na  Na16  1  0.32800508  0.01949589  0.41808138  1
  Na  Na17  1  0.70160844  0.66609116  0.42441728  1
  Na  Na18  1  0.99197430  0.97528837  0.49971278  1
  Na  Na19  1  0.02038894  0.01199073  0.00239837  1
  Na  Na20  1  0.65414953  0.30955547  0.82900960  1
  Na  Na21  1  0.67563081  0.34017518  0.33662217  1
  Na  Na22  1  0.32307117  0.64704752  0.17699489  1
  Na  Na23  1  0.35180532  0.67863176  0.65932862  1
  La  La0  1  0.01204372  0.02125397  0.83695951  1
  La  La1  1  0.99697897  0.99941361  0.17322803  1
  La  La2  1  0.66809357  0.33243665  0.99123245  1
  La  La3  1  0.32248046  0.65503412  0.02209365  1
  La  La4  1  0.34193085  0.68491391  0.50858140  1
  La  La5  1  0.33511643  0.66311593  0.80940417  1
  Al  Al0  1  0.94469920  0.97276637  0.34730619  1
  Al  Al1  1  0.00228944  0.99327391  0.64579022  1
  Al  Al2  1  0.63948922  0.31558977  0.67802031  1
  Al  Al3  1  0.68803039  0.37890125  0.19037816  1
  Al  Al4  1  0.66235925  0.32885991  0.48444460  1
  Al  Al5  1  0.32586460  0.67137662  0.32323896  1
  Si  Si0  1  0.66866567  0.68841648  0.25416176  1
  Si  Si1  1  0.00153267  0.31352300  0.25488060  1
  Si  Si2  1  0.30758815  0.29499697  0.73780380  1
  Si  Si3  1  0.70846715  0.01778334  0.73558558  1
  Si  Si4  1  0.36980705  0.05294154  0.58077898  1
  Si  Si5  1  0.68187486  0.61822001  0.58232722  1
  Si  Si6  1  0.96926956  0.64035075  0.09144703  1
  Si  Si7  1  0.37663059  0.33178192  0.09563775  1
  Si  Si8  1  0.01498472  0.34829391  0.91336287  1
  Si  Si9  1  0.33186648  0.97868211  0.91600028  1
  Si  Si10  1  0.63619135  0.97678453  0.41737780  1
  Si  Si11  1  0.02587197  0.67998275  0.41415543  1
  S  S0  1  0.31492508  0.99087453  0.25586792  1
  S  S1  1  0.98786560  0.69032787  0.73991812  1
  S  S2  1  0.94141242  0.32110770  0.58022661  1
  S  S3  1  0.66942751  0.03236615  0.09324478  1
  S  S4  1  0.65386807  0.67247446  0.91587405  1
  S  S5  1  0.32973313  0.35731395  0.41512805  1
  O  O0  1  0.21357120  0.01233277  0.30162078  1
  O  O1  1  0.82160052  0.80137166  0.29975435  1
  O  O2  1  0.97129126  0.15454199  0.29917063  1
  O  O3  1  0.25910729  0.21943324  0.80532682  1
  O  O4  1  0.97226744  0.75148872  0.79901842  1
  O  O5  1  0.78927297  0.04463292  0.80242505  1
  O  O6  1  0.82622592  0.99262080  0.68625074  1
  O  O7  1  0.16760034  0.16438180  0.69024301  1
  O  O8  1  0.99430094  0.80514486  0.69215084  1
  O  O9  1  0.71761252  0.79411018  0.19184953  1
  O  O10  1  0.05866752  0.27158778  0.19152692  1
  O  O11  1  0.23642010  0.96457462  0.19663051  1
  O  O12  1  0.85919610  0.33720698  0.63331032  1
  O  O13  1  0.48432923  0.14366678  0.63808164  1
  O  O14  1  0.67329717  0.50273674  0.63889652  1
  O  O15  1  0.84996380  0.52130684  0.14466199  1
  O  O16  1  0.67719709  0.14495575  0.14122737  1
  O  O17  1  0.50143827  0.32605928  0.14764724  1
  O  O18  1  0.43537128  0.31982389  0.02761244  1
  O  O19  1  0.89174701  0.57196165  0.02502983  1
  O  O20  1  0.66834990  0.09772673  0.03300697  1
  O  O21  1  0.46722552  0.16637893  0.52150585  1
  O  O22  1  0.69663453  0.52592051  0.52115967  1
  O  O23  1  0.84628972  0.31245089  0.52461771  1
  O  O24  1  0.56811613  0.67600526  0.97076965  1
  O  O25  1  0.12355192  0.44026000  0.97316859  1
  O  O26  1  0.33429332  0.88214452  0.97732458  1
  O  O27  1  0.59767776  0.87175700  0.47980752  1
  O  O28  1  0.29309789  0.40928010  0.47302467  1
  O  O29  1  0.13056872  0.73665855  0.47707261  1
  O  O30  1  0.14518315  0.65484553  0.36604216  1
  O  O31  1  0.49093602  0.86097742  0.36872329  1
  O  O32  1  0.34699615  0.47808458  0.36813688  1
  O  O33  1  0.11675708  0.44370517  0.85283077  1
  O  O34  1  0.34564554  0.88330063  0.85624110  1
  O  O35  1  0.56204412  0.67808250  0.86240163  1
  O  O36  1  0.99692478  0.84127955  0.39793863  1
  O  O37  1  0.82199158  0.00747294  0.40057476  1
  O  O38  1  0.19238359  0.18690317  0.40218665  1
  O  O39  1  0.98445056  0.15880525  0.91788037  1
  O  O40  1  0.15673768  0.97918151  0.91732853  1
  O  O41  1  0.82071186  0.81753581  0.91644945  1
  O  O42  1  0.95684815  0.16752096  0.58084449  1
  O  O43  1  0.17858137  0.02977347  0.58667952  1
  O  O44  1  0.84590083  0.81106352  0.58901109  1
  O  O45  1  0.98699258  0.82546511  0.09595799  1
  O  O46  1  0.81988977  0.01368818  0.09339676  1
  O  O47  1  0.19004829  0.17082651  0.09980346  1
  O  O48  1  0.69352070  0.18869226  0.72781414  1
  O  O49  1  0.49801028  0.32576165  0.73247859  1
  O  O50  1  0.84684943  0.52039861  0.73382333  1
  O  O51  1  0.66112209  0.50540192  0.24899898  1
  O  O52  1  0.82819804  0.32612160  0.24786390  1
  O  O53  1  0.48459321  0.13686425  0.25656329  1
  O  O54  1  0.66286150  0.51838540  0.91121093  1
  O  O55  1  0.83896022  0.34620083  0.91059273  1
  O  O56  1  0.49025779  0.16624983  0.91280727  1
  O  O57  1  0.64857662  0.16211236  0.42552779  1
  O  O58  1  0.49106173  0.35624052  0.41746249  1
  O  O59  1  0.84754483  0.50322746  0.41957746  1
  O  O60  1  0.37620704  0.50836310  0.10163781  1
  O  O61  1  0.14911587  0.65046130  0.09877318  1
  O  O62  1  0.51811730  0.86861998  0.10024408  1
  O  O63  1  0.34735978  0.86334796  0.58150914  1
  O  O64  1  0.51125712  0.63302150  0.58352078  1
  O  O65  1  0.11148131  0.46860264  0.57783662  1
  O  O66  1  0.32698920  0.83485722  0.26556162  1
  O  O67  1  0.48859613  0.66437636  0.27413132  1
  O  O68  1  0.15866760  0.49377970  0.27432288  1
  O  O69  1  0.31526610  0.47552139  0.73024560  1
  O  O70  1  0.14462815  0.68435716  0.73515789  1
  O  O71  1  0.52454410  0.85203562  0.73288221  1
loop_
_geom_bond_atom_site_label_1
_geom_bond_atom_site_label_2
_geom_bond_distance
_geom_bond_site_symmetry_2
Na0 O53 2.399675 1_555
Na0 O66 2.597529 1_545
Na0 O52 2.634040 1_555
Na0 O67 2.727064 1_545
Na0 O9 2.730851 1_545
Na0 O2 2.778908 1_555
Na0 O31 2.862052 1_545
Na0 O16 2.880119 1_555
Na1 O67 2.433440 1_555
Na1 O51 2.501825 1_555
Na1 O68 2.628426 1_555
Na1 O10 2.714151 1_555
Na1 O17 2.772777 1_555
Na1 O32 2.897298 1_555
Na1 O53 2.975388 1_555
Na2 O68 2.413946 1_655
Na2 O52 2.464721 1_555
Na2 O30 2.656831 1_655
Na2 O66 2.710817 1_655
Na2 O51 2.741300 1_555
Na2 O1 2.889460 1_555
Na2 O15 2.911787 1_555
Na3 O14 2.359680 1_555
Na3 O49 2.420578 1_555
Na3 O69 2.511420 1_555
Na3 O50 2.680400 1_555
Na3 O71 2.694229 1_555
Na4 O48 2.442715 1_555
Na4 O50 2.539966 1_555
Na4 O33 2.594254 1_655
Na4 O69 2.672045 1_655
Na4 O70 2.708080 1_655
Na4 O5 2.787263 1_555
Na4 O12 2.810650 1_555
Na5 O71 2.473651 1_545
Na5 O49 2.476647 1_555
Na5 O48 2.495432 1_555
Na5 O13 2.619082 1_555
Na5 O34 2.741399 1_545
Na5 O70 2.827671 1_545
Na5 O3 2.956185 1_555
Na6 O43 2.451495 1_555
Na6 O64 2.460881 1_555
Na6 O7 2.649803 1_555
Na6 O65 2.724323 1_555
Na6 O28 2.795872 1_555
Na6 O42 2.885443 1_455
Na7 O29 2.336775 1_555
Na7 O44 2.367234 1_455
Na7 O63 2.471177 1_555
Na7 O43 2.496002 1_565
Na7 O65 2.710217 1_555
Na7 O8 2.832995 1_455
Na8 O42 2.472356 1_565
Na8 O64 2.513249 1_555
Na8 O6 2.519482 1_555
Na8 O44 2.526796 1_555
Na8 O27 2.577313 1_555
Na8 O63 2.674125 1_555
Na9 O45 2.424364 1_455
Na9 O47 2.429244 1_565
Na9 O26 2.561462 1_554
Na9 O61 2.630882 1_555
Na9 O11 2.666053 1_555
Na9 O62 2.818891 1_555
Na10 O9 2.266171 1_555
Na10 O60 2.421840 1_555
Na10 O45 2.541703 1_555
Na10 O46 2.618275 1_565
Na10 O62 2.685987 1_555
Na10 O15 2.940818 1_555
Na10 O24 3.007004 1_554
Na11 O10 2.237782 1_555
Na11 O47 2.470762 1_555
Na11 O61 2.556311 1_555
Na11 O60 2.644415 1_555
Na11 O46 2.691366 1_455
Na11 O25 2.893510 1_554
Na12 O19 2.413131 1_556
Na12 O40 2.496007 1_655
Na12 O41 2.545096 1_555
Na12 O55 2.624975 1_555
Na12 O54 2.663322 1_555
Na12 O4 2.965360 1_555
Na13 O5 2.392926 1_555
Na13 O39 2.443822 1_555
Na13 O55 2.463025 1_555
Na13 O56 2.622058 1_555
Na13 O34 2.937400 1_545
Na14 O56 2.399879 1_555
Na14 O40 2.496461 1_545
Na14 O18 2.538128 1_556
Na14 O39 2.705974 1_455
Na14 O3 2.719410 1_555
Na14 O54 2.862321 1_555
Na14 O25 2.981915 1_555
Na15 O37 2.411838 1_555
Na15 O59 2.481465 1_555
Na15 O57 2.512273 1_555
Na15 O2 2.838144 1_555
Na15 O23 2.844709 1_555
Na15 O38 2.918655 1_655
Na15 O30 2.950031 1_655
Na16 O38 2.454336 1_555
Na16 O57 2.600265 1_555
Na16 O21 2.676707 1_555
Na16 O29 2.688280 1_545
Na16 O58 2.706373 1_555
Na16 O36 2.715709 1_445
Na16 O31 2.804050 1_545
Na16 O0 2.808411 1_555
Na17 O59 2.475048 1_555
Na17 O36 2.475665 1_555
Na17 O22 2.516597 1_555
Na17 O58 2.553619 1_555
Na17 O27 2.812364 1_555
Na17 O37 2.829176 1_565
Na18 O44 2.478588 1_555
Na18 O43 2.488621 1_665
Na18 O36 2.611398 1_555
Na18 O42 2.675830 1_565
Na18 O37 2.824531 1_565
Na18 O38 2.917158 1_665
Na19 O40 2.395698 1_544
Na19 O39 2.447390 1_454
Na19 O45 2.635859 1_445
Na19 O41 2.663073 1_444
Na19 O47 2.669460 1_555
Na19 O46 2.774249 1_455
Na20 O56 2.373933 1_555
Na20 O55 2.414004 1_555
Na20 O48 2.637472 1_555
Na20 O54 2.643300 1_555
Na20 O49 2.649385 1_555
Na20 O50 2.853501 1_555
Na21 O59 2.429952 1_555
Na21 O52 2.489315 1_555
Na21 O57 2.518433 1_555
Na21 O51 2.532561 1_555
Na21 O58 2.554837 1_555
Na21 O53 2.570870 1_555
Na22 O60 2.319707 1_555
Na22 O61 2.393888 1_555
Na22 O62 2.607079 1_555
Na22 O67 2.624000 1_555
Na22 O66 2.628754 1_555
Na22 O68 2.644724 1_555
Na23 O71 2.307256 1_555
Na23 O69 2.353760 1_555
Na23 O64 2.429270 1_555
Na23 O63 2.455491 1_555
Na23 O70 2.593569 1_555
Na23 O65 2.794336 1_555
La0 O3 2.233301 1_555
La0 O39 2.304430 1_455
La0 O5 2.315563 1_455
La0 O40 2.390353 1_545
La0 O4 2.483248 1_445
La0 O41 2.569088 1_445
La1 O10 2.323420 1_665
La1 O45 2.336362 1_555
La1 O47 2.377865 1_665
La1 O9 2.378758 1_555
La1 O11 2.454875 1_655
La1 O46 2.476478 1_565
La2 O18 2.262121 1_556
La2 O19 2.291103 1_556
La2 O20 2.362530 1_556
La2 O55 2.373237 1_555
La2 O56 2.382055 1_555
La2 O54 2.501371 1_555
La3 O25 2.221485 1_554
La3 O26 2.278851 1_554
La3 O61 2.347259 1_555
La3 O60 2.435463 1_555
La3 O24 2.480419 1_554
La3 O62 2.593663 1_555
La4 O27 2.237068 1_555
La4 O63 2.307355 1_555
La4 O29 2.345463 1_555
La4 O28 2.487784 1_555
La4 O64 2.502363 1_555
La4 O65 2.605662 1_555
La5 O34 2.249466 1_555
La5 O33 2.264346 1_555
La5 O35 2.361684 1_555
La5 O69 2.425983 1_555
La5 O71 2.465415 1_555
La5 O70 2.504709 1_555
Al0 O1 1.779105 1_555
Al0 O37 1.789504 1_565
Al0 O36 1.891616 1_555
Al0 O2 1.907249 1_565
Al1 O7 1.858346 1_565
Al1 O6 1.870814 1_455
Al1 O8 1.994695 1_455
Al1 O43 2.006299 1_565
Al1 O44 2.037422 1_455
Al1 O42 2.357378 1_465
Al2 O13 1.772537 1_555
Al2 O14 1.822670 1_555
Al2 O49 1.833927 1_555
Al2 O48 1.857504 1_555
Al2 O12 2.196314 1_555
Al2 O50 2.292760 1_555
Al3 O15 1.761350 1_555
Al3 O17 1.822182 1_555
Al3 O51 1.858425 1_555
Al3 O52 2.052850 1_555
Al3 O16 2.384965 1_555
Al4 O22 1.877383 1_555
Al4 O21 1.885456 1_555
Al4 O57 1.986900 1_555
Al4 O23 2.000584 1_555
Al4 O59 2.225596 1_555
Al4 O58 2.289171 1_555
Al5 O30 1.876485 1_555
Al5 O67 1.900560 1_555
Al5 O68 1.947065 1_555
Al5 O31 1.951401 1_555
Al5 O66 1.984549 1_555
Al5 O32 2.140979 1_555
O0 S0 1.473626 1_545
O1 Si0 1.639192 1_555
O2 Si1 1.678243 1_655
O3 Si2 1.637301 1_555
O4 S1 1.478055 1_555
O5 Si3 1.639484 1_555
O6 Si3 1.654252 1_565
O7 Si2 1.653637 1_555
O8 S1 1.488093 1_555
O9 Si0 1.637343 1_555
O10 Si1 1.632131 1_555
O11 S0 1.476572 1_555
O12 S2 1.464266 1_555
O13 Si4 1.613865 1_555
O14 Si5 1.634563 1_555
O15 Si6 1.633661 1_555
O16 S3 1.474954 1_555
O17 Si7 1.662285 1_555
O18 Si7 1.645561 1_555
O19 Si6 1.639719 1_555
O20 S3 1.482675 1_555
O21 Si4 1.660619 1_555
O22 Si5 1.658599 1_555
O23 S2 1.506764 1_555
O24 S4 1.478742 1_555
O25 Si8 1.640601 1_555
O26 Si9 1.645889 1_555
O27 Si10 1.640806 1_555
O28 S5 1.483693 1_555
O29 Si11 1.645327 1_555
O30 Si11 1.646553 1_555
O31 Si10 1.651944 1_555
O32 S5 1.485199 1_555
O33 Si8 1.643668 1_555
O34 Si9 1.645565 1_555
O35 S4 1.486375 1_555
O36 Si11 1.678798 1_655
O37 Si10 1.650249 1_545
O38 S5 1.486122 1_555
O39 Si8 1.632424 1_655
O40 Si9 1.629610 1_555
O41 S4 1.466291 1_555
O42 S2 1.494719 1_555
O43 Si4 1.686944 1_555
O44 Si5 1.685297 1_555
O45 Si6 1.638303 1_555
O46 S3 1.490456 1_555
O47 Si7 1.638051 1_555
O48 Si3 1.660631 1_555
O49 Si2 1.652277 1_555
O50 S1 1.473253 1_555
O51 Si0 1.661313 1_555
O52 Si1 1.677701 1_655
O53 S0 1.485648 1_545
O54 S4 1.470244 1_555
O55 Si8 1.626846 1_655
O56 Si9 1.630543 1_545
O57 Si10 1.668472 1_545
O58 S5 1.504433 1_555
O59 Si11 1.660941 1_655
O60 Si7 1.638791 1_555
O61 Si6 1.634577 1_455
O62 S3 1.480786 1_565
O63 Si4 1.658564 1_565
O64 Si5 1.657047 1_555
O65 S2 1.494350 1_455
O66 S0 1.515092 1_555
O67 Si0 1.639154 1_555
O68 Si1 1.641608 1_555
O69 Si2 1.642235 1_555
O70 S1 1.488475 1_455
O71 Si3 1.639275 1_565
