# generated using pymatgen
data_MgFe6(OF)6
_symmetry_space_group_name_H-M   'P 1'
_cell_length_a   5.17595968
_cell_length_b   14.43316985
_cell_length_c   3.10455051
_cell_angle_alpha   90.12890312
_cell_angle_beta   89.68313113
_cell_angle_gamma   97.89284257
_symmetry_Int_Tables_number   1
_chemical_formula_structural   MgFe6(OF)6
_chemical_formula_sum   'Mg1 Fe6 O6 F6'
_cell_volume   229.72610975
_cell_formula_units_Z   1
loop_
 _symmetry_equiv_pos_site_id
 _symmetry_equiv_pos_as_xyz
  1  'x, y, z'
loop_
 _atom_site_type_symbol
 _atom_site_label
 _atom_site_symmetry_multiplicity
 _atom_site_fract_x
 _atom_site_fract_y
 _atom_site_fract_z
 _atom_site_occupancy
  Mg  Mg0  1  0.86296319  0.82446735  0.03920293  1
  Fe  Fe0  1  0.02717526  0.02137640  0.00916747  1
  Fe  Fe1  1  0.03627809  0.32927779  0.00412357  1
  Fe  Fe2  1  0.16704372  0.62628208  0.00825337  1
  Fe  Fe3  1  0.52345384  0.17929274  0.50480019  1
  Fe  Fe4  1  0.54432187  0.48031237  0.50017725  1
  Fe  Fe5  1  0.35306898  0.84271980  0.53107949  1
  O  O0  1  0.32813736  0.58870042  0.50626020  1
  O  O1  1  0.05564124  0.92485989  0.51426042  1
  O  O2  1  0.33764202  0.09859831  0.00613939  1
  O  O3  1  0.16965111  0.75627714  0.02382530  1
  O  O4  1  0.37329062  0.42728967  0.00125040  1
  O  O5  1  0.71216305  0.23635575  0.00426980  1
  F  F0  1  0.23121785  0.25970889  0.50348886  1
  F  F1  1  0.79795446  0.56961321  0.00987162  1
  F  F2  1  0.59485970  0.91177942  0.03161409  1
  F  F3  1  0.83621860  0.07628506  0.50967244  1
  F  F4  1  0.86010069  0.41546773  0.50355736  1
  F  F5  1  0.67492936  0.76466998  0.53898585  1
loop_
_geom_bond_atom_site_label_1
_geom_bond_atom_site_label_2
_geom_bond_distance
_geom_bond_site_symmetry_2
Mg0 O3 1.979599 1_655
Mg0 O1 2.208863 1_655
Mg0 O1 2.312115 1_654
Fe0 O2 1.825552 1_555
Fe0 O1 2.089790 1_544
Fe0 O1 2.118942 1_545
Fe1 O5 1.998785 1_455
Fe1 O4 2.089549 1_555
Fe2 O3 1.874952 1_555
Fe2 O0 1.876726 1_555
Fe2 O0 1.877316 1_554
Fe3 O5 1.953220 1_555
Fe3 O5 1.956241 1_556
Fe3 O2 2.092566 1_555
Fe3 O2 2.094729 1_556
Fe4 O4 1.895344 1_555
Fe4 O4 1.895602 1_556
Fe4 O0 2.044534 1_555
Fe5 O1 2.068970 1_555
Fe5 O3 2.113118 1_556
Fe5 O3 2.149483 1_555
F0 Fe3 2.029130 1_555
F0 Fe1 2.166993 1_556
F0 Fe1 2.175385 1_555
F1 Fe2 1.972150 1_655
F1 Fe4 2.285545 1_555
F1 Fe4 2.331880 1_554
F2 Mg0 1.998775 1_555
F2 Fe5 2.146407 1_555
F2 Fe5 2.155555 1_554
F2 Fe0 2.557493 1_665
F3 Fe0 2.052315 1_655
F3 Fe0 2.060891 1_656
F3 Fe3 2.343644 1_555
F4 Fe4 1.991948 1_555
F4 Fe1 2.251754 1_655
F4 Fe1 2.264950 1_656
F5 Mg0 1.964231 1_555
F5 Mg0 1.970724 1_556
F5 Fe5 2.135640 1_555
