# generated using pymatgen
data_Sb5PO10
_symmetry_space_group_name_H-M   'P 1'
_cell_length_a   6.89831400
_cell_length_b   7.28101800
_cell_length_c   20.34541100
_cell_angle_alpha   90.00000000
_cell_angle_beta   90.00000000
_cell_angle_gamma   90.00000000
_symmetry_Int_Tables_number   1
_chemical_formula_structural   Sb5PO10
_chemical_formula_sum   'Sb20 P4 O40'
_cell_volume   1021.88383947
_cell_formula_units_Z   4
loop_
 _symmetry_equiv_pos_site_id
 _symmetry_equiv_pos_as_xyz
  1  'x, y, z'
loop_
 _atom_site_type_symbol
 _atom_site_label
 _atom_site_symmetry_multiplicity
 _atom_site_fract_x
 _atom_site_fract_y
 _atom_site_fract_z
 _atom_site_occupancy
  Sb  Sb0  1  0.10842300  0.53177100  0.49966400  1
  Sb  Sb1  1  0.60842300  0.96822900  0.50033600  1
  Sb  Sb2  1  0.89157700  0.03177100  0.00033600  1
  Sb  Sb3  1  0.39157700  0.46822900  0.99966400  1
  Sb  Sb4  1  0.91202700  0.73650400  0.35513000  1
  Sb  Sb5  1  0.41202700  0.76349600  0.64487000  1
  Sb  Sb6  1  0.08797300  0.23650400  0.14487000  1
  Sb  Sb7  1  0.58797300  0.26349600  0.85513000  1
  Sb  Sb8  1  0.35139700  0.02829200  0.33912000  1
  Sb  Sb9  1  0.85139700  0.47170800  0.66088000  1
  Sb  Sb10  1  0.64860300  0.52829200  0.16088000  1
  Sb  Sb11  1  0.14860300  0.97170800  0.83912000  1
  Sb  Sb12  1  0.59518700  0.01013400  0.19602600  1
  Sb  Sb13  1  0.09518700  0.48986600  0.80397400  1
  Sb  Sb14  1  0.40481300  0.51013400  0.30397400  1
  Sb  Sb15  1  0.90481300  0.98986600  0.69602600  1
  Sb  Sb16  1  0.87597300  0.22978000  0.31061000  1
  Sb  Sb17  1  0.37597300  0.27022000  0.68939000  1
  Sb  Sb18  1  0.12402700  0.72978000  0.18939000  1
  Sb  Sb19  1  0.62402700  0.77022000  0.81061000  1
  P  P0  1  0.09728800  0.09372400  0.52726700  1
  P  P1  1  0.59728800  0.40627600  0.47273300  1
  P  P2  1  0.90271200  0.59372400  0.97273300  1
  P  P3  1  0.40271200  0.90627600  0.02726700  1
  O  O0  1  0.28280100  0.97492200  0.52150700  1
  O  O1  1  0.78280100  0.52507800  0.47849300  1
  O  O2  1  0.71719900  0.47492200  0.97849300  1
  O  O3  1  0.21719900  0.02507800  0.02150700  1
  O  O4  1  0.42358100  0.52970200  0.49406800  1
  O  O5  1  0.92358100  0.97029800  0.50593200  1
  O  O6  1  0.57641900  0.02970200  0.00593200  1
  O  O7  1  0.07641900  0.47029800  0.99406800  1
  O  O8  1  0.03421900  0.98656000  0.34444400  1
  O  O9  1  0.53421900  0.51344000  0.65555600  1
  O  O10  1  0.96578100  0.48656000  0.15555600  1
  O  O11  1  0.46578100  0.01344000  0.84444400  1
  O  O12  1  0.65393300  0.41439500  0.25320700  1
  O  O13  1  0.15393300  0.08560500  0.74679300  1
  O  O14  1  0.34606700  0.91439500  0.24679300  1
  O  O15  1  0.11264100  0.25840000  0.47585300  1
  O  O16  1  0.84606700  0.58560500  0.75320700  1
  O  O17  1  0.57084400  0.32611000  0.40275100  1
  O  O18  1  0.92915600  0.67389000  0.90275100  1
  O  O19  1  0.42915600  0.82611000  0.09724900  1
  O  O20  1  0.12407100  0.62748400  0.40916500  1
  O  O21  1  0.62407100  0.87251600  0.59083500  1
  O  O22  1  0.87592900  0.12748400  0.09083500  1
  O  O23  1  0.37592900  0.37251600  0.90916500  1
  O  O24  1  0.76901400  0.23124300  0.70018600  1
  O  O25  1  0.26901400  0.26875700  0.29981400  1
  O  O26  1  0.23098600  0.73124300  0.79981400  1
  O  O27  1  0.73098600  0.76875700  0.20018600  1
  O  O28  1  0.84828600  0.95078200  0.79756200  1
  O  O29  1  0.34828600  0.54921800  0.20243800  1
  O  O30  1  0.15171400  0.45078200  0.70243800  1
  O  O31  1  0.65171400  0.04921800  0.29756200  1
  O  O32  1  0.56937900  0.86612200  0.71897400  1
  O  O33  1  0.06937900  0.63387800  0.28102600  1
  O  O34  1  0.43062100  0.36612200  0.78102600  1
  O  O35  1  0.93062100  0.13387800  0.21897400  1
  O  O36  1  0.38735900  0.74160000  0.97585300  1
  O  O37  1  0.88735900  0.75840000  0.02414700  1
  O  O38  1  0.61264100  0.24160000  0.52414700  1
  O  O39  1  0.07084400  0.17389000  0.59724900  1
loop_
_geom_bond_atom_site_label_1
_geom_bond_atom_site_label_2
_geom_bond_distance
_geom_bond_site_symmetry_2
O0 P0 1.549083 1_565
O0 Sb1 2.287687 1_555
O1 P1 1.549083 1_555
O1 Sb0 2.287687 1_655
O2 P2 1.549083 1_555
O2 Sb3 2.287687 1_555
O3 P3 1.549083 1_545
O3 Sb2 2.287687 1_455
O4 P1 1.559457 1_555
O4 Sb0 2.177090 1_555
O5 P0 1.559457 1_665
O5 Sb1 2.177090 1_555
O6 P3 1.559457 1_545
O6 Sb2 2.177090 1_555
O7 P2 1.559457 1_455
O7 Sb3 2.177090 1_555
O8 Sb4 2.018066 1_455
O8 Sb16 2.191245 1_465
O8 Sb8 2.211645 1_565
O9 Sb5 2.018066 1_555
O9 Sb17 2.191245 1_555
O9 Sb9 2.211645 1_555
O10 Sb6 2.018066 1_655
O10 Sb18 2.191245 1_655
O10 Sb10 2.211645 1_555
O11 Sb7 2.018066 1_555
O11 Sb19 2.191245 1_545
O11 Sb11 2.211645 1_545
O12 Sb10 2.053672 1_555
O12 Sb14 2.122738 1_555
O12 Sb16 2.348809 1_555
O13 Sb11 2.053672 1_545
O13 Sb15 2.122738 1_445
O13 Sb17 2.348809 1_555
O14 Sb8 2.053672 1_565
O14 Sb12 2.122738 1_565
O14 Sb18 2.348809 1_555
O15 P0 1.594690 1_555
O15 Sb0 2.048732 1_555
O16 Sb9 2.053672 1_555
O16 Sb13 2.122738 1_655
O16 Sb19 2.348809 1_555
O17 P1 1.549585 1_555
O17 Sb14 2.673163 1_555
O18 P2 1.549585 1_555
O18 Sb13 2.673163 1_655
O19 P3 1.549585 1_555
O19 Sb12 2.673163 1_565
O20 Sb0 1.971666 1_555
O20 Sb4 1.994570 1_455
O21 Sb1 1.971666 1_555
O21 Sb5 1.994570 1_555
O22 Sb2 1.971666 1_555
O22 Sb6 1.994570 1_655
O23 Sb3 1.971666 1_555
O23 Sb7 1.994570 1_555
O24 Sb15 1.993346 1_545
O24 Sb9 2.006960 1_555
O25 Sb14 1.993346 1_555
O25 Sb8 2.006960 1_555
O26 Sb13 1.993346 1_555
O26 Sb11 2.006960 1_555
O27 Sb12 1.993346 1_565
O27 Sb10 2.006960 1_555
O28 Sb19 2.047457 1_555
O28 Sb15 2.121445 1_555
O28 Sb11 2.242760 1_655
O29 Sb18 2.047457 1_555
O29 Sb14 2.121445 1_555
O29 Sb10 2.242760 1_555
O30 Sb17 2.047457 1_555
O30 Sb13 2.121445 1_555
O30 Sb9 2.242760 1_455
O31 Sb16 2.047457 1_555
O31 Sb12 2.121445 1_555
O31 Sb8 2.242760 1_555
O32 Sb5 2.002413 1_555
O32 Sb19 2.026220 1_555
O32 Sb15 2.526662 1_555
O33 Sb4 2.002413 1_455
O33 Sb18 2.026220 1_555
O33 Sb14 2.526662 1_555
O34 Sb7 2.002413 1_555
O34 Sb17 2.026220 1_555
O34 Sb13 2.526662 1_555
O35 Sb6 2.002413 1_655
O35 Sb16 2.026220 1_555
O35 Sb12 2.526662 1_555
O36 P3 1.594690 1_556
O36 Sb3 2.048732 1_555
O37 P2 1.594690 1_554
O37 Sb2 2.048732 1_565
O38 P1 1.594690 1_555
O38 Sb1 2.048732 1_545
O39 P0 1.549585 1_555
O39 Sb15 2.673163 1_445
