# generated using pymatgen
data_NaMgSc(SO4)3
_symmetry_space_group_name_H-M   'P 1'
_cell_length_a   8.72968013
_cell_length_b   8.72967985
_cell_length_c   22.99302565
_cell_angle_alpha   90.00000000
_cell_angle_beta   90.00000000
_cell_angle_gamma   120.00000102
_symmetry_Int_Tables_number   1
_chemical_formula_structural   NaMgSc(SO4)3
_chemical_formula_sum   'Na6 Mg6 Sc6 S18 O72'
_cell_volume   1517.48147695
_cell_formula_units_Z   6
loop_
 _symmetry_equiv_pos_site_id
 _symmetry_equiv_pos_as_xyz
  1  'x, y, z'
loop_
 _atom_site_type_symbol
 _atom_site_label
 _atom_site_symmetry_multiplicity
 _atom_site_fract_x
 _atom_site_fract_y
 _atom_site_fract_z
 _atom_site_occupancy
  Na  Na0  1  -0.00000000  0.00000000  0.49789828  1
  Na  Na1  1  -0.00000000  0.00000000  0.99789828  1
  Na  Na2  1  0.66666700  0.33333300  0.83123128  1
  Na  Na3  1  0.66666700  0.33333300  0.33123128  1
  Na  Na4  1  0.33333300  0.66666700  0.16456528  1
  Na  Na5  1  0.33333300  0.66666700  0.66456528  1
  Mg  Mg0  1  -0.00000000  0.00000000  0.35109583  1
  Mg  Mg1  1  -0.00000000  0.00000000  0.85109583  1
  Mg  Mg2  1  0.66666700  0.33333300  0.68442883  1
  Mg  Mg3  1  0.66666700  0.33333300  0.18442883  1
  Mg  Mg4  1  0.33333300  0.66666700  0.01776283  1
  Mg  Mg5  1  0.33333300  0.66666700  0.51776283  1
  Sc  Sc0  1  -0.00000000  0.00000000  0.64829680  1
  Sc  Sc1  1  -0.00000000  0.00000000  0.14829680  1
  Sc  Sc2  1  0.66666700  0.33333300  0.98162980  1
  Sc  Sc3  1  0.66666700  0.33333300  0.48162980  1
  Sc  Sc4  1  0.33333300  0.66666700  0.31496380  1
  Sc  Sc5  1  0.33333300  0.66666700  0.81496380  1
  S  S0  1  0.29375519  0.00368324  0.25084543  1
  S  S1  1  0.70992805  0.70624481  0.25084543  1
  S  S2  1  0.99631676  0.29007195  0.25084543  1
  S  S3  1  0.29375519  0.29007195  0.75084543  1
  S  S4  1  0.99631676  0.70624481  0.75084543  1
  S  S5  1  0.70992805  0.00368324  0.75084543  1
  S  S6  1  0.96042219  0.33701624  0.58417843  1
  S  S7  1  0.37659505  0.03957781  0.58417843  1
  S  S8  1  0.66298376  0.62340495  0.58417843  1
  S  S9  1  0.96042219  0.62340495  0.08417843  1
  S  S10  1  0.66298376  0.03957781  0.08417843  1
  S  S11  1  0.37659505  0.33701624  0.08417843  1
  S  S12  1  0.62708819  0.67035024  0.91751243  1
  S  S13  1  0.04326105  0.37291181  0.91751243  1
  S  S14  1  0.32964976  0.95673895  0.91751243  1
  S  S15  1  0.62708819  0.95673895  0.41751243  1
  S  S16  1  0.32964976  0.37291181  0.41751243  1
  S  S17  1  0.04326105  0.67035024  0.41751243  1
  O  O0  1  0.21043466  0.02684249  0.30275795  1
  O  O1  1  0.81640783  0.78956534  0.30275795  1
  O  O2  1  0.97315751  0.18359217  0.30275795  1
  O  O3  1  0.21043466  0.18359217  0.80275795  1
  O  O4  1  0.97315751  0.78956534  0.80275795  1
  O  O5  1  0.81640783  0.02684249  0.80275795  1
  O  O6  1  0.78994619  0.97366661  0.69774753  1
  O  O7  1  0.18372042  0.21005381  0.69774753  1
  O  O8  1  0.02633339  0.81627958  0.69774753  1
  O  O9  1  0.78994619  0.81627958  0.19774753  1
  O  O10  1  0.02633339  0.21005381  0.19774753  1
  O  O11  1  0.18372042  0.97366661  0.19774753  1
  O  O12  1  0.87710166  0.36017549  0.63609095  1
  O  O13  1  0.48307483  0.12289834  0.63609095  1
  O  O14  1  0.63982451  0.51692517  0.63609095  1
  O  O15  1  0.87710166  0.51692517  0.13609095  1
  O  O16  1  0.63982451  0.12289834  0.13609095  1
  O  O17  1  0.48307483  0.36017549  0.13609095  1
  O  O18  1  0.45661319  0.30699961  0.03108053  1
  O  O19  1  0.85038742  0.54338681  0.03108053  1
  O  O20  1  0.69300039  0.14961258  0.03108053  1
  O  O21  1  0.45661319  0.14961258  0.53108053  1
  O  O22  1  0.69300039  0.54338681  0.53108053  1
  O  O23  1  0.85038742  0.30699961  0.53108053  1
  O  O24  1  0.54376766  0.69350949  0.96942495  1
  O  O25  1  0.14974083  0.45623234  0.96942495  1
  O  O26  1  0.30649051  0.85025917  0.96942495  1
  O  O27  1  0.54376766  0.85025917  0.46942495  1
  O  O28  1  0.30649051  0.45623234  0.46942495  1
  O  O29  1  0.14974083  0.69350949  0.46942495  1
  O  O30  1  0.12327919  0.64033361  0.36441453  1
  O  O31  1  0.51705342  0.87672081  0.36441453  1
  O  O32  1  0.35966639  0.48294658  0.36441453  1
  O  O33  1  0.12327919  0.48294658  0.86441453  1
  O  O34  1  0.35966639  0.87672081  0.86441453  1
  O  O35  1  0.51705342  0.64033361  0.86441453  1
  O  O36  1  0.02283357  0.82676252  0.40984134  1
  O  O37  1  0.80392895  0.97716643  0.40984134  1
  O  O38  1  0.17323748  0.19607105  0.40984134  1
  O  O39  1  0.02283357  0.19607105  0.90984134  1
  O  O40  1  0.17323748  0.97716643  0.90984134  1
  O  O41  1  0.80392895  0.82676252  0.90984134  1
  O  O42  1  0.97678320  0.17439686  0.58971078  1
  O  O43  1  0.19761366  0.02321680  0.58971078  1
  O  O44  1  0.82560314  0.80238634  0.58971078  1
  O  O45  1  0.97678320  0.80238634  0.08971078  1
  O  O46  1  0.82560314  0.02321680  0.08971078  1
  O  O47  1  0.19761366  0.17439686  0.08971078  1
  O  O48  1  0.68950057  0.16009552  0.74317434  1
  O  O49  1  0.47059595  0.31049943  0.74317434  1
  O  O50  1  0.83990448  0.52940405  0.74317434  1
  O  O51  1  0.68950057  0.52940405  0.24317434  1
  O  O52  1  0.83990448  0.31049943  0.24317434  1
  O  O53  1  0.47059595  0.16009552  0.24317434  1
  O  O54  1  0.64345020  0.50772986  0.92304378  1
  O  O55  1  0.86428066  0.35654980  0.92304378  1
  O  O56  1  0.49227014  0.13571934  0.92304378  1
  O  O57  1  0.64345020  0.13571934  0.42304378  1
  O  O58  1  0.49227014  0.35654980  0.42304378  1
  O  O59  1  0.86428066  0.50772986  0.42304378  1
  O  O60  1  0.35616657  0.49342952  0.07650834  1
  O  O61  1  0.13726195  0.64383343  0.07650834  1
  O  O62  1  0.50657048  0.86273805  0.07650834  1
  O  O63  1  0.35616657  0.86273805  0.57650834  1
  O  O64  1  0.50657048  0.64383343  0.57650834  1
  O  O65  1  0.13726195  0.49342952  0.57650834  1
  O  O66  1  0.31011620  0.84106386  0.25637778  1
  O  O67  1  0.53094666  0.68988380  0.25637778  1
  O  O68  1  0.15893614  0.46905334  0.25637778  1
  O  O69  1  0.31011620  0.46905334  0.75637778  1
  O  O70  1  0.15893614  0.68988380  0.75637778  1
  O  O71  1  0.53094666  0.84106386  0.75637778  1
loop_
_geom_bond_atom_site_label_1
_geom_bond_atom_site_label_2
_geom_bond_distance
_geom_bond_site_symmetry_2
Na0 O38 2.593771 1_555
Na0 O36 2.593771 1_545
Na0 O37 2.593771 1_445
Na0 O44 2.669072 1_445
Na0 O42 2.669072 1_455
Na0 O43 2.669072 1_555
Na1 O39 2.593771 1_555
Na1 O41 2.593771 1_445
Na1 O40 2.593771 1_545
Na1 O45 2.669072 1_446
Na1 O47 2.669072 1_556
Na1 O46 2.669072 1_456
Na2 O50 2.593771 1_555
Na2 O48 2.593771 1_555
Na2 O49 2.593771 1_555
Na2 O56 2.669072 1_555
Na2 O54 2.669072 1_555
Na2 O55 2.669072 1_555
Na3 O51 2.593771 1_555
Na3 O53 2.593771 1_555
Na3 O52 2.593771 1_555
Na3 O57 2.669072 1_555
Na3 O59 2.669072 1_555
Na3 O58 2.669072 1_555
Na4 O62 2.593771 1_555
Na4 O60 2.593771 1_555
Na4 O61 2.593771 1_555
Na4 O68 2.669072 1_555
Na4 O66 2.669072 1_555
Na4 O67 2.669072 1_555
Na5 O63 2.593771 1_555
Na5 O65 2.593771 1_555
Na5 O64 2.593771 1_555
Na5 O69 2.669072 1_555
Na5 O71 2.669072 1_555
Na5 O70 2.669072 1_555
Mg0 O1 2.057766 1_445
Mg0 O2 2.057766 1_455
Mg0 O0 2.057766 1_555
Mg0 O38 2.110153 1_555
Mg0 O36 2.110153 1_545
Mg0 O37 2.110153 1_445
Mg1 O4 2.057766 1_445
Mg1 O3 2.057766 1_555
Mg1 O5 2.057766 1_455
Mg1 O39 2.110153 1_555
Mg1 O41 2.110153 1_445
Mg1 O40 2.110153 1_545
Mg2 O13 2.057766 1_555
Mg2 O14 2.057766 1_555
Mg2 O12 2.057766 1_555
Mg2 O50 2.110153 1_555
Mg2 O48 2.110153 1_555
Mg2 O49 2.110153 1_555
Mg3 O16 2.057766 1_555
Mg3 O15 2.057766 1_555
Mg3 O17 2.057766 1_555
Mg3 O51 2.110153 1_555
Mg3 O53 2.110153 1_555
Mg3 O52 2.110153 1_555
Mg4 O25 2.057766 1_554
Mg4 O26 2.057766 1_554
Mg4 O24 2.057766 1_554
Mg4 O62 2.110153 1_555
Mg4 O60 2.110153 1_555
Mg4 O61 2.110153 1_555
Mg5 O28 2.057766 1_555
Mg5 O27 2.057766 1_555
Mg5 O29 2.057766 1_555
Mg5 O63 2.110153 1_555
Mg5 O65 2.110153 1_555
Mg5 O64 2.110153 1_555
O0 S0 1.463463 1_555
O1 S1 1.463463 1_555
O2 S2 1.463463 1_555
O3 S3 1.463463 1_555
O4 S4 1.463463 1_555
O5 S5 1.463463 1_555
O6 S5 1.493386 1_565
O6 Sc0 2.070409 1_665
O7 S3 1.493386 1_555
O7 Sc0 2.070409 1_555
O8 S4 1.493386 1_455
O8 Sc0 2.070409 1_565
O9 S1 1.493386 1_555
O9 Sc1 2.070409 1_665
O10 S2 1.493386 1_455
O10 Sc1 2.070409 1_555
O11 S0 1.493386 1_565
O11 Sc1 2.070409 1_565
O12 S6 1.463463 1_555
O13 S7 1.463463 1_555
O14 S8 1.463463 1_555
O15 S9 1.463463 1_555
O16 S10 1.463463 1_555
O17 S11 1.463463 1_555
O18 S11 1.493386 1_555
O18 Sc2 2.070409 1_554
O19 S9 1.493386 1_555
O19 Sc2 2.070409 1_554
O20 S10 1.493386 1_555
O20 Sc2 2.070409 1_554
O21 S7 1.493386 1_555
O21 Sc3 2.070409 1_555
O22 S8 1.493386 1_555
O22 Sc3 2.070409 1_555
O23 S6 1.493386 1_555
O23 Sc3 2.070409 1_555
O24 S12 1.463463 1_555
O25 S13 1.463463 1_555
O26 S14 1.463463 1_555
O27 S15 1.463463 1_555
O28 S16 1.463463 1_555
O29 S17 1.463463 1_555
O30 S17 1.493386 1_555
O30 Sc4 2.070409 1_555
O31 S15 1.493386 1_555
O31 Sc4 2.070409 1_555
O32 S16 1.493386 1_555
O32 Sc4 2.070409 1_555
O33 S13 1.493386 1_555
O33 Sc5 2.070409 1_555
O34 S14 1.493386 1_555
O34 Sc5 2.070409 1_555
O35 S12 1.493386 1_555
O35 Sc5 2.070409 1_555
O36 S17 1.473363 1_555
O37 S15 1.473371 1_555
O38 S16 1.473368 1_555
O39 S13 1.473371 1_555
O40 S14 1.473363 1_555
O41 S12 1.473368 1_555
O42 S6 1.501548 1_555
O42 Sc0 2.117079 1_655
O43 S7 1.501557 1_555
O43 Sc0 2.117079 1_555
O44 S8 1.501553 1_555
O44 Sc0 2.117079 1_665
O45 S9 1.501557 1_555
O45 Sc1 2.117079 1_665
O46 S10 1.501548 1_555
O46 Sc1 2.117079 1_655
O47 S11 1.501553 1_555
O47 Sc1 2.117079 1_555
O48 S5 1.473363 1_555
O49 S3 1.473371 1_555
O50 S4 1.473368 1_555
O51 S1 1.473371 1_555
O52 S2 1.473363 1_555
O53 S0 1.473368 1_555
O54 S12 1.501560 1_555
O54 Sc2 2.117079 1_555
O55 S13 1.501542 1_655
O55 Sc2 2.117079 1_555
O56 S14 1.501550 1_545
O56 Sc2 2.117079 1_555
O57 S15 1.501542 1_545
O57 Sc3 2.117079 1_555
O58 S16 1.501560 1_555
O58 Sc3 2.117079 1_555
O59 S17 1.501550 1_655
O59 Sc3 2.117079 1_555
O60 S11 1.473374 1_555
O61 S9 1.473357 1_455
O62 S10 1.473363 1_565
O63 S7 1.473356 1_565
O64 S8 1.473374 1_555
O65 S6 1.473364 1_455
O66 S0 1.501548 1_565
O66 Sc4 2.117079 1_555
O67 S1 1.501557 1_555
O67 Sc4 2.117079 1_555
O68 S2 1.501553 1_455
O68 Sc4 2.117079 1_555
O69 S3 1.501557 1_555
O69 Sc5 2.117079 1_555
O70 S4 1.501548 1_455
O70 Sc5 2.117079 1_555
O71 S5 1.501553 1_565
O71 Sc5 2.117079 1_555
