# generated using pymatgen
data_BaHoMg(CoO3)2
_symmetry_space_group_name_H-M   'P 1'
_cell_length_a   3.30717778
_cell_length_b   4.13281876
_cell_length_c   11.85085532
_cell_angle_alpha   90.00000000
_cell_angle_beta   90.00000000
_cell_angle_gamma   90.00000000
_symmetry_Int_Tables_number   1
_chemical_formula_structural   BaHoMg(CoO3)2
_chemical_formula_sum   'Ba1 Ho1 Mg1 Co2 O6'
_cell_volume   161.97709199
_cell_formula_units_Z   1
loop_
 _symmetry_equiv_pos_site_id
 _symmetry_equiv_pos_as_xyz
  1  'x, y, z'
loop_
 _atom_site_type_symbol
 _atom_site_label
 _atom_site_symmetry_multiplicity
 _atom_site_fract_x
 _atom_site_fract_y
 _atom_site_fract_z
 _atom_site_occupancy
  Ba  Ba0  1  0.50000000  0.50000000  0.36297430  1
  Ho  Ho0  1  0.50000000  0.50000000  0.00634789  1
  Mg  Mg0  1  0.50000000  0.00000000  0.59849094  1
  Co  Co0  1  0.00000000  0.00000000  0.83615483  1
  Co  Co1  1  0.00000000  0.00000000  0.17021517  1
  O  O0  1  0.00000000  0.00000000  0.00959716  1
  O  O1  1  0.00000000  0.00000000  0.51027301  1
  O  O2  1  0.50000000  0.00000000  0.75879812  1
  O  O3  1  0.00000000  0.50000000  0.87704232  1
  O  O4  1  0.50000000  0.00000000  0.25394363  1
  O  O5  1  0.00000000  0.50000000  0.15782963  1
loop_
_geom_bond_atom_site_label_1
_geom_bond_atom_site_label_2
_geom_bond_distance
_geom_bond_site_symmetry_2
Ba0 O4 2.437127 1_555
Ba0 O4 2.437127 1_565
Ba0 O5 2.940204 1_655
Ba0 O5 2.940204 1_555
Ho0 O3 2.254451 1_554
Ho0 O3 2.254451 1_654
Ho0 O5 2.440708 1_555
Ho0 O5 2.440708 1_655
Ho0 O0 2.646864 1_665
Ho0 O0 2.646864 1_555
Ho0 O0 2.646864 1_565
Ho0 O0 2.646864 1_655
Mg0 O2 1.899777 1_555
Mg0 O1 1.956358 1_555
Mg0 O1 1.956358 1_655
Co0 O2 1.890707 1_555
Co0 O2 1.890707 1_455
Co0 O0 2.055440 1_556
Co0 O3 2.122460 1_555
Co0 O3 2.122460 1_545
Co1 O0 1.903461 1_555
Co1 O4 1.928451 1_555
Co1 O4 1.928451 1_455
Co1 O5 2.071616 1_555
Co1 O5 2.071616 1_545
