# generated using pymatgen
data_Na2Mg5Zr3(SO4)12
_symmetry_space_group_name_H-M   'P 1'
_cell_length_a   17.58741526
_cell_length_b   8.79432621
_cell_length_c   22.82605754
_cell_angle_alpha   90.04212009
_cell_angle_beta   89.94072110
_cell_angle_gamma   120.01452792
_symmetry_Int_Tables_number   1
_chemical_formula_structural   Na2Mg5Zr3(SO4)12
_chemical_formula_sum   'Na6 Mg15 Zr9 S36 O144'
_cell_volume   3057.04819870
_cell_formula_units_Z   3
loop_
 _symmetry_equiv_pos_site_id
 _symmetry_equiv_pos_as_xyz
  1  'x, y, z'
loop_
 _atom_site_type_symbol
 _atom_site_label
 _atom_site_symmetry_multiplicity
 _atom_site_fract_x
 _atom_site_fract_y
 _atom_site_fract_z
 _atom_site_occupancy
  Na  Na0  1  0.00029650  0.00032144  0.50103429  1
  Na  Na1  1  0.50246936  0.00362234  0.99790625  1
  Na  Na2  1  0.33462057  0.33521866  0.83061500  1
  Na  Na3  1  0.83194159  0.33126918  0.83099212  1
  Na  Na4  1  0.33179284  0.33282379  0.33872170  1
  Na  Na5  1  0.83482842  0.33340388  0.33340526  1
  Mg  Mg0  1  0.99848377  0.00031898  0.35298571  1
  Mg  Mg1  1  0.50063921  0.00056230  0.84924745  1
  Mg  Mg2  1  0.00031659  0.00044997  0.64902171  1
  Mg  Mg3  1  0.50458555  0.00395913  0.14875852  1
  Mg  Mg4  1  0.33245898  0.33118732  0.68596410  1
  Mg  Mg5  1  0.83412448  0.33542708  0.68571749  1
  Mg  Mg6  1  0.83233342  0.33360175  0.18583641  1
  Mg  Mg7  1  0.33527607  0.33580396  0.97877299  1
  Mg  Mg8  1  0.83100462  0.33102841  0.98172449  1
  Mg  Mg9  1  0.33089249  0.33148362  0.48380212  1
  Mg  Mg10  1  0.83586146  0.33501020  0.48318417  1
  Mg  Mg11  1  0.16316276  0.65941713  0.31390407  1
  Mg  Mg12  1  0.67024131  0.67418631  0.31199790  1
  Mg  Mg13  1  0.16790354  0.66700244  0.80863022  1
  Mg  Mg14  1  0.66536491  0.66639340  0.80948216  1
  Zr  Zr0  1  0.50263072  0.00028238  0.35651313  1
  Zr  Zr1  1  0.99933110  0.99950046  0.85081401  1
  Zr  Zr2  1  0.49975843  0.99976892  0.64831431  1
  Zr  Zr3  1  0.99481011  0.99691282  0.14746195  1
  Zr  Zr4  1  0.33402789  0.33305169  0.18762560  1
  Zr  Zr5  1  0.16608561  0.66766603  0.01964847  1
  Zr  Zr6  1  0.66690821  0.66422866  0.02040218  1
  Zr  Zr7  1  0.16371852  0.66407750  0.52402499  1
  Zr  Zr8  1  0.66985750  0.66975671  0.52462298  1
  S  S0  1  0.14329354  0.99345603  0.25214756  1
  S  S1  1  0.64671968  0.99878959  0.24849081  1
  S  S2  1  0.35332302  0.71461028  0.24919796  1
  S  S3  1  0.85263764  0.70374802  0.25292857  1
  S  S4  1  0.99956909  0.29399340  0.25233595  1
  S  S5  1  0.50385100  0.29337132  0.24951868  1
  S  S6  1  0.14727843  0.29505715  0.74816134  1
  S  S7  1  0.64773641  0.29420783  0.75229137  1
  S  S8  1  0.00044720  0.70523614  0.74805733  1
  S  S9  1  0.49920693  0.70466876  0.75232196  1
  S  S10  1  0.35315827  0.00145029  0.75245030  1
  S  S11  1  0.85209409  0.99930041  0.74796168  1
  S  S12  1  0.47437354  0.33174005  0.58314729  1
  S  S13  1  0.97397094  0.32418427  0.58399215  1
  S  S14  1  0.18819141  0.05071959  0.58368686  1
  S  S15  1  0.69145923  0.05257592  0.58343773  1
  S  S16  1  0.33406349  0.61737241  0.58342337  1
  S  S17  1  0.83790135  0.62312314  0.58373293  1
  S  S18  1  0.47701659  0.62740827  0.08181727  1
  S  S19  1  0.97487709  0.61703928  0.08334235  1
  S  S20  1  0.33671934  0.04564787  0.08177000  1
  S  S21  1  0.83262175  0.05060379  0.08315413  1
  S  S22  1  0.18935125  0.33148105  0.08137837  1
  S  S23  1  0.68819927  0.32685628  0.08364343  1
  S  S24  1  0.31340101  0.66621612  0.91483131  1
  S  S25  1  0.81072382  0.66089798  0.91483058  1
  S  S26  1  0.01972299  0.37862923  0.91492714  1
  S  S27  1  0.51960680  0.37289615  0.91471356  1
  S  S28  1  0.16938884  0.96054673  0.91475689  1
  S  S29  1  0.66692073  0.96025714  0.91496010  1
  S  S30  1  0.30940652  0.95879705  0.41518543  1
  S  S31  1  0.81299823  0.96093138  0.41509170  1
  S  S32  1  0.16729156  0.37404979  0.41506628  1
  S  S33  1  0.67085396  0.38288159  0.41550129  1
  S  S34  1  0.01960745  0.66620519  0.41489245  1
  S  S35  1  0.52054154  0.65766944  0.41565952  1
  O  O0  1  0.10564998  0.03208444  0.30290601  1
  O  O1  1  0.60288683  0.02887213  0.30231224  1
  O  O2  1  0.41021994  0.78983694  0.30238118  1
  O  O3  1  0.91085358  0.79055887  0.30267859  1
  O  O4  1  0.48405638  0.17884578  0.30249454  1
  O  O5  1  0.98494721  0.17893007  0.30253382  1
  O  O6  1  0.10444733  0.17909442  0.80271704  1
  O  O7  1  0.60544584  0.17969121  0.80296002  1
  O  O8  1  0.48422924  0.78907729  0.80305279  1
  O  O9  1  0.98525355  0.79110214  0.80267665  1
  O  O10  1  0.41016706  0.03097125  0.80312752  1
  O  O11  1  0.91032086  0.02984048  0.80258980  1
  O  O12  1  0.39594153  0.97445333  0.69808658  1
  O  O13  1  0.89541453  0.97333191  0.69762421  1
  O  O14  1  0.09133737  0.20932024  0.69772378  1
  O  O15  1  0.59128815  0.20775999  0.69798158  1
  O  O16  1  0.01337382  0.81719249  0.69765984  1
  O  O17  1  0.51259441  0.81756034  0.69802768  1
  O  O18  1  0.39561873  0.81757369  0.19692791  1
  O  O19  1  0.89593465  0.81697750  0.19812131  1
  O  O20  1  0.01302282  0.20692106  0.19769954  1
  O  O21  1  0.51240450  0.20921295  0.19709264  1
  O  O22  1  0.09234052  0.97455789  0.19735678  1
  O  O23  1  0.59079723  0.97234249  0.19769696  1
  O  O24  1  0.43785079  0.36349125  0.63581383  1
  O  O25  1  0.93775514  0.36069909  0.63605171  1
  O  O26  1  0.24259045  0.12416688  0.63576874  1
  O  O27  1  0.74387626  0.12453618  0.63604723  1
  O  O28  1  0.31851397  0.51230884  0.63596803  1
  O  O29  1  0.81917177  0.51450594  0.63582431  1
  O  O30  1  0.43678848  0.51497865  0.13559420  1
  O  O31  1  0.93805811  0.51281802  0.13616257  1
  O  O32  1  0.32020574  0.12513164  0.13555526  1
  O  O33  1  0.81880633  0.12490831  0.13632019  1
  O  O34  1  0.24349211  0.36188202  0.13553762  1
  O  O35  1  0.74199535  0.36046969  0.13605220  1
  O  O36  1  0.23005057  0.30492824  0.03049184  1
  O  O37  1  0.72789127  0.30284184  0.03039808  1
  O  O38  1  0.42254736  0.54224795  0.03076511  1
  O  O39  1  0.92348916  0.54267308  0.03027655  1
  O  O40  1  0.34811515  0.15378630  0.03057399  1
  O  O41  1  0.84853038  0.15490318  0.03032781  1
  O  O42  1  0.22791945  0.15266006  0.53011986  1
  O  O43  1  0.72887721  0.15376919  0.52999775  1
  O  O44  1  0.34863057  0.54312992  0.53020643  1
  O  O45  1  0.84797875  0.54352385  0.52988962  1
  O  O46  1  0.42326489  0.30442010  0.52985970  1
  O  O47  1  0.92350562  0.30253366  0.53032512  1
  O  O48  1  0.27009443  0.69237926  0.96983812  1
  O  O49  1  0.77132471  0.69263962  0.96917411  1
  O  O50  1  0.07548200  0.45889159  0.96939324  1
  O  O51  1  0.57527943  0.45826942  0.96960457  1
  O  O52  1  0.15406780  0.84980189  0.96931306  1
  O  O53  1  0.65375388  0.84807648  0.96973766  1
  O  O54  1  0.27189919  0.84969385  0.46862160  1
  O  O55  1  0.77023850  0.84781375  0.46906263  1
  O  O56  1  0.15400878  0.45876586  0.46895798  1
  O  O57  1  0.65288055  0.45779464  0.46887651  1
  O  O58  1  0.07568635  0.69344738  0.46884042  1
  O  O59  1  0.57543196  0.69295175  0.46898579  1
  O  O60  1  0.06155118  0.63956576  0.36353320  1
  O  O61  1  0.56173652  0.63620071  0.36327370  1
  O  O62  1  0.25692518  0.87678249  0.36295020  1
  O  O63  1  0.75760030  0.87647754  0.36392821  1
  O  O64  1  0.18127563  0.48452841  0.36351107  1
  O  O65  1  0.68095703  0.48633460  0.36321340  1
  O  O66  1  0.06248704  0.48826255  0.86430058  1
  O  O67  1  0.56171096  0.48463278  0.86424708  1
  O  O68  1  0.18174344  0.87585980  0.86418549  1
  O  O69  1  0.68051476  0.87579923  0.86429141  1
  O  O70  1  0.25719715  0.63871477  0.86453531  1
  O  O71  1  0.75639218  0.63666168  0.86399738  1
  O  O72  1  0.01223535  0.82593096  0.40972343  1
  O  O73  1  0.51181586  0.81938780  0.40844602  1
  O  O74  1  0.39877931  0.97610878  0.40717278  1
  O  O75  1  0.90015264  0.97545780  0.41020803  1
  O  O76  1  0.08766769  0.19901625  0.40971499  1
  O  O77  1  0.58952588  0.20444402  0.40851772  1
  O  O78  1  0.01258262  0.20284581  0.90948533  1
  O  O79  1  0.51186341  0.19803512  0.91076408  1
  O  O80  1  0.08896553  0.97554623  0.90948512  1
  O  O81  1  0.58703321  0.97542750  0.91086091  1
  O  O82  1  0.40060783  0.82576651  0.91098487  1
  O  O83  1  0.89898684  0.82216116  0.90908641  1
  O  O84  1  0.48806246  0.17834889  0.59131841  1
  O  O85  1  0.98840486  0.17359199  0.59024174  1
  O  O86  1  0.09859403  0.02278841  0.59015810  1
  O  O87  1  0.60096961  0.02431784  0.59140366  1
  O  O88  1  0.41124388  0.79803348  0.59157089  1
  O  O89  1  0.91287137  0.80281430  0.59012419  1
  O  O90  1  0.48718092  0.80161294  0.09078268  1
  O  O91  1  0.98886024  0.79870257  0.09207894  1
  O  O92  1  0.41298841  0.02353025  0.09097073  1
  O  O93  1  0.91068250  0.02468386  0.09117686  1
  O  O94  1  0.10141580  0.17692995  0.09156893  1
  O  O95  1  0.59840086  0.17446801  0.09026656  1
  O  O96  1  0.34553615  0.15938416  0.74287785  1
  O  O97  1  0.84583004  0.16025450  0.74351207  1
  O  O98  1  0.23428844  0.30864843  0.74365032  1
  O  O99  1  0.73430583  0.30905948  0.74270003  1
  O  O100  1  0.42017419  0.53141853  0.74269766  1
  O  O101  1  0.92001349  0.53149970  0.74367498  1
  O  O102  1  0.34555477  0.53372613  0.24285005  1
  O  O103  1  0.84552970  0.53169257  0.24262215  1
  O  O104  1  0.42123181  0.30913858  0.24321153  1
  O  O105  1  0.92065955  0.30886682  0.24230253  1
  O  O106  1  0.23367839  0.15777108  0.24250947  1
  O  O107  1  0.73349962  0.15921859  0.24350896  1
  O  O108  1  0.32100713  0.50831383  0.92467479  1
  O  O109  1  0.82168740  0.50751054  0.92422517  1
  O  O110  1  0.43264154  0.35668417  0.92436968  1
  O  O111  1  0.93245853  0.35786233  0.92456606  1
  O  O112  1  0.24641057  0.13509015  0.92462746  1
  O  O113  1  0.74583520  0.13442869  0.92428594  1
  O  O114  1  0.32243231  0.13663929  0.42318772  1
  O  O115  1  0.82108619  0.13476719  0.42383426  1
  O  O116  1  0.24636289  0.35682707  0.42324460  1
  O  O117  1  0.74612037  0.35650120  0.42365244  1
  O  O118  1  0.43165811  0.50659869  0.42344900  1
  O  O119  1  0.93235746  0.50838918  0.42347993  1
  O  O120  1  0.17939121  0.48892817  0.07559086  1
  O  O121  1  0.67842217  0.48757925  0.07442546  1
  O  O122  1  0.06557528  0.64254412  0.07443751  1
  O  O123  1  0.56470911  0.64199632  0.07596092  1
  O  O124  1  0.25582564  0.86969583  0.07556851  1
  O  O125  1  0.75600688  0.86954499  0.07492247  1
  O  O126  1  0.17912440  0.87055562  0.57416413  1
  O  O127  1  0.67864029  0.87068236  0.57475993  1
  O  O128  1  0.25632588  0.64253558  0.57443049  1
  O  O129  1  0.75661693  0.64214815  0.57457566  1
  O  O130  1  0.06438786  0.48619638  0.57484009  1
  O  O131  1  0.56499373  0.48820690  0.57398109  1
  O  O132  1  0.15604566  0.84393300  0.25851626  1
  O  O133  1  0.65356998  0.84299548  0.25942575  1
  O  O134  1  0.26652911  0.68993767  0.25879803  1
  O  O135  1  0.76713776  0.69100781  0.25839718  1
  O  O136  1  0.07879443  0.46539448  0.25798815  1
  O  O137  1  0.57820890  0.46708987  0.25914999  1
  O  O138  1  0.15425234  0.46437540  0.75971341  1
  O  O139  1  0.65429611  0.46518912  0.75864477  1
  O  O140  1  0.07802046  0.69112359  0.75980139  1
  O  O141  1  0.57819574  0.69172197  0.75843575  1
  O  O142  1  0.26752467  0.84364989  0.75865895  1
  O  O143  1  0.76754631  0.84393475  0.75965234  1
loop_
_geom_bond_atom_site_label_1
_geom_bond_atom_site_label_2
_geom_bond_distance
_geom_bond_site_symmetry_2
Na0 O85 2.612551 1_455
Na0 O86 2.613676 1_555
Na0 O89 2.615989 1_445
Na0 O72 2.656481 1_545
Na0 O75 2.658886 1_445
Na0 O76 2.659329 1_555
Na1 O81 2.565794 1_545
Na1 O79 2.574637 1_555
Na1 O82 2.606126 1_545
Na1 O95 2.648634 1_556
Na1 O90 2.692445 1_546
Na1 O92 2.699651 1_556
Na2 O100 2.582622 1_555
Na2 O98 2.588992 1_555
Na2 O96 2.594314 1_555
Na2 O110 2.696083 1_555
Na2 O108 2.709799 1_555
Na2 O112 2.715962 1_555
Na3 O97 2.582820 1_555
Na3 O99 2.592201 1_555
Na3 O101 2.596634 1_555
Na3 O113 2.683464 1_555
Na3 O109 2.690312 1_555
Na3 O111 2.708423 1_555
Na4 O116 2.516951 1_555
Na4 O114 2.537944 1_555
Na4 O118 2.545195 1_555
Na4 O106 2.741510 1_555
Na4 O102 2.746982 1_555
Na4 O104 2.755117 1_555
Na5 O119 2.626701 1_555
Na5 O115 2.636766 1_555
Na5 O105 2.639775 1_555
Na5 O107 2.646679 1_555
Na5 O117 2.651158 1_555
Na5 O103 2.654538 1_555
Mg0 O5 2.056101 1_555
Mg0 O3 2.062297 1_545
Mg0 O75 2.088568 1_545
Mg0 O0 2.099144 1_655
Mg0 O76 2.109335 1_655
Mg0 O72 2.112445 1_645
Mg1 O7 2.022130 1_555
Mg1 O8 2.028543 1_545
Mg1 O10 2.034990 1_555
Mg1 O81 2.162501 1_545
Mg1 O79 2.163477 1_555
Mg1 O82 2.176350 1_545
Mg2 O14 2.057046 1_555
Mg2 O13 2.060942 1_445
Mg2 O16 2.063026 1_545
Mg2 O85 2.117858 1_455
Mg2 O86 2.118330 1_555
Mg2 O89 2.126070 1_445
Mg3 O23 2.012431 1_545
Mg3 O21 2.059966 1_555
Mg3 O95 2.068014 1_555
Mg3 O18 2.103345 1_545
Mg3 O90 2.112823 1_545
Mg3 O92 2.155659 1_555
Mg4 O26 2.060917 1_555
Mg4 O28 2.072135 1_555
Mg4 O24 2.072707 1_555
Mg4 O96 2.091543 1_555
Mg4 O98 2.099392 1_555
Mg4 O100 2.107309 1_555
Mg5 O25 2.060900 1_555
Mg5 O29 2.064948 1_555
Mg5 O27 2.073656 1_555
Mg5 O101 2.097668 1_555
Mg5 O99 2.101422 1_555
Mg5 O97 2.115841 1_555
Mg6 O35 2.061849 1_555
Mg6 O33 2.064742 1_555
Mg6 O31 2.072077 1_555
Mg6 O103 2.088449 1_555
Mg6 O107 2.106578 1_555
Mg6 O105 2.112897 1_555
Mg7 O110 2.046829 1_555
Mg7 O38 2.067173 1_556
Mg7 O108 2.067301 1_555
Mg7 O112 2.080087 1_555
Mg7 O40 2.091972 1_556
Mg7 O36 2.094160 1_556
Mg8 O37 2.032511 1_556
Mg8 O41 2.050803 1_556
Mg8 O39 2.076092 1_556
Mg8 O113 2.088487 1_555
Mg8 O109 2.101469 1_555
Mg8 O111 2.125108 1_555
Mg9 O42 2.004976 1_555
Mg9 O44 2.024980 1_555
Mg9 O46 2.047422 1_555
Mg9 O116 2.122909 1_555
Mg9 O114 2.148136 1_555
Mg9 O118 2.162836 1_555
Mg10 O47 2.014891 1_555
Mg10 O45 2.037453 1_555
Mg10 O43 2.054425 1_555
Mg10 O119 2.114658 1_555
Mg10 O115 2.131512 1_555
Mg10 O117 2.162541 1_555
Mg11 O60 2.047303 1_555
Mg11 O136 2.051825 1_555
Mg11 O64 2.059772 1_555
Mg11 O132 2.110394 1_555
Mg11 O134 2.113473 1_555
Mg11 O62 2.115145 1_555
Mg12 O135 2.041253 1_555
Mg12 O133 2.041752 1_555
Mg12 O63 2.048590 1_555
Mg12 O137 2.108010 1_555
Mg12 O65 2.108594 1_555
Mg12 O61 2.116921 1_555
Mg13 O138 2.012315 1_555
Mg13 O142 2.014853 1_555
Mg13 O140 2.031183 1_555
Mg13 O70 2.133556 1_555
Mg13 O68 2.142654 1_555
Mg13 O66 2.146028 1_555
Mg14 O141 2.025669 1_555
Mg14 O143 2.037737 1_555
Mg14 O139 2.041635 1_555
Mg14 O67 2.126978 1_555
Mg14 O69 2.129325 1_555
Mg14 O71 2.145505 1_555
O0 S0 1.455660 1_545
O1 S1 1.541160 1_545
O1 Zr0 2.062842 1_555
O2 S2 1.500583 1_555
O2 Zr0 2.141257 1_565
O3 S3 1.462824 1_555
O4 S5 1.499323 1_555
O4 Zr0 2.147082 1_555
O5 S4 1.464153 1_555
O6 S6 1.545830 1_555
O6 Zr1 2.048119 1_445
O7 S7 1.468211 1_555
O8 S9 1.468020 1_555
O9 S8 1.547838 1_655
O9 Zr1 2.042339 1_555
O10 S10 1.467079 1_555
O11 S11 1.550061 1_545
O11 Zr1 2.038486 1_545
O12 S10 1.529301 1_565
O12 Zr2 2.064826 1_555
O13 S11 1.457646 1_555
O14 S6 1.456323 1_555
O15 S7 1.531817 1_555
O15 Zr2 2.068176 1_545
O16 S8 1.456584 1_555
O17 S9 1.531134 1_555
O17 Zr2 2.066747 1_555
O18 S2 1.456943 1_555
O19 S3 1.542003 1_555
O19 Zr3 2.027495 1_555
O20 S4 1.541734 1_455
O20 Zr3 2.057755 1_445
O21 S5 1.453326 1_555
O22 S0 1.499277 1_555
O22 Zr3 2.149366 1_455
O23 S1 1.462464 1_555
O24 S12 1.453661 1_555
O25 S13 1.457191 1_555
O26 S14 1.459055 1_555
O27 S15 1.452566 1_555
O28 S16 1.454368 1_555
O29 S17 1.456307 1_555
O30 S18 1.511658 1_555
O30 Zr4 2.083790 1_555
O31 S19 1.455777 1_555
O32 S20 1.510405 1_555
O32 Zr4 2.089964 1_555
O33 S21 1.454603 1_555
O34 S22 1.501238 1_555
O34 Zr4 2.102750 1_555
O35 S23 1.461392 1_555
O36 S22 1.442625 1_555
O37 S23 1.467797 1_555
O38 S18 1.455965 1_555
O39 S19 1.456541 1_555
O40 S20 1.456254 1_555
O41 S21 1.455263 1_555
O42 S14 1.469740 1_555
O43 S15 1.458440 1_555
O44 S16 1.460495 1_555
O45 S17 1.467776 1_555
O46 S12 1.459782 1_555
O47 S13 1.468839 1_555
O48 S24 1.543527 1_555
O48 Zr5 2.069882 1_556
O49 S25 1.512617 1_555
O49 Zr6 2.083061 1_556
O50 S26 1.521285 1_555
O50 Zr5 2.073600 1_556
O51 S27 1.535571 1_555
O51 Zr6 2.074308 1_556
O52 S28 1.520020 1_555
O52 Zr5 2.066962 1_556
O53 S29 1.537192 1_555
O53 Zr6 2.093458 1_556
O54 S30 1.486731 1_555
O54 Zr7 2.185137 1_555
O55 S31 1.524563 1_555
O55 Zr8 2.099947 1_555
O56 S32 1.514939 1_555
O56 Zr7 2.134915 1_555
O57 S33 1.491539 1_555
O57 Zr8 2.150244 1_555
O58 S34 1.520602 1_555
O58 Zr7 2.110714 1_555
O59 S35 1.487307 1_555
O59 Zr8 2.180833 1_555
O60 S34 1.464281 1_555
O61 S35 1.457785 1_555
O62 S30 1.459039 1_555
O63 S31 1.463532 1_555
O64 S32 1.466749 1_555
O65 S33 1.457134 1_555
O66 S26 1.450880 1_555
O67 S27 1.453568 1_555
O68 S28 1.447244 1_555
O69 S29 1.456814 1_555
O70 S24 1.454783 1_555
O71 S25 1.450183 1_555
O72 S34 1.478628 1_555
O73 S35 1.513959 1_555
O73 Zr0 2.054845 1_565
O74 S30 1.512394 1_555
O74 Zr0 2.079883 1_565
O75 S31 1.477176 1_555
O76 S32 1.479512 1_555
O77 S33 1.512739 1_555
O77 Zr0 2.055204 1_555
O78 S26 1.492155 1_555
O78 Zr1 2.150813 1_445
O79 S27 1.477079 1_555
O80 S28 1.489816 1_555
O80 Zr1 2.158726 1_455
O81 S29 1.479338 1_555
O82 S24 1.475051 1_555
O83 S25 1.495180 1_555
O83 Zr1 2.135575 1_555
O84 S12 1.495944 1_555
O84 Zr2 2.127930 1_545
O85 S13 1.474928 1_555
O86 S14 1.475666 1_555
O87 S15 1.493793 1_555
O87 Zr2 2.124581 1_545
O88 S16 1.497966 1_555
O88 Zr2 2.118092 1_555
O89 S17 1.473959 1_555
O90 S18 1.465102 1_555
O91 S19 1.503050 1_555
O91 Zr3 2.112374 1_555
O92 S20 1.463864 1_555
O93 S21 1.511284 1_555
O93 Zr3 2.065275 1_545
O94 S22 1.479884 1_555
O94 Zr3 2.162824 1_445
O95 S23 1.481710 1_555
O96 S10 1.477023 1_555
O97 S11 1.477257 1_545
O98 S6 1.477617 1_555
O99 S7 1.477668 1_555
O100 S9 1.477543 1_555
O101 S8 1.477616 1_655
O102 S2 1.533764 1_555
O102 Zr4 2.093785 1_555
O103 S3 1.473357 1_555
O104 S5 1.534069 1_555
O104 Zr4 2.081683 1_555
O105 S4 1.475771 1_555
O106 S0 1.537898 1_545
O106 Zr4 2.082541 1_555
O107 S1 1.475969 1_545
O108 S24 1.477524 1_555
O109 S25 1.470895 1_555
O110 S27 1.479678 1_555
O111 S26 1.468395 1_655
O112 S28 1.470316 1_545
O113 S29 1.480228 1_545
O114 S30 1.474165 1_545
O115 S31 1.476226 1_545
O116 S32 1.484261 1_555
O117 S33 1.465792 1_555
O118 S35 1.470508 1_555
O119 S34 1.479349 1_655
O120 S22 1.486049 1_555
O120 Zr5 2.127844 1_555
O121 S23 1.521627 1_555
O121 Zr6 2.071979 1_555
O122 S19 1.509162 1_455
O122 Zr5 2.083938 1_555
O123 S18 1.488160 1_555
O123 Zr6 2.126335 1_555
O124 S20 1.495387 1_565
O124 Zr5 2.114814 1_555
O125 S21 1.496641 1_565
O125 Zr6 2.105847 1_555
O126 S14 1.526388 1_565
O126 Zr7 2.045941 1_555
O127 S15 1.512519 1_565
O127 Zr8 2.044558 1_555
O128 S16 1.504555 1_555
O128 Zr7 2.079737 1_555
O129 S17 1.534716 1_555
O129 Zr8 2.015441 1_555
O130 S13 1.528219 1_455
O130 Zr7 2.027036 1_555
O131 S12 1.510970 1_555
O131 Zr8 2.066963 1_555
O132 S0 1.447733 1_555
O133 S1 1.455922 1_555
O134 S2 1.446810 1_555
O135 S3 1.456157 1_555
O136 S4 1.459146 1_455
O137 S5 1.447019 1_555
O138 S6 1.455537 1_555
O139 S7 1.456542 1_555
O140 S8 1.455617 1_555
O141 S9 1.456368 1_555
O142 S10 1.457074 1_565
O143 S11 1.454750 1_555
