# generated using pymatgen
data_Na3LaSiSn(PO6)2
_symmetry_space_group_name_H-M   'P 1'
_cell_length_a   16.24613389
_cell_length_b   9.42026247
_cell_length_c   9.44540782
_cell_angle_alpha   90.00000000
_cell_angle_beta   125.97916357
_cell_angle_gamma   90.00000000
_symmetry_Int_Tables_number   1
_chemical_formula_structural   Na3LaSiSn(PO6)2
_chemical_formula_sum   'Na12 La4 Si4 Sn4 P8 O48'
_cell_volume   1169.78512427
_cell_formula_units_Z   4
loop_
 _symmetry_equiv_pos_site_id
 _symmetry_equiv_pos_as_xyz
  1  'x, y, z'
loop_
 _atom_site_type_symbol
 _atom_site_label
 _atom_site_symmetry_multiplicity
 _atom_site_fract_x
 _atom_site_fract_y
 _atom_site_fract_z
 _atom_site_occupancy
  Na  Na0  1  0.25442188  0.71975169  0.01125080  1
  Na  Na1  1  0.75442188  0.78024831  0.51125080  1
  Na  Na2  1  0.75442188  0.21975169  0.01125080  1
  Na  Na3  1  0.25442188  0.28024831  0.51125080  1
  Na  Na4  1  0.50869260  0.10152814  0.76000409  1
  Na  Na5  1  0.50869260  0.89847186  0.26000409  1
  Na  Na6  1  0.00869260  0.60152814  0.76000409  1
  Na  Na7  1  0.00869260  0.39847186  0.26000409  1
  Na  Na8  1  0.18407546  0.92677243  0.30284195  1
  Na  Na9  1  0.18407546  0.07322757  0.80284195  1
  Na  Na10  1  0.68407546  0.42677243  0.30284195  1
  Na  Na11  1  0.68407546  0.57322757  0.80284195  1
  La  La0  1  0.10849469  0.74447966  0.57209532  1
  La  La1  1  0.10849469  0.25552034  0.07209532  1
  La  La2  1  0.60849469  0.24447966  0.57209532  1
  La  La3  1  0.60849469  0.75552034  0.07209532  1
  Si  Si0  1  0.65020496  0.87761299  0.74382993  1
  Si  Si1  1  0.65020496  0.12238701  0.24382993  1
  Si  Si2  1  0.15020496  0.37761299  0.74382993  1
  Si  Si3  1  0.15020496  0.62238701  0.24382993  1
  Sn  Sn0  1  0.89934714  0.75960977  0.93907777  1
  Sn  Sn1  1  0.89934714  0.24039023  0.43907777  1
  Sn  Sn2  1  0.39934714  0.25960977  0.93907777  1
  Sn  Sn3  1  0.39934714  0.74039023  0.43907777  1
  P  P0  1  0.98912724  0.95851126  0.75334485  1
  P  P1  1  0.98912724  0.04148874  0.25334485  1
  P  P2  1  0.48912724  0.45851126  0.75334485  1
  P  P3  1  0.48912724  0.54148874  0.25334485  1
  P  P4  1  0.35498666  0.92605346  0.74935594  1
  P  P5  1  0.35498666  0.07394654  0.24935594  1
  P  P6  1  0.85498666  0.42605346  0.74935594  1
  P  P7  1  0.85498666  0.57394654  0.24935594  1
  O  O0  1  0.15618882  0.54962004  0.76410026  1
  O  O1  1  0.85684697  0.59458846  0.74396985  1
  O  O2  1  0.85684697  0.40541154  0.24396985  1
  O  O3  1  0.15618882  0.45037996  0.26410026  1
  O  O4  1  0.65618882  0.04962004  0.76410026  1
  O  O5  1  0.35684697  0.09458846  0.74396985  1
  O  O6  1  0.35684697  0.90541154  0.24396985  1
  O  O7  1  0.65618882  0.95037996  0.26410026  1
  O  O8  1  0.43264228  0.55793213  0.58855542  1
  O  O9  1  0.54959063  0.53953463  0.92441738  1
  O  O10  1  0.54959063  0.46046537  0.42441738  1
  O  O11  1  0.43264228  0.44206787  0.08855542  1
  O  O12  1  0.93264228  0.05793213  0.58855542  1
  O  O13  1  0.04959063  0.03953463  0.92441738  1
  O  O14  1  0.04959063  0.96046537  0.42441738  1
  O  O15  1  0.93264228  0.94206787  0.08855542  1
  O  O16  1  0.26189527  0.88405375  0.74562734  1
  O  O17  1  0.74669272  0.80268383  0.75360872  1
  O  O18  1  0.74669272  0.19731617  0.25360872  1
  O  O19  1  0.26189527  0.11594625  0.24562734  1
  O  O20  1  0.76189527  0.38405375  0.74562734  1
  O  O21  1  0.24669272  0.30268383  0.75360872  1
  O  O22  1  0.24669272  0.69731617  0.25360872  1
  O  O23  1  0.76189527  0.61594625  0.24562734  1
  O  O24  1  0.35097744  0.87696028  0.58544103  1
  O  O25  1  0.65008295  0.80447340  0.89687659  1
  O  O26  1  0.65008295  0.19552660  0.39687659  1
  O  O27  1  0.35097744  0.12303972  0.08544103  1
  O  O28  1  0.85097744  0.37696028  0.58544103  1
  O  O29  1  0.15008295  0.30447340  0.89687659  1
  O  O30  1  0.15008295  0.69552660  0.39687659  1
  O  O31  1  0.85097744  0.62303972  0.08544103  1
  O  O32  1  0.45200393  0.87541535  0.92038347  1
  O  O33  1  0.54412877  0.82072913  0.55217706  1
  O  O34  1  0.54412877  0.17927087  0.05217706  1
  O  O35  1  0.45200393  0.12458465  0.42038347  1
  O  O36  1  0.95200393  0.37541535  0.92038347  1
  O  O37  1  0.04412877  0.32072913  0.55217706  1
  O  O38  1  0.04412877  0.67927087  0.05217706  1
  O  O39  1  0.95200393  0.62458465  0.42038347  1
  O  O40  1  0.06369054  0.85856405  0.74895675  1
  O  O41  1  0.90590907  0.86549498  0.74408550  1
  O  O42  1  0.90590907  0.13450502  0.24408550  1
  O  O43  1  0.06369054  0.14143595  0.24895675  1
  O  O44  1  0.56369054  0.35856405  0.74895675  1
  O  O45  1  0.40590907  0.36549498  0.74408550  1
  O  O46  1  0.40590907  0.63450502  0.24408550  1
  O  O47  1  0.56369054  0.64143595  0.24895675  1
loop_
_geom_bond_atom_site_label_1
_geom_bond_atom_site_label_2
_geom_bond_distance
_geom_bond_site_symmetry_2
Na0 O46 2.275704 1_555
Na0 O22 2.374548 1_555
Na0 O0 2.487502 1_554
Na0 O6 2.522267 1_555
Na0 O40 2.903328 1_554
Na0 O16 3.010471 1_554
Na1 O41 2.275704 1_555
Na1 O17 2.374548 1_555
Na1 O7 2.487502 1_555
Na1 O1 2.522267 1_555
Na1 O47 2.903328 1_555
Na1 O23 3.010471 1_555
Na2 O42 2.275704 1_555
Na2 O18 2.374548 1_555
Na2 O4 2.487502 1_554
Na2 O2 2.522267 1_555
Na2 O44 2.903328 1_554
Na2 O20 3.010471 1_554
Na3 O45 2.275704 1_555
Na3 O21 2.374548 1_555
Na3 O3 2.487502 1_555
Na3 O5 2.522267 1_555
Na3 O43 2.903328 1_555
Na3 O19 3.010471 1_555
Na4 O5 2.381982 1_555
Na4 O4 2.423562 1_555
Na4 O34 2.572338 1_556
Na4 O44 2.604170 1_555
Na4 O35 2.777481 1_555
Na5 O6 2.381982 1_555
Na5 O7 2.423562 1_555
Na5 O33 2.572338 1_555
Na5 O47 2.604170 1_555
Na5 O32 2.777481 1_554
Na6 O1 2.381982 1_455
Na6 O0 2.423562 1_555
Na6 O38 2.572338 1_556
Na6 O40 2.604170 1_555
Na6 O39 2.777481 1_455
Na7 O2 2.381982 1_455
Na7 O3 2.423562 1_555
Na7 O37 2.572338 1_555
Na7 O43 2.604170 1_555
Na7 O36 2.777481 1_454
Na8 O19 2.422597 1_565
Na8 O24 2.488622 1_555
Na8 O30 2.532906 1_555
Na8 O22 2.545431 1_555
Na8 O43 2.646466 1_565
Na9 O16 2.422597 1_545
Na9 O27 2.488622 1_556
Na9 O29 2.532906 1_555
Na9 O21 2.545431 1_555
Na9 O40 2.646466 1_545
Na10 O23 2.422597 1_555
Na10 O28 2.488622 1_555
Na10 O26 2.532906 1_555
Na10 O18 2.545431 1_555
Na10 O47 2.646466 1_555
Na11 O20 2.422597 1_555
Na11 O31 2.488622 1_556
Na11 O25 2.532906 1_555
Na11 O17 2.545431 1_555
Na11 O44 2.646466 1_555
La0 O30 2.173039 1_555
La0 O14 2.330839 1_555
La0 O39 2.347778 1_455
La0 O0 2.368082 1_555
La0 O16 2.413836 1_555
La0 O40 2.429861 1_555
La1 O29 2.173039 1_554
La1 O13 2.330839 1_554
La1 O36 2.347778 1_454
La1 O3 2.368082 1_555
La1 O19 2.413836 1_555
La1 O43 2.429861 1_555
La2 O26 2.173039 1_555
La2 O10 2.330839 1_555
La2 O35 2.347778 1_555
La2 O4 2.368082 1_555
La2 O20 2.413836 1_555
La2 O44 2.429861 1_555
La3 O25 2.173039 1_554
La3 O9 2.330839 1_554
La3 O32 2.347778 1_554
La3 O7 2.368082 1_555
La3 O23 2.413836 1_555
La3 O47 2.429861 1_555
O0 Si2 1.627814 1_555
O1 P6 1.589315 1_555
O1 Sn0 2.189621 1_555
O2 P7 1.589315 1_555
O2 Sn1 2.189621 1_555
O3 Si3 1.627814 1_555
O4 Si0 1.627814 1_545
O5 P4 1.589315 1_545
O5 Sn2 2.189621 1_555
O6 P5 1.589315 1_565
O6 Sn3 2.189621 1_555
O7 Si1 1.627814 1_565
O8 P2 1.569615 1_555
O8 Sn3 2.083970 1_555
O9 P2 1.514418 1_555
O10 P3 1.514418 1_555
O11 P3 1.569615 1_555
O11 Sn2 2.083970 1_554
O12 P0 1.569615 1_545
O12 Sn1 2.083970 1_555
O13 P0 1.514418 1_445
O14 P1 1.514418 1_465
O15 P1 1.569615 1_565
O15 Sn0 2.083970 1_554
O16 P4 1.543526 1_555
O17 Si0 1.671484 1_555
O17 Sn0 2.068654 1_555
O18 Si1 1.671484 1_555
O18 Sn1 2.068654 1_555
O19 P5 1.543526 1_555
O20 P6 1.543526 1_555
O21 Si2 1.671484 1_555
O21 Sn2 2.068654 1_555
O22 Si3 1.671484 1_555
O22 Sn3 2.068654 1_555
O23 P7 1.543526 1_555
O24 P4 1.580091 1_555
O24 Sn3 2.336733 1_555
O25 Si0 1.602438 1_555
O26 Si1 1.602438 1_555
O27 P5 1.580091 1_555
O27 Sn2 2.336733 1_554
O28 P6 1.580091 1_555
O28 Sn1 2.336733 1_555
O29 Si2 1.602438 1_555
O30 Si3 1.602438 1_555
O31 P7 1.580091 1_555
O31 Sn0 2.336733 1_554
O32 P4 1.526343 1_555
O33 Si0 1.693652 1_555
O33 Sn3 2.072230 1_555
O34 Si1 1.693652 1_555
O34 Sn2 2.072230 1_554
O35 P5 1.526343 1_555
O36 P6 1.526343 1_555
O37 Si2 1.693652 1_555
O37 Sn1 2.072230 1_455
O38 Si3 1.693652 1_555
O38 Sn0 2.072230 1_454
O39 P7 1.526343 1_555
O40 P0 1.553896 1_455
O41 P0 1.569822 1_555
O41 Sn0 2.151549 1_555
O42 P1 1.569822 1_555
O42 Sn1 2.151549 1_555
O43 P1 1.553896 1_455
O44 P2 1.553896 1_555
O45 P2 1.569822 1_555
O45 Sn2 2.151549 1_555
O46 P3 1.569822 1_555
O46 Sn3 2.151549 1_555
O47 P3 1.553896 1_555
