# generated using pymatgen
data_Na10La2Nb6Si11SO48
_symmetry_space_group_name_H-M   'P 1'
_cell_length_a   18.42433373
_cell_length_b   9.18399418
_cell_length_c   22.90518439
_cell_angle_alpha   90.03204996
_cell_angle_beta   90.19587654
_cell_angle_gamma   119.96918917
_symmetry_Int_Tables_number   1
_chemical_formula_structural   Na10La2Nb6Si11SO48
_chemical_formula_sum   'Na30 La6 Nb18 Si33 S3 O144'
_cell_volume   3357.51948992
_cell_formula_units_Z   3
loop_
 _symmetry_equiv_pos_site_id
 _symmetry_equiv_pos_as_xyz
  1  'x, y, z'
loop_
 _atom_site_type_symbol
 _atom_site_label
 _atom_site_symmetry_multiplicity
 _atom_site_fract_x
 _atom_site_fract_y
 _atom_site_fract_z
 _atom_site_occupancy
  Na  Na0  1  0.31757060  0.98706685  0.25387575  1
  Na  Na1  1  0.81928289  0.98774806  0.25309274  1
  Na  Na2  1  0.81491286  0.64068281  0.74775815  1
  Na  Na3  1  0.18481101  0.98540528  0.74920457  1
  Na  Na4  1  0.67899956  0.00150635  0.74906370  1
  Na  Na5  1  0.01913590  0.71267049  0.58389912  1
  Na  Na6  1  0.83195546  0.95839103  0.58240670  1
  Na  Na7  1  0.64752749  0.96828447  0.08075760  1
  Na  Na8  1  0.33682107  0.71292956  0.08477886  1
  Na  Na9  1  0.83756583  0.71356590  0.08665895  1
  Na  Na10  1  0.01891168  0.32539561  0.08542333  1
  Na  Na11  1  0.51545770  0.32250595  0.08480901  1
  Na  Na12  1  0.98557751  0.65291376  0.91548350  1
  Na  Na13  1  0.34857202  0.03596100  0.91434567  1
  Na  Na14  1  0.48666531  0.32267830  0.41776421  1
  Na  Na15  1  0.98764508  0.32274379  0.41751877  1
  Na  Na16  1  0.33921921  0.65312688  0.41754250  1
  Na  Na17  1  0.84046561  0.65416202  0.41749646  1
  Na  Na18  1  0.01376746  0.01350335  0.50233248  1
  Na  Na19  1  0.50784317  0.00040656  0.50640847  1
  Na  Na20  1  0.00874514  0.01374540  0.00150766  1
  Na  Na21  1  0.50425295  0.99940291  0.99619185  1
  Na  Na22  1  0.33871869  0.36243817  0.83309759  1
  Na  Na23  1  0.83748884  0.32468951  0.83290874  1
  Na  Na24  1  0.32830558  0.33375679  0.33248962  1
  Na  Na25  1  0.82973278  0.33680625  0.33227016  1
  Na  Na26  1  0.16034833  0.64736011  0.17347320  1
  Na  Na27  1  0.66208345  0.63649222  0.17578570  1
  Na  Na28  1  0.17433200  0.67017548  0.66965067  1
  Na  Na29  1  0.65502295  0.64444668  0.66335095  1
  La  La0  1  0.99873589  0.00778982  0.64653896  1
  La  La1  1  0.00749620  0.00019893  0.14471283  1
  La  La2  1  0.49979348  0.00225062  0.14880761  1
  La  La3  1  0.16157679  0.65157193  0.32506577  1
  La  La4  1  0.66247099  0.65457905  0.32415561  1
  La  La5  1  0.17149791  0.66850194  0.82145866  1
  Nb  Nb0  1  0.99312018  0.99668288  0.35494777  1
  Nb  Nb1  1  0.49166529  0.99740966  0.35481729  1
  Nb  Nb2  1  0.98995176  0.98872995  0.85660629  1
  Nb  Nb3  1  0.50008026  0.99906359  0.85370214  1
  Nb  Nb4  1  0.50110993  0.00279675  0.64537374  1
  Nb  Nb5  1  0.34298967  0.33732651  0.68413246  1
  Nb  Nb6  1  0.83406635  0.33627717  0.68746955  1
  Nb  Nb7  1  0.33914428  0.34597650  0.18503579  1
  Nb  Nb8  1  0.84079743  0.34843489  0.18527637  1
  Nb  Nb9  1  0.33485215  0.33896079  0.97832804  1
  Nb  Nb10  1  0.82744921  0.31971760  0.97526281  1
  Nb  Nb11  1  0.33471761  0.33470153  0.48630757  1
  Nb  Nb12  1  0.82692534  0.32460159  0.48393331  1
  Nb  Nb13  1  0.16750370  0.67053668  0.01821375  1
  Nb  Nb14  1  0.66714609  0.66645250  0.01848738  1
  Nb  Nb15  1  0.17001770  0.66872843  0.52116651  1
  Nb  Nb16  1  0.66153911  0.66114856  0.52037920  1
  Nb  Nb17  1  0.65937377  0.65989101  0.81372980  1
  Si  Si0  1  0.34954195  0.69232897  0.24800393  1
  Si  Si1  1  0.85170833  0.69777222  0.24693652  1
  Si  Si2  1  0.99538098  0.29740935  0.24649331  1
  Si  Si3  1  0.49475874  0.30189747  0.24732551  1
  Si  Si4  1  0.64222746  0.28934485  0.74941715  1
  Si  Si5  1  0.99707382  0.69808145  0.74869251  1
  Si  Si6  1  0.49657504  0.71193713  0.74959936  1
  Si  Si7  1  0.35964354  0.00900933  0.74774889  1
  Si  Si8  1  0.84756360  0.99909153  0.75098595  1
  Si  Si9  1  0.48269466  0.33310936  0.58199279  1
  Si  Si10  1  0.98008863  0.34817855  0.58163856  1
  Si  Si11  1  0.19358635  0.03939777  0.58476689  1
  Si  Si12  1  0.68662682  0.03762119  0.58651685  1
  Si  Si13  1  0.33323342  0.62314229  0.58597804  1
  Si  Si14  1  0.82461811  0.61409035  0.58256340  1
  Si  Si15  1  0.48304998  0.61607122  0.08051662  1
  Si  Si16  1  0.97863515  0.61179394  0.07556979  1
  Si  Si17  1  0.32571508  0.04248154  0.08087588  1
  Si  Si18  1  0.82648017  0.04200012  0.08254722  1
  Si  Si19  1  0.19489315  0.34788341  0.07988986  1
  Si  Si20  1  0.69538832  0.34644378  0.08013928  1
  Si  Si21  1  0.32104245  0.67266046  0.91909562  1
  Si  Si22  1  0.80674584  0.65834652  0.91467349  1
  Si  Si23  1  0.01716948  0.36505054  0.91907069  1
  Si  Si24  1  0.52116385  0.37319133  0.91717793  1
  Si  Si25  1  0.16549451  0.97056066  0.91604677  1
  Si  Si26  1  0.66263561  0.95140434  0.91596108  1
  Si  Si27  1  0.31405191  0.97278498  0.41640142  1
  Si  Si28  1  0.81402918  0.96717331  0.41765980  1
  Si  Si29  1  0.16748023  0.36077351  0.42093274  1
  Si  Si30  1  0.66534723  0.36090126  0.41916238  1
  Si  Si31  1  0.01345825  0.66565574  0.42222484  1
  Si  Si32  1  0.51438361  0.66928119  0.42006059  1
  S  S0  1  0.15532358  0.01705033  0.25431238  1
  S  S1  1  0.65543580  0.01757426  0.25093548  1
  S  S2  1  0.15498895  0.28918389  0.75289186  1
  O  O0  1  0.10468937  0.02127849  0.30388582  1
  O  O1  1  0.60195698  0.01931149  0.29988847  1
  O  O2  1  0.41398001  0.80911782  0.30532952  1
  O  O3  1  0.91465344  0.80979261  0.30505468  1
  O  O4  1  0.48923966  0.16894122  0.30337879  1
  O  O5  1  0.98905012  0.16780641  0.30375827  1
  O  O6  1  0.10438362  0.18258388  0.80321587  1
  O  O7  1  0.59559998  0.16406295  0.80555804  1
  O  O8  1  0.48537668  0.80742956  0.80722727  1
  O  O9  1  0.98741783  0.80945248  0.80539842  1
  O  O10  1  0.41291607  0.02198143  0.80858686  1
  O  O11  1  0.91541147  0.02082666  0.80409187  1
  O  O12  1  0.41512004  0.99740928  0.69363485  1
  O  O13  1  0.87193167  0.94362426  0.69100016  1
  O  O14  1  0.11165151  0.21895058  0.69772241  1
  O  O15  1  0.58714338  0.19689695  0.69133643  1
  O  O16  1  0.00549407  0.79494368  0.68852015  1
  O  O17  1  0.51754820  0.84008476  0.69445533  1
  O  O18  1  0.38816368  0.78436866  0.18681987  1
  O  O19  1  0.89118700  0.79329950  0.18646282  1
  O  O20  1  0.00106170  0.21664062  0.18553798  1
  O  O21  1  0.50368932  0.22894187  0.18553425  1
  O  O22  1  0.11215296  0.99404415  0.19797136  1
  O  O23  1  0.61468105  0.99797547  0.19360695  1
  O  O24  1  0.43296813  0.35873919  0.63846150  1
  O  O25  1  0.92757926  0.35963715  0.64061284  1
  O  O26  1  0.24750544  0.13652324  0.64503615  1
  O  O27  1  0.74742449  0.13152759  0.64429613  1
  O  O28  1  0.32125819  0.49680927  0.64118240  1
  O  O29  1  0.81903254  0.50389529  0.64250165  1
  O  O30  1  0.43407169  0.50278475  0.14066460  1
  O  O31  1  0.93130456  0.49631490  0.13658288  1
  O  O32  1  0.32009453  0.13900854  0.14114870  1
  O  O33  1  0.81562403  0.13355118  0.14198319  1
  O  O34  1  0.25227352  0.36077528  0.13920803  1
  O  O35  1  0.75338844  0.36440000  0.13863535  1
  O  O36  1  0.24968897  0.34051048  0.02592869  1
  O  O37  1  0.74529244  0.33624291  0.02304960  1
  O  O38  1  0.42441445  0.50525335  0.02740259  1
  O  O39  1  0.91998411  0.50608368  0.02057335  1
  O  O40  1  0.33733759  0.15932978  0.02441810  1
  O  O41  1  0.82662370  0.15581195  0.02761354  1
  O  O42  1  0.25125410  0.16373187  0.53259672  1
  O  O43  1  0.73827622  0.15229751  0.53068296  1
  O  O44  1  0.34673004  0.53356010  0.52859075  1
  O  O45  1  0.82799450  0.50609486  0.52795836  1
  O  O46  1  0.42849457  0.31862440  0.52434455  1
  O  O47  1  0.92276750  0.34315107  0.52683878  1
  O  O48  1  0.26572825  0.69906179  0.97266882  1
  O  O49  1  0.76344102  0.68883802  0.97322498  1
  O  O50  1  0.08202659  0.46477560  0.97486075  1
  O  O51  1  0.58105134  0.47017012  0.97510543  1
  O  O52  1  0.15027600  0.82545746  0.96707743  1
  O  O53  1  0.65304993  0.83499162  0.97454246  1
  O  O54  1  0.26104241  0.82801756  0.46691344  1
  O  O55  1  0.76341173  0.83029587  0.47058186  1
  O  O56  1  0.14904270  0.46896335  0.47210867  1
  O  O57  1  0.64823878  0.46955189  0.47107267  1
  O  O58  1  0.08024320  0.69430135  0.47638218  1
  O  O59  1  0.58208874  0.69511216  0.47347979  1
  O  O60  1  0.03664105  0.59043659  0.36677447  1
  O  O61  1  0.53752568  0.59501091  0.36470113  1
  O  O62  1  0.27134977  0.92174634  0.35359742  1
  O  O63  1  0.77070025  0.91876589  0.35494834  1
  O  O64  1  0.20523892  0.47918560  0.36459819  1
  O  O65  1  0.70349452  0.48019152  0.36341647  1
  O  O66  1  0.04483501  0.48970647  0.86446974  1
  O  O67  1  0.57041950  0.49691127  0.86164061  1
  O  O68  1  0.19511204  0.92610300  0.85596403  1
  O  O69  1  0.67293800  0.85287183  0.85997463  1
  O  O70  1  0.27005559  0.62090075  0.85942713  1
  O  O71  1  0.74951653  0.64001426  0.85778025  1
  O  O72  1  0.00729274  0.83767415  0.41002820  1
  O  O73  1  0.50814682  0.84104662  0.41023118  1
  O  O74  1  0.40737591  0.97579368  0.41110912  1
  O  O75  1  0.90768475  0.97415416  0.41114129  1
  O  O76  1  0.07768476  0.18569110  0.40948740  1
  O  O77  1  0.57551332  0.18581517  0.40917133  1
  O  O78  1  0.01045359  0.18028023  0.90831395  1
  O  O79  1  0.51311936  0.18895557  0.90915018  1
  O  O80  1  0.07477582  0.96610367  0.91052924  1
  O  O81  1  0.58015613  0.97198666  0.90845794  1
  O  O82  1  0.40903259  0.85554277  0.91484294  1
  O  O83  1  0.90197557  0.82975108  0.90735997  1
  O  O84  1  0.49206582  0.16697438  0.58914512  1
  O  O85  1  0.97930005  0.17308012  0.57722087  1
  O  O86  1  0.09948075  0.00639938  0.57932800  1
  O  O87  1  0.59474559  0.01983621  0.59120065  1
  O  O88  1  0.41593276  0.81019313  0.59473800  1
  O  O89  1  0.90862464  0.79596643  0.57811014  1
  O  O90  1  0.49507355  0.80130048  0.07761090  1
  O  O91  1  0.98119915  0.78872012  0.07395192  1
  O  O92  1  0.40722368  0.01764246  0.07850502  1
  O  O93  1  0.90842505  0.02283201  0.07767546  1
  O  O94  1  0.10036710  0.19515734  0.07527835  1
  O  O95  1  0.60391315  0.18085692  0.07782132  1
  O  O96  1  0.35369361  0.18434891  0.74182795  1
  O  O97  1  0.83829412  0.16802466  0.74725526  1
  O  O98  1  0.23600050  0.28638505  0.75316896  1
  O  O99  1  0.73563541  0.30626285  0.74261044  1
  O  O100  1  0.41428712  0.52545003  0.74095260  1
  O  O101  1  0.90512444  0.51741244  0.74745344  1
  O  O102  1  0.34657405  0.50936256  0.24608495  1
  O  O103  1  0.84806919  0.51324711  0.24459861  1
  O  O104  1  0.40012315  0.28432778  0.24724681  1
  O  O105  1  0.90119173  0.28556838  0.24597464  1
  O  O106  1  0.23639493  0.17799031  0.25282919  1
  O  O107  1  0.73612138  0.17808876  0.25195833  1
  O  O108  1  0.34111209  0.52190091  0.93201365  1
  O  O109  1  0.82689848  0.50398173  0.91943532  1
  O  O110  1  0.42560723  0.34094044  0.92151737  1
  O  O111  1  0.92152989  0.33088108  0.93063956  1
  O  O112  1  0.24540113  0.15473447  0.93164993  1
  O  O113  1  0.74651402  0.13777465  0.92125280  1
  O  O114  1  0.34067003  0.16746239  0.42991898  1
  O  O115  1  0.84005585  0.16156463  0.43171092  1
  O  O116  1  0.24412369  0.32758661  0.43823486  1
  O  O117  1  0.74007519  0.32083762  0.43357910  1
  O  O118  1  0.41896947  0.51731247  0.43362458  1
  O  O119  1  0.91548302  0.51589942  0.43414040  1
  O  O120  1  0.19244966  0.52596653  0.07699307  1
  O  O121  1  0.68940475  0.51987020  0.07705488  1
  O  O122  1  0.06929263  0.61823961  0.07493857  1
  O  O123  1  0.57397174  0.62307330  0.07814082  1
  O  O124  1  0.24048948  0.85570742  0.07480272  1
  O  O125  1  0.74015510  0.85567089  0.07641996  1
  O  O126  1  0.18858636  0.85542729  0.57607657  1
  O  O127  1  0.68407986  0.85634968  0.57721586  1
  O  O128  1  0.24815157  0.63648677  0.57425586  1
  O  O129  1  0.74222065  0.63838718  0.57734706  1
  O  O130  1  0.07198434  0.52016059  0.57909055  1
  O  O131  1  0.57386157  0.50666437  0.57683756  1
  O  O132  1  0.17178139  0.87575801  0.25839651  1
  O  O133  1  0.67109156  0.87590659  0.25577528  1
  O  O134  1  0.26223697  0.68916962  0.25412382  1
  O  O135  1  0.76305126  0.68997052  0.25296114  1
  O  O136  1  0.07020643  0.48660105  0.25177568  1
  O  O137  1  0.57015548  0.48983337  0.25253868  1
  O  O138  1  0.17048989  0.46109291  0.75572014  1
  O  O139  1  0.65672836  0.48127561  0.75696560  1
  O  O140  1  0.07919075  0.68110354  0.75354499  1
  O  O141  1  0.58200537  0.69568065  0.75866002  1
  O  O142  1  0.26521719  0.85402197  0.74436341  1
  O  O143  1  0.75432478  0.83674332  0.76558716  1
loop_
_geom_bond_atom_site_label_1
_geom_bond_atom_site_label_2
_geom_bond_distance
_geom_bond_site_symmetry_2
Na0 O132 2.351472 1_555
Na0 O104 2.375529 1_565
Na0 O134 2.395395 1_555
Na0 O62 2.409737 1_555
Na1 O105 2.379821 1_565
Na1 O133 2.390161 1_555
Na1 O135 2.392011 1_555
Na1 O63 2.468794 1_555
Na2 O101 2.433980 1_555
Na2 O139 2.534469 1_555
Na2 O143 2.581774 1_555
Na2 O99 2.663990 1_555
Na2 O29 2.736713 1_555
Na2 O13 2.761840 1_555
Na2 O71 2.795703 1_555
Na3 O142 2.334461 1_555
Na3 O98 2.435793 1_565
Na3 O140 2.485028 1_555
Na3 O68 2.532576 1_555
Na3 O96 2.715273 1_565
Na3 O26 2.715572 1_565
Na4 O99 2.455219 1_555
Na4 O141 2.473748 1_545
Na4 O143 2.540495 1_545
Na4 O97 2.543784 1_555
Na4 O27 2.700701 1_555
Na4 O17 2.859631 1_545
Na4 O69 2.860626 1_545
Na4 O7 2.927055 1_555
Na5 O86 2.343321 1_565
Na5 O130 2.409667 1_555
Na5 O89 2.510555 1_455
Na5 O16 2.562906 1_555
Na5 O126 2.722625 1_555
Na5 O58 2.751208 1_555
Na6 O127 2.400439 1_555
Na6 O85 2.434395 1_565
Na6 O89 2.517187 1_555
Na6 O129 2.554990 1_555
Na6 O13 2.614469 1_555
Na6 O55 2.833664 1_555
Na7 O125 2.399262 1_555
Na7 O90 2.437552 1_555
Na7 O95 2.455334 1_565
Na7 O23 2.701247 1_555
Na7 O53 2.747838 1_554
Na7 O123 2.756517 1_555
Na8 O120 2.342819 1_555
Na8 O92 2.431010 1_565
Na8 O18 2.480166 1_555
Na8 O90 2.612697 1_555
Na8 O124 2.691546 1_555
Na8 O48 2.852364 1_554
Na9 O91 2.396855 1_555
Na9 O121 2.410085 1_555
Na9 O19 2.449097 1_555
Na9 O93 2.472224 1_565
Na9 O125 2.704973 1_555
Na9 O49 2.886643 1_554
Na10 O94 2.352112 1_555
Na10 O122 2.379220 1_555
Na10 O20 2.458419 1_555
Na10 O93 2.498493 1_455
Na10 O120 2.788149 1_555
Na10 O50 2.817933 1_554
Na10 O31 2.997452 1_455
Na11 O123 2.415340 1_555
Na11 O21 2.434695 1_555
Na11 O92 2.501228 1_555
Na11 O95 2.548274 1_555
Na11 O121 2.790827 1_555
Na11 O51 2.828585 1_554
Na12 O80 2.503203 1_655
Na12 O109 2.536352 1_555
Na12 O66 2.538841 1_655
Na12 O111 2.603319 1_555
Na12 O39 2.732845 1_556
Na12 O83 2.746346 1_555
Na12 O52 2.878358 1_655
Na12 O9 2.895166 1_555
Na13 O82 2.414643 1_545
Na13 O110 2.431633 1_555
Na13 O79 2.631793 1_555
Na13 O112 2.652629 1_555
Na13 O10 2.731552 1_555
Na13 O40 2.813867 1_556
Na13 O68 2.814779 1_545
Na13 O48 2.998004 1_545
Na14 O114 2.349398 1_555
Na14 O61 2.506096 1_555
Na14 O77 2.521093 1_555
Na14 O46 2.662300 1_555
Na14 O118 2.666948 1_555
Na14 O74 2.766743 1_545
Na14 O57 2.851988 1_555
Na14 O4 2.987287 1_555
Na15 O115 2.382485 1_555
Na15 O60 2.450131 1_655
Na15 O76 2.541282 1_655
Na15 O119 2.723695 1_555
Na15 O75 2.779736 1_545
Na15 O47 2.824479 1_555
Na15 O56 2.862260 1_655
Na15 O5 2.974601 1_555
Na16 O118 2.382922 1_555
Na16 O64 2.480670 1_555
Na16 O74 2.581503 1_555
Na16 O116 2.647060 1_555
Na16 O73 2.707563 1_555
Na16 O44 2.801305 1_555
Na16 O54 2.872934 1_555
Na16 O2 2.934750 1_555
Na17 O119 2.327750 1_555
Na17 O65 2.530584 1_555
Na17 O75 2.560675 1_555
Na17 O72 2.673143 1_655
Na17 O117 2.697609 1_555
Na17 O45 2.828304 1_555
Na17 O55 2.900783 1_555
Na17 O3 2.936116 1_555
Na18 O86 2.385887 1_555
Na18 O85 2.535337 1_455
Na18 O76 2.563293 1_555
Na18 O72 2.625623 1_545
Na18 O89 2.630026 1_445
Na18 O75 2.753023 1_445
Na19 O87 2.461788 1_555
Na19 O84 2.541819 1_555
Na19 O73 2.645699 1_545
Na19 O88 2.661685 1_545
Na19 O77 2.704946 1_555
Na19 O74 2.792146 1_545
Na20 O94 2.376577 1_555
Na20 O91 2.498739 1_445
Na20 O80 2.561670 1_544
Na20 O93 2.577409 1_455
Na20 O78 2.617792 1_554
Na20 O83 2.832210 1_444
Na21 O82 2.440186 1_555
Na21 O81 2.535327 1_555
Na21 O90 2.552484 1_556
Na21 O95 2.561355 1_566
Na21 O79 2.598865 1_565
Na21 O92 2.664682 1_566
Na22 O98 2.464847 1_555
Na22 O100 2.564290 1_555
Na22 O110 2.645283 1_555
Na22 O108 2.685360 1_555
Na22 O96 2.751829 1_555
Na22 O112 2.906061 1_555
Na23 O97 2.436770 1_555
Na23 O101 2.516729 1_555
Na23 O109 2.645253 1_555
Na23 O113 2.646397 1_555
Na23 O111 2.701859 1_555
Na23 O99 2.735663 1_555
Na24 O106 2.408130 1_555
Na24 O102 2.469208 1_555
Na24 O104 2.527045 1_555
Na24 O114 2.777141 1_555
Na24 O118 2.855561 1_555
Na24 O116 2.865914 1_555
Na25 O107 2.438650 1_555
Na25 O103 2.496774 1_555
Na25 O105 2.549029 1_555
Na25 O117 2.814160 1_555
Na25 O119 2.832009 1_555
Na25 O115 2.849792 1_555
Na26 O136 2.393408 1_555
Na26 O134 2.517810 1_555
Na26 O120 2.672331 1_555
Na26 O122 2.739530 1_555
Na26 O132 2.789131 1_555
Na26 O124 2.855589 1_555
Na27 O137 2.348913 1_555
Na27 O135 2.427008 1_555
Na27 O121 2.656767 1_555
Na27 O123 2.725411 1_555
Na27 O133 2.801406 1_555
Na27 O125 2.904454 1_555
Na28 O142 2.394970 1_555
Na28 O140 2.640826 1_555
Na28 O126 2.668139 1_555
Na28 O130 2.670427 1_555
Na28 O128 2.675797 1_555
Na28 O138 2.729136 1_555
Na29 O131 2.418787 1_555
Na29 O129 2.564296 1_555
Na29 O139 2.625777 1_555
Na29 O127 2.633836 1_555
Na29 O141 2.729173 1_555
Na29 O143 2.947538 1_555
La0 O16 2.237357 1_645
La0 O14 2.326671 1_655
La0 O13 2.341809 1_545
La0 O85 2.344239 1_555
La0 O89 2.397829 1_545
La0 O86 2.420470 1_655
La1 O19 2.250591 1_445
La1 O20 2.252541 1_555
La1 O22 2.302673 1_545
La1 O94 2.371507 1_555
La1 O91 2.384303 1_445
La1 O93 2.468405 1_455
La2 O18 2.212403 1_545
La2 O21 2.212597 1_555
La2 O23 2.367120 1_545
La2 O92 2.396712 1_555
La2 O95 2.427951 1_555
La2 O90 2.430693 1_545
La3 O64 2.289672 1_555
La3 O60 2.291485 1_555
La3 O136 2.318884 1_555
La3 O134 2.362335 1_555
La3 O62 2.376925 1_555
La3 O132 2.495035 1_555
La4 O65 2.269664 1_555
La4 O61 2.284320 1_555
La4 O137 2.297860 1_555
La4 O63 2.348494 1_555
La4 O135 2.370329 1_555
La4 O133 2.508561 1_555
La5 O70 2.242214 1_555
La5 O66 2.302618 1_555
La5 O68 2.319095 1_555
La5 O140 2.346133 1_555
La5 O138 2.420190 1_555
La5 O142 2.467350 1_555
Nb0 O3 1.962017 1_555
Nb0 O75 1.966221 1_555
Nb0 O5 1.992363 1_565
Nb0 O72 2.042852 1_655
Nb0 O76 2.069670 1_665
Nb0 O0 2.279743 1_665
Nb1 O74 1.954379 1_555
Nb1 O2 1.959029 1_555
Nb1 O4 1.985935 1_565
Nb1 O73 2.049516 1_555
Nb1 O77 2.060193 1_565
Nb1 O1 2.315610 1_565
Nb2 O83 1.939312 1_555
Nb2 O11 1.952795 1_565
Nb2 O78 1.992716 1_665
Nb2 O9 2.002376 1_555
Nb2 O80 2.079101 1_655
Nb2 O6 2.319533 1_665
Nb3 O8 1.955417 1_555
Nb3 O7 1.990057 1_565
Nb3 O10 2.004447 1_565
Nb3 O81 2.041008 1_555
Nb3 O79 2.070994 1_565
Nb3 O82 2.078866 1_555
Nb4 O12 1.915247 1_545
Nb4 O15 1.990509 1_555
Nb4 O17 2.010071 1_545
Nb4 O88 2.036858 1_545
Nb4 O84 2.052248 1_555
Nb4 O87 2.070156 1_555
Nb5 O24 1.888825 1_555
Nb5 O28 1.964246 1_555
Nb5 O96 2.009056 1_555
Nb5 O26 2.010942 1_555
Nb5 O100 2.030467 1_555
Nb5 O98 2.388681 1_555
Nb6 O25 1.951912 1_555
Nb6 O29 1.983231 1_555
Nb6 O27 2.012535 1_555
Nb6 O101 2.044104 1_555
Nb6 O97 2.095461 1_555
Nb6 O99 2.115814 1_555
Nb7 O30 1.913948 1_555
Nb7 O34 1.971813 1_555
Nb7 O102 2.004205 1_555
Nb7 O32 2.018822 1_555
Nb7 O104 2.058826 1_555
Nb7 O106 2.340959 1_555
Nb8 O31 1.902878 1_555
Nb8 O103 1.987257 1_555
Nb8 O35 1.995166 1_555
Nb8 O105 2.033870 1_555
Nb8 O33 2.042874 1_555
Nb8 O107 2.346965 1_555
Nb9 O36 1.919622 1_556
Nb9 O108 1.941835 1_555
Nb9 O38 1.945889 1_556
Nb9 O40 1.978713 1_556
Nb9 O112 1.980406 1_555
Nb9 O110 2.115198 1_555
Nb10 O41 1.919194 1_556
Nb10 O37 1.937267 1_556
Nb10 O111 1.973442 1_555
Nb10 O39 1.995964 1_556
Nb10 O113 2.010438 1_555
Nb10 O109 2.125695 1_555
Nb11 O42 1.885479 1_555
Nb11 O116 1.970054 1_555
Nb11 O44 1.978672 1_555
Nb11 O46 2.002700 1_555
Nb11 O118 2.023009 1_555
Nb11 O114 2.050934 1_555
Nb12 O43 1.936513 1_555
Nb12 O45 1.939272 1_555
Nb12 O47 1.949458 1_555
Nb12 O117 1.955514 1_555
Nb12 O115 2.023167 1_555
Nb12 O119 2.049550 1_555
Nb13 O52 1.986833 1_554
Nb13 O48 1.992881 1_554
Nb13 O50 2.012759 1_554
Nb13 O124 2.020228 1_555
Nb13 O122 2.083636 1_555
Nb13 O120 2.096239 1_555
Nb14 O53 1.969285 1_554
Nb14 O51 1.970671 1_554
Nb14 O49 1.978178 1_554
Nb14 O125 2.059110 1_555
Nb14 O123 2.075099 1_555
Nb14 O121 2.080845 1_555
Nb15 O126 2.011839 1_555
Nb15 O128 2.013215 1_555
Nb15 O54 2.015460 1_555
Nb15 O56 2.016009 1_555
Nb15 O58 2.054269 1_555
Nb15 O130 2.107275 1_555
Nb16 O59 1.959554 1_555
Nb16 O57 1.999225 1_555
Nb16 O131 2.005335 1_555
Nb16 O129 2.062412 1_555
Nb16 O127 2.081113 1_555
Nb16 O55 2.083437 1_555
Nb17 O67 1.921995 1_555
Nb17 O69 1.969569 1_555
Nb17 O143 2.022599 1_555
Nb17 O71 2.025177 1_555
Nb17 O141 2.046298 1_555
Nb17 O139 2.073910 1_555
O0 S0 1.484767 1_555
O1 S1 1.500532 1_555
O2 Si0 1.731938 1_555
O3 Si1 1.723773 1_555
O4 Si3 1.740223 1_555
O5 Si2 1.736348 1_555
O6 S2 1.501037 1_555
O7 Si4 1.654430 1_555
O8 Si6 1.653900 1_555
O9 Si5 1.716613 1_555
O10 Si7 1.671242 1_555
O11 Si8 1.679923 1_545
O12 Si7 1.646122 1_565
O13 Si8 1.606498 1_555
O14 S2 1.458798 1_555
O15 Si4 1.627674 1_555
O16 Si5 1.606231 1_455
O17 Si6 1.637210 1_555
O18 Si0 1.609996 1_555
O19 Si1 1.608769 1_555
O20 Si2 1.608711 1_455
O21 Si3 1.609307 1_555
O22 S0 1.472229 1_565
O23 S1 1.475964 1_565
O24 Si9 1.670615 1_555
O25 Si10 1.697714 1_555
O26 Si11 1.670991 1_555
O27 Si12 1.665376 1_555
O28 Si13 1.655751 1_555
O29 Si14 1.678723 1_555
O30 Si15 1.693210 1_555
O31 Si16 1.710055 1_555
O32 Si17 1.671491 1_555
O33 Si18 1.664015 1_555
O34 Si19 1.686023 1_555
O35 Si20 1.666813 1_555
O36 Si19 1.621184 1_555
O37 Si20 1.630416 1_555
O38 Si15 1.604415 1_555
O39 Si16 1.624285 1_555
O40 Si17 1.625926 1_555
O41 Si18 1.635394 1_555
O42 Si11 1.630591 1_555
O43 Si12 1.630597 1_555
O44 Si13 1.634609 1_555
O45 Si14 1.616394 1_555
O46 Si9 1.617572 1_555
O47 Si10 1.623319 1_555
O48 Si21 1.690648 1_555
O49 Si22 1.656429 1_555
O50 Si23 1.671693 1_555
O51 Si24 1.666757 1_555
O52 Si25 1.688620 1_555
O53 Si26 1.670118 1_555
O54 Si27 1.665028 1_555
O55 Si28 1.660593 1_555
O56 Si29 1.677898 1_555
O57 Si30 1.680562 1_555
O58 Si31 1.669686 1_555
O59 Si32 1.674236 1_555
O60 Si31 1.603226 1_555
O61 Si32 1.596313 1_555
O62 Si27 1.590962 1_555
O63 Si28 1.592201 1_555
O64 Si29 1.607325 1_555
O65 Si30 1.600953 1_555
O66 Si23 1.599231 1_555
O67 Si24 1.646863 1_555
O68 Si25 1.607956 1_555
O69 Si26 1.634437 1_555
O70 Si21 1.587675 1_555
O71 Si22 1.628291 1_555
O72 Si31 1.663231 1_555
O73 Si32 1.653389 1_555
O74 Si27 1.710517 1_555
O75 Si28 1.701512 1_555
O76 Si29 1.652321 1_555
O77 Si30 1.647878 1_555
O78 Si23 1.656845 1_555
O79 Si24 1.633287 1_555
O80 Si25 1.655756 1_555
O81 Si26 1.630882 1_555
O82 Si21 1.655169 1_555
O83 Si22 1.681499 1_555
O84 Si9 1.627249 1_555
O85 Si10 1.604030 1_555
O86 Si11 1.608434 1_555
O87 Si12 1.621402 1_555
O88 Si13 1.641775 1_555
O89 Si14 1.616916 1_555
O90 Si15 1.603473 1_555
O91 Si16 1.602267 1_555
O92 Si17 1.628810 1_555
O93 Si18 1.609205 1_555
O94 Si19 1.603026 1_555
O95 Si20 1.610785 1_555
O96 Si7 1.673332 1_555
O97 Si8 1.645701 1_545
O98 S2 1.505581 1_555
O99 Si4 1.656784 1_555
O100 Si6 1.635384 1_555
O101 Si5 1.677863 1_555
O102 Si0 1.654280 1_555
O103 Si1 1.663024 1_555
O104 Si3 1.668852 1_555
O105 Si2 1.683688 1_555
O106 S0 1.487156 1_555
O107 S1 1.481191 1_555
O108 Si21 1.628661 1_555
O109 Si22 1.638713 1_555
O110 Si24 1.636293 1_555
O111 Si23 1.650609 1_655
O112 Si25 1.632187 1_545
O113 Si26 1.639641 1_545
O114 Si27 1.629525 1_545
O115 Si28 1.632113 1_545
O116 Si29 1.634104 1_555
O117 Si30 1.625788 1_555
O118 Si32 1.639448 1_555
O119 Si31 1.657708 1_655
O120 Si19 1.659819 1_555
O121 Si20 1.652116 1_555
O122 Si16 1.641648 1_455
O123 Si15 1.645084 1_555
O124 Si17 1.653667 1_565
O125 Si18 1.660340 1_565
O126 Si11 1.657347 1_565
O127 Si12 1.655482 1_565
O128 Si13 1.653331 1_555
O129 Si14 1.644987 1_555
O130 Si10 1.641291 1_455
O131 Si9 1.643978 1_555
O132 S0 1.475663 1_565
O133 S1 1.470772 1_565
O134 Si0 1.600874 1_555
O135 Si1 1.605288 1_555
O136 Si2 1.593645 1_455
O137 Si3 1.589420 1_555
O138 S2 1.458659 1_555
O139 Si4 1.654448 1_555
O140 Si5 1.600075 1_455
O141 Si6 1.665955 1_555
O142 Si7 1.607389 1_565
O143 Si8 1.652735 1_555
