# generated using pymatgen
data_Na30Mg20Nb4Si9(S3O16)9
_symmetry_space_group_name_H-M   'P 1'
_cell_length_a   17.82940629
_cell_length_b   8.95928170
_cell_length_c   22.35966470
_cell_angle_alpha   89.93888670
_cell_angle_beta   90.02942731
_cell_angle_gamma   120.10838342
_symmetry_Int_Tables_number   1
_chemical_formula_structural   Na30Mg20Nb4Si9(S3O16)9
_chemical_formula_sum   'Na30 Mg20 Nb4 Si9 S27 O144'
_cell_volume   3089.80019380
_cell_formula_units_Z   1
loop_
 _symmetry_equiv_pos_site_id
 _symmetry_equiv_pos_as_xyz
  1  'x, y, z'
loop_
 _atom_site_type_symbol
 _atom_site_label
 _atom_site_symmetry_multiplicity
 _atom_site_fract_x
 _atom_site_fract_y
 _atom_site_fract_z
 _atom_site_occupancy
  Na  Na0  1  0.81060519  0.00332448  0.23995717  1
  Na  Na1  1  0.00410882  0.63668152  0.24276820  1
  Na  Na2  1  0.50283017  0.63314269  0.24163142  1
  Na  Na3  1  0.00254580  0.37223975  0.74001306  1
  Na  Na4  1  0.50219368  0.37203508  0.74119809  1
  Na  Na5  1  0.18140355  0.01009766  0.75264805  1
  Na  Na6  1  0.65627119  0.34900218  0.58283700  1
  Na  Na7  1  0.66085703  0.95945698  0.08600300  1
  Na  Na8  1  0.83324022  0.68993347  0.07643513  1
  Na  Na9  1  0.00916189  0.33695066  0.08148782  1
  Na  Na10  1  0.48047305  0.66016719  0.92564965  1
  Na  Na11  1  0.84884479  0.03481164  0.92519159  1
  Na  Na12  1  0.16514172  0.29767023  0.91061371  1
  Na  Na13  1  0.66504659  0.30020312  0.90871929  1
  Na  Na14  1  0.48021245  0.30002409  0.42487155  1
  Na  Na15  1  0.98452697  0.30492863  0.42724010  1
  Na  Na16  1  0.16563418  0.03181203  0.40990132  1
  Na  Na17  1  0.66444877  0.03120445  0.40949862  1
  Na  Na18  1  0.99150012  0.99005556  0.49898025  1
  Na  Na19  1  0.48032656  0.96975760  0.49784714  1
  Na  Na20  1  0.00074623  0.97327186  0.99691160  1
  Na  Na21  1  0.48044506  0.99121476  0.99866398  1
  Na  Na22  1  0.32700291  0.33456384  0.82953141  1
  Na  Na23  1  0.82663441  0.34478918  0.82569921  1
  Na  Na24  1  0.31817942  0.32004294  0.32663454  1
  Na  Na25  1  0.82159220  0.33854677  0.32935787  1
  Na  Na26  1  0.17224048  0.69727601  0.16504993  1
  Na  Na27  1  0.65865167  0.66273133  0.16195204  1
  Na  Na28  1  0.16413179  0.63763469  0.66057759  1
  Na  Na29  1  0.66582374  0.66525496  0.66621097  1
  Mg  Mg0  1  0.00547403  0.00051463  0.34931141  1
  Mg  Mg1  1  0.49985606  0.99928476  0.34925249  1
  Mg  Mg2  1  0.00442338  0.99753140  0.84910741  1
  Mg  Mg3  1  0.50254306  0.00506587  0.84799505  1
  Mg  Mg4  1  0.33461275  0.34625293  0.68129262  1
  Mg  Mg5  1  0.83216837  0.33596677  0.68337644  1
  Mg  Mg6  1  0.33127570  0.32334069  0.18373766  1
  Mg  Mg7  1  0.83043380  0.32285420  0.18151046  1
  Mg  Mg8  1  0.33637480  0.33137719  0.98727466  1
  Mg  Mg9  1  0.84487833  0.34570952  0.98811985  1
  Mg  Mg10  1  0.33619465  0.33881510  0.48792586  1
  Mg  Mg11  1  0.83937544  0.34098863  0.48673654  1
  Mg  Mg12  1  0.16772352  0.67914906  0.01933056  1
  Mg  Mg13  1  0.66172781  0.66440008  0.02146342  1
  Mg  Mg14  1  0.16401658  0.65824341  0.52094417  1
  Mg  Mg15  1  0.66411363  0.66628652  0.51963525  1
  Mg  Mg16  1  0.16997167  0.67596897  0.31272586  1
  Mg  Mg17  1  0.66575504  0.66594073  0.31337756  1
  Mg  Mg18  1  0.16808834  0.65992242  0.81390331  1
  Mg  Mg19  1  0.66874457  0.66033202  0.81032279  1
  Nb  Nb0  1  0.00466901  0.01873716  0.64573480  1
  Nb  Nb1  1  0.50123587  0.00875236  0.64688451  1
  Nb  Nb2  1  0.00884500  0.99890422  0.14589757  1
  Nb  Nb3  1  0.49857577  0.98812510  0.14852206  1
  Si  Si0  1  0.15682962  0.00556215  0.25683324  1
  Si  Si1  1  0.65243216  0.00684180  0.25649525  1
  Si  Si2  1  0.15511128  0.30618916  0.75510612  1
  Si  Si3  1  0.65494120  0.30380234  0.75510982  1
  Si  Si4  1  0.48151173  0.34877674  0.58373442  1
  Si  Si5  1  0.98139334  0.35176310  0.58369756  1
  Si  Si6  1  0.47737550  0.61153236  0.08388970  1
  Si  Si7  1  0.98191910  0.61906224  0.08623258  1
  Si  Si8  1  0.83279851  0.03431285  0.08236589  1
  S  S0  1  0.35201399  0.70628074  0.25248059  1
  S  S1  1  0.85388992  0.70854893  0.25085825  1
  S  S2  1  0.00192088  0.29325403  0.25342832  1
  S  S3  1  0.50002004  0.29200789  0.25322187  1
  S  S4  1  0.99889521  0.70801173  0.75177692  1
  S  S5  1  0.49940857  0.70759052  0.75345106  1
  S  S6  1  0.35259353  0.99639113  0.75154119  1
  S  S7  1  0.85375503  0.99699582  0.75256137  1
  S  S8  1  0.18697080  0.03716154  0.58340277  1
  S  S9  1  0.68729563  0.03754935  0.58210885  1
  S  S10  1  0.33287919  0.62736122  0.58326537  1
  S  S11  1  0.83467166  0.62890641  0.58266940  1
  S  S12  1  0.33316393  0.03966060  0.08341527  1
  S  S13  1  0.19069752  0.34067884  0.08147160  1
  S  S14  1  0.68456500  0.32939698  0.08184774  1
  S  S15  1  0.31289654  0.66789914  0.91671250  1
  S  S16  1  0.81307770  0.66465169  0.91640090  1
  S  S17  1  0.01832278  0.37229713  0.91574534  1
  S  S18  1  0.51835135  0.37101656  0.91581343  1
  S  S19  1  0.16790296  0.96257872  0.91569270  1
  S  S20  1  0.66570263  0.95854138  0.91602600  1
  S  S21  1  0.31261096  0.95770145  0.41718158  1
  S  S22  1  0.81275767  0.95802104  0.41550359  1
  S  S23  1  0.16789109  0.37645013  0.41655614  1
  S  S24  1  0.66772836  0.37481077  0.41778509  1
  S  S25  1  0.01819873  0.66567574  0.41601578  1
  S  S26  1  0.51783325  0.66578106  0.41613931  1
  O  O0  1  0.10961161  0.02186424  0.31582726  1
  O  O1  1  0.60391490  0.01920632  0.31484911  1
  O  O2  1  0.40697126  0.79564656  0.30385610  1
  O  O3  1  0.90907432  0.79763619  0.30265744  1
  O  O4  1  0.48958349  0.19217446  0.30783614  1
  O  O5  1  0.98772696  0.18216686  0.30582600  1
  O  O6  1  0.10942520  0.18308465  0.81248682  1
  O  O7  1  0.60726600  0.19250401  0.81395055  1
  O  O8  1  0.48828938  0.78643906  0.80804594  1
  O  O9  1  0.98627436  0.78764354  0.80492751  1
  O  O10  1  0.40638995  0.01662976  0.80357824  1
  O  O11  1  0.90598538  0.01720293  0.80665590  1
  O  O12  1  0.39477409  0.97192026  0.69602954  1
  O  O13  1  0.89937245  0.97452691  0.69850128  1
  O  O14  1  0.08435596  0.18575489  0.69667703  1
  O  O15  1  0.58316858  0.17996515  0.69598361  1
  O  O16  1  0.00890611  0.81496470  0.69732797  1
  O  O17  1  0.50492036  0.81373751  0.69953057  1
  O  O18  1  0.39636296  0.81824231  0.19659059  1
  O  O19  1  0.89493954  0.81803755  0.19478917  1
  O  O20  1  0.00779272  0.20546520  0.19737663  1
  O  O21  1  0.50633308  0.19734213  0.19935556  1
  O  O22  1  0.08556301  0.98797337  0.19961547  1
  O  O23  1  0.58387960  0.98424816  0.19642101  1
  O  O24  1  0.43697144  0.35591606  0.64513109  1
  O  O25  1  0.93484359  0.35368453  0.64490869  1
  O  O26  1  0.23533075  0.12108522  0.63812367  1
  O  O27  1  0.73774570  0.12511608  0.63532212  1
  O  O28  1  0.31993368  0.52483111  0.63721369  1
  O  O29  1  0.81775663  0.51843127  0.63543353  1
  O  O30  1  0.43390235  0.51608821  0.14547878  1
  O  O31  1  0.93922112  0.51715858  0.14773187  1
  O  O32  1  0.32073139  0.11823252  0.13708935  1
  O  O33  1  0.81191012  0.11401193  0.14056115  1
  O  O34  1  0.24104380  0.35523691  0.13471888  1
  O  O35  1  0.73822234  0.35622202  0.13460933  1
  O  O36  1  0.22207206  0.30201173  0.02579888  1
  O  O37  1  0.71850341  0.29007667  0.02707599  1
  O  O38  1  0.42463935  0.54892074  0.02197338  1
  O  O39  1  0.91524781  0.55689461  0.03062258  1
  O  O40  1  0.34808230  0.14199333  0.02871053  1
  O  O41  1  0.85569093  0.15307283  0.02230569  1
  O  O42  1  0.22161069  0.14446953  0.52901165  1
  O  O43  1  0.72020394  0.14618418  0.52723580  1
  O  O44  1  0.34815760  0.55306350  0.52909238  1
  O  O45  1  0.84776428  0.55264760  0.52825808  1
  O  O46  1  0.42812813  0.30674061  0.52206494  1
  O  O47  1  0.92696709  0.30268848  0.52208247  1
  O  O48  1  0.27238372  0.68623796  0.97097600  1
  O  O49  1  0.77380741  0.68833297  0.97176529  1
  O  O50  1  0.07152244  0.45359578  0.96963344  1
  O  O51  1  0.57542181  0.45869898  0.96771626  1
  O  O52  1  0.16083588  0.85791250  0.96780301  1
  O  O53  1  0.65732320  0.86048166  0.97155640  1
  O  O54  1  0.27271977  0.85749927  0.47148827  1
  O  O55  1  0.77000423  0.85420359  0.46870579  1
  O  O56  1  0.15776897  0.46201723  0.46939865  1
  O  O57  1  0.65919740  0.45749697  0.47274197  1
  O  O58  1  0.07500519  0.69187558  0.46766618  1
  O  O59  1  0.57527298  0.69239312  0.46761094  1
  O  O60  1  0.05706380  0.63997787  0.36063966  1
  O  O61  1  0.55747986  0.64150444  0.36069895  1
  O  O62  1  0.26063756  0.87292286  0.36333690  1
  O  O63  1  0.76233218  0.87531636  0.36024217  1
  O  O64  1  0.17736223  0.47516466  0.36146161  1
  O  O65  1  0.67680315  0.47802522  0.36415025  1
  O  O66  1  0.06178482  0.47176567  0.86110554  1
  O  O67  1  0.55769631  0.47455027  0.86062571  1
  O  O68  1  0.17641121  0.88569298  0.85900744  1
  O  O69  1  0.67724049  0.87245583  0.86368855  1
  O  O70  1  0.26080845  0.64954529  0.86290067  1
  O  O71  1  0.75776327  0.64477450  0.86426960  1
  O  O72  1  0.00862454  0.82222157  0.41240645  1
  O  O73  1  0.50905454  0.82300602  0.41261840  1
  O  O74  1  0.40381109  0.98939033  0.41172642  1
  O  O75  1  0.90349978  0.98927871  0.41123328  1
  O  O76  1  0.08547557  0.20044881  0.41420694  1
  O  O77  1  0.58560191  0.20024973  0.41509501  1
  O  O78  1  0.00741989  0.19331803  0.91258302  1
  O  O79  1  0.50954592  0.19597901  0.91240066  1
  O  O80  1  0.08796227  0.98055800  0.91445613  1
  O  O81  1  0.58433044  0.97016882  0.91276116  1
  O  O82  1  0.40381603  0.81846663  0.91161846  1
  O  O83  1  0.90062196  0.82406636  0.91057810  1
  O  O84  1  0.49098412  0.15684963  0.59293855  1
  O  O85  1  0.98885051  0.15791256  0.59326240  1
  O  O86  1  0.09450837  0.01106704  0.59012566  1
  O  O87  1  0.59581342  0.01623809  0.58939692  1
  O  O88  1  0.41553849  0.80278044  0.59109896  1
  O  O89  1  0.91514974  0.80312601  0.59103538  1
  O  O90  1  0.48931845  0.82451391  0.09319922  1
  O  O91  1  0.99592946  0.82290158  0.09466682  1
  O  O92  1  0.41547846  0.02813146  0.09123019  1
  O  O93  1  0.92428410  0.02537936  0.09431567  1
  O  O94  1  0.09753213  0.18377206  0.08909515  1
  O  O95  1  0.59485319  0.17075241  0.09037389  1
  O  O96  1  0.34719763  0.15540846  0.74506129  1
  O  O97  1  0.85049257  0.15772299  0.74583483  1
  O  O98  1  0.24480245  0.30814934  0.74294878  1
  O  O99  1  0.74654457  0.31844360  0.74249032  1
  O  O100  1  0.42416319  0.53135705  0.74780932  1
  O  O101  1  0.92610120  0.53041807  0.74589687  1
  O  O102  1  0.34924455  0.54062201  0.24498844  1
  O  O103  1  0.84739348  0.53914140  0.24469528  1
  O  O104  1  0.42539714  0.31887524  0.24721051  1
  O  O105  1  0.92477321  0.31486639  0.24895368  1
  O  O106  1  0.24776952  0.17486079  0.24360318  1
  O  O107  1  0.74702514  0.17391950  0.24739743  1
  O  O108  1  0.31939779  0.50573490  0.91882381  1
  O  O109  1  0.81875797  0.50429390  0.91990337  1
  O  O110  1  0.43125473  0.35480204  0.92172944  1
  O  O111  1  0.92993339  0.35093860  0.91838574  1
  O  O112  1  0.24440157  0.14270723  0.92055520  1
  O  O113  1  0.74226312  0.13812070  0.91964516  1
  O  O114  1  0.31924179  0.13286543  0.41996938  1
  O  O115  1  0.81822094  0.13204921  0.41859422  1
  O  O116  1  0.24264788  0.34471334  0.42218566  1
  O  O117  1  0.74277860  0.34406031  0.42186424  1
  O  O118  1  0.43098804  0.50809833  0.42201599  1
  O  O119  1  0.93064367  0.50754304  0.42160073  1
  O  O120  1  0.17623651  0.48744243  0.07561488  1
  O  O121  1  0.67358555  0.48035241  0.07431564  1
  O  O122  1  0.07617392  0.63762674  0.07747196  1
  O  O123  1  0.57861674  0.66675267  0.07959825  1
  O  O124  1  0.26080643  0.86148555  0.07732258  1
  O  O125  1  0.75567851  0.83449262  0.07581022  1
  O  O126  1  0.17657780  0.86553035  0.57691289  1
  O  O127  1  0.67614651  0.86609064  0.57552696  1
  O  O128  1  0.26144809  0.66298896  0.57652725  1
  O  O129  1  0.76003104  0.65735480  0.57605986  1
  O  O130  1  0.08060432  0.50277023  0.57955346  1
  O  O131  1  0.58353545  0.49529691  0.57991752  1
  O  O132  1  0.15061671  0.81818241  0.25168606  1
  O  O133  1  0.65436400  0.82520388  0.25137905  1
  O  O134  1  0.26598838  0.68834425  0.25397882  1
  O  O135  1  0.76776138  0.69481637  0.25466322  1
  O  O136  1  0.08119172  0.46372190  0.25678689  1
  O  O137  1  0.58101792  0.46360525  0.25435417  1
  O  O138  1  0.15068807  0.48204308  0.75265605  1
  O  O139  1  0.64874883  0.47887115  0.74962515  1
  O  O140  1  0.08190519  0.70376312  0.75537726  1
  O  O141  1  0.58007955  0.69807038  0.75475151  1
  O  O142  1  0.26395335  0.84634825  0.75432220  1
  O  O143  1  0.76709020  0.84397632  0.75443016  1
loop_
_geom_bond_atom_site_label_1
_geom_bond_atom_site_label_2
_geom_bond_distance
_geom_bond_site_symmetry_2
Na0 O107 2.321153 1_555
Na0 O33 2.428067 1_555
Na0 O133 2.431414 1_545
Na0 O135 2.492273 1_545
Na0 O105 2.505043 1_555
Na0 O63 2.880126 1_545
Na0 O19 2.923356 1_545
Na1 O132 2.290399 1_555
Na1 O31 2.400018 1_455
Na1 O103 2.474478 1_455
Na1 O105 2.498125 1_455
Na1 O136 2.554110 1_555
Na1 O60 2.794306 1_555
Na1 O22 2.890493 1_555
Na2 O133 2.375687 1_555
Na2 O102 2.431878 1_555
Na2 O30 2.437503 1_555
Na2 O104 2.439006 1_555
Na2 O137 2.540570 1_555
Na2 O61 2.822664 1_555
Na2 O23 2.905065 1_555
Na3 O138 2.327451 1_555
Na3 O25 2.409046 1_455
Na3 O101 2.412835 1_455
Na3 O97 2.415108 1_455
Na3 O140 2.593738 1_555
Na3 O66 2.880801 1_555
Na3 O14 2.882343 1_555
Na4 O139 2.295651 1_555
Na4 O24 2.411795 1_555
Na4 O100 2.447024 1_555
Na4 O96 2.455605 1_555
Na4 O141 2.546476 1_555
Na4 O67 2.836251 1_555
Na4 O15 2.926665 1_555
Na5 O98 2.329399 1_555
Na5 O140 2.407963 1_545
Na5 O142 2.546785 1_545
Na5 O96 2.569190 1_555
Na5 O68 2.607850 1_545
Na5 O26 2.740154 1_555
Na5 O6 2.800138 1_555
Na5 O16 2.941355 1_545
Na6 O131 2.260314 1_555
Na6 O129 2.439122 1_555
Na6 O84 2.570850 1_555
Na6 O87 2.616640 1_555
Na6 O57 2.636594 1_555
Na6 O29 2.755455 1_555
Na6 O43 2.868998 1_555
Na6 O15 2.899603 1_555
Na7 O123 2.278238 1_555
Na7 O125 2.462422 1_555
Na7 O33 2.630128 1_565
Na7 O90 2.670565 1_555
Na7 O95 2.685826 1_565
Na7 O53 2.699506 1_554
Na7 O23 2.887731 1_555
Na7 O37 2.916362 1_565
Na8 O125 2.320946 1_555
Na8 O121 2.503681 1_555
Na8 O39 2.522004 1_555
Na8 O91 2.555802 1_555
Na8 O49 2.565685 1_554
Na8 O93 2.633329 1_565
Na8 O19 2.875308 1_555
Na8 O35 2.900564 1_555
Na9 O122 2.337274 1_555
Na9 O93 2.434167 1_455
Na9 O94 2.561916 1_555
Na9 O120 2.584406 1_555
Na9 O50 2.723053 1_554
Na9 O41 2.725940 1_455
Na9 O20 2.840337 1_555
Na9 O31 2.895270 1_455
Na10 O38 2.371765 1_556
Na10 O110 2.419588 1_555
Na10 O82 2.433354 1_555
Na10 O81 2.462695 1_555
Na10 O108 2.489734 1_555
Na10 O8 2.837220 1_555
Na10 O53 2.922319 1_555
Na10 O67 3.013223 1_555
Na11 O41 2.393229 1_556
Na11 O111 2.454842 1_555
Na11 O78 2.462023 1_655
Na11 O113 2.499459 1_555
Na11 O83 2.504870 1_545
Na11 O11 2.872706 1_555
Na11 O49 2.887616 1_545
Na11 O69 2.983797 1_545
Na12 O6 2.415400 1_555
Na12 O108 2.435015 1_555
Na12 O112 2.437492 1_555
Na12 O80 2.459682 1_545
Na12 O78 2.479153 1_555
Na12 O36 2.760966 1_556
Na12 O70 2.930173 1_555
Na12 O50 2.970665 1_555
Na13 O7 2.342502 1_555
Na13 O109 2.426820 1_555
Na13 O79 2.442970 1_555
Na13 O113 2.463415 1_555
Na13 O81 2.559815 1_545
Na13 O37 2.829100 1_556
Na13 O71 2.850600 1_555
Na13 O51 2.931341 1_555
Na14 O46 2.376393 1_555
Na14 O74 2.425947 1_545
Na14 O118 2.427077 1_555
Na14 O77 2.462444 1_555
Na14 O114 2.485882 1_555
Na14 O4 2.824429 1_555
Na15 O47 2.352067 1_555
Na15 O76 2.427350 1_655
Na15 O119 2.446048 1_555
Na15 O75 2.472946 1_545
Na15 O115 2.573094 1_555
Na15 O56 2.836986 1_655
Na15 O5 2.941505 1_555
Na15 O60 2.999757 1_655
Na16 O0 2.310656 1_555
Na16 O114 2.425520 1_555
Na16 O116 2.441122 1_555
Na16 O72 2.468169 1_545
Na16 O76 2.549776 1_555
Na16 O42 2.846079 1_555
Na16 O62 2.898920 1_545
Na16 O58 2.934490 1_545
Na17 O1 2.353085 1_555
Na17 O115 2.426731 1_555
Na17 O117 2.440771 1_555
Na17 O73 2.444461 1_545
Na17 O77 2.534237 1_555
Na17 O43 2.820545 1_555
Na17 O59 2.929540 1_545
Na17 O63 2.942789 1_545
Na18 O75 2.509406 1_555
Na18 O72 2.562974 1_655
Na18 O89 2.569596 1_555
Na18 O76 2.603923 1_665
Na18 O85 2.605030 1_565
Na18 O86 2.685503 1_665
Na19 O74 2.416077 1_555
Na19 O88 2.486358 1_555
Na19 O73 2.510907 1_555
Na19 O84 2.655974 1_565
Na19 O77 2.705146 1_565
Na19 O87 2.782207 1_565
Na20 O80 2.392135 1_555
Na20 O83 2.511562 1_455
Na20 O91 2.545150 1_456
Na20 O78 2.685718 1_565
Na20 O93 2.731950 1_466
Na20 O94 2.742740 1_566
Na21 O82 2.435643 1_555
Na21 O92 2.474518 1_566
Na21 O79 2.528556 1_565
Na21 O90 2.636980 1_556
Na21 O81 2.740508 1_555
Na21 O95 2.768413 1_566
Na22 O98 2.366848 1_555
Na22 O100 2.525976 1_555
Na22 O108 2.563564 1_555
Na22 O112 2.592622 1_555
Na22 O96 2.619211 1_555
Na22 O110 2.719633 1_555
Na23 O99 2.283936 1_555
Na23 O101 2.476440 1_555
Na23 O109 2.589744 1_555
Na23 O97 2.627002 1_555
Na23 O113 2.702650 1_555
Na23 O111 2.754022 1_555
Na24 O106 2.253697 1_555
Na24 O102 2.537751 1_555
Na24 O116 2.594146 1_555
Na24 O104 2.613776 1_555
Na24 O114 2.681841 1_555
Na24 O118 2.834763 1_555
Na25 O107 2.310274 1_555
Na25 O103 2.487816 1_555
Na25 O117 2.515591 1_555
Na25 O105 2.656550 1_555
Na25 O115 2.699677 1_555
Na25 O119 2.715854 1_555
Na26 O132 2.344962 1_555
Na26 O122 2.476764 1_555
Na26 O124 2.484329 1_555
Na26 O134 2.623827 1_555
Na26 O120 2.771428 1_555
Na26 O136 2.794189 1_555
Na27 O123 2.340312 1_555
Na27 O133 2.498192 1_555
Na27 O125 2.529205 1_555
Na27 O137 2.623919 1_555
Na27 O121 2.650355 1_555
Na27 O135 2.756890 1_555
Na28 O130 2.270801 1_555
Na28 O138 2.428715 1_555
Na28 O128 2.490194 1_555
Na28 O126 2.693585 1_555
Na28 O142 2.779101 1_555
Na28 O140 2.805476 1_555
Na29 O139 2.417372 1_555
Na29 O131 2.440513 1_555
Na29 O141 2.607338 1_555
Na29 O143 2.611004 1_555
Na29 O129 2.648125 1_555
Na29 O127 2.653918 1_555
Mg0 O0 1.920760 1_555
Mg0 O5 2.051135 1_455
Mg0 O3 2.052810 1_445
Mg0 O72 2.151793 1_545
Mg0 O76 2.188320 1_555
Mg0 O75 2.247536 1_445
Mg1 O1 1.932540 1_565
Mg1 O2 2.018029 1_555
Mg1 O4 2.047341 1_565
Mg1 O74 2.177492 1_555
Mg1 O73 2.187115 1_555
Mg1 O77 2.233423 1_565
Mg2 O6 1.953249 1_565
Mg2 O9 2.002443 1_455
Mg2 O11 2.078619 1_465
Mg2 O80 2.145029 1_555
Mg2 O83 2.200454 1_455
Mg2 O78 2.237265 1_565
Mg3 O7 1.933580 1_555
Mg3 O10 2.027882 1_555
Mg3 O8 2.050176 1_545
Mg3 O81 2.185307 1_545
Mg3 O79 2.192230 1_555
Mg3 O82 2.227608 1_545
Mg4 O24 1.958244 1_555
Mg4 O28 2.004032 1_555
Mg4 O98 2.008479 1_555
Mg4 O26 2.134123 1_555
Mg4 O100 2.204054 1_555
Mg4 O96 2.320836 1_555
Mg5 O25 1.956025 1_555
Mg5 O99 1.965569 1_555
Mg5 O29 2.074849 1_555
Mg5 O27 2.090232 1_555
Mg5 O101 2.206736 1_555
Mg5 O97 2.263959 1_555
Mg6 O106 1.946610 1_555
Mg6 O30 1.972383 1_555
Mg6 O32 2.038974 1_555
Mg6 O34 2.080845 1_555
Mg6 O104 2.212855 1_555
Mg6 O102 2.268790 1_555
Mg7 O33 1.957477 1_555
Mg7 O31 1.993524 1_555
Mg7 O107 2.041958 1_555
Mg7 O35 2.093510 1_555
Mg7 O105 2.286114 1_555
Mg7 O103 2.293454 1_555
Mg8 O38 1.949859 1_556
Mg8 O40 2.032899 1_556
Mg8 O36 2.104244 1_556
Mg8 O110 2.167793 1_555
Mg8 O112 2.234673 1_555
Mg8 O108 2.311536 1_555
Mg9 O39 1.917857 1_556
Mg9 O41 1.982669 1_556
Mg9 O111 2.159654 1_555
Mg9 O37 2.226740 1_556
Mg9 O109 2.284862 1_555
Mg9 O113 2.395802 1_555
Mg10 O46 1.955196 1_555
Mg10 O44 2.042081 1_555
Mg10 O42 2.116383 1_555
Mg10 O118 2.180517 1_555
Mg10 O116 2.243003 1_555
Mg10 O114 2.291458 1_555
Mg11 O47 1.927973 1_555
Mg11 O45 2.049236 1_555
Mg11 O119 2.134816 1_555
Mg11 O43 2.158430 1_555
Mg11 O117 2.261829 1_555
Mg11 O115 2.294571 1_555
Mg12 O122 1.970966 1_555
Mg12 O52 2.025054 1_554
Mg12 O124 2.094431 1_555
Mg12 O48 2.130281 1_554
Mg12 O50 2.187633 1_554
Mg12 O120 2.193989 1_555
Mg13 O123 1.979719 1_555
Mg13 O125 2.011388 1_555
Mg13 O51 2.089539 1_554
Mg13 O53 2.114644 1_554
Mg13 O121 2.122634 1_555
Mg13 O49 2.201354 1_554
Mg14 O130 1.946568 1_555
Mg14 O56 2.058932 1_555
Mg14 O128 2.118461 1_555
Mg14 O58 2.122647 1_555
Mg14 O126 2.156994 1_555
Mg14 O54 2.166282 1_555
Mg15 O131 2.004283 1_555
Mg15 O59 2.070279 1_555
Mg15 O127 2.105109 1_555
Mg15 O57 2.108512 1_555
Mg15 O55 2.122462 1_555
Mg15 O129 2.158149 1_555
Mg16 O132 2.010519 1_555
Mg16 O62 2.036672 1_555
Mg16 O134 2.116598 1_555
Mg16 O60 2.157419 1_555
Mg16 O136 2.160831 1_555
Mg16 O64 2.162169 1_555
Mg17 O133 2.070075 1_555
Mg17 O63 2.084122 1_555
Mg17 O61 2.114669 1_555
Mg17 O65 2.119080 1_555
Mg17 O137 2.136765 1_555
Mg17 O135 2.151244 1_555
Mg18 O138 2.004910 1_555
Mg18 O70 2.023342 1_555
Mg18 O66 2.083433 1_555
Mg18 O142 2.149270 1_555
Mg18 O140 2.197784 1_555
Mg18 O68 2.198559 1_555
Mg19 O139 2.008690 1_555
Mg19 O71 2.052582 1_555
Mg19 O143 2.108776 1_555
Mg19 O67 2.155833 1_555
Mg19 O141 2.165794 1_555
Mg19 O69 2.185043 1_555
Nb0 O85 1.833097 1_455
Nb0 O14 1.850445 1_555
Nb0 O86 2.056487 1_555
Nb0 O13 2.080548 1_445
Nb0 O89 2.164404 1_445
Nb0 O16 2.191647 1_545
Nb1 O15 1.856343 1_555
Nb1 O84 1.867768 1_555
Nb1 O12 2.071792 1_545
Nb1 O87 2.094951 1_555
Nb1 O88 2.114223 1_545
Nb1 O17 2.133861 1_545
Nb2 O22 1.858951 1_555
Nb2 O91 1.868412 1_455
Nb2 O93 2.003990 1_465
Nb2 O94 2.055899 1_565
Nb2 O19 2.154566 1_455
Nb2 O20 2.188502 1_565
Nb3 O90 1.861994 1_555
Nb3 O23 1.874218 1_555
Nb3 O18 2.002144 1_555
Nb3 O95 2.119937 1_565
Nb3 O92 2.120004 1_565
Nb3 O21 2.137481 1_565
O0 Si0 1.610894 1_555
O1 Si1 1.600186 1_555
O2 S0 1.460985 1_555
O3 S1 1.469524 1_555
O4 S3 1.468601 1_555
O5 S2 1.473888 1_655
O6 Si2 1.619503 1_555
O7 Si3 1.611143 1_555
O8 S5 1.473465 1_555
O9 S4 1.461216 1_555
O10 S6 1.459960 1_545
O11 S7 1.480918 1_545
O12 S6 1.523563 1_555
O13 S7 1.526086 1_555
O14 Si2 1.760167 1_555
O15 Si3 1.786973 1_555
O16 S4 1.502797 1_455
O17 S5 1.507166 1_555
O18 S0 1.547810 1_555
O19 S1 1.532208 1_555
O20 S2 1.511683 1_555
O21 S3 1.510218 1_555
O22 Si0 1.753289 1_565
O23 Si1 1.757794 1_565
O24 Si4 1.603621 1_555
O25 Si5 1.605585 1_555
O26 S8 1.468431 1_555
O27 S9 1.460541 1_555
O28 S10 1.461977 1_555
O29 S11 1.470003 1_555
O30 Si6 1.600640 1_555
O31 Si7 1.614026 1_555
O32 S12 1.464113 1_555
O33 Si8 1.615870 1_555
O34 S13 1.456728 1_555
O35 S14 1.460661 1_555
O36 S13 1.475999 1_555
O37 S14 1.485137 1_555
O38 Si6 1.608273 1_555
O39 Si7 1.614019 1_555
O40 S12 1.469956 1_555
O41 Si8 1.632164 1_555
O42 S8 1.478973 1_555
O43 S9 1.490704 1_555
O44 S10 1.472584 1_555
O45 S11 1.470892 1_555
O46 Si4 1.609122 1_555
O47 Si5 1.613961 1_555
O48 S15 1.463306 1_555
O49 S16 1.489364 1_555
O50 S17 1.479733 1_555
O51 S18 1.482597 1_555
O52 S19 1.460177 1_555
O53 S20 1.483918 1_555
O54 S21 1.464320 1_555
O55 S22 1.465791 1_555
O56 S23 1.468765 1_555
O57 S24 1.482264 1_555
O58 S25 1.474968 1_555
O59 S26 1.478041 1_555
O60 S25 1.492596 1_555
O61 S26 1.496456 1_555
O62 S21 1.476401 1_555
O63 S22 1.488816 1_555
O64 S23 1.475235 1_555
O65 S24 1.472155 1_555
O66 S17 1.480909 1_555
O67 S18 1.490248 1_555
O68 S19 1.486901 1_555
O69 S20 1.472413 1_555
O70 S15 1.477603 1_555
O71 S16 1.478553 1_555
O72 S25 1.497568 1_555
O73 S26 1.495280 1_555
O74 S21 1.508798 1_555
O75 S22 1.500203 1_555
O76 S23 1.524420 1_555
O77 S24 1.515319 1_555
O78 S17 1.517093 1_555
O79 S18 1.497662 1_555
O80 S19 1.512768 1_555
O81 S20 1.507501 1_555
O82 S15 1.505470 1_555
O83 S16 1.502111 1_555
O84 Si4 1.821599 1_555
O85 Si5 1.819507 1_555
O86 S8 1.551927 1_555
O87 S9 1.552795 1_555
O88 S10 1.532713 1_555
O89 S11 1.511144 1_555
O90 Si6 1.822884 1_555
O91 Si7 1.725157 1_555
O92 S12 1.531959 1_555
O93 Si8 1.693777 1_555
O94 S13 1.556110 1_555
O95 S14 1.527686 1_555
O96 S6 1.482235 1_545
O97 S7 1.477555 1_545
O98 Si2 1.613602 1_555
O99 Si3 1.596788 1_555
O100 S5 1.477774 1_555
O101 S4 1.470321 1_555
O102 S0 1.469795 1_555
O103 S1 1.469723 1_555
O104 S3 1.472158 1_555
O105 S2 1.485437 1_655
O106 Si0 1.596644 1_555
O107 Si1 1.610388 1_555
O108 S15 1.515031 1_555
O109 S16 1.492046 1_555
O110 S18 1.491269 1_555
O111 S17 1.490362 1_655
O112 S19 1.506126 1_545
O113 S20 1.501729 1_545
O114 S21 1.514847 1_545
O115 S22 1.514305 1_545
O116 S23 1.501070 1_555
O117 S24 1.498137 1_555
O118 S26 1.488551 1_555
O119 S25 1.496873 1_655
O120 S13 1.467075 1_555
O121 S14 1.470004 1_555
O122 Si7 1.615544 1_455
O123 Si6 1.617521 1_555
O124 S12 1.471487 1_565
O125 Si8 1.627206 1_565
O126 S8 1.460983 1_565
O127 S9 1.454309 1_565
O128 S10 1.467697 1_555
O129 S11 1.482513 1_555
O130 Si5 1.602126 1_455
O131 Si4 1.625912 1_555
O132 Si0 1.630237 1_565
O133 Si1 1.648988 1_565
O134 S0 1.460206 1_555
O135 S1 1.480225 1_555
O136 S2 1.473178 1_555
O137 S3 1.490745 1_555
O138 Si2 1.617396 1_555
O139 Si3 1.631167 1_555
O140 S4 1.501591 1_455
O141 S5 1.483208 1_555
O142 S6 1.475495 1_555
O143 S7 1.464060 1_555
