# generated using pymatgen
data_Sr2MgTi6N2O11
_symmetry_space_group_name_H-M   'P 1'
_cell_length_a   3.95948737
_cell_length_b   7.92683140
_cell_length_c   9.17512029
_cell_angle_alpha   86.57832287
_cell_angle_beta   89.70108832
_cell_angle_gamma   74.27549451
_symmetry_Int_Tables_number   1
_chemical_formula_structural   Sr2MgTi6N2O11
_chemical_formula_sum   'Sr2 Mg1 Ti6 N2 O11'
_cell_volume   276.68282363
_cell_formula_units_Z   1
loop_
 _symmetry_equiv_pos_site_id
 _symmetry_equiv_pos_as_xyz
  1  'x, y, z'
loop_
 _atom_site_type_symbol
 _atom_site_label
 _atom_site_symmetry_multiplicity
 _atom_site_fract_x
 _atom_site_fract_y
 _atom_site_fract_z
 _atom_site_occupancy
  Sr  Sr0  1  0.56905900  0.90264400  0.78695300  1
  Sr  Sr1  1  0.42349000  0.18532800  0.16427600  1
  Mg  Mg0  1  0.55306700  0.85157600  0.36180400  1
  Ti  Ti0  1  0.11130200  0.76409400  0.10969000  1
  Ti  Ti1  1  0.18894000  0.60538900  0.44626600  1
  Ti  Ti2  1  0.23989800  0.51284300  0.77251300  1
  Ti  Ti3  1  0.74936600  0.50313300  0.21821900  1
  Ti  Ti4  1  0.85084800  0.30733500  0.55247600  1
  Ti  Ti5  1  0.88527400  0.24038200  0.89455800  1
  N  N0  1  0.23058900  0.53715600  0.24011000  1
  N  N1  1  0.82219000  0.36337000  0.06000700  1
  O  O0  1  0.04467900  0.86827500  0.33996300  1
  O  O1  1  0.12672600  0.71382000  0.64190700  1
  O  O2  1  0.15746600  0.66281700  0.92720700  1
  O  O3  1  0.60234300  0.77724900  0.14769900  1
  O  O4  1  0.68906900  0.60583100  0.44497900  1
  O  O5  1  0.76842300  0.45762300  0.74723900  1
  O  O6  1  0.31525400  0.37375700  0.56450300  1
  O  O7  1  0.38231700  0.24409600  0.86632700  1
  O  O8  1  0.87784600  0.26814500  0.35537900  1
  O  O9  1  0.95973000  0.10778700  0.66668500  1
  O  O10  1  0.99278500  0.00736200  0.99593800  1
loop_
_geom_bond_atom_site_label_1
_geom_bond_atom_site_label_2
_geom_bond_distance
_geom_bond_site_symmetry_2
Mg0 O4 1.981224 1_555
Mg0 O0 1.991554 1_555
Mg0 O0 1.994765 1_655
Mg0 O3 2.077515 1_555
Mg0 Sr1 3.041158 1_565
N0 Ti1 1.991997 1_555
N0 Ti3 2.008135 1_455
N0 Ti3 2.008546 1_555
N0 Ti0 2.044366 1_555
N0 Sr1 2.813692 1_555
N1 Ti5 1.832459 1_554
N1 Ti3 1.852612 1_555
N1 Sr1 2.535713 1_555
N1 Sr1 2.572308 1_655
O0 Ti1 2.176703 1_555
O0 Ti0 2.302130 1_555
O1 Ti2 1.888270 1_555
O1 Ti1 2.021477 1_555
O1 Sr0 2.702356 1_455
O1 Sr0 2.960041 1_555
O2 Ti2 1.876326 1_555
O2 Ti0 1.886509 1_556
O2 Sr0 2.834880 1_455
O2 Sr0 3.048168 1_555
O3 Ti0 2.008479 1_555
O3 Ti0 2.019083 1_655
O3 Ti3 2.151604 1_555
O3 Sr1 3.131190 1_565
O4 Ti1 1.978382 1_655
O4 Ti1 1.981179 1_555
O4 Ti3 2.267167 1_555
O4 Ti4 2.426554 1_555
O5 Ti2 2.033536 1_555
O5 Ti2 2.046913 1_655
O5 Ti5 2.074441 1_555
O5 Ti4 2.180893 1_555
O6 Ti1 2.017041 1_555
O6 Ti4 2.045961 1_555
O6 Ti4 2.050472 1_455
O6 Ti2 2.239178 1_555
O7 Ti5 1.991557 1_455
O7 Ti5 2.001633 1_555
O7 Ti2 2.175355 1_555
O7 Sr1 2.743770 1_556
O7 Sr0 2.747339 1_545
O8 Ti4 1.850741 1_555
O8 Ti3 2.127310 1_555
O8 Sr1 2.738997 1_655
O8 Sr1 2.748138 1_555
O9 Ti4 1.795324 1_555
O9 Ti5 2.377152 1_555
O9 Sr0 2.714744 1_645
O9 Sr0 2.717744 1_545
O10 Ti5 1.957320 1_555
O10 Ti0 2.074222 1_646
O10 Sr1 2.820791 1_556
O10 Sr0 2.856382 1_545
O10 Sr0 2.947848 1_645
O10 Sr1 2.979176 1_656
