# generated using pymatgen
data_Cr5SiB2
_symmetry_space_group_name_H-M   'P 1'
_cell_length_a   5.59808000
_cell_length_b   5.59808000
_cell_length_c   10.37002400
_cell_angle_alpha   90.00000000
_cell_angle_beta   90.00000000
_cell_angle_gamma   90.00000000
_symmetry_Int_Tables_number   1
_chemical_formula_structural   Cr5SiB2
_chemical_formula_sum   'Cr20 Si4 B8'
_cell_volume   324.98099387
_cell_formula_units_Z   4
loop_
 _symmetry_equiv_pos_site_id
 _symmetry_equiv_pos_as_xyz
  1  'x, y, z'
loop_
 _atom_site_type_symbol
 _atom_site_label
 _atom_site_symmetry_multiplicity
 _atom_site_fract_x
 _atom_site_fract_y
 _atom_site_fract_z
 _atom_site_occupancy
  Cr  Cr0  1  0.16667100  0.66667100  0.13727200  1
  Cr  Cr1  1  0.83332900  0.33332900  0.13727200  1
  Cr  Cr2  1  0.33332900  0.16667100  0.13727200  1
  Cr  Cr3  1  0.66667100  0.83332900  0.13727200  1
  Cr  Cr4  1  0.83332900  0.66667100  0.36272800  1
  Cr  Cr5  1  0.16667100  0.33332900  0.36272800  1
  Cr  Cr6  1  0.66667100  0.16667100  0.36272800  1
  Cr  Cr7  1  0.33332900  0.83332900  0.36272800  1
  Cr  Cr8  1  0.83332900  0.33332900  0.86272800  1
  Cr  Cr9  1  0.16667100  0.66667100  0.86272800  1
  Cr  Cr10  1  0.66667100  0.83332900  0.86272800  1
  Cr  Cr11  1  0.33332900  0.16667100  0.86272800  1
  Cr  Cr12  1  0.16667100  0.33332900  0.63727200  1
  Cr  Cr13  1  0.83332900  0.66667100  0.63727200  1
  Cr  Cr14  1  0.33332900  0.83332900  0.63727200  1
  Cr  Cr15  1  0.66667100  0.16667100  0.63727200  1
  Cr  Cr16  1  0.00000000  0.00000000  0.00000000  1
  Cr  Cr17  1  0.00000000  0.00000000  0.50000000  1
  Cr  Cr18  1  0.50000000  0.50000000  0.50000000  1
  Cr  Cr19  1  0.50000000  0.50000000  0.00000000  1
  Si  Si0  1  0.00000000  0.00000000  0.25000000  1
  Si  Si1  1  0.00000000  0.00000000  0.75000000  1
  Si  Si2  1  0.50000000  0.50000000  0.75000000  1
  Si  Si3  1  0.50000000  0.50000000  0.25000000  1
  B  B0  1  0.61939200  0.11939200  0.00000000  1
  B  B1  1  0.38060800  0.88060800  0.00000000  1
  B  B2  1  0.88060800  0.61939200  0.00000000  1
  B  B3  1  0.11939200  0.38060800  0.00000000  1
  B  B4  1  0.38060800  0.11939200  0.50000000  1
  B  B5  1  0.61939200  0.88060800  0.50000000  1
  B  B6  1  0.11939200  0.61939200  0.50000000  1
  B  B7  1  0.88060800  0.38060800  0.50000000  1
loop_
_geom_bond_atom_site_label_1
_geom_bond_atom_site_label_2
_geom_bond_distance
_geom_bond_site_symmetry_2
Cr0 Si0 2.391457 1_565
Cr0 Si3 2.391457 1_555
Cr1 Si0 2.391457 1_655
Cr1 Si3 2.391457 1_555
Cr2 Si0 2.391457 1_555
Cr2 Si3 2.391457 1_555
Cr3 Si0 2.391457 1_665
Cr3 Si3 2.391457 1_555
Cr4 Si0 2.391457 1_665
Cr4 Si3 2.391457 1_555
Cr5 Si0 2.391457 1_555
Cr5 Si3 2.391457 1_555
Cr6 Si0 2.391457 1_655
Cr6 Si3 2.391457 1_555
Cr7 Si3 2.391457 1_555
Cr7 Si0 2.391457 1_565
Cr8 Si2 2.391457 1_555
Cr8 Si1 2.391457 1_655
Cr9 Si1 2.391457 1_565
Cr9 Si2 2.391457 1_555
Cr10 Si2 2.391457 1_555
Cr10 Si1 2.391457 1_665
Cr11 Si1 2.391457 1_555
Cr11 Si2 2.391457 1_555
Cr12 Si1 2.391457 1_555
Cr12 Si2 2.391457 1_555
Cr13 Si2 2.391457 1_555
Cr13 Si1 2.391457 1_665
Cr14 Si1 2.391457 1_565
Cr14 Si2 2.391457 1_555
Cr15 Si1 2.391457 1_655
Cr15 Si2 2.391457 1_555
Cr16 Si0 2.592506 1_555
Cr16 Si1 2.592506 1_554
Cr17 Si0 2.592506 1_555
Cr17 Si1 2.592506 1_555
Cr18 Si2 2.592506 1_555
Cr18 Si3 2.592506 1_555
Cr19 Si2 2.592506 1_554
Cr19 Si3 2.592506 1_555
B0 B1 1.890424 1_545
B0 Cr2 2.158920 1_555
B0 Cr3 2.158920 1_545
B0 Cr11 2.158920 1_554
B0 Cr10 2.158920 1_544
B0 Cr1 2.212478 1_555
B0 Cr8 2.212478 1_554
B0 Cr19 2.233044 1_555
B0 Cr16 2.233044 1_655
B1 Cr2 2.158920 1_565
B1 Cr3 2.158920 1_555
B1 Cr11 2.158920 1_564
B1 Cr10 2.158920 1_554
B1 Cr0 2.212478 1_555
B1 Cr9 2.212478 1_554
B1 Cr16 2.233044 1_565
B1 Cr19 2.233044 1_555
B2 B3 1.890424 1_655
B2 Cr1 2.158920 1_555
B2 Cr0 2.158920 1_655
B2 Cr8 2.158920 1_554
B2 Cr9 2.158920 1_654
B2 Cr3 2.212478 1_555
B2 Cr10 2.212478 1_554
B2 Cr19 2.233044 1_555
B2 Cr16 2.233044 1_665
B3 Cr0 2.158920 1_555
B3 Cr1 2.158920 1_455
B3 Cr9 2.158920 1_554
B3 Cr8 2.158920 1_454
B3 Cr2 2.212478 1_555
B3 Cr11 2.212478 1_554
B3 Cr19 2.233044 1_555
B3 Cr16 2.233044 1_555
B4 B5 1.890424 1_545
B4 Cr15 2.158920 1_555
B4 Cr6 2.158920 1_555
B4 Cr14 2.158920 1_545
B4 Cr7 2.158920 1_545
B4 Cr12 2.212478 1_555
B4 Cr5 2.212478 1_555
B4 Cr18 2.233044 1_555
B4 Cr17 2.233044 1_555
B5 Cr14 2.158920 1_555
B5 Cr7 2.158920 1_555
B5 Cr15 2.158920 1_565
B5 Cr6 2.158920 1_565
B5 Cr13 2.212478 1_555
B5 Cr4 2.212478 1_555
B5 Cr18 2.233044 1_555
B5 Cr17 2.233044 1_665
B6 B7 1.890424 1_455
B6 Cr5 2.158920 1_555
B6 Cr12 2.158920 1_555
B6 Cr13 2.158920 1_455
B6 Cr4 2.158920 1_455
B6 Cr14 2.212478 1_555
B6 Cr7 2.212478 1_555
B6 Cr18 2.233044 1_555
B6 Cr17 2.233044 1_565
B7 Cr12 2.158920 1_655
B7 Cr5 2.158920 1_655
B7 Cr13 2.158920 1_555
B7 Cr4 2.158920 1_555
B7 Cr15 2.212478 1_555
B7 Cr6 2.212478 1_555
B7 Cr17 2.233044 1_655
B7 Cr18 2.233044 1_555
