# generated using pymatgen
data_SrLaMgMnRuO6
_symmetry_space_group_name_H-M   'P 1'
_cell_length_a   6.37612274
_cell_length_b   6.45252368
_cell_length_c   6.62964800
_cell_angle_alpha   51.73880777
_cell_angle_beta   50.56538535
_cell_angle_gamma   52.81326232
_symmetry_Int_Tables_number   1
_chemical_formula_structural   SrLaMgMnRuO6
_chemical_formula_sum   'Sr1 La1 Mg1 Mn1 Ru1 O6'
_cell_volume   155.07077334
_cell_formula_units_Z   1
loop_
 _symmetry_equiv_pos_site_id
 _symmetry_equiv_pos_as_xyz
  1  'x, y, z'
loop_
 _atom_site_type_symbol
 _atom_site_label
 _atom_site_symmetry_multiplicity
 _atom_site_fract_x
 _atom_site_fract_y
 _atom_site_fract_z
 _atom_site_occupancy
  Sr  Sr0  1  0.18414645  0.19536629  0.18638593  1
  La  La0  1  0.84017744  0.83132963  0.83940145  1
  Mg  Mg0  1  0.66525097  0.64971105  0.63171999  1
  Mn  Mn0  1  0.35857899  0.37614902  0.39280638  1
  Ru  Ru0  1  0.00891404  0.00999083  0.01047077  1
  O  O0  1  0.03827751  0.77909326  0.40770242  1
  O  O1  1  0.40470382  0.07459018  0.77698088  1
  O  O2  1  0.25623014  0.64069434  0.92838759  1
  O  O3  1  0.77333465  0.39571087  0.06489807  1
  O  O4  1  0.63132461  0.91509978  0.25366494  1
  O  O5  1  0.95810738  0.25131275  0.62662759  1
loop_
_geom_bond_atom_site_label_1
_geom_bond_atom_site_label_2
_geom_bond_distance
_geom_bond_site_symmetry_2
La0 O1 2.394059 1_565
La0 O3 2.398294 1_556
La0 O4 2.435271 1_556
La0 O0 2.446983 1_655
La0 O2 2.458318 1_655
La0 O5 2.506079 1_565
Mg0 O4 2.046093 1_555
Mg0 O2 2.049044 1_555
Mg0 O5 2.078716 1_555
Mg0 O0 2.221921 1_655
Mg0 O3 2.593848 1_556
Mg0 O1 2.633468 1_565
Mn0 O1 2.116979 1_555
Mn0 O3 2.120278 1_555
Mn0 O0 2.140950 1_555
Mn0 O5 2.341649 1_455
Mn0 O2 2.741594 1_554
Mn0 O4 2.798617 1_545
O0 Ru0 2.149412 1_565
O0 Sr0 2.576393 1_565
O1 Ru0 2.109088 1_556
O1 Sr0 2.529373 1_556
O2 Ru0 2.105822 1_566
O2 Sr0 2.429910 1_556
O3 Ru0 2.117881 1_655
O3 Sr0 2.545272 1_655
O4 Ru0 2.097324 1_665
O4 Sr0 2.445938 1_565
O5 Ru0 2.129622 1_656
O5 Sr0 2.461314 1_655
