# generated using pymatgen
data_Na4ZnGe3(PO4)6
_symmetry_space_group_name_H-M   'P 1'
_cell_length_a   8.57004978
_cell_length_b   8.57706171
_cell_length_c   21.78837715
_cell_angle_alpha   89.99790242
_cell_angle_beta   89.98282422
_cell_angle_gamma   119.96316681
_symmetry_Int_Tables_number   1
_chemical_formula_structural   Na4ZnGe3(PO4)6
_chemical_formula_sum   'Na12 Zn3 Ge9 P18 O72'
_cell_volume   1387.51739664
_cell_formula_units_Z   3
loop_
 _symmetry_equiv_pos_site_id
 _symmetry_equiv_pos_as_xyz
  1  'x, y, z'
loop_
 _atom_site_type_symbol
 _atom_site_label
 _atom_site_symmetry_multiplicity
 _atom_site_fract_x
 _atom_site_fract_y
 _atom_site_fract_z
 _atom_site_occupancy
  Na  Na0  1  0.63987398  0.00899154  0.24759365  1
  Na  Na1  1  0.36909855  0.35993786  0.24751159  1
  Na  Na2  1  0.99139836  0.63041010  0.24730354  1
  Na  Na3  1  0.99025440  0.36544619  0.74596415  1
  Na  Na4  1  0.37400534  0.00629266  0.74612946  1
  Na  Na5  1  0.70754384  0.67450636  0.41591460  1
  Na  Na6  1  0.00827436  0.00900822  0.49797034  1
  Na  Na7  1  0.99980314  0.99987403  0.00046776  1
  Na  Na8  1  0.66549394  0.34173180  0.83345031  1
  Na  Na9  1  0.66561566  0.32470761  0.33354397  1
  Na  Na10  1  0.33309348  0.66662147  0.16163024  1
  Na  Na11  1  0.34161343  0.66537668  0.66278329  1
  Zn  Zn0  1  0.00580472  0.00654686  0.35518117  1
  Zn  Zn1  1  0.66577018  0.33925286  0.68096318  1
  Zn  Zn2  1  0.66684211  0.33321446  0.17703854  1
  Ge  Ge0  1  0.99971701  0.99883797  0.85560211  1
  Ge  Ge1  1  0.99815396  0.99839561  0.64374476  1
  Ge  Ge2  1  0.00104170  0.00077827  0.14456488  1
  Ge  Ge3  1  0.66696956  0.33355544  0.98250171  1
  Ge  Ge4  1  0.66618250  0.32884412  0.48348631  1
  Ge  Ge5  1  0.33378151  0.66675546  0.01863966  1
  Ge  Ge6  1  0.33214224  0.66625081  0.52078262  1
  Ge  Ge7  1  0.33213825  0.66712041  0.31719132  1
  Ge  Ge8  1  0.33763955  0.66567594  0.81636352  1
  P  P0  1  0.28854075  0.99804185  0.25080207  1
  P  P1  1  0.70914165  0.71119320  0.25166425  1
  P  P2  1  0.00141800  0.28996991  0.25090923  1
  P  P3  1  0.28474546  0.28796634  0.75199613  1
  P  P4  1  0.99904532  0.71590798  0.75216068  1
  P  P5  1  0.71310714  0.99083375  0.75177535  1
  P  P6  1  0.96145522  0.33408360  0.58392421  1
  P  P7  1  0.37321327  0.03859211  0.58392633  1
  P  P8  1  0.66537437  0.62680375  0.58260058  1
  P  P9  1  0.96246975  0.62811662  0.08237255  1
  P  P10  1  0.66551817  0.03756890  0.08237223  1
  P  P11  1  0.37228247  0.33459571  0.08239203  1
  P  P12  1  0.62258755  0.66558025  0.91746324  1
  P  P13  1  0.04324317  0.37748497  0.91694730  1
  P  P14  1  0.33467421  0.95699633  0.91696768  1
  P  P15  1  0.61667721  0.95918360  0.41905975  1
  P  P16  1  0.33376522  0.37809031  0.41962351  1
  P  P17  1  0.04445559  0.66082703  0.41934691  1
  O  O0  1  0.21184655  0.03544638  0.30703173  1
  O  O1  1  0.81823905  0.78473200  0.30978836  1
  O  O2  1  0.96161460  0.17446182  0.30690818  1
  O  O3  1  0.19758120  0.16541151  0.80921993  1
  O  O4  1  0.97142582  0.80324550  0.81003554  1
  O  O5  1  0.83579589  0.03105705  0.80892065  1
  O  O6  1  0.79510348  0.95786438  0.69321016  1
  O  O7  1  0.16051553  0.20778538  0.69442999  1
  O  O8  1  0.04502060  0.83997961  0.69456794  1
  O  O9  1  0.79246772  0.83738327  0.19402212  1
  O  O10  1  0.04658722  0.21051896  0.19237830  1
  O  O11  1  0.16414762  0.95363591  0.19231019  1
  O  O12  1  0.89381368  0.37032169  0.64341800  1
  O  O13  1  0.47792580  0.10523598  0.64332055  1
  O  O14  1  0.62607736  0.51651854  0.63971482  1
  O  O15  1  0.89738532  0.52520446  0.14207431  1
  O  O16  1  0.62758247  0.10262654  0.14205252  1
  O  O17  1  0.47512537  0.37239720  0.14211998  1
  O  O18  1  0.46057557  0.29698932  0.02571018  1
  O  O19  1  0.83670655  0.53975087  0.02571527  1
  O  O20  1  0.70321572  0.16340533  0.02566170  1
  O  O21  1  0.45976810  0.16380798  0.52690108  1
  O  O22  1  0.70298971  0.54514616  0.52313352  1
  O  O23  1  0.83690811  0.29657133  0.52684312  1
  O  O24  1  0.53785726  0.70336513  0.97340243  1
  O  O25  1  0.16698490  0.46400567  0.97237217  1
  O  O26  1  0.29742986  0.83324890  0.97237929  1
  O  O27  1  0.52566423  0.83073682  0.47342338  1
  O  O28  1  0.30894250  0.47411812  0.47469306  1
  O  O29  1  0.16632320  0.69176818  0.47439778  1
  O  O30  1  0.12236926  0.62525269  0.35810469  1
  O  O31  1  0.50263870  0.87919289  0.35777262  1
  O  O32  1  0.37932536  0.50077568  0.35910740  1
  O  O33  1  0.12312175  0.49362691  0.85714508  1
  O  O34  1  0.37035806  0.87689571  0.85707522  1
  O  O35  1  0.50337031  0.62746202  0.85895178  1
  O  O36  1  0.01855579  0.82214238  0.41527820  1
  O  O37  1  0.79900518  0.97305931  0.41474048  1
  O  O38  1  0.17061771  0.19625381  0.41537910  1
  O  O39  1  0.02539650  0.18864912  0.90990702  1
  O  O40  1  0.16338843  0.97479346  0.91019605  1
  O  O41  1  0.81103280  0.83676466  0.91013522  1
  O  O42  1  0.97944707  0.16131054  0.58827737  1
  O  O43  1  0.18260042  0.02128365  0.58867185  1
  O  O44  1  0.83877233  0.81722429  0.58773677  1
  O  O45  1  0.97931347  0.81806741  0.08750774  1
  O  O46  1  0.83848311  0.02017523  0.08760267  1
  O  O47  1  0.18224610  0.16154869  0.08736803  1
  O  O48  1  0.68909798  0.15539657  0.74821965  1
  O  O49  1  0.46858545  0.30580671  0.74782120  1
  O  O50  1  0.84022010  0.52756126  0.74821175  1
  O  O51  1  0.68034934  0.52197752  0.24398505  1
  O  O52  1  0.84210973  0.32092187  0.24335371  1
  O  O53  1  0.47843523  0.15776917  0.24340769  1
  O  O54  1  0.64136128  0.49564925  0.92445292  1
  O  O55  1  0.85467408  0.35939446  0.92399687  1
  O  O56  1  0.50468415  0.14549958  0.92400640  1
  O  O57  1  0.62910285  0.14513861  0.42515083  1
  O  O58  1  0.51344624  0.37100245  0.42464123  1
  O  O59  1  0.85376409  0.48681719  0.42452204  1
  O  O60  1  0.35172802  0.50331462  0.07213344  1
  O  O61  1  0.15167503  0.64819613  0.07199894  1
  O  O62  1  0.49649532  0.84861164  0.07212088  1
  O  O63  1  0.35110997  0.84907547  0.57379008  1
  O  O64  1  0.49838032  0.65082001  0.57335991  1
  O  O65  1  0.15094619  0.50201121  0.57415992  1
  O  O66  1  0.30295970  0.82010450  0.25593277  1
  O  O67  1  0.51668988  0.69662001  0.25620648  1
  O  O68  1  0.17956781  0.48203540  0.25644389  1
  O  O69  1  0.29476266  0.47572495  0.75875222  1
  O  O70  1  0.17760333  0.70148929  0.75799696  1
  O  O71  1  0.52055463  0.81984175  0.75826187  1
loop_
_geom_bond_atom_site_label_1
_geom_bond_atom_site_label_2
_geom_bond_distance
_geom_bond_site_symmetry_2
Na0 O53 2.305312 1_555
Na0 O67 2.345746 1_545
Na0 O52 2.353395 1_555
Na0 O16 2.455326 1_555
Na0 O66 2.514298 1_545
Na0 O31 2.660048 1_545
Na0 O9 2.676006 1_545
Na0 O2 2.716736 1_555
Na1 O51 2.312889 1_555
Na1 O68 2.339197 1_555
Na1 O53 2.348566 1_555
Na1 O17 2.451909 1_555
Na1 O67 2.515250 1_555
Na1 O10 2.681171 1_555
Na1 O32 2.696966 1_555
Na1 O0 2.737917 1_555
Na2 O52 2.301812 1_555
Na2 O66 2.339406 1_655
Na2 O51 2.345179 1_555
Na2 O15 2.448520 1_555
Na2 O68 2.511954 1_655
Na2 O30 2.672314 1_655
Na2 O11 2.685559 1_655
Na2 O1 2.787239 1_555
Na3 O48 2.294485 1_555
Na3 O69 2.305949 1_655
Na3 O50 2.318391 1_555
Na3 O12 2.390113 1_555
Na3 O70 2.516311 1_655
Na3 O33 2.669258 1_655
Na3 O7 2.681157 1_655
Na3 O5 2.840076 1_555
Na4 O49 2.275507 1_555
Na4 O70 2.310591 1_545
Na4 O48 2.340948 1_555
Na4 O13 2.403091 1_555
Na4 O71 2.492211 1_545
Na4 O34 2.653548 1_545
Na4 O8 2.689001 1_545
Na4 O3 2.845760 1_555
Na5 O37 2.273175 1_555
Na5 O58 2.292173 1_555
Na5 O36 2.310099 1_655
Na5 O59 2.492420 1_555
Na5 O1 2.498645 1_555
Na5 O22 2.578094 1_555
Na5 O32 2.734954 1_555
Na5 O27 2.807235 1_555
Na6 O38 2.349388 1_555
Na6 O42 2.441588 1_455
Na6 O36 2.442132 1_545
Na6 O43 2.448112 1_555
Na6 O37 2.459619 1_445
Na6 O44 2.500524 1_445
Na7 O46 2.405204 1_565
Na7 O45 2.405221 1_555
Na7 O47 2.406001 1_665
Na7 O40 2.485943 1_654
Na7 O41 2.487883 1_554
Na7 O39 2.491562 1_664
Na8 O50 2.417848 1_555
Na8 O49 2.430246 1_555
Na8 O54 2.447399 1_555
Na8 O55 2.510039 1_555
Na8 O56 2.511228 1_555
Na8 O48 2.523234 1_555
Na9 O57 2.443751 1_555
Na9 O53 2.487613 1_555
Na9 O52 2.489538 1_555
Na9 O59 2.495046 1_555
Na9 O58 2.512722 1_555
Na9 O51 2.544158 1_555
Na10 O61 2.452056 1_555
Na10 O60 2.452215 1_555
Na10 O62 2.452707 1_555
Na10 O66 2.522091 1_555
Na10 O67 2.527016 1_555
Na10 O68 2.534312 1_555
Na11 O64 2.404747 1_555
Na11 O65 2.465167 1_555
Na11 O63 2.473966 1_555
Na11 O71 2.531281 1_555
Na11 O69 2.554678 1_555
Na11 O70 2.609314 1_555
Ge0 O4 1.858177 1_555
Ge0 O5 1.863599 1_565
Ge0 O3 1.875319 1_665
Ge0 O41 1.926752 1_555
Ge0 O40 1.927407 1_655
Ge0 O39 1.934244 1_665
Ge1 O44 1.910641 1_555
Ge1 O42 1.913786 1_565
Ge1 O43 1.914668 1_665
Ge1 O6 1.924877 1_555
Ge1 O8 1.943972 1_655
Ge1 O7 1.971300 1_665
Ge2 O47 1.930246 1_555
Ge2 O46 1.934272 1_455
Ge2 O45 1.935159 1_445
Ge2 O11 1.940369 1_545
Ge2 O10 1.942392 1_555
Ge2 O9 1.953672 1_445
Ge3 O18 1.886320 1_556
Ge3 O19 1.887192 1_556
Ge3 O20 1.887732 1_556
Ge3 O54 1.971186 1_555
Ge3 O55 1.975953 1_555
Ge3 O56 1.980094 1_555
Ge4 O23 1.874869 1_555
Ge4 O21 1.877619 1_555
Ge4 O57 1.923393 1_555
Ge4 O22 1.924410 1_555
Ge4 O59 1.973226 1_555
Ge4 O58 1.990416 1_555
Ge5 O60 1.887501 1_555
Ge5 O61 1.887701 1_555
Ge5 O62 1.887800 1_555
Ge5 O24 1.891895 1_554
Ge5 O26 1.896501 1_554
Ge5 O25 1.897801 1_554
Ge6 O29 1.843990 1_555
Ge6 O28 1.853814 1_555
Ge6 O27 1.862099 1_555
Ge6 O64 1.883839 1_555
Ge6 O65 1.887352 1_555
Ge6 O63 1.888091 1_555
Ge7 O30 1.873396 1_555
Ge7 O31 1.889845 1_555
Ge7 O32 1.899918 1_555
Ge7 O66 1.973219 1_555
Ge7 O68 1.977234 1_555
Ge7 O67 1.982452 1_555
Ge8 O35 1.857840 1_555
Ge8 O33 1.906831 1_555
Ge8 O34 1.907976 1_555
Ge8 O71 1.933025 1_555
Ge8 O69 1.941000 1_555
Ge8 O70 2.003625 1_555
O0 P0 1.498703 1_545
O0 Zn0 1.960032 1_555
O1 P1 1.512465 1_555
O1 Zn0 2.031737 1_665
O2 P2 1.499561 1_655
O2 Zn0 1.966941 1_655
O3 P3 1.559646 1_555
O4 P4 1.544118 1_555
O5 P5 1.553487 1_545
O6 P5 1.549203 1_555
O7 P3 1.564975 1_555
O8 P4 1.563053 1_455
O9 P1 1.576732 1_555
O10 P2 1.582363 1_555
O11 P0 1.581460 1_555
O12 P6 1.514110 1_555
O12 Zn1 2.009599 1_555
O13 P7 1.514964 1_555
O13 Zn1 2.016506 1_555
O14 P8 1.496074 1_555
O14 Zn1 1.936961 1_555
O15 P9 1.513283 1_555
O15 Zn2 1.986148 1_555
O16 P10 1.512928 1_555
O16 Zn2 1.985301 1_555
O17 P11 1.513534 1_555
O17 Zn2 1.985850 1_555
O18 P11 1.563682 1_555
O19 P9 1.563617 1_555
O20 P10 1.564423 1_555
O21 P7 1.565577 1_555
O22 P8 1.580700 1_555
O23 P6 1.564415 1_555
O24 P12 1.533758 1_555
O25 P13 1.532445 1_555
O26 P14 1.532104 1_555
O27 P15 1.538227 1_555
O28 P16 1.529141 1_555
O29 P17 1.524422 1_555
O30 P17 1.588239 1_555
O31 P15 1.593764 1_555
O32 P16 1.608570 1_555
O33 P13 1.573831 1_555
O34 P14 1.574212 1_555
O35 P12 1.563073 1_555
O36 P17 1.509397 1_555
O36 Zn0 2.097786 1_565
O37 P15 1.509559 1_555
O37 Zn0 2.097052 1_665
O38 P16 1.489218 1_555
O38 Zn0 2.017050 1_555
O39 P13 1.556534 1_555
O40 P14 1.556867 1_555
O41 P12 1.555862 1_555
O42 P6 1.567480 1_555
O43 P7 1.568091 1_555
O44 P8 1.569735 1_555
O45 P9 1.566147 1_555
O46 P10 1.566367 1_555
O47 P11 1.566025 1_555
O48 P5 1.526655 1_545
O48 Zn1 2.233623 1_555
O49 P3 1.507662 1_555
O49 Zn1 2.138764 1_555
O50 P4 1.507807 1_555
O50 Zn1 2.140143 1_555
O51 P1 1.524063 1_555
O51 Zn2 2.139021 1_555
O52 P2 1.524384 1_655
O52 Zn2 2.124734 1_555
O53 P0 1.524486 1_545
O53 Zn2 2.129341 1_555
O54 P12 1.551660 1_555
O55 P13 1.551983 1_655
O56 P14 1.551615 1_545
O57 P15 1.550220 1_545
O58 P16 1.574952 1_555
O59 P17 1.573049 1_655
O60 P11 1.558767 1_555
O61 P9 1.559113 1_455
O62 P10 1.558846 1_565
O63 P7 1.555435 1_565
O64 P8 1.557496 1_555
O65 P6 1.555753 1_455
O66 P0 1.595421 1_555
O67 P1 1.593629 1_555
O68 P2 1.595970 1_555
O69 P3 1.576201 1_555
O70 P4 1.600714 1_455
O71 P5 1.573655 1_555
