# generated using pymatgen
data_MgFe4(HO2)4
_symmetry_space_group_name_H-M   'P 1'
_cell_length_a   7.96006778
_cell_length_b   7.77457406
_cell_length_c   8.84082214
_cell_angle_alpha   104.65058463
_cell_angle_beta   83.04485597
_cell_angle_gamma   156.62807219
_symmetry_Int_Tables_number   1
_chemical_formula_structural   MgFe4(HO2)4
_chemical_formula_sum   'Mg1 Fe4 H4 O8'
_cell_volume   200.99949520
_cell_formula_units_Z   1
loop_
 _symmetry_equiv_pos_site_id
 _symmetry_equiv_pos_as_xyz
  1  'x, y, z'
loop_
 _atom_site_type_symbol
 _atom_site_label
 _atom_site_symmetry_multiplicity
 _atom_site_fract_x
 _atom_site_fract_y
 _atom_site_fract_z
 _atom_site_occupancy
  Mg  Mg0  1  0.50000000  -0.00000000  -0.00000000  1
  Fe  Fe0  1  0.28025179  0.75524812  0.31255759  1
  Fe  Fe1  1  0.71974821  0.24475188  0.68744241  1
  Fe  Fe2  1  0.21922678  0.41899935  0.54501009  1
  Fe  Fe3  1  0.78077322  0.58100065  0.45498991  1
  H  H0  1  0.90663570  0.68884164  0.97117988  1
  H  H1  1  0.09336430  0.31115836  0.02882012  1
  H  H2  1  0.05570939  -0.00002573  0.25569952  1
  H  H3  1  0.94429061  0.00002573  0.74430048  1
  O  O0  1  0.89738983  0.55137651  0.94150218  1
  O  O1  1  0.10261017  0.44862349  0.05849782  1
  O  O2  1  0.15791100  0.10896182  0.37242161  1
  O  O3  1  0.84208900  0.89103818  0.62757839  1
  O  O4  1  0.60276477  0.90192657  0.44873810  1
  O  O5  1  0.39723523  0.09807343  0.55126190  1
  O  O6  1  0.31182058  0.69388580  0.74506188  1
  O  O7  1  0.68817942  0.30611420  0.25493812  1
loop_
_geom_bond_atom_site_label_1
_geom_bond_atom_site_label_2
_geom_bond_distance
_geom_bond_site_symmetry_2
Mg0 O1 2.101123 1_655
Mg0 O0 2.101123 1_444
Mg0 O1 2.116625 1_545
Mg0 O0 2.116625 1_554
Mg0 O7 2.132391 1_555
Mg0 O6 2.132391 1_544
Fe0 O4 2.004968 1_555
Fe0 O7 2.032940 1_455
Fe0 O7 2.077760 1_565
Fe0 O1 2.144617 1_555
Fe0 O5 2.344929 1_565
Fe1 O5 2.004968 1_555
Fe1 O6 2.032940 1_655
Fe1 O6 2.077760 1_545
Fe1 O0 2.144617 1_555
Fe1 O4 2.344929 1_545
Fe2 O6 1.936604 1_555
Fe2 O4 2.007278 1_445
Fe2 O4 2.021091 1_555
Fe2 O2 2.129902 1_555
Fe2 O3 2.167816 1_555
Fe2 O3 2.180763 1_445
Fe3 O7 1.936604 1_555
Fe3 O5 2.007278 1_665
Fe3 O5 2.021091 1_555
Fe3 O3 2.129902 1_555
Fe3 O2 2.167816 1_555
Fe3 O2 2.180763 1_665
H0 O0 0.966889 1_555
H1 O1 0.966889 1_555
H2 O2 0.969604 1_555
H3 O3 0.969604 1_545
