# generated using pymatgen
data_LuCo2
_symmetry_space_group_name_H-M   'P 1'
_cell_length_a   4.98423965
_cell_length_b   4.98434142
_cell_length_c   4.98427449
_cell_angle_alpha   59.99879816
_cell_angle_beta   59.99992513
_cell_angle_gamma   60.00027943
_symmetry_Int_Tables_number   1
_chemical_formula_structural   LuCo2
_chemical_formula_sum   'Lu2 Co4'
_cell_volume   87.55690044
_cell_formula_units_Z   2
loop_
 _symmetry_equiv_pos_site_id
 _symmetry_equiv_pos_as_xyz
  1  'x, y, z'
loop_
 _atom_site_type_symbol
 _atom_site_label
 _atom_site_symmetry_multiplicity
 _atom_site_fract_x
 _atom_site_fract_y
 _atom_site_fract_z
 _atom_site_occupancy
  Lu  Lu0  1  0.87500604  0.87500045  0.87499090  1
  Lu  Lu1  1  0.12499396  0.12499955  0.12500910  1
  Co  Co0  1  0.50000000  0.50000000  0.50000000  1
  Co  Co1  1  0.50000000  0.50000000  0.00000000  1
  Co  Co2  1  -0.00000000  0.50000000  0.50000000  1
  Co  Co3  1  0.50000000  -0.00000000  0.50000000  1
loop_
_geom_bond_atom_site_label_1
_geom_bond_atom_site_label_2
_geom_bond_distance
_geom_bond_site_symmetry_2
Lu0 Lu1 3.052127 1_665
Lu0 Lu1 3.052256 1_656
Lu0 Lu1 3.052268 1_666
Lu0 Lu1 3.052274 1_566
Co0 Co2 2.492120 1_655
Co0 Co2 2.492120 1_555
Co0 Co1 2.492137 1_556
Co0 Co1 2.492137 1_555
Co0 Co3 2.492171 1_565
Co0 Co3 2.492171 1_555
Co0 Lu0 2.922268 1_545
Co0 Lu1 2.922268 1_565
Co0 Lu1 2.922285 1_556
Co0 Lu0 2.922285 1_554
Co0 Lu0 2.922288 1_455
Co0 Lu1 2.922288 1_655
Co1 Co3 2.492109 1_555
Co1 Co3 2.492109 1_564
Co1 Co2 2.492126 1_654
Co1 Co2 2.492126 1_555
Co1 Lu1 2.922267 1_655
Co1 Lu0 2.922267 1_454
Co1 Lu0 2.922296 1_554
Co1 Lu1 2.922296 1_555
Co1 Lu1 2.922363 1_565
Co1 Lu0 2.922363 1_544
Co2 Co3 2.492156 1_465
Co2 Co3 2.492156 1_555
Co2 Lu0 2.922270 1_445
Co2 Lu1 2.922270 1_565
Co2 Lu1 2.922280 1_556
Co2 Lu0 2.922280 1_454
Co2 Lu0 2.922312 1_455
Co2 Lu1 2.922312 1_555
Co3 Lu0 2.922236 1_445
Co3 Lu1 2.922236 1_655
Co3 Lu0 2.922259 1_545
Co3 Lu1 2.922259 1_555
Co3 Lu1 2.922343 1_556
Co3 Lu0 2.922343 1_544
