# generated using pymatgen
data_Hf5Sn3
_symmetry_space_group_name_H-M   'P 1'
_cell_length_a   8.39460577
_cell_length_b   8.39460086
_cell_length_c   5.70588316
_cell_angle_alpha   90.00000000
_cell_angle_beta   90.00000000
_cell_angle_gamma   120.00011422
_symmetry_Int_Tables_number   1
_chemical_formula_structural   Hf5Sn3
_chemical_formula_sum   'Hf10 Sn6'
_cell_volume   348.21972082
_cell_formula_units_Z   2
loop_
 _symmetry_equiv_pos_site_id
 _symmetry_equiv_pos_as_xyz
  1  'x, y, z'
loop_
 _atom_site_type_symbol
 _atom_site_label
 _atom_site_symmetry_multiplicity
 _atom_site_fract_x
 _atom_site_fract_y
 _atom_site_fract_z
 _atom_site_occupancy
  Hf  Hf0  1  0.33333639  0.66666944  -0.00000004  1
  Hf  Hf1  1  0.66666790  0.33333439  0.50000005  1
  Hf  Hf2  1  0.66666790  0.33333439  -0.00000005  1
  Hf  Hf3  1  0.33333639  0.66666944  0.50000004  1
  Hf  Hf4  1  0.75413247  -0.00012256  0.75000000  1
  Hf  Hf5  1  0.75413332  0.75425310  0.25000000  1
  Hf  Hf6  1  0.00012101  0.24586711  0.25000000  1
  Hf  Hf7  1  0.00011826  0.75425164  0.75000000  1
  Hf  Hf8  1  0.24574487  0.24586774  0.75000000  1
  Hf  Hf9  1  0.24574463  -0.00012289  0.25000000  1
  Sn  Sn0  1  0.39267758  0.00004054  0.75000000  1
  Sn  Sn1  1  0.39267917  0.39263823  0.25000000  1
  Sn  Sn2  1  -0.00003900  0.60731886  0.25000000  1
  Sn  Sn3  1  -0.00004086  0.39264033  0.75000000  1
  Sn  Sn4  1  0.60735891  0.60731831  0.75000000  1
  Sn  Sn5  1  0.60736106  0.00004194  0.25000000  1
loop_
_geom_bond_atom_site_label_1
_geom_bond_atom_site_label_2
_geom_bond_distance
_geom_bond_site_symmetry_2
Hf0 Hf3 2.852941 1_554
Hf0 Hf3 2.852942 1_555
Hf0 Sn5 2.953056 1_565
Hf0 Sn4 2.953061 1_554
Hf0 Sn0 2.953065 1_564
Hf0 Sn2 2.953074 1_555
Hf0 Sn1 2.953084 1_555
Hf0 Sn3 2.953090 1_554
Hf1 Hf2 2.852941 1_556
Hf1 Hf2 2.852942 1_555
Hf1 Sn3 2.952578 1_655
Hf1 Sn2 2.952581 1_655
Hf1 Sn4 2.952582 1_555
Hf1 Sn5 2.952583 1_555
Hf1 Sn1 2.952594 1_555
Hf1 Sn0 2.952599 1_555
Hf2 Sn3 2.952578 1_654
Hf2 Sn2 2.952581 1_655
Hf2 Sn4 2.952582 1_554
Hf2 Sn5 2.952583 1_555
Hf2 Sn1 2.952594 1_555
Hf2 Sn0 2.952599 1_554
Hf3 Sn5 2.953056 1_565
Hf3 Sn4 2.953061 1_555
Hf3 Sn0 2.953065 1_565
Hf3 Sn2 2.953074 1_555
Hf3 Sn1 2.953084 1_555
Hf3 Sn3 2.953090 1_555
Hf4 Sn4 2.883978 1_545
Hf4 Sn3 2.885369 1_655
Hf4 Sn0 3.034956 1_555
Hf4 Sn5 3.107896 1_555
Hf4 Sn5 3.107896 1_556
Hf5 Sn5 2.883999 1_565
Hf5 Sn2 2.885370 1_655
Hf5 Sn1 3.034934 1_555
Hf5 Sn4 3.107899 1_555
Hf5 Sn4 3.107899 1_554
Hf6 Sn1 2.883975 1_555
Hf6 Sn5 2.885349 1_455
Hf6 Sn2 3.034915 1_555
Hf6 Sn3 3.107898 1_555
Hf6 Sn3 3.107898 1_554
Hf7 Sn0 2.883983 1_565
Hf7 Sn4 2.885348 1_455
Hf7 Sn3 3.034915 1_555
Hf7 Sn2 3.107898 1_555
Hf7 Sn2 3.107898 1_556
Hf8 Sn3 2.883978 1_555
Hf8 Sn0 2.885356 1_555
Hf8 Sn4 3.034915 1_555
Hf8 Sn1 3.107891 1_555
Hf8 Sn1 3.107891 1_556
Hf9 Sn2 2.883968 1_545
Hf9 Sn1 2.885358 1_555
Hf9 Sn5 3.034936 1_555
Hf9 Sn0 3.107888 1_554
Hf9 Sn0 3.107888 1_555
