# generated using pymatgen
data_PdSe
_symmetry_space_group_name_H-M   'P 1'
_cell_length_a   6.79272721
_cell_length_b   6.79257662
_cell_length_c   6.95192956
_cell_angle_alpha   90.00000000
_cell_angle_beta   90.00000000
_cell_angle_gamma   89.99889384
_symmetry_Int_Tables_number   1
_chemical_formula_structural   PdSe
_chemical_formula_sum   'Pd8 Se8'
_cell_volume   320.76286433
_cell_formula_units_Z   8
loop_
 _symmetry_equiv_pos_site_id
 _symmetry_equiv_pos_as_xyz
  1  'x, y, z'
loop_
 _atom_site_type_symbol
 _atom_site_label
 _atom_site_symmetry_multiplicity
 _atom_site_fract_x
 _atom_site_fract_y
 _atom_site_fract_z
 _atom_site_occupancy
  Pd  Pd0  1  0.53152000  0.73967112  -0.00000000  1
  Pd  Pd1  1  0.26033105  0.53153389  0.50000000  1
  Pd  Pd2  1  0.73966767  0.46847114  0.50000000  1
  Pd  Pd3  1  0.46848584  0.26031642  -0.00000000  1
  Pd  Pd4  1  0.50000550  0.00000462  0.50000000  1
  Pd  Pd5  1  0.00000655  0.49998826  -0.00000000  1
  Pd  Pd6  1  -0.00000102  -0.00000169  0.75000273  1
  Pd  Pd7  1  -0.00000102  -0.00000169  0.24999727  1
  Se  Se0  1  0.19331487  0.30768504  0.77086401  1
  Se  Se1  1  0.69230876  0.19330781  0.27087122  1
  Se  Se2  1  0.30768489  0.80671229  0.27086222  1
  Se  Se3  1  0.80668419  0.69230483  0.77086577  1
  Se  Se4  1  0.80668419  0.69230483  0.22913423  1
  Se  Se5  1  0.30768489  0.80671229  0.72913778  1
  Se  Se6  1  0.69230876  0.19330781  0.72912878  1
  Se  Se7  1  0.19331487  0.30768504  0.22913599  1
loop_
_geom_bond_atom_site_label_1
_geom_bond_atom_site_label_2
_geom_bond_distance
_geom_bond_site_symmetry_2
Pd0 Se5 2.462694 1_554
Pd0 Se2 2.462694 1_555
Pd0 Se3 2.476791 1_554
Pd0 Se4 2.476791 1_555
Pd1 Se0 2.462722 1_555
Pd1 Se7 2.462722 1_555
Pd1 Se2 2.476848 1_555
Pd1 Se5 2.476848 1_555
Pd2 Se3 2.462668 1_555
Pd2 Se4 2.462668 1_555
Pd2 Se1 2.476735 1_555
Pd2 Se6 2.476735 1_555
Pd3 Se6 2.462650 1_554
Pd3 Se1 2.462650 1_555
Pd3 Se0 2.476836 1_554
Pd3 Se7 2.476836 1_555
Pd4 Se1 2.442892 1_555
Pd4 Se6 2.442892 1_555
Pd4 Se2 2.442956 1_545
Pd4 Se5 2.442956 1_545
Pd5 Se0 2.442916 1_554
Pd5 Se7 2.442916 1_555
Pd5 Se4 2.443008 1_455
Pd5 Se3 2.443008 1_454
Pd6 Se5 2.472423 1_545
Pd6 Se6 2.472537 1_455
Pd6 Se0 2.472554 1_555
Pd6 Se3 2.472589 1_445
Pd7 Se2 2.472423 1_545
Pd7 Se1 2.472537 1_455
Pd7 Se7 2.472554 1_555
Pd7 Se4 2.472589 1_445
