# generated using pymatgen
data_Na6Zn4In4SiS11O48
_symmetry_space_group_name_H-M   'P 1'
_cell_length_a   17.69713467
_cell_length_b   8.86124336
_cell_length_c   23.05202980
_cell_angle_alpha   89.78875842
_cell_angle_beta   89.78760443
_cell_angle_gamma   120.04662592
_symmetry_Int_Tables_number   1
_chemical_formula_structural   Na6Zn4In4SiS11O48
_chemical_formula_sum   'Na18 Zn12 In12 Si3 S33 O144'
_cell_volume   3129.11336348
_cell_formula_units_Z   3
loop_
 _symmetry_equiv_pos_site_id
 _symmetry_equiv_pos_as_xyz
  1  'x, y, z'
loop_
 _atom_site_type_symbol
 _atom_site_label
 _atom_site_symmetry_multiplicity
 _atom_site_fract_x
 _atom_site_fract_y
 _atom_site_fract_z
 _atom_site_occupancy
  Na  Na0  1  0.81888161  0.99651230  0.24673051  1
  Na  Na1  1  0.99622088  0.63621215  0.25335196  1
  Na  Na2  1  0.31746216  0.65004534  0.74981490  1
  Na  Na3  1  0.81713553  0.64431532  0.74624427  1
  Na  Na4  1  0.99385749  0.35682617  0.75115433  1
  Na  Na5  1  0.68963846  0.00247367  0.74879184  1
  Na  Na6  1  0.99717286  0.99661959  0.49897764  1
  Na  Na7  1  0.50273504  0.00336112  0.49474886  1
  Na  Na8  1  0.00047102  0.00096714  0.00076393  1
  Na  Na9  1  0.49978089  0.00062774  0.00093127  1
  Na  Na10  1  0.33539109  0.31151790  0.83619881  1
  Na  Na11  1  0.83453436  0.32414310  0.83659220  1
  Na  Na12  1  0.33466367  0.33506973  0.32971176  1
  Na  Na13  1  0.82810565  0.34632020  0.33571495  1
  Na  Na14  1  0.17448726  0.66977863  0.16879985  1
  Na  Na15  1  0.66650693  0.65651428  0.16918322  1
  Na  Na16  1  0.17242890  0.68694474  0.66506392  1
  Na  Na17  1  0.66999545  0.67032587  0.66287275  1
  Zn  Zn0  1  0.49823487  0.00087637  0.35040745  1
  Zn  Zn1  1  0.83416218  0.31805665  0.67638079  1
  Zn  Zn2  1  0.33517135  0.33818109  0.18320632  1
  Zn  Zn3  1  0.82760591  0.34815020  0.18296868  1
  Zn  Zn4  1  0.33372713  0.33356257  0.98503639  1
  Zn  Zn5  1  0.83356138  0.33335270  0.98499222  1
  Zn  Zn6  1  0.83272907  0.33545215  0.48351619  1
  Zn  Zn7  1  0.16347209  0.66203076  0.51327232  1
  Zn  Zn8  1  0.66983077  0.66712017  0.51472712  1
  Zn  Zn9  1  0.17500147  0.67367585  0.32134901  1
  Zn  Zn10  1  0.17696405  0.69621197  0.81834612  1
  Zn  Zn11  1  0.67048848  0.67243484  0.81933725  1
  In  In0  1  0.99779194  0.98915925  0.35135453  1
  In  In1  1  0.99728171  0.00269379  0.85124066  1
  In  In2  1  0.49634487  0.00638932  0.85181490  1
  In  In3  1  0.99277545  0.99463722  0.64724262  1
  In  In4  1  0.49667216  0.00127550  0.64860832  1
  In  In5  1  0.99793446  0.99636380  0.14940767  1
  In  In6  1  0.49769524  0.99778048  0.15078925  1
  In  In7  1  0.33411823  0.31705665  0.68251921  1
  In  In8  1  0.33250344  0.33064283  0.48035657  1
  In  In9  1  0.16703013  0.66760063  0.01704202  1
  In  In10  1  0.66639019  0.66882322  0.01762429  1
  In  In11  1  0.66592728  0.65529552  0.31787970  1
  Si  Si0  1  0.84990930  0.69827421  0.24933379  1
  Si  Si1  1  0.34921241  0.99760333  0.75064024  1
  Si  Si2  1  0.84903677  0.00036148  0.75083096  1
  S  S0  1  0.15216728  0.00315524  0.25009630  1
  S  S1  1  0.64568707  0.00001385  0.25129118  1
  S  S2  1  0.35146423  0.70279275  0.25175679  1
  S  S3  1  0.00317490  0.30113105  0.24983770  1
  S  S4  1  0.49651904  0.29053764  0.25046713  1
  S  S5  1  0.14776126  0.29566341  0.75014674  1
  S  S6  1  0.64913716  0.29896467  0.75004519  1
  S  S7  1  0.00114989  0.70387954  0.74963702  1
  S  S8  1  0.50123291  0.70439132  0.75057070  1
  S  S9  1  0.48539372  0.34113215  0.58069016  1
  S  S10  1  0.98282090  0.34029684  0.58160209  1
  S  S11  1  0.18264610  0.03104653  0.58185646  1
  S  S12  1  0.68467261  0.03569576  0.58308604  1
  S  S13  1  0.33141313  0.62530689  0.58329299  1
  S  S14  1  0.83136652  0.62057918  0.58294093  1
  S  S15  1  0.47812621  0.62386406  0.08320592  1
  S  S16  1  0.98001060  0.62387195  0.08237567  1
  S  S17  1  0.33321061  0.04412515  0.08327973  1
  S  S18  1  0.83327850  0.04516653  0.08316222  1
  S  S19  1  0.18804771  0.33199886  0.08358674  1
  S  S20  1  0.68632173  0.33138459  0.08208323  1
  S  S21  1  0.31407228  0.65972820  0.91692155  1
  S  S22  1  0.81391125  0.66020717  0.91692956  1
  S  S23  1  0.01937925  0.37568165  0.91562830  1
  S  S24  1  0.51993109  0.37762231  0.91661610  1
  S  S25  1  0.16701022  0.96598057  0.91681179  1
  S  S26  1  0.66691379  0.96605727  0.91555941  1
  S  S27  1  0.31337352  0.95698338  0.41714037  1
  S  S28  1  0.81364329  0.96655287  0.41852617  1
  S  S29  1  0.16566769  0.37419922  0.41649460  1
  S  S30  1  0.66596593  0.36622199  0.41943262  1
  S  S31  1  0.02052109  0.66308946  0.41695665  1
  S  S32  1  0.52038512  0.67007105  0.41756358  1
  O  O0  1  0.11350835  0.03601224  0.30255235  1
  O  O1  1  0.60434528  0.02631410  0.30234174  1
  O  O2  1  0.40687161  0.78758506  0.30226102  1
  O  O3  1  0.91377772  0.77924289  0.30552450  1
  O  O4  1  0.48589775  0.18498272  0.30237722  1
  O  O5  1  0.98802532  0.19033483  0.30232061  1
  O  O6  1  0.11240601  0.18582210  0.80253745  1
  O  O7  1  0.61170794  0.18194650  0.80193392  1
  O  O8  1  0.48593005  0.78305449  0.80277743  1
  O  O9  1  0.98601296  0.78343082  0.80234578  1
  O  O10  1  0.40833945  0.03454300  0.80788035  1
  O  O11  1  0.91499697  0.05290432  0.80597426  1
  O  O12  1  0.38882824  0.94852228  0.69370048  1
  O  O13  1  0.88841272  0.94738338  0.69550215  1
  O  O14  1  0.09481903  0.21347876  0.69762188  1
  O  O15  1  0.59626056  0.21915518  0.69748015  1
  O  O16  1  0.01931297  0.81527380  0.69751874  1
  O  O17  1  0.52035024  0.81649814  0.69791299  1
  O  O18  1  0.38811329  0.80772999  0.19689911  1
  O  O19  1  0.88949739  0.82958276  0.19322051  1
  O  O20  1  0.02083764  0.22758113  0.19738306  1
  O  O21  1  0.51339973  0.21828633  0.19664091  1
  O  O22  1  0.09571796  0.96882467  0.19775981  1
  O  O23  1  0.59505899  0.97339698  0.19699344  1
  O  O24  1  0.44704270  0.36813014  0.63460227  1
  O  O25  1  0.94594294  0.36106058  0.63776167  1
  O  O26  1  0.23435043  0.10956153  0.63518492  1
  O  O27  1  0.73287373  0.11052659  0.63855516  1
  O  O28  1  0.32077808  0.52456801  0.63837773  1
  O  O29  1  0.82206907  0.52537426  0.63881160  1
  O  O30  1  0.43912898  0.52131647  0.13614038  1
  O  O31  1  0.94238145  0.52525590  0.13665261  1
  O  O32  1  0.32154766  0.12197250  0.13597762  1
  O  O33  1  0.82278282  0.12080430  0.13754210  1
  O  O34  1  0.23895252  0.35561368  0.13619615  1
  O  O35  1  0.73641067  0.35471035  0.13489687  1
  O  O36  1  0.22698890  0.30913711  0.03035758  1
  O  O37  1  0.72626289  0.30931146  0.02929804  1
  O  O38  1  0.42783705  0.54652746  0.03028584  1
  O  O39  1  0.92759338  0.54193536  0.03061602  1
  O  O40  1  0.34498862  0.14477636  0.02989759  1
  O  O41  1  0.84234508  0.14763050  0.03078634  1
  O  O42  1  0.22357919  0.14381676  0.53021752  1
  O  O43  1  0.72741303  0.14712897  0.53234446  1
  O  O44  1  0.34423586  0.53929320  0.53236061  1
  O  O45  1  0.84269976  0.53549878  0.53222947  1
  O  O46  1  0.42809124  0.30895200  0.53015607  1
  O  O47  1  0.92633425  0.31297740  0.53198567  1
  O  O48  1  0.27385049  0.69128116  0.96880659  1
  O  O49  1  0.77335565  0.69088559  0.96861847  1
  O  O50  1  0.07258659  0.45612425  0.96817872  1
  O  O51  1  0.57223904  0.45506541  0.96988938  1
  O  O52  1  0.15147968  0.85827345  0.97017333  1
  O  O53  1  0.65212605  0.85684798  0.96824090  1
  O  O54  1  0.27285713  0.85403779  0.47023695  1
  O  O55  1  0.77042225  0.85237359  0.46866892  1
  O  O56  1  0.15489168  0.45223449  0.46965344  1
  O  O57  1  0.65232693  0.45124001  0.47013700  1
  O  O58  1  0.07448219  0.68684803  0.46821570  1
  O  O59  1  0.57234349  0.69017360  0.46950896  1
  O  O60  1  0.05942297  0.64423222  0.36202936  1
  O  O61  1  0.55817484  0.63986770  0.36379285  1
  O  O62  1  0.26081832  0.88195141  0.36455213  1
  O  O63  1  0.76497651  0.89257987  0.36302549  1
  O  O64  1  0.17796626  0.47628680  0.36358809  1
  O  O65  1  0.68191183  0.47132151  0.36500793  1
  O  O66  1  0.06046574  0.47643363  0.86192057  1
  O  O67  1  0.56223765  0.48135479  0.86406206  1
  O  O68  1  0.17807119  0.88401082  0.86483501  1
  O  O69  1  0.67792966  0.88586219  0.86223678  1
  O  O70  1  0.26357524  0.63838419  0.86342188  1
  O  O71  1  0.76445552  0.63983817  0.86308567  1
  O  O72  1  0.01409674  0.82721969  0.41526136  1
  O  O73  1  0.51074123  0.82582759  0.41103280  1
  O  O74  1  0.40180808  0.97713591  0.41119517  1
  O  O75  1  0.90252784  0.98347463  0.41463215  1
  O  O76  1  0.08662195  0.19564566  0.41196786  1
  O  O77  1  0.58622749  0.19288759  0.41253741  1
  O  O78  1  0.01252042  0.19927102  0.91420671  1
  O  O79  1  0.51343583  0.20163227  0.91470536  1
  O  O80  1  0.08650665  0.98123061  0.91184307  1
  O  O81  1  0.58646171  0.98133927  0.91129014  1
  O  O82  1  0.40319703  0.81917302  0.91420376  1
  O  O83  1  0.90300696  0.82021176  0.91391234  1
  O  O84  1  0.49244404  0.18041175  0.58531985  1
  O  O85  1  0.99245301  0.18016767  0.58532195  1
  O  O86  1  0.09551244  0.01804851  0.58764812  1
  O  O87  1  0.59581534  0.01983974  0.58803936  1
  O  O88  1  0.41327769  0.79923543  0.58569980  1
  O  O89  1  0.91341939  0.79804674  0.58446566  1
  O  O90  1  0.48877604  0.80332660  0.08769559  1
  O  O91  1  0.99136386  0.80387249  0.08511385  1
  O  O92  1  0.41278287  0.02303121  0.08726270  1
  O  O93  1  0.91373063  0.02811592  0.08467158  1
  O  O94  1  0.09802114  0.17343823  0.08816529  1
  O  O95  1  0.59690216  0.17256699  0.08702946  1
  O  O96  1  0.34048629  0.17248539  0.74766565  1
  O  O97  1  0.84020000  0.17601159  0.74363643  1
  O  O98  1  0.23921859  0.33025098  0.74356057  1
  O  O99  1  0.73775339  0.32176045  0.74354077  1
  O  O100  1  0.41773897  0.53630157  0.74326020  1
  O  O101  1  0.91905207  0.53331491  0.74339492  1
  O  O102  1  0.34354991  0.52864586  0.24467045  1
  O  O103  1  0.84716745  0.51199449  0.24401332  1
  O  O104  1  0.41732426  0.30604164  0.24402069  1
  O  O105  1  0.92159390  0.30860672  0.24325951  1
  O  O106  1  0.23917843  0.15799815  0.24216326  1
  O  O107  1  0.73598178  0.15169612  0.24464213  1
  O  O108  1  0.32189624  0.50248858  0.92374863  1
  O  O109  1  0.82195582  0.50300533  0.92355835  1
  O  O110  1  0.43205962  0.35765908  0.92225342  1
  O  O111  1  0.93157376  0.35660600  0.92194189  1
  O  O112  1  0.24598512  0.13958462  0.92289952  1
  O  O113  1  0.74589540  0.13945556  0.92205949  1
  O  O114  1  0.32213082  0.13559968  0.42106846  1
  O  O115  1  0.82267235  0.14070698  0.42445009  1
  O  O116  1  0.24589880  0.35540227  0.42046361  1
  O  O117  1  0.74540267  0.35053823  0.42502640  1
  O  O118  1  0.43128045  0.50902262  0.42144483  1
  O  O119  1  0.93211445  0.50739720  0.42268602  1
  O  O120  1  0.17756118  0.49102054  0.07889958  1
  O  O121  1  0.67673846  0.49098468  0.07801868  1
  O  O122  1  0.06926746  0.64274496  0.07810732  1
  O  O123  1  0.56806576  0.64470250  0.07896585  1
  O  O124  1  0.25386508  0.86398536  0.07904022  1
  O  O125  1  0.75372442  0.86542366  0.07876884  1
  O  O126  1  0.17523583  0.85922766  0.57565409  1
  O  O127  1  0.67550004  0.86014125  0.57745750  1
  O  O128  1  0.25348263  0.64311579  0.57764802  1
  O  O129  1  0.75351759  0.64241492  0.57829373  1
  O  O130  1  0.07067504  0.49737027  0.57625092  1
  O  O131  1  0.57174349  0.49721800  0.57457899  1
  O  O132  1  0.15531741  0.83907449  0.25712629  1
  O  O133  1  0.65476843  0.84123552  0.25653799  1
  O  O134  1  0.26332819  0.68559964  0.25742427  1
  O  O135  1  0.75613347  0.69430751  0.25433970  1
  O  O136  1  0.07852922  0.48101089  0.25688385  1
  O  O137  1  0.57534186  0.46837597  0.25480798  1
  O  O138  1  0.15111670  0.46472982  0.75665766  1
  O  O139  1  0.65609715  0.47066727  0.75768901  1
  O  O140  1  0.07510037  0.67258678  0.75680290  1
  O  O141  1  0.57724704  0.68150642  0.75738053  1
  O  O142  1  0.25487492  0.81542586  0.75467426  1
  O  O143  1  0.75226361  0.82450054  0.75729828  1
loop_
_geom_bond_atom_site_label_1
_geom_bond_atom_site_label_2
_geom_bond_distance
_geom_bond_site_symmetry_2
Na0 O135 2.335012 1_555
Na0 O105 2.433508 1_565
Na0 O107 2.462912 1_565
Na0 O133 2.523983 1_555
Na0 O19 2.669181 1_555
Na0 O33 2.730438 1_565
Na0 O63 2.833397 1_555
Na0 O5 2.906628 1_565
Na1 O103 2.305294 1_555
Na1 O136 2.454770 1_655
Na1 O132 2.469996 1_655
Na1 O105 2.528560 1_555
Na1 O3 2.651708 1_555
Na1 O60 2.734003 1_655
Na1 O22 2.861472 1_655
Na1 O31 2.865635 1_555
Na2 O142 2.238916 1_555
Na2 O100 2.445050 1_555
Na2 O98 2.458353 1_555
Na2 O138 2.557601 1_555
Na2 O12 2.623222 1_555
Na2 O70 2.767564 1_555
Na2 O28 2.814964 1_555
Na2 O8 2.878745 1_555
Na3 O143 2.401821 1_555
Na3 O101 2.449698 1_555
Na3 O99 2.475463 1_555
Na3 O139 2.481799 1_555
Na3 O13 2.597141 1_555
Na3 O29 2.713212 1_555
Na3 O71 2.840574 1_555
Na3 O9 2.911213 1_555
Na4 O97 2.373651 1_555
Na4 O140 2.426643 1_655
Na4 O138 2.452420 1_655
Na4 O101 2.510646 1_555
Na4 O11 2.644919 1_555
Na4 O25 2.756925 1_555
Na4 O66 2.797102 1_655
Na4 O14 2.932016 1_655
Na5 O97 2.317669 1_555
Na5 O143 2.345956 1_545
Na5 O99 2.515692 1_555
Na5 O141 2.532297 1_545
Na5 O27 2.682127 1_555
Na5 O69 2.776917 1_545
Na5 O7 2.851356 1_555
Na5 O17 2.857112 1_545
Na6 O75 2.535723 1_555
Na6 O89 2.552975 1_555
Na6 O72 2.556271 1_655
Na6 O85 2.602458 1_565
Na6 O76 2.606512 1_665
Na6 O86 2.634612 1_665
Na7 O77 2.462942 1_555
Na7 O73 2.542189 1_545
Na7 O74 2.562648 1_545
Na7 O87 2.673440 1_555
Na7 O84 2.676031 1_555
Na7 O88 2.693262 1_545
Na8 O93 2.550842 1_455
Na8 O91 2.558875 1_445
Na8 O78 2.590433 1_554
Na8 O94 2.604177 1_555
Na8 O80 2.607052 1_544
Na8 O83 2.613740 1_444
Na9 O95 2.576797 1_555
Na9 O92 2.580050 1_555
Na9 O79 2.592504 1_554
Na9 O90 2.593323 1_545
Na9 O82 2.607826 1_544
Na9 O81 2.625660 1_544
Na10 O96 2.412369 1_555
Na10 O112 2.521756 1_555
Na10 O110 2.521852 1_555
Na10 O108 2.723997 1_555
Na10 O100 2.778451 1_555
Na10 O98 2.791397 1_555
Na11 O113 2.530449 1_555
Na11 O111 2.537212 1_555
Na11 O97 2.544733 1_555
Na11 O109 2.637050 1_555
Na11 O101 2.731089 1_555
Na11 O99 2.743435 1_555
Na12 O104 2.543082 1_555
Na12 O102 2.552043 1_555
Na12 O106 2.604599 1_555
Na12 O116 2.671798 1_555
Na12 O118 2.680070 1_555
Na12 O114 2.680484 1_555
Na13 O103 2.492701 1_555
Na13 O117 2.532834 1_555
Na13 O119 2.619599 1_555
Na13 O107 2.697447 1_555
Na13 O115 2.703458 1_555
Na13 O105 2.814985 1_555
Na14 O134 2.543717 1_555
Na14 O124 2.597606 1_555
Na14 O136 2.628613 1_555
Na14 O120 2.629926 1_555
Na14 O132 2.652994 1_555
Na14 O122 2.735219 1_555
Na15 O135 2.444883 1_555
Na15 O137 2.556738 1_555
Na15 O121 2.624228 1_555
Na15 O133 2.671927 1_555
Na15 O123 2.686439 1_555
Na15 O125 2.690670 1_555
Na16 O142 2.463404 1_555
Na16 O126 2.545828 1_555
Na16 O128 2.609847 1_555
Na16 O140 2.684545 1_555
Na16 O130 2.698070 1_555
Na16 O138 2.774424 1_555
Na17 O129 2.528959 1_555
Na17 O127 2.554531 1_555
Na17 O143 2.603407 1_555
Na17 O131 2.626272 1_555
Na17 O139 2.738557 1_555
Na17 O141 2.754661 1_555
In0 O3 2.010817 1_555
In0 O72 2.171387 1_655
In0 O0 2.181678 1_665
In0 O5 2.186450 1_565
In0 O75 2.206519 1_555
In0 O76 2.219509 1_665
In1 O11 2.015938 1_555
In1 O6 2.168748 1_655
In1 O9 2.171407 1_545
In1 O83 2.179162 1_545
In1 O78 2.182881 1_655
In1 O80 2.190037 1_645
In2 O10 1.978009 1_555
In2 O79 2.164305 1_555
In2 O7 2.167778 1_555
In2 O82 2.182706 1_545
In2 O81 2.200199 1_545
In2 O8 2.209323 1_545
In3 O13 2.007722 1_555
In3 O89 2.164463 1_555
In3 O85 2.175427 1_565
In3 O16 2.197235 1_655
In3 O86 2.199462 1_665
In3 O14 2.212621 1_665
In4 O12 2.007431 1_545
In4 O15 2.173979 1_555
In4 O87 2.178554 1_555
In4 O84 2.180937 1_555
In4 O17 2.196636 1_545
In4 O88 2.208035 1_545
In5 O19 2.005339 1_555
In5 O22 2.175244 1_655
In5 O20 2.184870 1_665
In5 O94 2.185042 1_665
In5 O91 2.222814 1_555
In5 O93 2.227100 1_565
In6 O18 2.104228 1_555
In6 O21 2.118011 1_565
In6 O23 2.129505 1_555
In6 O92 2.191646 1_565
In6 O90 2.203906 1_555
In6 O95 2.209653 1_565
In7 O96 2.010172 1_555
In7 O26 2.113482 1_555
In7 O24 2.119650 1_555
In7 O28 2.212480 1_555
In7 O98 2.234852 1_555
In7 O100 2.254167 1_555
In8 O44 2.128950 1_555
In8 O42 2.133414 1_555
In8 O46 2.134195 1_555
In8 O114 2.142492 1_555
In8 O118 2.144313 1_555
In8 O116 2.157212 1_555
In9 O48 2.107019 1_554
In9 O50 2.113524 1_554
In9 O52 2.133578 1_554
In9 O122 2.149754 1_555
In9 O124 2.188393 1_555
In9 O120 2.189506 1_555
In10 O51 2.107935 1_554
In10 O49 2.123606 1_554
In10 O53 2.131895 1_554
In10 O123 2.163356 1_555
In10 O121 2.174829 1_555
In10 O125 2.179076 1_555
In11 O135 2.059048 1_555
In11 O65 2.090215 1_555
In11 O61 2.120871 1_555
In11 O137 2.191650 1_555
In11 O63 2.217100 1_555
In11 O133 2.250344 1_555
O0 S0 1.486937 1_555
O1 S1 1.463178 1_555
O1 Zn0 2.088940 1_555
O2 S2 1.469209 1_555
O2 Zn0 2.094474 1_565
O3 Si0 1.635776 1_555
O4 S4 1.468385 1_555
O4 Zn0 2.068868 1_555
O5 S3 1.491558 1_655
O6 S5 1.474211 1_555
O7 S6 1.497295 1_555
O8 S8 1.483367 1_555
O9 S7 1.495999 1_655
O10 Si1 1.616652 1_545
O11 Si2 1.632897 1_555
O12 Si1 1.645074 1_555
O13 Si2 1.630382 1_565
O14 S5 1.485215 1_555
O15 S6 1.481926 1_555
O16 S7 1.480462 1_555
O17 S8 1.492075 1_555
O18 S2 1.505254 1_555
O19 Si0 1.638218 1_555
O20 S3 1.480414 1_555
O21 S4 1.494451 1_555
O22 S0 1.501129 1_565
O23 S1 1.491292 1_565
O24 S9 1.490275 1_555
O25 S10 1.500498 1_555
O25 Zn1 2.020044 1_555
O26 S11 1.486505 1_555
O27 S12 1.500087 1_555
O27 Zn1 2.019313 1_555
O28 S13 1.505437 1_555
O29 S14 1.499657 1_555
O29 Zn1 2.134034 1_555
O30 S15 1.465809 1_555
O30 Zn2 2.043964 1_555
O31 S16 1.474988 1_555
O31 Zn3 2.123207 1_555
O32 S17 1.463244 1_555
O32 Zn2 2.113948 1_555
O33 S18 1.477936 1_555
O33 Zn3 2.237491 1_555
O34 S19 1.465373 1_555
O34 Zn2 2.091315 1_555
O35 S20 1.461873 1_555
O35 Zn3 1.985641 1_555
O36 S19 1.468660 1_555
O36 Zn4 2.069007 1_554
O37 S20 1.467082 1_555
O37 Zn5 2.067164 1_554
O38 S15 1.467425 1_555
O38 Zn4 2.074395 1_554
O39 S16 1.466778 1_555
O39 Zn5 2.058829 1_554
O40 S17 1.468692 1_555
O40 Zn4 2.056778 1_554
O41 S18 1.467129 1_555
O41 Zn5 2.022763 1_554
O42 S11 1.483330 1_555
O43 S12 1.467081 1_555
O43 Zn6 2.093192 1_555
O44 S13 1.479443 1_555
O45 S14 1.459921 1_555
O45 Zn6 2.034054 1_555
O46 S9 1.479304 1_555
O47 S10 1.460915 1_555
O47 Zn6 2.091568 1_555
O48 S21 1.486894 1_555
O49 S22 1.483310 1_555
O50 S23 1.484893 1_555
O51 S24 1.488109 1_555
O52 S25 1.491888 1_555
O53 S26 1.488341 1_555
O54 S27 1.474675 1_555
O54 Zn7 2.073980 1_555
O55 S28 1.467876 1_555
O55 Zn8 2.009431 1_555
O56 S29 1.467225 1_555
O56 Zn7 2.054850 1_555
O57 S30 1.475975 1_555
O57 Zn8 2.058011 1_555
O58 S31 1.470161 1_555
O58 Zn7 1.991134 1_555
O59 S32 1.468613 1_555
O59 Zn8 2.114104 1_555
O60 S31 1.488426 1_555
O60 Zn9 2.140264 1_555
O61 S32 1.493602 1_555
O62 S27 1.473681 1_555
O62 Zn9 1.980510 1_555
O63 S28 1.502439 1_555
O64 S29 1.464880 1_555
O64 Zn9 2.022364 1_555
O65 S30 1.498857 1_555
O66 S23 1.481111 1_555
O66 Zn10 2.236455 1_555
O67 S24 1.472769 1_555
O67 Zn11 2.079450 1_555
O68 S25 1.465803 1_555
O68 Zn10 1.974546 1_555
O69 S26 1.482334 1_555
O69 Zn11 2.082647 1_555
O70 S21 1.481887 1_555
O70 Zn10 2.118039 1_555
O71 S22 1.480105 1_555
O71 Zn11 2.087386 1_555
O72 S31 1.514902 1_555
O73 S32 1.480298 1_555
O73 Zn0 2.176756 1_565
O74 S27 1.489420 1_555
O74 Zn0 2.130847 1_565
O75 S28 1.505832 1_555
O76 S29 1.502331 1_555
O77 S30 1.486172 1_555
O77 Zn0 2.179994 1_555
O78 S23 1.506602 1_555
O79 S24 1.506053 1_555
O80 S25 1.501663 1_555
O81 S26 1.499721 1_555
O82 S21 1.501628 1_555
O83 S22 1.503648 1_555
O84 S9 1.494047 1_555
O85 S10 1.513683 1_555
O86 S11 1.493120 1_555
O87 S12 1.510923 1_555
O88 S13 1.497525 1_555
O89 S14 1.515542 1_555
O90 S15 1.508768 1_555
O91 S16 1.506114 1_555
O92 S17 1.513546 1_555
O93 S18 1.505628 1_555
O94 S19 1.509830 1_555
O95 S20 1.505013 1_555
O96 Si1 1.633701 1_545
O97 Si2 1.648220 1_555
O97 Zn1 2.030007 1_555
O98 S5 1.495897 1_555
O99 S6 1.484421 1_555
O99 Zn1 2.312091 1_555
O100 S8 1.493320 1_555
O101 S7 1.490006 1_655
O101 Zn1 2.334753 1_555
O102 S2 1.487692 1_555
O102 Zn2 2.155601 1_555
O103 Si0 1.632004 1_555
O103 Zn3 1.929593 1_555
O104 S4 1.483048 1_555
O104 Zn2 2.141720 1_555
O105 S3 1.486311 1_655
O105 Zn3 2.327709 1_555
O106 S0 1.472241 1_555
O106 Zn2 2.129076 1_555
O107 S1 1.493112 1_555
O107 Zn3 2.195194 1_555
O108 S21 1.475491 1_555
O108 Zn4 2.140328 1_555
O109 S22 1.476911 1_555
O109 Zn5 2.145554 1_555
O110 S24 1.479624 1_555
O110 Zn4 2.185281 1_555
O111 S23 1.483066 1_655
O111 Zn5 2.187408 1_555
O112 S25 1.479713 1_545
O112 Zn4 2.186148 1_555
O113 S26 1.479733 1_545
O113 Zn5 2.197578 1_555
O114 S27 1.514224 1_545
O115 S28 1.476649 1_545
O115 Zn6 2.138962 1_555
O116 S29 1.513209 1_555
O117 S30 1.486299 1_555
O117 Zn6 2.108354 1_555
O118 S32 1.508530 1_555
O119 S31 1.484658 1_655
O119 Zn6 2.159554 1_555
O120 S19 1.514155 1_555
O121 S20 1.508970 1_555
O122 S16 1.505637 1_455
O123 S15 1.510451 1_555
O124 S17 1.512252 1_565
O125 S18 1.511923 1_565
O126 S11 1.468854 1_565
O126 Zn7 2.195713 1_555
O127 S12 1.487259 1_565
O127 Zn8 2.207741 1_555
O128 S13 1.470717 1_555
O128 Zn7 2.247399 1_555
O129 S14 1.488245 1_555
O129 Zn8 2.174157 1_555
O130 S10 1.483254 1_455
O130 Zn7 2.121494 1_555
O131 S9 1.465765 1_555
O131 Zn8 2.129155 1_555
O132 S0 1.490928 1_565
O132 Zn9 2.227177 1_555
O133 S1 1.498453 1_565
O134 S2 1.494487 1_555
O134 Zn9 2.107701 1_555
O135 Si0 1.645855 1_555
O136 S3 1.490082 1_555
O136 Zn9 2.270798 1_555
O137 S4 1.496692 1_555
O138 S5 1.477535 1_555
O138 Zn10 2.350677 1_555
O139 S6 1.475007 1_555
O139 Zn11 2.201474 1_555
O140 S7 1.477016 1_555
O140 Zn10 2.224739 1_555
O141 S8 1.466264 1_555
O141 Zn11 2.217793 1_555
O142 Si1 1.643395 1_555
O142 Zn10 1.919984 1_555
O143 Si2 1.645446 1_565
O143 Zn11 1.993229 1_555
