# generated using pymatgen
data_MgCrP2O7
_symmetry_space_group_name_H-M   'P 1'
_cell_length_a   5.54170216
_cell_length_b   5.87113525
_cell_length_c   5.08665985
_cell_angle_alpha   74.19839366
_cell_angle_beta   83.77470049
_cell_angle_gamma   74.31606341
_symmetry_Int_Tables_number   1
_chemical_formula_structural   MgCrP2O7
_chemical_formula_sum   'Mg1 Cr1 P2 O7'
_cell_volume   153.20832075
_cell_formula_units_Z   1
loop_
 _symmetry_equiv_pos_site_id
 _symmetry_equiv_pos_as_xyz
  1  'x, y, z'
loop_
 _atom_site_type_symbol
 _atom_site_label
 _atom_site_symmetry_multiplicity
 _atom_site_fract_x
 _atom_site_fract_y
 _atom_site_fract_z
 _atom_site_occupancy
  Mg  Mg0  1  0.17635658  0.49131237  0.12658833  1
  Cr  Cr0  1  0.05080321  0.07399710  0.95664641  1
  P  P0  1  0.68197489  0.29302139  0.42549616  1
  P  P1  1  0.28404729  0.65427503  0.58092102  1
  O  O0  1  0.19446271  0.43008547  0.75155952  1
  O  O1  1  0.90172533  0.32193420  0.20921845  1
  O  O2  1  0.77071235  0.12035636  0.69550247  1
  O  O3  1  0.27498326  0.81757137  0.77108698  1
  O  O4  1  0.57542044  0.56738141  0.48462674  1
  O  O5  1  0.13978372  0.76718480  0.31293309  1
  O  O6  1  0.47124022  0.24689151  0.29653283  1
loop_
_geom_bond_atom_site_label_1
_geom_bond_atom_site_label_2
_geom_bond_distance
_geom_bond_site_symmetry_2
Mg0 O6 1.959575 1_555
Mg0 O1 1.983365 1_455
Mg0 O0 2.022584 1_554
Mg0 O5 2.044478 1_555
Mg0 O3 2.388125 1_554
Cr0 O3 2.051643 1_545
Cr0 O2 2.066326 1_455
Cr0 O1 2.142478 1_456
Cr0 O5 2.169808 1_546
Cr0 O0 2.371674 1_555
O0 P1 1.539478 1_555
O1 P0 1.562570 1_555
O2 P0 1.508140 1_555
O3 P1 1.525084 1_555
O4 P1 1.620691 1_555
O4 P0 1.656781 1_555
O5 P1 1.547412 1_555
O6 P0 1.517041 1_555
