# generated using pymatgen
data_RbMgSbO3
_symmetry_space_group_name_H-M   'P 1'
_cell_length_a   5.23331456
_cell_length_b   5.23315342
_cell_length_c   5.23315342
_cell_angle_alpha   73.87687020
_cell_angle_beta   106.17620559
_cell_angle_gamma   106.17620559
_symmetry_Int_Tables_number   1
_chemical_formula_structural   RbMgSbO3
_chemical_formula_sum   'Rb1 Mg1 Sb1 O3'
_cell_volume   129.04768130
_cell_formula_units_Z   1
loop_
 _symmetry_equiv_pos_site_id
 _symmetry_equiv_pos_as_xyz
  1  'x, y, z'
loop_
 _atom_site_type_symbol
 _atom_site_label
 _atom_site_symmetry_multiplicity
 _atom_site_fract_x
 _atom_site_fract_y
 _atom_site_fract_z
 _atom_site_occupancy
  Rb  Rb0  1  0.10579332  0.89527809  0.89527809  1
  Mg  Mg0  1  0.68263992  0.31859310  0.31859310  1
  Sb  Sb0  1  0.43087426  0.57009285  0.57009285  1
  O  O0  1  0.50678969  0.49500923  0.96726023  1
  O  O1  1  0.50678969  0.96726023  0.49500923  1
  O  O2  1  0.03378013  0.49543350  0.49543350  1
loop_
_geom_bond_atom_site_label_1
_geom_bond_atom_site_label_2
_geom_bond_distance
_geom_bond_site_symmetry_2
Mg0 O1 1.915071 1_545
Mg0 O0 1.915071 1_554
Mg0 O2 1.915801 1_655
O0 Sb0 1.950753 1_555
O0 Rb0 3.240979 1_555
O0 Rb0 3.304150 1_655
O0 Rb0 3.307911 1_545
O1 Sb0 1.950753 1_555
O1 Rb0 3.240979 1_555
O1 Rb0 3.304150 1_655
O1 Rb0 3.307911 1_554
O2 Sb0 1.950351 1_555
O2 Rb0 3.232908 1_555
O2 Rb0 3.309762 1_545
O2 Rb0 3.309762 1_554
