# generated using pymatgen
data_Na6Zr2Ti2Si5SO24
_symmetry_space_group_name_H-M   'P 1'
_cell_length_a   9.07613431
_cell_length_b   9.08344174
_cell_length_c   22.60146193
_cell_angle_alpha   89.91018680
_cell_angle_beta   89.72029884
_cell_angle_gamma   119.93564804
_symmetry_Int_Tables_number   1
_chemical_formula_structural   Na6Zr2Ti2Si5SO24
_chemical_formula_sum   'Na18 Zr6 Ti6 Si15 S3 O72'
_cell_volume   1614.69297990
_cell_formula_units_Z   3
loop_
 _symmetry_equiv_pos_site_id
 _symmetry_equiv_pos_as_xyz
  1  'x, y, z'
loop_
 _atom_site_type_symbol
 _atom_site_label
 _atom_site_symmetry_multiplicity
 _atom_site_fract_x
 _atom_site_fract_y
 _atom_site_fract_z
 _atom_site_occupancy
  Na  Na0  1  0.63633035  -0.00013729  0.25353191  1
  Na  Na1  1  0.35957329  0.36302910  0.24895430  1
  Na  Na2  1  0.00399415  0.63428048  0.25115358  1
  Na  Na3  1  0.63141129  0.63024439  0.74849701  1
  Na  Na4  1  0.99265742  0.36135896  0.74887672  1
  Na  Na5  1  0.37160387  0.00915720  0.74863135  1
  Na  Na6  1  0.29612143  0.33325619  0.58272065  1
  Na  Na7  1  0.03174208  0.70370824  0.58368201  1
  Na  Na8  1  0.67286381  0.96566517  0.58402391  1
  Na  Na9  1  0.03839429  0.33786380  0.08705735  1
  Na  Na10  1  0.97668239  0.66864487  0.91671899  1
  Na  Na11  1  0.33470481  0.03434108  0.41732955  1
  Na  Na12  1  0.98667469  0.99314853  0.49758751  1
  Na  Na13  1  0.02246834  0.00821125  0.99951735  1
  Na  Na14  1  0.66030281  0.31580104  0.83062124  1
  Na  Na15  1  0.68337110  0.33920285  0.34065721  1
  Na  Na16  1  0.33515585  0.66487721  0.16628163  1
  Na  Na17  1  0.33607891  0.66378343  0.66592034  1
  Zr  Zr0  1  0.01041610  0.01414412  0.85031291  1
  Zr  Zr1  1  0.01052995  0.99332429  0.14735718  1
  Zr  Zr2  1  0.66680353  0.34263221  0.18876864  1
  Zr  Zr3  1  0.65629728  0.32823824  0.97679785  1
  Zr  Zr4  1  0.32110149  0.65984531  0.01937506  1
  Zr  Zr5  1  0.32749733  0.66898356  0.31880376  1
  Ti  Ti0  1  0.98143723  0.98526844  0.35303716  1
  Ti  Ti1  1  0.99947863  0.00043678  0.64824888  1
  Ti  Ti2  1  0.66680998  0.33427301  0.68213684  1
  Ti  Ti3  1  0.68589683  0.33691719  0.48519906  1
  Ti  Ti4  1  0.33944141  0.68892275  0.52076160  1
  Ti  Ti5  1  0.31660173  0.67159845  0.80923397  1
  Si  Si0  1  0.28987110  -0.00010444  0.25616178  1
  Si  Si1  1  0.70872299  0.71280109  0.25127660  1
  Si  Si2  1  0.99956824  0.28399598  0.25114225  1
  Si  Si3  1  0.29705520  0.29684707  0.74564486  1
  Si  Si4  1  0.99226081  0.70622891  0.74887184  1
  Si  Si5  1  0.70586519  0.99959895  0.74765476  1
  Si  Si6  1  0.96155114  0.33443167  0.58459782  1
  Si  Si7  1  0.37930195  0.05152299  0.58213287  1
  Si  Si8  1  0.66546682  0.62093551  0.58269853  1
  Si  Si9  1  0.95727818  0.62927283  0.08093474  1
  Si  Si10  1  0.36992516  0.33511073  0.08410104  1
  Si  Si11  1  0.04042527  0.37275970  0.91447309  1
  Si  Si12  1  0.33426411  0.95828552  0.91312801  1
  Si  Si13  1  0.63338589  0.96809860  0.41886336  1
  Si  Si14  1  0.03278035  0.66660950  0.41978504  1
  S  S0  1  0.66699338  0.04056233  0.08373342  1
  S  S1  1  0.62224671  0.66836955  0.91395236  1
  S  S2  1  0.33380085  0.37266900  0.41980119  1
  O  O0  1  0.19847333  0.03125379  0.31318435  1
  O  O1  1  0.83613623  0.80428077  0.30817590  1
  O  O2  1  0.97181401  0.15258954  0.30599633  1
  O  O3  1  0.21576269  0.16917147  0.80264313  1
  O  O4  1  0.95590777  0.78299310  0.80855899  1
  O  O5  1  0.83313073  0.04021882  0.80341599  1
  O  O6  1  0.80076646  0.96648197  0.69005265  1
  O  O7  1  0.16658427  0.20231252  0.68943756  1
  O  O8  1  0.03145245  0.83600580  0.69199662  1
  O  O9  1  0.79034853  0.83537545  0.19405087  1
  O  O10  1  0.03205294  0.20984645  0.18954884  1
  O  O11  1  0.17042692  0.96041042  0.19749910  1
  O  O12  1  0.86994266  0.36941122  0.64178799  1
  O  O13  1  0.50269721  0.13532605  0.64019751  1
  O  O14  1  0.63281237  0.49927126  0.64173185  1
  O  O15  1  0.87338916  0.50928485  0.14074147  1
  O  O16  1  0.64268124  0.11626205  0.13895743  1
  O  O17  1  0.47601955  0.34942068  0.14498619  1
  O  O18  1  0.46751487  0.30830437  0.02775332  1
  O  O19  1  0.84887214  0.52870185  0.02242070  1
  O  O20  1  0.68772227  0.14913193  0.03157066  1
  O  O21  1  0.46750415  0.17028186  0.52418386  1
  O  O22  1  0.69967950  0.52094663  0.52899798  1
  O  O23  1  0.83087711  0.29676651  0.52879497  1
  O  O24  1  0.54018002  0.68413989  0.96830092  1
  O  O25  1  0.15033254  0.45816541  0.97485920  1
  O  O26  1  0.31436869  0.84079220  0.97052790  1
  O  O27  1  0.52839013  0.84131221  0.47656871  1
  O  O28  1  0.31611956  0.46193529  0.47169251  1
  O  O29  1  0.16834539  0.69346337  0.47505965  1
  O  O30  1  0.11260358  0.63368002  0.35893370  1
  O  O31  1  0.51340585  0.88013731  0.36027536  1
  O  O32  1  0.35366007  0.47270858  0.36405512  1
  O  O33  1  0.14832055  0.50028529  0.85722636  1
  O  O34  1  0.34989102  0.85667372  0.85368004  1
  O  O35  1  0.52318750  0.65052988  0.86006197  1
  O  O36  1  0.03526667  0.84876537  0.41457797  1
  O  O37  1  0.81971063  0.98170371  0.41248011  1
  O  O38  1  0.17952110  0.20175378  0.41595041  1
  O  O39  1  0.01627963  0.18355665  0.91228021  1
  O  O40  1  0.15349048  0.95712435  0.91089884  1
  O  O41  1  0.79639086  0.81769006  0.91162059  1
  O  O42  1  0.97464352  0.16084081  0.59024625  1
  O  O43  1  0.18753564  0.02517671  0.59016269  1
  O  O44  1  0.83668786  0.80983351  0.58959710  1
  O  O45  1  0.97171267  0.81452924  0.08313404  1
  O  O46  1  0.82446835  0.03203270  0.08654243  1
  O  O47  1  0.17346424  0.17570613  0.08401643  1
  O  O48  1  0.68312785  0.16683659  0.74001206  1
  O  O49  1  0.48556880  0.31553548  0.73884039  1
  O  O50  1  0.83006023  0.51502215  0.74062193  1
  O  O51  1  0.69876720  0.52701225  0.24893749  1
  O  O52  1  0.82699269  0.30012590  0.24896760  1
  O  O53  1  0.47937918  0.16692697  0.24925698  1
  O  O54  1  0.64139466  0.51333620  0.91776929  1
  O  O55  1  0.86146268  0.37636563  0.91561276  1
  O  O56  1  0.50401650  0.14521700  0.91468720  1
  O  O57  1  0.63624978  0.14903899  0.42692617  1
  O  O58  1  0.48676252  0.35322638  0.42217031  1
  O  O59  1  0.84574131  0.49793912  0.42847923  1
  O  O60  1  0.35710293  0.50870057  0.08160924  1
  O  O61  1  0.14626620  0.64368629  0.08045314  1
  O  O62  1  0.51673322  0.86905525  0.07785498  1
  O  O63  1  0.36068850  0.85845655  0.57645691  1
  O  O64  1  0.49335250  0.63828432  0.57523291  1
  O  O65  1  0.14907053  0.50509908  0.57558738  1
  O  O66  1  0.31130182  0.83051976  0.25770339  1
  O  O67  1  0.51694791  0.68160434  0.25862433  1
  O  O68  1  0.16846989  0.47285448  0.25819980  1
  O  O69  1  0.31342230  0.48441120  0.75421928  1
  O  O70  1  0.16869637  0.69124606  0.75353499  1
  O  O71  1  0.51800765  0.82586360  0.75472641  1
loop_
_geom_bond_atom_site_label_1
_geom_bond_atom_site_label_2
_geom_bond_distance
_geom_bond_site_symmetry_2
Na0 O52 2.393919 1_555
Na0 O67 2.532974 1_545
Na0 O53 2.549475 1_555
Na0 O66 2.558404 1_545
Na0 O31 2.646206 1_545
Na0 O16 2.784982 1_555
Na0 O9 2.840114 1_545
Na0 O2 2.902842 1_555
Na1 O68 2.402359 1_555
Na1 O53 2.507705 1_555
Na1 O67 2.518247 1_555
Na1 O17 2.600200 1_555
Na1 O51 2.668254 1_555
Na1 O32 2.796977 1_555
Na1 O10 2.914092 1_555
Na1 O0 2.982476 1_555
Na2 O51 2.435949 1_455
Na2 O66 2.453881 1_555
Na2 O68 2.567120 1_555
Na2 O52 2.632629 1_455
Na2 O30 2.633353 1_555
Na2 O15 2.759739 1_455
Na2 O11 2.834215 1_555
Na2 O1 2.949849 1_455
Na3 O71 2.461967 1_555
Na3 O49 2.489940 1_555
Na3 O50 2.501709 1_555
Na3 O69 2.506238 1_555
Na3 O14 2.694832 1_555
Na3 O35 2.741315 1_555
Na3 O4 2.899732 1_555
Na3 O6 2.952574 1_555
Na4 O48 2.471215 1_555
Na4 O50 2.493711 1_555
Na4 O69 2.548672 1_655
Na4 O70 2.601392 1_655
Na4 O12 2.685343 1_555
Na4 O33 2.801696 1_655
Na4 O5 2.807316 1_555
Na4 O7 2.940291 1_655
Na5 O49 2.446759 1_555
Na5 O48 2.456768 1_555
Na5 O70 2.536152 1_545
Na5 O71 2.601105 1_545
Na5 O34 2.703155 1_545
Na5 O13 2.708713 1_555
Na5 O3 2.764780 1_555
Na5 O8 2.973558 1_545
Na6 O64 2.440346 1_555
Na6 O43 2.464764 1_555
Na6 O65 2.514822 1_555
Na6 O42 2.535490 1_455
Na6 O7 2.679957 1_555
Na6 O28 2.733286 1_555
Na6 O21 2.940355 1_555
Na6 O14 2.972877 1_555
Na7 O44 2.404700 1_455
Na7 O65 2.517655 1_555
Na7 O43 2.535734 1_565
Na7 O63 2.592707 1_555
Na7 O8 2.729374 1_555
Na7 O29 2.767514 1_555
Na7 O22 2.901033 1_455
Na7 O12 2.935998 1_455
Na8 O42 2.413098 1_565
Na8 O63 2.501374 1_555
Na8 O44 2.516378 1_555
Na8 O64 2.589704 1_555
Na8 O6 2.666276 1_555
Na8 O27 2.730393 1_555
Na8 O23 2.885499 1_565
Na8 O13 2.955464 1_565
Na9 O47 2.340696 1_555
Na9 O61 2.445505 1_555
Na9 O46 2.470689 1_455
Na9 O60 2.511270 1_555
Na9 O10 2.577778 1_555
Na9 O25 2.741334 1_554
Na9 O15 2.907770 1_455
Na10 O40 2.293233 1_655
Na10 O55 2.317806 1_555
Na10 O41 2.595422 1_555
Na10 O54 2.639282 1_555
Na10 O19 2.675931 1_556
Na10 O4 2.698582 1_555
Na10 O26 2.928626 1_655
Na10 O33 2.989513 1_655
Na11 O36 2.379316 1_545
Na11 O57 2.404904 1_555
Na11 O58 2.513858 1_555
Na11 O38 2.536765 1_555
Na11 O0 2.657848 1_555
Na11 O21 2.713373 1_555
Na11 O31 2.916855 1_545
Na11 O29 2.978528 1_545
Na12 O37 2.424689 1_555
Na12 O36 2.451802 1_655
Na12 O44 2.578664 1_555
Na12 O38 2.589571 1_665
Na12 O42 2.625200 1_565
Na12 O43 2.701072 1_665
Na13 O47 2.407056 1_556
Na13 O45 2.459903 1_446
Na13 O40 2.484256 1_545
Na13 O39 2.551088 1_555
Na13 O46 2.738593 1_456
Na13 O41 2.767364 1_445
Na14 O56 2.407045 1_555
Na14 O48 2.520324 1_555
Na14 O55 2.522123 1_555
Na14 O49 2.616580 1_555
Na14 O50 2.638438 1_555
Na14 O54 2.728311 1_555
Na15 O59 2.471317 1_555
Na15 O57 2.492458 1_555
Na15 O52 2.560744 1_555
Na15 O58 2.605782 1_555
Na15 O51 2.641080 1_555
Na15 O53 2.701845 1_555
Na16 O60 2.449757 1_555
Na16 O61 2.538401 1_555
Na16 O67 2.624080 1_555
Na16 O66 2.628813 1_555
Na16 O68 2.640330 1_555
Na16 O62 2.656244 1_555
Na17 O69 2.516173 1_555
Na17 O71 2.556953 1_555
Na17 O64 2.568125 1_555
Na17 O70 2.577175 1_555
Na17 O65 2.593874 1_555
Na17 O63 2.618294 1_555
O0 Si0 1.629968 1_555
O0 Ti0 2.006585 1_445
O1 Si1 1.655419 1_555
O1 Ti0 1.823285 1_555
O2 Si2 1.648476 1_555
O2 Ti0 1.891106 1_545
O3 Si3 1.637364 1_555
O3 Zr0 1.993389 1_555
O4 Si4 1.625772 1_555
O4 Zr0 2.125531 1_665
O5 Si5 1.627568 1_545
O5 Zr0 2.040806 1_655
O6 Si5 1.666191 1_555
O6 Ti1 1.915162 1_565
O7 Si3 1.660331 1_555
O7 Ti1 1.942384 1_455
O8 Si4 1.655550 1_455
O8 Ti1 1.929631 1_465
O9 Si1 1.619947 1_555
O9 Zr1 2.068542 1_655
O10 Si2 1.635741 1_455
O10 Zr1 2.107111 1_545
O11 Si0 1.639897 1_565
O11 Zr1 1.981882 1_555
O12 Si6 1.648482 1_555
O12 Ti2 1.930792 1_555
O13 Si7 1.650034 1_555
O13 Ti2 1.927562 1_555
O14 Si8 1.659508 1_555
O14 Ti2 1.906686 1_555
O15 Si9 1.658872 1_555
O15 Zr2 2.031647 1_555
O16 S0 1.493587 1_555
O16 Zr2 2.259153 1_555
O17 Si10 1.651161 1_555
O17 Zr2 2.025952 1_555
O18 Si10 1.634300 1_555
O18 Zr3 1.991320 1_554
O19 Si9 1.634331 1_555
O19 Zr3 2.069034 1_554
O20 S0 1.485565 1_555
O20 Zr3 2.172767 1_554
O21 Si7 1.625847 1_555
O21 Ti3 1.995179 1_555
O22 Si8 1.635749 1_555
O22 Ti3 1.894096 1_555
O23 Si6 1.650864 1_555
O23 Ti3 1.823699 1_555
O24 S1 1.477258 1_555
O24 Zr4 2.207658 1_556
O25 Si11 1.644346 1_555
O25 Zr4 1.989404 1_556
O26 Si12 1.629629 1_555
O26 Zr4 2.004816 1_556
O27 Si13 1.680255 1_555
O27 Ti4 1.861292 1_555
O28 S2 1.479778 1_555
O28 Ti4 2.258267 1_555
O29 Si14 1.688353 1_555
O29 Ti4 1.886681 1_555
O30 Si14 1.647338 1_555
O30 Zr5 2.021666 1_555
O31 Si13 1.651263 1_555
O31 Zr5 2.048281 1_555
O32 S2 1.508777 1_555
O32 Zr5 2.167981 1_555
O33 Si11 1.680967 1_555
O33 Ti5 1.880764 1_555
O34 Si12 1.676302 1_555
O34 Ti5 1.851454 1_555
O35 S1 1.477845 1_555
O35 Ti5 2.291382 1_555
O36 Si14 1.647473 1_555
O36 Ti0 2.077632 1_455
O37 Si13 1.638571 1_555
O37 Ti0 1.973271 1_555
O38 S2 1.486775 1_555
O38 Ti0 2.371970 1_445
O39 Si11 1.621294 1_555
O39 Zr0 2.063536 1_555
O40 Si12 1.636511 1_555
O40 Zr0 2.125085 1_565
O41 S1 1.483226 1_555
O41 Zr0 2.320364 1_665
O42 Si6 1.644155 1_555
O42 Ti1 2.053527 1_555
O43 Si7 1.643351 1_555
O43 Ti1 2.069222 1_455
O44 Si8 1.650865 1_555
O44 Ti1 2.100249 1_565
O45 Si9 1.622230 1_555
O45 Zr1 2.076058 1_655
O46 S0 1.471129 1_555
O46 Zr1 2.340601 1_645
O47 Si10 1.642936 1_555
O47 Zr1 2.123119 1_545
O48 Si5 1.640877 1_545
O48 Ti2 2.065567 1_555
O49 Si3 1.639320 1_555
O49 Ti2 2.019072 1_555
O50 Si4 1.634119 1_555
O50 Ti2 2.058215 1_555
O51 Si1 1.645324 1_555
O51 Zr2 2.065076 1_555
O52 Si2 1.645299 1_555
O52 Zr2 2.166106 1_555
O53 Si0 1.636096 1_555
O53 Zr2 2.137934 1_555
O54 S1 1.504925 1_555
O54 Zr3 2.201536 1_555
O55 Si11 1.640958 1_655
O55 Zr3 2.175178 1_555
O56 Si12 1.627225 1_545
O56 Zr3 2.092290 1_555
O57 Si13 1.641196 1_545
O57 Ti3 2.023718 1_555
O58 S2 1.485543 1_555
O58 Ti3 2.368450 1_555
O59 Si14 1.633325 1_655
O59 Ti3 1.935349 1_555
O60 Si10 1.638878 1_555
O60 Zr4 2.101501 1_555
O61 Si9 1.653822 1_455
O61 Zr4 2.047129 1_555
O62 S0 1.478674 1_565
O62 Zr4 2.274667 1_555
O63 Si7 1.680986 1_565
O63 Ti4 1.924905 1_555
O64 Si8 1.655822 1_555
O64 Ti4 2.082053 1_555
O65 Si6 1.644291 1_455
O65 Ti4 2.098123 1_555
O66 Si0 1.644581 1_565
O66 Zr5 2.071841 1_555
O67 Si1 1.625498 1_555
O67 Zr5 2.144686 1_555
O68 Si2 1.642228 1_455
O68 Zr5 2.143333 1_555
O69 Si3 1.646521 1_555
O69 Ti5 2.096652 1_555
O70 Si4 1.677223 1_455
O70 Ti5 1.916662 1_555
O71 Si5 1.653527 1_555
O71 Ti5 2.058851 1_555
