# generated using pymatgen
data_K4Au6S5
_symmetry_space_group_name_H-M   'P 1'
_cell_length_a   9.67568110
_cell_length_b   9.67544165
_cell_length_c   9.94537804
_cell_angle_alpha   89.99997211
_cell_angle_beta   90.00018236
_cell_angle_gamma   119.99952052
_symmetry_Int_Tables_number   1
_chemical_formula_structural   K4Au6S5
_chemical_formula_sum   'K8 Au12 S10'
_cell_volume   806.31802862
_cell_formula_units_Z   2
loop_
 _symmetry_equiv_pos_site_id
 _symmetry_equiv_pos_as_xyz
  1  'x, y, z'
loop_
 _atom_site_type_symbol
 _atom_site_label
 _atom_site_symmetry_multiplicity
 _atom_site_fract_x
 _atom_site_fract_y
 _atom_site_fract_z
 _atom_site_occupancy
  K  K0  1  0.58197526  0.93196076  0.74999530  1
  K  K1  1  0.06803507  0.65000680  0.75000333  1
  K  K2  1  0.34998667  0.41802604  0.74999982  1
  K  K3  1  0.41802705  0.34999375  0.25000173  1
  K  K4  1  0.65003733  0.06804507  0.25000172  1
  K  K5  1  0.00000975  0.00000786  0.00000259  1
  K  K6  1  0.00000299  0.00000231  0.50000289  1
  K  K7  1  0.93196294  0.58197227  0.25000536  1
  Au  Au0  1  0.16578171  0.44890835  0.41345400  1
  Au  Au1  1  0.28313879  0.83419399  0.41348092  1
  Au  Au2  1  0.55105919  0.71685968  0.41347558  1
  Au  Au3  1  0.71685495  0.55106556  0.58652198  1
  Au  Au4  1  0.28313511  0.83420243  0.08652922  1
  Au  Au5  1  0.16578191  0.44890970  0.08654623  1
  Au  Au6  1  0.83420933  0.28312689  0.91346061  1
  Au  Au7  1  0.44890717  0.16577812  0.91345423  1
  Au  Au8  1  0.44890895  0.16578015  0.58654635  1
  Au  Au9  1  0.83420246  0.28313033  0.58652721  1
  Au  Au10  1  0.71685962  0.55106311  0.91348074  1
  Au  Au11  1  0.55108698  0.71690691  0.08649695  1
  S  S0  1  0.25827278  0.03125781  0.75000438  1
  S  S1  1  0.33334321  0.66668070  0.54839810  1
  S  S2  1  0.33333616  0.66668369  0.95159381  1
  S  S3  1  0.66666708  0.33333233  0.04841096  1
  S  S4  1  0.66667614  0.33333285  0.45160364  1
  S  S5  1  0.03126616  0.25828594  0.25000028  1
  S  S6  1  0.22700638  0.96875566  0.24999835  1
  S  S7  1  0.74173454  0.77298922  0.24998931  1
  S  S8  1  0.96875182  0.22701236  0.75001328  1
  S  S9  1  0.77297950  0.74173037  0.75000112  1
loop_
_geom_bond_atom_site_label_1
_geom_bond_atom_site_label_2
_geom_bond_distance
_geom_bond_site_symmetry_2
K0 S9 3.194467 1_555
K0 S1 3.196956 1_555
K0 S2 3.196984 1_555
K0 S8 3.386940 1_565
K0 S0 3.706988 1_565
K1 S0 3.194588 1_565
K1 S2 3.196989 1_555
K1 S1 3.197154 1_555
K1 S9 3.386946 1_455
K1 S8 3.706910 1_455
K2 S8 3.194532 1_455
K2 S1 3.197105 1_555
K2 S2 3.197110 1_555
K2 S0 3.386807 1_555
K2 S9 3.706973 1_555
K3 S6 3.194480 1_545
K3 S3 3.197051 1_555
K3 S4 3.197177 1_555
K3 S5 3.386852 1_555
K3 S7 3.706953 1_555
K4 S5 3.194481 1_655
K4 S3 3.197001 1_555
K4 S4 3.197044 1_555
K4 S7 3.386720 1_545
K4 S6 3.707342 1_545
K5 S8 3.429452 1_454
K5 S6 3.429454 1_545
K5 S7 3.429563 1_445
K5 S0 3.429591 1_554
K5 S5 3.429620 1_555
K5 S9 3.429690 1_444
K6 S6 3.429551 1_545
K6 S8 3.429617 1_455
K6 S0 3.429633 1_555
K6 S9 3.429635 1_445
K6 S5 3.429673 1_555
K6 S7 3.429705 1_445
K7 S7 3.194557 1_555
K7 S4 3.197031 1_555
K7 S3 3.197037 1_555
K7 S6 3.386920 1_655
K7 S5 3.706817 1_655
Au0 S5 2.310362 1_555
Au0 S1 2.335221 1_555
Au0 K3 3.442533 1_555
Au0 K7 3.511529 1_455
Au1 S6 2.310988 1_555
Au1 S1 2.334645 1_555
Au1 K7 3.442706 1_455
Au1 K4 3.511864 1_565
Au2 S7 2.310930 1_555
Au2 S1 2.334767 1_555
Au2 K4 3.442663 1_565
Au2 K3 3.511521 1_555
Au3 S9 2.310781 1_555
Au3 S4 2.334825 1_555
Au3 K1 3.442803 1_655
Au3 K2 3.511631 1_555
Au4 S6 2.310823 1_555
Au4 S2 2.334776 1_554
Au4 K7 3.442713 1_455
Au4 K4 3.511837 1_565
Au5 S5 2.310376 1_555
Au5 S2 2.335265 1_554
Au5 K3 3.442547 1_555
Au5 K7 3.511577 1_455
Au6 S8 2.310546 1_555
Au6 S3 2.335093 1_556
Au6 K0 3.442586 1_545
Au6 K1 3.511550 1_655
Au7 S0 2.310419 1_555
Au7 S3 2.335227 1_556
Au7 K2 3.442558 1_555
Au7 K0 3.511574 1_545
Au8 S0 2.310496 1_555
Au8 S4 2.335189 1_555
Au8 K2 3.442552 1_555
Au8 K0 3.511528 1_545
Au9 S8 2.310873 1_555
Au9 S4 2.334795 1_555
Au9 K0 3.442611 1_545
Au9 K1 3.511618 1_655
Au10 S9 2.310809 1_555
Au10 S3 2.334846 1_556
Au10 K1 3.442750 1_655
Au10 K2 3.511676 1_555
Au11 S7 2.310857 1_555
Au11 S2 2.334814 1_554
Au11 K4 3.442477 1_565
Au11 K3 3.512006 1_555
