# generated using pymatgen
data_LiIO3
_symmetry_space_group_name_H-M   'P 1'
_cell_length_a   9.57814654
_cell_length_b   9.57814654
_cell_length_c   6.18228917
_cell_angle_alpha   90.00000000
_cell_angle_beta   90.00000000
_cell_angle_gamma   90.00000000
_symmetry_Int_Tables_number   1
_chemical_formula_structural   LiIO3
_chemical_formula_sum   'Li8 I8 O24'
_cell_volume   567.16871775
_cell_formula_units_Z   8
loop_
 _symmetry_equiv_pos_site_id
 _symmetry_equiv_pos_as_xyz
  1  'x, y, z'
loop_
 _atom_site_type_symbol
 _atom_site_label
 _atom_site_symmetry_multiplicity
 _atom_site_fract_x
 _atom_site_fract_y
 _atom_site_fract_z
 _atom_site_occupancy
  Li  Li0  1  0.98686823  0.17504108  0.15164727  1
  Li  Li1  1  0.67504108  0.51313177  0.65164727  1
  Li  Li2  1  0.32495892  0.48686823  0.65164727  1
  Li  Li3  1  0.01313177  0.82495892  0.15164727  1
  Li  Li4  1  0.51313177  0.32495892  0.34835273  1
  Li  Li5  1  0.82495892  0.98686823  0.84835273  1
  Li  Li6  1  0.17504108  0.01313177  0.84835273  1
  Li  Li7  1  0.48686823  0.67504108  0.34835273  1
  I  I0  1  0.50600405  0.78509375  0.86725112  1
  I  I1  1  0.00600405  0.28509375  0.63274888  1
  I  I2  1  0.78509375  0.49399595  0.13274888  1
  I  I3  1  0.21490625  0.50600405  0.13274888  1
  I  I4  1  0.99399595  0.71490625  0.63274888  1
  I  I5  1  0.49399595  0.21490625  0.86725112  1
  I  I6  1  0.71490625  0.00600405  0.36725112  1
  I  I7  1  0.28509375  0.99399595  0.36725112  1
  O  O0  1  0.09929531  0.19643907  0.41854159  1
  O  O1  1  0.80356093  0.09929531  0.58145841  1
  O  O2  1  0.59929531  0.69643907  0.08145841  1
  O  O3  1  0.40070469  0.30356093  0.08145841  1
  O  O4  1  0.19643907  0.90070469  0.58145841  1
  O  O5  1  0.69643907  0.40070469  0.91854159  1
  O  O6  1  0.90070469  0.80356093  0.41854159  1
  O  O7  1  0.63327945  0.91773399  0.80113041  1
  O  O8  1  0.86672055  0.58226601  0.69886959  1
  O  O9  1  0.08226601  0.63327945  0.19886959  1
  O  O10  1  0.91773399  0.36672055  0.19886959  1
  O  O11  1  0.13327945  0.41773399  0.69886959  1
  O  O12  1  0.96059191  0.83609475  0.85131592  1
  O  O13  1  0.41773399  0.86672055  0.30113041  1
  O  O14  1  0.58226601  0.13327945  0.30113041  1
  O  O15  1  0.36672055  0.08226601  0.80113041  1
  O  O16  1  0.46059191  0.33609475  0.64868408  1
  O  O17  1  0.33609475  0.53940809  0.35131592  1
  O  O18  1  0.66390525  0.46059191  0.35131592  1
  O  O19  1  0.03940809  0.16390525  0.85131592  1
  O  O20  1  0.53940809  0.66390525  0.64868408  1
  O  O21  1  0.16390525  0.96059191  0.14868408  1
  O  O22  1  0.83609475  0.03940809  0.14868408  1
  O  O23  1  0.30356093  0.59929531  0.91854159  1
loop_
_geom_bond_atom_site_label_1
_geom_bond_atom_site_label_2
_geom_bond_distance
_geom_bond_site_symmetry_2
Li0 O19 1.926678 1_654
Li0 O22 1.942561 1_555
Li0 O10 1.973414 1_555
Li0 O0 1.980948 1_655
Li1 O18 1.926678 1_555
Li1 O20 1.942561 1_555
Li1 O8 1.973414 1_555
Li1 O5 1.980948 1_555
Li2 O17 1.926678 1_555
Li2 O16 1.942561 1_555
Li2 O11 1.973414 1_555
Li2 O23 1.980948 1_555
Li3 O12 1.926678 1_454
Li3 O21 1.942561 1_555
Li3 O9 1.973414 1_555
Li3 O6 1.980948 1_455
Li4 O16 1.926678 1_555
Li4 O18 1.942561 1_555
Li4 O14 1.973414 1_555
Li4 O3 1.980948 1_555
Li5 O22 1.926678 1_566
Li5 O12 1.942561 1_555
Li5 O7 1.973414 1_555
Li5 O1 1.980948 1_565
Li6 O21 1.926678 1_546
Li6 O19 1.942561 1_555
Li6 O15 1.973414 1_555
Li6 O4 1.980948 1_545
Li7 O20 1.926678 1_555
Li7 O17 1.942561 1_555
Li7 O13 1.973414 1_555
Li7 O2 1.980948 1_555
I0 O7 1.807553 1_555
I0 O2 1.809211 1_556
I0 O20 1.809861 1_555
I1 O11 1.807553 1_555
I1 O0 1.809211 1_555
I1 O19 1.809861 1_555
I2 O10 1.807553 1_555
I2 O5 1.809211 1_554
I2 O18 1.809861 1_555
I3 O9 1.807553 1_555
I3 O23 1.809211 1_554
I3 O17 1.809861 1_555
I4 O8 1.807553 1_555
I4 O6 1.809211 1_555
I4 O12 1.809861 1_555
I5 O15 1.807553 1_555
I5 O3 1.809211 1_556
I5 O16 1.809861 1_555
I6 O14 1.807553 1_555
I6 O1 1.809211 1_555
I6 O22 1.809861 1_555
I7 O13 1.807553 1_555
I7 O4 1.809211 1_555
I7 O21 1.809861 1_555
