# generated using pymatgen
data_EuIn2Pd
_symmetry_space_group_name_H-M   'P 1'
_cell_length_a   5.74141096
_cell_length_b   5.74141096
_cell_length_c   7.89361843
_cell_angle_alpha   89.99968875
_cell_angle_beta   90.00031125
_cell_angle_gamma   133.12794674
_symmetry_Int_Tables_number   1
_chemical_formula_structural   EuIn2Pd
_chemical_formula_sum   'Eu2 In4 Pd2'
_cell_volume   189.90415301
_cell_formula_units_Z   2
loop_
 _symmetry_equiv_pos_site_id
 _symmetry_equiv_pos_as_xyz
  1  'x, y, z'
loop_
 _atom_site_type_symbol
 _atom_site_label
 _atom_site_symmetry_multiplicity
 _atom_site_fract_x
 _atom_site_fract_y
 _atom_site_fract_z
 _atom_site_occupancy
  Eu  Eu0  1  0.06534641  0.93465359  0.25000200  1
  Eu  Eu1  1  0.93461996  0.06538004  0.74999825  1
  In  In0  1  0.64732611  0.35267389  0.55318795  1
  In  In1  1  0.35268786  0.64731214  0.44684976  1
  In  In2  1  0.64732728  0.35267272  0.94681371  1
  In  In3  1  0.35268652  0.64731348  0.05314816  1
  Pd  Pd0  1  0.21645589  0.78354411  0.74999640  1
  Pd  Pd1  1  0.78355097  0.21644903  0.25000277  1
loop_
_geom_bond_atom_site_label_1
_geom_bond_atom_site_label_2
_geom_bond_distance
_geom_bond_site_symmetry_2
Eu0 Pd1 2.968868 1_465
Eu0 Pd1 3.240268 1_455
Eu0 Pd1 3.240268 1_565
Eu0 In1 3.402778 1_555
Eu0 In3 3.402804 1_555
Eu0 In0 3.418758 1_455
Eu0 In0 3.418758 1_565
Eu0 In2 3.418781 1_454
Eu0 In2 3.418781 1_564
Eu0 In1 3.556482 1_455
Eu0 In1 3.556482 1_565
Eu0 In3 3.556500 1_565
Eu0 In3 3.556500 1_455
Eu1 Pd0 2.969295 1_645
Eu1 Pd0 3.239966 1_545
Eu1 Pd0 3.239966 1_655
Eu1 In0 3.402197 1_555
Eu1 In2 3.402221 1_555
Eu1 In1 3.418424 1_545
Eu1 In1 3.418424 1_655
Eu1 In3 3.418443 1_656
Eu1 In3 3.418443 1_546
Eu1 In0 3.556669 1_545
Eu1 In0 3.556669 1_655
Eu1 In2 3.556683 1_545
Eu1 In2 3.556683 1_655
In0 Pd1 2.790589 1_555
In0 Pd0 2.856270 1_545
In0 Pd0 2.856270 1_655
In0 In2 3.107132 1_555
In0 In1 3.215656 1_555
In0 In1 3.255785 1_545
In0 In1 3.255785 1_655
In1 Pd0 2.790367 1_555
In1 Pd1 2.856454 1_565
In1 Pd1 2.856454 1_455
In1 In3 3.107730 1_555
In2 Pd1 2.790595 1_556
In2 Pd0 2.856309 1_545
In2 Pd0 2.856309 1_655
In2 In3 3.215684 1_556
In2 In3 3.255754 1_656
In2 In3 3.255754 1_546
In3 Pd0 2.790380 1_554
In3 Pd1 2.856488 1_565
In3 Pd1 2.856488 1_455
