# generated using pymatgen
data_CaSnAu
_symmetry_space_group_name_H-M   'P 1'
_cell_length_a   4.78195100
_cell_length_b   8.27696000
_cell_length_c   37.31282100
_cell_angle_alpha   90.00000000
_cell_angle_beta   90.00000000
_cell_angle_gamma   90.00000000
_symmetry_Int_Tables_number   1
_chemical_formula_structural   CaSnAu
_chemical_formula_sum   'Ca20 Sn20 Au20'
_cell_volume   1476.84209506
_cell_formula_units_Z   20
loop_
 _symmetry_equiv_pos_site_id
 _symmetry_equiv_pos_as_xyz
  1  'x, y, z'
loop_
 _atom_site_type_symbol
 _atom_site_label
 _atom_site_symmetry_multiplicity
 _atom_site_fract_x
 _atom_site_fract_y
 _atom_site_fract_z
 _atom_site_occupancy
  Ca  Ca0  1  0.25000000  0.71630700  0.99918200  1
  Ca  Ca1  1  0.75000000  0.28369300  0.00081800  1
  Ca  Ca2  1  0.75000000  0.21630700  0.50081800  1
  Ca  Ca3  1  0.25000000  0.78369300  0.49918200  1
  Ca  Ca4  1  0.25000000  0.79178700  0.10022300  1
  Ca  Ca5  1  0.75000000  0.20821300  0.89977700  1
  Ca  Ca6  1  0.75000000  0.29178700  0.39977700  1
  Ca  Ca7  1  0.25000000  0.70821300  0.60022300  1
  Ca  Ca8  1  0.25000000  0.71257800  0.20120100  1
  Ca  Ca9  1  0.75000000  0.28742200  0.79879900  1
  Ca  Ca10  1  0.75000000  0.21257800  0.29879900  1
  Ca  Ca11  1  0.25000000  0.78742200  0.70120100  1
  Ca  Ca12  1  0.25000000  0.78995000  0.30070500  1
  Ca  Ca13  1  0.75000000  0.21005000  0.69929500  1
  Ca  Ca14  1  0.75000000  0.28995000  0.19929500  1
  Ca  Ca15  1  0.25000000  0.71005000  0.80070500  1
  Ca  Ca16  1  0.25000000  0.71032500  0.40000400  1
  Ca  Ca17  1  0.75000000  0.28967500  0.59999600  1
  Ca  Ca18  1  0.75000000  0.21032500  0.09999600  1
  Ca  Ca19  1  0.25000000  0.78967500  0.90000400  1
  Sn  Sn0  1  0.25000000  0.41510000  0.05940800  1
  Sn  Sn1  1  0.75000000  0.58490000  0.94059200  1
  Sn  Sn2  1  0.75000000  0.91510000  0.44059200  1
  Sn  Sn3  1  0.25000000  0.08490000  0.55940800  1
  Sn  Sn4  1  0.25000000  0.41576700  0.14015800  1
  Sn  Sn5  1  0.75000000  0.58423300  0.85984200  1
  Sn  Sn6  1  0.75000000  0.91576700  0.35984200  1
  Sn  Sn7  1  0.25000000  0.08423300  0.64015800  1
  Sn  Sn8  1  0.25000000  0.08820300  0.23974800  1
  Sn  Sn9  1  0.75000000  0.91179700  0.76025200  1
  Sn  Sn10  1  0.75000000  0.58820300  0.26025200  1
  Sn  Sn11  1  0.25000000  0.41179700  0.73974800  1
  Sn  Sn12  1  0.25000000  0.41551300  0.34060500  1
  Sn  Sn13  1  0.75000000  0.58448700  0.65939500  1
  Sn  Sn14  1  0.75000000  0.91551300  0.15939500  1
  Sn  Sn15  1  0.25000000  0.08448700  0.84060500  1
  Sn  Sn16  1  0.25000000  0.41410900  0.45883800  1
  Sn  Sn17  1  0.75000000  0.58589100  0.54116200  1
  Sn  Sn18  1  0.75000000  0.91410900  0.04116200  1
  Sn  Sn19  1  0.25000000  0.08589100  0.95883800  1
  Au  Au0  1  0.25000000  0.08620700  0.04030300  1
  Au  Au1  1  0.75000000  0.91379300  0.95969700  1
  Au  Au2  1  0.75000000  0.58620700  0.45969700  1
  Au  Au3  1  0.25000000  0.41379300  0.54030300  1
  Au  Au4  1  0.25000000  0.08723900  0.15982600  1
  Au  Au5  1  0.75000000  0.91276100  0.84017400  1
  Au  Au6  1  0.75000000  0.58723900  0.34017400  1
  Au  Au7  1  0.25000000  0.41276100  0.65982600  1
  Au  Au8  1  0.25000000  0.41588600  0.25861500  1
  Au  Au9  1  0.75000000  0.58411400  0.74138500  1
  Au  Au10  1  0.75000000  0.91588600  0.24138500  1
  Au  Au11  1  0.25000000  0.08411400  0.75861500  1
  Au  Au12  1  0.25000000  0.08736500  0.35556000  1
  Au  Au13  1  0.75000000  0.91263500  0.64444000  1
  Au  Au14  1  0.75000000  0.58736500  0.14444000  1
  Au  Au15  1  0.25000000  0.41263500  0.85556000  1
  Au  Au16  1  0.25000000  0.08561700  0.44444000  1
  Au  Au17  1  0.75000000  0.91438300  0.55556000  1
  Au  Au18  1  0.75000000  0.58561700  0.05556000  1
  Au  Au19  1  0.25000000  0.41438300  0.94444000  1
loop_
_geom_bond_atom_site_label_1
_geom_bond_atom_site_label_2
_geom_bond_distance
_geom_bond_site_symmetry_2
Ca0 Sn18 3.294051 1_456
Ca0 Sn18 3.294051 1_556
Ca0 Sn0 3.356390 1_556
Ca0 Sn19 3.409362 1_565
Ca0 Sn1 3.417460 1_555
Ca0 Sn1 3.417460 1_455
Ca1 Sn19 3.294051 1_554
Ca1 Sn19 3.294051 1_654
Ca1 Sn1 3.356390 1_554
Ca1 Sn18 3.409362 1_545
Ca1 Sn0 3.417460 1_555
Ca1 Sn0 3.417460 1_655
Ca2 Sn16 3.294051 1_555
Ca2 Sn16 3.294051 1_655
Ca2 Sn2 3.356390 1_545
Ca2 Sn17 3.409362 1_555
Ca2 Sn3 3.417460 1_555
Ca2 Sn3 3.417460 1_655
Ca3 Sn17 3.294051 1_455
Ca3 Sn17 3.294051 1_555
Ca3 Sn3 3.356390 1_565
Ca3 Sn16 3.409362 1_555
Ca3 Sn2 3.417460 1_455
Ca3 Sn2 3.417460 1_555
Ca4 Sn18 3.405622 1_555
Ca4 Sn18 3.405622 1_455
Ca4 Sn14 3.411774 1_555
Ca4 Sn14 3.411774 1_455
Ca4 Sn4 3.450621 1_555
Ca4 Sn0 3.469887 1_555
Ca5 Sn19 3.405622 1_655
Ca5 Sn19 3.405622 1_555
Ca5 Sn15 3.411774 1_555
Ca5 Sn15 3.411774 1_655
Ca5 Sn5 3.450621 1_555
Ca5 Sn1 3.469887 1_555
Ca6 Sn16 3.405622 1_555
Ca6 Sn16 3.405622 1_655
Ca6 Sn12 3.411774 1_655
Ca6 Sn12 3.411774 1_555
Ca6 Sn6 3.450621 1_545
Ca6 Sn2 3.469887 1_545
Ca7 Sn17 3.405622 1_455
Ca7 Sn17 3.405622 1_555
Ca7 Sn13 3.411774 1_455
Ca7 Sn13 3.411774 1_555
Ca7 Sn7 3.450621 1_565
Ca7 Sn3 3.469887 1_565
Ca8 Sn14 3.312309 1_455
Ca8 Sn14 3.312309 1_555
Ca8 Sn4 3.350104 1_555
Ca8 Sn10 3.410472 1_555
Ca8 Sn10 3.410472 1_455
Ca8 Sn8 3.425607 1_565
Ca9 Sn15 3.312309 1_655
Ca9 Sn15 3.312309 1_555
Ca9 Sn5 3.350104 1_555
Ca9 Sn11 3.410472 1_555
Ca9 Sn11 3.410472 1_655
Ca9 Sn9 3.425607 1_545
Ca10 Sn12 3.312309 1_655
Ca10 Sn12 3.312309 1_555
Ca10 Sn6 3.350104 1_545
Ca10 Sn8 3.410472 1_655
Ca10 Sn8 3.410472 1_555
Ca10 Sn10 3.425607 1_555
Ca11 Sn13 3.312309 1_555
Ca11 Sn13 3.312309 1_455
Ca11 Sn7 3.350104 1_565
Ca11 Sn9 3.410472 1_555
Ca11 Sn9 3.410472 1_455
Ca11 Sn11 3.425607 1_555
Ca12 Sn10 3.283825 1_555
Ca12 Sn10 3.283825 1_455
Ca12 Sn8 3.356691 1_565
Ca12 Sn6 3.416165 1_555
Ca12 Sn6 3.416165 1_455
Ca12 Sn12 3.438243 1_555
Ca13 Sn11 3.283825 1_655
Ca13 Sn11 3.283825 1_555
Ca13 Sn9 3.356691 1_545
Ca13 Sn7 3.416165 1_555
Ca13 Sn7 3.416165 1_655
Ca13 Sn13 3.438243 1_555
Ca14 Sn8 3.283825 1_655
Ca14 Sn8 3.283825 1_555
Ca14 Sn10 3.356691 1_555
Ca14 Sn4 3.416165 1_555
Ca14 Sn4 3.416165 1_655
Ca14 Sn14 3.438243 1_545
Ca15 Sn9 3.283825 1_555
Ca15 Sn9 3.283825 1_455
Ca15 Sn11 3.356691 1_555
Ca15 Sn5 3.416165 1_455
Ca15 Sn5 3.416165 1_555
Ca15 Sn15 3.438243 1_565
Ca16 Sn16 3.290949 1_555
Ca16 Sn6 3.294529 1_455
Ca16 Sn6 3.294529 1_555
Ca16 Sn12 3.296437 1_555
Ca16 Sn2 3.298949 1_455
Ca16 Sn2 3.298949 1_555
Ca17 Sn17 3.290949 1_555
Ca17 Sn7 3.294529 1_655
Ca17 Sn7 3.294529 1_555
Ca17 Sn13 3.296437 1_555
Ca17 Sn3 3.298949 1_655
Ca17 Sn3 3.298949 1_555
Ca18 Sn18 3.290949 1_545
Ca18 Sn4 3.294529 1_555
Ca18 Sn4 3.294529 1_655
Ca18 Sn14 3.296437 1_545
Ca18 Sn0 3.298949 1_655
Ca18 Sn0 3.298949 1_555
Ca19 Sn19 3.290949 1_565
Ca19 Sn5 3.294529 1_455
Ca19 Sn5 3.294529 1_555
Ca19 Sn15 3.296437 1_565
Ca19 Sn1 3.298949 1_455
Ca19 Sn1 3.298949 1_555
Sn0 Sn4 3.013015 1_555
Sn1 Sn5 3.013015 1_555
Sn2 Sn6 3.013015 1_555
Sn3 Sn7 3.013015 1_555
Au0 Sn18 2.783315 1_545
Au0 Sn18 2.783315 1_445
Au0 Sn0 2.814024 1_555
Au0 Sn19 3.039690 1_554
Au0 Ca1 3.249497 1_555
Au0 Ca1 3.249497 1_455
Au0 Ca4 3.307148 1_545
Au0 Ca0 3.424600 1_544
Au0 Ca18 3.425358 1_555
Au0 Ca18 3.425358 1_455
Au1 Sn19 2.783315 1_665
Au1 Sn19 2.783315 1_565
Au1 Sn1 2.814024 1_555
Au1 Sn18 3.039690 1_556
Au1 Ca0 3.249497 1_655
Au1 Ca0 3.249497 1_555
Au1 Ca5 3.307148 1_565
Au1 Ca1 3.424600 1_566
Au1 Ca19 3.425358 1_555
Au1 Ca19 3.425358 1_655
Au2 Sn16 2.783315 1_555
Au2 Sn16 2.783315 1_655
Au2 Sn2 2.814024 1_555
Au2 Sn17 3.039690 1_555
Au2 Ca3 3.249497 1_655
Au2 Ca3 3.249497 1_555
Au2 Ca6 3.307148 1_555
Au2 Ca2 3.424600 1_555
Au2 Ca16 3.425358 1_555
Au2 Ca16 3.425358 1_655
Au3 Sn17 2.783315 1_555
Au3 Sn17 2.783315 1_455
Au3 Sn3 2.814024 1_555
Au3 Sn16 3.039690 1_555
Au3 Ca2 3.249497 1_455
Au3 Ca2 3.249497 1_555
Au3 Ca7 3.307148 1_555
Au3 Ca3 3.424600 1_555
Au3 Ca17 3.425358 1_455
Au3 Ca17 3.425358 1_555
Au4 Sn14 2.781603 1_445
Au4 Sn14 2.781603 1_545
Au4 Sn4 2.816502 1_555
Au4 Sn8 2.982126 1_555
Au4 Ca14 3.271196 1_455
Au4 Ca14 3.271196 1_555
Au4 Ca4 3.305477 1_545
Au4 Ca18 3.426135 1_555
Au4 Ca18 3.426135 1_455
Au4 Ca8 3.464089 1_545
Au5 Sn15 2.781603 1_665
Au5 Sn15 2.781603 1_565
Au5 Sn5 2.816502 1_555
Au5 Sn9 2.982126 1_555
Au5 Ca15 3.271196 1_555
Au5 Ca15 3.271196 1_655
Au5 Ca5 3.305477 1_565
Au5 Ca19 3.426135 1_555
Au5 Ca19 3.426135 1_655
Au5 Ca9 3.464089 1_565
Au6 Sn12 2.781603 1_655
Au6 Sn12 2.781603 1_555
Au6 Sn6 2.816502 1_555
Au6 Sn10 2.982126 1_555
Au6 Ca12 3.271196 1_555
Au6 Ca12 3.271196 1_655
Au6 Ca6 3.305477 1_555
Au6 Ca16 3.426135 1_555
Au6 Ca16 3.426135 1_655
Au6 Ca10 3.464089 1_555
Au7 Sn13 2.781603 1_455
Au7 Sn13 2.781603 1_555
Au7 Sn7 2.816502 1_555
Au7 Sn11 2.982126 1_555
Au7 Ca13 3.271196 1_555
Au7 Ca13 3.271196 1_455
Au7 Ca7 3.305477 1_555
Au7 Ca17 3.426135 1_555
Au7 Ca17 3.426135 1_455
Au7 Ca11 3.464089 1_555
Au8 Sn10 2.784729 1_555
Au8 Sn10 2.784729 1_455
Au8 Sn8 2.802092 1_555
Au8 Sn12 3.059280 1_555
Au8 Ca8 3.258812 1_555
Au8 Ca10 3.285821 1_555
Au8 Ca10 3.285821 1_455
Au8 Ca14 3.420880 1_455
Au8 Ca14 3.420880 1_555
Au8 Ca12 3.471653 1_555
Au9 Sn11 2.784729 1_655
Au9 Sn11 2.784729 1_555
Au9 Sn9 2.802092 1_555
Au9 Sn13 3.059280 1_555
Au9 Ca9 3.258812 1_555
Au9 Ca11 3.285821 1_555
Au9 Ca11 3.285821 1_655
Au9 Ca15 3.420880 1_555
Au9 Ca15 3.420880 1_655
Au9 Ca13 3.471653 1_555
Au10 Sn8 2.784729 1_565
Au10 Sn8 2.784729 1_665
Au10 Sn10 2.802092 1_555
Au10 Sn14 3.059280 1_555
Au10 Ca10 3.258812 1_565
Au10 Ca8 3.285821 1_555
Au10 Ca8 3.285821 1_655
Au10 Ca12 3.420880 1_555
Au10 Ca12 3.420880 1_655
Au10 Ca14 3.471653 1_565
Au11 Sn9 2.784729 1_445
Au11 Sn9 2.784729 1_545
Au11 Sn11 2.802092 1_555
Au11 Sn15 3.059280 1_555
Au11 Ca11 3.258812 1_545
Au11 Ca9 3.285821 1_555
Au11 Ca9 3.285821 1_455
Au11 Ca13 3.420880 1_555
Au11 Ca13 3.420880 1_455
Au11 Ca15 3.471653 1_545
Au12 Sn12 2.772797 1_555
Au12 Sn6 2.785601 1_545
Au12 Sn6 2.785601 1_445
Au12 Ca12 3.201452 1_545
Au12 Au16 3.316395 1_555
Au12 Ca10 3.358037 1_555
Au12 Ca10 3.358037 1_455
Au12 Ca6 3.361792 1_455
Au12 Ca6 3.361792 1_555
Au12 Ca16 3.533994 1_545
Au13 Sn13 2.772797 1_555
Au13 Sn7 2.785601 1_665
Au13 Sn7 2.785601 1_565
Au13 Ca13 3.201452 1_565
Au13 Au17 3.316395 1_555
Au13 Ca11 3.358037 1_555
Au13 Ca11 3.358037 1_655
Au13 Ca7 3.361792 1_655
Au13 Ca7 3.361792 1_555
Au13 Ca17 3.533994 1_565
Au14 Sn14 2.772797 1_555
Au14 Sn4 2.785601 1_555
Au14 Sn4 2.785601 1_655
Au14 Ca14 3.201452 1_555
Au14 Au18 3.316395 1_555
Au14 Ca8 3.358037 1_555
Au14 Ca8 3.358037 1_655
Au14 Ca4 3.361792 1_555
Au14 Ca4 3.361792 1_655
Au14 Ca18 3.533994 1_555
Au15 Sn15 2.772797 1_555
Au15 Sn5 2.785601 1_455
Au15 Sn5 2.785601 1_555
Au15 Ca15 3.201452 1_555
Au15 Au19 3.316395 1_555
Au15 Ca9 3.358037 1_555
Au15 Ca9 3.358037 1_455
Au15 Ca5 3.361792 1_555
Au15 Ca5 3.361792 1_455
Au15 Ca19 3.533994 1_555
Au16 Sn16 2.771483 1_555
Au16 Sn2 2.780166 1_545
Au16 Sn2 2.780166 1_445
Au16 Ca3 3.227568 1_545
Au16 Ca2 3.363346 1_455
Au16 Ca2 3.363346 1_555
Au16 Ca6 3.377277 1_555
Au16 Ca6 3.377277 1_455
Au16 Ca16 3.521083 1_545
Au17 Sn17 2.771483 1_555
Au17 Sn3 2.780166 1_565
Au17 Sn3 2.780166 1_665
Au17 Ca2 3.227568 1_565
Au17 Ca3 3.363346 1_555
Au17 Ca3 3.363346 1_655
Au17 Ca7 3.377277 1_655
Au17 Ca7 3.377277 1_555
Au17 Ca17 3.521083 1_565
Au18 Sn18 2.771483 1_555
Au18 Sn0 2.780166 1_555
Au18 Sn0 2.780166 1_655
Au18 Ca1 3.227568 1_555
Au18 Ca0 3.363346 1_654
Au18 Ca0 3.363346 1_554
Au18 Ca4 3.377277 1_555
Au18 Ca4 3.377277 1_655
Au18 Ca18 3.521083 1_555
Au19 Sn19 2.771483 1_555
Au19 Sn1 2.780166 1_455
Au19 Sn1 2.780166 1_555
Au19 Ca0 3.227568 1_555
Au19 Ca1 3.363346 1_556
Au19 Ca1 3.363346 1_456
Au19 Ca5 3.377277 1_555
Au19 Ca5 3.377277 1_455
Au19 Ca19 3.521083 1_555
