# generated using pymatgen
data_MgNb2In2O8
_symmetry_space_group_name_H-M   'P 1'
_cell_length_a   5.55322451
_cell_length_b   5.32777282
_cell_length_c   6.27313200
_cell_angle_alpha   90.00000000
_cell_angle_beta   90.00000000
_cell_angle_gamma   91.70279248
_symmetry_Int_Tables_number   1
_chemical_formula_structural   MgNb2In2O8
_chemical_formula_sum   'Mg1 Nb2 In2 O8'
_cell_volume   185.51692410
_cell_formula_units_Z   1
loop_
 _symmetry_equiv_pos_site_id
 _symmetry_equiv_pos_as_xyz
  1  'x, y, z'
loop_
 _atom_site_type_symbol
 _atom_site_label
 _atom_site_symmetry_multiplicity
 _atom_site_fract_x
 _atom_site_fract_y
 _atom_site_fract_z
 _atom_site_occupancy
  Mg  Mg0  1  0.00000000  0.75000000  0.62585800  1
  Nb  Nb0  1  0.00000000  0.75000000  0.16918300  1
  Nb  Nb1  1  0.00000000  0.25000000  0.84829300  1
  In  In0  1  0.50000000  0.75000000  0.68923500  1
  In  In1  1  0.50000000  0.25000000  0.30791800  1
  O  O0  1  0.22369300  0.44440000  0.66314500  1
  O  O1  1  0.77630700  0.05560000  0.66314500  1
  O  O2  1  0.77166200  0.64627700  0.37960800  1
  O  O3  1  0.22833800  0.85372300  0.37960800  1
  O  O4  1  0.16094900  0.43831000  0.09484700  1
  O  O5  1  0.83905100  0.06169000  0.09484700  1
  O  O6  1  0.78801800  0.56863100  0.85986500  1
  O  O7  1  0.21198200  0.93136900  0.85986500  1
loop_
_geom_bond_atom_site_label_1
_geom_bond_atom_site_label_2
_geom_bond_distance
_geom_bond_site_symmetry_2
Mg0 O2 2.063461 1_455
Mg0 O3 2.063461 1_555
Mg0 O0 2.090202 1_555
Mg0 O1 2.090202 1_465
Mg0 O6 2.099233 1_455
Mg0 O7 2.099233 1_555
Nb0 O2 1.901067 1_455
Nb0 O3 1.901067 1_555
Nb0 O4 1.965236 1_555
Nb0 O5 1.965236 1_465
Nb0 O6 2.452958 1_454
Nb0 O7 2.452958 1_554
Nb1 O0 1.971888 1_555
Nb1 O1 1.971888 1_455
Nb1 O4 2.035754 1_556
Nb1 O5 2.035754 1_456
Nb1 O7 2.095619 1_545
Nb1 O6 2.095619 1_455
In0 O6 2.174734 1_555
In0 O7 2.174734 1_555
In0 O0 2.209890 1_555
In0 O1 2.209890 1_565
In0 O2 2.530504 1_555
In0 O3 2.530504 1_555
In1 O4 2.539766 1_555
In1 O5 2.539766 1_555
In1 O3 2.597366 1_545
In1 O2 2.597366 1_555
