# generated using pymatgen
data_Na7Sc2Ta2Si5PO24
_symmetry_space_group_name_H-M   'P 1'
_cell_length_a   9.12562759
_cell_length_b   9.12617130
_cell_length_c   22.65002990
_cell_angle_alpha   89.92901640
_cell_angle_beta   90.00436548
_cell_angle_gamma   119.95092614
_symmetry_Int_Tables_number   1
_chemical_formula_structural   Na7Sc2Ta2Si5PO24
_chemical_formula_sum   'Na21 Sc6 Ta6 Si15 P3 O72'
_cell_volume   1634.42462650
_cell_formula_units_Z   3
loop_
 _symmetry_equiv_pos_site_id
 _symmetry_equiv_pos_as_xyz
  1  'x, y, z'
loop_
 _atom_site_type_symbol
 _atom_site_label
 _atom_site_symmetry_multiplicity
 _atom_site_fract_x
 _atom_site_fract_y
 _atom_site_fract_z
 _atom_site_occupancy
  Na  Na0  1  0.64172909  0.01068297  0.24999436  1
  Na  Na1  1  0.37074285  0.36109539  0.24794187  1
  Na  Na2  1  0.98883172  0.62763634  0.24866647  1
  Na  Na3  1  0.63849622  0.62819361  0.74853345  1
  Na  Na4  1  0.98872151  0.35940708  0.74884910  1
  Na  Na5  1  0.37223868  0.01191518  0.74862957  1
  Na  Na6  1  0.30625635  0.34237096  0.58274923  1
  Na  Na7  1  0.03777730  0.69524992  0.58172380  1
  Na  Na8  1  0.65695999  0.96155319  0.58198778  1
  Na  Na9  1  0.30104649  0.96305879  0.08060237  1
  Na  Na10  1  0.04016669  0.34508286  0.08246117  1
  Na  Na11  1  0.97495210  0.67738328  0.91553581  1
  Na  Na12  1  0.32199481  0.29340349  0.91559478  1
  Na  Na13  1  0.32310868  0.02621897  0.41545498  1
  Na  Na14  1  0.70598005  0.67677696  0.41558033  1
  Na  Na15  1  0.99667540  0.00283856  0.49530529  1
  Na  Na16  1  0.99152425  0.99774327  0.99610641  1
  Na  Na17  1  0.66728481  0.32632848  0.82990116  1
  Na  Na18  1  0.67341780  0.33259770  0.33028313  1
  Na  Na19  1  0.33737615  0.66218692  0.16187210  1
  Na  Na20  1  0.33434230  0.66670169  0.66252653  1
  Sc  Sc0  1  0.99608738  0.00182068  0.35151860  1
  Sc  Sc1  1  0.99859925  0.00373825  0.85184529  1
  Sc  Sc2  1  0.66623974  0.33315718  0.68431585  1
  Sc  Sc3  1  0.66769165  0.33890509  0.18442684  1
  Sc  Sc4  1  0.33200362  0.66293744  0.01817971  1
  Sc  Sc5  1  0.33430644  0.67014388  0.51762412  1
  Ta  Ta0  1  0.99957266  0.99929546  0.64737402  1
  Ta  Ta1  1  0.00040741  0.99661944  0.14721229  1
  Ta  Ta2  1  0.66630031  0.33040895  0.98063671  1
  Ta  Ta3  1  0.67386550  0.33226574  0.48068098  1
  Ta  Ta4  1  0.33010569  0.66871833  0.31376665  1
  Ta  Ta5  1  0.33047969  0.66929033  0.81399764  1
  Si  Si0  1  0.29227037  0.00113502  0.25184045  1
  Si  Si1  1  0.70822760  0.70840430  0.25151184  1
  Si  Si2  1  -0.00027884  0.29071182  0.25005586  1
  Si  Si3  1  0.29254155  0.29244526  0.75152447  1
  Si  Si4  1  0.99889540  0.70805391  0.75196240  1
  Si  Si5  1  0.70776436  0.99968512  0.75097722  1
  Si  Si6  1  0.96112594  0.33348355  0.58522761  1
  Si  Si7  1  0.37474874  0.04197509  0.58382766  1
  Si  Si8  1  0.66624308  0.62476119  0.58393879  1
  Si  Si9  1  0.95742040  0.62696278  0.08388045  1
  Si  Si10  1  0.37516852  0.33699689  0.08453486  1
  Si  Si11  1  0.03833595  0.37117206  0.91816606  1
  Si  Si12  1  0.33559807  0.96008502  0.91870701  1
  Si  Si13  1  0.62853349  0.96141237  0.41787314  1
  Si  Si14  1  0.03889486  0.66508779  0.41802846  1
  P  P0  1  0.66734263  0.04201515  0.08433973  1
  P  P1  1  0.62319178  0.66680551  0.91760791  1
  P  P2  1  0.33275801  0.37531579  0.41758011  1
  O  O0  1  0.21027289  0.03385609  0.30913895  1
  O  O1  1  0.82427255  0.78920164  0.30885513  1
  O  O2  1  0.96611724  0.16953376  0.30531405  1
  O  O3  1  0.20918781  0.17513756  0.80843543  1
  O  O4  1  0.96786394  0.79135310  0.80924949  1
  O  O5  1  0.83074352  0.03357297  0.80549614  1
  O  O6  1  0.79849974  0.96385270  0.69134916  1
  O  O7  1  0.16439712  0.20054359  0.69243633  1
  O  O8  1  0.03599024  0.83533889  0.69270552  1
  O  O9  1  0.80370359  0.84038317  0.19413198  1
  O  O10  1  0.03516880  0.20063635  0.19065374  1
  O  O11  1  0.16383044  0.96390225  0.19290365  1
  O  O12  1  0.87881339  0.36803898  0.64235074  1
  O  O13  1  0.48988263  0.12339135  0.64156266  1
  O  O14  1  0.63381482  0.51052184  0.64192105  1
  O  O15  1  0.87739843  0.50861644  0.14129527  1
  O  O16  1  0.63829493  0.12101658  0.13960770  1
  O  O17  1  0.48257374  0.35416253  0.14283527  1
  O  O18  1  0.46903279  0.29997128  0.02629009  1
  O  O19  1  0.83319222  0.52779561  0.02534361  1
  O  O20  1  0.69862884  0.16608240  0.02951911  1
  O  O21  1  0.46691579  0.16982698  0.52529604  1
  O  O22  1  0.70074572  0.53156247  0.52551592  1
  O  O23  1  0.82812645  0.29792016  0.52772888  1
  O  O24  1  0.53778018  0.69003754  0.97100708  1
  O  O25  1  0.15625083  0.45967113  0.97489068  1
  O  O26  1  0.30466133  0.84342733  0.97566214  1
  O  O27  1  0.54174141  0.84447376  0.47513651  1
  O  O28  1  0.31048684  0.45737014  0.47286447  1
  O  O29  1  0.15561775  0.69648379  0.47515153  1
  O  O30  1  0.13519873  0.63602798  0.35893520  1
  O  O31  1  0.49793995  0.86353427  0.35940029  1
  O  O32  1  0.36362557  0.49460430  0.36168416  1
  O  O33  1  0.13540993  0.50181701  0.85949351  1
  O  O34  1  0.36442823  0.86443040  0.85913536  1
  O  O35  1  0.50648321  0.63374271  0.86073362  1
  O  O36  1  0.01997676  0.83176978  0.41157116  1
  O  O37  1  0.81046319  0.97509129  0.41163839  1
  O  O38  1  0.18400266  0.19556400  0.41094987  1
  O  O39  1  0.02509574  0.18948931  0.91177857  1
  O  O40  1  0.16948780  0.98011605  0.91172341  1
  O  O41  1  0.80434693  0.81408003  0.91082570  1
  O  O42  1  0.97039375  0.15570219  0.58934285  1
  O  O43  1  0.18568858  0.02953365  0.58946038  1
  O  O44  1  0.84327914  0.81350119  0.58943636  1
  O  O45  1  0.97582483  0.81826076  0.08970550  1
  O  O46  1  0.83678009  0.03655769  0.08858922  1
  O  O47  1  0.18424156  0.15735214  0.08938903  1
  O  O48  1  0.68140768  0.16158033  0.74461661  1
  O  O49  1  0.48021013  0.31733402  0.74482260  1
  O  O50  1  0.83827766  0.51979022  0.74499466  1
  O  O51  1  0.68300728  0.52026146  0.24460179  1
  O  O52  1  0.83694521  0.31611993  0.24365862  1
  O  O53  1  0.48159835  0.15925574  0.24365786  1
  O  O54  1  0.63394188  0.49690964  0.92292357  1
  O  O55  1  0.85381377  0.36805811  0.92385652  1
  O  O56  1  0.50678608  0.15312987  0.92399960  1
  O  O57  1  0.62880114  0.14475643  0.42292149  1
  O  O58  1  0.50237758  0.36590160  0.42161168  1
  O  O59  1  0.84601792  0.49400171  0.42298836  1
  O  O60  1  0.34232031  0.49413309  0.07854499  1
  O  O61  1  0.14736106  0.65427908  0.07773065  1
  O  O62  1  0.51040539  0.86914947  0.07560434  1
  O  O63  1  0.34937107  0.85350603  0.57787285  1
  O  O64  1  0.50274291  0.64882221  0.57742839  1
  O  O65  1  0.14841896  0.49457698  0.57701108  1
  O  O66  1  0.30321526  0.82235154  0.25657199  1
  O  O67  1  0.51810392  0.69334969  0.25762274  1
  O  O68  1  0.17723680  0.47944049  0.25705257  1
  O  O69  1  0.30617825  0.48190333  0.75755352  1
  O  O70  1  0.17748720  0.69650385  0.75673976  1
  O  O71  1  0.51990415  0.82182607  0.75704343  1
loop_
_geom_bond_atom_site_label_1
_geom_bond_atom_site_label_2
_geom_bond_distance
_geom_bond_site_symmetry_2
Na0 O53 2.443841 1_555
Na0 O52 2.450477 1_555
Na0 O67 2.534971 1_545
Na0 O66 2.686445 1_545
Na0 O16 2.700267 1_555
Na0 O31 2.810452 1_545
Na0 O2 2.855435 1_555
Na0 O9 2.915526 1_545
Na1 O51 2.470344 1_555
Na1 O68 2.496461 1_555
Na1 O53 2.507386 1_555
Na1 O17 2.603512 1_555
Na1 O67 2.642123 1_555
Na1 O32 2.865789 1_555
Na1 O0 2.933908 1_555
Na1 O10 2.955046 1_555
Na2 O51 2.454984 1_555
Na2 O52 2.466278 1_555
Na2 O66 2.516110 1_655
Na2 O15 2.651715 1_555
Na2 O68 2.672534 1_655
Na2 O30 2.815265 1_655
Na2 O1 2.916151 1_555
Na2 O11 2.942852 1_655
Na3 O49 2.459805 1_555
Na3 O50 2.471870 1_555
Na3 O71 2.498311 1_555
Na3 O14 2.635679 1_555
Na3 O69 2.641506 1_555
Na3 O35 2.823822 1_555
Na3 O4 2.945865 1_555
Na3 O6 2.952557 1_555
Na4 O50 2.457844 1_555
Na4 O48 2.465416 1_555
Na4 O69 2.539259 1_655
Na4 O12 2.628478 1_555
Na4 O70 2.678305 1_655
Na4 O33 2.834069 1_655
Na4 O5 2.877024 1_555
Na4 O7 2.937759 1_655
Na5 O48 2.446585 1_555
Na5 O49 2.450403 1_555
Na5 O70 2.523612 1_545
Na5 O13 2.640497 1_555
Na5 O71 2.682355 1_545
Na5 O34 2.824431 1_545
Na5 O3 2.913120 1_555
Na5 O8 2.946849 1_545
Na6 O65 2.453229 1_555
Na6 O64 2.458294 1_555
Na6 O43 2.499421 1_555
Na6 O42 2.665377 1_455
Na6 O28 2.692697 1_555
Na6 O7 2.800523 1_555
Na6 O14 2.917281 1_555
Na6 O21 2.938212 1_555
Na7 O63 2.465361 1_555
Na7 O65 2.496322 1_555
Na7 O44 2.501722 1_455
Na7 O29 2.640365 1_555
Na7 O43 2.655024 1_565
Na7 O8 2.825321 1_555
Na7 O12 2.927802 1_455
Na7 O22 2.954366 1_455
Na8 O63 2.469091 1_555
Na8 O64 2.475250 1_555
Na8 O42 2.507706 1_565
Na8 O27 2.643619 1_555
Na8 O44 2.652984 1_555
Na8 O6 2.788739 1_555
Na8 O23 2.928590 1_565
Na8 O13 2.929284 1_565
Na9 O61 2.442606 1_555
Na9 O62 2.456152 1_555
Na9 O47 2.491587 1_565
Na9 O45 2.584619 1_455
Na9 O26 2.623951 1_554
Na9 O11 2.836938 1_555
Na9 O18 2.932864 1_565
Na9 O16 2.984976 1_565
Na10 O60 2.390755 1_555
Na10 O46 2.484533 1_455
Na10 O61 2.484728 1_555
Na10 O47 2.633825 1_555
Na10 O25 2.653324 1_554
Na10 O10 2.770757 1_555
Na10 O15 2.903140 1_455
Na10 O20 2.956521 1_455
Na11 O40 2.427768 1_655
Na11 O41 2.435273 1_555
Na11 O55 2.471702 1_555
Na11 O4 2.634858 1_555
Na11 O54 2.703033 1_555
Na11 O19 2.819888 1_556
Na11 O26 2.942061 1_655
Na11 O33 2.944582 1_655
Na12 O39 2.383731 1_555
Na12 O40 2.479220 1_545
Na12 O54 2.510412 1_555
Na12 O56 2.583352 1_555
Na12 O3 2.648103 1_555
Na12 O18 2.830181 1_556
Na12 O25 2.948049 1_555
Na12 O35 2.965643 1_555
Na13 O36 2.430593 1_545
Na13 O57 2.442948 1_555
Na13 O38 2.443132 1_555
Na13 O0 2.633393 1_555
Na13 O58 2.691264 1_555
Na13 O21 2.814201 1_555
Na13 O29 2.935546 1_545
Na13 O31 2.954985 1_545
Na14 O37 2.395073 1_555
Na14 O36 2.484406 1_655
Na14 O58 2.501107 1_555
Na14 O59 2.563469 1_555
Na14 O1 2.636248 1_555
Na14 O22 2.808475 1_555
Na14 O27 2.950258 1_555
Na14 O32 2.972026 1_555
Na15 O37 2.472656 1_545
Na15 O36 2.533469 1_645
Na15 O38 2.579995 1_655
Na15 O42 2.623346 1_555
Na15 O44 2.658402 1_545
Na15 O43 2.676507 1_655
Na16 O39 2.502147 1_665
Na16 O40 2.564846 1_655
Na16 O41 2.570398 1_555
Na16 O45 2.637261 1_556
Na16 O46 2.647509 1_566
Na16 O47 2.669822 1_666
Na17 O48 2.491858 1_555
Na17 O50 2.547878 1_555
Na17 O49 2.548450 1_555
Na17 O56 2.620436 1_555
Na17 O55 2.631623 1_555
Na17 O54 2.727004 1_555
Na18 O52 2.514842 1_555
Na18 O51 2.559146 1_555
Na18 O53 2.580413 1_555
Na18 O59 2.598112 1_555
Na18 O57 2.607965 1_555
Na18 O58 2.698788 1_555
Na19 O60 2.447989 1_555
Na19 O61 2.553227 1_555
Na19 O62 2.625277 1_555
Na19 O67 2.652745 1_555
Na19 O68 2.668835 1_555
Na19 O66 2.701372 1_555
Na20 O64 2.520920 1_555
Na20 O63 2.521927 1_555
Na20 O65 2.538446 1_555
Na20 O70 2.658418 1_555
Na20 O71 2.658567 1_555
Na20 O69 2.664825 1_555
O0 Si0 1.599262 1_555
O0 Sc0 2.063069 1_455
O1 Si1 1.604547 1_555
O1 Sc0 2.030726 1_565
O2 Si2 1.594221 1_655
O2 Sc0 1.981585 1_555
O3 Si3 1.603101 1_555
O3 Sc1 2.025231 1_455
O4 Si4 1.599751 1_555
O4 Sc1 2.056240 1_565
O5 Si5 1.591904 1_545
O5 Sc1 1.984467 1_555
O6 Si5 1.699484 1_555
O6 Ta0 1.967354 1_555
O7 Si3 1.698621 1_555
O7 Ta0 1.980741 1_445
O8 Si4 1.693797 1_455
O8 Ta0 1.973893 1_455
O9 Si1 1.687421 1_555
O9 Ta1 1.955887 1_655
O10 Si2 1.690854 1_555
O10 Ta1 1.987504 1_545
O11 Si0 1.695431 1_565
O11 Ta1 1.956503 1_555
O12 Si6 1.604804 1_555
O12 Sc2 2.037354 1_555
O13 Si7 1.608959 1_555
O13 Sc2 2.029921 1_555
O14 Si8 1.608688 1_555
O14 Sc2 2.025842 1_555
O15 Si9 1.612471 1_555
O15 Sc3 2.013070 1_555
O16 P0 1.533054 1_555
O16 Sc3 2.128122 1_555
O17 Si10 1.604977 1_555
O17 Sc3 1.998736 1_555
O18 Si10 1.696639 1_555
O18 Ta2 1.971640 1_554
O19 Si9 1.685359 1_555
O19 Ta2 1.963349 1_554
O20 P0 1.605957 1_555
O20 Ta2 1.999882 1_554
O21 Si7 1.686076 1_555
O21 Ta3 1.996620 1_555
O22 Si8 1.686385 1_555
O22 Ta3 1.989617 1_555
O23 Si6 1.697645 1_555
O23 Ta3 1.911821 1_555
O24 P1 1.510342 1_555
O24 Sc4 2.065181 1_556
O25 Si11 1.611058 1_555
O25 Sc4 2.002092 1_556
O26 Si12 1.604332 1_555
O26 Sc4 2.027141 1_556
O27 Si13 1.612827 1_555
O27 Sc5 2.007468 1_555
O28 P2 1.524594 1_555
O28 Sc5 2.104533 1_555
O29 Si14 1.608312 1_555
O29 Sc5 2.008191 1_555
O30 Si14 1.693503 1_555
O30 Ta4 1.941375 1_555
O31 Si13 1.706449 1_555
O31 Ta4 1.964796 1_555
O32 P2 1.599315 1_555
O32 Ta4 2.068195 1_555
O33 Si11 1.707041 1_555
O33 Ta5 1.961230 1_555
O34 Si12 1.698290 1_555
O34 Ta5 1.940701 1_555
O35 P1 1.601466 1_555
O35 Ta5 2.079587 1_555
O36 Si14 1.620746 1_555
O36 Sc0 2.153749 1_465
O37 Si13 1.607765 1_555
O37 Sc0 2.090484 1_565
O38 P2 1.527542 1_555
O38 Sc0 2.203860 1_455
O39 Si11 1.607878 1_555
O39 Sc1 2.090766 1_455
O40 Si12 1.622610 1_555
O40 Sc1 2.156952 1_465
O41 P1 1.530978 1_555
O41 Sc1 2.203139 1_565
O42 Si6 1.668792 1_555
O42 Ta0 2.052033 1_545
O43 Si7 1.676364 1_555
O43 Ta0 2.052540 1_445
O44 Si8 1.677597 1_555
O44 Ta0 2.054710 1_555
O45 Si9 1.673704 1_555
O45 Ta1 2.009234 1_655
O46 P0 1.574615 1_555
O46 Ta1 2.160447 1_645
O47 Si10 1.697935 1_555
O47 Ta1 2.054209 1_545
O48 Si5 1.617365 1_545
O48 Sc2 2.132499 1_555
O49 Si3 1.618378 1_555
O49 Sc2 2.129817 1_555
O50 Si4 1.615953 1_555
O50 Sc2 2.142460 1_555
O51 Si1 1.622254 1_555
O51 Sc3 2.095497 1_555
O52 Si2 1.620212 1_655
O52 Sc3 2.132708 1_555
O53 Si0 1.616068 1_555
O53 Sc3 2.141628 1_555
O54 P1 1.606108 1_555
O54 Ta2 2.132593 1_555
O55 Si11 1.674848 1_655
O55 Ta2 2.027889 1_555
O56 Si12 1.676602 1_545
O56 Ta2 2.008835 1_555
O57 Si13 1.676058 1_545
O57 Ta3 2.027751 1_555
O58 P2 1.595123 1_555
O58 Ta3 2.193540 1_555
O59 Si14 1.674511 1_655
O59 Ta3 2.008582 1_555
O60 Si10 1.610439 1_555
O60 Sc4 2.095505 1_555
O61 Si9 1.629251 1_455
O61 Sc4 2.128821 1_555
O62 P0 1.524385 1_565
O62 Sc4 2.197800 1_555
O63 Si7 1.622670 1_565
O63 Sc5 2.111232 1_555
O64 Si8 1.619624 1_555
O64 Sc5 2.129094 1_555
O65 Si6 1.614811 1_455
O65 Sc5 2.129600 1_555
O66 Si0 1.686978 1_565
O66 Ta4 2.010789 1_555
O67 Si1 1.676372 1_555
O67 Ta4 2.055599 1_555
O68 Si2 1.682416 1_555
O68 Ta4 2.044294 1_555
O69 Si3 1.676128 1_555
O69 Ta5 2.057878 1_555
O70 Si4 1.688320 1_455
O70 Ta5 2.009479 1_555
O71 Si5 1.677342 1_555
O71 Ta5 2.045291 1_555
