# generated using pymatgen
data_Na3Sc2(PO4)3
_symmetry_space_group_name_H-M   'P 1'
_cell_length_a   15.71398826
_cell_length_b   9.01971324
_cell_length_c   9.03608280
_cell_angle_alpha   90.00000000
_cell_angle_beta   124.94740313
_cell_angle_gamma   90.00000000
_symmetry_Int_Tables_number   1
_chemical_formula_structural   Na3Sc2(PO4)3
_chemical_formula_sum   'Na12 Sc8 P12 O48'
_cell_volume   1049.79079452
_cell_formula_units_Z   4
loop_
 _symmetry_equiv_pos_site_id
 _symmetry_equiv_pos_as_xyz
  1  'x, y, z'
loop_
 _atom_site_type_symbol
 _atom_site_label
 _atom_site_symmetry_multiplicity
 _atom_site_fract_x
 _atom_site_fract_y
 _atom_site_fract_z
 _atom_site_occupancy
  Na  Na0  1  0.24442943  0.77374380  0.99759508  1
  Na  Na1  1  0.74442943  0.72625620  0.49759508  1
  Na  Na2  1  0.74442943  0.27374380  0.99759508  1
  Na  Na3  1  0.24442943  0.22625620  0.49759508  1
  Na  Na4  1  0.50240214  0.10446657  0.74896166  1
  Na  Na5  1  0.50240214  0.89553343  0.24896166  1
  Na  Na6  1  0.00240214  0.60446657  0.74896166  1
  Na  Na7  1  0.00240214  0.39553343  0.24896166  1
  Na  Na8  1  0.81040164  0.93387759  0.20839959  1
  Na  Na9  1  0.81040164  0.06612241  0.70839959  1
  Na  Na10  1  0.31040164  0.43387759  0.20839959  1
  Na  Na11  1  0.31040164  0.56612241  0.70839959  1
  Sc  Sc0  1  0.10381073  0.75851045  0.55630425  1
  Sc  Sc1  1  0.89761416  0.75011243  0.94155448  1
  Sc  Sc2  1  0.89761416  0.24988757  0.44155448  1
  Sc  Sc3  1  0.10381073  0.24148955  0.05630425  1
  Sc  Sc4  1  0.60381073  0.25851045  0.55630425  1
  Sc  Sc5  1  0.39761416  0.25011243  0.94155448  1
  Sc  Sc6  1  0.39761416  0.74988757  0.44155448  1
  Sc  Sc7  1  0.60381073  0.74148955  0.05630425  1
  P  P0  1  0.99903423  0.95094568  0.74468617  1
  P  P1  1  0.99903423  0.04905432  0.24468617  1
  P  P2  1  0.49903423  0.45094568  0.74468617  1
  P  P3  1  0.49903423  0.54905432  0.24468617  1
  P  P4  1  0.35539678  0.89629124  0.75779506  1
  P  P5  1  0.65000955  0.89783888  0.74604375  1
  P  P6  1  0.65000955  0.10216112  0.24604375  1
  P  P7  1  0.35539678  0.10370876  0.25779506  1
  P  P8  1  0.85539678  0.39629124  0.75779506  1
  P  P9  1  0.15000955  0.39783888  0.74604375  1
  P  P10  1  0.15000955  0.60216112  0.24604375  1
  P  P11  1  0.85539678  0.60370876  0.25779506  1
  O  O0  1  0.15724334  0.57051947  0.74308780  1
  O  O1  1  0.84836533  0.56751275  0.75470545  1
  O  O2  1  0.84836533  0.43248725  0.25470545  1
  O  O3  1  0.15724334  0.42948053  0.24308780  1
  O  O4  1  0.65724334  0.07051947  0.74308780  1
  O  O5  1  0.34836533  0.06751275  0.75470545  1
  O  O6  1  0.34836533  0.93248725  0.25470545  1
  O  O7  1  0.65724334  0.92948053  0.24308780  1
  O  O8  1  0.43309100  0.54519129  0.57166474  1
  O  O9  1  0.55917883  0.55313712  0.91120988  1
  O  O10  1  0.55917883  0.44686288  0.41120988  1
  O  O11  1  0.43309100  0.45480871  0.07166474  1
  O  O12  1  0.93309100  0.04519129  0.57166474  1
  O  O13  1  0.05917883  0.05313712  0.91120988  1
  O  O14  1  0.05917883  0.94686288  0.41120988  1
  O  O15  1  0.93309100  0.95480871  0.07166474  1
  O  O16  1  0.26276284  0.82152728  0.74531813  1
  O  O17  1  0.74274941  0.83361333  0.75043459  1
  O  O18  1  0.74274941  0.16638667  0.25043459  1
  O  O19  1  0.26276284  0.17847272  0.24531813  1
  O  O20  1  0.76276284  0.32152728  0.74531813  1
  O  O21  1  0.24274941  0.33361333  0.75043459  1
  O  O22  1  0.24274941  0.66638667  0.25043459  1
  O  O23  1  0.76276284  0.67847272  0.24531813  1
  O  O24  1  0.35889261  0.84843223  0.59718815  1
  O  O25  1  0.65374890  0.86064512  0.91774407  1
  O  O26  1  0.65374890  0.13935488  0.41774407  1
  O  O27  1  0.35889261  0.15156777  0.09718815  1
  O  O28  1  0.85889261  0.34843223  0.59718815  1
  O  O29  1  0.15374890  0.36064512  0.91774407  1
  O  O30  1  0.15374890  0.63935488  0.41774407  1
  O  O31  1  0.85889261  0.65156777  0.09718815  1
  O  O32  1  0.45659721  0.84226620  0.93449179  1
  O  O33  1  0.54722726  0.84189549  0.57558395  1
  O  O34  1  0.54722726  0.15810451  0.07558395  1
  O  O35  1  0.45659721  0.15773380  0.43449179  1
  O  O36  1  0.95659721  0.34226620  0.93449179  1
  O  O37  1  0.04722726  0.34189549  0.57558395  1
  O  O38  1  0.04722726  0.65810451  0.07558395  1
  O  O39  1  0.95659721  0.65773380  0.43449179  1
  O  O40  1  0.07665257  0.84520794  0.74432916  1
  O  O41  1  0.92039205  0.85202162  0.75290225  1
  O  O42  1  0.92039205  0.14797838  0.25290225  1
  O  O43  1  0.07665257  0.15479206  0.24432916  1
  O  O44  1  0.57665257  0.34520794  0.74432916  1
  O  O45  1  0.42039205  0.35202162  0.75290225  1
  O  O46  1  0.42039205  0.64797838  0.25290225  1
  O  O47  1  0.57665257  0.65479206  0.24432916  1
loop_
_geom_bond_atom_site_label_1
_geom_bond_atom_site_label_2
_geom_bond_distance
_geom_bond_site_symmetry_2
Na0 O40 2.385652 1_555
Na0 O6 2.401678 1_556
Na0 O16 2.493530 1_555
Na0 O22 2.495439 1_556
Na0 O0 2.629864 1_555
Na0 O46 2.635625 1_556
Na1 O47 2.385652 1_555
Na1 O1 2.401678 1_555
Na1 O23 2.493530 1_555
Na1 O17 2.495439 1_555
Na1 O7 2.629864 1_555
Na1 O41 2.635625 1_555
Na2 O44 2.385652 1_555
Na2 O2 2.401678 1_556
Na2 O20 2.493530 1_555
Na2 O18 2.495439 1_556
Na2 O4 2.629864 1_555
Na2 O42 2.635625 1_556
Na3 O43 2.385652 1_555
Na3 O5 2.401678 1_555
Na3 O19 2.493530 1_555
Na3 O21 2.495439 1_555
Na3 O3 2.629864 1_555
Na3 O45 2.635625 1_555
Na4 O5 2.473196 1_555
Na4 O44 2.476715 1_555
Na4 O4 2.482913 1_555
Na4 O35 2.545638 1_555
Na4 O45 2.588500 1_555
Na4 O34 2.656916 1_556
Na4 O25 2.943328 1_545
Na4 O24 2.959102 1_545
Na5 O6 2.473196 1_555
Na5 O47 2.476715 1_555
Na5 O7 2.482913 1_555
Na5 O32 2.545638 1_554
Na5 O46 2.588500 1_555
Na5 O33 2.656916 1_555
Na5 O26 2.943328 1_565
Na5 O27 2.959102 1_565
Na6 O1 2.473196 1_455
Na6 O40 2.476715 1_555
Na6 O0 2.482913 1_555
Na6 O39 2.545638 1_455
Na6 O41 2.588500 1_455
Na6 O38 2.656916 1_556
Na6 O29 2.943328 1_555
Na6 O28 2.959102 1_455
Na7 O2 2.473196 1_455
Na7 O43 2.476715 1_555
Na7 O3 2.482913 1_555
Na7 O36 2.545638 1_454
Na7 O42 2.588500 1_455
Na7 O37 2.656916 1_555
Na7 O30 2.943328 1_555
Na7 O31 2.959102 1_455
Na8 O25 2.446839 1_554
Na8 O42 2.466175 1_565
Na8 O18 2.476920 1_565
Na8 O23 2.502943 1_555
Na8 O7 2.599310 1_555
Na8 O15 2.829872 1_555
Na8 O12 2.872210 1_565
Na9 O26 2.446839 1_555
Na9 O41 2.466175 1_545
Na9 O17 2.476920 1_545
Na9 O20 2.502943 1_555
Na9 O4 2.599310 1_555
Na9 O12 2.829872 1_555
Na9 O15 2.872210 1_546
Na10 O29 2.446839 1_554
Na10 O46 2.466175 1_555
Na10 O22 2.476920 1_555
Na10 O19 2.502943 1_555
Na10 O3 2.599310 1_555
Na10 O11 2.829872 1_555
Na10 O8 2.872210 1_555
Na11 O30 2.446839 1_555
Na11 O45 2.466175 1_555
Na11 O21 2.476920 1_555
Na11 O16 2.502943 1_555
Na11 O0 2.599310 1_555
Na11 O8 2.829872 1_555
Na11 O11 2.872210 1_556
O0 P9 1.563013 1_555
O0 Sc0 2.192085 1_555
O1 P8 1.547427 1_555
O1 Sc1 2.159910 1_555
O2 P11 1.547427 1_555
O2 Sc2 2.159910 1_555
O3 P10 1.563013 1_555
O3 Sc3 2.192085 1_555
O4 P5 1.563013 1_545
O4 Sc4 2.192085 1_555
O5 P4 1.547427 1_545
O5 Sc5 2.159910 1_555
O6 P7 1.547427 1_565
O6 Sc6 2.159910 1_555
O7 P6 1.563013 1_565
O7 Sc7 2.192085 1_555
O8 P2 1.544241 1_555
O8 Sc6 2.085898 1_555
O9 P2 1.542000 1_555
O9 Sc7 2.010868 1_556
O10 P3 1.542000 1_555
O10 Sc4 2.010868 1_555
O11 P3 1.544241 1_555
O11 Sc5 2.085898 1_554
O12 P0 1.544241 1_545
O12 Sc2 2.085898 1_555
O13 P0 1.542000 1_445
O13 Sc3 2.010868 1_556
O14 P1 1.542000 1_465
O14 Sc0 2.010868 1_555
O15 P1 1.544241 1_565
O15 Sc1 2.085898 1_554
O16 P4 1.548662 1_555
O16 Sc0 2.142804 1_555
O17 P5 1.547475 1_555
O17 Sc1 2.158016 1_555
O18 P6 1.547475 1_555
O18 Sc2 2.158016 1_555
O19 P7 1.548662 1_555
O19 Sc3 2.142804 1_555
O20 P8 1.548662 1_555
O20 Sc4 2.142804 1_555
O21 P9 1.547475 1_555
O21 Sc5 2.158016 1_555
O22 P10 1.547475 1_555
O22 Sc6 2.158016 1_555
O23 P11 1.548662 1_555
O23 Sc7 2.142804 1_555
O24 P4 1.544941 1_555
O24 Sc6 2.029371 1_555
O25 P5 1.555217 1_555
O25 Sc7 2.112843 1_556
O26 P6 1.555217 1_555
O26 Sc4 2.112843 1_555
O27 P7 1.544941 1_555
O27 Sc5 2.029371 1_554
O28 P8 1.544941 1_555
O28 Sc2 2.029371 1_555
O29 P9 1.555217 1_555
O29 Sc3 2.112843 1_556
O30 P10 1.555217 1_555
O30 Sc0 2.112843 1_555
O31 P11 1.544941 1_555
O31 Sc1 2.029371 1_554
O32 P4 1.551375 1_555
O32 Sc7 2.114726 1_556
O33 P5 1.544548 1_555
O33 Sc6 2.102554 1_555
O34 P6 1.544548 1_555
O34 Sc5 2.102554 1_554
O35 P7 1.551375 1_555
O35 Sc4 2.114726 1_555
O36 P8 1.551375 1_555
O36 Sc3 2.114726 1_656
O37 P9 1.544548 1_555
O37 Sc2 2.102554 1_455
O38 P10 1.544548 1_555
O38 Sc1 2.102554 1_454
O39 P11 1.551375 1_555
O39 Sc0 2.114726 1_655
O40 P0 1.549761 1_455
O40 Sc0 2.123897 1_555
O41 P0 1.560102 1_555
O41 Sc1 2.139621 1_555
O42 P1 1.560102 1_555
O42 Sc2 2.139621 1_555
O43 P1 1.549761 1_455
O43 Sc3 2.123897 1_555
O44 P2 1.549761 1_555
O44 Sc4 2.123897 1_555
O45 P2 1.560102 1_555
O45 Sc5 2.139621 1_555
O46 P3 1.560102 1_555
O46 Sc6 2.139621 1_555
O47 P3 1.549761 1_555
O47 Sc7 2.123897 1_555
