# generated using pymatgen
data_Rb8Mg(FeO4)2
_symmetry_space_group_name_H-M   'P 1'
_cell_length_a   7.09404096
_cell_length_b   7.04791234
_cell_length_c   9.76899543
_cell_angle_alpha   72.03905515
_cell_angle_beta   81.42297401
_cell_angle_gamma   64.23600755
_symmetry_Int_Tables_number   1
_chemical_formula_structural   Rb8Mg(FeO4)2
_chemical_formula_sum   'Rb8 Mg1 Fe2 O8'
_cell_volume   418.37636877
_cell_formula_units_Z   1
loop_
 _symmetry_equiv_pos_site_id
 _symmetry_equiv_pos_as_xyz
  1  'x, y, z'
loop_
 _atom_site_type_symbol
 _atom_site_label
 _atom_site_symmetry_multiplicity
 _atom_site_fract_x
 _atom_site_fract_y
 _atom_site_fract_z
 _atom_site_occupancy
  Rb  Rb0  1  0.25488100  0.74762800  0.04033900  1
  Rb  Rb1  1  0.26342500  0.57269900  0.42845000  1
  Rb  Rb2  1  0.24207800  0.35964300  0.82015300  1
  Rb  Rb3  1  0.14914900  0.93255000  0.68507500  1
  Rb  Rb4  1  0.85722800  0.06427300  0.36465400  1
  Rb  Rb5  1  0.76912000  0.62721200  0.13785800  1
  Rb  Rb6  1  0.73923600  0.49419000  0.56339000  1
  Rb  Rb7  1  0.72972400  0.24681000  0.98175400  1
  Mg  Mg0  1  0.42616100  0.09515900  0.45232200  1
  Fe  Fe0  1  0.27687800  0.15441000  0.23104300  1
  Fe  Fe1  1  0.71398800  0.84786400  0.74325400  1
  O  O0  1  0.11603500  0.16867300  0.09215000  1
  O  O1  1  0.11544500  0.24385900  0.40235500  1
  O  O2  1  0.45477600  0.29965100  0.23152000  1
  O  O3  1  0.52928100  0.13269800  0.60866100  1
  O  O4  1  0.46839900  0.86667700  0.35199700  1
  O  O5  1  0.54905700  0.68185300  0.81841900  1
  O  O6  1  0.94141900  0.71028700  0.62197200  1
  O  O7  1  0.84372000  0.88386200  0.88713400  1
loop_
_geom_bond_atom_site_label_1
_geom_bond_atom_site_label_2
_geom_bond_distance
_geom_bond_site_symmetry_2
Mg0 O3 1.920528 1_555
Mg0 O4 2.027255 1_545
Mg0 O1 2.047549 1_555
Mg0 O2 2.231037 1_555
Fe0 O0 1.852305 1_555
Fe0 O2 1.941212 1_555
Fe0 O4 1.990073 1_545
Fe0 O1 1.990250 1_555
Fe1 O5 1.918613 1_555
Fe1 O7 1.922429 1_555
Fe1 O6 1.930123 1_555
Fe1 O3 2.018664 1_565
O0 Rb2 2.793443 1_554
O0 Rb7 2.860070 1_454
O0 Rb0 2.875585 1_545
O0 Rb4 3.083420 1_455
O0 Rb5 3.216872 1_455
O1 Rb4 2.756348 1_455
O1 Rb3 2.915956 1_545
O1 Rb6 3.012703 1_455
O1 Rb1 3.016244 1_555
O1 Rb5 3.439438 1_455
O2 Rb4 2.873009 1_555
O2 Rb7 2.899299 1_554
O2 Rb1 2.912128 1_555
O2 Rb0 2.954419 1_555
O3 Rb1 2.968494 1_555
O3 Rb2 2.987909 1_555
O3 Rb4 3.067012 1_555
O3 Rb6 3.363415 1_555
O4 Rb6 2.881513 1_555
O4 Rb1 2.881995 1_555
O4 Rb5 3.080902 1_555
O5 Rb0 2.774761 1_556
O5 Rb7 2.786809 1_555
O5 Rb3 2.862223 1_555
O5 Rb6 3.042191 1_555
O6 Rb6 2.717676 1_555
O6 Rb1 2.765745 1_655
O6 Rb3 2.806933 1_655
O6 Rb2 2.846650 1_655
O6 Rb4 2.860867 1_565
O7 Rb5 2.695237 1_556
O7 Rb7 2.736576 1_565
O7 Rb3 2.767975 1_655
O7 Rb0 3.106570 1_656
