# generated using pymatgen
data_MgCo6(O3F)3
_symmetry_space_group_name_H-M   'P 1'
_cell_length_a   6.74596986
_cell_length_b   5.75813421
_cell_length_c   5.56791503
_cell_angle_alpha   83.05070939
_cell_angle_beta   76.12114505
_cell_angle_gamma   71.30690516
_symmetry_Int_Tables_number   1
_chemical_formula_structural   MgCo6(O3F)3
_chemical_formula_sum   'Mg1 Co6 O9 F3'
_cell_volume   198.66194064
_cell_formula_units_Z   1
loop_
 _symmetry_equiv_pos_site_id
 _symmetry_equiv_pos_as_xyz
  1  'x, y, z'
loop_
 _atom_site_type_symbol
 _atom_site_label
 _atom_site_symmetry_multiplicity
 _atom_site_fract_x
 _atom_site_fract_y
 _atom_site_fract_z
 _atom_site_occupancy
  Mg  Mg0  1  0.83271738  0.16428238  0.66666693  1
  Co  Co0  1  0.83725475  0.66153119  0.66613986  1
  Co  Co1  1  0.33775663  0.67225456  0.65354460  1
  Co  Co2  1  0.67234872  0.41500757  0.23153117  1
  Co  Co3  1  0.18174478  0.32874645  0.32584953  1
  Co  Co4  1  0.49292613  0.98978968  0.00890257  1
  Co  Co5  1  0.00285327  0.90576358  0.09701464  1
  O  O0  1  0.64477979  0.52813122  0.57718573  1
  O  O1  1  0.29616525  0.86175118  0.92430592  1
  O  O2  1  0.95981467  0.19300960  0.28839888  1
  O  O3  1  0.37953119  0.46303045  0.39708656  1
  O  O4  1  0.02855989  0.80215711  0.74637314  1
  O  O5  1  0.71351644  0.12511060  0.04497051  1
  O  O6  1  0.36658315  0.00066362  0.31896944  1
  O  O7  1  0.68452937  0.67242956  0.00900891  1
  O  O8  1  0.98557349  0.65499456  0.32676577  1
  F  F0  1  0.32512202  0.32563999  0.96005378  1
  F  F1  1  0.61944812  0.00970521  0.65072211  1
  F  F2  1  0.03877499  0.31350150  0.70650693  1
loop_
_geom_bond_atom_site_label_1
_geom_bond_atom_site_label_2
_geom_bond_distance
_geom_bond_site_symmetry_2
Mg0 O5 2.079177 1_556
Mg0 O2 2.082955 1_555
Mg0 O4 2.140521 1_645
Mg0 O0 2.143089 1_555
Co0 O4 1.885392 1_655
Co0 O0 1.887103 1_555
Co0 O8 1.912900 1_555
Co0 O7 1.937500 1_556
Co0 F2 2.050839 1_655
Co0 F1 2.077564 1_565
Co1 O1 1.881755 1_555
Co1 O3 1.890879 1_555
Co1 O0 1.928827 1_555
Co1 O4 1.937424 1_555
Co1 F0 2.473513 1_555
Co1 O6 2.508707 1_565
Co2 O7 1.823127 1_555
Co2 O3 1.914719 1_555
Co2 O5 1.981570 1_555
Co2 O2 2.025484 1_555
Co2 O0 2.053501 1_555
Co3 O3 1.877463 1_555
Co3 O6 1.899945 1_555
Co3 O8 1.919874 1_455
Co3 O2 1.958326 1_455
Co3 F0 2.033893 1_554
Co3 F2 2.111548 1_555
Co4 O6 1.731165 1_565
Co4 O7 1.869799 1_555
Co4 O1 1.881094 1_554
Co4 F0 1.926772 1_564
Co4 O5 1.945864 1_565
Co4 F1 1.977306 1_564
Co5 O8 1.823302 1_455
Co5 O1 1.931016 1_554
Co5 O2 1.981362 1_465
Co5 O5 2.022750 1_465
Co5 O4 2.061728 1_554
F1 Mg0 1.941966 1_555
F2 Mg0 1.918169 1_455
