# generated using pymatgen
data_MgWBr4O
_symmetry_space_group_name_H-M   'P 1'
_cell_length_a   3.90649948
_cell_length_b   7.35512697
_cell_length_c   7.60688266
_cell_angle_alpha   76.23702159
_cell_angle_beta   75.27211747
_cell_angle_gamma   74.57184040
_symmetry_Int_Tables_number   1
_chemical_formula_structural   MgWBr4O
_chemical_formula_sum   'Mg1 W1 Br4 O1'
_cell_volume   200.34109761
_cell_formula_units_Z   1
loop_
 _symmetry_equiv_pos_site_id
 _symmetry_equiv_pos_as_xyz
  1  'x, y, z'
loop_
 _atom_site_type_symbol
 _atom_site_label
 _atom_site_symmetry_multiplicity
 _atom_site_fract_x
 _atom_site_fract_y
 _atom_site_fract_z
 _atom_site_occupancy
  Mg  Mg0  1  0.30006978  0.45304644  0.98333315  1
  W  W0  1  0.02505547  0.00249040  0.98185397  1
  Br  Br0  1  0.25816251  0.77985677  0.73448013  1
  Br  Br1  1  0.78613447  0.24540322  0.22219510  1
  Br  Br2  1  0.06175074  0.68455869  0.22898106  1
  Br  Br3  1  0.97196085  0.34081193  0.74714126  1
  O  O0  1  0.52043519  0.01235155  0.98164332  1
loop_
_geom_bond_atom_site_label_1
_geom_bond_atom_site_label_2
_geom_bond_distance
_geom_bond_site_symmetry_2
Br0 W0 2.617841 1_565
Br0 Mg0 2.677927 1_555
Br1 W0 2.684232 1_654
Br1 Mg0 2.849730 1_654
Br1 Mg0 2.851377 1_554
Br2 W0 2.624828 1_564
Br2 Mg0 2.654046 1_554
Br3 W0 2.687494 1_655
Br3 Mg0 2.820261 1_555
Br3 Mg0 2.827018 1_655
O0 W0 1.953653 1_655
O0 W0 1.955329 1_555
