# generated using pymatgen
data_MgCo5CuO8
_symmetry_space_group_name_H-M   'P 1'
_cell_length_a   5.94844111
_cell_length_b   6.39967474
_cell_length_c   5.79277303
_cell_angle_alpha   63.19888775
_cell_angle_beta   89.87372157
_cell_angle_gamma   122.46594150
_symmetry_Int_Tables_number   1
_chemical_formula_structural   MgCo5CuO8
_chemical_formula_sum   'Mg1 Co5 Cu1 O8'
_cell_volume   157.09149554
_cell_formula_units_Z   1
loop_
 _symmetry_equiv_pos_site_id
 _symmetry_equiv_pos_as_xyz
  1  'x, y, z'
loop_
 _atom_site_type_symbol
 _atom_site_label
 _atom_site_symmetry_multiplicity
 _atom_site_fract_x
 _atom_site_fract_y
 _atom_site_fract_z
 _atom_site_occupancy
  Mg  Mg0  1  0.12500000  0.75000000  0.12500000  1
  Co  Co0  1  0.62500000  0.25000000  0.12500000  1
  Co  Co1  1  0.95518900  0.04725600  0.97706300  1
  Co  Co2  1  0.62500000  0.25000000  0.62500000  1
  Co  Co3  1  0.29481100  0.45274400  0.27293700  1
  Co  Co4  1  0.12500000  0.75000000  0.62500000  1
  Cu  Cu0  1  0.62500000  0.75000000  0.62500000  1
  O  O0  1  0.91868600  0.30576900  0.34706300  1
  O  O1  1  0.37257900  0.19344400  0.40382200  1
  O  O2  1  0.87742100  0.30655600  0.84617800  1
  O  O3  1  0.85256700  0.72737100  0.38393200  1
  O  O4  1  0.33131400  0.19423100  0.90293700  1
  O  O5  1  0.84995400  0.72603600  0.89071200  1
  O  O6  1  0.40004600  0.77396400  0.35928800  1
  O  O7  1  0.39743300  0.77262900  0.86606800  1
loop_
_geom_bond_atom_site_label_1
_geom_bond_atom_site_label_2
_geom_bond_distance
_geom_bond_site_symmetry_2
Mg0 O0 2.047568 1_455
Mg0 O4 2.047568 1_564
Mg0 O7 2.106753 1_554
Mg0 O3 2.106753 1_455
Mg0 O6 2.114323 1_555
Mg0 O5 2.114323 1_454
Co0 O1 1.967978 1_555
Co0 O2 1.967978 1_554
Co0 O0 2.142092 1_555
Co0 O4 2.142092 1_554
Co0 O6 2.190978 1_545
Co0 O5 2.190978 1_554
Co1 O2 1.798240 1_555
Co1 O4 1.856633 1_655
Co1 O5 2.101219 1_545
Co1 O3 2.102238 1_546
Co2 O2 1.967311 1_555
Co2 O1 1.967311 1_555
Co2 O0 2.138108 1_555
Co2 O4 2.138108 1_555
Co2 O7 2.195510 1_545
Co2 O3 2.195510 1_555
Co3 O1 1.798240 1_555
Co3 O0 1.856633 1_455
Co3 O6 2.101219 1_555
Co3 O7 2.102238 1_554
Co4 O1 2.022344 1_565
Co4 O2 2.022344 1_455
Co4 O3 2.130171 1_455
Co4 O7 2.130171 1_555
Co4 O5 2.139191 1_455
Co4 O6 2.139191 1_555
Cu0 O3 2.046454 1_555
Cu0 O7 2.046454 1_555
Cu0 O5 2.049339 1_555
Cu0 O6 2.049339 1_555
Cu0 O4 2.539140 1_555
Cu0 O0 2.539140 1_565
