# generated using pymatgen
data_NaZnIn(SO4)3
_symmetry_space_group_name_H-M   'P 1'
_cell_length_a   8.76158165
_cell_length_b   8.76158136
_cell_length_c   23.08093631
_cell_angle_alpha   90.00000000
_cell_angle_beta   90.00000000
_cell_angle_gamma   120.00000104
_symmetry_Int_Tables_number   1
_chemical_formula_structural   NaZnIn(SO4)3
_chemical_formula_sum   'Na6 Zn6 In6 S18 O72'
_cell_volume   1534.43699498
_cell_formula_units_Z   6
loop_
 _symmetry_equiv_pos_site_id
 _symmetry_equiv_pos_as_xyz
  1  'x, y, z'
loop_
 _atom_site_type_symbol
 _atom_site_label
 _atom_site_symmetry_multiplicity
 _atom_site_fract_x
 _atom_site_fract_y
 _atom_site_fract_z
 _atom_site_occupancy
  Na  Na0  1  0.00000000  -0.00000000  0.49712148  1
  Na  Na1  1  0.00000000  -0.00000000  0.99712148  1
  Na  Na2  1  0.66666700  0.33333300  0.83045448  1
  Na  Na3  1  0.66666700  0.33333300  0.33045448  1
  Na  Na4  1  0.33333300  0.66666700  0.16378848  1
  Na  Na5  1  0.33333300  0.66666700  0.66378848  1
  Zn  Zn0  1  0.00000000  -0.00000000  0.34997055  1
  Zn  Zn1  1  0.00000000  -0.00000000  0.84997055  1
  Zn  Zn2  1  0.66666700  0.33333300  0.68330355  1
  Zn  Zn3  1  0.66666700  0.33333300  0.18330355  1
  Zn  Zn4  1  0.33333300  0.66666700  0.01663755  1
  Zn  Zn5  1  0.33333300  0.66666700  0.51663755  1
  In  In0  1  0.00000000  -0.00000000  0.65029381  1
  In  In1  1  0.00000000  -0.00000000  0.15029381  1
  In  In2  1  0.66666700  0.33333300  0.98362681  1
  In  In3  1  0.66666700  0.33333300  0.48362681  1
  In  In4  1  0.33333300  0.66666700  0.31696081  1
  In  In5  1  0.33333300  0.66666700  0.81696081  1
  S  S0  1  0.29711587  0.00326390  0.25101545  1
  S  S1  1  0.70614803  0.70288413  0.25101545  1
  S  S2  1  0.99673610  0.29385197  0.25101545  1
  S  S3  1  0.29711587  0.29385197  0.75101545  1
  S  S4  1  0.99673610  0.70288413  0.75101545  1
  S  S5  1  0.70614803  0.00326390  0.75101545  1
  S  S6  1  0.96378287  0.33659690  0.58434845  1
  S  S7  1  0.37281503  0.03621713  0.58434845  1
  S  S8  1  0.66340310  0.62718497  0.58434845  1
  S  S9  1  0.96378287  0.62718497  0.08434845  1
  S  S10  1  0.66340310  0.03621713  0.08434845  1
  S  S11  1  0.37281503  0.33659690  0.08434845  1
  S  S12  1  0.63044887  0.66993090  0.91768245  1
  S  S13  1  0.03948103  0.36955113  0.91768245  1
  S  S14  1  0.33006910  0.96051897  0.91768245  1
  S  S15  1  0.63044887  0.96051897  0.41768245  1
  S  S16  1  0.33006910  0.36955113  0.41768245  1
  S  S17  1  0.03948103  0.66993090  0.41768245  1
  O  O0  1  0.21249110  0.02519501  0.30261906  1
  O  O1  1  0.81270390  0.78750890  0.30261906  1
  O  O2  1  0.97480499  0.18729610  0.30261906  1
  O  O3  1  0.21249110  0.18729610  0.80261906  1
  O  O4  1  0.97480499  0.78750890  0.80261906  1
  O  O5  1  0.81270390  0.02519501  0.80261906  1
  O  O6  1  0.78029612  0.97114360  0.69739737  1
  O  O7  1  0.19084748  0.21970388  0.69739737  1
  O  O8  1  0.02885640  0.80915252  0.69739737  1
  O  O9  1  0.78029612  0.80915252  0.19739737  1
  O  O10  1  0.02885640  0.21970388  0.19739737  1
  O  O11  1  0.19084748  0.97114360  0.19739737  1
  O  O12  1  0.87915810  0.35852801  0.63595206  1
  O  O13  1  0.47937090  0.12084190  0.63595206  1
  O  O14  1  0.64147199  0.52062910  0.63595206  1
  O  O15  1  0.87915810  0.52062910  0.13595206  1
  O  O16  1  0.64147199  0.12084190  0.13595206  1
  O  O17  1  0.47937090  0.35852801  0.13595206  1
  O  O18  1  0.44696312  0.30447660  0.03073037  1
  O  O19  1  0.85751448  0.55303688  0.03073037  1
  O  O20  1  0.69552340  0.14248552  0.03073037  1
  O  O21  1  0.44696312  0.14248552  0.53073037  1
  O  O22  1  0.69552340  0.55303688  0.53073037  1
  O  O23  1  0.85751448  0.30447660  0.53073037  1
  O  O24  1  0.54582410  0.69186201  0.96928606  1
  O  O25  1  0.14603690  0.45417590  0.96928606  1
  O  O26  1  0.30813799  0.85396310  0.96928606  1
  O  O27  1  0.54582410  0.85396310  0.46928606  1
  O  O28  1  0.30813799  0.45417590  0.46928606  1
  O  O29  1  0.14603690  0.69186201  0.46928606  1
  O  O30  1  0.11362912  0.63781060  0.36406437  1
  O  O31  1  0.52418048  0.88637088  0.36406437  1
  O  O32  1  0.36218940  0.47581952  0.36406437  1
  O  O33  1  0.11362912  0.47581952  0.86406437  1
  O  O34  1  0.36218940  0.88637088  0.86406437  1
  O  O35  1  0.52418048  0.63781060  0.86406437  1
  O  O36  1  0.02146225  0.82778651  0.41128234  1
  O  O37  1  0.80632426  0.97853775  0.41128234  1
  O  O38  1  0.17221349  0.19367574  0.41128234  1
  O  O39  1  0.02146225  0.19367574  0.91128234  1
  O  O40  1  0.17221349  0.97853775  0.91128234  1
  O  O41  1  0.80632426  0.82778651  0.91128234  1
  O  O42  1  0.98136663  0.17513443  0.58855717  1
  O  O43  1  0.19376780  0.01863337  0.58855717  1
  O  O44  1  0.82486557  0.80623220  0.58855717  1
  O  O45  1  0.98136663  0.80623220  0.08855717  1
  O  O46  1  0.82486557  0.01863337  0.08855717  1
  O  O47  1  0.19376780  0.17513443  0.08855717  1
  O  O48  1  0.68812925  0.16111951  0.74461534  1
  O  O49  1  0.47299126  0.31187075  0.74461534  1
  O  O50  1  0.83888049  0.52700874  0.74461534  1
  O  O51  1  0.68812925  0.52700874  0.24461534  1
  O  O52  1  0.83888049  0.31187075  0.24461534  1
  O  O53  1  0.47299126  0.16111951  0.24461534  1
  O  O54  1  0.64803363  0.50846743  0.92189017  1
  O  O55  1  0.86043480  0.35196637  0.92189017  1
  O  O56  1  0.49153257  0.13956520  0.92189017  1
  O  O57  1  0.64803363  0.13956520  0.42189017  1
  O  O58  1  0.49153257  0.35196637  0.42189017  1
  O  O59  1  0.86043480  0.50846743  0.42189017  1
  O  O60  1  0.35479525  0.49445351  0.07794934  1
  O  O61  1  0.13965726  0.64520475  0.07794934  1
  O  O62  1  0.50554649  0.86034274  0.07794934  1
  O  O63  1  0.35479525  0.86034274  0.57794934  1
  O  O64  1  0.50554649  0.64520475  0.57794934  1
  O  O65  1  0.13965726  0.49445351  0.57794934  1
  O  O66  1  0.31469963  0.84180143  0.25522417  1
  O  O67  1  0.52710080  0.68530037  0.25522417  1
  O  O68  1  0.15819857  0.47289920  0.25522417  1
  O  O69  1  0.31469963  0.47289920  0.75522417  1
  O  O70  1  0.15819857  0.68530037  0.75522417  1
  O  O71  1  0.52710080  0.84180143  0.75522417  1
loop_
_geom_bond_atom_site_label_1
_geom_bond_atom_site_label_2
_geom_bond_distance
_geom_bond_site_symmetry_2
Na0 O38 2.553645 1_555
Na0 O36 2.553645 1_545
Na0 O37 2.553645 1_445
Na0 O44 2.661878 1_445
Na0 O42 2.661878 1_455
Na0 O43 2.661878 1_555
Na1 O39 2.553645 1_555
Na1 O41 2.553645 1_445
Na1 O40 2.553645 1_545
Na1 O45 2.661878 1_446
Na1 O47 2.661878 1_556
Na1 O46 2.661878 1_456
Na2 O50 2.553645 1_555
Na2 O48 2.553645 1_555
Na2 O49 2.553645 1_555
Na2 O56 2.661878 1_555
Na2 O54 2.661878 1_555
Na2 O55 2.661878 1_555
Na3 O51 2.553645 1_555
Na3 O53 2.553645 1_555
Na3 O52 2.553645 1_555
Na3 O57 2.661878 1_555
Na3 O59 2.661878 1_555
Na3 O58 2.661878 1_555
Na4 O62 2.553645 1_555
Na4 O60 2.553645 1_555
Na4 O61 2.553645 1_555
Na4 O68 2.661878 1_555
Na4 O66 2.661878 1_555
Na4 O67 2.661878 1_555
Na5 O63 2.553645 1_555
Na5 O65 2.553645 1_555
Na5 O64 2.553645 1_555
Na5 O69 2.661878 1_555
Na5 O71 2.661878 1_555
Na5 O70 2.661878 1_555
In0 O7 2.112978 1_555
In0 O8 2.112978 1_545
In0 O6 2.112978 1_445
In0 O44 2.159205 1_445
In0 O42 2.159205 1_455
In0 O43 2.159205 1_555
In1 O10 2.112978 1_555
In1 O9 2.112978 1_445
In1 O11 2.112978 1_545
In1 O45 2.159205 1_445
In1 O47 2.159205 1_555
In1 O46 2.159205 1_455
In2 O19 2.112978 1_556
In2 O20 2.112978 1_556
In2 O18 2.112978 1_556
In2 O56 2.159205 1_555
In2 O54 2.159205 1_555
In2 O55 2.159205 1_555
In3 O22 2.112978 1_555
In3 O21 2.112978 1_555
In3 O23 2.112978 1_555
In3 O57 2.159205 1_555
In3 O59 2.159205 1_555
In3 O58 2.159205 1_555
In4 O31 2.112978 1_555
In4 O32 2.112978 1_555
In4 O30 2.112978 1_555
In4 O68 2.159205 1_555
In4 O66 2.159205 1_555
In4 O67 2.159205 1_555
In5 O34 2.112978 1_555
In5 O33 2.112978 1_555
In5 O35 2.112978 1_555
In5 O69 2.159205 1_555
In5 O71 2.159205 1_555
In5 O70 2.159205 1_555
O0 S0 1.465523 1_555
O0 Zn0 2.073249 1_555
O1 S1 1.465523 1_555
O1 Zn0 2.073249 1_665
O2 S2 1.465523 1_555
O2 Zn0 2.073249 1_655
O3 S3 1.465523 1_555
O3 Zn1 2.073249 1_555
O4 S4 1.465523 1_555
O4 Zn1 2.073249 1_665
O5 S5 1.465523 1_555
O5 Zn1 2.073249 1_655
O6 S5 1.488497 1_565
O7 S3 1.488497 1_555
O8 S4 1.488497 1_455
O9 S1 1.488497 1_555
O10 S2 1.488497 1_455
O11 S0 1.488497 1_565
O12 S6 1.465523 1_555
O12 Zn2 2.073249 1_555
O13 S7 1.465523 1_555
O13 Zn2 2.073249 1_555
O14 S8 1.465523 1_555
O14 Zn2 2.073249 1_555
O15 S9 1.465523 1_555
O15 Zn3 2.073249 1_555
O16 S10 1.465523 1_555
O16 Zn3 2.073249 1_555
O17 S11 1.465523 1_555
O17 Zn3 2.073249 1_555
O18 S11 1.488497 1_555
O19 S9 1.488497 1_555
O20 S10 1.488497 1_555
O21 S7 1.488497 1_555
O22 S8 1.488497 1_555
O23 S6 1.488497 1_555
O24 S12 1.465523 1_555
O24 Zn4 2.073249 1_556
O25 S13 1.465523 1_555
O25 Zn4 2.073249 1_556
O26 S14 1.465523 1_555
O26 Zn4 2.073249 1_556
O27 S15 1.465523 1_555
O27 Zn5 2.073249 1_555
O28 S16 1.465523 1_555
O28 Zn5 2.073249 1_555
O29 S17 1.465523 1_555
O29 Zn5 2.073249 1_555
O30 S17 1.488497 1_555
O31 S15 1.488497 1_555
O32 S16 1.488497 1_555
O33 S13 1.488497 1_555
O34 S14 1.488497 1_555
O35 S12 1.488497 1_555
O36 S17 1.475792 1_555
O36 Zn0 2.144379 1_565
O37 S15 1.475801 1_555
O37 Zn0 2.144379 1_665
O38 S16 1.475797 1_555
O38 Zn0 2.144379 1_555
O39 S13 1.475801 1_555
O39 Zn1 2.144379 1_555
O40 S14 1.475792 1_555
O40 Zn1 2.144379 1_565
O41 S12 1.475797 1_555
O41 Zn1 2.144379 1_665
O42 S6 1.500799 1_555
O43 S7 1.500808 1_555
O44 S8 1.500804 1_555
O45 S9 1.500808 1_555
O46 S10 1.500799 1_555
O47 S11 1.500804 1_555
O48 S5 1.475792 1_555
O48 Zn2 2.144379 1_555
O49 S3 1.475801 1_555
O49 Zn2 2.144379 1_555
O50 S4 1.475797 1_555
O50 Zn2 2.144379 1_555
O51 S1 1.475801 1_555
O51 Zn3 2.144379 1_555
O52 S2 1.475792 1_555
O52 Zn3 2.144379 1_555
O53 S0 1.475797 1_555
O53 Zn3 2.144379 1_555
O54 S12 1.500812 1_555
O55 S13 1.500794 1_655
O56 S14 1.500801 1_545
O57 S15 1.500794 1_545
O58 S16 1.500812 1_555
O59 S17 1.500802 1_655
O60 S11 1.475803 1_555
O60 Zn4 2.144379 1_555
O61 S9 1.475786 1_455
O61 Zn4 2.144379 1_555
O62 S10 1.475793 1_565
O62 Zn4 2.144379 1_555
O63 S7 1.475786 1_565
O63 Zn5 2.144379 1_555
O64 S8 1.475803 1_555
O64 Zn5 2.144379 1_555
O65 S6 1.475793 1_455
O65 Zn5 2.144379 1_555
O66 S0 1.500799 1_565
O67 S1 1.500808 1_555
O68 S2 1.500804 1_455
O69 S3 1.500808 1_555
O70 S4 1.500799 1_455
O71 S5 1.500804 1_565
