# generated using pymatgen
data_AuI
_symmetry_space_group_name_H-M   'P 1'
_cell_length_a   4.40940418
_cell_length_b   4.40940418
_cell_length_c   14.20061993
_cell_angle_alpha   90.00000000
_cell_angle_beta   90.00000000
_cell_angle_gamma   90.00000000
_symmetry_Int_Tables_number   1
_chemical_formula_structural   AuI
_chemical_formula_sum   'Au4 I4'
_cell_volume   276.10045536
_cell_formula_units_Z   4
loop_
 _symmetry_equiv_pos_site_id
 _symmetry_equiv_pos_as_xyz
  1  'x, y, z'
loop_
 _atom_site_type_symbol
 _atom_site_label
 _atom_site_symmetry_multiplicity
 _atom_site_fract_x
 _atom_site_fract_y
 _atom_site_fract_z
 _atom_site_occupancy
  Au  Au0  1  0.50000000  0.50000000  -0.00000000  1
  Au  Au1  1  -0.00000000  0.50000000  0.50000000  1
  Au  Au2  1  0.50000000  0.00000000  0.50000000  1
  Au  Au3  1  0.00000000  -0.00000000  -0.00000000  1
  I  I0  1  0.75000000  0.75000000  0.85190433  1
  I  I1  1  0.75000000  0.75000000  0.35190433  1
  I  I2  1  0.25000000  0.25000000  0.64809567  1
  I  I3  1  0.25000000  0.25000000  0.14809567  1
loop_
_geom_bond_atom_site_label_1
_geom_bond_atom_site_label_2
_geom_bond_distance
_geom_bond_site_symmetry_2
Au0 I0 2.617857 1_554
Au0 I3 2.617857 1_555
Au1 I2 2.617857 1_555
Au1 I1 2.617857 1_455
Au2 I2 2.617857 1_555
Au2 I1 2.617857 1_545
Au3 I0 2.617857 1_444
Au3 I3 2.617857 1_555
