# generated using pymatgen
data_MgCo(WO4)2
_symmetry_space_group_name_H-M   'P 1'
_cell_length_a   5.02019630
_cell_length_b   5.79519913
_cell_length_c   6.23600368
_cell_angle_alpha   82.43949899
_cell_angle_beta   86.68580909
_cell_angle_gamma   118.66096534
_symmetry_Int_Tables_number   1
_chemical_formula_structural   MgCo(WO4)2
_chemical_formula_sum   'Mg1 Co1 W2 O8'
_cell_volume   156.27878263
_cell_formula_units_Z   1
loop_
 _symmetry_equiv_pos_site_id
 _symmetry_equiv_pos_as_xyz
  1  'x, y, z'
loop_
 _atom_site_type_symbol
 _atom_site_label
 _atom_site_symmetry_multiplicity
 _atom_site_fract_x
 _atom_site_fract_y
 _atom_site_fract_z
 _atom_site_occupancy
  Mg  Mg0  1  0.50000000  -0.00000000  0.50000000  1
  Co  Co0  1  0.50000000  -0.00000000  0.00000000  1
  W  W0  1  0.24174317  0.42552507  0.70941381  1
  W  W1  1  0.75825783  0.57447593  0.29058619  1
  O  O0  1  0.65086293  0.72380463  0.52588088  1
  O  O1  1  0.17524976  0.76229915  0.30581304  1
  O  O2  1  0.26366793  0.73459225  0.79217385  1
  O  O3  1  0.30477888  0.24473553  0.93398144  1
  O  O4  1  0.34913707  0.27619537  0.47411812  1
  O  O5  1  0.82475124  0.23770185  0.69418696  1
  O  O6  1  0.69522212  0.75526547  0.06601756  1
  O  O7  1  0.73633307  0.26540875  0.20782615  1
loop_
_geom_bond_atom_site_label_1
_geom_bond_atom_site_label_2
_geom_bond_distance
_geom_bond_site_symmetry_2
Mg0 O4 2.066539 1_555
Mg0 O0 2.066539 1_545
Mg0 O2 2.086902 1_545
Mg0 O7 2.086905 1_555
Mg0 O1 2.129513 1_545
Mg0 O5 2.129518 1_555
Co0 O6 2.089948 1_545
Co0 O3 2.089950 1_554
Co0 O2 2.098767 1_544
Co0 O7 2.098772 1_555
Co0 O1 2.233222 1_545
Co0 O5 2.233225 1_554
O0 W1 1.970474 1_555
O0 W0 2.078044 1_555
O1 W1 1.854852 1_455
O2 W0 1.883410 1_555
O3 W0 1.772614 1_555
O4 W0 1.970481 1_555
O4 W1 2.078046 1_555
O5 W0 1.854852 1_655
O6 W1 1.772618 1_555
O7 W1 1.883410 1_555
