# generated using pymatgen
data_Ba5(GaS4)2
_symmetry_space_group_name_H-M   'P 1'
_cell_length_a   12.93405243
_cell_length_b   12.93405243
_cell_length_c   12.02954700
_cell_angle_alpha   90.00000000
_cell_angle_beta   90.00000000
_cell_angle_gamma   123.30877270
_symmetry_Int_Tables_number   1
_chemical_formula_structural   Ba5(GaS4)2
_chemical_formula_sum   'Ba20 Ga8 S32'
_cell_volume   1681.82580649
_cell_formula_units_Z   4
loop_
 _symmetry_equiv_pos_site_id
 _symmetry_equiv_pos_as_xyz
  1  'x, y, z'
loop_
 _atom_site_type_symbol
 _atom_site_label
 _atom_site_symmetry_multiplicity
 _atom_site_fract_x
 _atom_site_fract_y
 _atom_site_fract_z
 _atom_site_occupancy
  Ba  Ba0  1  0.00718100  0.50718100  0.75000000  1
  Ba  Ba1  1  0.49281900  0.99281900  0.25000000  1
  Ba  Ba2  1  0.99281900  0.49281900  0.25000000  1
  Ba  Ba3  1  0.50718100  0.00718100  0.75000000  1
  Ba  Ba4  1  0.06404900  0.25967700  0.50502000  1
  Ba  Ba5  1  0.43595100  0.24032300  0.00502000  1
  Ba  Ba6  1  0.75967700  0.56404900  0.99498000  1
  Ba  Ba7  1  0.74032300  0.93595100  0.49498000  1
  Ba  Ba8  1  0.93595100  0.74032300  0.49498000  1
  Ba  Ba9  1  0.56404900  0.75967700  0.99498000  1
  Ba  Ba10  1  0.24032300  0.43595100  0.00502000  1
  Ba  Ba11  1  0.25967700  0.06404900  0.50502000  1
  Ba  Ba12  1  0.39413100  0.59704400  0.34041800  1
  Ba  Ba13  1  0.10586900  0.90295600  0.84041800  1
  Ba  Ba14  1  0.09704400  0.89413100  0.15958200  1
  Ba  Ba15  1  0.40295600  0.60586900  0.65958200  1
  Ba  Ba16  1  0.60586900  0.40295600  0.65958200  1
  Ba  Ba17  1  0.89413100  0.09704400  0.15958200  1
  Ba  Ba18  1  0.90295600  0.10586900  0.84041800  1
  Ba  Ba19  1  0.59704400  0.39413100  0.34041800  1
  Ga  Ga0  1  0.75020200  0.24979800  0.50000000  1
  Ga  Ga1  1  0.74979800  0.25020200  0.00000000  1
  Ga  Ga2  1  0.24979800  0.75020200  0.50000000  1
  Ga  Ga3  1  0.25020200  0.74979800  0.00000000  1
  Ga  Ga4  1  0.18746900  0.18746900  0.23252500  1
  Ga  Ga5  1  0.31253100  0.31253100  0.73252500  1
  Ga  Ga6  1  0.68746900  0.68746900  0.26747500  1
  Ga  Ga7  1  0.81253100  0.81253100  0.76747500  1
  S  S0  1  0.14483900  0.14483900  0.04121600  1
  S  S1  1  0.35516100  0.35516100  0.54121600  1
  S  S2  1  0.64483900  0.64483900  0.45878400  1
  S  S3  1  0.85516100  0.85516100  0.95878400  1
  S  S4  1  0.83598500  0.65244600  0.74192200  1
  S  S5  1  0.66401500  0.84755400  0.24192200  1
  S  S6  1  0.15244600  0.33598500  0.75807800  1
  S  S7  1  0.34755400  0.16401500  0.25807800  1
  S  S8  1  0.16401500  0.34755400  0.25807800  1
  S  S9  1  0.33598500  0.15244600  0.75807800  1
  S  S10  1  0.84755400  0.66401500  0.24192200  1
  S  S11  1  0.65244600  0.83598500  0.74192200  1
  S  S12  1  0.95931900  0.33527800  0.00341900  1
  S  S13  1  0.54068100  0.16472200  0.50341900  1
  S  S14  1  0.03081500  0.03081500  0.34813900  1
  S  S15  1  0.83527800  0.45931900  0.49658100  1
  S  S16  1  0.04068100  0.66472200  0.99658100  1
  S  S17  1  0.45931900  0.83527800  0.49658100  1
  S  S18  1  0.16472200  0.54068100  0.50341900  1
  S  S19  1  0.33527800  0.95931900  0.00341900  1
  S  S20  1  0.81275800  0.18646600  0.35218600  1
  S  S21  1  0.68724200  0.31353400  0.85218600  1
  S  S22  1  0.68646600  0.31275800  0.14781400  1
  S  S23  1  0.81353400  0.18724200  0.64781400  1
  S  S24  1  0.18724200  0.81353400  0.64781400  1
  S  S25  1  0.31275800  0.68646600  0.14781400  1
  S  S26  1  0.31353400  0.68724200  0.85218600  1
  S  S27  1  0.18646600  0.81275800  0.35218600  1
  S  S28  1  0.96918500  0.96918500  0.65186100  1
  S  S29  1  0.53081500  0.53081500  0.15186100  1
  S  S30  1  0.46918500  0.46918500  0.84813900  1
  S  S31  1  0.66472200  0.04068100  0.99658100  1
loop_
_geom_bond_atom_site_label_1
_geom_bond_atom_site_label_2
_geom_bond_distance
_geom_bond_site_symmetry_2
Ba0 S16 3.488371 1_555
Ba0 S18 3.488371 1_555
Ba0 S24 3.535564 1_555
Ba0 S26 3.535564 1_555
Ba0 S6 3.607183 1_555
Ba0 S4 3.607183 1_455
Ba0 S15 3.620565 1_455
Ba0 S12 3.620565 1_456
Ba0 S21 3.677622 1_455
Ba0 S23 3.677622 1_455
Ba1 S17 3.488371 1_555
Ba1 S19 3.488371 1_555
Ba1 S27 3.535564 1_555
Ba1 S25 3.535564 1_555
Ba1 S5 3.607183 1_555
Ba1 S7 3.607183 1_565
Ba1 S31 3.620565 1_564
Ba1 S13 3.620565 1_565
Ba1 S20 3.677622 1_565
Ba1 S22 3.677622 1_565
Ba2 S15 3.488371 1_555
Ba2 S12 3.488371 1_555
Ba2 S22 3.535564 1_555
Ba2 S20 3.535564 1_555
Ba2 S10 3.607183 1_555
Ba2 S8 3.607183 1_655
Ba2 S18 3.620565 1_655
Ba2 S16 3.620565 1_654
Ba2 S27 3.677622 1_655
Ba2 S25 3.677622 1_655
Ba3 S31 3.488371 1_555
Ba3 S13 3.488371 1_555
Ba3 S23 3.535564 1_555
Ba3 S21 3.535564 1_555
Ba3 S9 3.607183 1_555
Ba3 S11 3.607183 1_545
Ba3 S17 3.620565 1_545
Ba3 S19 3.620565 1_546
Ba3 S24 3.677622 1_545
Ba3 S26 3.677622 1_545
Ba4 S18 3.115740 1_555
Ba4 S8 3.189678 1_555
Ba4 S6 3.210755 1_555
Ba4 S1 3.284020 1_555
Ba4 S23 3.315579 1_455
Ba4 S14 3.333333 1_555
Ba4 S20 3.385332 1_455
Ba4 S28 3.698564 1_445
Ba5 S19 3.115740 1_545
Ba5 S9 3.189678 1_554
Ba5 S7 3.210755 1_555
Ba5 S0 3.284020 1_555
Ba5 S22 3.315579 1_555
Ba5 S30 3.333333 1_554
Ba5 S21 3.385332 1_554
Ba5 S29 3.698564 1_555
Ba6 S16 3.115740 1_655
Ba6 S10 3.189678 1_556
Ba6 S4 3.210755 1_555
Ba6 S3 3.284020 1_555
Ba6 S21 3.315579 1_555
Ba6 S29 3.333333 1_556
Ba6 S22 3.385332 1_556
Ba6 S30 3.698564 1_555
Ba7 S17 3.115740 1_555
Ba7 S11 3.189678 1_555
Ba7 S5 3.210755 1_555
Ba7 S2 3.284020 1_555
Ba7 S20 3.315579 1_565
Ba7 S28 3.333333 1_555
Ba7 S23 3.385332 1_565
Ba7 S14 3.698564 1_665
Ba8 S15 3.115740 1_555
Ba8 S4 3.189678 1_555
Ba8 S10 3.210755 1_555
Ba8 S2 3.284020 1_555
Ba8 S27 3.315579 1_655
Ba8 S28 3.333333 1_555
Ba8 S24 3.385332 1_655
Ba8 S14 3.698564 1_665
Ba9 S31 3.115740 1_565
Ba9 S5 3.189678 1_556
Ba9 S11 3.210755 1_555
Ba9 S3 3.284020 1_555
Ba9 S26 3.315579 1_555
Ba9 S29 3.333333 1_556
Ba9 S25 3.385332 1_556
Ba9 S30 3.698564 1_555
Ba10 S12 3.115740 1_455
Ba10 S6 3.189678 1_554
Ba10 S8 3.210755 1_555
Ba10 S0 3.284020 1_555
Ba10 S25 3.315579 1_555
Ba10 S30 3.333333 1_554
Ba10 S26 3.385332 1_554
Ba10 S29 3.698564 1_555
Ba11 S13 3.115740 1_555
Ba11 S7 3.189678 1_555
Ba11 S9 3.210755 1_555
Ba11 S1 3.284020 1_555
Ba11 S24 3.315579 1_545
Ba11 S14 3.333333 1_555
Ba11 S27 3.385332 1_545
Ba11 S28 3.698564 1_445
Ba12 S25 3.024992 1_555
Ba12 S8 3.115150 1_555
Ba12 S29 3.266099 1_555
Ba12 S2 3.274585 1_555
Ba12 S18 3.287062 1_555
Ba12 S17 3.298655 1_555
Ba12 Ga6 3.414537 1_555
Ba12 S5 3.415422 1_555
Ba12 S1 3.760919 1_555
Ba13 S24 3.024992 1_555
Ba13 S9 3.115150 1_565
Ba13 S28 3.266099 1_455
Ba13 S3 3.274585 1_455
Ba13 S19 3.287062 1_556
Ba13 S16 3.298655 1_555
Ba13 Ga7 3.414537 1_455
Ba13 S4 3.415422 1_455
Ba13 S0 3.760919 1_566
Ba14 S27 3.024992 1_555
Ba14 S10 3.115150 1_455
Ba14 S14 3.266099 1_565
Ba14 S0 3.274585 1_565
Ba14 S16 3.287062 1_554
Ba14 S19 3.298655 1_555
Ba14 Ga4 3.414537 1_565
Ba14 S7 3.415422 1_565
Ba14 S3 3.760919 1_454
Ba15 S26 3.024992 1_555
Ba15 S11 3.115150 1_555
Ba15 S30 3.266099 1_555
Ba15 S1 3.274585 1_555
Ba15 S17 3.287062 1_555
Ba15 S18 3.298655 1_555
Ba15 Ga5 3.414537 1_555
Ba15 S6 3.415422 1_555
Ba15 S2 3.760919 1_555
Ba16 S21 3.024992 1_555
Ba16 S4 3.115150 1_555
Ba16 S30 3.266099 1_555
Ba16 S1 3.274585 1_555
Ba16 S15 3.287062 1_555
Ba16 S13 3.298655 1_555
Ba16 Ga5 3.414537 1_555
Ba16 S9 3.415422 1_555
Ba16 S2 3.760919 1_555
Ba17 S20 3.024992 1_555
Ba17 S5 3.115150 1_545
Ba17 S14 3.266099 1_655
Ba17 S0 3.274585 1_655
Ba17 S31 3.287062 1_554
Ba17 S12 3.298655 1_555
Ba17 Ga4 3.414537 1_655
Ba17 S8 3.415422 1_655
Ba17 S3 3.760919 1_544
Ba18 S23 3.024992 1_555
Ba18 S6 3.115150 1_655
Ba18 S28 3.266099 1_545
Ba18 S3 3.274585 1_545
Ba18 S12 3.287062 1_556
Ba18 S31 3.298655 1_555
Ba18 Ga7 3.414537 1_545
Ba18 S11 3.415422 1_545
Ba18 S0 3.760919 1_656
Ba19 S22 3.024992 1_555
Ba19 S7 3.115150 1_555
Ba19 S29 3.266099 1_555
Ba19 S2 3.274585 1_555
Ba19 S13 3.287062 1_555
Ba19 S15 3.298655 1_555
Ba19 Ga6 3.414537 1_555
Ba19 S10 3.415422 1_555
Ba19 S1 3.760919 1_555
Ga0 S23 2.283708 1_555
Ga0 S20 2.283708 1_555
Ga0 S15 2.298102 1_555
Ga0 S13 2.298102 1_555
Ga1 S22 2.283708 1_555
Ga1 S21 2.283708 1_554
Ga1 S31 2.298102 1_554
Ga1 S12 2.298102 1_555
Ga2 S24 2.283708 1_555
Ga2 S27 2.283708 1_555
Ga2 S17 2.298102 1_555
Ga2 S18 2.298102 1_555
Ga3 S25 2.283708 1_555
Ga3 S26 2.283708 1_554
Ga3 S16 2.298102 1_554
Ga3 S19 2.298102 1_555
Ga4 S8 2.272342 1_555
Ga4 S7 2.272342 1_555
Ga4 S0 2.360168 1_555
Ga4 S14 2.374044 1_555
Ga5 S6 2.272342 1_555
Ga5 S9 2.272342 1_555
Ga5 S1 2.360168 1_555
Ga5 S30 2.374044 1_555
Ga6 S10 2.272342 1_555
Ga6 S5 2.272342 1_555
Ga6 S2 2.360168 1_555
Ga6 S29 2.374044 1_555
Ga7 S4 2.272342 1_555
Ga7 S11 2.272342 1_555
Ga7 S3 2.360168 1_555
Ga7 S28 2.374044 1_555
