# generated using pymatgen
data_ZnGeN2
_symmetry_space_group_name_H-M   'P 1'
_cell_length_a   5.19331949
_cell_length_b   5.45279706
_cell_length_c   6.43529302
_cell_angle_alpha   90.00000000
_cell_angle_beta   90.00000000
_cell_angle_gamma   90.00000000
_symmetry_Int_Tables_number   1
_chemical_formula_structural   ZnGeN2
_chemical_formula_sum   'Zn4 Ge4 N8'
_cell_volume   182.23538226
_cell_formula_units_Z   4
loop_
 _symmetry_equiv_pos_site_id
 _symmetry_equiv_pos_as_xyz
  1  'x, y, z'
loop_
 _atom_site_type_symbol
 _atom_site_label
 _atom_site_symmetry_multiplicity
 _atom_site_fract_x
 _atom_site_fract_y
 _atom_site_fract_z
 _atom_site_occupancy
  Zn  Zn0  1  -0.00068511  0.58333260  0.87544055  1
  Zn  Zn1  1  0.49931489  0.91666740  0.37544055  1
  Zn  Zn2  1  0.49931489  0.41666740  0.12455945  1
  Zn  Zn3  1  -0.00068511  0.08333260  0.62455945  1
  Ge  Ge0  1  0.00025634  0.07679674  0.12541457  1
  Ge  Ge1  1  0.50025634  0.92320326  0.87458543  1
  Ge  Ge2  1  0.50025634  0.42320326  0.62541457  1
  Ge  Ge3  1  0.00025634  0.57679674  0.37458543  1
  N  N0  1  0.39242572  0.59769245  0.85963172  1
  N  N1  1  0.89242572  0.40230755  0.14036828  1
  N  N2  1  0.89242572  0.90230755  0.35963172  1
  N  N3  1  0.39242572  0.09769245  0.64036828  1
  N  N4  1  0.35900305  0.56612759  0.39008105  1
  N  N5  1  0.35900305  0.06612759  0.10991895  1
  N  N6  1  0.85900305  0.93387241  0.89008105  1
  N  N7  1  0.85900305  0.43387241  0.60991895  1
loop_
_geom_bond_atom_site_label_1
_geom_bond_atom_site_label_2
_geom_bond_distance
_geom_bond_site_symmetry_2
Ge0 N6 1.854461 1_444
Ge0 N1 1.863676 1_455
Ge0 N5 1.866660 1_555
Ge0 N2 1.868337 1_445
Ge1 N5 1.854461 1_566
Ge1 N0 1.863676 1_555
Ge1 N6 1.866660 1_555
Ge1 N3 1.868337 1_565
Ge2 N4 1.854461 1_555
Ge2 N3 1.863676 1_555
Ge2 N7 1.866660 1_555
Ge2 N0 1.868337 1_555
Ge3 N7 1.854461 1_455
Ge3 N2 1.863676 1_455
Ge3 N4 1.866660 1_555
Ge3 N1 1.868337 1_455
N0 Zn0 2.045583 1_555
N0 Zn2 2.046739 1_556
N1 Zn2 2.045583 1_555
N1 Zn0 2.046739 1_654
N2 Zn1 2.045583 1_555
N2 Zn3 2.046739 1_665
N3 Zn3 2.045583 1_555
N3 Zn1 2.046739 1_545
N4 Zn2 2.028510 1_555
N4 Zn1 2.047778 1_555
N5 Zn1 2.028510 1_545
N5 Zn2 2.047778 1_555
N6 Zn3 2.028510 1_665
N6 Zn0 2.047778 1_655
N7 Zn0 2.028510 1_655
N7 Zn3 2.047778 1_655
