# generated using pymatgen
data_Nd2NCl3
_symmetry_space_group_name_H-M   'P 1'
_cell_length_a   6.26969160
_cell_length_b   6.87577102
_cell_length_c   13.47528253
_cell_angle_alpha   90.00000000
_cell_angle_beta   90.00000000
_cell_angle_gamma   90.00000000
_symmetry_Int_Tables_number   1
_chemical_formula_structural   Nd2NCl3
_chemical_formula_sum   'Nd8 N4 Cl12'
_cell_volume   580.90546688
_cell_formula_units_Z   4
loop_
 _symmetry_equiv_pos_site_id
 _symmetry_equiv_pos_as_xyz
  1  'x, y, z'
loop_
 _atom_site_type_symbol
 _atom_site_label
 _atom_site_symmetry_multiplicity
 _atom_site_fract_x
 _atom_site_fract_y
 _atom_site_fract_z
 _atom_site_occupancy
  Nd  Nd0  1  0.00583609  0.32396133  0.40796034  1
  Nd  Nd1  1  0.50583609  0.17603867  0.09203966  1
  Nd  Nd2  1  0.49416391  0.32396133  0.59203966  1
  Nd  Nd3  1  0.99416391  0.17603867  0.90796034  1
  Nd  Nd4  1  0.99416391  0.67603867  0.59203966  1
  Nd  Nd5  1  0.49416391  0.82396133  0.90796034  1
  Nd  Nd6  1  0.50583609  0.67603867  0.40796034  1
  Nd  Nd7  1  0.00583609  0.82396133  0.09203966  1
  N  N0  1  0.75000000  0.49241902  0.50000000  1
  N  N1  1  0.25000000  0.00758098  0.00000000  1
  N  N2  1  0.25000000  0.50758098  0.50000000  1
  N  N3  1  0.75000000  0.99241902  0.00000000  1
  Cl  Cl0  1  0.10381896  0.36096433  0.71804612  1
  Cl  Cl1  1  0.60381896  0.13903567  0.78195388  1
  Cl  Cl2  1  0.39618104  0.36096433  0.28195388  1
  Cl  Cl3  1  0.89618104  0.13903567  0.21804612  1
  Cl  Cl4  1  0.75000000  0.50174259  0.00000000  1
  Cl  Cl5  1  0.25000000  0.99825741  0.50000000  1
  Cl  Cl6  1  0.25000000  0.49825741  0.00000000  1
  Cl  Cl7  1  0.75000000  0.00174259  0.50000000  1
  Cl  Cl8  1  0.10381896  0.86096433  0.78195388  1
  Cl  Cl9  1  0.60381896  0.63903567  0.71804612  1
  Cl  Cl10  1  0.39618104  0.86096433  0.21804612  1
  Cl  Cl11  1  0.89618104  0.63903567  0.28195388  1
loop_
_geom_bond_atom_site_label_1
_geom_bond_atom_site_label_2
_geom_bond_distance
_geom_bond_site_symmetry_2
N0 Nd2 2.335104 1_555
N0 Nd0 2.335104 1_655
N0 Nd6 2.340014 1_555
N0 Nd4 2.340014 1_555
N1 Nd1 2.335104 1_555
N1 Nd3 2.335104 1_454
N1 Nd5 2.340014 1_544
N1 Nd7 2.340014 1_545
N2 Nd4 2.335104 1_455
N2 Nd6 2.335104 1_555
N2 Nd2 2.340014 1_555
N2 Nd0 2.340014 1_555
N3 Nd5 2.335104 1_554
N3 Nd7 2.335104 1_655
N3 Nd3 2.340014 1_564
N3 Nd1 2.340014 1_565
Cl0 Nd4 2.837071 1_455
Cl0 Nd3 2.939154 1_455
Cl0 Nd2 2.989536 1_555
Cl1 Nd5 2.837071 1_545
Cl1 Nd2 2.939154 1_555
Cl1 Nd3 2.989536 1_555
Cl2 Nd6 2.837071 1_555
Cl2 Nd1 2.939154 1_555
Cl2 Nd0 2.989536 1_555
Cl3 Nd7 2.837071 1_645
Cl3 Nd0 2.939154 1_655
Cl3 Nd1 2.989536 1_555
Cl4 Nd3 2.982767 1_554
Cl4 Nd1 2.982767 1_555
Cl4 Nd5 3.003257 1_554
Cl4 Nd7 3.003257 1_655
Cl5 Nd2 2.982767 1_565
Cl5 Nd0 2.982767 1_565
Cl5 Nd6 3.003257 1_555
Cl5 Nd4 3.003257 1_455
Cl6 Nd5 2.982767 1_554
Cl6 Nd7 2.982767 1_555
Cl6 Nd3 3.003257 1_454
Cl6 Nd1 3.003257 1_555
Cl7 Nd4 2.982767 1_545
Cl7 Nd6 2.982767 1_545
Cl7 Nd2 3.003257 1_555
Cl7 Nd0 3.003257 1_655
Cl8 Nd3 2.837071 1_465
Cl8 Nd4 2.939154 1_455
Cl8 Nd5 2.989536 1_555
Cl9 Nd2 2.837071 1_555
Cl9 Nd5 2.939154 1_555
Cl9 Nd4 2.989536 1_555
Cl10 Nd1 2.837071 1_565
Cl10 Nd6 2.939154 1_555
Cl10 Nd7 2.989536 1_555
Cl11 Nd0 2.837071 1_655
Cl11 Nd7 2.939154 1_655
Cl11 Nd6 2.989536 1_555
