# generated using pymatgen
data_Tb2Mg(NiO3)2
_symmetry_space_group_name_H-M   'P 1'
_cell_length_a   5.68866989
_cell_length_b   5.69002279
_cell_length_c   5.95876393
_cell_angle_alpha   53.82870474
_cell_angle_beta   58.79328305
_cell_angle_gamma   72.95557466
_symmetry_Int_Tables_number   1
_chemical_formula_structural   Tb2Mg(NiO3)2
_chemical_formula_sum   'Tb2 Mg1 Ni2 O6'
_cell_volume   133.14939386
_cell_formula_units_Z   1
loop_
 _symmetry_equiv_pos_site_id
 _symmetry_equiv_pos_as_xyz
  1  'x, y, z'
loop_
 _atom_site_type_symbol
 _atom_site_label
 _atom_site_symmetry_multiplicity
 _atom_site_fract_x
 _atom_site_fract_y
 _atom_site_fract_z
 _atom_site_occupancy
  Tb  Tb0  1  0.31876035  0.10825754  0.25941928  1
  Tb  Tb1  1  0.67917069  0.80927389  0.79751975  1
  Mg  Mg0  1  0.05854230  0.68069560  0.18584168  1
  Ni  Ni0  1  0.92720061  0.24851080  0.86248308  1
  Ni  Ni1  1  0.49400790  0.45836370  0.53345258  1
  O  O0  1  0.08384014  0.66582486  0.52689764  1
  O  O1  1  0.36304602  0.59095838  0.85065784  1
  O  O2  1  0.71122354  0.84216625  0.14864146  1
  O  O3  1  0.28003041  0.07811411  0.90740336  1
  O  O4  1  0.63096535  0.32555932  0.21614282  1
  O  O5  1  0.91571269  0.25477554  0.52404050  1
loop_
_geom_bond_atom_site_label_1
_geom_bond_atom_site_label_2
_geom_bond_distance
_geom_bond_site_symmetry_2
Mg0 O2 1.986520 1_455
Mg0 O0 2.061783 1_555
Mg0 O5 2.070574 1_455
Mg0 O1 2.085803 1_554
Mg0 O3 2.128184 1_564
Ni0 O5 2.030509 1_555
Ni0 O3 2.037116 1_655
Ni0 O0 2.054295 1_655
Ni0 O4 2.109614 1_556
Ni0 O2 2.145584 1_546
Ni1 O3 2.042184 1_555
Ni1 O2 2.070941 1_555
Ni1 O4 2.137273 1_555
Ni1 O1 2.142783 1_555
Ni1 O0 2.294486 1_555
Ni1 O5 2.325543 1_555
O0 Tb1 2.274062 1_455
O0 Tb0 2.385911 1_565
O1 Tb1 2.265521 1_555
O1 Tb0 2.326558 1_556
O2 Tb1 2.307239 1_554
O2 Tb0 2.320249 1_565
O3 Tb0 2.324548 1_556
O3 Tb1 2.351551 1_545
O4 Tb0 2.277273 1_555
O4 Tb1 2.345718 1_554
O5 Tb0 2.263427 1_655
O5 Tb1 2.396508 1_545
