# generated using pymatgen
data_NaY2Ge2P3(SO8)3
_symmetry_space_group_name_H-M   'P 1'
_cell_length_a   8.77735488
_cell_length_b   8.77051248
_cell_length_c   22.74260285
_cell_angle_alpha   90.52504930
_cell_angle_beta   90.27117538
_cell_angle_gamma   120.24202037
_symmetry_Int_Tables_number   1
_chemical_formula_structural   NaY2Ge2P3(SO8)3
_chemical_formula_sum   'Na3 Y6 Ge6 P9 S9 O72'
_cell_volume   1512.34699910
_cell_formula_units_Z   3
loop_
 _symmetry_equiv_pos_site_id
 _symmetry_equiv_pos_as_xyz
  1  'x, y, z'
loop_
 _atom_site_type_symbol
 _atom_site_label
 _atom_site_symmetry_multiplicity
 _atom_site_fract_x
 _atom_site_fract_y
 _atom_site_fract_z
 _atom_site_occupancy
  Na  Na0  1  0.68768567  0.33674199  0.83580167  1
  Na  Na1  1  0.66109400  0.34646272  0.33173869  1
  Na  Na2  1  0.35114783  0.68065513  0.16303034  1
  Y  Y0  1  0.67615764  0.33678804  0.68580892  1
  Y  Y1  1  0.65622284  0.32938970  0.18383431  1
  Y  Y2  1  0.66309611  0.32193721  0.98747173  1
  Y  Y3  1  0.66338528  0.33704662  0.48408172  1
  Y  Y4  1  0.33657208  0.66997605  0.30668493  1
  Y  Y5  1  0.33012321  0.66920897  0.80360015  1
  Ge  Ge0  1  0.01733613  0.99236059  0.35499531  1
  Ge  Ge1  1  0.99228106  0.00330974  0.85642790  1
  Ge  Ge2  1  0.99290602  0.99229341  0.64997503  1
  Ge  Ge3  1  0.99782250  0.99981616  0.14627683  1
  Ge  Ge4  1  0.33303324  0.64789840  0.01837659  1
  Ge  Ge5  1  0.31923350  0.65665351  0.50915253  1
  P  P0  1  0.27408856  0.00430643  0.24822635  1
  P  P1  1  0.73882076  0.73218546  0.25021693  1
  P  P2  1  0.98958876  0.73218949  0.75234118  1
  P  P3  1  0.73546660  0.00896626  0.75090143  1
  P  P4  1  0.66505762  0.01169826  0.08341138  1
  P  P5  1  0.34589179  0.32694695  0.08415215  1
  P  P6  1  0.04972804  0.36793910  0.91504706  1
  P  P7  1  0.31335064  0.36341383  0.41444961  1
  P  P8  1  0.04619087  0.67788684  0.41528434  1
  S  S0  1  0.99349989  0.26832291  0.24982633  1
  S  S1  1  0.27519954  0.26532013  0.74962030  1
  S  S2  1  0.98778540  0.33322023  0.58327625  1
  S  S3  1  0.34623115  0.01144464  0.58389316  1
  S  S4  1  0.66231473  0.65242070  0.58384828  1
  S  S5  1  0.98427634  0.64897904  0.08370768  1
  S  S6  1  0.63466259  0.67898293  0.91600433  1
  S  S7  1  0.31448029  0.95285382  0.91588331  1
  S  S8  1  0.63473225  0.95065997  0.41874400  1
  O  O0  1  0.19662099  0.02626820  0.30785919  1
  O  O1  1  0.83784247  0.82168558  0.30999315  1
  O  O2  1  0.98143043  0.17114128  0.30418191  1
  O  O3  1  0.19588005  0.16304988  0.80364174  1
  O  O4  1  0.96894994  0.82038402  0.80927779  1
  O  O5  1  0.84737545  0.04220598  0.80838699  1
  O  O6  1  0.82228161  0.99674883  0.69250264  1
  O  O7  1  0.17548515  0.18465736  0.69333517  1
  O  O8  1  0.00906505  0.83114936  0.69347586  1
  O  O9  1  0.82627216  0.83398491  0.19376070  1
  O  O10  1  0.00536069  0.18651137  0.19414544  1
  O  O11  1  0.17028706  0.99740125  0.19270998  1
  O  O12  1  0.91282982  0.37332257  0.63492060  1
  O  O13  1  0.46134757  0.09214712  0.63575964  1
  O  O14  1  0.62906152  0.54071801  0.63529988  1
  O  O15  1  0.90848985  0.53457422  0.13481956  1
  O  O16  1  0.61859710  0.08667243  0.13690141  1
  O  O17  1  0.47008007  0.37937762  0.13746038  1
  O  O18  1  0.42622852  0.29193264  0.03013526  1
  O  O19  1  0.87226427  0.57123494  0.03094860  1
  O  O20  1  0.70668979  0.13076733  0.03027843  1
  O  O21  1  0.42202625  0.12680714  0.53289814  1
  O  O22  1  0.70380658  0.57659025  0.53275069  1
  O  O23  1  0.86952956  0.29034664  0.53233046  1
  O  O24  1  0.55240914  0.70569987  0.97036585  1
  O  O25  1  0.16733663  0.46028200  0.97234009  1
  O  O26  1  0.29370184  0.84887030  0.96964438  1
  O  O27  1  0.54369773  0.83526654  0.47225592  1
  O  O28  1  0.28471625  0.45302256  0.47183016  1
  O  O29  1  0.16436607  0.70878095  0.47283506  1
  O  O30  1  0.12672111  0.64570000  0.36210248  1
  O  O31  1  0.52570173  0.87965584  0.36592989  1
  O  O32  1  0.35452065  0.47973899  0.36191721  1
  O  O33  1  0.13212845  0.47819928  0.86153453  1
  O  O34  1  0.34686557  0.87649633  0.86359463  1
  O  O35  1  0.52765734  0.65041483  0.86361830  1
  O  O36  1  0.03449526  0.84849295  0.41021666  1
  O  O37  1  0.80632995  0.96204128  0.41361870  1
  O  O38  1  0.13874052  0.18249183  0.40652123  1
  O  O39  1  0.04182759  0.18481377  0.90877754  1
  O  O40  1  0.14918432  0.96237204  0.90911639  1
  O  O41  1  0.81057894  0.84562035  0.91137250  1
  O  O42  1  0.01421848  0.17986656  0.59455017  1
  O  O43  1  0.16641954  0.98906522  0.59412941  1
  O  O44  1  0.82247405  0.83345836  0.59328357  1
  O  O45  1  0.00695062  0.82548452  0.09341291  1
  O  O46  1  0.82133846  0.98220304  0.09596945  1
  O  O47  1  0.16128106  0.16821098  0.09641928  1
  O  O48  1  0.71619151  0.17343008  0.74767589  1
  O  O49  1  0.44906840  0.27961335  0.74556546  1
  O  O50  1  0.82067504  0.55082443  0.74920793  1
  O  O51  1  0.72619895  0.55138470  0.24911461  1
  O  O52  1  0.83534761  0.28595324  0.24839530  1
  O  O53  1  0.45886221  0.16917726  0.24866073  1
  O  O54  1  0.66178559  0.52763679  0.92275884  1
  O  O55  1  0.86417000  0.33921114  0.92318026  1
  O  O56  1  0.46659904  0.13513258  0.92089762  1
  O  O57  1  0.65708024  0.12695206  0.42841017  1
  O  O58  1  0.46720122  0.33159079  0.42563646  1
  O  O59  1  0.86201871  0.51885863  0.42471495  1
  O  O60  1  0.32343301  0.49288426  0.07382127  1
  O  O61  1  0.16349053  0.67016969  0.07375441  1
  O  O62  1  0.49465929  0.82497720  0.06944299  1
  O  O63  1  0.32954051  0.83500119  0.57275424  1
  O  O64  1  0.50607133  0.67223584  0.57194477  1
  O  O65  1  0.16430215  0.49444246  0.57228561  1
  O  O66  1  0.28292368  0.83473601  0.24704586  1
  O  O67  1  0.55692188  0.71641563  0.25007306  1
  O  O68  1  0.15428303  0.44381784  0.24950423  1
  O  O69  1  0.28970206  0.43688187  0.75159298  1
  O  O70  1  0.15346940  0.71821952  0.75425597  1
  O  O71  1  0.56174548  0.83958395  0.75341872  1
loop_
_geom_bond_atom_site_label_1
_geom_bond_atom_site_label_2
_geom_bond_distance
_geom_bond_site_symmetry_2
Na0 O55 2.507067 1_555
Na0 O48 2.538534 1_555
Na0 O50 2.578410 1_555
Na0 O54 2.663226 1_555
Na0 O56 2.698077 1_555
Na0 O49 2.780759 1_555
Na1 O51 2.474916 1_555
Na1 O53 2.504516 1_555
Na1 O52 2.653359 1_555
Na1 O59 2.662267 1_555
Na1 O58 2.699914 1_555
Na1 O57 2.924273 1_555
Na2 O62 2.487519 1_555
Na2 O60 2.533387 1_555
Na2 O66 2.571837 1_555
Na2 O61 2.579969 1_555
Na2 O67 2.581364 1_555
Na2 O68 2.767621 1_555
Ge0 O0 1.806763 1_565
Ge0 O1 1.830691 1_455
Ge0 O36 1.846812 1_555
Ge0 O38 1.857919 1_565
Ge0 O2 2.102608 1_465
Ge0 O37 2.193678 1_455
Ge1 O5 1.832631 1_555
Ge1 O4 1.844231 1_545
Ge1 O39 1.844908 1_655
Ge1 O41 1.961245 1_545
Ge1 O40 1.987911 1_645
Ge1 O3 2.031438 1_655
Ge2 O8 1.795148 1_655
Ge2 O6 1.803288 1_555
Ge2 O7 1.902134 1_665
Ge2 O44 1.921054 1_555
Ge2 O43 1.998618 1_655
Ge2 O42 2.015070 1_665
Ge3 O9 1.840386 1_555
Ge3 O11 1.850600 1_655
Ge3 O47 1.853932 1_665
Ge3 O46 1.863173 1_555
Ge3 O10 1.930852 1_665
Ge3 O45 1.969835 1_655
Ge4 O60 1.833718 1_555
Ge4 O25 1.860753 1_554
Ge4 O62 1.872269 1_555
Ge4 O61 2.035907 1_555
Ge4 O24 2.050290 1_554
Ge4 O26 2.258205 1_554
Ge5 O29 1.833380 1_555
Ge5 O28 1.851112 1_555
Ge5 O27 1.992648 1_555
Ge5 O65 2.010461 1_555
Ge5 O63 2.088523 1_555
Ge5 O64 2.120362 1_555
O0 P0 1.573090 1_555
O1 P1 1.581695 1_555
O2 S0 1.481705 1_555
O3 S1 1.482544 1_555
O4 P2 1.559769 1_555
O5 P3 1.565713 1_555
O6 P3 1.563749 1_565
O7 S1 1.501395 1_555
O8 P2 1.564859 1_455
O9 P1 1.541073 1_555
O10 S0 1.479566 1_455
O11 P0 1.536239 1_565
O12 S2 1.472719 1_555
O12 Y0 2.261979 1_555
O13 S3 1.471852 1_555
O13 Y0 2.305247 1_555
O14 S4 1.466433 1_555
O14 Y0 2.338229 1_555
O15 S5 1.468625 1_555
O15 Y1 2.330289 1_555
O16 P4 1.529286 1_555
O16 Y1 2.242055 1_555
O17 P5 1.530310 1_555
O17 Y1 2.165103 1_555
O18 P5 1.523195 1_555
O18 Y2 2.192233 1_554
O19 S5 1.473031 1_555
O19 Y2 2.242463 1_554
O20 P4 1.525511 1_555
O20 Y2 2.139625 1_554
O21 S3 1.470416 1_555
O21 Y3 2.290309 1_555
O22 S4 1.469434 1_555
O22 Y3 2.228836 1_555
O23 S2 1.465846 1_555
O23 Y3 2.319854 1_555
O24 S6 1.509366 1_555
O25 P6 1.595342 1_555
O26 S7 1.488255 1_555
O27 S8 1.536559 1_555
O28 P7 1.602214 1_555
O29 P8 1.599992 1_555
O30 P8 1.498340 1_555
O30 Y4 2.158326 1_555
O31 S8 1.456524 1_555
O31 Y4 2.193494 1_555
O32 P7 1.501292 1_555
O32 Y4 2.165132 1_555
O33 P6 1.504912 1_555
O33 Y5 2.166140 1_555
O34 S7 1.457328 1_555
O34 Y5 2.207255 1_555
O35 S6 1.453007 1_555
O35 Y5 2.272899 1_555
O36 P8 1.555802 1_555
O37 S8 1.463742 1_555
O38 P7 1.562606 1_555
O39 P6 1.577411 1_555
O40 S7 1.501924 1_555
O41 S6 1.504146 1_555
O42 S2 1.499554 1_455
O43 S3 1.508618 1_565
O44 S4 1.511901 1_555
O45 S5 1.472326 1_455
O46 P4 1.544418 1_565
O47 P5 1.542960 1_555
O48 P3 1.536963 1_555
O48 Y0 2.166861 1_555
O49 S1 1.470395 1_555
O49 Y0 2.258919 1_555
O50 P2 1.534531 1_555
O50 Y0 2.178621 1_555
O51 P1 1.532867 1_555
O51 Y1 2.259657 1_555
O52 S0 1.472356 1_555
O52 Y1 2.316176 1_555
O53 P0 1.535780 1_555
O53 Y1 2.181548 1_555
O54 S6 1.471030 1_555
O54 Y2 2.343139 1_555
O55 P6 1.529944 1_655
O55 Y2 2.243850 1_555
O56 S7 1.482093 1_545
O56 Y2 2.243830 1_555
O57 S8 1.471498 1_545
O57 Y3 2.203471 1_555
O58 P7 1.530986 1_555
O58 Y3 2.151379 1_555
O59 P8 1.530414 1_655
O59 Y3 2.160239 1_555
O60 P5 1.583331 1_555
O61 S5 1.506601 1_455
O62 P4 1.593261 1_565
O63 S3 1.498163 1_565
O64 S4 1.490524 1_555
O65 S2 1.505229 1_455
O66 P0 1.527750 1_565
O66 Y4 2.205635 1_555
O67 P1 1.531584 1_555
O67 Y4 2.191785 1_555
O68 S0 1.474117 1_455
O68 Y4 2.218496 1_555
O69 S1 1.445013 1_555
O69 Y5 2.213687 1_555
O70 P2 1.504344 1_455
O70 Y5 2.124169 1_555
O71 P3 1.501953 1_565
O71 Y5 2.159086 1_555
