# generated using pymatgen
data_Nb3Cl7
_symmetry_space_group_name_H-M   'P 1'
_cell_length_a   9.27452651
_cell_length_b   9.27452667
_cell_length_c   11.15199965
_cell_angle_alpha   90.00000000
_cell_angle_beta   90.00000000
_cell_angle_gamma   94.64057696
_symmetry_Int_Tables_number   1
_chemical_formula_structural   Nb3Cl7
_chemical_formula_sum   'Nb12 Cl28'
_cell_volume   956.11519205
_cell_formula_units_Z   4
loop_
 _symmetry_equiv_pos_site_id
 _symmetry_equiv_pos_as_xyz
  1  'x, y, z'
loop_
 _atom_site_type_symbol
 _atom_site_label
 _atom_site_symmetry_multiplicity
 _atom_site_fract_x
 _atom_site_fract_y
 _atom_site_fract_z
 _atom_site_occupancy
  Nb  Nb0  1  0.13547374  0.13547374  0.90351301  1
  Nb  Nb1  1  0.36452626  0.36452626  0.40351301  1
  Nb  Nb2  1  0.63547374  0.63547374  0.59648699  1
  Nb  Nb3  1  0.86452626  0.86452626  0.09648699  1
  Nb  Nb4  1  0.95362147  0.17094364  0.11190945  1
  Nb  Nb5  1  0.54637853  0.32905636  0.61190945  1
  Nb  Nb6  1  0.67094364  0.45362147  0.38809055  1
  Nb  Nb7  1  0.82905636  0.04637853  0.88809055  1
  Nb  Nb8  1  0.04637853  0.82905636  0.88809055  1
  Nb  Nb9  1  0.45362147  0.67094364  0.38809055  1
  Nb  Nb10  1  0.32905636  0.54637853  0.61190945  1
  Nb  Nb11  1  0.17094364  0.95362147  0.11190945  1
  Cl  Cl0  1  0.89291406  0.39291406  0.25000000  1
  Cl  Cl1  1  0.60708594  0.10708594  0.75000000  1
  Cl  Cl2  1  0.10708594  0.60708594  0.75000000  1
  Cl  Cl3  1  0.39291406  0.89291406  0.25000000  1
  Cl  Cl4  1  0.11286102  0.36218993  0.01234887  1
  Cl  Cl5  1  0.38713898  0.13781007  0.51234887  1
  Cl  Cl6  1  0.86218993  0.61286102  0.48765113  1
  Cl  Cl7  1  0.63781007  0.88713898  0.98765113  1
  Cl  Cl8  1  0.88713898  0.63781007  0.98765113  1
  Cl  Cl9  1  0.61286102  0.86218993  0.48765113  1
  Cl  Cl10  1  0.13781007  0.38713898  0.51234887  1
  Cl  Cl11  1  0.36218993  0.11286102  0.01234887  1
  Cl  Cl12  1  0.25210281  0.74789719  0.00000000  1
  Cl  Cl13  1  0.24789719  0.75210281  0.50000000  1
  Cl  Cl14  1  0.74789719  0.25210281  0.00000000  1
  Cl  Cl15  1  0.75210281  0.24789719  0.50000000  1
  Cl  Cl16  1  0.14844651  0.14844651  0.26685279  1
  Cl  Cl17  1  0.35155349  0.35155349  0.76685279  1
  Cl  Cl18  1  0.64844651  0.64844651  0.23314721  1
  Cl  Cl19  1  0.85155349  0.85155349  0.73314721  1
  Cl  Cl20  1  0.53206540  0.28367349  0.25288442  1
  Cl  Cl21  1  0.96793460  0.21632651  0.75288442  1
  Cl  Cl22  1  0.78367349  0.03206540  0.24711558  1
  Cl  Cl23  1  0.71632651  0.46793460  0.74711558  1
  Cl  Cl24  1  0.46793460  0.71632651  0.74711558  1
  Cl  Cl25  1  0.03206540  0.78367349  0.24711558  1
  Cl  Cl26  1  0.21632651  0.96793460  0.75288442  1
  Cl  Cl27  1  0.28367349  0.53206540  0.25288442  1
loop_
_geom_bond_atom_site_label_1
_geom_bond_atom_site_label_2
_geom_bond_distance
_geom_bond_site_symmetry_2
Cl0 Nb6 2.667253 1_555
Cl0 Nb4 2.667253 1_555
Cl1 Nb7 2.667253 1_555
Cl1 Nb5 2.667253 1_555
Cl2 Nb10 2.667253 1_555
Cl2 Nb8 2.667253 1_555
Cl3 Nb11 2.667253 1_555
Cl3 Nb9 2.667253 1_555
Cl4 Nb0 2.451486 1_554
Cl4 Nb4 2.477120 1_455
Cl5 Nb1 2.451486 1_555
Cl5 Nb5 2.477120 1_555
Cl6 Nb2 2.451486 1_555
Cl6 Nb6 2.477120 1_555
Cl7 Nb3 2.451486 1_556
Cl7 Nb7 2.477120 1_565
Cl8 Nb3 2.451486 1_556
Cl8 Nb8 2.477120 1_655
Cl9 Nb2 2.451486 1_555
Cl9 Nb9 2.477120 1_555
Cl10 Nb1 2.451486 1_555
Cl10 Nb10 2.477120 1_555
Cl11 Nb0 2.451486 1_554
Cl11 Nb11 2.477120 1_545
Cl12 Nb8 2.448867 1_554
Cl12 Nb11 2.448867 1_555
Cl13 Nb9 2.448867 1_555
Cl13 Nb10 2.448867 1_555
Cl14 Nb4 2.448867 1_555
Cl14 Nb7 2.448867 1_554
Cl15 Nb5 2.448867 1_555
Cl15 Nb6 2.448867 1_555
Cl16 Nb4 2.520952 1_455
Cl16 Nb11 2.520952 1_545
Cl16 Nb1 3.115310 1_555
Cl17 Nb5 2.520952 1_555
Cl17 Nb10 2.520952 1_555
Cl17 Nb0 3.115310 1_555
Cl18 Nb9 2.520952 1_555
Cl18 Nb6 2.520952 1_555
Cl18 Nb3 3.115310 1_555
Cl19 Nb8 2.520952 1_655
Cl19 Nb7 2.520952 1_565
Cl19 Nb2 3.115310 1_555
Cl20 Nb1 2.446844 1_555
Cl20 Nb6 2.467469 1_555
Cl21 Nb0 2.446844 1_655
Cl21 Nb7 2.467469 1_555
Cl22 Nb3 2.446844 1_545
Cl22 Nb4 2.467469 1_555
Cl23 Nb2 2.446844 1_555
Cl23 Nb5 2.467469 1_555
Cl24 Nb2 2.446844 1_555
Cl24 Nb10 2.467469 1_555
Cl25 Nb3 2.446844 1_455
Cl25 Nb11 2.467469 1_555
Cl26 Nb0 2.446844 1_565
Cl26 Nb8 2.467469 1_555
Cl27 Nb1 2.446844 1_555
Cl27 Nb9 2.467469 1_555
