# generated using pymatgen
data_Nb5Zn(PO4)9
_symmetry_space_group_name_H-M   'P 1'
_cell_length_a   8.79503730
_cell_length_b   8.79503702
_cell_length_c   22.68220003
_cell_angle_alpha   90.00000000
_cell_angle_beta   90.00000000
_cell_angle_gamma   120.00000107
_symmetry_Int_Tables_number   1
_chemical_formula_structural   Nb5Zn(PO4)9
_chemical_formula_sum   'Nb10 Zn2 P18 O72'
_cell_volume   1519.46660770
_cell_formula_units_Z   2
loop_
 _symmetry_equiv_pos_site_id
 _symmetry_equiv_pos_as_xyz
  1  'x, y, z'
loop_
 _atom_site_type_symbol
 _atom_site_label
 _atom_site_symmetry_multiplicity
 _atom_site_fract_x
 _atom_site_fract_y
 _atom_site_fract_z
 _atom_site_occupancy
  Nb  Nb0  1  0.00000000  0.00000000  0.35517749  1
  Nb  Nb1  1  0.00000000  0.00000000  0.85517749  1
  Nb  Nb2  1  0.00000000  0.00000000  0.64285475  1
  Nb  Nb3  1  0.00000000  0.00000000  0.14285475  1
  Nb  Nb4  1  0.66666700  0.33333300  0.97767629  1
  Nb  Nb5  1  0.66666700  0.33333300  0.47767629  1
  Nb  Nb6  1  0.33333300  0.66666700  0.02466128  1
  Nb  Nb7  1  0.33333300  0.66666700  0.52466128  1
  Nb  Nb8  1  0.33333300  0.66666700  0.30646933  1
  Nb  Nb9  1  0.33333300  0.66666700  0.80646933  1
  Zn  Zn0  1  0.66666700  0.33333300  0.68950468  1
  Zn  Zn1  1  0.66666700  0.33333300  0.18950468  1
  P  P0  1  0.29037657  0.00631746  0.24938809  1
  P  P1  1  0.71594090  0.70962343  0.24938809  1
  P  P2  1  0.99368254  0.28405910  0.24938809  1
  P  P3  1  0.29037657  0.28405910  0.74938809  1
  P  P4  1  0.99368254  0.70962343  0.74938809  1
  P  P5  1  0.71594090  0.00631746  0.74938809  1
  P  P6  1  0.94987282  0.33332567  0.58509307  1
  P  P7  1  0.38345385  0.05012718  0.58509307  1
  P  P8  1  0.66667433  0.61654615  0.58509307  1
  P  P9  1  0.94987282  0.61654615  0.08509307  1
  P  P10  1  0.66667433  0.05012718  0.08509307  1
  P  P11  1  0.38345385  0.33332567  0.08509307  1
  P  P12  1  0.61718001  0.66649129  0.91620790  1
  P  P13  1  0.04931028  0.38281999  0.91620790  1
  P  P14  1  0.33350871  0.95068972  0.91620790  1
  P  P15  1  0.61718001  0.95068972  0.41620790  1
  P  P16  1  0.33350871  0.38281999  0.41620790  1
  P  P17  1  0.04931028  0.66649129  0.41620790  1
  O  O0  1  0.19138606  0.02060739  0.30490384  1
  O  O1  1  0.82922134  0.80861395  0.30490384  1
  O  O2  1  0.97939261  0.17077866  0.30490384  1
  O  O3  1  0.19138606  0.17077866  0.80490384  1
  O  O4  1  0.97939261  0.80861395  0.80490384  1
  O  O5  1  0.82922134  0.02060739  0.80490384  1
  O  O6  1  0.80102485  0.96651772  0.69543125  1
  O  O7  1  0.16549287  0.19897515  0.69543125  1
  O  O8  1  0.03348228  0.83450713  0.69543125  1
  O  O9  1  0.80102485  0.83450713  0.19543125  1
  O  O10  1  0.03348228  0.19897515  0.19543125  1
  O  O11  1  0.16549287  0.96651772  0.19543125  1
  O  O12  1  0.88009073  0.37317804  0.63894758  1
  O  O13  1  0.49308830  0.11990927  0.63894758  1
  O  O14  1  0.62682196  0.50691170  0.63894758  1
  O  O15  1  0.88009073  0.50691170  0.13894758  1
  O  O16  1  0.62682196  0.11990927  0.13894758  1
  O  O17  1  0.49308830  0.37317804  0.13894758  1
  O  O18  1  0.46692522  0.30375141  0.02814462  1
  O  O19  1  0.83682719  0.53307478  0.02814462  1
  O  O20  1  0.69624859  0.16317281  0.02814462  1
  O  O21  1  0.46692522  0.16317281  0.52814462  1
  O  O22  1  0.69624859  0.53307478  0.52814462  1
  O  O23  1  0.83682719  0.30375141  0.52814462  1
  O  O24  1  0.53275772  0.69612046  0.97118796  1
  O  O25  1  0.16336175  0.46724228  0.97118796  1
  O  O26  1  0.30387954  0.83663825  0.97118796  1
  O  O27  1  0.53275772  0.83663825  0.47118796  1
  O  O28  1  0.30387954  0.46724228  0.47118796  1
  O  O29  1  0.16336175  0.69612046  0.47118796  1
  O  O30  1  0.13390014  0.63552997  0.36165604  1
  O  O31  1  0.50162883  0.86609986  0.36165604  1
  O  O32  1  0.36447003  0.49837117  0.36165604  1
  O  O33  1  0.13390014  0.49837117  0.86165604  1
  O  O34  1  0.36447003  0.86609986  0.86165604  1
  O  O35  1  0.50162883  0.63552997  0.86165604  1
  O  O36  1  0.02593017  0.82755559  0.40686459  1
  O  O37  1  0.80162542  0.97406983  0.40686459  1
  O  O38  1  0.17244441  0.19837458  0.40686459  1
  O  O39  1  0.02593017  0.19837458  0.90686459  1
  O  O40  1  0.17244441  0.97406983  0.90686459  1
  O  O41  1  0.80162542  0.82755559  0.90686459  1
  O  O42  1  0.97495880  0.17038309  0.59170629  1
  O  O43  1  0.19542430  0.02504120  0.59170629  1
  O  O44  1  0.82961691  0.80457570  0.59170629  1
  O  O45  1  0.97495880  0.80457570  0.09170629  1
  O  O46  1  0.82961691  0.02504120  0.09170629  1
  O  O47  1  0.19542430  0.17038309  0.09170629  1
  O  O48  1  0.69402590  0.16154338  0.74383522  1
  O  O49  1  0.46751848  0.30597410  0.74383522  1
  O  O50  1  0.83845662  0.53248152  0.74383522  1
  O  O51  1  0.69402590  0.53248152  0.24383522  1
  O  O52  1  0.83845662  0.30597410  0.24383522  1
  O  O53  1  0.46751848  0.16154338  0.24383522  1
  O  O54  1  0.63930891  0.50448913  0.92692092  1
  O  O55  1  0.86518122  0.36069109  0.92692092  1
  O  O56  1  0.49551087  0.13481878  0.92692092  1
  O  O57  1  0.63930891  0.13481878  0.42692092  1
  O  O58  1  0.49551087  0.36069109  0.42692092  1
  O  O59  1  0.86518122  0.50448913  0.42692092  1
  O  O60  1  0.35338740  0.49091206  0.07031605  1
  O  O61  1  0.13752366  0.64661260  0.07031605  1
  O  O62  1  0.50908794  0.86247634  0.07031605  1
  O  O63  1  0.35338740  0.86247634  0.57031605  1
  O  O64  1  0.50908794  0.64661260  0.57031605  1
  O  O65  1  0.13752366  0.49091206  0.57031605  1
  O  O66  1  0.29784564  0.83292560  0.26061531  1
  O  O67  1  0.53507896  0.70215436  0.26061531  1
  O  O68  1  0.16707440  0.46492104  0.26061531  1
  O  O69  1  0.29784564  0.46492104  0.76061531  1
  O  O70  1  0.16707440  0.70215436  0.76061531  1
  O  O71  1  0.53507896  0.83292560  0.76061531  1
loop_
_geom_bond_atom_site_label_1
_geom_bond_atom_site_label_2
_geom_bond_distance
_geom_bond_site_symmetry_2
Nb0 O1 1.965049 1_445
Nb0 O2 1.965049 1_455
Nb0 O0 1.965049 1_555
Nb0 O38 2.018069 1_555
Nb0 O36 2.018069 1_545
Nb0 O37 2.018069 1_445
Nb1 O4 1.965049 1_445
Nb1 O5 1.965049 1_455
Nb1 O3 1.965049 1_555
Nb1 O39 2.018069 1_555
Nb1 O41 2.018069 1_445
Nb1 O40 2.018069 1_545
Nb2 O42 1.992508 1_455
Nb2 O44 1.992508 1_445
Nb2 O43 1.992508 1_555
Nb2 O7 2.013961 1_555
Nb2 O8 2.013961 1_545
Nb2 O6 2.013961 1_445
Nb3 O46 1.992508 1_455
Nb3 O47 1.992508 1_555
Nb3 O45 1.992508 1_445
Nb3 O10 2.013961 1_555
Nb3 O9 2.013961 1_445
Nb3 O11 2.013961 1_545
Nb4 O19 2.001792 1_556
Nb4 O20 2.001792 1_556
Nb4 O18 2.001792 1_556
Nb4 O56 2.002864 1_555
Nb4 O54 2.002864 1_555
Nb4 O55 2.002864 1_555
Nb5 O22 2.001792 1_555
Nb5 O21 2.001792 1_555
Nb5 O23 2.001792 1_555
Nb5 O57 2.002864 1_555
Nb5 O59 2.002864 1_555
Nb5 O58 2.002864 1_555
Nb6 O62 1.940496 1_555
Nb6 O60 1.940496 1_555
Nb6 O61 1.940496 1_555
Nb6 O26 2.039656 1_554
Nb6 O25 2.039656 1_554
Nb6 O24 2.039656 1_554
Nb7 O63 1.940496 1_555
Nb7 O65 1.940496 1_555
Nb7 O64 1.940496 1_555
Nb7 O29 2.039656 1_555
Nb7 O27 2.039656 1_555
Nb7 O28 2.039656 1_555
Nb8 O68 1.942607 1_555
Nb8 O66 1.942607 1_555
Nb8 O67 1.942607 1_555
Nb8 O31 2.058672 1_555
Nb8 O32 2.058672 1_555
Nb8 O30 2.058672 1_555
Nb9 O69 1.942607 1_555
Nb9 O71 1.942607 1_555
Nb9 O70 1.942607 1_555
Nb9 O34 2.058672 1_555
Nb9 O33 2.058672 1_555
Nb9 O35 2.058672 1_555
O0 P0 1.571254 1_555
O1 P1 1.571254 1_555
O2 P2 1.571254 1_555
O3 P3 1.571254 1_555
O4 P4 1.571254 1_555
O5 P5 1.571254 1_555
O6 P5 1.562779 1_565
O7 P3 1.562779 1_555
O8 P4 1.562779 1_455
O9 P1 1.562779 1_555
O10 P2 1.562779 1_455
O11 P0 1.562779 1_565
O12 P6 1.485529 1_555
O12 Zn0 2.074470 1_555
O13 P7 1.485529 1_555
O13 Zn0 2.074470 1_555
O14 P8 1.485529 1_555
O14 Zn0 2.074470 1_555
O15 P9 1.485529 1_555
O15 Zn1 2.074470 1_555
O16 P10 1.485529 1_555
O16 Zn1 2.074470 1_555
O17 P11 1.485529 1_555
O17 Zn1 2.074470 1_555
O18 P11 1.570379 1_555
O19 P9 1.570379 1_555
O20 P10 1.570379 1_555
O21 P7 1.570379 1_555
O22 P8 1.570379 1_555
O23 P6 1.570379 1_555
O24 P12 1.538791 1_555
O25 P13 1.538791 1_555
O26 P14 1.538791 1_555
O27 P15 1.538791 1_555
O28 P16 1.538791 1_555
O29 P17 1.538791 1_555
O30 P17 1.536646 1_555
O31 P15 1.536646 1_555
O32 P16 1.536646 1_555
O33 P13 1.536646 1_555
O34 P14 1.536646 1_555
O35 P12 1.536646 1_555
O36 P17 1.544391 1_555
O37 P15 1.544400 1_555
O38 P16 1.544396 1_555
O39 P13 1.544400 1_555
O40 P14 1.544391 1_555
O41 P12 1.544396 1_555
O42 P6 1.562402 1_555
O43 P7 1.562411 1_555
O44 P8 1.562407 1_555
O45 P9 1.562410 1_555
O46 P10 1.562402 1_555
O47 P11 1.562407 1_555
O48 P5 1.476472 1_555
O48 Zn0 2.054973 1_555
O49 P3 1.476481 1_555
O49 Zn0 2.054973 1_555
O50 P4 1.476477 1_555
O50 Zn0 2.054973 1_555
O51 P1 1.476481 1_555
O51 Zn1 2.054973 1_555
O52 P2 1.476472 1_555
O52 Zn1 2.054973 1_555
O53 P0 1.476477 1_555
O53 Zn1 2.054973 1_555
O54 P12 1.550589 1_555
O55 P13 1.550572 1_655
O56 P14 1.550579 1_545
O57 P15 1.550572 1_545
O58 P16 1.550589 1_555
O59 P17 1.550579 1_655
O60 P11 1.571530 1_555
O61 P9 1.571513 1_455
O62 P10 1.571519 1_565
O63 P7 1.571513 1_565
O64 P8 1.571530 1_555
O65 P6 1.571519 1_455
O66 P0 1.579535 1_565
O67 P1 1.579544 1_555
O68 P2 1.579540 1_455
O69 P3 1.579544 1_555
O70 P4 1.579535 1_455
O71 P5 1.579540 1_565
