# generated using pymatgen
data_CsBa2MgNb3O10
_symmetry_space_group_name_H-M   'P 1'
_cell_length_a   4.08101700
_cell_length_b   4.08101700
_cell_length_c   17.62303300
_cell_angle_alpha   90.00000000
_cell_angle_beta   90.00000000
_cell_angle_gamma   90.00000000
_symmetry_Int_Tables_number   1
_chemical_formula_structural   CsBa2MgNb3O10
_chemical_formula_sum   'Cs1 Ba2 Mg1 Nb3 O10'
_cell_volume   293.50632337
_cell_formula_units_Z   1
loop_
 _symmetry_equiv_pos_site_id
 _symmetry_equiv_pos_as_xyz
  1  'x, y, z'
loop_
 _atom_site_type_symbol
 _atom_site_label
 _atom_site_symmetry_multiplicity
 _atom_site_fract_x
 _atom_site_fract_y
 _atom_site_fract_z
 _atom_site_occupancy
  Cs  Cs0  1  0.50000000  0.50000000  0.50000000  1
  Ba  Ba0  1  0.50000000  0.50000000  0.81983800  1
  Ba  Ba1  1  0.50000000  0.50000000  0.18016200  1
  Mg  Mg0  1  0.50000000  0.50000000  0.00000000  1
  Nb  Nb0  1  0.00000000  0.00000000  0.30782900  1
  Nb  Nb1  1  0.00000000  0.00000000  0.69217100  1
  Nb  Nb2  1  0.00000000  0.00000000  0.00000000  1
  O  O0  1  0.00000000  0.00000000  0.40901800  1
  O  O1  1  0.50000000  0.00000000  0.27818800  1
  O  O2  1  0.50000000  0.00000000  0.72181200  1
  O  O3  1  0.00000000  0.50000000  0.72181200  1
  O  O4  1  0.00000000  0.00000000  0.11424400  1
  O  O5  1  0.00000000  0.50000000  0.27818800  1
  O  O6  1  0.00000000  0.00000000  0.59098200  1
  O  O7  1  0.00000000  0.00000000  0.88575600  1
  O  O8  1  0.00000000  0.50000000  0.00000000  1
  O  O9  1  0.50000000  0.00000000  0.00000000  1
loop_
_geom_bond_atom_site_label_1
_geom_bond_atom_site_label_2
_geom_bond_distance
_geom_bond_site_symmetry_2
Cs0 O6 3.301238 1_655
Cs0 O0 3.301238 1_565
Cs0 O6 3.301238 1_555
Cs0 O6 3.301238 1_565
Cs0 O6 3.301238 1_665
Cs0 O0 3.301238 1_665
Cs0 O0 3.301238 1_655
Cs0 O0 3.301238 1_555
Ba0 O3 2.673571 1_655
Ba0 O2 2.673571 1_555
Ba0 O2 2.673571 1_565
Ba0 O3 2.673571 1_555
Ba0 O7 3.110762 1_555
Ba0 O7 3.110762 1_565
Ba0 O7 3.110762 1_665
Ba0 O7 3.110762 1_655
Ba0 Mg0 3.175001 1_556
Ba1 O5 2.673571 1_555
Ba1 O5 2.673571 1_655
Ba1 O1 2.673571 1_565
Ba1 O1 2.673571 1_555
Ba1 O4 3.110762 1_555
Ba1 O4 3.110762 1_565
Ba1 O4 3.110762 1_655
Ba1 O4 3.110762 1_665
Ba1 Mg0 3.175001 1_555
Mg0 O8 2.040509 1_555
Mg0 O8 2.040509 1_655
Mg0 O9 2.040509 1_555
Mg0 O9 2.040509 1_565
Nb0 O0 1.783257 1_555
Nb0 O5 2.106309 1_545
Nb0 O1 2.106309 1_455
Nb0 O1 2.106309 1_555
Nb0 O5 2.106309 1_555
Nb1 O6 1.783257 1_555
Nb1 O2 2.106309 1_555
Nb1 O3 2.106309 1_555
Nb1 O3 2.106309 1_545
Nb1 O2 2.106309 1_455
Nb2 O4 2.013326 1_555
Nb2 O7 2.013326 1_554
Nb2 O9 2.040509 1_455
Nb2 O8 2.040509 1_555
Nb2 O9 2.040509 1_555
Nb2 O8 2.040509 1_545
