# generated using pymatgen
data_Na3Nb2Zn4P3(SO6)6
_symmetry_space_group_name_H-M   'P 1'
_cell_length_a   8.73882601
_cell_length_b   8.73882573
_cell_length_c   22.80134862
_cell_angle_alpha   90.00000000
_cell_angle_beta   90.00000000
_cell_angle_gamma   120.00000109
_symmetry_Int_Tables_number   1
_chemical_formula_structural   Na3Nb2Zn4P3(SO6)6
_chemical_formula_sum   'Na6 Nb4 Zn8 P6 S12 O72'
_cell_volume   1507.98608169
_cell_formula_units_Z   2
loop_
 _symmetry_equiv_pos_site_id
 _symmetry_equiv_pos_as_xyz
  1  'x, y, z'
loop_
 _atom_site_type_symbol
 _atom_site_label
 _atom_site_symmetry_multiplicity
 _atom_site_fract_x
 _atom_site_fract_y
 _atom_site_fract_z
 _atom_site_occupancy
  Na  Na0  1  0.00000000  0.00000000  0.49640854  1
  Na  Na1  1  0.00000000  0.00000000  0.99640854  1
  Na  Na2  1  0.66666700  0.33333300  0.82825397  1
  Na  Na3  1  0.66666700  0.33333300  0.32825397  1
  Na  Na4  1  0.33333300  0.66666700  0.16088143  1
  Na  Na5  1  0.33333300  0.66666700  0.66088143  1
  Nb  Nb0  1  0.66666700  0.33333300  0.97730341  1
  Nb  Nb1  1  0.66666700  0.33333300  0.47730341  1
  Nb  Nb2  1  0.33333300  0.66666700  0.31638235  1
  Nb  Nb3  1  0.33333300  0.66666700  0.81638235  1
  Zn  Zn0  1  0.00000000  0.00000000  0.35356616  1
  Zn  Zn1  1  0.00000000  0.00000000  0.85356616  1
  Zn  Zn2  1  0.00000000  0.00000000  0.64899843  1
  Zn  Zn3  1  0.00000000  0.00000000  0.14899843  1
  Zn  Zn4  1  0.66666700  0.33333300  0.68309825  1
  Zn  Zn5  1  0.66666700  0.33333300  0.18309825  1
  Zn  Zn6  1  0.33333300  0.66666700  0.01465407  1
  Zn  Zn7  1  0.33333300  0.66666700  0.51465407  1
  P  P0  1  0.62753590  0.67368833  0.91947271  1
  P  P1  1  0.04615143  0.37246410  0.91947271  1
  P  P2  1  0.32631167  0.95384857  0.91947271  1
  P  P3  1  0.62753590  0.95384857  0.41947271  1
  P  P4  1  0.32631167  0.37246410  0.41947271  1
  P  P5  1  0.04615143  0.67368833  0.41947271  1
  S  S0  1  0.29329395  0.00342216  0.25000964  1
  S  S1  1  0.71012821  0.70670605  0.25000964  1
  S  S2  1  0.99657784  0.28987179  0.25000964  1
  S  S3  1  0.29329395  0.28987179  0.75000964  1
  S  S4  1  0.99657784  0.70670605  0.75000964  1
  S  S5  1  0.71012821  0.00342216  0.75000964  1
  S  S6  1  0.96028169  0.33395010  0.58480274  1
  S  S7  1  0.37366941  0.03971831  0.58480274  1
  S  S8  1  0.66604990  0.62633059  0.58480274  1
  S  S9  1  0.96028169  0.62633059  0.08480274  1
  S  S10  1  0.66604990  0.03971831  0.08480274  1
  S  S11  1  0.37366941  0.33395010  0.08480274  1
  O  O0  1  0.21321787  0.02538072  0.30305280  1
  O  O1  1  0.81216284  0.78678213  0.30305280  1
  O  O2  1  0.97461928  0.18783716  0.30305280  1
  O  O3  1  0.21321787  0.18783716  0.80305280  1
  O  O4  1  0.97461928  0.78678213  0.80305280  1
  O  O5  1  0.81216284  0.02538072  0.80305280  1
  O  O6  1  0.77916487  0.96608454  0.69626195  1
  O  O7  1  0.18691967  0.22083513  0.69626195  1
  O  O8  1  0.03391546  0.81308033  0.69626195  1
  O  O9  1  0.77916487  0.81308033  0.19626195  1
  O  O10  1  0.03391546  0.22083513  0.19626195  1
  O  O11  1  0.18691967  0.96608454  0.19626195  1
  O  O12  1  0.87661754  0.35751033  0.63718901  1
  O  O13  1  0.48089379  0.12338246  0.63718901  1
  O  O14  1  0.64248967  0.51910621  0.63718901  1
  O  O15  1  0.87661754  0.51910621  0.13718901  1
  O  O16  1  0.64248967  0.12338246  0.13718901  1
  O  O17  1  0.48089379  0.35751033  0.13718901  1
  O  O18  1  0.46941318  0.31397335  0.03047585  1
  O  O19  1  0.84456117  0.53058682  0.03047585  1
  O  O20  1  0.68602665  0.15543883  0.03047585  1
  O  O21  1  0.46941318  0.15543883  0.53047585  1
  O  O22  1  0.68602665  0.53058682  0.53047585  1
  O  O23  1  0.84456117  0.31397335  0.53047585  1
  O  O24  1  0.54530353  0.69628064  0.97381220  1
  O  O25  1  0.15097611  0.45469647  0.97381220  1
  O  O26  1  0.30371936  0.84902389  0.97381220  1
  O  O27  1  0.54530353  0.84902389  0.47381220  1
  O  O28  1  0.30371936  0.45469647  0.47381220  1
  O  O29  1  0.15097611  0.69628064  0.47381220  1
  O  O30  1  0.13245593  0.63581088  0.36312247  1
  O  O31  1  0.50335395  0.86754407  0.36312247  1
  O  O32  1  0.36418912  0.49664605  0.36312247  1
  O  O33  1  0.13245593  0.49664605  0.86312247  1
  O  O34  1  0.36418912  0.86754407  0.86312247  1
  O  O35  1  0.50335395  0.63581088  0.86312247  1
  O  O36  1  0.01392255  0.82424796  0.40820747  1
  O  O37  1  0.81032540  0.98607745  0.40820747  1
  O  O38  1  0.17575204  0.18967460  0.40820747  1
  O  O39  1  0.01392255  0.18967460  0.90820747  1
  O  O40  1  0.17575204  0.98607745  0.90820747  1
  O  O41  1  0.81032540  0.82424796  0.90820747  1
  O  O42  1  0.96732566  0.16847369  0.58591664  1
  O  O43  1  0.20114804  0.03267434  0.58591664  1
  O  O44  1  0.83152631  0.79885196  0.58591664  1
  O  O45  1  0.96732566  0.79885196  0.08591664  1
  O  O46  1  0.83152631  0.03267434  0.08591664  1
  O  O47  1  0.20114804  0.16847369  0.08591664  1
  O  O48  1  0.68081627  0.15543869  0.74443068  1
  O  O49  1  0.47462342  0.31918373  0.74443068  1
  O  O50  1  0.84456131  0.52537658  0.74443068  1
  O  O51  1  0.68081627  0.52537658  0.24443068  1
  O  O52  1  0.84456131  0.31918373  0.24443068  1
  O  O53  1  0.47462342  0.15543869  0.24443068  1
  O  O54  1  0.63529965  0.49505176  0.92451977  1
  O  O55  1  0.85975312  0.36470035  0.92451977  1
  O  O56  1  0.50494824  0.14024688  0.92451977  1
  O  O57  1  0.63529965  0.14024688  0.42451977  1
  O  O58  1  0.50494824  0.36470035  0.42451977  1
  O  O59  1  0.85975312  0.49505176  0.42451977  1
  O  O60  1  0.35770687  0.49210741  0.07784228  1
  O  O61  1  0.13439954  0.64229313  0.07784228  1
  O  O62  1  0.50789259  0.86560046  0.07784228  1
  O  O63  1  0.35770687  0.86560046  0.57784228  1
  O  O64  1  0.50789259  0.64229313  0.57784228  1
  O  O65  1  0.13439954  0.49210741  0.57784228  1
  O  O66  1  0.31177267  0.83600781  0.25770160  1
  O  O67  1  0.52423415  0.68822733  0.25770160  1
  O  O68  1  0.16399219  0.47576585  0.25770160  1
  O  O69  1  0.31177267  0.47576585  0.75770160  1
  O  O70  1  0.16399219  0.68822733  0.75770160  1
  O  O71  1  0.52423415  0.83600781  0.75770160  1
loop_
_geom_bond_atom_site_label_1
_geom_bond_atom_site_label_2
_geom_bond_distance
_geom_bond_site_symmetry_2
Na0 O36 2.570037 1_545
Na0 O38 2.570037 1_555
Na0 O37 2.570037 1_445
Na0 O42 2.614338 1_455
Na0 O44 2.614338 1_445
Na0 O43 2.614338 1_555
Na1 O40 2.570037 1_545
Na1 O41 2.570037 1_445
Na1 O39 2.570037 1_555
Na1 O46 2.614338 1_456
Na1 O47 2.614338 1_556
Na1 O45 2.614338 1_446
Na2 O50 2.505446 1_555
Na2 O48 2.505446 1_555
Na2 O49 2.505446 1_555
Na2 O54 2.697727 1_555
Na2 O56 2.697727 1_555
Na2 O55 2.697727 1_555
Na3 O51 2.505446 1_555
Na3 O53 2.505446 1_555
Na3 O52 2.505446 1_555
Na3 O58 2.697727 1_555
Na3 O59 2.697727 1_555
Na3 O57 2.697727 1_555
Na4 O62 2.506442 1_555
Na4 O60 2.506442 1_555
Na4 O61 2.506442 1_555
Na4 O66 2.716225 1_555
Na4 O68 2.716225 1_555
Na4 O67 2.716225 1_555
Na5 O63 2.506442 1_555
Na5 O65 2.506442 1_555
Na5 O64 2.506442 1_555
Na5 O70 2.716225 1_555
Na5 O71 2.716225 1_555
Na5 O69 2.716225 1_555
Nb0 O54 1.976930 1_555
Nb0 O56 1.976930 1_555
Nb0 O55 1.976931 1_555
Nb0 O19 2.044086 1_556
Nb0 O20 2.044086 1_556
Nb0 O18 2.044086 1_556
Nb1 O58 1.976930 1_555
Nb1 O59 1.976930 1_555
Nb1 O57 1.976930 1_555
Nb1 O22 2.044086 1_555
Nb1 O21 2.044086 1_555
Nb1 O23 2.044086 1_555
Nb2 O31 1.953636 1_555
Nb2 O32 1.953636 1_555
Nb2 O30 1.953636 1_555
Nb2 O66 2.072315 1_555
Nb2 O68 2.072315 1_555
Nb2 O67 2.072315 1_555
Nb3 O34 1.953636 1_555
Nb3 O33 1.953636 1_555
Nb3 O35 1.953636 1_555
Nb3 O70 2.072315 1_555
Nb3 O71 2.072315 1_555
Nb3 O69 2.072315 1_555
O0 S0 1.457246 1_555
O0 Zn0 2.105776 1_555
O1 S1 1.457246 1_555
O1 Zn0 2.105776 1_665
O2 S2 1.457246 1_555
O2 Zn0 2.105776 1_655
O3 S3 1.457246 1_555
O3 Zn1 2.105776 1_555
O4 S4 1.457246 1_555
O4 Zn1 2.105776 1_665
O5 S5 1.457246 1_555
O5 Zn1 2.105776 1_655
O6 S5 1.472814 1_565
O6 Zn2 2.097983 1_665
O7 S3 1.472814 1_555
O7 Zn2 2.097983 1_555
O8 S4 1.472814 1_455
O8 Zn2 2.097983 1_565
O9 S1 1.472814 1_555
O9 Zn3 2.097983 1_665
O10 S2 1.472814 1_455
O10 Zn3 2.097983 1_555
O11 S0 1.472814 1_565
O11 Zn3 2.097983 1_565
O12 S6 1.467734 1_555
O12 Zn4 2.029526 1_555
O13 S7 1.467734 1_555
O13 Zn4 2.029526 1_555
O14 S8 1.467734 1_555
O14 Zn4 2.029526 1_555
O15 S9 1.467734 1_555
O15 Zn5 2.029526 1_555
O16 S10 1.467734 1_555
O16 Zn5 2.029526 1_555
O17 S11 1.467734 1_555
O17 Zn5 2.029526 1_555
O18 S11 1.552749 1_555
O19 S9 1.552749 1_555
O20 S10 1.552749 1_555
O21 S7 1.552749 1_555
O22 S8 1.552749 1_555
O23 S6 1.552749 1_555
O24 P0 1.494127 1_555
O24 Zn6 1.971323 1_556
O25 P1 1.494127 1_555
O25 Zn6 1.971322 1_556
O26 P2 1.494127 1_555
O26 Zn6 1.971322 1_556
O27 P3 1.494127 1_555
O27 Zn7 1.971322 1_555
O28 P4 1.494127 1_555
O28 Zn7 1.971322 1_555
O29 P5 1.494127 1_555
O29 Zn7 1.971323 1_555
O30 P5 1.605894 1_555
O31 P3 1.605894 1_555
O32 P4 1.605894 1_555
O33 P1 1.605894 1_555
O34 P2 1.605894 1_555
O35 P0 1.605894 1_555
O36 P5 1.498988 1_555
O36 Zn0 2.028006 1_565
O37 P3 1.498997 1_555
O37 Zn0 2.028006 1_665
O38 P4 1.498994 1_555
O38 Zn0 2.028006 1_555
O39 P1 1.498997 1_555
O39 Zn1 2.028006 1_555
O40 P2 1.498989 1_555
O40 Zn1 2.028006 1_565
O41 P0 1.498994 1_555
O41 Zn1 2.028006 1_665
O42 S6 1.478028 1_555
O42 Zn2 2.176768 1_655
O43 S7 1.478036 1_555
O43 Zn2 2.176768 1_555
O44 S8 1.478032 1_555
O44 Zn2 2.176768 1_665
O45 S9 1.478036 1_555
O45 Zn3 2.176768 1_665
O46 S10 1.478028 1_555
O46 Zn3 2.176768 1_655
O47 S11 1.478032 1_555
O47 Zn3 2.176768 1_555
O48 S5 1.478800 1_555
O48 Zn4 2.140081 1_555
O49 S3 1.478808 1_555
O49 Zn4 2.140081 1_555
O50 S4 1.478805 1_555
O50 Zn4 2.140081 1_555
O51 S1 1.478808 1_555
O51 Zn5 2.140081 1_555
O52 S2 1.478800 1_555
O52 Zn5 2.140081 1_555
O53 S0 1.478805 1_555
O53 Zn5 2.140081 1_555
O54 P0 1.600222 1_555
O55 P1 1.600205 1_655
O56 P2 1.600213 1_545
O57 P3 1.600205 1_545
O58 P4 1.600222 1_555
O59 P5 1.600213 1_655
O60 S11 1.465492 1_555
O60 Zn6 2.184745 1_555
O61 S9 1.465475 1_455
O61 Zn6 2.184745 1_555
O62 S10 1.465483 1_565
O62 Zn6 2.184745 1_555
O63 S7 1.465475 1_565
O63 Zn7 2.184745 1_555
O64 S8 1.465493 1_555
O64 Zn7 2.184745 1_555
O65 S6 1.465483 1_455
O65 Zn7 2.184745 1_555
O66 S0 1.559958 1_565
O67 S1 1.559967 1_555
O68 S2 1.559963 1_455
O69 S3 1.559967 1_555
O70 S4 1.559958 1_455
O71 S5 1.559963 1_565
