# generated using pymatgen
data_RbGeBr3
_symmetry_space_group_name_H-M   'P 1'
_cell_length_a   7.62829121
_cell_length_b   8.26688561
_cell_length_c   11.30344188
_cell_angle_alpha   90.00000000
_cell_angle_beta   90.00000000
_cell_angle_gamma   90.00000000
_symmetry_Int_Tables_number   1
_chemical_formula_structural   RbGeBr3
_chemical_formula_sum   'Rb4 Ge4 Br12'
_cell_volume   712.82003497
_cell_formula_units_Z   4
loop_
 _symmetry_equiv_pos_site_id
 _symmetry_equiv_pos_as_xyz
  1  'x, y, z'
loop_
 _atom_site_type_symbol
 _atom_site_label
 _atom_site_symmetry_multiplicity
 _atom_site_fract_x
 _atom_site_fract_y
 _atom_site_fract_z
 _atom_site_occupancy
  Rb  Rb0  1  0.96652112  0.41363798  0.25031292  1
  Rb  Rb1  1  0.46652112  0.08636202  0.75031292  1
  Rb  Rb2  1  0.53347888  0.91363798  0.25031292  1
  Rb  Rb3  1  0.03347888  0.58636202  0.75031292  1
  Ge  Ge0  1  0.48246269  0.46595052  0.47950345  1
  Ge  Ge1  1  0.51753731  0.53404948  0.97950345  1
  Ge  Ge2  1  0.01753731  0.96595052  0.47950345  1
  Ge  Ge3  1  0.98246269  0.03404948  0.97950345  1
  Br  Br0  1  0.32940000  0.78822076  0.96060993  1
  Br  Br1  1  0.17060000  0.28822076  0.96060993  1
  Br  Br2  1  0.82940000  0.71177924  0.46060993  1
  Br  Br3  1  0.29715973  0.81780084  0.53360150  1
  Br  Br4  1  0.20284027  0.31780084  0.53360150  1
  Br  Br5  1  0.79716073  0.68219916  0.03360150  1
  Br  Br6  1  0.42037875  0.49397995  0.26077320  1
  Br  Br7  1  0.70283927  0.18219916  0.03360150  1
  Br  Br8  1  0.92037875  0.00602005  0.76077320  1
  Br  Br9  1  0.57962125  0.50602005  0.76077320  1
  Br  Br10  1  0.07962125  0.99397995  0.26077320  1
  Br  Br11  1  0.67060000  0.21177924  0.46060993  1
loop_
_geom_bond_atom_site_label_1
_geom_bond_atom_site_label_2
_geom_bond_distance
_geom_bond_site_symmetry_2
Br0 Ge1 2.553502 1_555
Br0 Rb1 3.580415 1_565
Br0 Rb3 3.678443 1_555
Br0 Rb2 3.771179 1_556
Br1 Ge3 2.553502 1_455
Br1 Rb3 3.580415 1_555
Br1 Rb1 3.678443 1_555
Br1 Rb0 3.771179 1_456
Br2 Ge2 2.553502 1_655
Br2 Rb0 3.580415 1_555
Br2 Rb2 3.678443 1_555
Br2 Rb3 3.771179 1_655
Br3 Ge2 2.534516 1_555
Br3 Rb1 3.549465 1_565
Br3 Rb3 3.702292 1_555
Br3 Rb2 3.759141 1_555
Br4 Ge0 2.534516 1_555
Br4 Rb3 3.549465 1_555
Br4 Rb1 3.702292 1_555
Br4 Rb0 3.759141 1_455
Br5 Ge1 2.534522 1_554
Br5 Rb0 3.549462 1_555
Br5 Rb2 3.702296 1_555
Br5 Rb3 3.759137 1_654
Br6 Ge0 2.527997 1_555
Br6 Rb0 3.527273 1_455
Br6 Rb2 3.576889 1_555
Br7 Ge3 2.534522 1_554
Br7 Rb2 3.549462 1_545
Br7 Rb0 3.702296 1_555
Br7 Rb1 3.759137 1_554
Br8 Ge3 2.527997 1_555
Br8 Rb1 3.527273 1_555
Br8 Rb3 3.576889 1_645
Br9 Ge1 2.527997 1_555
Br9 Rb3 3.527273 1_655
Br9 Rb1 3.576889 1_555
Br10 Ge2 2.527997 1_555
Br10 Rb2 3.527273 1_555
Br10 Rb0 3.576889 1_465
Br11 Ge0 2.553502 1_555
Br11 Rb2 3.580415 1_545
Br11 Rb0 3.678443 1_555
Br11 Rb1 3.771179 1_555
