# generated using pymatgen
data_Na6Mg2Zr6Si5S7O48
_symmetry_space_group_name_H-M   'P 1'
_cell_length_a   18.02501933
_cell_length_b   9.04146950
_cell_length_c   23.38010893
_cell_angle_alpha   89.98743875
_cell_angle_beta   89.97957685
_cell_angle_gamma   120.11815362
_symmetry_Int_Tables_number   1
_chemical_formula_structural   Na6Mg2Zr6Si5S7O48
_chemical_formula_sum   'Na18 Mg6 Zr18 Si15 S21 O144'
_cell_volume   3295.89637308
_cell_formula_units_Z   3
loop_
 _symmetry_equiv_pos_site_id
 _symmetry_equiv_pos_as_xyz
  1  'x, y, z'
loop_
 _atom_site_type_symbol
 _atom_site_label
 _atom_site_symmetry_multiplicity
 _atom_site_fract_x
 _atom_site_fract_y
 _atom_site_fract_z
 _atom_site_occupancy
  Na  Na0  1  0.65520290  0.34573845  0.58199305  1
  Na  Na1  1  0.52177132  0.69164729  0.58407560  1
  Na  Na2  1  0.82320994  0.95481856  0.58263681  1
  Na  Na3  1  0.15392044  0.96198595  0.08448307  1
  Na  Na4  1  0.32302889  0.69282930  0.08498149  1
  Na  Na5  1  0.02180807  0.35287381  0.08649765  1
  Na  Na6  1  0.00484700  0.99431705  0.49527891  1
  Na  Na7  1  0.49567145  0.00584288  0.50007372  1
  Na  Na8  1  0.99682845  0.98664683  0.00222305  1
  Na  Na9  1  0.50302304  0.00726851  0.99970839  1
  Na  Na10  1  0.32841891  0.32265114  0.82073641  1
  Na  Na11  1  0.82900243  0.33027638  0.83341302  1
  Na  Na12  1  0.32682411  0.32583741  0.33448877  1
  Na  Na13  1  0.83470278  0.34169016  0.32474687  1
  Na  Na14  1  0.16427435  0.66488639  0.16116015  1
  Na  Na15  1  0.67156723  0.67485183  0.17079468  1
  Na  Na16  1  0.17142534  0.66726474  0.66631813  1
  Na  Na17  1  0.66518499  0.66460342  0.65626193  1
  Mg  Mg0  1  0.33495815  0.32435883  0.68900066  1
  Mg  Mg1  1  0.82678726  0.33088384  0.67833681  1
  Mg  Mg2  1  0.32523073  0.31983669  0.18112772  1
  Mg  Mg3  1  0.83728709  0.34631057  0.19107235  1
  Mg  Mg4  1  0.16608772  0.66856918  0.02455766  1
  Mg  Mg5  1  0.66661170  0.66525922  0.52379752  1
  Zr  Zr0  1  0.00003063  0.99093304  0.35506936  1
  Zr  Zr1  1  0.50237244  0.99917827  0.35255292  1
  Zr  Zr2  1  0.00310599  0.00517729  0.85205593  1
  Zr  Zr3  1  0.49936427  0.99771512  0.85059064  1
  Zr  Zr4  1  0.00511423  0.00437214  0.64661450  1
  Zr  Zr5  1  0.49371243  0.00465741  0.64465697  1
  Zr  Zr6  1  0.99534900  0.98465069  0.14804255  1
  Zr  Zr7  1  0.50322043  0.00556662  0.14965369  1
  Zr  Zr8  1  0.32820197  0.31789966  0.98571715  1
  Zr  Zr9  1  0.83337080  0.34709949  0.97843371  1
  Zr  Zr10  1  0.33253008  0.31875013  0.47768561  1
  Zr  Zr11  1  0.83269473  0.34798482  0.48320431  1
  Zr  Zr12  1  0.67201244  0.67885675  0.01576395  1
  Zr  Zr13  1  0.16741058  0.66765583  0.51183105  1
  Zr  Zr14  1  0.16475025  0.66234629  0.31956889  1
  Zr  Zr15  1  0.67213816  0.67975447  0.30976452  1
  Zr  Zr16  1  0.17104966  0.66438581  0.80847785  1
  Zr  Zr17  1  0.67211488  0.67779481  0.81583909  1
  Si  Si0  1  0.65090547  0.00895380  0.24911592  1
  Si  Si1  1  0.85467366  0.70112868  0.25078337  1
  Si  Si2  1  0.15093306  0.29201471  0.74893462  1
  Si  Si3  1  0.35519821  0.01082255  0.75050901  1
  Si  Si4  1  0.47686656  0.33974863  0.58572835  1
  Si  Si5  1  0.68853717  0.03947689  0.58506408  1
  Si  Si6  1  0.83379045  0.62786878  0.58653709  1
  Si  Si7  1  0.97688295  0.61693625  0.08584651  1
  Si  Si8  1  0.33498029  0.04050186  0.08596629  1
  Si  Si9  1  0.18677001  0.33698512  0.08635420  1
  Si  Si10  1  0.81543430  0.67105439  0.91541560  1
  Si  Si11  1  0.66584143  0.96234372  0.91695394  1
  Si  Si12  1  0.31498667  0.95823565  0.41504097  1
  Si  Si13  1  0.16663658  0.37238220  0.41670519  1
  Si  Si14  1  0.01694924  0.66049769  0.41683422  1
  S  S0  1  0.14905951  0.00321266  0.24969319  1
  S  S1  1  0.35374898  0.70351307  0.24899028  1
  S  S2  1  0.00053117  0.29231975  0.24902236  1
  S  S3  1  0.49694237  0.29148960  0.25078142  1
  S  S4  1  0.64802422  0.29347031  0.74986418  1
  S  S5  1  0.99689689  0.70353074  0.75047935  1
  S  S6  1  0.49998300  0.70615445  0.74906222  1
  S  S7  1  0.85500480  0.00530615  0.74913986  1
  S  S8  1  0.97944311  0.33790465  0.58588064  1
  S  S9  1  0.19005388  0.04209318  0.58529355  1
  S  S10  1  0.32993709  0.61633689  0.58522454  1
  S  S11  1  0.47923277  0.62120197  0.08491907  1
  S  S12  1  0.83141290  0.04465340  0.08445921  1
  S  S13  1  0.68833739  0.33534615  0.08421334  1
  S  S14  1  0.31173770  0.66536066  0.91801665  1
  S  S15  1  0.02294144  0.37857268  0.91765383  1
  S  S16  1  0.52063859  0.37624080  0.91629648  1
  S  S17  1  0.16711608  0.95514581  0.91703809  1
  S  S18  1  0.81059770  0.95673210  0.41870639  1
  S  S19  1  0.66599183  0.37860979  0.41721084  1
  S  S20  1  0.52300505  0.66698273  0.41781327  1
  O  O0  1  0.10573615  0.02367079  0.30052491  1
  O  O1  1  0.59754152  0.02478161  0.30442442  1
  O  O2  1  0.40780058  0.79502894  0.29979236  1
  O  O3  1  0.91342585  0.80891454  0.30559686  1
  O  O4  1  0.48532345  0.18313470  0.30165011  1
  O  O5  1  0.99265416  0.18752727  0.29973745  1
  O  O6  1  0.09797590  0.17107515  0.80516820  1
  O  O7  1  0.60411598  0.18540329  0.80148276  1
  O  O8  1  0.49232568  0.79774071  0.80087800  1
  O  O9  1  0.98551749  0.78868024  0.80196675  1
  O  O10  1  0.41383201  0.02091958  0.80686860  1
  O  O11  1  0.90735650  0.01963109  0.80060341  1
  O  O12  1  0.39894926  0.96772543  0.69622875  1
  O  O13  1  0.89365617  0.97578314  0.69730019  1
  O  O14  1  0.08495292  0.19803323  0.69494065  1
  O  O15  1  0.59520893  0.21255108  0.69816619  1
  O  O16  1  0.01161156  0.81317012  0.69937969  1
  O  O17  1  0.51566554  0.81346137  0.69766109  1
  O  O18  1  0.39514402  0.81245170  0.19642775  1
  O  O19  1  0.89684900  0.82799318  0.19449547  1
  O  O20  1  0.01394444  0.21346256  0.19603197  1
  O  O21  1  0.51164731  0.21057635  0.19907042  1
  O  O22  1  0.09592175  0.97998134  0.19709390  1
  O  O23  1  0.58529293  0.97157739  0.19392903  1
  O  O24  1  0.43404570  0.37691061  0.63925899  1
  O  O25  1  0.93972919  0.35885033  0.63713490  1
  O  O26  1  0.24026120  0.12371036  0.63568556  1
  O  O27  1  0.74987864  0.12152480  0.63951601  1
  O  O28  1  0.31885075  0.51690967  0.63633528  1
  O  O29  1  0.81758973  0.50968619  0.64104533  1
  O  O30  1  0.44019620  0.52013505  0.13609845  1
  O  O31  1  0.93267986  0.48895227  0.13789621  1
  O  O32  1  0.31893207  0.12967624  0.13931074  1
  O  O33  1  0.81736361  0.11762881  0.13573063  1
  O  O34  1  0.25118104  0.37800446  0.13846455  1
  O  O35  1  0.73991343  0.36022965  0.13492047  1
  O  O36  1  0.23132198  0.29659097  0.02838474  1
  O  O37  1  0.72488288  0.30582964  0.03112568  1
  O  O38  1  0.42615191  0.54526717  0.03205950  1
  O  O39  1  0.91759339  0.53192813  0.02694912  1
  O  O40  1  0.35288685  0.16322535  0.02707080  1
  O  O41  1  0.84345740  0.14499010  0.03177718  1
  O  O42  1  0.22528460  0.14324699  0.53191753  1
  O  O43  1  0.73150609  0.16662675  0.52829844  1
  O  O44  1  0.34409818  0.54238473  0.53252392  1
  O  O45  1  0.85280331  0.54470761  0.52844926  1
  O  O46  1  0.41762574  0.30531622  0.52763384  1
  O  O47  1  0.92657340  0.30575818  0.53339697  1
  O  O48  1  0.27322501  0.69147582  0.96936933  1
  O  O49  1  0.76729410  0.69280659  0.97187100  1
  O  O50  1  0.07394627  0.45353648  0.96934975  1
  O  O51  1  0.57304928  0.45543554  0.96838774  1
  O  O52  1  0.15543792  0.85653783  0.96930568  1
  O  O53  1  0.65012470  0.83698136  0.97255182  1
  O  O54  1  0.27147848  0.84478473  0.47264231  1
  O  O55  1  0.77163358  0.85136420  0.46954561  1
  O  O56  1  0.15156920  0.46176889  0.47327798  1
  O  O57  1  0.65414862  0.45384865  0.46929501  1
  O  O58  1  0.07743990  0.69362079  0.47330760  1
  O  O59  1  0.57378675  0.69391959  0.46942724  1
  O  O60  1  0.06438960  0.63856144  0.36051389  1
  O  O61  1  0.56245127  0.64139725  0.36608903  1
  O  O62  1  0.25528861  0.86973213  0.35904608  1
  O  O63  1  0.75720451  0.87248402  0.36639756  1
  O  O64  1  0.18259118  0.49285505  0.36036828  1
  O  O65  1  0.67586742  0.48171918  0.36565281  1
  O  O66  1  0.06246043  0.48364460  0.86612783  1
  O  O67  1  0.56235540  0.48023967  0.86467831  1
  O  O68  1  0.17728297  0.87292173  0.86567791  1
  O  O69  1  0.67749064  0.86359799  0.86118448  1
  O  O70  1  0.25839965  0.64126969  0.86622437  1
  O  O71  1  0.75359897  0.64076701  0.86001696  1
  O  O72  1  0.00892961  0.83259682  0.41097491  1
  O  O73  1  0.51270023  0.82148626  0.40978288  1
  O  O74  1  0.41033273  0.97937076  0.40815698  1
  O  O75  1  0.89710599  0.97676563  0.41044364  1
  O  O76  1  0.08089238  0.18628808  0.40891670  1
  O  O77  1  0.58826212  0.20336500  0.40999071  1
  O  O78  1  0.01246552  0.20356897  0.90955676  1
  O  O79  1  0.51199261  0.20423184  0.91083908  1
  O  O80  1  0.08984682  0.97612062  0.91023756  1
  O  O81  1  0.58037321  0.97968967  0.90986772  1
  O  O82  1  0.39869538  0.82081308  0.90990384  1
  O  O83  1  0.90922343  0.84132491  0.90884362  1
  O  O84  1  0.48986334  0.16753576  0.59028809  1
  O  O85  1  0.98553270  0.17608142  0.59068527  1
  O  O86  1  0.10084194  0.02066755  0.58996825  1
  O  O87  1  0.59132575  0.01951209  0.59221487  1
  O  O88  1  0.41196234  0.79101336  0.58937511  1
  O  O89  1  0.91862407  0.82633599  0.59217151  1
  O  O90  1  0.48625047  0.79459113  0.08901340  1
  O  O91  1  0.99020013  0.81419287  0.09049158  1
  O  O92  1  0.41953641  0.01127075  0.09002029  1
  O  O93  1  0.91118756  0.03104321  0.08839567  1
  O  O94  1  0.09075410  0.16311069  0.09057019  1
  O  O95  1  0.60011085  0.17954658  0.08915323  1
  O  O96  1  0.34632411  0.17508303  0.74707633  1
  O  O97  1  0.84735593  0.15803724  0.74520588  1
  O  O98  1  0.24411861  0.31960404  0.74295088  1
  O  O99  1  0.73309952  0.31076113  0.74635914  1
  O  O100  1  0.42279175  0.54042752  0.74595245  1
  O  O101  1  0.92202971  0.53312434  0.74458548  1
  O  O102  1  0.34870205  0.53752064  0.24405698  1
  O  O103  1  0.84516840  0.51856424  0.24639780  1
  O  O104  1  0.42205349  0.31121488  0.24375674  1
  O  O105  1  0.92341341  0.30541481  0.24405645  1
  O  O106  1  0.23384514  0.15754183  0.24496531  1
  O  O107  1  0.74385666  0.16763411  0.24181919  1
  O  O108  1  0.32323539  0.51416062  0.92249434  1
  O  O109  1  0.82256407  0.49902613  0.92075359  1
  O  O110  1  0.43546228  0.36086266  0.92170183  1
  O  O111  1  0.93488514  0.35324742  0.92256582  1
  O  O112  1  0.24466766  0.13099435  0.92086780  1
  O  O113  1  0.75232705  0.14497339  0.92449969  1
  O  O114  1  0.32410141  0.14731440  0.42094514  1
  O  O115  1  0.81943195  0.12752826  0.42286669  1
  O  O116  1  0.25245979  0.35802923  0.42512800  1
  O  O117  1  0.74255834  0.35721132  0.42074030  1
  O  O118  1  0.43502254  0.51654312  0.42251814  1
  O  O119  1  0.92366276  0.48793996  0.42262300  1
  O  O120  1  0.17524500  0.49982833  0.07405901  1
  O  O121  1  0.67570431  0.48560481  0.07595512  1
  O  O122  1  0.07324964  0.65013273  0.07521415  1
  O  O123  1  0.56606838  0.64310272  0.07682252  1
  O  O124  1  0.25199221  0.85427086  0.07433129  1
  O  O125  1  0.75565089  0.86528083  0.07729076  1
  O  O126  1  0.17815911  0.86768481  0.57915786  1
  O  O127  1  0.67439743  0.85000276  0.57457522  1
  O  O128  1  0.25603086  0.64593042  0.57900331  1
  O  O129  1  0.75133211  0.65042999  0.57543174  1
  O  O130  1  0.06685151  0.48699324  0.57932137  1
  O  O131  1  0.57367397  0.49784346  0.57556492  1
  O  O132  1  0.15522657  0.84620850  0.25395428  1
  O  O133  1  0.65008697  0.82505988  0.25807382  1
  O  O134  1  0.26900729  0.69055684  0.25345627  1
  O  O135  1  0.75841838  0.68670900  0.25775972  1
  O  O136  1  0.07938794  0.46537023  0.25358633  1
  O  O137  1  0.57650757  0.46015180  0.25741238  1
  O  O138  1  0.15100094  0.47530007  0.75847968  1
  O  O139  1  0.65314085  0.46230005  0.75682013  1
  O  O140  1  0.07648667  0.69365279  0.75797382  1
  O  O141  1  0.57788388  0.68905293  0.75721966  1
  O  O142  1  0.25987415  0.83278231  0.75896167  1
  O  O143  1  0.76846408  0.84667597  0.75527719  1
loop_
_geom_bond_atom_site_label_1
_geom_bond_atom_site_label_2
_geom_bond_distance
_geom_bond_site_symmetry_2
Na0 O129 2.413358 1_555
Na0 O131 2.470185 1_555
Na0 O87 2.583413 1_555
Na0 O84 2.587662 1_555
Na0 O57 2.813543 1_555
Na0 O29 2.884518 1_555
Na0 O43 2.885327 1_555
Na0 O15 2.947295 1_555
Na1 O131 2.372867 1_555
Na1 O127 2.390445 1_555
Na1 O88 2.554335 1_555
Na1 O87 2.581903 1_565
Na1 O24 2.782804 1_555
Na1 O59 2.836082 1_555
Na1 O17 2.898327 1_555
Na2 O127 2.361772 1_555
Na2 O129 2.388117 1_555
Na2 O89 2.522342 1_555
Na2 O85 2.593190 1_565
Na2 O27 2.790436 1_565
Na2 O55 2.803665 1_555
Na2 O13 2.931949 1_555
Na2 O47 2.988079 1_565
Na3 O124 2.420187 1_555
Na3 O122 2.448967 1_555
Na3 O91 2.560517 1_455
Na3 O94 2.588679 1_565
Na3 O52 2.861550 1_554
Na3 O22 2.867096 1_555
Na3 O32 2.875158 1_565
Na3 O36 2.929228 1_565
Na4 O120 2.354116 1_555
Na4 O124 2.389123 1_555
Na4 O92 2.510682 1_565
Na4 O90 2.606695 1_555
Na4 O34 2.764234 1_555
Na4 O48 2.846596 1_554
Na4 O18 2.870797 1_555
Na5 O122 2.377266 1_555
Na5 O120 2.410495 1_555
Na5 O93 2.573322 1_455
Na5 O94 2.576261 1_555
Na5 O31 2.742580 1_455
Na5 O20 2.825998 1_555
Na5 O50 2.889979 1_554
Na6 O72 2.477406 1_555
Na6 O76 2.564637 1_565
Na6 O75 2.724772 1_455
Na6 O89 2.735165 1_455
Na6 O86 2.746107 1_565
Na6 O85 2.893594 1_465
Na7 O74 2.583572 1_545
Na7 O84 2.598431 1_555
Na7 O77 2.723107 1_555
Na7 O87 2.723570 1_555
Na7 O88 2.731931 1_545
Na7 O73 2.800628 1_545
Na8 O91 2.552631 1_555
Na8 O83 2.628282 1_554
Na8 O94 2.640370 1_665
Na8 O93 2.687598 1_565
Na8 O80 2.757374 1_654
Na8 O78 2.839537 1_664
Na9 O81 2.600991 1_545
Na9 O92 2.603216 1_556
Na9 O95 2.670290 1_556
Na9 O79 2.687724 1_555
Na9 O90 2.750083 1_546
Na9 O82 2.758561 1_545
Na10 O96 2.298479 1_555
Na10 O98 2.361587 1_555
Na10 O100 2.542195 1_555
Na10 O112 2.851811 1_555
Na10 O110 2.957895 1_555
Na10 O108 2.971716 1_555
Na11 O109 2.586534 1_555
Na11 O99 2.618873 1_555
Na11 O113 2.631526 1_555
Na11 O97 2.702889 1_555
Na11 O101 2.719933 1_555
Na11 O111 2.763260 1_555
Na12 O114 2.571508 1_555
Na12 O116 2.600392 1_555
Na12 O106 2.636234 1_555
Na12 O102 2.743920 1_555
Na12 O118 2.764455 1_555
Na12 O104 2.772938 1_555
Na13 O103 2.375768 1_555
Na13 O107 2.516866 1_555
Na13 O105 2.597676 1_555
Na13 O119 2.726233 1_555
Na13 O117 2.836678 1_555
Na13 O115 2.924133 1_555
Na14 O122 2.555461 1_555
Na14 O120 2.590470 1_555
Na14 O124 2.613863 1_555
Na14 O136 2.736941 1_555
Na14 O132 2.773231 1_555
Na14 O134 2.799574 1_555
Na15 O135 2.535806 1_555
Na15 O133 2.585874 1_555
Na15 O125 2.723574 1_555
Na15 O137 2.731871 1_555
Na15 O121 2.824819 1_555
Na15 O123 2.825092 1_555
Na16 O128 2.612181 1_555
Na16 O142 2.661286 1_555
Na16 O138 2.673474 1_555
Na16 O126 2.688602 1_555
Na16 O130 2.695867 1_555
Na16 O140 2.825745 1_555
Na17 O131 2.461982 1_555
Na17 O129 2.489327 1_555
Na17 O127 2.490788 1_555
Na17 O141 2.905732 1_555
Na17 O143 2.909288 1_555
Na17 O139 2.918825 1_555
Mg0 O24 1.978600 1_555
Mg0 O96 1.996032 1_555
Mg0 O98 2.049822 1_555
Mg0 O26 2.157165 1_555
Mg0 O100 2.234880 1_555
Mg0 O28 2.266696 1_555
Mg1 O29 1.915627 1_555
Mg1 O27 1.922724 1_555
Mg1 O25 2.148997 1_555
Mg1 O99 2.259155 1_555
Mg1 O101 2.354291 1_555
Mg1 O97 2.367449 1_555
Mg2 O32 1.931262 1_555
Mg2 O34 1.938630 1_555
Mg2 O106 2.160038 1_555
Mg2 O30 2.216680 1_555
Mg2 O104 2.309613 1_555
Mg2 O102 2.320236 1_555
Mg3 O103 1.974314 1_555
Mg3 O31 1.984396 1_555
Mg3 O107 2.030041 1_555
Mg3 O105 2.158369 1_555
Mg3 O35 2.245711 1_555
Mg3 O33 2.309656 1_555
Mg4 O120 1.986565 1_555
Mg4 O122 1.987294 1_555
Mg4 O124 1.990975 1_555
Mg4 O52 2.218233 1_554
Mg4 O50 2.228569 1_554
Mg4 O48 2.243626 1_554
Mg5 O127 1.996228 1_555
Mg5 O129 2.003512 1_555
Mg5 O131 2.003849 1_555
Mg5 O55 2.196458 1_555
Mg5 O57 2.213202 1_555
Mg5 O59 2.217893 1_555
O0 S0 1.483522 1_555
O0 Zr0 2.185484 1_545
O1 Si0 1.659879 1_555
O1 Zr1 1.965310 1_545
O2 S1 1.495616 1_555
O2 Zr1 2.163170 1_555
O3 Si1 1.636879 1_555
O3 Zr0 1.976628 1_655
O4 S3 1.487119 1_555
O4 Zr1 2.188494 1_545
O5 S2 1.479256 1_655
O5 Zr0 2.255450 1_645
O6 Si2 1.669247 1_555
O6 Zr2 1.949266 1_555
O7 S4 1.503428 1_555
O7 Zr3 2.131925 1_545
O8 S6 1.512419 1_555
O8 Zr3 2.099265 1_555
O9 S5 1.497524 1_555
O9 Zr2 2.163806 1_665
O10 Si3 1.663085 1_555
O10 Zr3 1.947179 1_545
O11 S7 1.494390 1_555
O11 Zr2 2.161169 1_655
O12 Si3 1.640792 1_565
O12 Zr5 1.977100 1_565
O13 S7 1.487209 1_565
O13 Zr4 2.232566 1_665
O14 Si2 1.648463 1_555
O14 Zr4 1.971481 1_555
O15 S4 1.484843 1_555
O15 Zr5 2.235361 1_555
O16 S5 1.488544 1_455
O16 Zr4 2.174061 1_565
O17 S6 1.479684 1_555
O17 Zr5 2.316590 1_565
O18 S1 1.516045 1_555
O18 Zr7 2.150273 1_565
O19 Si1 1.658024 1_555
O19 Zr6 1.952496 1_555
O20 S2 1.508277 1_555
O20 Zr6 2.226326 1_445
O21 S3 1.503968 1_555
O21 Zr7 2.124206 1_555
O22 S0 1.507621 1_565
O22 Zr6 2.163700 1_455
O23 Si0 1.666703 1_565
O23 Zr7 1.952359 1_565
O24 Si4 1.592101 1_555
O25 S8 1.455964 1_555
O26 S9 1.443113 1_555
O27 Si5 1.603705 1_555
O28 S10 1.447452 1_555
O29 Si6 1.592849 1_555
O30 S11 1.454500 1_555
O31 Si7 1.590027 1_555
O32 Si8 1.588551 1_555
O33 S12 1.450601 1_555
O34 Si9 1.593405 1_555
O35 S13 1.453060 1_555
O36 Si9 1.705574 1_555
O36 Zr8 1.934617 1_554
O37 S13 1.490538 1_555
O37 Zr9 2.178690 1_554
O38 S11 1.502044 1_555
O38 Zr8 2.208404 1_554
O39 Si7 1.675184 1_555
O39 Zr9 1.959591 1_554
O40 Si8 1.694422 1_555
O40 Zr8 1.926842 1_554
O41 S12 1.479495 1_555
O41 Zr9 2.293546 1_554
O42 S9 1.487664 1_555
O42 Zr10 2.186662 1_555
O43 Si5 1.669715 1_555
O43 Zr11 2.030628 1_555
O44 S10 1.483857 1_555
O44 Zr10 2.313862 1_555
O45 Si6 1.669117 1_555
O45 Zr11 1.941168 1_555
O46 Si4 1.658196 1_555
O46 Zr10 1.979743 1_555
O47 S8 1.490427 1_555
O47 Zr11 2.244079 1_555
O48 S14 1.463966 1_555
O49 Si10 1.644512 1_555
O49 Zr12 1.949355 1_556
O50 S15 1.463307 1_555
O51 S16 1.486875 1_555
O51 Zr12 2.208088 1_556
O52 S17 1.464078 1_555
O53 Si11 1.652734 1_555
O53 Zr12 1.945780 1_556
O54 Si12 1.634691 1_555
O54 Zr13 1.976435 1_555
O55 S18 1.463258 1_555
O56 Si13 1.642223 1_555
O56 Zr13 1.956208 1_555
O57 S19 1.461892 1_555
O58 Si14 1.641759 1_555
O58 Zr13 1.969608 1_555
O59 S20 1.459650 1_555
O60 Si14 1.635228 1_555
O60 Zr14 1.960464 1_555
O61 S20 1.478543 1_555
O61 Zr15 2.252379 1_555
O62 Si12 1.627719 1_555
O62 Zr14 1.990463 1_555
O63 S18 1.505887 1_555
O63 Zr15 2.112300 1_555
O64 Si13 1.639764 1_555
O64 Zr14 1.963639 1_555
O65 S19 1.478741 1_555
O65 Zr15 2.244491 1_555
O66 S15 1.476800 1_555
O66 Zr16 2.259533 1_555
O67 S16 1.481663 1_555
O67 Zr17 2.204431 1_555
O68 S17 1.471449 1_555
O68 Zr16 2.268199 1_555
O69 Si11 1.652208 1_555
O69 Zr17 1.947573 1_555
O70 S14 1.492936 1_555
O70 Zr16 2.162672 1_555
O71 Si10 1.640052 1_555
O71 Zr17 1.957183 1_555
O72 Si14 1.639068 1_555
O72 Zr0 2.003352 1_555
O73 S20 1.510464 1_555
O73 Zr1 2.169228 1_555
O74 Si12 1.638981 1_555
O74 Zr1 2.043202 1_555
O75 S18 1.489264 1_555
O75 Zr0 2.212262 1_655
O76 Si13 1.625872 1_555
O76 Zr0 2.061028 1_545
O77 S19 1.508131 1_555
O77 Zr1 2.177771 1_545
O78 S15 1.508458 1_555
O78 Zr2 2.179651 1_555
O79 S16 1.488665 1_555
O79 Zr3 2.257729 1_545
O80 S17 1.505423 1_555
O80 Zr2 2.185760 1_565
O81 Si11 1.633412 1_555
O81 Zr3 2.078367 1_555
O82 S14 1.502340 1_555
O82 Zr3 2.204205 1_555
O83 Si10 1.624636 1_555
O83 Zr2 2.074317 1_665
O84 Si4 1.690174 1_555
O84 Zr5 1.972598 1_555
O85 S8 1.525286 1_555
O85 Zr4 2.189546 1_655
O86 S9 1.523985 1_555
O86 Zr4 2.120428 1_555
O87 Si5 1.677267 1_555
O87 Zr5 2.092457 1_555
O88 S10 1.531819 1_555
O88 Zr5 2.172346 1_565
O89 Si6 1.679915 1_555
O89 Zr4 2.031175 1_665
O90 S11 1.511254 1_555
O90 Zr7 2.271178 1_565
O91 Si7 1.679498 1_555
O91 Zr6 2.012916 1_555
O92 Si8 1.675153 1_555
O92 Zr7 2.073977 1_555
O93 S12 1.506304 1_555
O93 Zr6 2.249863 1_545
O94 Si9 1.657031 1_555
O94 Zr6 2.139881 1_445
O95 S13 1.509402 1_555
O95 Zr7 2.183023 1_555
O96 Si3 1.573556 1_555
O97 S7 1.457879 1_555
O98 Si2 1.575571 1_555
O99 S4 1.463572 1_555
O100 S6 1.447162 1_555
O101 S5 1.458611 1_555
O102 S1 1.461880 1_555
O103 Si1 1.575050 1_555
O104 S3 1.456945 1_555
O105 S2 1.457742 1_655
O106 S0 1.467842 1_555
O107 Si0 1.575417 1_555
O108 S14 1.485623 1_555
O108 Zr8 2.345236 1_555
O109 Si10 1.628451 1_555
O109 Zr9 2.002840 1_555
O110 S16 1.475834 1_555
O110 Zr8 2.317943 1_555
O111 S15 1.489966 1_655
O111 Zr9 2.225666 1_555
O112 S17 1.503208 1_545
O112 Zr8 2.207012 1_555
O113 Si11 1.613974 1_545
O113 Zr9 2.094518 1_555
O114 Si12 1.639164 1_545
O114 Zr10 1.987525 1_555
O115 S18 1.474048 1_545
O115 Zr11 2.354472 1_555
O116 Si13 1.628004 1_555
O116 Zr10 2.057807 1_555
O117 S19 1.488958 1_555
O117 Zr11 2.217456 1_555
O118 S20 1.487367 1_555
O118 Zr10 2.226310 1_555
O119 Si14 1.626910 1_655
O119 Zr11 2.052148 1_555
O120 Si9 1.612573 1_555
O121 S13 1.498397 1_555
O121 Zr12 2.270138 1_555
O122 Si7 1.626510 1_455
O123 S11 1.487840 1_555
O123 Zr12 2.273209 1_555
O124 Si8 1.618504 1_565
O125 S12 1.516849 1_565
O125 Zr12 2.153046 1_555
O126 S9 1.487954 1_565
O126 Zr13 2.331533 1_555
O127 Si5 1.619241 1_565
O128 S10 1.491724 1_555
O128 Zr13 2.318020 1_555
O129 Si6 1.619467 1_555
O130 S8 1.480287 1_455
O130 Zr13 2.338585 1_555
O131 Si4 1.625097 1_555
O132 S0 1.481792 1_565
O132 Zr14 2.330632 1_555
O133 Si0 1.668468 1_565
O133 Zr15 1.966785 1_555
O134 S1 1.475839 1_555
O134 Zr14 2.345752 1_555
O135 Si1 1.681255 1_555
O135 Zr15 1.949730 1_555
O136 S2 1.499368 1_555
O136 Zr14 2.274194 1_555
O137 S3 1.487201 1_555
O137 Zr15 2.231503 1_555
O138 Si2 1.671568 1_555
O138 Zr16 1.949615 1_555
O139 S4 1.491274 1_555
O139 Zr17 2.269362 1_555
O140 S5 1.491822 1_455
O140 Zr16 2.196259 1_555
O141 S6 1.500010 1_555
O141 Zr17 2.224584 1_555
O142 Si3 1.675249 1_565
O142 Zr16 1.942505 1_555
O143 S7 1.505133 1_565
O143 Zr17 2.165306 1_555
