# generated using pymatgen
data_K4MgV2(AgS4)2
_symmetry_space_group_name_H-M   'P 1'
_cell_length_a   5.80754564
_cell_length_b   7.03808667
_cell_length_c   12.91481682
_cell_angle_alpha   86.94642099
_cell_angle_beta   82.57926913
_cell_angle_gamma   65.61760083
_symmetry_Int_Tables_number   1
_chemical_formula_structural   K4MgV2(AgS4)2
_chemical_formula_sum   'K4 Mg1 V2 Ag2 S8'
_cell_volume   476.77203833
_cell_formula_units_Z   1
loop_
 _symmetry_equiv_pos_site_id
 _symmetry_equiv_pos_as_xyz
  1  'x, y, z'
loop_
 _atom_site_type_symbol
 _atom_site_label
 _atom_site_symmetry_multiplicity
 _atom_site_fract_x
 _atom_site_fract_y
 _atom_site_fract_z
 _atom_site_occupancy
  K  K0  1  0.40124620  0.27625859  0.94848371  1
  K  K1  1  0.43100449  0.74542614  0.11391650  1
  K  K2  1  0.32158337  0.27641039  0.55158227  1
  K  K3  1  0.82337911  0.74554189  0.38640117  1
  Mg  Mg0  1  0.88507681  0.22878615  0.74985149  1
  V  V0  1  0.62035251  0.75877792  0.74987329  1
  V  V1  1  0.36814992  0.26353546  0.25006452  1
  Ag  Ag0  1  0.16911341  0.66136830  0.75006697  1
  Ag  Ag1  1  0.87809240  0.24364199  0.25002927  1
  S  S0  1  0.86856132  0.51913987  0.86202651  1
  S  S1  1  0.61169967  0.51902634  0.63773801  1
  S  S2  1  0.79706625  0.95978480  0.65856694  1
  S  S3  1  0.24258552  0.96019904  0.84108034  1
  S  S4  1  0.07774994  0.47387618  0.15487617  1
  S  S5  1  0.24334334  0.05834279  0.35506450  1
  S  S6  1  0.44811684  0.47370400  0.34533789  1
  S  S7  1  0.69829590  0.05840215  0.14504045  1
loop_
_geom_bond_atom_site_label_1
_geom_bond_atom_site_label_2
_geom_bond_distance
_geom_bond_site_symmetry_2
K0 S4 3.084322 1_556
K0 S0 3.172041 1_455
K0 S3 3.173713 1_545
K0 S7 3.209919 1_556
K1 S7 3.240685 1_565
K1 S4 3.315200 1_555
K1 S6 3.451193 1_555
K1 S4 3.538175 1_655
K2 S6 3.083143 1_555
K2 S1 3.170904 1_555
K2 S2 3.174440 1_545
K2 S5 3.208127 1_555
K3 S5 3.239142 1_565
K3 S6 3.314400 1_655
K3 S4 3.451785 1_655
K3 S6 3.541254 1_555
Mg0 S1 2.528017 1_555
Mg0 S0 2.530160 1_555
Mg0 S3 2.535041 1_645
Mg0 S2 2.535339 1_545
Ag0 S0 2.603057 1_455
Ag0 S1 2.603927 1_555
Ag0 S3 2.668521 1_555
Ag0 S2 2.669165 1_455
Ag1 S7 2.511285 1_555
Ag1 S5 2.512210 1_655
Ag1 S4 2.539972 1_655
Ag1 S6 2.540168 1_555
S0 V0 2.300475 1_555
S1 V0 2.301365 1_555
S2 V0 2.270143 1_555
S3 V0 2.269988 1_555
S4 V1 2.197140 1_555
S5 V1 2.202630 1_555
S6 V1 2.196892 1_555
S7 V1 2.202650 1_555
