# generated using pymatgen
data_Na2Ti4Ga4Si3(S3O16)3
_symmetry_space_group_name_H-M   'P 1'
_cell_length_a   17.21670468
_cell_length_b   8.59815513
_cell_length_c   22.33568841
_cell_angle_alpha   89.80502721
_cell_angle_beta   90.19617296
_cell_angle_gamma   120.01355730
_symmetry_Int_Tables_number   1
_chemical_formula_structural   Na2Ti4Ga4Si3(S3O16)3
_chemical_formula_sum   'Na6 Ti12 Ga12 Si9 S27 O144'
_cell_volume   2863.00800097
_cell_formula_units_Z   3
loop_
 _symmetry_equiv_pos_site_id
 _symmetry_equiv_pos_as_xyz
  1  'x, y, z'
loop_
 _atom_site_type_symbol
 _atom_site_label
 _atom_site_symmetry_multiplicity
 _atom_site_fract_x
 _atom_site_fract_y
 _atom_site_fract_z
 _atom_site_occupancy
  Na  Na0  1  0.99747339  0.00330281  0.50037222  1
  Na  Na1  1  0.49798985  0.99262546  0.00258141  1
  Na  Na2  1  0.33113067  0.32868729  0.83717048  1
  Na  Na3  1  0.83036538  0.33172449  0.83283483  1
  Na  Na4  1  0.33192572  0.32944833  0.33208467  1
  Na  Na5  1  0.82854048  0.32955445  0.33507201  1
  Ti  Ti0  1  0.51339152  0.01693431  0.35596023  1
  Ti  Ti1  1  0.00410297  0.99817032  0.85995647  1
  Ti  Ti2  1  0.50799312  0.02445931  0.64464804  1
  Ti  Ti3  1  0.00704734  0.98894264  0.14485830  1
  Ti  Ti4  1  0.34013235  0.33950232  0.68456224  1
  Ti  Ti5  1  0.83349189  0.33385624  0.68605128  1
  Ti  Ti6  1  0.33585190  0.33562339  0.18822079  1
  Ti  Ti7  1  0.83522372  0.33297920  0.18947086  1
  Ti  Ti8  1  0.16189603  0.67890650  0.02512363  1
  Ti  Ti9  1  0.66123899  0.66529988  0.02710207  1
  Ti  Ti10  1  0.16151837  0.65822485  0.52403748  1
  Ti  Ti11  1  0.66145539  0.64655832  0.52115364  1
  Ga  Ga0  1  0.00190749  0.00074120  0.34822644  1
  Ga  Ga1  1  0.50314277  0.00499259  0.85006509  1
  Ga  Ga2  1  0.99783415  0.00785600  0.64756590  1
  Ga  Ga3  1  0.50103317  0.98112032  0.14950631  1
  Ga  Ga4  1  0.33119559  0.33313898  0.98262979  1
  Ga  Ga5  1  0.83516350  0.33963450  0.98486612  1
  Ga  Ga6  1  0.33611505  0.32982428  0.48097254  1
  Ga  Ga7  1  0.83170422  0.32759398  0.48029757  1
  Ga  Ga8  1  0.16815975  0.67664992  0.30947507  1
  Ga  Ga9  1  0.66767480  0.66482524  0.31219354  1
  Ga  Ga10  1  0.16924307  0.67749163  0.81619628  1
  Ga  Ga11  1  0.66614480  0.65729966  0.81060453  1
  Si  Si0  1  0.14611853  0.99911131  0.25337682  1
  Si  Si1  1  0.64551223  0.99124128  0.24942365  1
  Si  Si2  1  0.64653303  0.29427537  0.75323212  1
  Si  Si3  1  0.47747681  0.33396385  0.58029683  1
  Si  Si4  1  0.97274933  0.32399264  0.58234587  1
  Si  Si5  1  0.47118021  0.62238777  0.08186769  1
  Si  Si6  1  0.97383548  0.61590542  0.08268456  1
  Si  Si7  1  0.17430041  0.96316397  0.91646283  1
  Si  Si8  1  0.67291542  0.38482255  0.41450553  1
  S  S0  1  0.35475144  0.71252236  0.25127122  1
  S  S1  1  0.85580470  0.71359174  0.24971454  1
  S  S2  1  0.00175247  0.28901596  0.25081036  1
  S  S3  1  0.50086365  0.28592683  0.24882938  1
  S  S4  1  0.14441936  0.29332839  0.75114713  1
  S  S5  1  0.00222978  0.71540348  0.74962902  1
  S  S6  1  0.50032707  0.71284452  0.75091109  1
  S  S7  1  0.35364638  0.99508831  0.74998297  1
  S  S8  1  0.85536166  0.99786447  0.75124311  1
  S  S9  1  0.18843793  0.04571611  0.58292025  1
  S  S10  1  0.68912155  0.04255854  0.58277658  1
  S  S11  1  0.33435943  0.62280038  0.58237451  1
  S  S12  1  0.83501643  0.62547251  0.58321876  1
  S  S13  1  0.33597782  0.04588950  0.08382071  1
  S  S14  1  0.83456974  0.04636351  0.08290913  1
  S  S15  1  0.18911218  0.33505890  0.08298112  1
  S  S16  1  0.68801572  0.33079943  0.08244403  1
  S  S17  1  0.31319243  0.67037148  0.91522885  1
  S  S18  1  0.80962433  0.66317279  0.91659963  1
  S  S19  1  0.02102922  0.37857623  0.91605146  1
  S  S20  1  0.52246208  0.37741437  0.91645269  1
  S  S21  1  0.66737513  0.95591548  0.91649111  1
  S  S22  1  0.31016711  0.95490641  0.41670439  1
  S  S23  1  0.81417361  0.95701928  0.41606276  1
  S  S24  1  0.16721914  0.37812614  0.41654359  1
  S  S25  1  0.02249939  0.66764446  0.41595977  1
  S  S26  1  0.51977218  0.66323709  0.41668284  1
  O  O0  1  0.10387807  0.04506248  0.31044690  1
  O  O1  1  0.59960502  0.03482963  0.30849097  1
  O  O2  1  0.41135510  0.79238397  0.30447035  1
  O  O3  1  0.91055444  0.78625545  0.30503819  1
  O  O4  1  0.48213795  0.17169834  0.30325093  1
  O  O5  1  0.98004614  0.17606376  0.30590181  1
  O  O6  1  0.10245611  0.17601576  0.80458124  1
  O  O7  1  0.60329139  0.16178360  0.80989439  1
  O  O8  1  0.47884052  0.78209619  0.80544799  1
  O  O9  1  0.98600729  0.79861500  0.80330261  1
  O  O10  1  0.40889795  0.03352251  0.80493003  1
  O  O11  1  0.91307080  0.03054822  0.80424831  1
  O  O12  1  0.39602432  0.96947262  0.69673549  1
  O  O13  1  0.89356263  0.96454812  0.69674339  1
  O  O14  1  0.08991131  0.21280425  0.69671684  1
  O  O15  1  0.58318046  0.19371404  0.69330806  1
  O  O16  1  0.01597376  0.82565974  0.69533433  1
  O  O17  1  0.51159612  0.81790342  0.69688971  1
  O  O18  1  0.39052892  0.82006041  0.19618275  1
  O  O19  1  0.89821791  0.82624717  0.19655924  1
  O  O20  1  0.01289939  0.20593221  0.19716415  1
  O  O21  1  0.51211120  0.20430694  0.19437091  1
  O  O22  1  0.08309962  0.97249267  0.19334812  1
  O  O23  1  0.58593760  0.96681934  0.19185748  1
  O  O24  1  0.42931071  0.36409110  0.64095900  1
  O  O25  1  0.92979780  0.36488820  0.64175770  1
  O  O26  1  0.24503949  0.12900758  0.63702175  1
  O  O27  1  0.74564635  0.12903288  0.63708300  1
  O  O28  1  0.31562544  0.50342587  0.63679930  1
  O  O29  1  0.81744912  0.51126094  0.63759343  1
  O  O30  1  0.42932022  0.49462024  0.14102092  1
  O  O31  1  0.92755585  0.49097960  0.14141234  1
  O  O32  1  0.31684108  0.12331868  0.13708306  1
  O  O33  1  0.81449404  0.12359760  0.13593564  1
  O  O34  1  0.24572868  0.36361914  0.13658179  1
  O  O35  1  0.74441230  0.36323280  0.13567663  1
  O  O36  1  0.22453464  0.29278787  0.02923482  1
  O  O37  1  0.72533943  0.29429780  0.02751221  1
  O  O38  1  0.41493641  0.53001918  0.02234280  1
  O  O39  1  0.91652710  0.53817053  0.02282149  1
  O  O40  1  0.35035385  0.15251278  0.02886084  1
  O  O41  1  0.84862689  0.15402215  0.02765956  1
  O  O42  1  0.22533082  0.15816894  0.52875358  1
  O  O43  1  0.72494205  0.15785656  0.52972988  1
  O  O44  1  0.34841434  0.54127119  0.52873085  1
  O  O45  1  0.85083361  0.54771304  0.52948598  1
  O  O46  1  0.41353943  0.29367460  0.52464674  1
  O  O47  1  0.91418222  0.29832022  0.52369185  1
  O  O48  1  0.27256741  0.69830857  0.96868777  1
  O  O49  1  0.77101827  0.69469394  0.97014257  1
  O  O50  1  0.07677680  0.45515686  0.96958811  1
  O  O51  1  0.58005422  0.46168087  0.97021049  1
  O  O52  1  0.15167537  0.83097017  0.97477133  1
  O  O53  1  0.65510753  0.84437219  0.97056513  1
  O  O54  1  0.26766667  0.84523190  0.47109353  1
  O  O55  1  0.77327283  0.84850087  0.47056057  1
  O  O56  1  0.15496758  0.46518595  0.47110868  1
  O  O57  1  0.65324995  0.47446566  0.47462339  1
  O  O58  1  0.07984395  0.69722595  0.47060353  1
  O  O59  1  0.57605573  0.69536621  0.47103282  1
  O  O60  1  0.06311687  0.63620900  0.36286436  1
  O  O61  1  0.55838855  0.62888546  0.36337643  1
  O  O62  1  0.25315510  0.87424125  0.36298066  1
  O  O63  1  0.75978711  0.87967143  0.36182403  1
  O  O64  1  0.18211760  0.48792601  0.36248094  1
  O  O65  1  0.68557184  0.50617292  0.35688669  1
  O  O66  1  0.06034443  0.48770226  0.86119237  1
  O  O67  1  0.56274503  0.48973662  0.86241583  1
  O  O68  1  0.18616906  0.87458889  0.85679276  1
  O  O69  1  0.68219793  0.87659012  0.86191240  1
  O  O70  1  0.25780121  0.63679439  0.85998039  1
  O  O71  1  0.75510154  0.63515842  0.86204622  1
  O  O72  1  0.01404604  0.83139624  0.41194568  1
  O  O73  1  0.50923909  0.82254149  0.40973381  1
  O  O74  1  0.39851213  0.97301864  0.40903333  1
  O  O75  1  0.90568014  0.97415421  0.40992291  1
  O  O76  1  0.08486992  0.19965639  0.41297151  1
  O  O77  1  0.57957109  0.18947597  0.40791574  1
  O  O78  1  0.01142392  0.19732459  0.90697597  1
  O  O79  1  0.51371315  0.19595664  0.91162365  1
  O  O80  1  0.08147386  0.97714548  0.90473551  1
  O  O81  1  0.58460739  0.96914639  0.91233272  1
  O  O82  1  0.40441242  0.83673386  0.90799355  1
  O  O83  1  0.90027424  0.82522079  0.90736760  1
  O  O84  1  0.48564199  0.15709489  0.59365021  1
  O  O85  1  0.99052379  0.15727657  0.59105669  1
  O  O86  1  0.09766155  0.01950009  0.59149234  1
  O  O87  1  0.59829176  0.01820896  0.59293932  1
  O  O88  1  0.41296225  0.79676187  0.59341991  1
  O  O89  1  0.91689934  0.80352433  0.59195776  1
  O  O90  1  0.48676453  0.82235229  0.08758816  1
  O  O91  1  0.98641582  0.81474580  0.09317275  1
  O  O92  1  0.41639116  0.02923850  0.09208987  1
  O  O93  1  0.91282134  0.02798770  0.09241801  1
  O  O94  1  0.09811593  0.17915235  0.09242284  1
  O  O95  1  0.59674014  0.17874102  0.08876706  1
  O  O96  1  0.34300459  0.15877490  0.74221787  1
  O  O97  1  0.84765867  0.16279847  0.74395202  1
  O  O98  1  0.23432487  0.30955552  0.74389190  1
  O  O99  1  0.74471828  0.31098093  0.73978741  1
  O  O100  1  0.41740656  0.52704309  0.74351350  1
  O  O101  1  0.91938777  0.53579508  0.74427985  1
  O  O102  1  0.34653553  0.53078501  0.24375933  1
  O  O103  1  0.84723179  0.53204159  0.24281580  1
  O  O104  1  0.41794966  0.30343216  0.24374891  1
  O  O105  1  0.92010162  0.30946433  0.24416939  1
  O  O106  1  0.24415550  0.17835397  0.23949122  1
  O  O107  1  0.74447094  0.17681903  0.24026774  1
  O  O108  1  0.32352419  0.51040520  0.92032600  1
  O  O109  1  0.81968427  0.50111241  0.92130456  1
  O  O110  1  0.43310540  0.35813384  0.92218726  1
  O  O111  1  0.92929537  0.35345606  0.92184408  1
  O  O112  1  0.25754207  0.16265823  0.92595927  1
  O  O113  1  0.74833383  0.13848243  0.92361467  1
  O  O114  1  0.31734961  0.13634209  0.42189859  1
  O  O115  1  0.82439628  0.13824184  0.42169425  1
  O  O116  1  0.24836042  0.35894829  0.42437534  1
  O  O117  1  0.75775035  0.35641570  0.42558348  1
  O  O118  1  0.42788553  0.50201769  0.42333289  1
  O  O119  1  0.93326708  0.50752055  0.42266866  1
  O  O120  1  0.18206695  0.49665629  0.07386722  1
  O  O121  1  0.68312233  0.49830069  0.07316009  1
  O  O122  1  0.07364012  0.63690277  0.07465079  1
  O  O123  1  0.57291444  0.64145597  0.07079796  1
  O  O124  1  0.25603135  0.86362366  0.07586928  1
  O  O125  1  0.75342150  0.86533531  0.07343408  1
  O  O126  1  0.18243991  0.86880347  0.57503759  1
  O  O127  1  0.68207712  0.86787037  0.57533065  1
  O  O128  1  0.25323279  0.63995894  0.57478360  1
  O  O129  1  0.75627629  0.64906704  0.57614150  1
  O  O130  1  0.07408736  0.50632815  0.57039977  1
  O  O131  1  0.57522846  0.51294359  0.57509862  1
  O  O132  1  0.15443256  0.82311106  0.25817658  1
  O  O133  1  0.65701793  0.82225110  0.26346046  1
  O  O134  1  0.26376402  0.68416136  0.25926199  1
  O  O135  1  0.76662088  0.69294687  0.25508747  1
  O  O136  1  0.08172183  0.46561604  0.25940986  1
  O  O137  1  0.57918303  0.46493092  0.25636967  1
  O  O138  1  0.15390898  0.47194311  0.76009065  1
  O  O139  1  0.65502416  0.48717117  0.75835659  1
  O  O140  1  0.08054618  0.69175893  0.75707284  1
  O  O141  1  0.57976972  0.69420550  0.75904787  1
  O  O142  1  0.26450063  0.83433443  0.75581308  1
  O  O143  1  0.76510097  0.84269937  0.75923579  1
loop_
_geom_bond_atom_site_label_1
_geom_bond_atom_site_label_2
_geom_bond_distance
_geom_bond_site_symmetry_2
Na0 O85 2.459274 1_555
Na0 O75 2.495425 1_545
Na0 O76 2.526179 1_655
Na0 O72 2.571509 1_645
Na0 O89 2.582872 1_545
Na0 O86 2.621916 1_655
Na1 O90 2.342282 1_555
Na1 O95 2.536489 1_565
Na1 O92 2.556486 1_565
Na1 O81 2.579240 1_554
Na1 O82 2.586752 1_554
Na1 O79 2.600633 1_564
Na2 O112 2.400945 1_555
Na2 O108 2.476727 1_555
Na2 O110 2.507604 1_555
Na2 O98 2.617227 1_555
Na2 O100 2.636995 1_555
Na2 O96 2.645162 1_555
Na3 O99 2.498762 1_555
Na3 O109 2.519862 1_555
Na3 O113 2.552588 1_555
Na3 O111 2.559179 1_555
Na3 O97 2.568230 1_555
Na3 O101 2.578141 1_555
Na4 O106 2.506262 1_555
Na4 O114 2.531395 1_555
Na4 O104 2.547720 1_555
Na4 O102 2.548837 1_555
Na4 O118 2.574887 1_555
Na4 O116 2.602395 1_555
Na5 O117 2.434627 1_555
Na5 O115 2.513185 1_555
Na5 O107 2.529789 1_555
Na5 O119 2.580028 1_555
Na5 O103 2.607762 1_555
Na5 O105 2.633239 1_555
Ga0 O0 1.810540 1_555
Ga0 O5 1.965510 1_455
Ga0 O3 1.976166 1_445
Ga0 O75 2.080999 1_445
Ga0 O72 2.116030 1_545
Ga0 O76 2.148340 1_555
Ga1 O7 1.808969 1_555
Ga1 O8 2.012235 1_545
Ga1 O10 2.023506 1_555
Ga1 O82 2.049053 1_545
Ga1 O79 2.081897 1_555
Ga1 O81 2.100626 1_545
Ga2 O85 1.846380 1_555
Ga2 O13 1.977352 1_545
Ga2 O14 2.007518 1_655
Ga2 O89 2.030973 1_545
Ga2 O16 2.041021 1_645
Ga2 O86 2.091484 1_655
Ga3 O23 1.793396 1_555
Ga3 O90 1.873915 1_555
Ga3 O18 1.998060 1_555
Ga3 O21 2.090145 1_565
Ga3 O92 2.127476 1_565
Ga3 O95 2.154402 1_565
Ga4 O38 1.814079 1_556
Ga4 O112 1.871077 1_555
Ga4 O36 1.987309 1_556
Ga4 O40 2.021450 1_556
Ga4 O108 2.112523 1_555
Ga4 O110 2.141080 1_555
Ga5 O39 1.790100 1_556
Ga5 O41 1.967861 1_556
Ga5 O37 1.976580 1_556
Ga5 O109 2.090070 1_555
Ga5 O111 2.108046 1_555
Ga5 O113 2.124449 1_555
Ga6 O46 1.796828 1_555
Ga6 O118 2.001644 1_555
Ga6 O114 2.021684 1_555
Ga6 O44 2.028436 1_555
Ga6 O42 2.035247 1_555
Ga6 O116 2.075250 1_555
Ga7 O47 1.834572 1_555
Ga7 O117 1.865199 1_555
Ga7 O43 2.011673 1_555
Ga7 O115 2.046524 1_555
Ga7 O45 2.070172 1_555
Ga7 O119 2.098409 1_555
Ga8 O132 1.800160 1_555
Ga8 O134 1.969039 1_555
Ga8 O62 1.992648 1_555
Ga8 O136 2.014586 1_555
Ga8 O60 2.048516 1_555
Ga8 O64 2.113666 1_555
Ga9 O133 1.813196 1_555
Ga9 O65 1.833409 1_555
Ga9 O135 2.046480 1_555
Ga9 O137 2.052269 1_555
Ga9 O63 2.056070 1_555
Ga9 O61 2.091242 1_555
Ga10 O68 1.814837 1_555
Ga10 O70 1.981078 1_555
Ga10 O142 2.029155 1_555
Ga10 O66 2.032022 1_555
Ga10 O140 2.064792 1_555
Ga10 O138 2.075963 1_555
Ga11 O139 1.807815 1_555
Ga11 O71 1.995038 1_555
Ga11 O67 2.005232 1_555
Ga11 O143 2.011001 1_555
Ga11 O141 2.023879 1_555
Ga11 O69 2.106178 1_555
O0 Si0 1.614640 1_545
O1 Si1 1.677070 1_545
O1 Ti0 1.769800 1_555
O2 S0 1.470136 1_555
O2 Ti0 2.178200 1_565
O3 S1 1.487921 1_555
O4 S3 1.491274 1_555
O4 Ti0 2.036566 1_555
O5 S2 1.492957 1_655
O6 S4 1.494146 1_555
O6 Ti1 2.036288 1_545
O7 Si2 1.613042 1_555
O8 S6 1.484448 1_555
O9 S5 1.495041 1_655
O9 Ti1 2.029681 1_655
O10 S7 1.483436 1_545
O11 S8 1.477382 1_545
O11 Ti1 2.121995 1_645
O12 S7 1.470987 1_555
O12 Ti2 2.095958 1_565
O13 S8 1.480793 1_555
O14 S4 1.478503 1_555
O15 Si2 1.668270 1_555
O15 Ti2 1.758208 1_555
O16 S5 1.481583 1_555
O17 S6 1.458892 1_555
O17 Ti2 2.148298 1_565
O18 S0 1.475130 1_555
O19 S1 1.473620 1_555
O19 Ti3 2.045178 1_655
O20 S2 1.458577 1_555
O20 Ti3 2.163769 1_545
O21 S3 1.467283 1_555
O22 Si0 1.664621 1_555
O22 Ti3 1.755556 1_555
O23 Si1 1.589554 1_555
O24 Si3 1.677974 1_555
O24 Ti4 1.742016 1_555
O25 Si4 1.643606 1_555
O25 Ti5 1.834669 1_555
O26 S9 1.490765 1_555
O26 Ti4 2.029875 1_555
O27 S10 1.498455 1_555
O27 Ti5 1.980484 1_555
O28 S11 1.515999 1_555
O28 Ti4 1.970852 1_555
O29 S12 1.492677 1_555
O29 Ti5 1.995657 1_555
O30 Si5 1.635994 1_555
O30 Ti6 1.835998 1_555
O31 Si6 1.628070 1_555
O31 Ti7 1.834693 1_555
O32 S13 1.481402 1_555
O32 Ti6 2.039080 1_555
O33 S14 1.483576 1_555
O33 Ti7 2.041370 1_555
O34 S15 1.482664 1_555
O34 Ti6 2.038455 1_555
O35 S16 1.468910 1_555
O35 Ti7 2.085106 1_555
O36 S15 1.474740 1_555
O37 S16 1.492174 1_555
O38 Si5 1.601585 1_555
O39 Si6 1.595411 1_555
O40 S13 1.475147 1_555
O41 S14 1.486078 1_555
O42 S9 1.478161 1_555
O43 S10 1.467080 1_555
O44 S11 1.470701 1_555
O45 S12 1.466762 1_555
O46 Si3 1.577601 1_555
O47 Si4 1.597504 1_555
O48 S17 1.465737 1_555
O48 Ti8 2.223586 1_556
O49 S18 1.460590 1_555
O49 Ti9 2.188855 1_556
O50 S19 1.466256 1_555
O50 Ti8 2.137922 1_556
O51 S20 1.492951 1_555
O51 Ti9 2.046554 1_556
O52 Si7 1.640200 1_555
O52 Ti8 1.795572 1_556
O53 S21 1.488076 1_555
O53 Ti9 2.030983 1_556
O54 S22 1.486082 1_555
O54 Ti10 2.094227 1_555
O55 S23 1.479521 1_555
O55 Ti11 2.157649 1_555
O56 S24 1.502032 1_555
O56 Ti10 1.997587 1_555
O57 Si8 1.668226 1_555
O57 Ti11 1.757800 1_555
O58 S25 1.507217 1_555
O58 Ti10 1.992905 1_555
O59 S26 1.488420 1_555
O59 Ti11 2.047913 1_555
O60 S25 1.471542 1_555
O61 S26 1.466675 1_555
O62 S22 1.483554 1_555
O63 S23 1.470178 1_555
O64 S24 1.472175 1_555
O65 Si8 1.599291 1_555
O66 S19 1.484058 1_555
O67 S20 1.482618 1_555
O68 Si7 1.600781 1_555
O69 S21 1.482677 1_555
O70 S17 1.494832 1_555
O71 S18 1.480493 1_555
O72 S25 1.488499 1_555
O73 S26 1.476474 1_555
O73 Ti0 2.026995 1_565
O74 S22 1.460040 1_555
O74 Ti0 2.173835 1_565
O75 S23 1.513825 1_555
O76 S24 1.481472 1_555
O77 Si8 1.650809 1_555
O77 Ti0 1.776912 1_555
O78 S19 1.497076 1_555
O78 Ti1 1.961230 1_545
O79 S20 1.494818 1_555
O80 Si7 1.681167 1_555
O80 Ti1 1.742982 1_555
O81 S21 1.487735 1_555
O82 S17 1.513756 1_555
O83 S18 1.498141 1_555
O83 Ti1 1.967513 1_655
O84 Si3 1.622309 1_555
O84 Ti2 1.781379 1_555
O85 Si4 1.619511 1_555
O86 S9 1.476264 1_555
O87 S10 1.488412 1_555
O87 Ti2 1.962147 1_555
O88 S11 1.450767 1_555
O88 Ti2 2.148712 1_565
O89 S12 1.486695 1_555
O90 Si5 1.607531 1_555
O91 Si6 1.629925 1_555
O91 Ti3 1.782955 1_655
O92 S13 1.472304 1_555
O93 S14 1.447713 1_555
O93 Ti3 2.155345 1_645
O94 S15 1.481624 1_555
O94 Ti3 1.984678 1_545
O95 S16 1.464122 1_555
O96 S7 1.516746 1_545
O96 Ti4 2.034284 1_555
O97 S8 1.497206 1_545
O97 Ti5 2.058874 1_555
O98 S4 1.492367 1_555
O98 Ti4 2.164663 1_555
O99 Si2 1.651856 1_555
O99 Ti5 1.877615 1_555
O100 S6 1.528435 1_555
O100 Ti4 1.990022 1_555
O101 S5 1.493311 1_655
O101 Ti5 2.080059 1_555
O102 S0 1.506783 1_555
O102 Ti6 2.022934 1_555
O103 S1 1.501075 1_555
O103 Ti7 2.012479 1_555
O104 S3 1.512291 1_555
O104 Ti6 1.997434 1_555
O105 S2 1.508219 1_655
O105 Ti7 1.987617 1_555
O106 Si0 1.648714 1_545
O106 Ti6 1.870408 1_555
O107 Si1 1.664662 1_545
O107 Ti7 1.853212 1_555
O108 S17 1.476456 1_555
O109 S18 1.490966 1_555
O110 S20 1.468575 1_555
O111 S19 1.489194 1_655
O112 Si7 1.606932 1_545
O113 S21 1.497835 1_545
O114 S22 1.506829 1_545
O115 S23 1.483762 1_545
O116 S24 1.495974 1_555
O117 Si8 1.614983 1_555
O118 S26 1.500879 1_555
O119 S25 1.470482 1_655
O120 S15 1.467379 1_555
O120 Ti8 2.071633 1_555
O121 S16 1.497835 1_555
O121 Ti9 1.946923 1_555
O122 Si6 1.645878 1_455
O122 Ti8 1.767136 1_555
O123 Si5 1.694482 1_555
O123 Ti9 1.733171 1_555
O124 S13 1.491411 1_565
O124 Ti8 1.964280 1_555
O125 S14 1.498042 1_565
O125 Ti9 1.953971 1_555
O126 S9 1.483250 1_565
O126 Ti10 2.016025 1_555
O127 S10 1.455226 1_565
O127 Ti11 2.132637 1_555
O128 S11 1.485171 1_555
O128 Ti10 2.009304 1_555
O129 S12 1.475590 1_555
O129 Ti11 2.031061 1_555
O130 Si4 1.684337 1_455
O130 Ti10 1.754601 1_555
O131 Si3 1.619629 1_555
O131 Ti11 1.808897 1_555
O132 Si0 1.592947 1_555
O133 Si1 1.591595 1_555
O134 S0 1.471298 1_555
O135 S1 1.460128 1_555
O136 S2 1.465218 1_555
O137 S3 1.462676 1_555
O138 S4 1.475126 1_555
O139 Si2 1.594951 1_555
O140 S5 1.469520 1_555
O141 S6 1.465201 1_555
O142 S7 1.469999 1_555
O143 S8 1.467266 1_555
