# generated using pymatgen
data_Ba4Y2Cu6O13
_symmetry_space_group_name_H-M   'P 1'
_cell_length_a   3.90917500
_cell_length_b   7.72064000
_cell_length_c   11.97204500
_cell_angle_alpha   90.00000000
_cell_angle_beta   90.00000000
_cell_angle_gamma   90.00000000
_symmetry_Int_Tables_number   1
_chemical_formula_structural   Ba4Y2Cu6O13
_chemical_formula_sum   'Ba4 Y2 Cu6 O13'
_cell_volume   361.33227530
_cell_formula_units_Z   1
loop_
 _symmetry_equiv_pos_site_id
 _symmetry_equiv_pos_as_xyz
  1  'x, y, z'
loop_
 _atom_site_type_symbol
 _atom_site_label
 _atom_site_symmetry_multiplicity
 _atom_site_fract_x
 _atom_site_fract_y
 _atom_site_fract_z
 _atom_site_occupancy
  Ba  Ba0  1  0.50000000  0.24276900  0.18770000  1
  Ba  Ba1  1  0.50000000  0.75723100  0.81230000  1
  Ba  Ba2  1  0.50000000  0.75723100  0.18770000  1
  Ba  Ba3  1  0.50000000  0.24276900  0.81230000  1
  Y  Y0  1  0.50000000  0.74902300  0.50000000  1
  Y  Y1  1  0.50000000  0.25097700  0.50000000  1
  Cu  Cu0  1  0.00000000  0.50000000  0.35996700  1
  Cu  Cu1  1  0.00000000  0.50000000  0.64003300  1
  Cu  Cu2  1  0.00000000  0.00000000  0.35984500  1
  Cu  Cu3  1  0.00000000  0.00000000  0.64015500  1
  Cu  Cu4  1  0.00000000  0.50000000  0.00000000  1
  Cu  Cu5  1  0.00000000  0.00000000  0.00000000  1
  O  O0  1  0.00000000  0.50000000  0.14941500  1
  O  O1  1  0.00000000  0.50000000  0.85058500  1
  O  O2  1  0.00000000  0.00000000  0.15844200  1
  O  O3  1  0.00000000  0.00000000  0.84155800  1
  O  O4  1  0.50000000  0.50000000  0.37929700  1
  O  O5  1  0.50000000  0.50000000  0.62070300  1
  O  O6  1  0.50000000  0.00000000  0.37908600  1
  O  O7  1  0.50000000  0.00000000  0.62091400  1
  O  O8  1  0.00000000  0.25030600  0.62025800  1
  O  O9  1  0.00000000  0.74969400  0.37974200  1
  O  O10  1  0.00000000  0.25030600  0.37974200  1
  O  O11  1  0.00000000  0.74969400  0.62025800  1
  O  O12  1  0.50000000  0.00000000  0.00000000  1
loop_
_geom_bond_atom_site_label_1
_geom_bond_atom_site_label_2
_geom_bond_distance
_geom_bond_site_symmetry_2
Ba0 O2 2.730609 1_655
Ba0 O2 2.730609 1_555
Ba0 O0 2.823941 1_555
Ba0 O0 2.823941 1_655
Ba0 O12 2.926229 1_555
Ba0 O6 2.960252 1_555
Ba0 O10 3.018248 1_555
Ba0 O10 3.018248 1_655
Ba0 O4 3.034090 1_555
Ba1 O3 2.730609 1_665
Ba1 O3 2.730609 1_565
Ba1 O1 2.823941 1_555
Ba1 O1 2.823941 1_655
Ba1 O12 2.926229 1_566
Ba1 O7 2.960252 1_565
Ba1 O11 3.018248 1_555
Ba1 O11 3.018248 1_655
Ba1 O5 3.034090 1_555
Ba2 O2 2.730609 1_565
Ba2 O2 2.730609 1_665
Ba2 O0 2.823941 1_655
Ba2 O0 2.823941 1_555
Ba2 O12 2.926229 1_565
Ba2 O6 2.960252 1_565
Ba2 O9 3.018248 1_555
Ba2 O9 3.018248 1_655
Ba2 O4 3.034090 1_555
Ba3 O3 2.730609 1_555
Ba3 O3 2.730609 1_655
Ba3 O1 2.823941 1_555
Ba3 O1 2.823941 1_655
Ba3 O12 2.926229 1_556
Ba3 O7 2.960252 1_555
Ba3 O8 3.018248 1_555
Ba3 O8 3.018248 1_655
Ba3 O5 3.034090 1_555
Cu0 O9 1.942280 1_555
Cu0 O10 1.942280 1_555
Cu0 O4 1.968240 1_555
Cu0 O4 1.968240 1_455
Cu0 O0 2.520738 1_555
Cu1 O11 1.942280 1_555
Cu1 O8 1.942280 1_555
Cu1 O5 1.968240 1_455
Cu1 O5 1.968240 1_555
Cu1 O1 2.520738 1_555
Cu2 O10 1.947148 1_555
Cu2 O9 1.947148 1_545
Cu2 O6 1.968115 1_555
Cu2 O6 1.968115 1_455
Cu2 O2 2.411206 1_555
Cu3 O8 1.947148 1_555
Cu3 O11 1.947148 1_545
Cu3 O7 1.968115 1_455
Cu3 O7 1.968115 1_555
Cu3 O3 2.411206 1_555
Cu4 O0 1.788803 1_555
Cu4 O1 1.788803 1_554
Cu5 O2 1.896875 1_555
Cu5 O3 1.896875 1_554
Cu5 O12 1.954587 1_555
Cu5 O12 1.954587 1_455
O4 Y1 2.405132 1_555
O4 Y0 2.405132 1_555
O5 Y1 2.405132 1_555
O5 Y0 2.405132 1_555
O6 Y0 2.418719 1_545
O6 Y1 2.418719 1_555
O7 Y0 2.418719 1_545
O7 Y1 2.418719 1_555
O8 Y1 2.427607 1_555
O8 Y1 2.427607 1_455
O9 Y0 2.427607 1_455
O9 Y0 2.427607 1_555
O10 Y1 2.427607 1_555
O10 Y1 2.427607 1_455
O11 Y0 2.427607 1_455
O11 Y0 2.427607 1_555
