# generated using pymatgen
data_PrSnPt
_symmetry_space_group_name_H-M   'P 1'
_cell_length_a   7.64544824
_cell_length_b   7.64544873
_cell_length_c   4.15809108
_cell_angle_alpha   90.00000000
_cell_angle_beta   90.00000000
_cell_angle_gamma   119.99999790
_symmetry_Int_Tables_number   1
_chemical_formula_structural   PrSnPt
_chemical_formula_sum   'Pr3 Sn3 Pt3'
_cell_volume   210.48956540
_cell_formula_units_Z   3
loop_
 _symmetry_equiv_pos_site_id
 _symmetry_equiv_pos_as_xyz
  1  'x, y, z'
loop_
 _atom_site_type_symbol
 _atom_site_label
 _atom_site_symmetry_multiplicity
 _atom_site_fract_x
 _atom_site_fract_y
 _atom_site_fract_z
 _atom_site_occupancy
  Pr  Pr0  1  0.58954520  0.58954520  -0.00000000  1
  Pr  Pr1  1  0.41045480  -0.00000000  -0.00000000  1
  Pr  Pr2  1  -0.00000000  0.41045480  0.00000000  1
  Sn  Sn0  1  0.00000000  0.74842463  0.50000000  1
  Sn  Sn1  1  0.25157537  0.25157537  0.50000000  1
  Sn  Sn2  1  0.74842463  -0.00000000  0.50000000  1
  Pt  Pt0  1  0.66666700  0.33333300  0.50000000  1
  Pt  Pt1  1  -0.00000000  -0.00000000  0.00000000  1
  Pt  Pt2  1  0.33333300  0.66666700  0.50000000  1
loop_
_geom_bond_atom_site_label_1
_geom_bond_atom_site_label_2
_geom_bond_distance
_geom_bond_site_symmetry_2
Pr0 Pt2 3.108411 1_555
Pr0 Pt2 3.108411 1_554
Pr0 Pt0 3.108411 1_554
Pr0 Pt0 3.108411 1_555
Pr0 Pt1 3.138111 1_665
Pr0 Sn1 3.316494 1_555
Pr0 Sn1 3.316494 1_554
Pr0 Sn0 3.440029 1_654
Pr0 Sn0 3.440029 1_655
Pr0 Sn2 3.440029 1_565
Pr0 Sn2 3.440029 1_564
Pr1 Pt2 3.108405 1_544
Pr1 Pt2 3.108405 1_545
Pr1 Pt0 3.108407 1_554
Pr1 Pt0 3.108407 1_555
Pr1 Pt1 3.138111 1_555
Pr1 Sn2 3.316493 1_555
Pr1 Sn2 3.316493 1_554
Pr1 Sn1 3.440029 1_555
Pr1 Sn1 3.440029 1_554
Pr1 Sn0 3.440029 1_544
Pr1 Sn0 3.440029 1_545
Pr2 Pt0 3.108405 1_455
Pr2 Pt0 3.108405 1_454
Pr2 Pt2 3.108407 1_555
Pr2 Pt2 3.108407 1_554
Pr2 Pt1 3.138111 1_555
Pr2 Sn0 3.316494 1_554
Pr2 Sn0 3.316494 1_555
Pr2 Sn1 3.440029 1_554
Pr2 Sn1 3.440029 1_555
Pr2 Sn2 3.440029 1_455
Pr2 Sn2 3.440029 1_454
Pt0 Sn2 2.911779 1_555
Pt0 Sn0 2.911784 1_655
Pt0 Sn1 2.911786 1_555
Pt1 Sn2 2.832300 1_455
Pt1 Sn2 2.832300 1_454
Pt1 Sn0 2.832300 1_544
Pt1 Sn1 2.832300 1_554
Pt1 Sn0 2.832300 1_545
Pt1 Sn1 2.832300 1_555
Pt2 Sn0 2.911779 1_555
Pt2 Sn2 2.911784 1_565
Pt2 Sn1 2.911787 1_555
