# generated using pymatgen
data_MgNb2(PO5)2
_symmetry_space_group_name_H-M   'P 1'
_cell_length_a   4.43411502
_cell_length_b   6.69616691
_cell_length_c   6.69616691
_cell_angle_alpha   87.78643810
_cell_angle_beta   91.98365974
_cell_angle_gamma   91.98365974
_symmetry_Int_Tables_number   1
_chemical_formula_structural   MgNb2(PO5)2
_chemical_formula_sum   'Mg1 Nb2 P2 O10'
_cell_volume   198.44205722
_cell_formula_units_Z   1
loop_
 _symmetry_equiv_pos_site_id
 _symmetry_equiv_pos_as_xyz
  1  'x, y, z'
loop_
 _atom_site_type_symbol
 _atom_site_label
 _atom_site_symmetry_multiplicity
 _atom_site_fract_x
 _atom_site_fract_y
 _atom_site_fract_z
 _atom_site_occupancy
  Mg  Mg0  1  0.00000000  0.00000000  0.00000000  1
  Nb  Nb0  1  0.39863600  0.74974900  0.74974900  1
  Nb  Nb1  1  0.60136400  0.25025100  0.25025100  1
  P  P0  1  0.50000000  0.74792700  0.25207300  1
  P  P1  1  0.50000000  0.25207300  0.74792700  1
  O  O0  1  0.67962000  0.55702200  0.24351800  1
  O  O1  1  0.72028800  0.93537900  0.23559300  1
  O  O2  1  0.20185300  0.20595400  0.20595400  1
  O  O3  1  0.79814700  0.79404600  0.79404600  1
  O  O4  1  0.72028800  0.23559300  0.93537900  1
  O  O5  1  0.67962000  0.24351800  0.55702200  1
  O  O6  1  0.32038000  0.75648200  0.44297800  1
  O  O7  1  0.27971200  0.06462100  0.76440700  1
  O  O8  1  0.32038000  0.44297800  0.75648200  1
  O  O9  1  0.27971200  0.76440700  0.06462100  1
loop_
_geom_bond_atom_site_label_1
_geom_bond_atom_site_label_2
_geom_bond_distance
_geom_bond_site_symmetry_2
Mg0 O4 2.063933 1_454
Mg0 O1 2.063933 1_445
Mg0 O7 2.063933 1_554
Mg0 O9 2.063933 1_545
Mg0 O3 2.140317 1_444
Mg0 O2 2.140317 1_555
Nb0 O3 1.802261 1_555
Nb0 O8 2.070439 1_555
Nb0 O6 2.070439 1_555
Nb0 O7 2.197668 1_565
Nb0 O9 2.197668 1_556
Nb1 O2 1.802261 1_555
Nb1 O5 2.070439 1_555
Nb1 O0 2.070439 1_555
Nb1 O1 2.197668 1_545
Nb1 O4 2.197668 1_554
O0 P0 1.533315 1_555
O1 P0 1.566434 1_555
O4 P1 1.566434 1_555
O5 P1 1.533315 1_555
O6 P0 1.533315 1_555
O7 P1 1.566434 1_555
O8 P1 1.533315 1_555
O9 P0 1.566434 1_555
