# generated using pymatgen
data_KMgMn16O32
_symmetry_space_group_name_H-M   'P 1'
_cell_length_a   5.90127553
_cell_length_b   10.51057357
_cell_length_c   9.53331901
_cell_angle_alpha   91.43483247
_cell_angle_beta   89.63844424
_cell_angle_gamma   90.16565116
_symmetry_Int_Tables_number   1
_chemical_formula_structural   KMgMn16O32
_chemical_formula_sum   'K1 Mg1 Mn16 O32'
_cell_volume   591.11226519
_cell_formula_units_Z   1
loop_
 _symmetry_equiv_pos_site_id
 _symmetry_equiv_pos_as_xyz
  1  'x, y, z'
loop_
 _atom_site_type_symbol
 _atom_site_label
 _atom_site_symmetry_multiplicity
 _atom_site_fract_x
 _atom_site_fract_y
 _atom_site_fract_z
 _atom_site_occupancy
  K  K0  1  0.99940300  0.42540900  0.49989000  1
  Mg  Mg0  1  0.00817000  0.67863900  0.47552500  1
  Mn  Mn0  1  0.50000400  0.15983700  0.33805300  1
  Mn  Mn1  1  0.99939900  0.15553700  0.33349400  1
  Mn  Mn2  1  0.49926100  0.35643500  0.82695200  1
  Mn  Mn3  1  0.99930700  0.35388200  0.83119200  1
  Mn  Mn4  1  0.99995700  0.64608300  0.16361400  1
  Mn  Mn5  1  0.49882700  0.63827100  0.17694200  1
  Mn  Mn6  1  0.99845300  0.85594000  0.67187400  1
  Mn  Mn7  1  0.49921100  0.83895700  0.64861500  1
  Mn  Mn8  1  0.75101100  0.65827800  0.83767600  1
  Mn  Mn9  1  0.24786800  0.65795500  0.83749200  1
  Mn  Mn10  1  0.75184400  0.85837100  0.31815500  1
  Mn  Mn11  1  0.25630600  0.86063900  0.31658600  1
  Mn  Mn12  1  0.74778500  0.14695300  0.67308400  1
  Mn  Mn13  1  0.24726400  0.14764400  0.67299200  1
  Mn  Mn14  1  0.74840300  0.33865600  0.15570400  1
  Mn  Mn15  1  0.24931800  0.33870900  0.15535000  1
  O  O0  1  0.74677700  0.96438900  0.69059900  1
  O  O1  1  0.24473300  0.96774900  0.68873300  1
  O  O2  1  0.74989500  0.63794000  0.03887600  1
  O  O3  1  0.24600900  0.63948200  0.03580800  1
  O  O4  1  0.74706500  0.36266100  0.95697700  1
  O  O5  1  0.25024700  0.36272400  0.95726100  1
  O  O6  1  0.74735900  0.04180400  0.30166200  1
  O  O7  1  0.25331400  0.04468900  0.30751000  1
  O  O8  1  0.99834200  0.45690500  0.19082300  1
  O  O9  1  0.49875800  0.45450400  0.19231100  1
  O  O10  1  0.99792500  0.15221800  0.54066200  1
  O  O11  1  0.49977600  0.14640800  0.54166700  1
  O  O12  1  0.50276500  0.86004500  0.44837500  1
  O  O13  1  0.00001400  0.86583100  0.45497100  1
  O  O14  1  0.50015300  0.54102600  0.80321300  1
  O  O15  1  0.99951000  0.53935800  0.80370700  1
  O  O16  1  0.50085600  0.77865700  0.84139500  1
  O  O17  1  0.99954300  0.78263900  0.85604400  1
  O  O18  1  0.00298500  0.83402700  0.18576200  1
  O  O19  1  0.50722300  0.82536600  0.18809700  1
  O  O20  1  0.99922800  0.21780000  0.14066500  1
  O  O21  1  0.49888100  0.21677500  0.14306700  1
  O  O22  1  0.49715600  0.17032300  0.80657300  1
  O  O23  1  0.99725400  0.16855000  0.80662500  1
  O  O24  1  0.74777300  0.28365900  0.34777600  1
  O  O25  1  0.24765200  0.28060800  0.34788100  1
  O  O26  1  0.75097600  0.33628300  0.69572400  1
  O  O27  1  0.24921100  0.33858600  0.69615000  1
  O  O28  1  0.78083400  0.71305000  0.63811500  1
  O  O29  1  0.23034100  0.71946200  0.63534200  1
  O  O30  1  0.77682100  0.66753600  0.31796600  1
  O  O31  1  0.22883100  0.65716000  0.31156900  1
loop_
_geom_bond_atom_site_label_1
_geom_bond_atom_site_label_2
_geom_bond_distance
_geom_bond_site_symmetry_2
K0 O24 2.536511 1_555
K0 O25 2.537355 1_655
K0 O26 2.560740 1_555
K0 O27 2.575803 1_655
K0 Mg0 2.677820 1_655
K0 O10 2.907192 1_555
K0 O8 2.973246 1_555
K0 O15 3.106405 1_555
Mg0 O13 1.982857 1_555
Mg0 O31 2.036687 1_555
Mg0 O30 2.037131 1_455
Mg0 O29 2.052706 1_555
Mg0 O28 2.069223 1_455
Mn0 O7 1.909546 1_555
Mn0 O6 1.942347 1_555
Mn0 O11 1.949756 1_555
Mn0 O24 1.955734 1_555
Mn0 O25 1.959850 1_555
Mn0 O21 1.967092 1_555
Mn1 O7 1.911803 1_655
Mn1 O6 1.926279 1_555
Mn1 O20 1.966695 1_555
Mn1 O25 1.968635 1_655
Mn1 O10 1.976144 1_555
Mn1 O24 2.009170 1_555
Mn2 O5 1.918453 1_555
Mn2 O4 1.922907 1_555
Mn2 O27 1.943577 1_555
Mn2 O26 1.944630 1_555
Mn2 O14 1.958921 1_555
Mn2 O22 1.960932 1_555
Mn3 O4 1.906561 1_555
Mn3 O5 1.913670 1_655
Mn3 O27 1.955807 1_655
Mn3 O23 1.956155 1_555
Mn3 O26 1.964698 1_555
Mn3 O15 1.973477 1_555
Mn4 O3 1.889903 1_655
Mn4 O2 1.901423 1_555
Mn4 O31 1.960161 1_655
Mn4 O30 1.977547 1_555
Mn4 O18 1.981428 1_655
Mn4 O8 2.011635 1_555
Mn5 O9 1.940699 1_555
Mn5 O19 1.967186 1_555
Mn5 O2 1.975565 1_555
Mn5 O3 2.015609 1_555
Mn5 O31 2.046600 1_555
Mn5 O30 2.144203 1_555
Mn6 O1 1.871566 1_655
Mn6 O0 1.879694 1_555
Mn6 O17 1.934991 1_555
Mn6 O28 1.994556 1_555
Mn6 O29 2.007960 1_655
Mn6 O13 2.072977 1_655
Mn7 O12 1.927258 1_555
Mn7 O16 1.959083 1_555
Mn7 O0 2.000621 1_555
Mn7 O29 2.023374 1_555
Mn7 O1 2.052446 1_555
Mn7 O28 2.127745 1_555
Mn8 O2 1.935259 1_556
Mn8 O16 1.946607 1_555
Mn8 O14 1.947707 1_555
Mn8 O15 1.949873 1_555
Mn8 O17 1.967476 1_555
Mn8 O28 2.007947 1_555
Mn9 O3 1.905343 1_556
Mn9 O15 1.944457 1_455
Mn9 O14 1.953989 1_555
Mn9 O16 1.956308 1_555
Mn9 O17 1.972920 1_455
Mn9 O29 2.051309 1_555
Mn10 O12 1.917822 1_555
Mn10 O19 1.933835 1_555
Mn10 O6 1.938577 1_565
Mn10 O18 1.953809 1_655
Mn10 O13 1.967362 1_655
Mn10 O30 2.011574 1_555
Mn11 O12 1.928056 1_555
Mn11 O7 1.938705 1_565
Mn11 O19 1.946277 1_555
Mn11 O18 1.967773 1_555
Mn11 O13 2.000660 1_555
Mn11 O31 2.143712 1_555
Mn12 O0 1.930253 1_545
Mn12 O11 1.932462 1_555
Mn12 O10 1.937855 1_555
Mn12 O22 1.957052 1_555
Mn12 O23 1.961342 1_555
Mn12 O26 1.996305 1_555
Mn13 O1 1.900496 1_545
Mn13 O11 1.940067 1_555
Mn13 O10 1.945700 1_455
Mn13 O23 1.952472 1_455
Mn13 O22 1.964612 1_555
Mn13 O27 2.013522 1_555
Mn14 O4 1.917575 1_554
Mn14 O24 1.933890 1_555
Mn14 O9 1.938402 1_555
Mn14 O8 1.951180 1_555
Mn14 O21 1.951263 1_555
Mn14 O20 1.955546 1_555
Mn15 O5 1.911466 1_554
Mn15 O9 1.935706 1_555
Mn15 O20 1.948224 1_455
Mn15 O25 1.948795 1_555
Mn15 O21 1.956115 1_555
Mn15 O8 1.958204 1_455
