# generated using pymatgen
data_Na10Y2Ta6Si11SO48
_symmetry_space_group_name_H-M   'P 1'
_cell_length_a   18.21549417
_cell_length_b   9.10732847
_cell_length_c   22.84550133
_cell_angle_alpha   89.98117914
_cell_angle_beta   90.14206362
_cell_angle_gamma   120.00486815
_symmetry_Int_Tables_number   1
_chemical_formula_structural   Na10Y2Ta6Si11SO48
_chemical_formula_sum   'Na30 Y6 Ta18 Si33 S3 O144'
_cell_volume   3282.01378648
_cell_formula_units_Z   3
loop_
 _symmetry_equiv_pos_site_id
 _symmetry_equiv_pos_as_xyz
  1  'x, y, z'
loop_
 _atom_site_type_symbol
 _atom_site_label
 _atom_site_symmetry_multiplicity
 _atom_site_fract_x
 _atom_site_fract_y
 _atom_site_fract_z
 _atom_site_occupancy
  Na  Na0  1  0.31791712  0.98871892  0.25264853  1
  Na  Na1  1  0.81958895  0.98959254  0.25243502  1
  Na  Na2  1  0.81759429  0.64250180  0.74759774  1
  Na  Na3  1  0.18326454  0.98453476  0.74925191  1
  Na  Na4  1  0.67958071  0.00105454  0.74911873  1
  Na  Na5  1  0.01903717  0.71191058  0.58480065  1
  Na  Na6  1  0.83440389  0.96189239  0.58430116  1
  Na  Na7  1  0.64752304  0.96895440  0.08224404  1
  Na  Na8  1  0.33623410  0.70991991  0.08580860  1
  Na  Na9  1  0.83786943  0.71104903  0.08763724  1
  Na  Na10  1  0.01905703  0.32535259  0.08630113  1
  Na  Na11  1  0.51526774  0.32244180  0.08643650  1
  Na  Na12  1  0.98743737  0.65753508  0.91460101  1
  Na  Na13  1  0.34690144  0.03032252  0.91398530  1
  Na  Na14  1  0.48684090  0.31896036  0.41606793  1
  Na  Na15  1  0.98824995  0.32010749  0.41590445  1
  Na  Na16  1  0.34139945  0.65726075  0.41632353  1
  Na  Na17  1  0.84265025  0.65807241  0.41607388  1
  Na  Na18  1  0.01211135  0.01237129  0.50428374  1
  Na  Na19  1  0.50603767  0.99974764  0.50544180  1
  Na  Na20  1  0.00825801  0.01243821  0.00364320  1
  Na  Na21  1  0.50301424  0.99862499  0.99831438  1
  Na  Na22  1  0.33811839  0.35572338  0.83364027  1
  Na  Na23  1  0.83685094  0.32589173  0.83343164  1
  Na  Na24  1  0.33036166  0.33612511  0.33326540  1
  Na  Na25  1  0.83135543  0.33793756  0.33306378  1
  Na  Na26  1  0.16187234  0.65067972  0.17258271  1
  Na  Na27  1  0.66307101  0.64120624  0.17517676  1
  Na  Na28  1  0.17276451  0.66994113  0.66950791  1
  Na  Na29  1  0.65682791  0.64827093  0.66373259  1
  Y  Y0  1  0.99929788  0.00250231  0.64464065  1
  Y  Y1  1  0.00414450  0.00066254  0.14411338  1
  Y  Y2  1  0.49814083  0.00228015  0.14618795  1
  Y  Y3  1  0.16318884  0.65387689  0.31902167  1
  Y  Y4  1  0.66381152  0.65530401  0.31868742  1
  Y  Y5  1  0.17012645  0.66855609  0.81715543  1
  Ta  Ta0  1  0.99429172  0.99668096  0.35538460  1
  Ta  Ta1  1  0.49336584  0.99694962  0.35508272  1
  Ta  Ta2  1  0.99220815  0.99274391  0.85676577  1
  Ta  Ta3  1  0.49990493  0.99817706  0.85421833  1
  Ta  Ta4  1  0.50011438  0.00150466  0.64507020  1
  Ta  Ta5  1  0.34139089  0.33655291  0.68441109  1
  Ta  Ta6  1  0.83455947  0.33659906  0.68759597  1
  Ta  Ta7  1  0.33858234  0.34437897  0.18589239  1
  Ta  Ta8  1  0.84016761  0.34718424  0.18602389  1
  Ta  Ta9  1  0.33403156  0.33820742  0.97848539  1
  Ta  Ta10  1  0.82956746  0.32385101  0.97630237  1
  Ta  Ta11  1  0.33429064  0.33430098  0.48398818  1
  Ta  Ta12  1  0.82899503  0.32668062  0.48244933  1
  Ta  Ta13  1  0.16715052  0.66912657  0.01915767  1
  Ta  Ta14  1  0.66713417  0.66664509  0.01879403  1
  Ta  Ta15  1  0.16978045  0.66828785  0.52158301  1
  Ta  Ta16  1  0.66237678  0.66195515  0.52084671  1
  Ta  Ta17  1  0.66108737  0.66148462  0.81333922  1
  Si  Si0  1  0.35137444  0.69835836  0.24828975  1
  Si  Si1  1  0.85283961  0.70238469  0.24746318  1
  Si  Si2  1  0.99833961  0.29612285  0.24707310  1
  Si  Si3  1  0.49782537  0.29891072  0.24777822  1
  Si  Si4  1  0.64178146  0.28814814  0.74954032  1
  Si  Si5  1  0.99927731  0.70326791  0.74915346  1
  Si  Si6  1  0.49650070  0.71149208  0.74973523  1
  Si  Si7  1  0.35774135  0.00468409  0.74852553  1
  Si  Si8  1  0.85145788  0.00129703  0.75004666  1
  Si  Si9  1  0.48109303  0.33226318  0.58209046  1
  Si  Si10  1  0.97966457  0.34236423  0.58217404  1
  Si  Si11  1  0.19191587  0.04194133  0.58394783  1
  Si  Si12  1  0.68724122  0.04121802  0.58545136  1
  Si  Si13  1  0.33348187  0.62214677  0.58498234  1
  Si  Si14  1  0.82737972  0.61580746  0.58264406  1
  Si  Si15  1  0.48104720  0.61867492  0.08131089  1
  Si  Si16  1  0.97886073  0.61687202  0.07791761  1
  Si  Si17  1  0.32753971  0.04377813  0.08181894  1
  Si  Si18  1  0.82908282  0.04410747  0.08312055  1
  Si  Si19  1  0.19258184  0.33986857  0.08103455  1
  Si  Si20  1  0.69336891  0.34088186  0.08135795  1
  Si  Si21  1  0.31635467  0.66836694  0.91791087  1
  Si  Si22  1  0.80783750  0.66087898  0.91542034  1
  Si  Si23  1  0.02051543  0.37138632  0.91796486  1
  Si  Si24  1  0.52159855  0.37455045  0.91720929  1
  Si  Si25  1  0.16635553  0.96478679  0.91614509  1
  Si  Si26  1  0.66431981  0.95279588  0.91598047  1
  Si  Si27  1  0.31117790  0.96609807  0.41574462  1
  Si  Si28  1  0.81081098  0.96162554  0.41680787  1
  Si  Si29  1  0.16729726  0.36799369  0.41957490  1
  Si  Si30  1  0.66587648  0.36769436  0.41864820  1
  Si  Si31  1  0.01864266  0.66806147  0.42049253  1
  Si  Si32  1  0.51881296  0.67036157  0.41866617  1
  S  S0  1  0.14926718  0.00865689  0.25200491  1
  S  S1  1  0.64879902  0.00858629  0.25065900  1
  S  S2  1  0.14819217  0.28706522  0.75164420  1
  O  O0  1  0.10312076  0.02469650  0.30421386  1
  O  O1  1  0.60144056  0.02313920  0.30137207  1
  O  O2  1  0.41456201  0.80530805  0.30693220  1
  O  O3  1  0.91500060  0.80600213  0.30672028  1
  O  O4  1  0.48792920  0.16783282  0.30525279  1
  O  O5  1  0.98751139  0.16688869  0.30549916  1
  O  O6  1  0.10246744  0.17677956  0.80362560  1
  O  O7  1  0.59673548  0.16313653  0.80615579  1
  O  O8  1  0.48547232  0.80651547  0.80755787  1
  O  O9  1  0.98633400  0.80718130  0.80689272  1
  O  O10  1  0.41443566  0.02586434  0.80863380  1
  O  O11  1  0.91632443  0.02483992  0.80550259  1
  O  O12  1  0.41221149  0.99176755  0.69362041  1
  O  O13  1  0.88127125  0.95137729  0.69090064  1
  O  O14  1  0.10014018  0.21192076  0.69775859  1
  O  O15  1  0.58532849  0.19564620  0.69171468  1
  O  O16  1  0.01077389  0.81068480  0.69059891  1
  O  O17  1  0.51737582  0.83888339  0.69390597  1
  O  O18  1  0.39370423  0.79949206  0.18857867  1
  O  O19  1  0.89486437  0.80455515  0.18824144  1
  O  O20  1  0.00548094  0.21100218  0.18742685  1
  O  O21  1  0.50772661  0.21872099  0.18751806  1
  O  O22  1  0.10193646  0.98683993  0.19796713  1
  O  O23  1  0.60376030  0.98932188  0.19464256  1
  O  O24  1  0.43254661  0.36018037  0.63898698  1
  O  O25  1  0.92848078  0.36414691  0.63971473  1
  O  O26  1  0.24849381  0.13797885  0.64361624  1
  O  O27  1  0.74878622  0.13296593  0.64332242  1
  O  O28  1  0.32084936  0.49628582  0.64067488  1
  O  O29  1  0.81803397  0.50121151  0.64190584  1
  O  O30  1  0.43430230  0.49813402  0.14035705  1
  O  O31  1  0.93186260  0.49388817  0.13768381  1
  O  O32  1  0.31860172  0.13797711  0.14162619  1
  O  O33  1  0.81352640  0.13238443  0.14207896  1
  O  O34  1  0.25347472  0.36419499  0.13934899  1
  O  O35  1  0.75417734  0.36755462  0.13925849  1
  O  O36  1  0.24466235  0.32569861  0.02594678  1
  O  O37  1  0.74186160  0.32192469  0.02467692  1
  O  O38  1  0.42040755  0.51671810  0.02711929  1
  O  O39  1  0.91838080  0.51607815  0.02216874  1
  O  O40  1  0.34195025  0.16411181  0.02528727  1
  O  O41  1  0.83625566  0.16411829  0.02795492  1
  O  O42  1  0.24636006  0.16560613  0.53006135  1
  O  O43  1  0.73715203  0.15932594  0.52912925  1
  O  O44  1  0.34719747  0.53333148  0.52682728  1
  O  O45  1  0.83692086  0.51553552  0.52706660  1
  O  O46  1  0.42512005  0.31357980  0.52427806  1
  O  O47  1  0.92076325  0.32540392  0.52575170  1
  O  O48  1  0.26672203  0.69979276  0.97460144  1
  O  O49  1  0.76426177  0.69127029  0.97395978  1
  O  O50  1  0.08176521  0.46521251  0.97621231  1
  O  O51  1  0.58169320  0.47060915  0.97521655  1
  O  O52  1  0.14930541  0.82654508  0.97023899  1
  O  O53  1  0.65350532  0.83511866  0.97460552  1
  O  O54  1  0.26263628  0.82782878  0.46934843  1
  O  O55  1  0.76466131  0.83078661  0.47255280  1
  O  O56  1  0.14795084  0.46634236  0.47392827  1
  O  O57  1  0.64783540  0.46735508  0.47328137  1
  O  O58  1  0.08124432  0.69610603  0.47736399  1
  O  O59  1  0.58274189  0.69664909  0.47470054  1
  O  O60  1  0.04888696  0.60589786  0.36512924  1
  O  O61  1  0.54913680  0.60780961  0.36346295  1
  O  O62  1  0.26442201  0.90509189  0.35422812  1
  O  O63  1  0.76339527  0.90175436  0.35546583  1
  O  O64  1  0.19844046  0.48967292  0.36350604  1
  O  O65  1  0.69768948  0.49023128  0.36288938  1
  O  O66  1  0.05282766  0.49666653  0.86336715  1
  O  O67  1  0.57071632  0.49883767  0.86142653  1
  O  O68  1  0.19261435  0.90651055  0.85719982  1
  O  O69  1  0.67634737  0.85745114  0.85912667  1
  O  O70  1  0.26184469  0.62534231  0.85998420  1
  O  O71  1  0.75040115  0.64127910  0.85795126  1
  O  O72  1  0.00757631  0.83698004  0.41002020  1
  O  O73  1  0.50811969  0.83919080  0.41004322  1
  O  O74  1  0.40716307  0.97656302  0.41053714  1
  O  O75  1  0.90721320  0.97531597  0.41058248  1
  O  O76  1  0.07863970  0.18491123  0.40888745  1
  O  O77  1  0.57766589  0.18500346  0.40887434  1
  O  O78  1  0.01114176  0.18231866  0.90871104  1
  O  O79  1  0.51166393  0.18701730  0.90908376  1
  O  O80  1  0.07713022  0.97013637  0.90944801  1
  O  O81  1  0.58082149  0.97319652  0.90850141  1
  O  O82  1  0.40816153  0.84934673  0.91315772  1
  O  O83  1  0.90401971  0.83155126  0.90816014  1
  O  O84  1  0.48975134  0.16380063  0.58969144  1
  O  O85  1  0.98117579  0.16815208  0.58195758  1
  O  O86  1  0.09694765  0.01131892  0.58186485  1
  O  O87  1  0.59419240  0.02242251  0.59107326  1
  O  O88  1  0.41740544  0.81027169  0.59370380  1
  O  O89  1  0.91238925  0.80064379  0.58139125  1
  O  O90  1  0.49383397  0.80667478  0.08181522  1
  O  O91  1  0.98279806  0.79601575  0.07937108  1
  O  O92  1  0.41120320  0.02169020  0.08127520  1
  O  O93  1  0.91156645  0.02273963  0.08128925  1
  O  O94  1  0.09738088  0.18386369  0.07977624  1
  O  O95  1  0.60077216  0.17319623  0.08168453  1
  O  O96  1  0.34922964  0.17929438  0.74215781  1
  O  O97  1  0.83901163  0.16834258  0.74576335  1
  O  O98  1  0.23212552  0.29016615  0.74901073  1
  O  O99  1  0.73650799  0.30610313  0.74194607  1
  O  O100  1  0.41321519  0.52274210  0.74137699  1
  O  O101  1  0.90684932  0.51986040  0.74584214  1
  O  O102  1  0.34554235  0.51064851  0.24494400  1
  O  O103  1  0.84632965  0.51302204  0.24406224  1
  O  O104  1  0.40258147  0.28645750  0.24586554  1
  O  O105  1  0.90296094  0.28701244  0.24482344  1
  O  O106  1  0.23421141  0.16941413  0.24890516  1
  O  O107  1  0.73427411  0.16995767  0.24846084  1
  O  O108  1  0.33338283  0.51108258  0.92911056  1
  O  O109  1  0.82572476  0.50222040  0.92145623  1
  O  O110  1  0.42579312  0.34546583  0.92299266  1
  O  O111  1  0.92490231  0.34462973  0.92937830  1
  O  O112  1  0.24925991  0.14985960  0.92945081  1
  O  O113  1  0.74919051  0.14029816  0.92283329  1
  O  O114  1  0.33585979  0.16229284  0.42826177  1
  O  O115  1  0.83456194  0.15761615  0.42895825  1
  O  O116  1  0.24862757  0.34245599  0.43278063  1
  O  O117  1  0.74645453  0.33982241  0.43053708  1
  O  O118  1  0.42243392  0.51061279  0.43044919  1
  O  O119  1  0.92049915  0.50878906  0.43114855  1
  O  O120  1  0.18920087  0.51874649  0.07612416  1
  O  O121  1  0.68692590  0.51511225  0.07592108  1
  O  O122  1  0.06998989  0.62098731  0.07525032  1
  O  O123  1  0.57313324  0.62648121  0.07651392  1
  O  O124  1  0.24274367  0.85408406  0.07526847  1
  O  O125  1  0.74185354  0.85638421  0.07579736  1
  O  O126  1  0.18600009  0.85564611  0.57585758  1
  O  O127  1  0.68454475  0.85821006  0.57630100  1
  O  O128  1  0.24771918  0.63664013  0.57466602  1
  O  O129  1  0.74390159  0.63918355  0.57669712  1
  O  O130  1  0.07158589  0.51819003  0.57768316  1
  O  O131  1  0.57341682  0.50655530  0.57643706  1
  O  O132  1  0.16368904  0.86555888  0.25745927  1
  O  O133  1  0.66311173  0.86516270  0.25575747  1
  O  O134  1  0.26275340  0.69554746  0.25344410  1
  O  O135  1  0.76328948  0.69622664  0.25292036  1
  O  O136  1  0.07427486  0.48653407  0.25176505  1
  O  O137  1  0.57463396  0.48871193  0.25219285  1
  O  O138  1  0.16130365  0.45745019  0.75650452  1
  O  O139  1  0.65711521  0.48194521  0.75762838  1
  O  O140  1  0.08164336  0.68365431  0.75365360  1
  O  O141  1  0.58328046  0.69586989  0.75873274  1
  O  O142  1  0.26257235  0.84554153  0.74716004  1
  O  O143  1  0.75649282  0.83509738  0.76321025  1
loop_
_geom_bond_atom_site_label_1
_geom_bond_atom_site_label_2
_geom_bond_distance
_geom_bond_site_symmetry_2
Na0 O134 2.335748 1_555
Na0 O104 2.360857 1_565
Na0 O132 2.452031 1_555
Na0 O62 2.486512 1_555
Na0 O106 2.747569 1_565
Na1 O135 2.334500 1_555
Na1 O105 2.358055 1_565
Na1 O133 2.486911 1_555
Na1 O63 2.533727 1_555
Na1 O107 2.770187 1_565
Na2 O101 2.389356 1_555
Na2 O143 2.529326 1_555
Na2 O139 2.542407 1_555
Na2 O99 2.656687 1_555
Na2 O29 2.738343 1_555
Na2 O13 2.770917 1_555
Na2 O71 2.802802 1_555
Na2 O9 2.983623 1_555
Na3 O142 2.349677 1_555
Na3 O140 2.423434 1_555
Na3 O98 2.462162 1_565
Na3 O68 2.594903 1_555
Na3 O96 2.636469 1_565
Na3 O26 2.745910 1_565
Na4 O99 2.437144 1_555
Na4 O141 2.444529 1_545
Na4 O97 2.517294 1_555
Na4 O143 2.542848 1_545
Na4 O27 2.715268 1_555
Na4 O69 2.819852 1_545
Na4 O17 2.849661 1_545
Na4 O7 2.897084 1_555
Na5 O86 2.363051 1_565
Na5 O130 2.396940 1_555
Na5 O89 2.449965 1_455
Na5 O16 2.610076 1_555
Na5 O126 2.650665 1_555
Na5 O58 2.739736 1_555
Na6 O85 2.378449 1_565
Na6 O127 2.407543 1_555
Na6 O89 2.503187 1_555
Na6 O129 2.557106 1_555
Na6 O13 2.596166 1_555
Na6 O55 2.833011 1_555
Na7 O95 2.401986 1_565
Na7 O125 2.405918 1_555
Na7 O90 2.425586 1_555
Na7 O123 2.711808 1_555
Na7 O23 2.724303 1_555
Na7 O53 2.771399 1_554
Na7 O33 2.950759 1_565
Na8 O120 2.363690 1_555
Na8 O92 2.461750 1_565
Na8 O18 2.531530 1_555
Na8 O90 2.548976 1_555
Na8 O124 2.629820 1_555
Na8 O48 2.816687 1_554
Na9 O91 2.358603 1_555
Na9 O121 2.430083 1_555
Na9 O93 2.463861 1_565
Na9 O19 2.488109 1_555
Na9 O125 2.682680 1_555
Na9 O49 2.883779 1_554
Na9 O35 2.955997 1_555
Na10 O94 2.357553 1_555
Na10 O122 2.382462 1_555
Na10 O93 2.458544 1_455
Na10 O20 2.495343 1_555
Na10 O120 2.702849 1_555
Na10 O50 2.794561 1_554
Na10 O31 2.950463 1_455
Na11 O123 2.431335 1_555
Na11 O92 2.432233 1_555
Na11 O21 2.472694 1_555
Na11 O95 2.530487 1_555
Na11 O121 2.725763 1_555
Na11 O51 2.849735 1_554
Na11 O30 2.936549 1_555
Na12 O80 2.477305 1_655
Na12 O111 2.507420 1_555
Na12 O109 2.556797 1_555
Na12 O66 2.586231 1_655
Na12 O83 2.692470 1_555
Na12 O39 2.770106 1_556
Na12 O9 2.817372 1_555
Na12 O52 2.849940 1_655
Na13 O82 2.408679 1_545
Na13 O110 2.493758 1_555
Na13 O112 2.532457 1_555
Na13 O79 2.602771 1_555
Na13 O10 2.715215 1_555
Na13 O68 2.768804 1_545
Na13 O40 2.841028 1_556
Na13 O48 2.953387 1_545
Na14 O114 2.399150 1_555
Na14 O77 2.504526 1_555
Na14 O118 2.565399 1_555
Na14 O61 2.582899 1_555
Na14 O74 2.705408 1_545
Na14 O46 2.708570 1_555
Na14 O57 2.855392 1_555
Na14 O4 2.886823 1_555
Na15 O115 2.444689 1_555
Na15 O76 2.506334 1_655
Na15 O60 2.543451 1_655
Na15 O119 2.592429 1_555
Na15 O75 2.723526 1_545
Na15 O47 2.808178 1_555
Na15 O56 2.846145 1_655
Na15 O5 2.879678 1_555
Na16 O118 2.456780 1_555
Na16 O116 2.524620 1_555
Na16 O74 2.534833 1_555
Na16 O64 2.564604 1_555
Na16 O73 2.637812 1_555
Na16 O44 2.788231 1_555
Na16 O2 2.838428 1_555
Na16 O54 2.859691 1_555
Na17 O119 2.429697 1_555
Na17 O75 2.519653 1_555
Na17 O117 2.550114 1_555
Na17 O65 2.594939 1_555
Na17 O72 2.608730 1_655
Na17 O45 2.826549 1_555
Na17 O3 2.833979 1_555
Na17 O55 2.898708 1_555
Na18 O86 2.351744 1_555
Na18 O85 2.507076 1_455
Na18 O89 2.575149 1_445
Na18 O76 2.606488 1_555
Na18 O72 2.658062 1_545
Na18 O75 2.771748 1_445
Na19 O87 2.470081 1_565
Na19 O84 2.544188 1_565
Na19 O88 2.622519 1_555
Na19 O73 2.635806 1_555
Na19 O77 2.688146 1_565
Na19 O74 2.754960 1_555
Na20 O94 2.356047 1_555
Na20 O91 2.486079 1_445
Na20 O93 2.537397 1_455
Na20 O80 2.617337 1_544
Na20 O78 2.648982 1_554
Na20 O83 2.816179 1_444
Na21 O82 2.500815 1_555
Na21 O90 2.535750 1_556
Na21 O95 2.545566 1_566
Na21 O81 2.572031 1_555
Na21 O92 2.607762 1_566
Na21 O79 2.617844 1_565
Na22 O100 2.561038 1_555
Na22 O98 2.579053 1_555
Na22 O110 2.618986 1_555
Na22 O108 2.625164 1_555
Na22 O96 2.705599 1_555
Na22 O112 2.811723 1_555
Na23 O97 2.475969 1_555
Na23 O101 2.551096 1_555
Na23 O113 2.625399 1_555
Na23 O109 2.644536 1_555
Na23 O111 2.667456 1_555
Na23 O99 2.719082 1_555
Na24 O102 2.497032 1_555
Na24 O106 2.532314 1_555
Na24 O104 2.555534 1_555
Na24 O114 2.716904 1_555
Na24 O116 2.737032 1_555
Na24 O118 2.754220 1_555
Na25 O103 2.513337 1_555
Na25 O107 2.546086 1_555
Na25 O105 2.568831 1_555
Na25 O117 2.719265 1_555
Na25 O119 2.745226 1_555
Na25 O115 2.755492 1_555
Na26 O136 2.383279 1_555
Na26 O134 2.487769 1_555
Na26 O120 2.674510 1_555
Na26 O122 2.710729 1_555
Na26 O132 2.743749 1_555
Na26 O124 2.797950 1_555
Na27 O137 2.322600 1_555
Na27 O135 2.409931 1_555
Na27 O121 2.674888 1_555
Na27 O123 2.746737 1_555
Na27 O133 2.747733 1_555
Na27 O125 2.873141 1_555
Na28 O142 2.398274 1_555
Na28 O140 2.586373 1_555
Na28 O128 2.660828 1_555
Na28 O126 2.662390 1_555
Na28 O130 2.672580 1_555
Na28 O138 2.708177 1_555
Na29 O131 2.444779 1_555
Na29 O129 2.573553 1_555
Na29 O139 2.627122 1_555
Na29 O127 2.633876 1_555
Na29 O141 2.699801 1_555
Na29 O143 2.871996 1_555
O0 S0 1.509449 1_555
O0 Ta0 2.206115 1_445
O1 S1 1.491116 1_555
O1 Ta1 2.231641 1_545
O2 Si0 1.714730 1_555
O2 Ta1 1.950512 1_555
O3 Si1 1.711677 1_555
O3 Ta0 1.955131 1_555
O4 Si3 1.722371 1_555
O4 Ta1 1.969821 1_545
O5 Si2 1.724497 1_555
O5 Ta0 1.976518 1_545
O6 S2 1.510045 1_555
O6 Ta2 2.227290 1_445
O7 Si4 1.646929 1_555
O7 Ta3 1.982923 1_545
O8 Si6 1.646280 1_555
O8 Ta3 1.947604 1_555
O9 Si5 1.707837 1_555
O9 Ta2 1.996362 1_555
O10 Si7 1.668323 1_555
O10 Ta3 1.989057 1_545
O11 Si8 1.669296 1_555
O11 Ta2 1.939972 1_545
O12 Si7 1.641542 1_565
O12 Ta4 1.915369 1_565
O13 Si8 1.605735 1_565
O13 Y0 2.228360 1_565
O14 S2 1.464944 1_555
O14 Y0 2.229551 1_455
O15 Si4 1.624779 1_555
O15 Ta4 1.979715 1_555
O16 Si5 1.608099 1_455
O16 Y0 2.135610 1_465
O17 Si6 1.636341 1_555
O17 Ta4 2.000004 1_565
O18 Si0 1.611777 1_555
O18 Y2 2.112295 1_565
O19 Si1 1.604432 1_555
O19 Y1 2.149801 1_665
O20 Si2 1.605345 1_455
O20 Y1 2.145663 1_555
O21 Si3 1.610821 1_555
O21 Y2 2.112771 1_555
O22 S0 1.459582 1_565
O22 Y1 2.217198 1_565
O23 S1 1.480715 1_565
O23 Y2 2.270943 1_565
O24 Si9 1.663420 1_555
O24 Ta5 1.879183 1_555
O25 Si10 1.681629 1_555
O25 Ta6 1.940677 1_555
O26 Si11 1.666613 1_555
O26 Ta5 1.983733 1_555
O27 Si12 1.661150 1_555
O27 Ta6 1.999729 1_555
O28 Si13 1.649956 1_555
O28 Ta5 1.948390 1_555
O29 Si14 1.665437 1_555
O29 Ta6 1.968874 1_555
O30 Si15 1.679184 1_555
O30 Ta7 1.910299 1_555
O31 Si16 1.702200 1_555
O31 Ta8 1.889641 1_555
O32 Si17 1.664608 1_555
O32 Ta7 2.000965 1_555
O33 Si18 1.664737 1_555
O33 Ta8 2.029711 1_555
O34 Si19 1.673709 1_555
O34 Ta7 1.959100 1_555
O35 Si20 1.661162 1_555
O35 Ta8 1.977757 1_555
O36 Si19 1.621403 1_555
O36 Ta9 1.913610 1_554
O37 Si20 1.626403 1_555
O37 Ta10 1.937704 1_554
O38 Si15 1.607234 1_555
O38 Ta9 1.946095 1_554
O39 Si16 1.631192 1_555
O39 Ta10 1.984998 1_554
O40 Si17 1.628169 1_555
O40 Ta9 1.976066 1_554
O41 Si18 1.630055 1_555
O41 Ta10 1.923275 1_554
O42 Si11 1.629581 1_555
O42 Ta11 1.892058 1_555
O43 Si12 1.632792 1_555
O43 Ta12 1.927867 1_555
O44 Si13 1.638989 1_555
O44 Ta11 1.967878 1_555
O45 Si14 1.623845 1_555
O45 Ta12 1.941692 1_555
O46 Si9 1.622601 1_555
O46 Ta11 1.981115 1_555
O47 Si10 1.632190 1_555
O47 Ta12 1.945320 1_555
O48 Si21 1.685666 1_555
O48 Ta13 1.976398 1_556
O49 Si22 1.649373 1_555
O49 Ta14 1.959991 1_556
O50 Si23 1.669004 1_555
O50 Ta13 1.983754 1_556
O51 Si24 1.659988 1_555
O51 Ta14 1.953277 1_556
O52 Si25 1.678863 1_555
O52 Ta13 1.968058 1_556
O53 Si26 1.664448 1_555
O53 Ta14 1.952859 1_556
O54 Si27 1.660714 1_555
O54 Ta15 1.986703 1_555
O55 Si28 1.658580 1_555
O55 Ta16 2.048590 1_555
O56 Si29 1.669414 1_555
O56 Ta15 1.998426 1_555
O57 Si30 1.670544 1_555
O57 Ta16 1.980481 1_555
O58 Si31 1.659883 1_555
O58 Ta15 2.021384 1_555
O59 Si32 1.663156 1_555
O59 Ta16 1.940633 1_555
O60 Si31 1.593619 1_555
O60 Y3 2.176267 1_555
O61 Si32 1.593353 1_555
O61 Y4 2.168739 1_555
O62 Si27 1.590738 1_555
O62 Y3 2.248575 1_555
O63 Si28 1.590808 1_555
O63 Y4 2.226179 1_555
O64 Si29 1.601420 1_555
O64 Y3 2.153533 1_555
O65 Si30 1.599945 1_555
O65 Y4 2.141134 1_555
O66 Si23 1.592193 1_555
O66 Y5 2.189813 1_555
O67 Si24 1.642445 1_555
O67 Ta17 1.918336 1_555
O68 Si25 1.606693 1_555
O68 Y5 2.193801 1_555
O69 Si26 1.637513 1_555
O69 Ta17 1.964775 1_555
O70 Si21 1.579694 1_555
O70 Y5 2.133710 1_555
O71 Si22 1.629956 1_555
O71 Ta17 2.002614 1_555
O72 Si31 1.665596 1_555
O72 Ta0 2.020208 1_455
O73 Si32 1.655313 1_555
O73 Ta1 2.023948 1_555
O74 Si27 1.707209 1_555
O74 Ta1 1.955302 1_555
O75 Si28 1.703411 1_555
O75 Ta0 1.960887 1_555
O76 Si29 1.659223 1_555
O76 Ta0 2.037449 1_445
O77 Si30 1.650641 1_555
O77 Ta1 2.040369 1_545
O78 Si23 1.656744 1_555
O78 Ta2 1.977849 1_445
O79 Si24 1.635586 1_555
O79 Ta3 2.050958 1_545
O80 Si25 1.656890 1_555
O80 Ta2 2.047675 1_455
O81 Si26 1.630449 1_555
O81 Ta3 2.021950 1_555
O82 Si21 1.664066 1_555
O82 Ta3 2.046342 1_555
O83 Si22 1.670541 1_555
O83 Ta2 1.940063 1_555
O84 Si9 1.628076 1_555
O84 Ta4 2.024259 1_555
O85 Si10 1.600560 1_555
O85 Y0 2.220345 1_555
O86 Si11 1.609241 1_555
O86 Y0 2.257622 1_455
O87 Si12 1.621566 1_555
O87 Ta4 2.044147 1_555
O88 Si13 1.640508 1_555
O88 Ta4 2.012067 1_565
O89 Si14 1.620336 1_555
O89 Y0 2.247978 1_565
O90 Si15 1.608439 1_555
O90 Y2 2.281186 1_565
O91 Si16 1.597216 1_555
O91 Y1 2.255368 1_665
O92 Si17 1.633957 1_555
O92 Y2 2.237504 1_555
O93 Si18 1.609291 1_555
O93 Y1 2.295883 1_655
O94 Si19 1.600707 1_555
O94 Y1 2.237240 1_555
O95 Si20 1.612777 1_555
O95 Y2 2.278415 1_555
O96 Si7 1.679397 1_555
O96 Ta5 2.003592 1_555
O97 Si8 1.649303 1_555
O97 Ta6 2.059859 1_555
O98 S2 1.516306 1_555
O98 Ta5 2.343305 1_555
O99 Si4 1.659345 1_555
O99 Ta6 2.079300 1_555
O100 Si6 1.638143 1_555
O100 Ta5 2.013680 1_555
O101 Si5 1.678445 1_555
O101 Ta6 2.021122 1_555
O102 Si0 1.660737 1_555
O102 Ta7 1.984326 1_555
O103 Si1 1.670272 1_555
O103 Ta8 1.970482 1_555
O104 Si3 1.681527 1_555
O104 Ta7 2.030067 1_555
O105 Si2 1.698048 1_555
O105 Ta8 2.007956 1_555
O106 S0 1.509119 1_555
O106 Ta7 2.282120 1_555
O107 S1 1.516037 1_555
O107 Ta8 2.293205 1_555
O108 Si21 1.630123 1_555
O108 Ta9 1.941318 1_555
O109 Si22 1.638167 1_555
O109 Ta10 2.079838 1_555
O110 Si24 1.634606 1_555
O110 Ta9 2.074941 1_555
O111 Si23 1.654818 1_655
O111 Ta10 1.970053 1_555
O112 Si25 1.632856 1_545
O112 Ta9 1.981226 1_555
O113 Si26 1.639876 1_545
O113 Ta10 1.993700 1_555
O114 Si27 1.634882 1_545
O114 Ta11 2.030246 1_555
O115 Si28 1.636355 1_545
O115 Ta12 2.008085 1_555
O116 Si29 1.637748 1_555
O116 Ta11 1.978819 1_555
O117 Si30 1.631919 1_555
O117 Ta12 1.962761 1_555
O118 Si32 1.648873 1_555
O118 Ta11 2.020451 1_555
O119 Si31 1.663638 1_655
O119 Ta12 2.036185 1_555
O120 Si19 1.664492 1_555
O120 Ta13 2.068128 1_555
O121 Si20 1.653210 1_555
O121 Ta14 2.057159 1_555
O122 Si16 1.642824 1_455
O122 Ta13 2.049754 1_555
O123 Si15 1.646920 1_555
O123 Ta14 2.046693 1_555
O124 Si17 1.650145 1_565
O124 Ta13 2.012350 1_555
O125 Si18 1.660588 1_565
O125 Ta14 2.043240 1_555
O126 Si11 1.655793 1_565
O126 Ta15 2.007898 1_555
O127 Si12 1.656003 1_565
O127 Ta16 2.059077 1_555
O128 Si13 1.648593 1_555
O128 Ta15 1.992422 1_555
O129 Si14 1.642779 1_555
O129 Ta16 2.043215 1_555
O130 Si10 1.642385 1_455
O130 Ta15 2.067689 1_555
O131 Si9 1.641828 1_555
O131 Ta16 1.989231 1_555
O132 S0 1.457779 1_565
O132 Y3 2.382322 1_555
O133 S1 1.458786 1_565
O133 Y4 2.396331 1_555
O134 Si0 1.606243 1_555
O134 Y3 2.236608 1_555
O135 Si1 1.609040 1_555
O135 Y4 2.239986 1_555
O136 Si2 1.591332 1_455
O136 Y3 2.197088 1_555
O137 Si3 1.592562 1_555
O137 Y4 2.184640 1_555
O138 S2 1.451421 1_555
O138 Y5 2.309494 1_555
O139 Si4 1.653541 1_555
O139 Ta17 2.044828 1_555
O140 Si5 1.600236 1_455
O140 Y5 2.220640 1_555
O141 Si6 1.668690 1_555
O141 Ta17 2.024339 1_555
O142 Si7 1.610488 1_565
O142 Y5 2.299523 1_555
O143 Si8 1.660547 1_565
O143 Ta17 2.022913 1_555
