# generated using pymatgen
data_K2MgTi2O5
_symmetry_space_group_name_H-M   'P 1'
_cell_length_a   3.88942280
_cell_length_b   6.46313733
_cell_length_c   7.09910750
_cell_angle_alpha   93.60608621
_cell_angle_beta   89.68091600
_cell_angle_gamma   107.31257812
_symmetry_Int_Tables_number   1
_chemical_formula_structural   K2MgTi2O5
_chemical_formula_sum   'K2 Mg1 Ti2 O5'
_cell_volume   170.01806946
_cell_formula_units_Z   1
loop_
 _symmetry_equiv_pos_site_id
 _symmetry_equiv_pos_as_xyz
  1  'x, y, z'
loop_
 _atom_site_type_symbol
 _atom_site_label
 _atom_site_symmetry_multiplicity
 _atom_site_fract_x
 _atom_site_fract_y
 _atom_site_fract_z
 _atom_site_occupancy
  K  K0  1  0.63924544  0.27452193  0.43766621  1
  K  K1  1  0.36479544  0.73699205  0.57691110  1
  Mg  Mg0  1  0.49948395  -0.00020901  0.00731839  1
  Ti  Ti0  1  0.82802282  0.65589818  0.08333421  1
  Ti  Ti1  1  0.17133895  0.34476260  0.93004446  1
  O  O0  1  0.65901853  0.32150394  0.03593580  1
  O  O1  1  0.33919992  0.67643401  -0.00093567  1
  O  O2  1  0.83855424  0.67859703  0.33357788  1
  O  O3  1  0.16309479  0.32694853  0.68121242  1
  O  O4  1  0.99724591  0.99496774  0.99493519  1
loop_
_geom_bond_atom_site_label_1
_geom_bond_atom_site_label_2
_geom_bond_distance
_geom_bond_site_symmetry_2
K0 O3 2.607290 1_555
K0 O3 2.609609 1_655
K0 O2 2.645530 1_555
K0 O0 2.885169 1_555
K1 O2 2.610252 1_455
K1 O2 2.611190 1_555
K1 O3 2.681431 1_555
K1 O1 3.043947 1_556
Mg0 O4 1.946756 1_444
Mg0 O4 1.946921 1_544
Mg0 O0 1.982439 1_555
Mg0 O1 1.992319 1_545
O0 Ti0 2.069228 1_555
O0 Ti1 2.092255 1_654
O0 Ti1 2.094116 1_554
O1 Ti0 2.040358 1_555
O1 Ti0 2.041585 1_455
O1 Ti1 2.073642 1_554
O2 Ti0 1.773027 1_555
O3 Ti1 1.762840 1_555
O4 Ti0 2.222484 1_556
O4 Ti1 2.235674 1_665
