# generated using pymatgen
data_Mo2P3O11
_symmetry_space_group_name_H-M   'P 1'
_cell_length_a   7.38072365
_cell_length_b   7.38060379
_cell_length_c   9.03474037
_cell_angle_alpha   70.59205574
_cell_angle_beta   70.59136548
_cell_angle_gamma   72.39486381
_symmetry_Int_Tables_number   1
_chemical_formula_structural   Mo2P3O11
_chemical_formula_sum   'Mo4 P6 O22'
_cell_volume   427.49226740
_cell_formula_units_Z   2
loop_
 _symmetry_equiv_pos_site_id
 _symmetry_equiv_pos_as_xyz
  1  'x, y, z'
loop_
 _atom_site_type_symbol
 _atom_site_label
 _atom_site_symmetry_multiplicity
 _atom_site_fract_x
 _atom_site_fract_y
 _atom_site_fract_z
 _atom_site_occupancy
  Mo  Mo0  1  0.36474342  0.88550258  0.70961062  1
  Mo  Mo1  1  0.63560713  0.11419220  0.79039598  1
  Mo  Mo2  1  0.11449135  0.63525519  0.29039273  1
  Mo  Mo3  1  0.88580436  0.36439423  0.20960401  1
  P  P0  1  0.54507117  0.67149953  0.03656659  1
  P  P1  1  0.32850805  0.45492251  0.96342627  1
  P  P2  1  0.67174543  0.54475566  0.53654567  1
  P  P3  1  0.45524452  0.32825480  0.46345858  1
  P  P4  1  0.03899728  0.96100089  0.49999722  1
  P  P5  1  0.96132333  0.03868549  -0.00000495  1
  O  O0  1  0.05177481  0.77194292  0.45924781  1
  O  O1  1  0.53417532  0.84086518  0.87980246  1
  O  O2  1  0.15914081  0.46581765  0.12018845  1
  O  O3  1  0.62163874  0.27967338  0.32153008  1
  O  O4  1  0.27982533  0.62131988  0.82149459  1
  O  O5  1  0.84108801  0.53373941  0.37977988  1
  O  O6  1  0.13584919  0.01896128  0.85389735  1
  O  O7  1  0.01915194  0.13554307  0.35391306  1
  O  O8  1  0.61486859  0.74529745  0.56533959  1
  O  O9  1  0.37867738  0.72018847  0.17848116  1
  O  O10  1  0.72031179  0.37836889  0.67848929  1
  O  O11  1  0.25470137  0.38512054  0.43467862  1
  O  O12  1  0.22805183  0.94822657  0.54077839  1
  O  O13  1  0.94846162  0.22774976  0.04083205  1
  O  O14  1  0.77226141  0.05153952  0.95915488  1
  O  O15  1  0.48842000  0.51158127  0.50000237  1
  O  O16  1  0.74563935  0.61444632  0.06534913  1
  O  O17  1  0.98103283  0.86415037  0.14608506  1
  O  O18  1  0.46625185  0.15890297  0.62023421  1
  O  O19  1  0.38555701  0.25437048  0.93464260  1
  O  O20  1  0.86445994  0.98084557  0.64609723  1
  O  O21  1  0.51175685  0.48825597  -0.00001198  1
loop_
_geom_bond_atom_site_label_1
_geom_bond_atom_site_label_2
_geom_bond_distance
_geom_bond_site_symmetry_2
Mo0 O12 1.956991 1_555
Mo0 O6 1.976553 1_565
Mo0 O4 2.055422 1_555
Mo0 O8 2.078330 1_555
Mo0 O18 2.171327 1_565
Mo0 O1 2.174573 1_555
Mo1 O14 1.956313 1_555
Mo1 O20 1.976084 1_545
Mo1 O10 2.054724 1_555
Mo1 O19 2.077841 1_555
Mo1 O1 2.170536 1_545
Mo1 O18 2.173771 1_555
Mo2 O0 1.957135 1_555
Mo2 O17 1.976672 1_455
Mo2 O9 2.055527 1_555
Mo2 O11 2.078462 1_555
Mo2 O5 2.171388 1_455
Mo2 O2 2.174647 1_555
Mo3 O13 1.956333 1_555
Mo3 O7 1.976145 1_655
Mo3 O3 2.054733 1_555
Mo3 O16 2.077855 1_555
Mo3 O2 2.170583 1_655
Mo3 O5 2.173782 1_555
O0 P4 1.526500 1_555
O1 P0 1.553473 1_556
O2 P1 1.553462 1_554
O3 P3 1.507863 1_555
O4 P1 1.508106 1_555
O5 P2 1.553495 1_555
O6 P5 1.518882 1_456
O7 P4 1.518989 1_545
O8 P2 1.497369 1_555
O9 P0 1.507996 1_555
O10 P2 1.507905 1_555
O11 P3 1.497361 1_555
O12 P4 1.526659 1_555
O13 P5 1.526777 1_555
O14 P5 1.526819 1_556
O15 P3 1.597112 1_555
O15 P2 1.597120 1_555
O16 P0 1.497443 1_555
O17 P5 1.518865 1_565
O18 P3 1.553584 1_555
O19 P1 1.497307 1_555
O20 P4 1.519054 1_655
O21 P0 1.597183 1_555
O21 P1 1.597228 1_554
