# generated using pymatgen
data_Na4Mg(Ni2O5)2
_symmetry_space_group_name_H-M   'P 1'
_cell_length_a   5.37148041
_cell_length_b   5.80753747
_cell_length_c   8.69708350
_cell_angle_alpha   116.59018812
_cell_angle_beta   103.41414568
_cell_angle_gamma   102.11467396
_symmetry_Int_Tables_number   1
_chemical_formula_structural   Na4Mg(Ni2O5)2
_chemical_formula_sum   'Na4 Mg1 Ni4 O10'
_cell_volume   220.10943445
_cell_formula_units_Z   1
loop_
 _symmetry_equiv_pos_site_id
 _symmetry_equiv_pos_as_xyz
  1  'x, y, z'
loop_
 _atom_site_type_symbol
 _atom_site_label
 _atom_site_symmetry_multiplicity
 _atom_site_fract_x
 _atom_site_fract_y
 _atom_site_fract_z
 _atom_site_occupancy
  Na  Na0  1  0.19631926  0.30916059  0.39424285  1
  Na  Na1  1  0.58197227  0.77704098  0.30831883  1
  Na  Na2  1  0.85706270  0.21554794  0.69942631  1
  Na  Na3  1  0.98368909  0.57112649  0.13284274  1
  Mg  Mg0  1  0.47649202  0.68786148  0.90835261  1
  Ni  Ni0  1  0.36255769  0.87687769  0.70304852  1
  Ni  Ni1  1  0.00440804  0.97575737  0.98668915  1
  Ni  Ni2  1  0.82815496  0.60593224  0.60032888  1
  Ni  Ni3  1  0.58857476  0.18898522  0.20234063  1
  O  O0  1  0.08276414  0.97751609  0.77395517  1
  O  O1  1  0.15637424  0.52660564  0.66559647  1
  O  O2  1  0.28849126  0.84943569  0.07565981  1
  O  O3  1  0.28731046  0.32251262  0.15176802  1
  O  O4  1  0.55979178  0.75761290  0.55940089  1
  O  O5  1  0.76373500  0.60919079  0.80796677  1
  O  O6  1  0.60390924  0.23685472  0.44045947  1
  O  O7  1  0.65765045  0.10479254  0.94193491  1
  O  O8  1  0.87045841  0.55320480  0.37306377  1
  O  O9  1  0.81879622  0.94442124  0.15887620  1
loop_
_geom_bond_atom_site_label_1
_geom_bond_atom_site_label_2
_geom_bond_distance
_geom_bond_site_symmetry_2
Na0 O1 2.211563 1_555
Na0 O9 2.275682 1_445
Na0 O6 2.293443 1_555
Na0 O3 2.302333 1_555
Na0 O4 2.423542 1_555
Na0 O8 2.496355 1_455
Na1 O4 2.265177 1_555
Na1 O3 2.314291 1_555
Na1 O8 2.346083 1_555
Na1 O6 2.350183 1_565
Na1 O9 2.373080 1_555
Na1 O2 2.513172 1_555
Na2 O0 2.223038 1_645
Na2 O5 2.266572 1_555
Na2 O1 2.326155 1_655
Na2 O4 2.349794 1_545
Na2 O6 2.415818 1_555
Na2 O7 2.825404 1_555
Na3 O8 2.345906 1_555
Na3 O2 2.350941 1_655
Na3 O7 2.406880 1_554
Na3 O3 2.418294 1_655
Na3 O9 2.448520 1_555
Mg0 O2 1.968440 1_556
Mg0 O5 1.978735 1_555
Mg0 O1 2.039823 1_555
Mg0 O9 2.105508 1_556
Mg0 O7 2.267415 1_565
Ni0 O4 1.819453 1_555
Ni0 O0 1.859212 1_555
Ni0 O7 1.926277 1_565
Ni0 O1 1.940244 1_555
Ni1 O3 1.881711 1_566
Ni1 O5 1.889323 1_455
Ni1 O2 1.973745 1_556
Ni1 O0 1.994186 1_555
Ni1 O9 2.032309 1_456
Ni1 O7 2.166324 1_465
Ni2 O6 1.857342 1_555
Ni2 O4 1.885798 1_555
Ni2 O5 1.908730 1_555
Ni2 O0 1.921818 1_655
Ni2 O8 1.935948 1_555
Ni2 O1 1.937367 1_655
Ni3 O2 1.896721 1_545
Ni3 O6 1.941315 1_555
Ni3 O8 1.942266 1_555
Ni3 O3 1.978714 1_555
Ni3 O9 2.040325 1_545
Ni3 O7 2.231734 1_554
