# generated using pymatgen
data_NdPt2
_symmetry_space_group_name_H-M   'P 1'
_cell_length_a   5.48759537
_cell_length_b   5.48759535
_cell_length_c   5.48759607
_cell_angle_alpha   59.99999561
_cell_angle_beta   59.99999571
_cell_angle_gamma   60.00000052
_symmetry_Int_Tables_number   1
_chemical_formula_structural   NdPt2
_chemical_formula_sum   'Nd2 Pt4'
_cell_volume   116.85068761
_cell_formula_units_Z   2
loop_
 _symmetry_equiv_pos_site_id
 _symmetry_equiv_pos_as_xyz
  1  'x, y, z'
loop_
 _atom_site_type_symbol
 _atom_site_label
 _atom_site_symmetry_multiplicity
 _atom_site_fract_x
 _atom_site_fract_y
 _atom_site_fract_z
 _atom_site_occupancy
  Nd  Nd0  1  0.87500000  0.87500000  0.87500000  1
  Nd  Nd1  1  0.12500000  0.12500000  0.12500000  1
  Pt  Pt0  1  0.50000000  0.50000000  0.50000000  1
  Pt  Pt1  1  0.50000000  0.50000000  0.00000000  1
  Pt  Pt2  1  -0.00000000  0.50000000  0.50000000  1
  Pt  Pt3  1  0.50000000  -0.00000000  0.50000000  1
loop_
_geom_bond_atom_site_label_1
_geom_bond_atom_site_label_2
_geom_bond_distance
_geom_bond_site_symmetry_2
Nd0 Pt2 3.217388 1_665
Nd0 Pt3 3.217388 1_665
Nd0 Pt0 3.217388 1_556
Nd0 Pt1 3.217388 1_556
Nd0 Pt0 3.217388 1_565
Nd0 Pt1 3.217388 1_566
Nd0 Pt0 3.217388 1_655
Nd0 Pt1 3.217388 1_656
Nd0 Pt2 3.217388 1_656
Nd0 Pt2 3.217388 1_655
Nd0 Pt3 3.217388 1_566
Nd0 Pt3 3.217388 1_565
Nd1 Pt2 3.217388 1_545
Nd1 Pt3 3.217388 1_455
Nd1 Pt0 3.217388 1_554
Nd1 Pt1 3.217388 1_555
Nd1 Pt0 3.217388 1_545
Nd1 Pt1 3.217388 1_545
Nd1 Pt0 3.217388 1_455
Nd1 Pt1 3.217388 1_455
Nd1 Pt2 3.217388 1_554
Nd1 Pt2 3.217388 1_555
Nd1 Pt3 3.217388 1_554
Nd1 Pt3 3.217388 1_555
Pt0 Pt3 2.743798 1_555
Pt0 Pt3 2.743798 1_565
Pt0 Pt2 2.743798 1_655
Pt0 Pt2 2.743798 1_555
Pt0 Pt1 2.743798 1_555
Pt0 Pt1 2.743798 1_556
Pt1 Pt3 2.743798 1_555
Pt1 Pt3 2.743798 1_564
Pt1 Pt2 2.743798 1_555
Pt1 Pt2 2.743798 1_654
Pt2 Pt3 2.743798 1_465
Pt2 Pt3 2.743798 1_555
