# generated using pymatgen
data_MgFeCo3O8
_symmetry_space_group_name_H-M   'P 1'
_cell_length_a   5.92822487
_cell_length_b   5.82172704
_cell_length_c   5.82079182
_cell_angle_alpha   58.92154470
_cell_angle_beta   61.32094340
_cell_angle_gamma   89.69147899
_symmetry_Int_Tables_number   1
_chemical_formula_structural   MgFeCo3O8
_chemical_formula_sum   'Mg1 Fe1 Co3 O8'
_cell_volume   142.88048326
_cell_formula_units_Z   1
loop_
 _symmetry_equiv_pos_site_id
 _symmetry_equiv_pos_as_xyz
  1  'x, y, z'
loop_
 _atom_site_type_symbol
 _atom_site_label
 _atom_site_symmetry_multiplicity
 _atom_site_fract_x
 _atom_site_fract_y
 _atom_site_fract_z
 _atom_site_occupancy
  Mg  Mg0  1  0.50000000  0.50000000  0.00000000  1
  Fe  Fe0  1  0.00000000  0.00000000  0.00000000  1
  Co  Co0  1  0.00000000  0.00000000  0.50000000  1
  Co  Co1  1  0.00000000  0.50000000  0.00000000  1
  Co  Co2  1  0.00000000  0.50000000  0.50000000  1
  O  O0  1  0.21173800  0.24625700  0.03514800  1
  O  O1  1  0.20409100  0.24163700  0.50955200  1
  O  O2  1  0.20406600  0.71314400  0.03787500  1
  O  O3  1  0.20152000  0.75181900  0.55140300  1
  O  O4  1  0.79848000  0.24818100  0.44859700  1
  O  O5  1  0.79593400  0.28685600  0.96212500  1
  O  O6  1  0.79590900  0.75836300  0.49044800  1
  O  O7  1  0.78826200  0.75374300  0.96485200  1
loop_
_geom_bond_atom_site_label_1
_geom_bond_atom_site_label_2
_geom_bond_distance
_geom_bond_site_symmetry_2
Mg0 O7 2.126950 1_554
Mg0 O0 2.126950 1_555
Mg0 O5 2.133989 1_554
Mg0 O2 2.133989 1_555
Mg0 O6 2.136697 1_554
Mg0 O1 2.136697 1_555
Fe0 O1 2.037060 1_554
Fe0 O6 2.037060 1_445
Fe0 O2 2.038408 1_545
Fe0 O5 2.038408 1_454
Fe0 O0 2.059483 1_555
Fe0 O7 2.059483 1_444
Co0 O4 1.866137 1_455
Co0 O3 1.866137 1_545
Co0 O6 1.899874 1_445
Co0 O1 1.899874 1_555
Co0 O7 1.925325 1_445
Co0 O0 1.925325 1_555
Co1 O4 1.862077 1_455
Co1 O3 1.862077 1_554
Co1 O2 1.899060 1_555
Co1 O5 1.899060 1_454
Co1 O7 1.927210 1_454
Co1 O0 1.927210 1_555
Co2 O5 1.919827 1_455
Co2 O2 1.919827 1_555
Co2 O1 1.920402 1_555
Co2 O6 1.920402 1_455
Co2 O3 2.116779 1_555
Co2 O4 2.116779 1_455
