# generated using pymatgen
data_LiCuPO4
_symmetry_space_group_name_H-M   'P 1'
_cell_length_a   7.31753524
_cell_length_b   6.13408735
_cell_length_c   5.60369644
_cell_angle_alpha   76.98513288
_cell_angle_beta   54.75962642
_cell_angle_gamma   48.25524070
_symmetry_Int_Tables_number   1
_chemical_formula_structural   LiCuPO4
_chemical_formula_sum   'Li2 Cu2 P2 O8'
_cell_volume   147.97027722
_cell_formula_units_Z   2
loop_
 _symmetry_equiv_pos_site_id
 _symmetry_equiv_pos_as_xyz
  1  'x, y, z'
loop_
 _atom_site_type_symbol
 _atom_site_label
 _atom_site_symmetry_multiplicity
 _atom_site_fract_x
 _atom_site_fract_y
 _atom_site_fract_z
 _atom_site_occupancy
  Li  Li0  1  0.81675300  0.18324700  0.81675300  1
  Li  Li1  1  0.06675300  0.43324700  0.06675300  1
  Cu  Cu0  1  0.71899600  0.78100400  0.71899600  1
  Cu  Cu1  1  0.46899600  0.53100400  0.46899600  1
  P  P0  1  0.11705400  0.88294600  0.11705400  1
  P  P1  1  0.36705400  0.13294600  0.36705400  1
  O  O0  1  0.40136500  0.26421100  0.52992600  1
  O  O1  1  0.52992600  0.80449800  0.40136500  1
  O  O2  1  0.44550200  0.72007400  0.98578900  1
  O  O3  1  0.98578900  0.84863500  0.44550200  1
  O  O4  1  0.51538700  0.13174200  0.02562500  1
  O  O5  1  0.92275400  0.22437500  0.11825800  1
  O  O6  1  0.11825800  0.73461300  0.92275400  1
  O  O7  1  0.02562500  0.32724600  0.51538700  1
loop_
_geom_bond_atom_site_label_1
_geom_bond_atom_site_label_2
_geom_bond_distance
_geom_bond_site_symmetry_2
Li0 O7 2.028659 1_655
Li0 O4 2.028659 1_556
Li0 O5 2.341962 1_556
Li0 O6 2.341962 1_645
Li0 O2 2.375659 1_555
Li0 O3 2.375659 1_545
Li1 O5 2.028659 1_455
Li1 O6 2.028659 1_554
Li1 O7 2.341962 1_555
Li1 O4 2.341962 1_555
Li1 O0 2.375659 1_554
Li1 O1 2.375659 1_455
Cu0 O3 1.916130 1_555
Cu0 O2 1.916130 1_555
Cu0 O7 2.059904 1_655
Cu0 O4 2.059904 1_566
Cu1 O0 1.916130 1_555
Cu1 O1 1.916130 1_555
Cu1 O5 2.059904 1_555
Cu1 O6 2.059904 1_555
O0 P1 1.552098 1_555
O1 P1 1.552098 1_565
O2 P0 1.552098 1_556
O3 P0 1.552098 1_655
O4 P1 1.561384 1_555
O5 P0 1.561384 1_645
O6 P0 1.561384 1_556
O7 P1 1.561384 1_555
