# generated using pymatgen
data_TaPS6
_symmetry_space_group_name_H-M   'P 1'
_cell_length_a   13.16548205
_cell_length_b   13.16547963
_cell_length_c   13.16556774
_cell_angle_alpha   105.01203644
_cell_angle_beta   105.01218810
_cell_angle_gamma   118.81311592
_symmetry_Int_Tables_number   1
_chemical_formula_structural   TaPS6
_chemical_formula_sum   'Ta8 P8 S48'
_cell_volume   1721.14192288
_cell_formula_units_Z   8
loop_
 _symmetry_equiv_pos_site_id
 _symmetry_equiv_pos_as_xyz
  1  'x, y, z'
loop_
 _atom_site_type_symbol
 _atom_site_label
 _atom_site_symmetry_multiplicity
 _atom_site_fract_x
 _atom_site_fract_y
 _atom_site_fract_z
 _atom_site_occupancy
  Ta  Ta0  1  0.07569888  0.57569873  0.65139898  1
  Ta  Ta1  1  0.82570023  0.67430032  -0.00000055  1
  Ta  Ta2  1  0.67429952  0.82570015  -0.00000020  1
  Ta  Ta3  1  0.92429875  0.42429890  0.34860230  1
  Ta  Ta4  1  0.17430085  0.17430010  0.84860135  1
  Ta  Ta5  1  0.42429978  0.07569821  0.49999987  1
  Ta  Ta6  1  0.57570021  0.92429998  0.50000013  1
  Ta  Ta7  1  0.32569942  0.32569925  0.15139960  1
  P  P0  1  0.87500298  0.55527554  0.18027310  1
  P  P1  1  0.87500218  0.05527798  0.68027397  1
  P  P2  1  0.30527619  0.12500169  0.68027457  1
  P  P3  1  0.44472353  0.62499828  0.31972640  1
  P  P4  1  0.37499744  0.19472349  0.31972586  1
  P  P5  1  0.37499764  0.69472197  0.81972605  1
  P  P6  1  0.94472742  0.62500218  0.81972677  1
  P  P7  1  0.80527734  0.12500205  0.18027342  1
  S  S0  1  0.17229117  0.08276572  0.99727218  1
  S  S1  1  0.22085071  0.50470234  0.72163886  1
  S  S2  1  0.75470915  0.53306616  0.78385460  1
  S  S3  1  0.74921114  0.97085531  0.21614345  1
  S  S4  1  0.78306573  0.49921414  0.27835558  1
  S  S5  1  0.99529576  0.27914858  0.27836039  1
  S  S6  1  0.96693657  0.74529483  0.21614521  1
  S  S7  1  0.52914405  0.75078829  0.78385607  1
  S  S8  1  0.16450579  0.57498193  0.49727328  1
  S  S9  1  0.82498178  0.82770963  0.91047559  1
  S  S10  1  0.91723337  0.91450599  0.08952371  1
  S  S11  1  0.07770844  0.66723327  0.50272828  1
  S  S12  1  0.92501834  0.33549326  0.50272680  1
  S  S13  1  0.67229048  0.67501783  0.08952380  1
  S  S14  1  0.58549389  0.58276634  0.91047586  1
  S  S15  1  0.83276551  0.42229216  0.49727183  1
  S  S16  1  0.08549299  0.17501780  0.00272703  1
  S  S17  1  0.42501772  0.92229013  0.58952409  1
  S  S18  1  0.33276611  0.83549348  0.41047604  1
  S  S19  1  0.00078910  0.71693573  0.72164251  1
  S  S20  1  0.32498173  0.41450608  0.99727282  1
  S  S21  1  0.57770934  0.07498202  0.41047567  1
  S  S22  1  0.66450599  0.16723356  0.58952384  1
  S  S23  1  0.41723391  0.32770863  0.00272829  1
  S  S24  1  0.50366364  0.71187385  0.49711264  1
  S  S25  1  0.96187808  0.96476620  0.70821081  1
  S  S26  1  0.25654968  0.25366384  0.29178887  1
  S  S27  1  0.21476363  0.00655389  0.50288770  1
  S  S28  1  0.78812657  0.99633685  0.50288735  1
  S  S29  1  0.53523393  0.53812180  0.29178898  1
  S  S30  1  0.24633386  0.24344738  0.70821123  1
  S  S31  1  0.49344389  0.28523343  0.49711224  1
  S  S32  1  0.74633626  0.03812652  0.00288723  1
  S  S33  1  0.28812130  0.78523290  0.79178946  1
  S  S34  1  0.99344871  0.49633551  0.20821106  1
  S  S35  1  0.03523934  0.74344970  0.99711391  1
  S  S36  1  0.46187296  0.75366301  0.99711242  1
  S  S37  1  0.71476513  0.21187784  0.20821044  1
  S  S38  1  0.00366447  0.50655124  0.79178931  1
  S  S39  1  0.75655376  0.46476385  0.00288685  1
  S  S40  1  0.24921376  0.03306663  0.77835698  1
  S  S41  1  0.49529456  0.21693345  0.71614531  1
  S  S42  1  0.50078895  0.77914557  0.28385642  1
  S  S43  1  0.46693362  0.25078719  0.22164515  1
  S  S44  1  0.25470453  0.47085192  0.22163932  1
  S  S45  1  0.28306562  0.00470402  0.28385404  1
  S  S46  1  0.72085557  0.99921181  0.71614368  1
  S  S47  1  0.02914904  0.24529657  0.77836121  1
loop_
_geom_bond_atom_site_label_1
_geom_bond_atom_site_label_2
_geom_bond_distance
_geom_bond_site_symmetry_2
P0 S4 2.029688 1_555
P0 S6 2.029688 1_555
P0 S34 2.046029 1_555
P0 S39 2.046050 1_555
P1 S46 2.029663 1_545
P1 S47 2.029684 1_655
P1 S28 2.046047 1_545
P1 S25 2.046052 1_545
P2 S40 2.029673 1_555
P2 S41 2.029683 1_555
P2 S30 2.046052 1_555
P2 S27 2.046053 1_555
P3 S42 2.029672 1_555
P3 S44 2.029684 1_555
P3 S29 2.046045 1_555
P3 S24 2.046046 1_555
P4 S43 2.029666 1_555
P4 S45 2.029693 1_555
P4 S31 2.046046 1_555
P4 S26 2.046056 1_555
P5 S7 2.029663 1_555
P5 S1 2.029692 1_555
P5 S36 2.046044 1_555
P5 S33 2.046046 1_555
P6 S2 2.029674 1_555
P6 S19 2.029680 1_655
P6 S35 2.046055 1_655
P6 S38 2.046060 1_655
P7 S3 2.029666 1_545
P7 S5 2.029680 1_555
P7 S32 2.046043 1_555
P7 S37 2.046058 1_555
S0 S16 2.030091 1_556
S0 Ta4 2.549933 1_555
S0 Ta7 2.591201 1_556
S1 Ta0 2.575801 1_555
S2 Ta1 2.575792 1_556
S3 Ta2 2.575781 1_555
S4 Ta3 2.575827 1_555
S5 Ta3 2.575801 1_555
S6 Ta1 2.575795 1_555
S7 Ta2 2.575779 1_556
S8 Ta3 2.549939 1_455
S8 Ta0 2.591198 1_555
S9 Ta2 2.549946 1_556
S9 Ta1 2.591200 1_556
S10 S9 2.030079 1_554
S10 Ta1 2.549932 1_555
S10 Ta2 2.591201 1_555
S11 S8 2.030074 1_555
S11 Ta0 2.549933 1_555
S11 Ta3 2.591203 1_455
S12 S15 2.030108 1_555
S12 Ta0 2.549932 1_655
S12 Ta3 2.591171 1_555
S13 S14 2.030077 1_554
S13 Ta2 2.549944 1_555
S13 Ta1 2.591209 1_555
S14 Ta1 2.549935 1_556
S14 Ta2 2.591203 1_556
S15 Ta3 2.549911 1_555
S15 Ta0 2.591198 1_655
S16 Ta7 2.549939 1_555
S16 Ta4 2.591206 1_554
S17 S18 2.030078 1_555
S17 Ta6 2.549945 1_555
S17 Ta5 2.591187 1_565
S18 Ta5 2.549919 1_565
S18 Ta6 2.591202 1_555
S19 Ta0 2.575801 1_555
S20 S23 2.030084 1_556
S20 Ta4 2.549934 1_555
S20 Ta7 2.591208 1_556
S21 S22 2.030080 1_555
S21 Ta6 2.549944 1_545
S21 Ta5 2.591201 1_555
S22 Ta5 2.549929 1_555
S22 Ta6 2.591200 1_545
S23 Ta7 2.549942 1_555
S23 Ta4 2.591194 1_554
S24 Ta6 2.468195 1_555
S25 Ta4 2.468157 1_665
S26 Ta7 2.468201 1_555
S27 Ta5 2.468177 1_555
S28 Ta6 2.468199 1_555
S29 Ta7 2.468156 1_555
S30 Ta4 2.468187 1_555
S31 Ta5 2.468164 1_555
S32 Ta2 2.468198 1_545
S33 Ta0 2.468156 1_555
S34 Ta3 2.468233 1_555
S35 Ta1 2.468191 1_456
S36 Ta2 2.468200 1_556
S37 Ta3 2.468149 1_555
S38 Ta0 2.468198 1_555
S39 Ta1 2.468174 1_555
S40 Ta4 2.575800 1_555
S41 Ta5 2.575789 1_555
S42 Ta6 2.575780 1_555
S43 Ta7 2.575801 1_555
S44 Ta7 2.575796 1_555
S45 Ta5 2.575789 1_555
S46 Ta6 2.575777 1_555
S47 Ta4 2.575803 1_555
