# generated using pymatgen
data_Sr2MgRu3O10
_symmetry_space_group_name_H-M   'P 1'
_cell_length_a   5.65345130
_cell_length_b   6.66771582
_cell_length_c   6.73092510
_cell_angle_alpha   102.21808849
_cell_angle_beta   93.76687707
_cell_angle_gamma   120.92640274
_symmetry_Int_Tables_number   1
_chemical_formula_structural   Sr2MgRu3O10
_chemical_formula_sum   'Sr2 Mg1 Ru3 O10'
_cell_volume   208.06688748
_cell_formula_units_Z   1
loop_
 _symmetry_equiv_pos_site_id
 _symmetry_equiv_pos_as_xyz
  1  'x, y, z'
loop_
 _atom_site_type_symbol
 _atom_site_label
 _atom_site_symmetry_multiplicity
 _atom_site_fract_x
 _atom_site_fract_y
 _atom_site_fract_z
 _atom_site_occupancy
  Sr  Sr0  1  0.28994373  0.68926589  0.92175355  1
  Sr  Sr1  1  0.69967665  0.35083068  0.13186855  1
  Mg  Mg0  1  0.63631894  0.54331102  0.63576749  1
  Ru  Ru0  1  0.22613600  -0.00135748  0.50443601  1
  Ru  Ru1  1  0.77637236  0.00462798  0.49055349  1
  Ru  Ru2  1  0.99931581  0.01229008  0.00191374  1
  O  O0  1  0.18798698  0.28376055  0.57707370  1
  O  O1  1  0.82008200  0.71160992  0.42289158  1
  O  O2  1  0.65805139  0.24297836  0.55346973  1
  O  O3  1  0.36017101  0.78507543  0.43425896  1
  O  O4  1  0.81591474  0.63898101  0.92644041  1
  O  O5  1  0.73806179  0.98847248  0.18951840  1
  O  O6  1  0.70732758  0.90423331  0.75651738  1
  O  O7  1  0.26464409  0.02026374  0.81226153  1
  O  O8  1  0.24907757  0.02764318  0.21559058  1
  O  O9  1  0.13044436  0.33967887  0.04568391  1
loop_
_geom_bond_atom_site_label_1
_geom_bond_atom_site_label_2
_geom_bond_distance
_geom_bond_site_symmetry_2
Mg0 O4 1.952101 1_555
Mg0 O1 2.017296 1_555
Mg0 O2 2.030861 1_555
Mg0 O0 2.155396 1_555
Mg0 O6 2.179299 1_555
O0 Ru0 1.985338 1_555
O0 Ru1 2.032157 1_455
O0 Sr0 2.931296 1_555
O1 Ru0 2.026773 1_665
O1 Ru1 2.054283 1_565
O1 Sr1 2.496882 1_555
O2 Ru1 1.999397 1_555
O2 Ru0 2.074386 1_555
O3 Ru0 1.922646 1_565
O3 Ru1 1.982577 1_565
O4 Ru2 2.066794 1_566
O4 Sr1 2.445660 1_556
O4 Sr0 2.527308 1_655
O5 Ru2 1.972333 1_565
O5 Ru1 1.997536 1_565
O5 Sr0 2.515880 1_554
O5 Sr1 2.638163 1_565
O6 Ru2 1.971761 1_566
O6 Ru1 2.033638 1_565
O6 Sr0 2.530325 1_555
O7 Ru2 2.020094 1_456
O7 Ru0 2.035485 1_555
O7 Sr0 2.536438 1_545
O7 Sr1 2.694570 1_556
O8 Ru2 1.896069 1_455
O8 Ru0 2.000148 1_555
O8 Sr1 2.551622 1_555
O8 Sr0 2.786142 1_544
O9 Ru2 1.853991 1_455
O9 Sr0 2.388227 1_554
O9 Sr1 2.574170 1_455
