# generated using pymatgen
data_La2InGe2
_symmetry_space_group_name_H-M   'P 1'
_cell_length_a   7.73717630
_cell_length_b   7.73717630
_cell_length_c   4.42862238
_cell_angle_alpha   90.00000000
_cell_angle_beta   90.00000000
_cell_angle_gamma   90.00000000
_symmetry_Int_Tables_number   1
_chemical_formula_structural   La2InGe2
_chemical_formula_sum   'La4 In2 Ge4'
_cell_volume   265.11459444
_cell_formula_units_Z   2
loop_
 _symmetry_equiv_pos_site_id
 _symmetry_equiv_pos_as_xyz
  1  'x, y, z'
loop_
 _atom_site_type_symbol
 _atom_site_label
 _atom_site_symmetry_multiplicity
 _atom_site_fract_x
 _atom_site_fract_y
 _atom_site_fract_z
 _atom_site_occupancy
  La  La0  1  0.31938144  0.81938144  0.50000000  1
  La  La1  1  0.81938144  0.68061856  0.50000000  1
  La  La2  1  0.18061856  0.31938144  0.50000000  1
  La  La3  1  0.68061856  0.18061856  0.50000000  1
  In  In0  1  0.00000000  -0.00000000  -0.00000000  1
  In  In1  1  0.50000000  0.50000000  -0.00000000  1
  Ge  Ge0  1  0.38490070  0.11509930  -0.00000000  1
  Ge  Ge1  1  0.88490070  0.38490070  -0.00000000  1
  Ge  Ge2  1  0.11509930  0.61509930  0.00000000  1
  Ge  Ge3  1  0.61509930  0.88490070  0.00000000  1
loop_
_geom_bond_atom_site_label_1
_geom_bond_atom_site_label_2
_geom_bond_distance
_geom_bond_site_symmetry_2
In0 La0 3.600348 1_545
In0 La3 3.600348 1_455
In0 La1 3.600348 1_445
In0 La3 3.600348 1_454
In0 La0 3.600348 1_544
In0 La2 3.600348 1_554
In0 La1 3.600348 1_444
In0 La2 3.600348 1_555
In1 La1 3.600348 1_554
In1 La3 3.600348 1_554
In1 La0 3.600348 1_555
In1 La0 3.600348 1_554
In1 La3 3.600348 1_555
In1 La2 3.600348 1_554
In1 La1 3.600348 1_555
In1 La2 3.600348 1_555
Ge0 Ge3 2.518838 1_545
Ge0 In0 3.108346 1_555
Ge0 In1 3.108346 1_555
Ge0 La2 3.146356 1_554
Ge0 La2 3.146356 1_555
Ge0 La0 3.224158 1_544
Ge0 La0 3.224158 1_545
Ge0 La3 3.224158 1_554
Ge0 La3 3.224158 1_555
Ge1 Ge2 2.518838 1_655
Ge1 In1 3.108346 1_555
Ge1 In0 3.108346 1_655
Ge1 La3 3.146356 1_555
Ge1 La3 3.146356 1_554
Ge1 La1 3.224158 1_555
Ge1 La1 3.224158 1_554
Ge1 La2 3.224158 1_655
Ge1 La2 3.224158 1_654
Ge2 In1 3.108346 1_555
Ge2 In0 3.108346 1_565
Ge2 La0 3.146356 1_554
Ge2 La0 3.146356 1_555
Ge2 La1 3.224158 1_454
Ge2 La2 3.224158 1_554
Ge2 La2 3.224158 1_555
Ge2 La1 3.224158 1_455
Ge3 In0 3.108346 1_665
Ge3 In1 3.108346 1_555
Ge3 La1 3.146356 1_555
Ge3 La1 3.146356 1_554
Ge3 La0 3.224158 1_555
Ge3 La0 3.224158 1_554
Ge3 La3 3.224158 1_565
Ge3 La3 3.224158 1_564
