# generated using pymatgen
data_RbAuBr3
_symmetry_space_group_name_H-M   'P 1'
_cell_length_a   7.40064024
_cell_length_b   7.34929344
_cell_length_c   8.49634510
_cell_angle_alpha   62.56453010
_cell_angle_beta   64.18166802
_cell_angle_gamma   59.76861089
_symmetry_Int_Tables_number   1
_chemical_formula_structural   RbAuBr3
_chemical_formula_sum   'Rb2 Au2 Br6'
_cell_volume   341.64867601
_cell_formula_units_Z   2
loop_
 _symmetry_equiv_pos_site_id
 _symmetry_equiv_pos_as_xyz
  1  'x, y, z'
loop_
 _atom_site_type_symbol
 _atom_site_label
 _atom_site_symmetry_multiplicity
 _atom_site_fract_x
 _atom_site_fract_y
 _atom_site_fract_z
 _atom_site_occupancy
  Rb  Rb0  1  0.27228599  0.22705965  0.22836737  1
  Rb  Rb1  1  0.72771401  0.77294035  0.77163263  1
  Au  Au0  1  0.00000000  0.00000000  0.00000000  1
  Au  Au1  1  0.50000000  0.50000000  0.50000000  1
  Br  Br0  1  0.20032919  0.25282246  0.81872471  1
  Br  Br1  1  0.27187536  0.74717754  0.18127529  1
  Br  Br2  1  0.79967081  0.74717754  0.18127529  1
  Br  Br3  1  0.72812464  0.25282246  0.81872471  1
  Br  Br4  1  0.71796418  0.20603108  0.35803957  1
  Br  Br5  1  0.28203582  0.79396892  0.64196043  1
loop_
_geom_bond_atom_site_label_1
_geom_bond_atom_site_label_2
_geom_bond_distance
_geom_bond_site_symmetry_2
Au0 Br3 2.484037 1_454
Au0 Br1 2.484037 1_545
Au0 Br2 2.484042 1_445
Au0 Br0 2.484042 1_554
Au1 Br4 2.433442 1_555
Au1 Br5 2.433442 1_555
Au1 Br2 3.137552 1_555
Au1 Br0 3.137552 1_555
Au1 Br3 3.137557 1_555
Au1 Br1 3.137557 1_555
Br0 Rb0 3.652219 1_556
Br0 Rb1 3.653984 1_455
Br0 Rb1 3.729686 1_545
Br1 Rb1 3.652226 1_554
Br1 Rb0 3.653984 1_555
Br1 Rb0 3.729687 1_565
Br2 Rb1 3.652219 1_554
Br2 Rb0 3.653984 1_655
Br2 Rb0 3.729686 1_565
Br3 Rb0 3.652226 1_556
Br3 Rb1 3.653984 1_555
Br3 Rb1 3.729687 1_545
Br4 Rb1 3.488166 1_545
Br4 Rb0 3.822507 1_655
Br4 Rb0 3.822508 1_555
Br5 Rb0 3.488166 1_565
Br5 Rb1 3.822507 1_455
Br5 Rb1 3.822508 1_555
