# generated using pymatgen
data_Cu3Sb
_symmetry_space_group_name_H-M   'P 1'
_cell_length_a   4.40237894
_cell_length_b   4.40237894
_cell_length_c   4.40237894
_cell_angle_alpha   60.00000000
_cell_angle_beta   60.00000000
_cell_angle_gamma   60.00000000
_symmetry_Int_Tables_number   1
_chemical_formula_structural   Cu3Sb
_chemical_formula_sum   'Cu3 Sb1'
_cell_volume   60.33193690
_cell_formula_units_Z   1
loop_
 _symmetry_equiv_pos_site_id
 _symmetry_equiv_pos_as_xyz
  1  'x, y, z'
loop_
 _atom_site_type_symbol
 _atom_site_label
 _atom_site_symmetry_multiplicity
 _atom_site_fract_x
 _atom_site_fract_y
 _atom_site_fract_z
 _atom_site_occupancy
  Cu  Cu0  1  0.50000000  0.50000000  0.50000000  1
  Cu  Cu1  1  0.75000000  0.75000000  0.75000000  1
  Cu  Cu2  1  0.25000000  0.25000000  0.25000000  1
  Sb  Sb0  1  0.00000000  0.00000000  0.00000000  1
loop_
_geom_bond_atom_site_label_1
_geom_bond_atom_site_label_2
_geom_bond_distance
_geom_bond_site_symmetry_2
Cu0 Cu1 2.695896 1_554
Cu0 Cu1 2.695896 1_545
Cu0 Cu1 2.695896 1_455
Cu0 Cu2 2.695896 1_556
Cu0 Cu1 2.695896 1_555
Cu0 Cu2 2.695896 1_565
Cu0 Cu2 2.695896 1_655
Cu0 Cu2 2.695896 1_555
Cu0 Sb0 3.112952 1_565
Cu0 Sb0 3.112952 1_656
Cu0 Sb0 3.112952 1_566
Cu0 Sb0 3.112952 1_655
Cu0 Sb0 3.112952 1_665
Cu0 Sb0 3.112952 1_556
Cu1 Sb0 2.695896 1_656
Cu1 Sb0 2.695896 1_566
Cu1 Sb0 2.695896 1_665
Cu1 Sb0 2.695896 1_666
Cu2 Sb0 2.695896 1_565
Cu2 Sb0 2.695896 1_555
Cu2 Sb0 2.695896 1_655
Cu2 Sb0 2.695896 1_556
