# generated using pymatgen
data_Cs2UCl6
_symmetry_space_group_name_H-M   'P 1'
_cell_length_a   7.51244893
_cell_length_b   7.51246044
_cell_length_c   6.12176950
_cell_angle_alpha   90.00000154
_cell_angle_beta   90.00032882
_cell_angle_gamma   120.00004284
_symmetry_Int_Tables_number   1
_chemical_formula_structural   Cs2UCl6
_chemical_formula_sum   'Cs2 U1 Cl6'
_cell_volume   299.20658550
_cell_formula_units_Z   1
loop_
 _symmetry_equiv_pos_site_id
 _symmetry_equiv_pos_as_xyz
  1  'x, y, z'
loop_
 _atom_site_type_symbol
 _atom_site_label
 _atom_site_symmetry_multiplicity
 _atom_site_fract_x
 _atom_site_fract_y
 _atom_site_fract_z
 _atom_site_occupancy
  Cs  Cs0  1  0.66666600  0.33333200  0.26591584  1
  Cs  Cs1  1  0.33333400  0.66666800  0.73408416  1
  U  U0  1  -0.00000000  -0.00000000  0.00000000  1
  Cl  Cl0  1  0.83250564  0.16749336  0.76033216  1
  Cl  Cl1  1  0.83250564  0.66501227  0.76033216  1
  Cl  Cl2  1  0.33498873  0.16749436  0.76033216  1
  Cl  Cl3  1  0.16749436  0.83250664  0.23966784  1
  Cl  Cl4  1  0.16749436  0.33498773  0.23966784  1
  Cl  Cl5  1  0.66501127  0.83250564  0.23966784  1
loop_
_geom_bond_atom_site_label_1
_geom_bond_atom_site_label_2
_geom_bond_distance
_geom_bond_site_symmetry_2
Cl0 U0 2.627263 1_656
Cl0 Cs0 3.717174 1_555
Cl0 Cs1 3.759663 1_545
Cl0 Cs1 3.759688 1_655
Cl0 Cs0 3.773060 1_556
Cl1 U0 2.627264 1_666
Cl1 Cs0 3.717182 1_555
Cl1 Cs1 3.759671 1_555
Cl1 Cs1 3.759680 1_655
Cl1 Cs0 3.773067 1_556
Cl2 U0 2.627278 1_556
Cl2 Cs0 3.717186 1_555
Cl2 Cs1 3.759673 1_545
Cl2 Cs1 3.759688 1_555
Cl2 Cs0 3.773036 1_556
Cl3 U0 2.627263 1_565
Cl3 Cs1 3.717174 1_555
Cl3 Cs0 3.759663 1_565
Cl3 Cs0 3.759688 1_455
Cl3 Cs1 3.773060 1_554
Cl4 U0 2.627264 1_555
Cl4 Cs1 3.717182 1_555
Cl4 Cs0 3.759671 1_555
Cl4 Cs0 3.759680 1_455
Cl4 Cs1 3.773067 1_554
Cl5 U0 2.627278 1_665
Cl5 Cs1 3.717186 1_555
Cl5 Cs0 3.759673 1_565
Cl5 Cs0 3.759688 1_555
Cl5 Cs1 3.773036 1_554
