# generated using pymatgen
data_MgTe4Mo3W(SeS)2
_symmetry_space_group_name_H-M   'P 1'
_cell_length_a   6.78060600
_cell_length_b   6.78057827
_cell_length_c   92.65115801
_cell_angle_alpha   89.99881116
_cell_angle_beta   90.00000742
_cell_angle_gamma   119.99978089
_symmetry_Int_Tables_number   1
_chemical_formula_structural   MgTe4Mo3W(SeS)2
_chemical_formula_sum   'Mg8 Te32 Mo24 W8 Se16 S16'
_cell_volume   3689.07670511
_cell_formula_units_Z   8
loop_
 _symmetry_equiv_pos_site_id
 _symmetry_equiv_pos_as_xyz
  1  'x, y, z'
loop_
 _atom_site_type_symbol
 _atom_site_label
 _atom_site_symmetry_multiplicity
 _atom_site_fract_x
 _atom_site_fract_y
 _atom_site_fract_z
 _atom_site_occupancy
  Mg  Mg0_0  1  0.49998500  0.49997050  0.27953300  1
  Mg  Mg0_1  1  0.49998500  0.49997050  0.77953300  1
  Mg  Mg0_2  1  0.49998500  0.99997050  0.27953300  1
  Mg  Mg0_3  1  0.49998500  0.99997050  0.77953300  1
  Mg  Mg0_4  1  0.99998500  0.49997050  0.27953300  1
  Mg  Mg0_5  1  0.99998500  0.49997050  0.77953300  1
  Mg  Mg0_6  1  0.99998500  0.99997050  0.27953300  1
  Mg  Mg0_7  1  0.99998500  0.99997050  0.77953300  1
  Te  Te0_0  1  0.16666150  0.33332350  0.16119500  1
  Te  Te0_1  1  0.16666150  0.33332350  0.66119500  1
  Te  Te0_2  1  0.16666150  0.83332350  0.16119500  1
  Te  Te0_3  1  0.16666150  0.83332350  0.66119500  1
  Te  Te0_4  1  0.66666150  0.33332350  0.16119500  1
  Te  Te0_5  1  0.66666150  0.33332350  0.66119500  1
  Te  Te0_6  1  0.66666150  0.83332350  0.16119500  1
  Te  Te0_7  1  0.66666150  0.83332350  0.66119500  1
  Te  Te1_0  1  0.16667150  0.33334350  0.35221750  1
  Te  Te1_1  1  0.16667150  0.33334350  0.85221750  1
  Te  Te1_2  1  0.16667150  0.83334350  0.35221750  1
  Te  Te1_3  1  0.16667150  0.83334350  0.85221750  1
  Te  Te1_4  1  0.66667150  0.33334350  0.35221750  1
  Te  Te1_5  1  0.66667150  0.33334350  0.85221750  1
  Te  Te1_6  1  0.66667150  0.83334350  0.35221750  1
  Te  Te1_7  1  0.66667150  0.83334350  0.85221750  1
  Te  Te2_0  1  0.16666550  0.33333150  0.12071350  1
  Te  Te2_1  1  0.16666550  0.33333150  0.62071350  1
  Te  Te2_2  1  0.16666550  0.83333150  0.12071350  1
  Te  Te2_3  1  0.16666550  0.83333150  0.62071350  1
  Te  Te2_4  1  0.66666550  0.33333150  0.12071350  1
  Te  Te2_5  1  0.66666550  0.33333150  0.62071350  1
  Te  Te2_6  1  0.66666550  0.83333150  0.12071350  1
  Te  Te2_7  1  0.66666550  0.83333150  0.62071350  1
  Te  Te3_0  1  0.16668100  0.33336250  0.31156500  1
  Te  Te3_1  1  0.16668100  0.33336250  0.81156500  1
  Te  Te3_2  1  0.16668100  0.83336250  0.31156500  1
  Te  Te3_3  1  0.16668100  0.83336250  0.81156500  1
  Te  Te3_4  1  0.66668100  0.33336250  0.31156500  1
  Te  Te3_5  1  0.66668100  0.33336250  0.81156500  1
  Te  Te3_6  1  0.66668100  0.83336250  0.31156500  1
  Te  Te3_7  1  0.66668100  0.83336250  0.81156500  1
  Mo  Mo0_0  1  0.16667750  0.33335450  0.04691500  1
  Mo  Mo0_1  1  0.16667750  0.33335450  0.54691500  1
  Mo  Mo0_2  1  0.16667750  0.83335450  0.04691500  1
  Mo  Mo0_3  1  0.16667750  0.83335450  0.54691500  1
  Mo  Mo0_4  1  0.66667750  0.33335450  0.04691500  1
  Mo  Mo0_5  1  0.66667750  0.33335450  0.54691500  1
  Mo  Mo0_6  1  0.66667750  0.83335450  0.04691500  1
  Mo  Mo0_7  1  0.66667750  0.83335450  0.54691500  1
  Mo  Mo1_0  1  0.33332750  0.16665600  0.14096550  1
  Mo  Mo1_1  1  0.33332750  0.16665600  0.64096550  1
  Mo  Mo1_2  1  0.33332750  0.66665600  0.14096550  1
  Mo  Mo1_3  1  0.33332750  0.66665600  0.64096550  1
  Mo  Mo1_4  1  0.83332750  0.16665600  0.14096550  1
  Mo  Mo1_5  1  0.83332750  0.16665600  0.64096550  1
  Mo  Mo1_6  1  0.83332750  0.66665600  0.14096550  1
  Mo  Mo1_7  1  0.83332750  0.66665600  0.64096550  1
  Mo  Mo2_0  1  0.33334200  0.16668550  0.33198400  1
  Mo  Mo2_1  1  0.33334200  0.16668550  0.83198400  1
  Mo  Mo2_2  1  0.33334200  0.66668550  0.33198400  1
  Mo  Mo2_3  1  0.33334200  0.66668550  0.83198400  1
  Mo  Mo2_4  1  0.83334200  0.16668550  0.33198400  1
  Mo  Mo2_5  1  0.83334200  0.16668550  0.83198400  1
  Mo  Mo2_6  1  0.83334200  0.66668550  0.33198400  1
  Mo  Mo2_7  1  0.83334200  0.66668550  0.83198400  1
  W  W0_0  1  0.16665850  0.33331500  0.23045450  1
  W  W0_1  1  0.16665850  0.33331500  0.73045450  1
  W  W0_2  1  0.16665850  0.83331500  0.23045450  1
  W  W0_3  1  0.16665850  0.83331500  0.73045450  1
  W  W0_4  1  0.66665850  0.33331500  0.23045450  1
  W  W0_5  1  0.66665850  0.33331500  0.73045450  1
  W  W0_6  1  0.66665850  0.83331500  0.23045450  1
  W  W0_7  1  0.66665850  0.83331500  0.73045450  1
  Se  Se0_0  1  0.33334700  0.16669400  0.02910650  1
  Se  Se0_1  1  0.33334700  0.16669400  0.52910650  1
  Se  Se0_2  1  0.33334700  0.66669400  0.02910650  1
  Se  Se0_3  1  0.33334700  0.66669400  0.52910650  1
  Se  Se0_4  1  0.83334700  0.16669400  0.02910650  1
  Se  Se0_5  1  0.83334700  0.16669400  0.52910650  1
  Se  Se0_6  1  0.83334700  0.66669400  0.02910650  1
  Se  Se0_7  1  0.83334700  0.66669400  0.52910650  1
  Se  Se1_0  1  0.33333750  0.16667500  0.06473200  1
  Se  Se1_1  1  0.33333750  0.16667500  0.56473200  1
  Se  Se1_2  1  0.33333750  0.66667500  0.06473200  1
  Se  Se1_3  1  0.33333750  0.66667500  0.56473200  1
  Se  Se1_4  1  0.83333750  0.16667500  0.06473200  1
  Se  Se1_5  1  0.83333750  0.16667500  0.56473200  1
  Se  Se1_6  1  0.83333750  0.66667500  0.06473200  1
  Se  Se1_7  1  0.83333750  0.66667500  0.56473200  1
  S  S0_0  1  0.33332500  0.16665000  0.21427250  1
  S  S0_1  1  0.33332500  0.16665000  0.71427250  1
  S  S0_2  1  0.33332500  0.66665000  0.21427250  1
  S  S0_3  1  0.33332500  0.66665000  0.71427250  1
  S  S0_4  1  0.83332500  0.16665000  0.21427250  1
  S  S0_5  1  0.83332500  0.16665000  0.71427250  1
  S  S0_6  1  0.83332500  0.66665000  0.21427250  1
  S  S0_7  1  0.83332500  0.66665000  0.71427250  1
  S  S1_0  1  0.33332000  0.16663950  0.24676150  1
  S  S1_1  1  0.33332000  0.16663950  0.74676150  1
  S  S1_2  1  0.33332000  0.66663950  0.24676150  1
  S  S1_3  1  0.33332000  0.66663950  0.74676150  1
  S  S1_4  1  0.83332000  0.16663950  0.24676150  1
  S  S1_5  1  0.83332000  0.16663950  0.74676150  1
  S  S1_6  1  0.83332000  0.66663950  0.24676150  1
  S  S1_7  1  0.83332000  0.66663950  0.74676150  1
loop_
_geom_bond_atom_site_label_1
_geom_bond_atom_site_label_2
_geom_bond_distance
_geom_bond_site_symmetry_2
Mg0_0 Mg0_2 3.390289 1_555
Mg0_0 Mg0_2 3.390289 1_545
Mg0_0 Mg0_4 3.390303 1_455
Mg0_0 Mg0_4 3.390303 1_555
Mg0_0 Mg0_6 3.390307 1_555
Mg0_0 Mg0_6 3.390307 1_445
Mg0_0 Te3_4 3.555052 1_555
Mg0_0 Te3_0 3.555058 1_555
Mg0_0 Te3_6 3.555397 1_555
Mg0_1 Mg0_3 3.390289 1_555
Mg0_1 Mg0_3 3.390289 1_545
Mg0_1 Mg0_5 3.390303 1_555
Mg0_1 Mg0_5 3.390303 1_455
Mg0_1 Mg0_7 3.390307 1_555
Mg0_1 Mg0_7 3.390307 1_445
Mg0_1 Te3_5 3.555052 1_555
Mg0_1 Te3_1 3.555058 1_555
Mg0_1 Te3_7 3.555397 1_555
Mg0_2 Mg0_6 3.390303 1_555
Mg0_2 Mg0_6 3.390303 1_455
Mg0_2 Mg0_4 3.390307 1_565
Mg0_2 Mg0_4 3.390307 1_455
Mg0_2 Te3_6 3.555052 1_555
Mg0_2 Te3_2 3.555058 1_555
Mg0_2 Te3_4 3.555397 1_565
Mg0_3 Mg0_7 3.390303 1_555
Mg0_3 Mg0_7 3.390303 1_455
Mg0_3 Mg0_5 3.390307 1_565
Mg0_3 Mg0_5 3.390307 1_455
Mg0_3 Te3_7 3.555052 1_555
Mg0_3 Te3_3 3.555058 1_555
Mg0_3 Te3_5 3.555397 1_565
Mg0_4 Mg0_6 3.390289 1_545
Mg0_4 Mg0_6 3.390289 1_555
Mg0_4 Te3_0 3.555052 1_655
Mg0_4 Te3_4 3.555058 1_555
Mg0_4 Te3_2 3.555397 1_655
Mg0_5 Mg0_7 3.390289 1_555
Mg0_5 Mg0_7 3.390289 1_545
Mg0_5 Te3_1 3.555052 1_655
Mg0_5 Te3_5 3.555058 1_555
Mg0_5 Te3_3 3.555397 1_655
Mg0_6 Te3_2 3.555052 1_655
Mg0_6 Te3_6 3.555058 1_555
Mg0_6 Te3_0 3.555397 1_665
Mg0_7 Te3_3 3.555052 1_655
Mg0_7 Te3_7 3.555058 1_555
Mg0_7 Te3_1 3.555397 1_665
Mo0_0 Se0_2 2.560036 1_555
Mo0_0 Se0_0 2.560037 1_555
Mo0_0 Se0_4 2.560047 1_455
Mo0_0 Se1_2 2.560519 1_555
Mo0_0 Se1_0 2.560557 1_555
Mo0_0 Se1_4 2.560567 1_455
Mo0_1 Se0_3 2.560036 1_555
Mo0_1 Se0_1 2.560037 1_555
Mo0_1 Se0_5 2.560047 1_455
Mo0_1 Se1_3 2.560519 1_555
Mo0_1 Se1_1 2.560557 1_555
Mo0_1 Se1_5 2.560567 1_455
Mo0_2 Se0_0 2.560036 1_565
Mo0_2 Se0_2 2.560037 1_555
Mo0_2 Se0_6 2.560047 1_455
Mo0_2 Se1_0 2.560519 1_565
Mo0_2 Se1_2 2.560557 1_555
Mo0_2 Se1_6 2.560567 1_455
Mo0_3 Se0_1 2.560036 1_565
Mo0_3 Se0_3 2.560037 1_555
Mo0_3 Se0_7 2.560047 1_455
Mo0_3 Se1_1 2.560519 1_565
Mo0_3 Se1_3 2.560557 1_555
Mo0_3 Se1_7 2.560567 1_455
Mo0_4 Se0_6 2.560036 1_555
Mo0_4 Se0_4 2.560037 1_555
Mo0_4 Se0_0 2.560047 1_555
Mo0_4 Se1_6 2.560519 1_555
Mo0_4 Se1_4 2.560557 1_555
Mo0_4 Se1_0 2.560567 1_555
Mo0_5 Se0_7 2.560036 1_555
Mo0_5 Se0_5 2.560037 1_555
Mo0_5 Se0_1 2.560047 1_555
Mo0_5 Se1_7 2.560519 1_555
Mo0_5 Se1_5 2.560557 1_555
Mo0_5 Se1_1 2.560567 1_555
Mo0_6 Se0_4 2.560036 1_565
Mo0_6 Se0_6 2.560037 1_555
Mo0_6 Se0_2 2.560047 1_555
Mo0_6 Se1_4 2.560519 1_565
Mo0_6 Se1_6 2.560557 1_555
Mo0_6 Se1_2 2.560567 1_555
Mo0_7 Se0_5 2.560036 1_565
Mo0_7 Se0_7 2.560037 1_555
Mo0_7 Se0_3 2.560047 1_555
Mo0_7 Se1_5 2.560519 1_565
Mo0_7 Se1_7 2.560557 1_555
Mo0_7 Se1_3 2.560567 1_555
Mo1_0 Te0_2 2.710005 1_545
Mo1_0 Te0_0 2.710056 1_555
Mo1_0 Te0_4 2.710065 1_555
Mo1_0 Te2_2 2.711478 1_545
Mo1_0 Te2_0 2.711482 1_555
Mo1_0 Te2_4 2.711492 1_555
Mo1_1 Te0_3 2.710005 1_545
Mo1_1 Te0_1 2.710056 1_555
Mo1_1 Te0_5 2.710065 1_555
Mo1_1 Te2_3 2.711478 1_545
Mo1_1 Te2_1 2.711482 1_555
Mo1_1 Te2_5 2.711492 1_555
Mo1_2 Te0_0 2.710005 1_555
Mo1_2 Te0_2 2.710056 1_555
Mo1_2 Te0_6 2.710065 1_555
Mo1_2 Te2_0 2.711478 1_555
Mo1_2 Te2_2 2.711482 1_555
Mo1_2 Te2_6 2.711492 1_555
Mo1_3 Te0_1 2.710005 1_555
Mo1_3 Te0_3 2.710056 1_555
Mo1_3 Te0_7 2.710065 1_555
Mo1_3 Te2_1 2.711478 1_555
Mo1_3 Te2_3 2.711482 1_555
Mo1_3 Te2_7 2.711492 1_555
Mo1_4 Te0_6 2.710005 1_545
Mo1_4 Te0_4 2.710056 1_555
Mo1_4 Te0_0 2.710065 1_655
Mo1_4 Te2_6 2.711478 1_545
Mo1_4 Te2_4 2.711482 1_555
Mo1_4 Te2_0 2.711492 1_655
Mo1_5 Te0_7 2.710005 1_545
Mo1_5 Te0_5 2.710056 1_555
Mo1_5 Te0_1 2.710065 1_655
Mo1_5 Te2_7 2.711478 1_545
Mo1_5 Te2_5 2.711482 1_555
Mo1_5 Te2_1 2.711492 1_655
Mo1_6 Te0_4 2.710005 1_555
Mo1_6 Te0_6 2.710056 1_555
Mo1_6 Te0_2 2.710065 1_655
Mo1_6 Te2_4 2.711478 1_555
Mo1_6 Te2_6 2.711482 1_555
Mo1_6 Te2_2 2.711492 1_655
Mo1_7 Te0_5 2.710005 1_555
Mo1_7 Te0_7 2.710056 1_555
Mo1_7 Te0_3 2.710065 1_655
Mo1_7 Te2_5 2.711478 1_555
Mo1_7 Te2_7 2.711482 1_555
Mo1_7 Te2_3 2.711492 1_655
Mo2_0 Te1_0 2.710291 1_555
Mo2_0 Te1_2 2.710301 1_545
Mo2_0 Te1_4 2.710303 1_555
Mo2_0 Te3_2 2.722202 1_545
Mo2_0 Te3_0 2.722215 1_555
Mo2_0 Te3_4 2.722227 1_555
Mo2_1 Te1_1 2.710291 1_555
Mo2_1 Te1_3 2.710301 1_545
Mo2_1 Te1_5 2.710303 1_555
Mo2_1 Te3_3 2.722202 1_545
Mo2_1 Te3_1 2.722215 1_555
Mo2_1 Te3_5 2.722227 1_555
Mo2_2 Te1_2 2.710291 1_555
Mo2_2 Te1_0 2.710301 1_555
Mo2_2 Te1_6 2.710303 1_555
Mo2_2 Te3_0 2.722202 1_555
Mo2_2 Te3_2 2.722215 1_555
Mo2_2 Te3_6 2.722227 1_555
Mo2_3 Te1_3 2.710291 1_555
Mo2_3 Te1_1 2.710301 1_555
Mo2_3 Te1_7 2.710303 1_555
Mo2_3 Te3_1 2.722202 1_555
Mo2_3 Te3_3 2.722215 1_555
Mo2_3 Te3_7 2.722227 1_555
Mo2_4 Te1_4 2.710291 1_555
Mo2_4 Te1_6 2.710301 1_545
Mo2_4 Te1_0 2.710303 1_655
Mo2_4 Te3_6 2.722202 1_545
Mo2_4 Te3_4 2.722215 1_555
Mo2_4 Te3_0 2.722227 1_655
Mo2_5 Te1_5 2.710291 1_555
Mo2_5 Te1_7 2.710301 1_545
Mo2_5 Te1_1 2.710303 1_655
Mo2_5 Te3_7 2.722202 1_545
Mo2_5 Te3_5 2.722215 1_555
Mo2_5 Te3_1 2.722227 1_655
Mo2_6 Te1_6 2.710291 1_555
Mo2_6 Te1_4 2.710301 1_555
Mo2_6 Te1_2 2.710303 1_655
Mo2_6 Te3_4 2.722202 1_555
Mo2_6 Te3_6 2.722215 1_555
Mo2_6 Te3_2 2.722227 1_655
Mo2_7 Te1_7 2.710291 1_555
Mo2_7 Te1_5 2.710301 1_555
Mo2_7 Te1_3 2.710303 1_655
Mo2_7 Te3_5 2.722202 1_555
Mo2_7 Te3_7 2.722215 1_555
Mo2_7 Te3_3 2.722227 1_655
S0_0 W0_2 2.465586 1_545
S0_0 W0_0 2.465610 1_555
S0_0 W0_4 2.465627 1_555
S0_1 W0_3 2.465586 1_545
S0_1 W0_1 2.465610 1_555
S0_1 W0_5 2.465627 1_555
S0_2 W0_0 2.465586 1_555
S0_2 W0_2 2.465610 1_555
S0_2 W0_6 2.465627 1_555
S0_3 W0_1 2.465586 1_555
S0_3 W0_3 2.465610 1_555
S0_3 W0_7 2.465627 1_555
S0_4 W0_6 2.465586 1_545
S0_4 W0_4 2.465610 1_555
S0_4 W0_0 2.465627 1_655
S0_5 W0_7 2.465586 1_545
S0_5 W0_5 2.465610 1_555
S0_5 W0_1 2.465627 1_655
S0_6 W0_4 2.465586 1_555
S0_6 W0_6 2.465610 1_555
S0_6 W0_2 2.465627 1_655
S0_7 W0_5 2.465586 1_555
S0_7 W0_7 2.465610 1_555
S0_7 W0_3 2.465627 1_655
S1_0 W0_2 2.472653 1_545
S1_0 W0_0 2.472666 1_555
S1_0 W0_4 2.472682 1_555
S1_1 W0_3 2.472653 1_545
S1_1 W0_1 2.472666 1_555
S1_1 W0_5 2.472682 1_555
S1_2 W0_0 2.472653 1_555
S1_2 W0_2 2.472666 1_555
S1_2 W0_6 2.472682 1_555
S1_3 W0_1 2.472653 1_555
S1_3 W0_3 2.472666 1_555
S1_3 W0_7 2.472682 1_555
S1_4 W0_6 2.472653 1_545
S1_4 W0_4 2.472666 1_555
S1_4 W0_0 2.472682 1_655
S1_5 W0_7 2.472653 1_545
S1_5 W0_5 2.472666 1_555
S1_5 W0_1 2.472682 1_655
S1_6 W0_4 2.472653 1_555
S1_6 W0_6 2.472666 1_555
S1_6 W0_2 2.472682 1_655
S1_7 W0_5 2.472653 1_555
S1_7 W0_7 2.472666 1_555
S1_7 W0_3 2.472682 1_655
