# generated using pymatgen
data_MgCo2(HO2)2
_symmetry_space_group_name_H-M   'P 1'
_cell_length_a   3.27377532
_cell_length_b   3.30205756
_cell_length_c   9.98837362
_cell_angle_alpha   90.00000000
_cell_angle_beta   90.00000000
_cell_angle_gamma   119.47738089
_symmetry_Int_Tables_number   1
_chemical_formula_structural   MgCo2(HO2)2
_chemical_formula_sum   'Mg1 Co2 H2 O4'
_cell_volume   93.99873789
_cell_formula_units_Z   1
loop_
 _symmetry_equiv_pos_site_id
 _symmetry_equiv_pos_as_xyz
  1  'x, y, z'
loop_
 _atom_site_type_symbol
 _atom_site_label
 _atom_site_symmetry_multiplicity
 _atom_site_fract_x
 _atom_site_fract_y
 _atom_site_fract_z
 _atom_site_occupancy
  Mg  Mg0  1  0.83133119  0.18065294  0.25000000  1
  Co  Co0  1  0.13754004  0.86667444  0.56349765  1
  Co  Co1  1  0.13754004  0.86667444  0.93650235  1
  H  H0  1  0.16105616  0.84181567  0.25000000  1
  H  H1  1  0.80618882  0.20591142  0.75000000  1
  O  O0  1  0.16800023  0.84532743  0.36578727  1
  O  O1  1  0.80558814  0.20505811  0.62737490  1
  O  O2  1  0.80558814  0.20505811  0.87262510  1
  O  O3  1  0.16800023  0.84532743  0.13421273  1
loop_
_geom_bond_atom_site_label_1
_geom_bond_atom_site_label_2
_geom_bond_distance
_geom_bond_site_symmetry_2
Mg0 O0 2.216523 1_545
Mg0 O3 2.216523 1_545
Mg0 O3 2.231470 1_645
Mg0 O0 2.231470 1_645
Mg0 O3 2.233547 1_655
Mg0 O0 2.233547 1_655
Co0 O0 1.980325 1_555
Co0 O1 2.006088 1_455
Co0 O1 2.007889 1_465
Co0 O1 2.008411 1_565
Co1 O3 1.980325 1_556
Co1 O2 2.006088 1_455
Co1 O2 2.007889 1_465
Co1 O2 2.008411 1_565
H0 O3 1.156696 1_555
H0 O0 1.156696 1_555
H0 Mg0 1.898860 1_465
H0 Mg0 1.900589 1_455
H0 Mg0 1.910674 1_565
H1 O2 1.224828 1_555
H1 O1 1.224828 1_555
