# generated using pymatgen
data_Na5Zn2Ge2P5SO24
_symmetry_space_group_name_H-M   'P 1'
_cell_length_a   8.73339576
_cell_length_b   8.72576792
_cell_length_c   21.86427972
_cell_angle_alpha   90.56331384
_cell_angle_beta   89.37376966
_cell_angle_gamma   120.14877128
_symmetry_Int_Tables_number   1
_chemical_formula_structural   Na5Zn2Ge2P5SO24
_chemical_formula_sum   'Na15 Zn6 Ge6 P15 S3 O72'
_cell_volume   1440.68215144
_cell_formula_units_Z   3
loop_
 _symmetry_equiv_pos_site_id
 _symmetry_equiv_pos_as_xyz
  1  'x, y, z'
loop_
 _atom_site_type_symbol
 _atom_site_label
 _atom_site_symmetry_multiplicity
 _atom_site_fract_x
 _atom_site_fract_y
 _atom_site_fract_z
 _atom_site_occupancy
  Na  Na0  1  0.63377638  0.00102298  0.25279609  1
  Na  Na1  1  0.37360208  0.37581396  0.24632882  1
  Na  Na2  1  0.99316275  0.61869439  0.25309427  1
  Na  Na3  1  0.64228187  0.63041778  0.74699391  1
  Na  Na4  1  0.98694863  0.35765076  0.74766544  1
  Na  Na5  1  0.37190915  0.01593634  0.74775045  1
  Na  Na6  1  0.30554862  0.96391456  0.07439976  1
  Na  Na7  1  0.03779681  0.34812838  0.07560696  1
  Na  Na8  1  0.70536672  0.67682634  0.41785749  1
  Na  Na9  1  0.00807391  0.00773436  0.50017526  1
  Na  Na10  1  0.99590694  0.99583990  0.98842184  1
  Na  Na11  1  0.66679225  0.33102072  0.83359133  1
  Na  Na12  1  0.67847016  0.32386636  0.33675636  1
  Na  Na13  1  0.34941679  0.66383452  0.16079166  1
  Na  Na14  1  0.33495880  0.66624612  0.66207190  1
  Zn  Zn0  1  0.98869360  0.99878938  0.35682482  1
  Zn  Zn1  1  0.00847690  0.00897289  0.85275954  1
  Zn  Zn2  1  0.67007113  0.33673851  0.67572771  1
  Zn  Zn3  1  0.66998790  0.33777141  0.17827388  1
  Zn  Zn4  1  0.33340635  0.66645570  0.01474469  1
  Zn  Zn5  1  0.32930295  0.66780888  0.32197233  1
  Ge  Ge0  1  0.00041541  0.99981570  0.64570946  1
  Ge  Ge1  1  0.98761596  0.99771731  0.14320416  1
  Ge  Ge2  1  0.66945691  0.32741229  0.98169983  1
  Ge  Ge3  1  0.67864290  0.32898731  0.48964810  1
  Ge  Ge4  1  0.33137293  0.67397399  0.51984872  1
  Ge  Ge5  1  0.32589227  0.67014321  0.81832682  1
  P  P0  1  0.70999248  0.71007846  0.25103532  1
  P  P1  1  0.00175547  0.28797548  0.24869246  1
  P  P2  1  0.28962522  0.29567758  0.75010675  1
  P  P3  1  0.00406625  0.71437666  0.75063079  1
  P  P4  1  0.70701581  0.99334656  0.75130282  1
  P  P5  1  0.97254735  0.33375030  0.58458063  1
  P  P6  1  0.36865963  0.03823077  0.58430127  1
  P  P7  1  0.66509384  0.63381844  0.58253867  1
  P  P8  1  0.95323403  0.63157112  0.08429415  1
  P  P9  1  0.67000703  0.03908778  0.08507029  1
  P  P10  1  0.37189463  0.32803457  0.08543891  1
  P  P11  1  0.03120161  0.37406487  0.91964498  1
  P  P12  1  0.34111917  0.96865666  0.91994624  1
  P  P13  1  0.62061549  0.96752733  0.41966902  1
  P  P14  1  0.03479012  0.65716093  0.42005338  1
  S  S0  1  0.28485593  -0.00192909  0.24867494  1
  S  S1  1  0.62217152  0.65581279  0.91677981  1
  S  S2  1  0.33991381  0.37284981  0.41980813  1
  O  O0  1  0.19877036  0.01855161  0.30281453  1
  O  O1  1  0.81703500  0.78463258  0.30945350  1
  O  O2  1  0.97688090  0.17265653  0.30338832  1
  O  O3  1  0.21631964  0.18042663  0.80569559  1
  O  O4  1  0.96563794  0.79103567  0.80647093  1
  O  O5  1  0.82145679  0.02943427  0.80652164  1
  O  O6  1  0.78828308  0.94942866  0.69245715  1
  O  O7  1  0.16257477  0.21272040  0.69282500  1
  O  O8  1  0.04835859  0.83804039  0.69238985  1
  O  O9  1  0.80552648  0.83478791  0.19365365  1
  O  O10  1  0.03153714  0.20306996  0.18702768  1
  O  O11  1  0.18209980  0.97662184  0.19044491  1
  O  O12  1  0.90384309  0.37096986  0.64373989  1
  O  O13  1  0.46920567  0.10563969  0.64403721  1
  O  O14  1  0.63028374  0.52943175  0.64127495  1
  O  O15  1  0.88644848  0.53125757  0.14434918  1
  O  O16  1  0.63958274  0.11160691  0.14499938  1
  O  O17  1  0.46270806  0.34649035  0.14642025  1
  O  O18  1  0.46666638  0.28842251  0.03083988  1
  O  O19  1  0.82842452  0.53623564  0.02904799  1
  O  O20  1  0.71266285  0.17292137  0.03077169  1
  O  O21  1  0.46759465  0.16722207  0.53015037  1
  O  O22  1  0.69574101  0.53832812  0.52596534  1
  O  O23  1  0.84509656  0.29821083  0.52986282  1
  O  O24  1  0.53770067  0.67515829  0.97143438  1
  O  O25  1  0.13334207  0.45703735  0.97778782  1
  O  O26  1  0.32736923  0.86856974  0.97783225  1
  O  O27  1  0.51742256  0.83016494  0.47126931  1
  O  O28  1  0.31621846  0.46708163  0.47216624  1
  O  O29  1  0.15786354  0.67679088  0.47340820  1
  O  O30  1  0.09839038  0.62238151  0.35852933  1
  O  O31  1  0.52430764  0.90147708  0.35829266  1
  O  O32  1  0.37178917  0.47385255  0.36158124  1
  O  O33  1  0.12391722  0.49489764  0.86018460  1
  O  O34  1  0.37372856  0.87874815  0.86000700  1
  O  O35  1  0.51241004  0.62965383  0.85873381  1
  O  O36  1  0.00952005  0.81820394  0.42084357  1
  O  O37  1  0.80374665  0.98515672  0.42106601  1
  O  O38  1  0.18454497  0.19392311  0.41736406  1
  O  O39  1  0.00003456  0.18883186  0.91211558  1
  O  O40  1  0.18122882  0.98948123  0.91273988  1
  O  O41  1  0.79918946  0.80909544  0.91052802  1
  O  O42  1  0.98728175  0.16336632  0.58766792  1
  O  O43  1  0.18178421  0.02094432  0.58685113  1
  O  O44  1  0.83769766  0.82009401  0.58568045  1
  O  O45  1  0.96975121  0.82038281  0.08699616  1
  O  O46  1  0.84927204  0.03570697  0.08613079  1
  O  O47  1  0.18309504  0.14821536  0.08561044  1
  O  O48  1  0.67640446  0.14997619  0.74229740  1
  O  O49  1  0.47781007  0.32877263  0.74025080  1
  O  O50  1  0.84873550  0.52557516  0.74130304  1
  O  O51  1  0.68514214  0.52311915  0.24433992  1
  O  O52  1  0.83461671  0.30529046  0.24513235  1
  O  O53  1  0.46461657  0.15613557  0.24566802  1
  O  O54  1  0.62983385  0.48750931  0.91907601  1
  O  O55  1  0.84854292  0.37275653  0.92212059  1
  O  O56  1  0.51873353  0.15547286  0.92204898  1
  O  O57  1  0.63246104  0.15113081  0.43073989  1
  O  O58  1  0.50620619  0.36424927  0.42666470  1
  O  O59  1  0.84331086  0.48553876  0.42932342  1
  O  O60  1  0.33935700  0.48145202  0.07751087  1
  O  O61  1  0.14139400  0.66213834  0.07700043  1
  O  O62  1  0.51262205  0.85558630  0.07617782  1
  O  O63  1  0.34363412  0.84883754  0.57369909  1
  O  O64  1  0.50140218  0.65769777  0.57152660  1
  O  O65  1  0.16020319  0.49784948  0.57260756  1
  O  O66  1  0.30035192  0.83592632  0.24975387  1
  O  O67  1  0.52795181  0.69918854  0.25235088  1
  O  O68  1  0.16987711  0.47253866  0.24975428  1
  O  O69  1  0.29859556  0.48269453  0.75653216  1
  O  O70  1  0.18169775  0.70389723  0.75593678  1
  O  O71  1  0.51821579  0.81571569  0.75648489  1
loop_
_geom_bond_atom_site_label_1
_geom_bond_atom_site_label_2
_geom_bond_distance
_geom_bond_site_symmetry_2
Na0 O67 2.312025 1_545
Na0 O52 2.340522 1_555
Na0 O53 2.460982 1_555
Na0 O31 2.479105 1_545
Na0 O66 2.519454 1_545
Na0 O16 2.545895 1_555
Na0 O2 2.824433 1_555
Na0 O9 2.851715 1_545
Na1 O68 2.321158 1_555
Na1 O51 2.354229 1_555
Na1 O17 2.365302 1_555
Na1 O53 2.415798 1_555
Na1 O67 2.443814 1_555
Na1 O32 2.655629 1_555
Na2 O52 2.370315 1_555
Na2 O66 2.384542 1_655
Na2 O51 2.392321 1_555
Na2 O68 2.446707 1_655
Na2 O30 2.484948 1_655
Na2 O15 2.530284 1_555
Na2 O1 2.853369 1_555
Na3 O49 2.283010 1_555
Na3 O71 2.362117 1_555
Na3 O50 2.398564 1_555
Na3 O14 2.450070 1_555
Na3 O69 2.611422 1_555
Na3 O35 2.680943 1_555
Na3 O6 2.694981 1_555
Na3 O4 2.774721 1_555
Na4 O50 2.325445 1_555
Na4 O69 2.379132 1_655
Na4 O48 2.391464 1_555
Na4 O12 2.414417 1_555
Na4 O70 2.624462 1_655
Na4 O7 2.695920 1_655
Na4 O33 2.735846 1_655
Na4 O5 2.796602 1_555
Na5 O48 2.307700 1_555
Na5 O70 2.380089 1_545
Na5 O13 2.408624 1_555
Na5 O49 2.408987 1_555
Na5 O71 2.641150 1_545
Na5 O3 2.719801 1_555
Na5 O8 2.736984 1_545
Na5 O34 2.745011 1_545
Na6 O61 2.280690 1_555
Na6 O26 2.302675 1_554
Na6 O47 2.346071 1_565
Na6 O62 2.425879 1_555
Na6 O45 2.558234 1_455
Na6 O18 2.631799 1_565
Na6 O11 2.768937 1_555
Na7 O60 2.283643 1_555
Na7 O25 2.319057 1_554
Na7 O46 2.385567 1_455
Na7 O61 2.415740 1_555
Na7 O47 2.634015 1_555
Na7 O20 2.651773 1_455
Na7 O10 2.743732 1_555
Na7 O15 2.930959 1_455
Na8 O36 2.300563 1_655
Na8 O37 2.378470 1_555
Na8 O58 2.395661 1_555
Na8 O59 2.516923 1_555
Na8 O1 2.554509 1_555
Na8 O22 2.646583 1_555
Na8 O27 2.825173 1_555
Na8 O32 2.826752 1_555
Na9 O36 2.389121 1_545
Na9 O42 2.392827 1_455
Na9 O38 2.403068 1_555
Na9 O43 2.406063 1_555
Na9 O37 2.433625 1_445
Na9 O44 2.437633 1_445
Na10 O40 2.321762 1_655
Na10 O39 2.369307 1_665
Na10 O41 2.388441 1_555
Na10 O46 2.588051 1_566
Na10 O45 2.596939 1_556
Na10 O47 2.606302 1_666
Na11 O56 2.402700 1_555
Na11 O54 2.416912 1_555
Na11 O55 2.423107 1_555
Na11 O48 2.560182 1_555
Na11 O50 2.601164 1_555
Na11 O49 2.632427 1_555
Na12 O52 2.460698 1_555
Na12 O57 2.467852 1_555
Na12 O59 2.475151 1_555
Na12 O58 2.589608 1_555
Na12 O53 2.621998 1_555
Na12 O51 2.659677 1_555
Na13 O60 2.379499 1_555
Na13 O62 2.421024 1_555
Na13 O67 2.471185 1_555
Na13 O68 2.529106 1_555
Na13 O61 2.588889 1_555
Na13 O66 2.606263 1_555
Na14 O65 2.463882 1_555
Na14 O64 2.465950 1_555
Na14 O63 2.492728 1_555
Na14 O71 2.538944 1_555
Na14 O69 2.543882 1_555
Na14 O70 2.545543 1_555
Ge0 O6 1.954356 1_455
Ge0 O8 1.959857 1_555
Ge0 O42 1.965568 1_465
Ge0 O43 1.966165 1_565
Ge0 O7 1.967122 1_565
Ge0 O44 1.990757 1_455
Ge1 O9 1.867698 1_555
Ge1 O10 1.886756 1_665
Ge1 O46 1.889507 1_565
Ge1 O45 1.911369 1_555
Ge1 O47 1.989543 1_665
Ge1 O11 2.083697 1_655
Ge2 O55 1.908832 1_555
Ge2 O20 1.912858 1_556
Ge2 O56 1.923515 1_555
Ge2 O18 1.940895 1_556
Ge2 O19 1.942317 1_556
Ge2 O54 2.116506 1_555
Ge3 O23 1.839352 1_555
Ge3 O21 1.883987 1_555
Ge3 O57 1.890340 1_555
Ge3 O22 1.920828 1_555
Ge3 O59 1.922103 1_555
Ge3 O58 2.185877 1_555
Ge4 O27 1.841754 1_555
Ge4 O29 1.843738 1_555
Ge4 O63 1.878608 1_555
Ge4 O65 1.901742 1_555
Ge4 O64 1.937406 1_555
Ge4 O28 2.022253 1_555
Ge5 O34 1.878862 1_555
Ge5 O33 1.889475 1_555
Ge5 O70 1.987820 1_555
Ge5 O71 2.025817 1_555
Ge5 O69 2.032117 1_555
Ge5 O35 2.043147 1_555
O0 S0 1.452487 1_555
O0 Zn0 2.104558 1_445
O1 P0 1.525593 1_555
O1 Zn0 1.998513 1_555
O2 P1 1.512703 1_655
O2 Zn0 1.967755 1_545
O3 P2 1.502907 1_555
O3 Zn1 1.963050 1_555
O4 P3 1.500389 1_655
O4 Zn1 2.009071 1_665
O5 P4 1.502817 1_545
O5 Zn1 2.013509 1_655
O6 P4 1.596722 1_555
O7 P2 1.590432 1_555
O8 P3 1.591387 1_555
O9 P0 1.595706 1_555
O10 P1 1.612632 1_555
O11 S0 1.520815 1_565
O12 P5 1.519571 1_555
O12 Zn2 2.026554 1_555
O13 P6 1.521199 1_555
O13 Zn2 2.017308 1_555
O14 P7 1.519088 1_555
O14 Zn2 2.032923 1_555
O15 P8 1.524310 1_555
O15 Zn3 1.939668 1_555
O16 P9 1.527383 1_555
O16 Zn3 1.985937 1_555
O17 P10 1.524230 1_555
O17 Zn3 1.983636 1_555
O18 P10 1.577106 1_555
O19 P8 1.561217 1_555
O20 P9 1.578790 1_555
O21 P6 1.562742 1_555
O22 P7 1.578743 1_555
O23 P5 1.562526 1_555
O24 S1 1.450020 1_555
O24 Zn4 1.978428 1_556
O25 P11 1.514574 1_555
O25 Zn4 1.959493 1_556
O26 P12 1.513947 1_555
O26 Zn4 1.971481 1_556
O27 P13 1.562364 1_555
O28 S2 1.475347 1_555
O29 P14 1.544039 1_555
O30 P14 1.534630 1_555
O30 Zn5 2.007710 1_555
O31 P13 1.537195 1_555
O31 Zn5 2.048896 1_555
O32 S2 1.497617 1_555
O32 Zn5 2.102042 1_555
O33 P11 1.613642 1_555
O34 P12 1.615586 1_555
O35 S1 1.543634 1_555
O36 P14 1.527945 1_555
O36 Zn0 2.193653 1_455
O37 P13 1.528522 1_555
O37 Zn0 2.087253 1_555
O38 S2 1.467493 1_555
O38 Zn0 2.157904 1_445
O39 P11 1.505802 1_555
O39 Zn1 2.055917 1_555
O40 P12 1.505984 1_555
O40 Zn1 2.080953 1_565
O41 S1 1.455874 1_555
O41 Zn1 2.183733 1_665
O42 P5 1.557505 1_555
O43 P6 1.562167 1_555
O44 P7 1.567752 1_555
O45 P8 1.580567 1_555
O46 P9 1.581040 1_555
O47 P10 1.606829 1_555
O48 P4 1.533496 1_545
O48 Zn2 2.217255 1_555
O49 P2 1.532201 1_555
O49 Zn2 2.155763 1_555
O50 P3 1.533119 1_655
O50 Zn2 2.150639 1_555
O51 P0 1.539557 1_555
O51 Zn3 2.112571 1_555
O52 P1 1.543963 1_655
O52 Zn3 2.178948 1_555
O53 S0 1.481813 1_555
O53 Zn3 2.243407 1_555
O54 S1 1.504645 1_555
O55 P11 1.589859 1_655
O56 P12 1.589233 1_545
O57 P13 1.569203 1_545
O58 S2 1.500578 1_555
O59 P14 1.600997 1_655
O60 P10 1.513482 1_555
O60 Zn4 2.149736 1_555
O61 P8 1.533547 1_455
O61 Zn4 2.133996 1_555
O62 P9 1.509922 1_565
O62 Zn4 2.094081 1_555
O63 P6 1.569509 1_565
O64 P7 1.566149 1_555
O65 P5 1.563811 1_455
O66 S0 1.487848 1_565
O66 Zn5 2.266271 1_555
O67 P0 1.544257 1_555
O67 Zn5 2.207996 1_555
O68 P1 1.541015 1_555
O68 Zn5 2.224219 1_555
O69 P2 1.598805 1_555
O70 P3 1.604702 1_555
O71 P4 1.601932 1_555
