# generated using pymatgen
data_MgMn6(O5F)2
_symmetry_space_group_name_H-M   'P 1'
_cell_length_a   5.07719694
_cell_length_b   14.59904744
_cell_length_c   2.92427400
_cell_angle_alpha   90.00000000
_cell_angle_beta   90.00000000
_cell_angle_gamma   96.89465503
_symmetry_Int_Tables_number   1
_chemical_formula_structural   MgMn6(O5F)2
_chemical_formula_sum   'Mg1 Mn6 O10 F2'
_cell_volume   215.18629120
_cell_formula_units_Z   1
loop_
 _symmetry_equiv_pos_site_id
 _symmetry_equiv_pos_as_xyz
  1  'x, y, z'
loop_
 _atom_site_type_symbol
 _atom_site_label
 _atom_site_symmetry_multiplicity
 _atom_site_fract_x
 _atom_site_fract_y
 _atom_site_fract_z
 _atom_site_occupancy
  Mg  Mg0  1  0.50000000  0.00000000  0.99128600  1
  Mn  Mn0  1  0.00000000  0.00000000  0.99045100  1
  Mn  Mn1  1  0.97487000  0.35370400  0.98986800  1
  Mn  Mn2  1  0.02513000  0.64629600  0.98986800  1
  Mn  Mn3  1  0.49170300  0.19433700  0.49008800  1
  Mn  Mn4  1  0.50000000  0.50000000  0.48996000  1
  Mn  Mn5  1  0.50829700  0.80566300  0.49008800  1
  O  O0  1  0.17834600  0.58945100  0.48986400  1
  O  O1  1  0.21582600  0.95610900  0.49073700  1
  O  O2  1  0.32893200  0.11867400  0.99015700  1
  O  O3  1  0.30372000  0.74837400  0.98995500  1
  O  O4  1  0.31459900  0.43273900  0.98995100  1
  O  O5  1  0.69628000  0.25162600  0.98995500  1
  O  O6  1  0.68540100  0.56726100  0.98995100  1
  O  O7  1  0.67106800  0.88132600  0.99015700  1
  O  O8  1  0.78417400  0.04389100  0.49073700  1
  O  O9  1  0.82165400  0.41054900  0.48986400  1
  F  F0  1  0.15220700  0.28326200  0.48978100  1
  F  F1  1  0.84779300  0.71673800  0.48978100  1
loop_
_geom_bond_atom_site_label_1
_geom_bond_atom_site_label_2
_geom_bond_distance
_geom_bond_site_symmetry_2
Mg0 O7 2.029117 1_545
Mg0 O2 2.029117 1_555
Mg0 O8 2.098444 1_556
Mg0 O1 2.098444 1_546
Mg0 O8 2.100680 1_555
Mg0 O1 2.100680 1_545
Mn0 O8 1.978716 1_455
Mn0 O1 1.978716 1_545
Mn0 O8 1.979952 1_456
Mn0 O1 1.979952 1_546
Mn0 O7 2.257444 1_445
Mn0 O2 2.257444 1_555
Mn1 O9 1.893846 1_556
Mn1 O9 1.893864 1_555
Mn1 O5 1.927545 1_555
Mn1 O4 1.956704 1_655
Mn2 O0 1.893846 1_556
Mn2 O0 1.893864 1_555
Mn2 O3 1.927545 1_555
Mn2 O6 1.956704 1_455
Mn3 O5 1.925226 1_555
Mn3 O5 1.925817 1_554
Mn3 O2 1.954793 1_554
Mn3 O2 1.955094 1_555
Mn4 O4 1.940656 1_555
Mn4 O6 1.940656 1_555
Mn4 O4 1.940696 1_554
Mn4 O6 1.940696 1_554
Mn4 O0 2.210072 1_555
Mn4 O9 2.210072 1_555
Mn5 O3 1.925226 1_555
Mn5 O3 1.925817 1_554
Mn5 O7 1.954793 1_554
Mn5 O7 1.955094 1_555
F0 Mn1 2.056127 1_454
F0 Mn1 2.056489 1_455
F0 Mn3 2.278976 1_555
F1 Mn2 2.056127 1_654
F1 Mn2 2.056489 1_655
F1 Mn5 2.278976 1_555
