# generated using pymatgen
data_Mo8P5
_symmetry_space_group_name_H-M   'P 1'
_cell_length_a   3.20104694
_cell_length_b   6.54649934
_cell_length_c   9.41101449
_cell_angle_alpha   109.52020593
_cell_angle_beta   90.00000000
_cell_angle_gamma   90.00000000
_symmetry_Int_Tables_number   1
_chemical_formula_structural   Mo8P5
_chemical_formula_sum   'Mo8 P5'
_cell_volume   185.87881636
_cell_formula_units_Z   1
loop_
 _symmetry_equiv_pos_site_id
 _symmetry_equiv_pos_as_xyz
  1  'x, y, z'
loop_
 _atom_site_type_symbol
 _atom_site_label
 _atom_site_symmetry_multiplicity
 _atom_site_fract_x
 _atom_site_fract_y
 _atom_site_fract_z
 _atom_site_occupancy
  Mo  Mo0  1  0.00000000  0.00456597  0.00340047  1
  Mo  Mo1  1  0.00000000  0.23564341  0.78020544  1
  Mo  Mo2  1  0.00000000  0.78938942  0.24856292  1
  Mo  Mo3  1  0.00000000  0.35889761  0.30779902  1
  Mo  Mo4  1  0.00000000  0.79822539  0.57051203  1
  Mo  Mo5  1  0.50000000  0.39822022  0.05112136  1
  Mo  Mo6  1  0.50000000  0.60918040  0.78098665  1
  Mo  Mo7  1  0.50000000  0.13007917  0.49825289  1
  P  P0  1  0.00000000  0.42406999  0.57467084  1
  P  P1  1  0.00000000  0.62455560  0.98168166  1
  P  P2  1  0.50000000  0.06317402  0.20873509  1
  P  P3  1  0.50000000  0.65304630  0.37575627  1
  P  P4  1  0.50000000  0.97825351  0.78861535  1
loop_
_geom_bond_atom_site_label_1
_geom_bond_atom_site_label_2
_geom_bond_distance
_geom_bond_site_symmetry_2
Mo0 P1 2.427099 1_544
Mo0 P2 2.438771 1_455
Mo0 P2 2.438771 1_555
Mo0 P4 2.538602 1_444
Mo0 P4 2.538602 1_544
Mo1 P4 2.344418 1_445
Mo1 P4 2.344418 1_545
Mo1 P1 2.617491 1_555
Mo1 P0 2.618702 1_555
Mo2 P3 2.346319 1_455
Mo2 P3 2.346319 1_555
Mo2 P1 2.379385 1_554
Mo2 P2 2.522611 1_565
Mo2 P2 2.522611 1_465
Mo3 P0 2.402862 1_555
Mo3 P3 2.419874 1_455
Mo3 P3 2.419874 1_555
Mo3 P2 2.443891 1_455
Mo3 P2 2.443891 1_555
Mo4 P3 2.379113 1_455
Mo4 P3 2.379113 1_555
Mo4 P0 2.462762 1_555
Mo4 P4 2.558732 1_455
Mo4 P4 2.558732 1_555
Mo5 P1 2.414802 1_554
Mo5 P1 2.414802 1_654
Mo6 P4 2.393105 1_555
Mo6 P1 2.451961 1_555
Mo6 P1 2.451961 1_655
Mo6 P0 2.495547 1_655
Mo6 P0 2.495547 1_555
Mo7 P0 2.420336 1_655
Mo7 P0 2.420336 1_555
Mo7 P2 2.611145 1_555
