# generated using pymatgen
data_MgCo6(O5F)2
_symmetry_space_group_name_H-M   'P 1'
_cell_length_a   4.89344669
_cell_length_b   13.67467773
_cell_length_c   2.88751278
_cell_angle_alpha   90.00000424
_cell_angle_beta   89.99999968
_cell_angle_gamma   92.68041640
_symmetry_Int_Tables_number   1
_chemical_formula_structural   MgCo6(O5F)2
_chemical_formula_sum   'Mg1 Co6 O10 F2'
_cell_volume   193.01028950
_cell_formula_units_Z   1
loop_
 _symmetry_equiv_pos_site_id
 _symmetry_equiv_pos_as_xyz
  1  'x, y, z'
loop_
 _atom_site_type_symbol
 _atom_site_label
 _atom_site_symmetry_multiplicity
 _atom_site_fract_x
 _atom_site_fract_y
 _atom_site_fract_z
 _atom_site_occupancy
  Mg  Mg0  1  0.60455136  0.68031279  0.00000000  1
  Co  Co0  1  0.91396177  0.01171136  0.00000000  1
  Co  Co1  1  0.03495086  0.33829019  1.00000000  1
  Co  Co2  1  0.10857987  0.62495825  0.00000000  1
  Co  Co3  1  0.42014973  0.16113154  0.50000000  1
  Co  Co4  1  0.58090357  0.48299058  0.50000000  1
  Co  Co5  1  0.39537027  0.86931654  0.50000000  1
  O  O0  1  0.17178864  0.26544814  0.50000000  1
  O  O1  1  0.06822248  0.94304535  0.50000000  1
  O  O2  1  0.37142249  0.60282599  0.50000000  1
  O  O3  1  0.31631602  0.77854677  1.00000000  1
  O  O4  1  0.22964304  0.09529121  0.00000000  1
  O  O5  1  0.37607602  0.43095879  0.00000000  1
  O  O6  1  0.77565022  0.54726368  0.00000000  1
  O  O7  1  0.59639919  0.92414141  1.00000000  1
  O  O8  1  0.75238011  0.07513279  0.50000000  1
  O  O9  1  0.84984899  0.39310682  0.50000000  1
  F  F0  1  0.63450974  0.23040192  0.00000000  1
  F  F1  1  0.85483064  0.71950987  0.50000000  1
loop_
_geom_bond_atom_site_label_1
_geom_bond_atom_site_label_2
_geom_bond_distance
_geom_bond_site_symmetry_2
Mg0 O3 1.992768 1_554
Mg0 O6 2.038067 1_555
Mg0 O2 2.096562 1_554
Mg0 O2 2.096562 1_555
Co0 O8 1.877742 1_555
Co0 O8 1.877742 1_554
Co0 O4 1.878154 1_655
Co0 O1 1.897958 1_644
Co0 O1 1.897958 1_645
Co0 O7 1.916971 1_544
Co1 O9 1.878905 1_456
Co1 O9 1.878905 1_455
Co1 O0 1.894041 1_555
Co1 O0 1.894041 1_556
Co1 O5 2.048041 1_556
Co1 F0 2.397084 1_456
Co2 O6 1.902921 1_455
Co2 O2 1.966409 1_554
Co2 O2 1.966409 1_555
Co2 O3 2.290158 1_554
Co2 F1 2.334135 1_455
Co2 F1 2.334135 1_454
Co3 O0 1.916793 1_555
Co3 O4 1.919795 1_555
Co3 O4 1.919795 1_556
Co3 F0 1.997272 1_556
Co3 F0 1.997272 1_555
Co3 O8 2.050579 1_555
Co4 O9 1.842309 1_555
Co4 O5 1.878462 1_555
Co4 O5 1.878462 1_556
Co4 O6 1.920093 1_556
Co4 O6 1.920093 1_555
Co4 O2 1.973141 1_555
Co5 O7 1.882880 1_555
Co5 O7 1.882880 1_554
Co5 O3 1.931287 1_554
Co5 O3 1.931287 1_555
Co5 O1 1.931394 1_555
F1 Mg0 1.951998 1_555
F1 Mg0 1.951998 1_556
