# generated using pymatgen
data_Ca2Si5N8
_symmetry_space_group_name_H-M   'P 1'
_cell_length_a   7.70372644
_cell_length_b   7.70372644
_cell_length_c   9.68072662
_cell_angle_alpha   69.56208438
_cell_angle_beta   69.56208438
_cell_angle_gamma   42.65308130
_symmetry_Int_Tables_number   1
_chemical_formula_structural   Ca2Si5N8
_chemical_formula_sum   'Ca4 Si10 N16'
_cell_volume   360.88885304
_cell_formula_units_Z   2
loop_
 _symmetry_equiv_pos_site_id
 _symmetry_equiv_pos_as_xyz
  1  'x, y, z'
loop_
 _atom_site_type_symbol
 _atom_site_label
 _atom_site_symmetry_multiplicity
 _atom_site_fract_x
 _atom_site_fract_y
 _atom_site_fract_z
 _atom_site_occupancy
  Ca  Ca0  1  0.35654722  0.86404731  0.30128750  1
  Ca  Ca1  1  0.86404731  0.35654722  0.80128750  1
  Ca  Ca2  1  0.76423783  0.23628064  0.49840885  1
  Ca  Ca3  1  0.23628064  0.76423783  0.99840885  1
  Si  Si0  1  0.85767676  0.85276183  0.37391984  1
  Si  Si1  1  0.85276183  0.85767676  0.87391984  1
  Si  Si2  1  0.57056784  0.15420621  0.13195468  1
  Si  Si3  1  0.15420621  0.57056784  0.63195468  1
  Si  Si4  1  0.25097891  0.25796217  0.43692644  1
  Si  Si5  1  0.25796217  0.25097891  0.93692644  1
  Si  Si6  1  0.96578449  0.54574286  0.18190912  1
  Si  Si7  1  0.54574286  0.96578449  0.68190912  1
  Si  Si8  1  0.86396813  0.25131686  0.14688520  1
  Si  Si9  1  0.25131686  0.86396813  0.64688520  1
  N  N0  1  0.27890283  0.31301984  0.08372991  1
  N  N1  1  0.31301984  0.27890283  0.58372991  1
  N  N2  1  0.78863342  0.47383055  0.22676946  1
  N  N3  1  0.47383055  0.78863342  0.72676946  1
  N  N4  1  0.84768175  0.81905439  0.56513041  1
  N  N5  1  0.81905439  0.84768175  0.06513041  1
  N  N6  1  0.97771948  0.98338073  0.28216273  1
  N  N7  1  0.98338073  0.97771948  0.78216273  1
  N  N8  1  0.55078265  0.05562958  0.32431725  1
  N  N9  1  0.05562958  0.55078265  0.82431725  1
  N  N10  1  0.03732653  0.55337352  0.33020691  1
  N  N11  1  0.55337352  0.03732653  0.83020691  1
  N  N12  1  0.13846846  0.11966793  0.50391991  1
  N  N13  1  0.11966793  0.13846846  0.00391991  1
  N  N14  1  0.34631878  0.62692950  0.57057178  1
  N  N15  1  0.62692950  0.34631878  0.07057178  1
loop_
_geom_bond_atom_site_label_1
_geom_bond_atom_site_label_2
_geom_bond_distance
_geom_bond_site_symmetry_2
Ca0 N6 2.389241 1_455
Ca0 N2 2.399152 1_555
Ca0 N12 2.465392 1_565
Ca0 N14 2.623236 1_555
Ca0 N8 2.859766 1_565
Ca0 N0 3.083141 1_565
Ca0 N13 3.135338 1_565
Ca1 N7 2.389241 1_545
Ca1 N3 2.399152 1_555
Ca1 N13 2.465392 1_656
Ca1 N15 2.623236 1_556
Ca1 N9 2.859766 1_655
Ca1 N1 3.083141 1_655
Ca1 N12 3.135338 1_655
Ca2 N12 2.320717 1_655
Ca2 N14 2.357064 1_555
Ca2 N6 2.571725 1_545
Ca2 N4 2.638624 1_545
Ca2 N2 2.664455 1_555
Ca2 N7 2.972279 1_545
Ca2 N1 3.062420 1_555
Ca3 N13 2.320717 1_566
Ca3 N15 2.357064 1_556
Ca3 N7 2.571725 1_455
Ca3 N5 2.638624 1_456
Ca3 N3 2.664455 1_555
Ca3 N6 2.972279 1_456
Ca3 N0 3.062420 1_556
N0 Si5 1.738408 1_554
N0 Si2 1.747419 1_555
N0 Si6 1.778714 1_455
N1 Si4 1.738408 1_555
N1 Si3 1.747419 1_555
N1 Si7 1.778714 1_545
N2 Si6 1.699453 1_555
N2 Si8 1.738479 1_555
N3 Si7 1.699453 1_555
N3 Si9 1.738479 1_555
N4 Si0 1.758963 1_555
N4 Si7 1.776158 1_555
N4 Si3 1.792183 1_655
N5 Si1 1.758963 1_554
N5 Si6 1.776158 1_555
N5 Si2 1.792183 1_565
N6 Si0 1.681563 1_555
N6 Si8 1.731036 1_565
N7 Si1 1.681563 1_555
N7 Si9 1.731036 1_655
N8 Si2 1.747040 1_555
N8 Si4 1.756470 1_555
N8 Si0 1.759656 1_545
N9 Si3 1.747040 1_555
N9 Si5 1.756470 1_555
N9 Si1 1.759656 1_455
N10 Si4 1.729545 1_555
N10 Si0 1.729547 1_455
N10 Si6 1.739950 1_455
N11 Si5 1.729545 1_555
N11 Si1 1.729547 1_545
N11 Si7 1.739950 1_545
N12 Si4 1.670350 1_555
N12 Si9 1.723039 1_545
N13 Si5 1.670350 1_554
N13 Si8 1.723039 1_455
N14 Si3 1.697888 1_555
N14 Si9 1.736288 1_555
N15 Si2 1.697888 1_555
N15 Si8 1.736288 1_555
