# generated using pymatgen
data_MgFe4(OF)4
_symmetry_space_group_name_H-M   'P 1'
_cell_length_a   5.81439181
_cell_length_b   5.34336035
_cell_length_c   5.83045011
_cell_angle_alpha   109.58191690
_cell_angle_beta   91.26064442
_cell_angle_gamma   88.00812682
_symmetry_Int_Tables_number   1
_chemical_formula_structural   MgFe4(OF)4
_chemical_formula_sum   'Mg1 Fe4 O4 F4'
_cell_volume   170.55257205
_cell_formula_units_Z   1
loop_
 _symmetry_equiv_pos_site_id
 _symmetry_equiv_pos_as_xyz
  1  'x, y, z'
loop_
 _atom_site_type_symbol
 _atom_site_label
 _atom_site_symmetry_multiplicity
 _atom_site_fract_x
 _atom_site_fract_y
 _atom_site_fract_z
 _atom_site_occupancy
  Mg  Mg0  1  0.93192674  0.40887219  0.73561649  1
  Fe  Fe0  1  0.44798405  0.49427958  0.51339984  1
  Fe  Fe1  1  0.15316984  0.98285785  0.14008838  1
  Fe  Fe2  1  0.71290922  0.97361050  0.87303006  1
  Fe  Fe3  1  0.93839219  0.51792838  0.26946369  1
  O  O0  1  0.01976225  0.21008188  0.96826054  1
  O  O1  1  0.13307077  0.29400513  0.43627803  1
  O  O2  1  0.77317802  0.66373072  0.56724603  1
  O  O3  1  0.90514970  0.73465815  0.05610778  1
  F  F0  1  0.37620439  0.79513859  0.88650186  1
  F  F1  1  0.25210902  0.73807038  0.34718132  1
  F  F2  1  0.62308948  0.24701769  0.68118015  1
  F  F3  1  0.60805435  0.27308197  0.18189585  1
loop_
_geom_bond_atom_site_label_1
_geom_bond_atom_site_label_2
_geom_bond_distance
_geom_bond_site_symmetry_2
Mg0 O1 2.027903 1_655
Mg0 O0 2.031397 1_655
Mg0 O3 2.088022 1_556
Mg0 O2 2.106898 1_555
Fe0 O2 2.096634 1_555
Fe0 O1 2.116008 1_555
Fe1 O3 1.935155 1_455
Fe1 O0 1.948120 1_564
Fe1 O1 1.957265 1_565
Fe2 O2 2.012814 1_555
Fe2 O0 2.175074 1_665
Fe2 O3 2.186523 1_556
Fe3 O2 1.912808 1_555
Fe3 O3 1.966065 1_555
Fe3 O0 2.014899 1_654
Fe3 O1 2.072756 1_655
F0 Fe1 1.968175 1_556
F0 Fe2 2.221504 1_555
F0 Fe0 2.267133 1_555
F1 Fe1 2.115527 1_555
F1 Fe0 2.151221 1_555
F1 Fe3 2.161422 1_455
F2 Mg0 1.993018 1_555
F2 Fe0 2.113797 1_555
F2 Fe2 2.162139 1_545
F3 Fe2 2.055275 1_544
F3 Fe0 2.114325 1_555
F3 Fe3 2.311982 1_555
