# generated using pymatgen
data_Na7ZnIn3(PO4)6
_symmetry_space_group_name_H-M   'P 1'
_cell_length_a   9.12858822
_cell_length_b   9.12574376
_cell_length_c   22.54882311
_cell_angle_alpha   89.86155981
_cell_angle_beta   90.02225555
_cell_angle_gamma   120.01591837
_symmetry_Int_Tables_number   1
_chemical_formula_structural   Na7ZnIn3(PO4)6
_chemical_formula_sum   'Na21 Zn3 In9 P18 O72'
_cell_volume   1626.50443175
_cell_formula_units_Z   3
loop_
 _symmetry_equiv_pos_site_id
 _symmetry_equiv_pos_as_xyz
  1  'x, y, z'
loop_
 _atom_site_type_symbol
 _atom_site_label
 _atom_site_symmetry_multiplicity
 _atom_site_fract_x
 _atom_site_fract_y
 _atom_site_fract_z
 _atom_site_occupancy
  Na  Na0  1  0.63676491  0.00917699  0.24573401  1
  Na  Na1  1  0.37153253  0.36239020  0.24582862  1
  Na  Na2  1  0.99026440  0.62741525  0.24495540  1
  Na  Na3  1  0.63600261  0.62623713  0.74653454  1
  Na  Na4  1  0.99093137  0.36410051  0.74733857  1
  Na  Na5  1  0.37463408  0.00965592  0.74675417  1
  Na  Na6  1  0.02927399  0.69793616  0.58470398  1
  Na  Na7  1  0.66536162  0.96908058  0.58426560  1
  Na  Na8  1  0.30394936  0.96956332  0.08489842  1
  Na  Na9  1  0.66911557  0.69693991  0.08520827  1
  Na  Na10  1  0.69783618  0.03305198  0.91977427  1
  Na  Na11  1  0.33253048  0.30087516  0.91913054  1
  Na  Na12  1  0.96857608  0.29249871  0.41303258  1
  Na  Na13  1  0.32414292  0.03184608  0.41349232  1
  Na  Na14  1  0.70843840  0.67650828  0.41284795  1
  Na  Na15  1  0.01090986  0.01153836  0.49825209  1
  Na  Na16  1  0.99995289  0.99978045  0.00240254  1
  Na  Na17  1  0.67751552  0.34492475  0.83284593  1
  Na  Na18  1  0.66669183  0.33330876  0.32704194  1
  Na  Na19  1  0.32129856  0.65410461  0.16393499  1
  Na  Na20  1  0.33245575  0.65450307  0.66420698  1
  Zn  Zn0  1  0.00045606  0.00057197  0.34270460  1
  Zn  Zn1  1  0.66359310  0.33325812  0.67719692  1
  Zn  Zn2  1  0.67034511  0.33356196  0.17728998  1
  In  In0  1  0.99978019  0.99307920  0.84919888  1
  In  In1  1  0.00681988  0.00709753  0.65063655  1
  In  In2  1  0.00055312  0.00772200  0.15184527  1
  In  In3  1  0.67677147  0.34051478  0.98613920  1
  In  In4  1  0.66348168  0.33347441  0.48725085  1
  In  In5  1  0.32310888  0.65933074  0.01679498  1
  In  In6  1  0.33284131  0.65960900  0.51680935  1
  In  In7  1  0.33356353  0.66702922  0.31889671  1
  In  In8  1  0.33013004  0.66666426  0.81980181  1
  P  P0  1  0.29843189  0.00090669  0.25127762  1
  P  P1  1  0.70220072  0.70164134  0.25158599  1
  P  P2  1  0.99904791  0.29798409  0.25313456  1
  P  P3  1  0.30090912  0.30047093  0.75165755  1
  P  P4  1  0.99912365  0.69904110  0.74824973  1
  P  P5  1  0.70049723  0.00047345  0.75001166  1
  P  P6  1  0.96232572  0.33317650  0.58468500  1
  P  P7  1  0.36751498  0.03306982  0.58407917  1
  P  P8  1  0.66792204  0.63389278  0.58533269  1
  P  P9  1  0.96507356  0.63399416  0.08696093  1
  P  P10  1  0.66563921  0.03350543  0.08368162  1
  P  P11  1  0.37170737  0.33307807  0.08410776  1
  P  P12  1  0.63076758  0.66606331  0.91701210  1
  P  P13  1  0.03181108  0.36430858  0.91439568  1
  P  P14  1  0.33523495  0.96918095  0.91740513  1
  P  P15  1  0.63385469  0.96718132  0.41742493  1
  P  P16  1  0.33285420  0.36548065  0.41561512  1
  P  P17  1  0.03311531  0.66692436  0.41759743  1
  O  O0  1  0.21636729  0.02667358  0.30715881  1
  O  O1  1  0.81069471  0.78432957  0.30732176  1
  O  O2  1  0.97148933  0.19227287  0.30991532  1
  O  O3  1  0.22445820  0.19314907  0.80869512  1
  O  O4  1  0.96553870  0.78208647  0.80200461  1
  O  O5  1  0.81068832  0.02980878  0.80594715  1
  O  O6  1  0.77944701  0.96613070  0.69445078  1
  O  O7  1  0.18053208  0.21894679  0.69848891  1
  O  O8  1  0.03456300  0.80946489  0.69173020  1
  O  O9  1  0.77975154  0.81180720  0.19512159  1
  O  O10  1  0.03721792  0.21900551  0.19904912  1
  O  O11  1  0.18784658  0.96773434  0.19503188  1
  O  O12  1  0.87941658  0.35930817  0.63997477  1
  O  O13  1  0.47706813  0.11675618  0.63906535  1
  O  O14  1  0.64690631  0.52864432  0.64098284  1
  O  O15  1  0.88568907  0.53151877  0.14368653  1
  O  O16  1  0.63983775  0.11737550  0.13872411  1
  O  O17  1  0.48081086  0.35962541  0.13964808  1
  O  O18  1  0.44796874  0.30408326  0.02640733  1
  O  O19  1  0.85374405  0.55592580  0.03157216  1
  O  O20  1  0.68850295  0.13326460  0.02550119  1
  O  O21  1  0.44322087  0.13246647  0.52590347  1
  O  O22  1  0.69716122  0.55841703  0.52786905  1
  O  O23  1  0.85776720  0.30374825  0.52689533  1
  O  O24  1  0.54797339  0.69530920  0.97225551  1
  O  O25  1  0.15038703  0.44923944  0.96720937  1
  O  O26  1  0.31215213  0.86239019  0.97315413  1
  O  O27  1  0.55209939  0.85648576  0.47336415  1
  O  O28  1  0.29858053  0.44861306  0.46921316  1
  O  O29  1  0.14402320  0.69661836  0.47343107  1
  O  O30  1  0.11096241  0.63245549  0.36203025  1
  O  O31  1  0.52145489  0.88897719  0.36186042  1
  O  O32  1  0.36958466  0.47553252  0.35903733  1
  O  O33  1  0.10391976  0.46344434  0.85600723  1
  O  O34  1  0.36437530  0.89158023  0.86054052  1
  O  O35  1  0.52398097  0.63573361  0.85979616  1
  O  O36  1  0.01514726  0.82651923  0.41203956  1
  O  O37  1  0.81094318  0.98459174  0.41219494  1
  O  O38  1  0.17438814  0.18686606  0.41092718  1
  O  O39  1  0.01578039  0.18477034  0.91197750  1
  O  O40  1  0.18034655  0.99584184  0.91355738  1
  O  O41  1  0.80471352  0.83155652  0.91251452  1
  O  O42  1  0.97322716  0.16830647  0.58818728  1
  O  O43  1  0.18451384  0.00377326  0.58729282  1
  O  O44  1  0.83160686  0.81373679  0.58808621  1
  O  O45  1  0.98312984  0.81478748  0.08929391  1
  O  O46  1  0.81914816  0.00377521  0.08730485  1
  O  O47  1  0.19580885  0.16850172  0.08790394  1
  O  O48  1  0.68190659  0.15941403  0.74458330  1
  O  O49  1  0.47726869  0.31761261  0.74481951  1
  O  O50  1  0.84100955  0.52052820  0.74393753  1
  O  O51  1  0.68267642  0.52308271  0.24649572  1
  O  O52  1  0.83926257  0.31523707  0.24625834  1
  O  O53  1  0.47686100  0.16014045  0.24576867  1
  O  O54  1  0.64105932  0.50162613  0.92197118  1
  O  O55  1  0.85080391  0.33747754  0.92062210  1
  O  O56  1  0.49898881  0.14773781  0.92110738  1
  O  O57  1  0.64976955  0.14580553  0.42174047  1
  O  O58  1  0.49573678  0.35078581  0.42176906  1
  O  O59  1  0.85444158  0.50427229  0.42227683  1
  O  O60  1  0.36221298  0.49890921  0.07945153  1
  O  O61  1  0.14729960  0.66095739  0.08152110  1
  O  O62  1  0.50041039  0.85393304  0.08037334  1
  O  O63  1  0.35360383  0.85374887  0.58082812  1
  O  O64  1  0.51298988  0.66153150  0.58130156  1
  O  O65  1  0.13744802  0.49903013  0.58023189  1
  O  O66  1  0.31521587  0.83764924  0.25479699  1
  O  O67  1  0.52251788  0.68540211  0.25480594  1
  O  O68  1  0.16132087  0.47906560  0.25562909  1
  O  O69  1  0.31887026  0.48037384  0.75516597  1
  O  O70  1  0.16266159  0.68517394  0.75418939  1
  O  O71  1  0.52170675  0.83749946  0.75473366  1
loop_
_geom_bond_atom_site_label_1
_geom_bond_atom_site_label_2
_geom_bond_distance
_geom_bond_site_symmetry_2
Na0 O53 2.457758 1_555
Na0 O52 2.460254 1_555
Na0 O66 2.551461 1_545
Na0 O16 2.599783 1_555
Na0 O67 2.602684 1_545
Na0 O31 2.828588 1_545
Na0 O9 2.934876 1_545
Na0 O2 3.020437 1_555
Na1 O51 2.459865 1_555
Na1 O53 2.471134 1_555
Na1 O67 2.562739 1_555
Na1 O17 2.599134 1_555
Na1 O68 2.628779 1_555
Na1 O32 2.759334 1_555
Na1 O10 2.854361 1_555
Na1 O0 2.990699 1_555
Na2 O15 2.462447 1_555
Na2 O52 2.467329 1_555
Na2 O51 2.473249 1_555
Na2 O68 2.538132 1_655
Na2 O66 2.614769 1_655
Na2 O30 2.851803 1_655
Na2 O11 2.923354 1_655
Na2 O1 3.012497 1_555
Na3 O49 2.439443 1_555
Na3 O50 2.498557 1_555
Na3 O69 2.516823 1_555
Na3 O14 2.562601 1_555
Na3 O71 2.618022 1_555
Na3 O35 2.769020 1_555
Na3 O4 2.891665 1_555
Na3 O6 2.938537 1_555
Na4 O50 2.422949 1_555
Na4 O48 2.485832 1_555
Na4 O70 2.544211 1_655
Na4 O12 2.617848 1_555
Na4 O69 2.634634 1_655
Na4 O33 2.638787 1_655
Na4 O7 2.875046 1_655
Na4 O5 2.953067 1_555
Na5 O48 2.429503 1_555
Na5 O49 2.478472 1_555
Na5 O71 2.532149 1_545
Na5 O13 2.608062 1_555
Na5 O70 2.608827 1_545
Na5 O34 2.763833 1_545
Na6 O43 2.417627 1_565
Na6 O65 2.464622 1_555
Na6 O44 2.507345 1_455
Na6 O63 2.565700 1_555
Na6 O8 2.612455 1_555
Na6 O29 2.721697 1_555
Na6 O22 2.932197 1_455
Na6 O12 2.954225 1_455
Na7 O64 2.431335 1_555
Na7 O42 2.469837 1_565
Na7 O63 2.493277 1_555
Na7 O44 2.543986 1_555
Na7 O6 2.698889 1_555
Na7 O27 2.706620 1_555
Na7 O13 2.936788 1_565
Na7 O23 2.949878 1_565
Na8 O61 2.440036 1_555
Na8 O47 2.463468 1_565
Na8 O62 2.496841 1_555
Na8 O45 2.538252 1_455
Na8 O11 2.697201 1_555
Na8 O26 2.719629 1_554
Na8 O16 2.925947 1_565
Na8 O18 2.958667 1_565
Na9 O46 2.425351 1_565
Na9 O60 2.463145 1_555
Na9 O45 2.509572 1_555
Na9 O62 2.577351 1_555
Na9 O9 2.685664 1_555
Na9 O24 2.773380 1_554
Na9 O19 2.852772 1_555
Na9 O17 2.937134 1_555
Na10 O55 2.405662 1_555
Na10 O41 2.481186 1_545
Na10 O56 2.508401 1_555
Na10 O39 2.520020 1_655
Na10 O20 2.572116 1_556
Na10 O5 2.771797 1_555
Na10 O24 2.921766 1_545
Na10 O34 2.964823 1_545
Na11 O40 2.413928 1_545
Na11 O54 2.476058 1_555
Na11 O56 2.527477 1_555
Na11 O39 2.538632 1_555
Na11 O18 2.632530 1_556
Na11 O3 2.679620 1_555
Na11 O25 2.834405 1_555
Na11 O35 2.970084 1_555
Na12 O37 2.433387 1_545
Na12 O38 2.504706 1_655
Na12 O2 2.505664 1_555
Na12 O57 2.530137 1_555
Na12 O59 2.623073 1_555
Na12 O23 2.780795 1_555
Na12 O28 2.901964 1_655
Na12 O30 2.930230 1_655
Na13 O38 2.409952 1_555
Na13 O36 2.486110 1_545
Na13 O58 2.530003 1_555
Na13 O0 2.582898 1_555
Na13 O57 2.619094 1_555
Na13 O21 2.731328 1_555
Na13 O31 2.942448 1_545
Na13 O29 2.972909 1_545
Na14 O36 2.424583 1_655
Na14 O37 2.479525 1_555
Na14 O59 2.527076 1_555
Na14 O1 2.563781 1_555
Na14 O58 2.620909 1_555
Na14 O22 2.788259 1_555
Na14 O32 2.955699 1_555
Na14 O27 2.992300 1_555
Na15 O38 2.502493 1_555
Na15 O43 2.580076 1_555
Na15 O37 2.590087 1_445
Na15 O36 2.590884 1_545
Na15 O42 2.604697 1_455
Na15 O44 2.658875 1_445
Na16 O45 2.537186 1_555
Na16 O46 2.540384 1_565
Na16 O47 2.557689 1_665
Na16 O39 2.601498 1_664
Na16 O40 2.605494 1_654
Na16 O41 2.629874 1_554
Na17 O50 2.531521 1_555
Na17 O55 2.555164 1_555
Na17 O54 2.585538 1_555
Na17 O49 2.624336 1_555
Na17 O56 2.627945 1_555
Na17 O48 2.629221 1_555
Na18 O51 2.459953 1_555
Na18 O52 2.467913 1_555
Na18 O53 2.475973 1_555
Na18 O57 2.688787 1_555
Na18 O58 2.697504 1_555
Na18 O59 2.705755 1_555
Na19 O61 2.465107 1_555
Na19 O60 2.513398 1_555
Na19 O62 2.559649 1_555
Na19 O68 2.571325 1_555
Na19 O66 2.667598 1_555
Na19 O67 2.670046 1_555
Na20 O64 2.472019 1_555
Na20 O65 2.500178 1_555
Na20 O63 2.551606 1_555
Na20 O69 2.556256 1_555
Na20 O70 2.652704 1_555
Na20 O71 2.658476 1_555
In0 O4 2.084488 1_555
In0 O5 2.149196 1_565
In0 O3 2.149681 1_665
In0 O41 2.178910 1_555
In0 O40 2.186396 1_655
In0 O39 2.200347 1_665
In1 O7 2.087588 1_555
In1 O8 2.150406 1_545
In1 O6 2.155780 1_445
In1 O42 2.163848 1_455
In1 O43 2.173355 1_555
In1 O44 2.201779 1_445
In2 O10 2.080045 1_555
In2 O9 2.144554 1_445
In2 O11 2.150772 1_545
In2 O47 2.187202 1_555
In2 O46 2.190930 1_455
In2 O45 2.201434 1_445
In3 O19 2.086834 1_556
In3 O20 2.137934 1_556
In3 O18 2.145394 1_556
In3 O55 2.180191 1_555
In3 O54 2.197816 1_555
In3 O56 2.243479 1_555
In4 O21 2.114439 1_555
In4 O23 2.120647 1_555
In4 O22 2.127131 1_555
In4 O58 2.188393 1_555
In4 O59 2.210706 1_555
In4 O57 2.220000 1_555
In5 O25 2.096798 1_554
In5 O26 2.142140 1_554
In5 O24 2.157713 1_554
In5 O61 2.175267 1_555
In5 O60 2.186129 1_555
In5 O62 2.227879 1_555
In6 O28 2.089119 1_555
In6 O27 2.142188 1_555
In6 O29 2.149712 1_555
In6 O65 2.179649 1_555
In6 O64 2.188347 1_555
In6 O63 2.221433 1_555
In7 O31 2.124927 1_555
In7 O30 2.129154 1_555
In7 O32 2.132683 1_555
In7 O68 2.182081 1_555
In7 O66 2.188917 1_555
In7 O67 2.191640 1_555
In8 O34 2.126351 1_555
In8 O35 2.126419 1_555
In8 O33 2.128968 1_555
In8 O70 2.193141 1_555
In8 O69 2.204977 1_555
In8 O71 2.214674 1_555
O0 P0 1.543579 1_555
O0 Zn0 2.028415 1_555
O1 P1 1.544568 1_555
O1 Zn0 2.029276 1_665
O2 P2 1.544236 1_555
O2 Zn0 2.033084 1_655
O3 P3 1.552792 1_555
O4 P4 1.541014 1_555
O5 P5 1.550980 1_555
O6 P5 1.554283 1_565
O7 P3 1.543928 1_555
O8 P4 1.553156 1_455
O9 P1 1.554154 1_555
O10 P2 1.544033 1_455
O11 P0 1.553817 1_565
O12 P6 1.538418 1_555
O12 Zn1 2.043097 1_555
O13 P7 1.536278 1_555
O13 Zn1 2.045338 1_555
O14 P8 1.530999 1_555
O14 Zn1 2.033191 1_555
O15 P9 1.533849 1_555
O15 Zn2 2.035569 1_555
O16 P10 1.538469 1_555
O16 Zn2 2.045578 1_555
O17 P11 1.542126 1_555
O17 Zn2 2.044536 1_555
O18 P11 1.560163 1_555
O19 P9 1.542466 1_555
O20 P10 1.548474 1_555
O21 P7 1.545628 1_555
O22 P8 1.553415 1_555
O23 P6 1.557386 1_555
O24 P12 1.548647 1_555
O25 P13 1.534500 1_555
O26 P14 1.537274 1_555
O27 P15 1.552026 1_555
O28 P16 1.541517 1_555
O29 P17 1.552310 1_555
O30 P17 1.549234 1_555
O31 P15 1.550035 1_555
O32 P16 1.551084 1_555
O33 P13 1.544113 1_555
O34 P14 1.552255 1_555
O35 P12 1.556331 1_555
O36 P17 1.549799 1_555
O36 Zn0 2.277305 1_565
O37 P15 1.547751 1_555
O37 Zn0 2.284286 1_665
O38 P16 1.549934 1_555
O38 Zn0 2.255624 1_555
O39 P13 1.571418 1_555
O40 P14 1.552368 1_555
O41 P12 1.553267 1_555
O42 P6 1.558545 1_555
O43 P7 1.555828 1_555
O44 P8 1.573855 1_555
O45 P9 1.574914 1_555
O46 P10 1.556972 1_555
O47 P11 1.558208 1_555
O48 P5 1.546928 1_555
O48 Zn1 2.259894 1_555
O49 P3 1.545375 1_555
O49 Zn1 2.235267 1_555
O50 P4 1.547510 1_555
O50 Zn1 2.247173 1_555
O51 P1 1.552570 1_555
O51 Zn2 2.292861 1_555
O52 P2 1.551082 1_555
O52 Zn2 2.253672 1_555
O53 P0 1.552836 1_555
O53 Zn2 2.280838 1_555
O54 P12 1.553511 1_555
O55 P13 1.550848 1_655
O56 P14 1.568525 1_545
O57 P15 1.565745 1_545
O58 P16 1.564389 1_555
O59 P17 1.565841 1_655
O60 P11 1.561781 1_555
O61 P9 1.559877 1_455
O62 P10 1.579113 1_565
O63 P7 1.578635 1_565
O64 P8 1.558474 1_555
O65 P6 1.560487 1_455
O66 P0 1.573914 1_565
O67 P1 1.573055 1_555
O68 P2 1.574663 1_455
O69 P3 1.568370 1_555
O70 P4 1.565691 1_455
O71 P5 1.567763 1_565
