# generated using pymatgen
data_Na2Zr(SiO3)6
_symmetry_space_group_name_H-M   'P 1'
_cell_length_a   7.16629575
_cell_length_b   7.35981846
_cell_length_c   14.56422946
_cell_angle_alpha   90.00000000
_cell_angle_beta   90.00000000
_cell_angle_gamma   90.00000000
_symmetry_Int_Tables_number   1
_chemical_formula_structural   Na2Zr(SiO3)6
_chemical_formula_sum   'Na4 Zr2 Si12 O36'
_cell_volume   768.15584940
_cell_formula_units_Z   2
loop_
 _symmetry_equiv_pos_site_id
 _symmetry_equiv_pos_as_xyz
  1  'x, y, z'
loop_
 _atom_site_type_symbol
 _atom_site_label
 _atom_site_symmetry_multiplicity
 _atom_site_fract_x
 _atom_site_fract_y
 _atom_site_fract_z
 _atom_site_occupancy
  Na  Na0  1  0.02750976  0.03207077  0.75000000  1
  Na  Na1  1  0.02750976  0.96792923  0.25000000  1
  Na  Na2  1  0.50473909  -0.00000000  0.50000000  1
  Na  Na3  1  0.50473909  -0.00000000  0.00000000  1
  Zr  Zr0  1  0.00334117  -0.00000000  0.50000000  1
  Zr  Zr1  1  0.00334117  -0.00000000  0.00000000  1
  Si  Si0  1  0.28558993  0.71664551  0.64412032  1
  Si  Si1  1  0.28558993  0.28335449  0.35587968  1
  Si  Si2  1  0.28558993  0.71664551  0.85587968  1
  Si  Si3  1  0.28558993  0.28335449  0.14412032  1
  Si  Si4  1  0.73035845  0.72151316  0.64413729  1
  Si  Si5  1  0.73035845  0.27848684  0.35586271  1
  Si  Si6  1  0.73035845  0.72151316  0.85586271  1
  Si  Si7  1  0.73035845  0.27848684  0.14413729  1
  Si  Si8  1  0.00664040  0.40376562  0.64135690  1
  Si  Si9  1  0.00664040  0.59623438  0.35864310  1
  Si  Si10  1  0.00664040  0.40376562  0.85864310  1
  Si  Si11  1  0.00664040  0.59623438  0.14135690  1
  O  O0  1  0.23121131  0.77520797  0.75000000  1
  O  O1  1  0.23121131  0.22479203  0.25000000  1
  O  O2  1  0.21716214  0.87617707  0.57773095  1
  O  O3  1  0.21716214  0.12382293  0.42226905  1
  O  O4  1  0.21716214  0.87617707  0.92226905  1
  O  O5  1  0.21716214  0.12382293  0.07773095  1
  O  O6  1  0.19394372  0.52133496  0.62139541  1
  O  O7  1  0.19394372  0.47866504  0.37860459  1
  O  O8  1  0.19394372  0.52133496  0.87860459  1
  O  O9  1  0.19394372  0.47866504  0.12139541  1
  O  O10  1  0.00127647  0.35126745  0.75000000  1
  O  O11  1  0.00127647  0.64873255  0.25000000  1
  O  O12  1  0.00521786  0.21561438  0.58872551  1
  O  O13  1  0.00521786  0.78438562  0.41127449  1
  O  O14  1  0.00521786  0.21561438  0.91127449  1
  O  O15  1  0.00521786  0.78438562  0.08872551  1
  O  O16  1  0.50809144  0.69222184  0.63754187  1
  O  O17  1  0.50809144  0.30777816  0.36245813  1
  O  O18  1  0.50809144  0.69222184  0.86245813  1
  O  O19  1  0.50809144  0.30777816  0.13754187  1
  O  O20  1  0.78606927  0.77805756  0.75000000  1
  O  O21  1  0.78606927  0.22194244  0.25000000  1
  O  O22  1  0.79115460  0.88445823  0.57861432  1
  O  O23  1  0.79115460  0.11554177  0.42138568  1
  O  O24  1  0.79115460  0.88445823  0.92138568  1
  O  O25  1  0.79115460  0.11554177  0.07861432  1
  O  O26  1  0.82646836  0.52939347  0.61885470  1
  O  O27  1  0.82646836  0.47060653  0.38114530  1
  O  O28  1  0.82646836  0.52939347  0.88114530  1
  O  O29  1  0.82646836  0.47060653  0.11885470  1
  O  O30  1  0.49647303  0.13661632  0.75000000  1
  O  O31  1  0.49647303  0.86338368  0.25000000  1
  O  O32  1  0.40206455  0.14035543  0.67525667  1
  O  O33  1  0.40206455  0.85964457  0.32474333  1
  O  O34  1  0.40206455  0.14035543  0.82474333  1
  O  O35  1  0.40206455  0.85964457  0.17525667  1
loop_
_geom_bond_atom_site_label_1
_geom_bond_atom_site_label_2
_geom_bond_distance
_geom_bond_site_symmetry_2
Na0 O10 2.356740 1_555
Na0 O0 2.388478 1_545
Na0 O20 2.547294 1_445
Na0 O12 2.714287 1_555
Na0 O14 2.714287 1_555
Na0 O34 3.004149 1_555
Na0 O32 3.004149 1_555
Na1 O11 2.356740 1_555
Na1 O1 2.388478 1_565
Na1 O21 2.547294 1_465
Na1 O15 2.714287 1_555
Na1 O13 2.714287 1_555
Na1 O33 3.004149 1_555
Na1 O35 3.004149 1_555
Na2 O22 2.499393 1_545
Na2 O23 2.499393 1_555
Na2 O3 2.521760 1_555
Na2 O2 2.521760 1_545
Na2 O33 2.850195 1_545
Na2 O32 2.850195 1_555
Na3 O25 2.499393 1_555
Na3 O24 2.499393 1_544
Na3 O4 2.521760 1_544
Na3 O5 2.521760 1_555
Na3 O34 2.850195 1_554
Na3 O35 2.850195 1_545
O0 Si2 1.647898 1_555
O0 Si0 1.647898 1_555
O1 Si3 1.647898 1_555
O1 Si1 1.647898 1_555
O2 Si0 1.598107 1_555
O2 Zr0 2.111890 1_565
O3 Si1 1.598107 1_555
O3 Zr0 2.111890 1_555
O4 Si2 1.598107 1_555
O4 Zr1 2.111890 1_566
O5 Si3 1.598107 1_555
O5 Zr1 2.111890 1_555
O6 Si0 1.614665 1_555
O6 Si8 1.623249 1_555
O7 Si1 1.614665 1_555
O7 Si9 1.623249 1_555
O8 Si2 1.614665 1_555
O8 Si10 1.623249 1_555
O9 Si3 1.614665 1_555
O9 Si11 1.623249 1_555
O10 Si10 1.629248 1_555
O10 Si8 1.629248 1_555
O11 Si9 1.629248 1_555
O11 Si11 1.629248 1_555
O12 Si8 1.582794 1_555
O12 Zr0 2.046511 1_555
O13 Si9 1.582794 1_555
O13 Zr0 2.046511 1_565
O14 Si10 1.582794 1_555
O14 Zr1 2.046511 1_556
O15 Si11 1.582794 1_555
O15 Zr1 2.046511 1_565
O16 Si0 1.607470 1_555
O16 Si4 1.610221 1_555
O17 Si1 1.607470 1_555
O17 Si5 1.610221 1_555
O18 Si2 1.607470 1_555
O18 Si6 1.610221 1_555
O19 Si3 1.607470 1_555
O19 Si7 1.610221 1_555
O20 Si4 1.646133 1_555
O20 Si6 1.646133 1_555
O21 Si7 1.646133 1_555
O21 Si5 1.646133 1_555
O22 Si4 1.593325 1_555
O22 Zr0 2.084766 1_665
O23 Si5 1.593325 1_555
O23 Zr0 2.084766 1_655
O24 Si6 1.593325 1_555
O24 Zr1 2.084766 1_666
O25 Si7 1.593325 1_555
O25 Zr1 2.084766 1_655
O26 Si4 1.615322 1_555
O26 Si8 1.621542 1_655
O27 Si5 1.615322 1_555
O27 Si9 1.621542 1_655
O28 Si6 1.615322 1_555
O28 Si10 1.621542 1_655
O29 Si7 1.615322 1_555
O29 Si11 1.621542 1_655
O30 O32 1.281988 1_555
O30 O34 1.281988 1_555
O31 O33 1.281988 1_555
O31 O35 1.281988 1_555
