# generated using pymatgen
data_LiNd2HO3
_symmetry_space_group_name_H-M   'P 1'
_cell_length_a   6.84735122
_cell_length_b   6.84735122
_cell_length_c   6.84735122
_cell_angle_alpha   150.34397998
_cell_angle_beta   148.50805223
_cell_angle_gamma   43.80290311
_symmetry_Int_Tables_number   1
_chemical_formula_structural   LiNd2HO3
_chemical_formula_sum   'Li1 Nd2 H1 O3'
_cell_volume   82.74895834
_cell_formula_units_Z   1
loop_
 _symmetry_equiv_pos_site_id
 _symmetry_equiv_pos_as_xyz
  1  'x, y, z'
loop_
 _atom_site_type_symbol
 _atom_site_label
 _atom_site_symmetry_multiplicity
 _atom_site_fract_x
 _atom_site_fract_y
 _atom_site_fract_z
 _atom_site_occupancy
  Li  Li0  1  0.00000000  0.00000000  0.00000000  1
  Nd  Nd0  1  0.36404500  0.36404500  0.00000000  1
  Nd  Nd1  1  0.63595500  0.63595500  0.00000000  1
  H  H0  1  0.00000000  0.50000000  0.50000000  1
  O  O0  1  0.50000000  0.00000000  0.50000000  1
  O  O1  1  0.82351600  0.82351600  0.00000000  1
  O  O2  1  0.17648400  0.17648400  0.00000000  1
loop_
_geom_bond_atom_site_label_1
_geom_bond_atom_site_label_2
_geom_bond_distance
_geom_bond_site_symmetry_2
Li0 O0 1.858185 1_454
Li0 O0 1.858185 1_555
Li0 O2 2.242461 1_555
Li0 O1 2.242461 1_445
Nd0 O2 2.383209 1_555
Nd0 O0 2.460688 1_554
Nd0 O0 2.460688 1_565
Nd0 O1 2.605538 1_455
Nd0 O1 2.605538 1_545
Nd0 O1 2.605538 1_444
Nd0 O1 2.605538 1_556
Nd1 O1 2.383209 1_555
Nd1 O0 2.460688 1_554
Nd1 O0 2.460688 1_565
Nd1 O2 2.605538 1_554
Nd1 O2 2.605538 1_655
Nd1 O2 2.605538 1_666
Nd1 O2 2.605538 1_565
H0 Li0 1.752363 1_555
H0 Li0 1.752363 1_566
H0 Nd1 2.537136 1_455
H0 Nd1 2.537136 1_556
H0 Nd0 2.537136 1_556
H0 Nd0 2.537136 1_455
