# generated using pymatgen
data_Er2MgV2O8
_symmetry_space_group_name_H-M   'P 1'
_cell_length_a   6.03189310
_cell_length_b   6.03189405
_cell_length_c   6.17964297
_cell_angle_alpha   106.09876211
_cell_angle_beta   106.09876614
_cell_angle_gamma   115.38165384
_symmetry_Int_Tables_number   1
_chemical_formula_structural   Er2MgV2O8
_chemical_formula_sum   'Er2 Mg1 V2 O8'
_cell_volume   173.65920762
_cell_formula_units_Z   1
loop_
 _symmetry_equiv_pos_site_id
 _symmetry_equiv_pos_as_xyz
  1  'x, y, z'
loop_
 _atom_site_type_symbol
 _atom_site_label
 _atom_site_symmetry_multiplicity
 _atom_site_fract_x
 _atom_site_fract_y
 _atom_site_fract_z
 _atom_site_occupancy
  Er  Er0  1  0.15396000  0.84604000  0.25000000  1
  Er  Er1  1  0.87013400  0.12986600  0.75000000  1
  Mg  Mg0  1  0.85975000  0.14025000  0.25000000  1
  V  V0  1  0.37969600  0.62030400  0.75000000  1
  V  V1  1  0.59310900  0.40689100  0.25000000  1
  O  O0  1  0.80910200  0.36499600  0.08561400  1
  O  O1  1  0.74861400  0.81320400  0.96065500  1
  O  O2  1  0.39297800  0.80665800  0.56506800  1
  O  O3  1  0.81158500  0.76948500  0.43211500  1
  O  O4  1  0.23051500  0.18841500  0.06788500  1
  O  O5  1  0.19334200  0.60702200  0.93493200  1
  O  O6  1  0.18679600  0.25138600  0.53934500  1
  O  O7  1  0.63500400  0.19089800  0.41438600  1
loop_
_geom_bond_atom_site_label_1
_geom_bond_atom_site_label_2
_geom_bond_distance
_geom_bond_site_symmetry_2
Er0 O2 2.217927 1_555
Er0 O5 2.217927 1_554
Er0 O7 2.407750 1_565
Er0 O0 2.407750 1_455
Er0 O1 2.485616 1_454
Er0 O6 2.485617 1_565
Er0 O3 2.550354 1_455
Er0 O4 2.550354 1_565
Er1 O4 2.301712 1_656
Er1 O3 2.301712 1_545
Er1 O2 2.349561 1_545
Er1 O5 2.349561 1_655
Er1 O7 2.384985 1_555
Er1 O0 2.384985 1_556
Er1 O6 2.566739 1_655
Er1 O1 2.566739 1_545
Mg0 O6 1.945103 1_655
Mg0 O1 1.945103 1_544
Mg0 O7 1.977302 1_555
Mg0 O0 1.977302 1_555
Mg0 O4 2.715260 1_655
Mg0 O3 2.715260 1_545
O0 V1 1.914965 1_555
O1 V0 1.825935 1_555
O2 V0 1.806091 1_555
O3 V1 1.768681 1_555
O4 V1 1.768681 1_555
O5 V0 1.806091 1_555
O6 V0 1.825935 1_555
O7 V1 1.914965 1_555
