# generated using pymatgen
data_Sr8MgMn6O20
_symmetry_space_group_name_H-M   'P 1'
_cell_length_a   5.55557300
_cell_length_b   6.78278744
_cell_length_c   13.97564942
_cell_angle_alpha   89.60228564
_cell_angle_beta   90.00000000
_cell_angle_gamma   114.17560114
_symmetry_Int_Tables_number   1
_chemical_formula_structural   Sr8MgMn6O20
_chemical_formula_sum   'Sr8 Mg1 Mn6 O20'
_cell_volume   480.43163246
_cell_formula_units_Z   1
loop_
 _symmetry_equiv_pos_site_id
 _symmetry_equiv_pos_as_xyz
  1  'x, y, z'
loop_
 _atom_site_type_symbol
 _atom_site_label
 _atom_site_symmetry_multiplicity
 _atom_site_fract_x
 _atom_site_fract_y
 _atom_site_fract_z
 _atom_site_occupancy
  Sr  Sr0  1  0.24036100  0.48072200  0.11042800  1
  Sr  Sr1  1  0.75963900  0.51927700  0.88957100  1
  Sr  Sr2  1  0.74339200  0.48678300  0.40001100  1
  Sr  Sr3  1  0.25660800  0.51321600  0.59998900  1
  Sr  Sr4  1  0.96993100  0.93986100  0.62686700  1
  Sr  Sr5  1  0.03007000  0.06014000  0.37313300  1
  Sr  Sr6  1  0.54308500  0.08616900  0.19736000  1
  Sr  Sr7  1  0.45691600  0.91383200  0.80264000  1
  Mg  Mg0  1  0.50000000  0.00000000  0.00000000  1
  Mn  Mn0  1  0.63076000  0.26152000  0.64725300  1
  Mn  Mn1  1  0.36924000  0.73848000  0.35274700  1
  Mn  Mn2  1  0.87676900  0.75353900  0.16214800  1
  Mn  Mn3  1  0.12323100  0.24646100  0.83785200  1
  Mn  Mn4  1  0.50000000  0.00000000  0.50000000  1
  Mn  Mn5  1  0.00000000  0.00000000  0.00000000  1
  O  O0  1  0.36035800  0.21706100  0.73710700  1
  O  O1  1  0.14329800  0.78293800  0.26289300  1
  O  O2  1  0.63964000  0.78293800  0.26289300  1
  O  O3  1  0.85670200  0.21706100  0.73710700  1
  O  O4  1  0.16009800  0.78205500  0.46508700  1
  O  O5  1  0.37804400  0.21794500  0.53491300  1
  O  O6  1  0.34723500  0.20627700  0.96180900  1
  O  O7  1  0.14095800  0.79372300  0.03819200  1
  O  O8  1  0.83990200  0.21794500  0.53491300  1
  O  O9  1  0.62195600  0.78205500  0.46508700  1
  O  O10  1  0.65276500  0.79372300  0.03819200  1
  O  O11  1  0.85904300  0.20627700  0.96180900  1
  O  O12  1  0.77768300  0.55536700  0.64842700  1
  O  O13  1  0.22231700  0.44463300  0.35157200  1
  O  O14  1  0.04018200  0.08036400  0.13836700  1
  O  O15  1  0.95981800  0.91963600  0.86163400  1
  O  O16  1  0.45713900  0.91427900  0.63239100  1
  O  O17  1  0.72788200  0.45576500  0.15925900  1
  O  O18  1  0.27211800  0.54423500  0.84074100  1
  O  O19  1  0.54286000  0.08572100  0.36761000  1
loop_
_geom_bond_atom_site_label_1
_geom_bond_atom_site_label_2
_geom_bond_distance
_geom_bond_site_symmetry_2
Mg0 O6 1.981154 1_554
Mg0 O10 1.981158 1_545
Mg0 O7 1.981158 1_545
Mg0 O11 1.981158 1_554
Mn0 O12 1.818495 1_555
Mn0 O3 1.883691 1_555
Mn0 O0 1.883695 1_555
Mn0 O5 2.046963 1_555
Mn0 O8 2.046967 1_555
Mn0 O16 2.160281 1_545
Mn1 O13 1.818495 1_555
Mn1 O1 1.883688 1_555
Mn1 O2 1.883688 1_555
Mn1 O9 2.046963 1_555
Mn1 O4 2.046967 1_555
Mn1 O19 2.160282 1_565
Mn2 O17 1.843345 1_555
Mn2 O2 1.994176 1_555
Mn2 O1 1.994179 1_655
Mn2 O14 2.046991 1_665
Mn2 O10 2.212545 1_555
Mn2 O7 2.212548 1_655
Mn3 O18 1.843345 1_555
Mn3 O0 1.994170 1_555
Mn3 O3 1.994178 1_455
Mn3 O15 2.046994 1_445
Mn3 O6 2.212555 1_555
Mn3 O11 2.212555 1_455
Mn4 O19 1.920885 1_555
Mn4 O16 1.920898 1_545
Mn4 O5 1.926865 1_555
Mn4 O9 1.926865 1_545
Mn4 O8 1.926868 1_555
Mn4 O4 1.926868 1_545
Mn5 O11 1.934618 1_454
Mn5 O6 1.934622 1_554
Mn5 O7 1.934626 1_545
Mn5 O10 1.934626 1_445
Mn5 O15 2.000333 1_444
Mn5 O14 2.000347 1_555
O0 Sr7 2.496853 1_545
O0 Sr4 2.704334 1_445
O0 Sr3 2.989061 1_555
O0 Sr1 3.162122 1_555
O1 Sr6 2.496860 1_565
O1 Sr5 2.704348 1_565
O1 Sr2 2.989064 1_455
O1 Sr0 3.162127 1_555
O2 Sr6 2.496857 1_565
O2 Sr5 2.704348 1_665
O2 Sr2 2.989066 1_555
O2 Sr0 3.162127 1_555
O3 Sr7 2.496851 1_545
O3 Sr4 2.704340 1_545
O3 Sr3 2.989064 1_655
O3 Sr1 3.162117 1_555
O4 Sr2 2.534823 1_455
O4 Sr5 2.610258 1_565
O4 Sr3 2.814274 1_555
O4 Sr4 2.886815 1_455
O5 Sr3 2.534823 1_555
O5 Sr4 2.610255 1_445
O5 Sr2 2.814269 1_555
O5 Sr5 2.886817 1_555
O6 Sr1 2.600373 1_555
O6 Sr0 3.015097 1_556
O7 Sr0 2.600365 1_555
O7 Sr1 3.015119 1_454
O8 Sr3 2.534820 1_655
O8 Sr4 2.610255 1_545
O8 Sr2 2.814269 1_555
O8 Sr5 2.886814 1_655
O9 Sr2 2.534829 1_555
O9 Sr5 2.610261 1_665
O9 Sr3 2.814271 1_555
O9 Sr4 2.886821 1_555
O10 Sr0 2.600365 1_555
O10 Sr1 3.015121 1_554
O11 Sr1 2.600373 1_555
O11 Sr0 3.015095 1_656
O12 Sr4 2.395939 1_555
O12 Sr3 2.871422 1_555
O12 Sr3 2.871427 1_655
O13 Sr5 2.395935 1_555
O13 Sr2 2.871427 1_455
O13 Sr2 2.871427 1_555
O14 Sr0 2.505021 1_555
O14 Sr6 2.897856 1_455
O14 Sr6 2.897861 1_555
O15 Sr1 2.505023 1_555
O15 Sr7 2.897862 1_655
O15 Sr7 2.897862 1_555
O16 Sr7 2.379321 1_555
O16 Sr3 2.526101 1_555
O16 Sr4 2.783325 1_455
O16 Sr4 2.783336 1_555
O17 Sr6 2.344245 1_555
O17 Sr0 2.864273 1_555
O17 Sr0 2.864278 1_655
O18 Sr7 2.344251 1_555
O18 Sr1 2.864273 1_555
O18 Sr1 2.864273 1_455
O19 Sr6 2.379335 1_555
O19 Sr2 2.526093 1_555
O19 Sr5 2.783327 1_555
O19 Sr5 2.783333 1_655
