# generated using pymatgen
data_Na4Mg2Ta2Si3(SO8)3
_symmetry_space_group_name_H-M   'P 1'
_cell_length_a   8.95470980
_cell_length_b   8.94811867
_cell_length_c   22.63667494
_cell_angle_alpha   89.66599746
_cell_angle_beta   90.26886023
_cell_angle_gamma   120.46819612
_symmetry_Int_Tables_number   1
_chemical_formula_structural   Na4Mg2Ta2Si3(SO8)3
_chemical_formula_sum   'Na12 Mg6 Ta6 Si9 S9 O72'
_cell_volume   1563.32734342
_cell_formula_units_Z   3
loop_
 _symmetry_equiv_pos_site_id
 _symmetry_equiv_pos_as_xyz
  1  'x, y, z'
loop_
 _atom_site_type_symbol
 _atom_site_label
 _atom_site_symmetry_multiplicity
 _atom_site_fract_x
 _atom_site_fract_y
 _atom_site_fract_z
 _atom_site_occupancy
  Na  Na0  1  0.36947384  0.34841904  0.24484316  1
  Na  Na1  1  0.64734221  0.63232953  0.74527245  1
  Na  Na2  1  0.02115170  0.67698575  0.59223146  1
  Na  Na3  1  0.32349214  0.97116811  0.07792670  1
  Na  Na4  1  0.69817008  0.02428531  0.90682849  1
  Na  Na5  1  0.98836443  0.30449605  0.42449478  1
  Na  Na6  1  0.01068019  0.01662590  0.50069630  1
  Na  Na7  1  0.01255142  0.00325737  0.98955999  1
  Na  Na8  1  0.67968561  0.33320359  0.81991111  1
  Na  Na9  1  0.64448889  0.31722907  0.32929699  1
  Na  Na10  1  0.35007069  0.67096258  0.15344288  1
  Na  Na11  1  0.33276463  0.65100966  0.65673255  1
  Mg  Mg0  1  0.01501551  0.00292561  0.35232115  1
  Mg  Mg1  1  0.00524756  0.99613877  0.84978235  1
  Mg  Mg2  1  0.68252952  0.33674785  0.68698306  1
  Mg  Mg3  1  0.65067155  0.31705691  0.18323096  1
  Mg  Mg4  1  0.34051203  0.66946483  0.01901023  1
  Mg  Mg5  1  0.33890286  0.64681304  0.52227383  1
  Ta  Ta0  1  0.98386994  0.99585074  0.64819380  1
  Ta  Ta1  1  0.00932465  0.00036066  0.14190722  1
  Ta  Ta2  1  0.65316587  0.31654390  0.98066844  1
  Ta  Ta3  1  0.66215087  0.34130880  0.48536848  1
  Ta  Ta4  1  0.33964115  0.66962263  0.31308090  1
  Ta  Ta5  1  0.32855927  0.68013397  0.80979969  1
  Si  Si0  1  0.29636291  0.00180308  0.25202665  1
  Si  Si1  1  0.99329194  0.70932921  0.75113853  1
  Si  Si2  1  0.71154476  0.01165082  0.75674960  1
  Si  Si3  1  0.96134618  0.33521277  0.58362771  1
  Si  Si4  1  0.65862439  0.62802873  0.59043513  1
  Si  Si5  1  0.66572661  0.03705462  0.08634313  1
  Si  Si6  1  0.38210132  0.35057703  0.08728333  1
  Si  Si7  1  0.31621866  0.95204568  0.92059342  1
  Si  Si8  1  0.33124538  0.36695242  0.41740969  1
  S  S0  1  0.71490906  0.71522170  0.25247778  1
  S  S1  1  0.99667504  0.28879521  0.25094697  1
  S  S2  1  0.28684710  0.28898155  0.75155808  1
  S  S3  1  0.37531318  0.04385459  0.58475050  1
  S  S4  1  0.95009142  0.61731594  0.08563127  1
  S  S5  1  0.62303933  0.66181967  0.91778213  1
  S  S6  1  0.04488897  0.38143067  0.91859705  1
  S  S7  1  0.62325629  0.95692874  0.41698925  1
  S  S8  1  0.04407391  0.66817589  0.41705085  1
  O  O0  1  0.19700925  0.02763616  0.30480675  1
  O  O1  1  0.80887056  0.80125928  0.30576660  1
  O  O2  1  0.97088507  0.18936058  0.30543398  1
  O  O3  1  0.20544160  0.18936276  0.80461564  1
  O  O4  1  0.97245806  0.80337559  0.80610145  1
  O  O5  1  0.81490354  0.02845785  0.81581682  1
  O  O6  1  0.80671231  0.96971531  0.69779398  1
  O  O7  1  0.17695170  0.20985220  0.69725561  1
  O  O8  1  0.03577608  0.83458368  0.68952724  1
  O  O9  1  0.79150696  0.82135766  0.19816254  1
  O  O10  1  0.02969303  0.20338864  0.19924741  1
  O  O11  1  0.16975429  0.97006511  0.19128802  1
  O  O12  1  0.86112187  0.35833352  0.63586970  1
  O  O13  1  0.47801980  0.12347615  0.63645215  1
  O  O14  1  0.63688249  0.51393346  0.64666700  1
  O  O15  1  0.86812086  0.52052250  0.13894151  1
  O  O16  1  0.64046331  0.13390712  0.13969293  1
  O  O17  1  0.48098380  0.36943491  0.14775033  1
  O  O18  1  0.47838551  0.30469908  0.03020071  1
  O  O19  1  0.84490418  0.54077394  0.03123386  1
  O  O20  1  0.70134035  0.16505430  0.02424210  1
  O  O21  1  0.46504463  0.16016440  0.52904805  1
  O  O22  1  0.69611047  0.52666196  0.53009852  1
  O  O23  1  0.83544665  0.29926720  0.51939357  1
  O  O24  1  0.53460506  0.68048293  0.96872843  1
  O  O25  1  0.14709942  0.46393101  0.97094127  1
  O  O26  1  0.30998657  0.85031381  0.97904494  1
  O  O27  1  0.53650496  0.85632576  0.46885921  1
  O  O28  1  0.30057326  0.46941047  0.46795525  1
  O  O29  1  0.14530387  0.69486965  0.47036885  1
  O  O30  1  0.13690754  0.64166464  0.36415618  1
  O  O31  1  0.50969106  0.86687531  0.36158252  1
  O  O32  1  0.36055584  0.49478171  0.35540972  1
  O  O33  1  0.13113278  0.48495375  0.86384049  1
  O  O34  1  0.35933250  0.85613673  0.86257073  1
  O  O35  1  0.51802289  0.63000996  0.86240767  1
  O  O36  1  0.00960770  0.80823810  0.40640158  1
  O  O37  1  0.79464834  0.97618954  0.40777969  1
  O  O38  1  0.15624386  0.18080868  0.41082307  1
  O  O39  1  0.00977918  0.20270498  0.91326416  1
  O  O40  1  0.16643818  0.99520446  0.91233704  1
  O  O41  1  0.79465776  0.82072347  0.91319929  1
  O  O42  1  0.98600536  0.16265120  0.59008997  1
  O  O43  1  0.20270260  0.03241048  0.58550565  1
  O  O44  1  0.85449509  0.81481452  0.58968207  1
  O  O45  1  0.96539229  0.79900714  0.08954785  1
  O  O46  1  0.84263248  0.02089263  0.09410651  1
  O  O47  1  0.18939058  0.15234277  0.09075121  1
  O  O48  1  0.66162096  0.15460673  0.74454553  1
  O  O49  1  0.46026361  0.31527588  0.74387996  1
  O  O50  1  0.82680416  0.52137092  0.74522735  1
  O  O51  1  0.68873069  0.54051220  0.24722560  1
  O  O52  1  0.85803281  0.32503536  0.24126122  1
  O  O53  1  0.48636108  0.17086513  0.24728827  1
  O  O54  1  0.64688813  0.50705129  0.92519792  1
  O  O55  1  0.86853968  0.37099138  0.92180219  1
  O  O56  1  0.51370506  0.14869397  0.92308746  1
  O  O57  1  0.64247760  0.13346187  0.41678523  1
  O  O58  1  0.51102624  0.35274783  0.42303868  1
  O  O59  1  0.87254922  0.49661952  0.41870887  1
  O  O60  1  0.33356709  0.49383535  0.07452280  1
  O  O61  1  0.12715255  0.65238355  0.07944921  1
  O  O62  1  0.49705910  0.85183225  0.07671718  1
  O  O63  1  0.34911642  0.87180988  0.57237558  1
  O  O64  1  0.51341735  0.67422393  0.57855081  1
  O  O65  1  0.14160044  0.51272809  0.57435205  1
  O  O66  1  0.30870195  0.81996075  0.25953676  1
  O  O67  1  0.53024172  0.69301766  0.25609331  1
  O  O68  1  0.16913953  0.46458350  0.25579067  1
  O  O69  1  0.30640783  0.46880185  0.75681967  1
  O  O70  1  0.17224744  0.68903077  0.75783358  1
  O  O71  1  0.52247074  0.81205531  0.75990220  1
loop_
_geom_bond_atom_site_label_1
_geom_bond_atom_site_label_2
_geom_bond_distance
_geom_bond_site_symmetry_2
Na0 O53 2.303843 1_555
Na0 O17 2.385032 1_555
Na0 O51 2.479257 1_555
Na0 O68 2.501659 1_555
Na0 O67 2.673825 1_555
Na0 O0 2.818768 1_555
Na0 O10 2.826467 1_555
Na0 O32 2.851679 1_555
Na1 O50 2.277382 1_555
Na1 O71 2.404101 1_555
Na1 O49 2.457012 1_555
Na1 O14 2.457314 1_555
Na1 O69 2.646268 1_555
Na1 O6 2.813048 1_555
Na1 O4 2.860508 1_555
Na1 O35 2.894125 1_555
Na2 O65 2.259683 1_555
Na2 O44 2.369898 1_455
Na2 O63 2.584043 1_555
Na2 O8 2.588986 1_555
Na2 O12 2.645033 1_455
Na2 O43 2.744857 1_565
Na2 O22 2.876214 1_455
Na2 O29 2.952030 1_555
Na3 O62 2.289219 1_555
Na3 O26 2.467260 1_554
Na3 O47 2.477400 1_565
Na3 O61 2.478430 1_555
Na3 O45 2.778253 1_455
Na3 O18 2.788652 1_565
Na3 O16 2.815446 1_565
Na3 O11 2.915374 1_555
Na4 O5 2.306131 1_555
Na4 O41 2.382639 1_545
Na4 O39 2.416066 1_655
Na4 O56 2.445113 1_555
Na4 O55 2.697153 1_555
Na5 O38 2.297027 1_655
Na5 O59 2.419164 1_555
Na5 O23 2.540366 1_555
Na5 O37 2.573196 1_545
Na5 O28 2.601710 1_655
Na5 O57 2.675243 1_555
Na5 O2 2.866107 1_555
Na5 O30 2.938804 1_655
Na6 O38 2.458522 1_555
Na6 O42 2.485725 1_455
Na6 O43 2.527483 1_555
Na6 O44 2.587935 1_445
Na6 O37 2.749187 1_445
Na6 O36 2.839250 1_545
Na7 O40 2.254913 1_545
Na7 O39 2.485380 1_555
Na7 O41 2.496418 1_445
Na7 O47 2.719101 1_556
Na7 O45 2.796361 1_446
Na7 O46 2.867484 1_456
Na8 O50 2.273075 1_555
Na8 O48 2.292960 1_555
Na8 O49 2.549588 1_555
Na8 O55 2.772487 1_555
Na8 O56 2.808719 1_555
Na8 O54 2.949512 1_555
Na9 O53 2.299897 1_555
Na9 O58 2.539503 1_555
Na9 O57 2.561009 1_555
Na9 O51 2.600238 1_555
Na9 O59 2.741984 1_555
Na9 O52 2.744369 1_555
Na10 O62 2.279630 1_555
Na10 O60 2.349140 1_555
Na10 O61 2.540310 1_555
Na10 O67 2.772836 1_555
Na10 O66 2.868639 1_555
Na10 O68 2.890336 1_555
Na11 O64 2.339655 1_555
Na11 O65 2.405793 1_555
Na11 O63 2.690110 1_555
Na11 O69 2.723747 1_555
Na11 O71 2.817098 1_555
Na11 O70 2.820523 1_555
Mg0 O0 1.873474 1_555
Mg0 O38 1.963193 1_555
Mg0 O1 2.097686 1_445
Mg0 O36 2.103811 1_545
Mg0 O2 2.170179 1_455
Mg0 O37 2.251278 1_445
Mg1 O4 1.882190 1_455
Mg1 O5 2.016190 1_465
Mg1 O40 2.020291 1_555
Mg1 O3 2.025280 1_565
Mg1 O41 2.253454 1_455
Mg1 O39 2.331850 1_565
Mg2 O12 1.906599 1_555
Mg2 O50 1.995391 1_555
Mg2 O48 2.014276 1_555
Mg2 O14 2.037291 1_555
Mg2 O13 2.183035 1_555
Mg2 O49 2.300111 1_555
Mg3 O16 1.879243 1_555
Mg3 O17 1.969775 1_555
Mg3 O53 2.006174 1_555
Mg3 O15 2.124446 1_555
Mg3 O52 2.241064 1_555
Mg3 O51 2.356003 1_555
Mg4 O60 1.982760 1_555
Mg4 O26 1.985227 1_554
Mg4 O62 2.005555 1_555
Mg4 O24 2.041944 1_554
Mg4 O25 2.083620 1_554
Mg4 O61 2.295952 1_555
Mg5 O28 1.901540 1_555
Mg5 O64 1.929094 1_555
Mg5 O65 1.950422 1_555
Mg5 O27 2.176509 1_555
Mg5 O63 2.277480 1_555
Mg5 O29 2.302583 1_555
O0 Si0 1.579301 1_555
O1 S0 1.449192 1_555
O2 S1 1.465530 1_555
O3 S2 1.450950 1_555
O4 Si1 1.569895 1_555
O5 Si2 1.586387 1_555
O6 Si2 1.728846 1_565
O6 Ta0 1.862633 1_555
O7 S2 1.507625 1_555
O7 Ta0 2.130464 1_445
O8 Si1 1.703047 1_455
O8 Ta0 1.958116 1_455
O9 S0 1.489238 1_555
O9 Ta1 2.196102 1_665
O10 S1 1.511258 1_455
O10 Ta1 2.169735 1_555
O11 Si0 1.708752 1_565
O11 Ta1 1.939888 1_565
O12 Si3 1.564574 1_555
O13 S3 1.434679 1_555
O14 Si4 1.576737 1_555
O15 S4 1.447977 1_555
O16 Si5 1.572990 1_555
O17 Si6 1.589292 1_555
O18 Si6 1.719645 1_555
O18 Ta2 1.888080 1_554
O19 S4 1.489064 1_555
O19 Ta2 2.190581 1_554
O20 Si5 1.733413 1_555
O20 Ta2 1.889433 1_554
O21 S3 1.569988 1_555
O21 Ta3 1.953626 1_555
O22 Si4 1.768725 1_555
O22 Ta3 1.836775 1_555
O23 Si3 1.763818 1_555
O23 Ta3 1.928810 1_555
O24 S5 1.459428 1_555
O25 S6 1.449648 1_555
O26 Si7 1.586704 1_555
O27 S7 1.442066 1_555
O28 Si8 1.579770 1_555
O29 S8 1.452237 1_555
O30 S8 1.547141 1_555
O30 Ta4 2.061753 1_555
O31 S7 1.557357 1_555
O31 Ta4 1.980098 1_555
O32 Si8 1.739902 1_555
O32 Ta4 1.918027 1_555
O33 S6 1.503663 1_555
O33 Ta5 2.129870 1_555
O34 Si7 1.721802 1_555
O34 Ta5 1.887308 1_555
O35 S5 1.502747 1_555
O35 Ta5 2.290036 1_555
O36 S8 1.453328 1_555
O37 S7 1.470717 1_555
O38 Si8 1.614307 1_555
O39 S6 1.470727 1_555
O40 Si7 1.582749 1_555
O41 S5 1.475818 1_555
O42 Si3 1.672497 1_555
O42 Ta0 1.976470 1_545
O43 S3 1.496532 1_555
O43 Ta0 2.308954 1_445
O44 Si4 1.702119 1_555
O44 Ta0 1.956545 1_555
O45 S4 1.563811 1_555
O45 Ta1 2.026702 1_665
O46 Si5 1.670546 1_555
O46 Ta1 1.921799 1_655
O47 Si6 1.739523 1_555
O47 Ta1 1.888322 1_555
O48 Si2 1.577071 1_555
O49 S2 1.458963 1_555
O50 Si1 1.589705 1_555
O51 S0 1.464008 1_555
O52 S1 1.448948 1_555
O53 Si0 1.607599 1_555
O54 S5 1.512805 1_555
O54 Ta2 2.134800 1_555
O55 S6 1.535945 1_655
O55 Ta2 2.190026 1_555
O56 Si7 1.752524 1_545
O56 Ta2 1.902567 1_555
O57 S7 1.499700 1_545
O57 Ta3 2.366243 1_555
O58 Si8 1.682118 1_555
O58 Ta3 1.988330 1_555
O59 S8 1.525070 1_655
O59 Ta3 2.259401 1_555
O60 Si6 1.573234 1_555
O61 S4 1.459102 1_455
O62 Si5 1.593155 1_565
O63 S3 1.463442 1_565
O64 Si4 1.573049 1_555
O65 Si3 1.603670 1_455
O66 Si0 1.693411 1_565
O66 Ta4 1.926482 1_555
O67 S0 1.564799 1_555
O67 Ta4 2.067896 1_555
O68 S1 1.551842 1_455
O68 Ta4 2.132486 1_555
O69 S2 1.533015 1_555
O69 Ta5 2.167356 1_555
O70 Si1 1.707783 1_455
O70 Ta5 1.856289 1_555
O71 Si2 1.730481 1_565
O71 Ta5 1.899626 1_555
