# generated using pymatgen
data_MgV2S4(Br2N3)2
_symmetry_space_group_name_H-M   'P 1'
_cell_length_a   6.17051597
_cell_length_b   7.37147414
_cell_length_c   9.50927264
_cell_angle_alpha   82.05202263
_cell_angle_beta   84.40753935
_cell_angle_gamma   77.48218365
_symmetry_Int_Tables_number   1
_chemical_formula_structural   MgV2S4(Br2N3)2
_chemical_formula_sum   'Mg1 V2 S4 Br4 N6'
_cell_volume   417.17885404
_cell_formula_units_Z   1
loop_
 _symmetry_equiv_pos_site_id
 _symmetry_equiv_pos_as_xyz
  1  'x, y, z'
loop_
 _atom_site_type_symbol
 _atom_site_label
 _atom_site_symmetry_multiplicity
 _atom_site_fract_x
 _atom_site_fract_y
 _atom_site_fract_z
 _atom_site_occupancy
  Mg  Mg0  1  -0.00000000  0.50000000  -0.00000000  1
  V  V0  1  0.21065641  0.98640630  0.89545245  1
  V  V1  1  0.78934359  0.01359370  0.10454755  1
  S  S0  1  0.81492228  0.29481041  0.77676365  1
  S  S1  1  0.77597887  0.77936129  0.40205591  1
  S  S2  1  0.22402113  0.22063871  0.59794409  1
  S  S3  1  0.18507772  0.70518959  0.22323635  1
  Br  Br0  1  0.17599153  0.68588233  0.79230671  1
  Br  Br1  1  0.63319661  0.77290661  0.98304592  1
  Br  Br2  1  0.36680339  0.22709339  0.01695408  1
  Br  Br3  1  0.82400847  0.31411767  0.20769329  1
  N  N0  1  0.31419180  0.07318735  0.72515122  1
  N  N1  1  0.68580820  0.92681265  0.27484878  1
  N  N2  1  0.06918417  0.87078652  0.10656679  1
  N  N3  1  0.97074426  0.32660752  0.63437370  1
  N  N4  1  0.02925574  0.67339248  0.36562630  1
  N  N5  1  0.93081583  0.12921348  0.89343321  1
loop_
_geom_bond_atom_site_label_1
_geom_bond_atom_site_label_2
_geom_bond_distance
_geom_bond_site_symmetry_2
Br0 Mg0 2.536949 1_556
Br0 V0 2.600496 1_555
Br1 V1 2.633635 1_566
Br1 Mg0 2.683934 1_656
Br1 V0 2.872393 1_555
Br2 V0 2.633635 1_544
Br2 Mg0 2.683934 1_555
Br2 V1 2.872393 1_555
Br3 Mg0 2.536949 1_655
Br3 V1 2.600496 1_555
N0 S2 1.568332 1_555
N0 V0 1.768892 1_545
N1 S1 1.568332 1_555
N1 V1 1.768892 1_565
N2 S3 1.622977 1_555
N2 V1 1.817456 1_465
N2 V0 2.241976 1_554
N3 S0 1.602807 1_555
N3 S2 1.616416 1_655
N4 S3 1.602807 1_555
N4 S1 1.616416 1_455
N5 S0 1.622977 1_555
N5 V0 1.817456 1_645
N5 V1 2.241976 1_556
