# generated using pymatgen
data_Na5Zn2In2P3(SO8)3
_symmetry_space_group_name_H-M   'P 1'
_cell_length_a   9.01517030
_cell_length_b   8.98936661
_cell_length_c   22.61785808
_cell_angle_alpha   90.12926656
_cell_angle_beta   90.10070018
_cell_angle_gamma   120.03985565
_symmetry_Int_Tables_number   1
_chemical_formula_structural   Na5Zn2In2P3(SO8)3
_chemical_formula_sum   'Na15 Zn6 In6 P9 S9 O72'
_cell_volume   1586.74469634
_cell_formula_units_Z   3
loop_
 _symmetry_equiv_pos_site_id
 _symmetry_equiv_pos_as_xyz
  1  'x, y, z'
loop_
 _atom_site_type_symbol
 _atom_site_label
 _atom_site_symmetry_multiplicity
 _atom_site_fract_x
 _atom_site_fract_y
 _atom_site_fract_z
 _atom_site_occupancy
  Na  Na0  1  0.63737837  0.01169537  0.25271345  1
  Na  Na1  1  0.00092368  0.63282856  0.24396729  1
  Na  Na2  1  0.63216961  0.63208134  0.74469113  1
  Na  Na3  1  0.99544893  0.35551331  0.74604238  1
  Na  Na4  1  0.30393422  0.34421338  0.58543089  1
  Na  Na5  1  0.66854420  0.96552769  0.57929887  1
  Na  Na6  1  0.29797103  0.95947771  0.08088963  1
  Na  Na7  1  0.69385463  0.02717547  0.91132668  1
  Na  Na8  1  0.96351170  0.29130696  0.41432516  1
  Na  Na9  1  0.98506039  0.97492911  0.49571115  1
  Na  Na10  1  0.00627012  0.98918875  0.99607385  1
  Na  Na11  1  0.63825299  0.31429520  0.82966900  1
  Na  Na12  1  0.64309926  0.32055825  0.33086251  1
  Na  Na13  1  0.31893778  0.64158457  0.16264021  1
  Na  Na14  1  0.32823873  0.67053241  0.66334993  1
  Zn  Zn0  1  0.00414292  0.00627281  0.34686004  1
  Zn  Zn1  1  0.02360819  0.01087608  0.84893613  1
  Zn  Zn2  1  0.66390315  0.32903582  0.68164776  1
  Zn  Zn3  1  0.67088372  0.33561540  0.18241277  1
  Zn  Zn4  1  0.31264885  0.66409910  0.01589438  1
  Zn  Zn5  1  0.33981370  0.66908021  0.51570723  1
  In  In0  1  0.99690803  0.00022452  0.65195384  1
  In  In1  1  0.00383733  0.00266152  0.15145789  1
  In  In2  1  0.66832634  0.34214222  0.98465403  1
  In  In3  1  0.66885660  0.33424367  0.48461333  1
  In  In4  1  0.33509382  0.66993313  0.31844650  1
  In  In5  1  0.33647376  0.67465920  0.81853076  1
  P  P0  1  0.29914450  0.00484195  0.25062647  1
  P  P1  1  0.99932299  0.29705615  0.25209226  1
  P  P2  1  0.30114938  0.29839627  0.75023018  1
  P  P3  1  0.70358024  0.00214171  0.75266732  1
  P  P4  1  0.96856491  0.33934867  0.58458448  1
  P  P5  1  0.66683583  0.62872534  0.58524446  1
  P  P6  1  0.96387115  0.63000592  0.08615704  1
  P  P7  1  0.33169814  0.96668377  0.92034571  1
  P  P8  1  0.63473858  0.96447742  0.41835492  1
  S  S0  1  0.70442378  0.70334885  0.25117367  1
  S  S1  1  0.99951516  0.70470277  0.75127186  1
  S  S2  1  0.36907517  0.03524434  0.58408995  1
  S  S3  1  0.66710829  0.03371877  0.08360766  1
  S  S4  1  0.37264752  0.33832424  0.08433174  1
  S  S5  1  0.62931004  0.66765703  0.91753536  1
  S  S6  1  0.03627107  0.36762747  0.91672942  1
  S  S7  1  0.33353589  0.36842466  0.41818596  1
  S  S8  1  0.03799132  0.67043214  0.41749465  1
  O  O0  1  0.20649946  0.02228674  0.30405198  1
  O  O1  1  0.81245588  0.78540254  0.30344755  1
  O  O2  1  0.96900751  0.18859227  0.30828900  1
  O  O3  1  0.21194432  0.18669183  0.80318794  1
  O  O4  1  0.97534513  0.78801910  0.80338563  1
  O  O5  1  0.81530290  0.02490798  0.80766615  1
  O  O6  1  0.77727888  0.96366443  0.69546000  1
  O  O7  1  0.19497618  0.22611018  0.69148463  1
  O  O8  1  0.02963824  0.80615152  0.69646710  1
  O  O9  1  0.77718121  0.81110083  0.19704209  1
  O  O10  1  0.02485550  0.21419309  0.19616781  1
  O  O11  1  0.19073520  0.96368975  0.19233697  1
  O  O12  1  0.88245703  0.35679493  0.64071631  1
  O  O13  1  0.47808365  0.11640880  0.63635088  1
  O  O14  1  0.63852638  0.51984999  0.64119021  1
  O  O15  1  0.88036332  0.52890589  0.14302829  1
  O  O16  1  0.64139431  0.11715759  0.13628422  1
  O  O17  1  0.47524152  0.35710312  0.13712898  1
  O  O18  1  0.44491322  0.30051806  0.03034236  1
  O  O19  1  0.85566770  0.54806321  0.03000977  1
  O  O20  1  0.69141357  0.13589398  0.02860781  1
  O  O21  1  0.44161792  0.14321185  0.53009162  1
  O  O22  1  0.68914548  0.54506148  0.52893586  1
  O  O23  1  0.85457447  0.29925854  0.52803435  1
  O  O24  1  0.53747649  0.68722772  0.96816025  1
  O  O25  1  0.14462604  0.45514264  0.96826682  1
  O  O26  1  0.31330530  0.86472943  0.97734355  1
  O  O27  1  0.54543526  0.85996126  0.47398105  1
  O  O28  1  0.30935314  0.44898345  0.47195278  1
  O  O29  1  0.14416853  0.68679188  0.46890072  1
  O  O30  1  0.10793684  0.63567270  0.36157059  1
  O  O31  1  0.53091538  0.88669848  0.36007029  1
  O  O32  1  0.35775958  0.47352261  0.36452964  1
  O  O33  1  0.10922570  0.46517618  0.86065644  1
  O  O34  1  0.37211929  0.88619682  0.86580140  1
  O  O35  1  0.53151536  0.63915679  0.86061216  1
  O  O36  1  0.01937625  0.82286403  0.41163918  1
  O  O37  1  0.81735569  0.98820619  0.41364717  1
  O  O38  1  0.17539659  0.19750861  0.41279097  1
  O  O39  1  0.01097399  0.19143037  0.91319384  1
  O  O40  1  0.17181012  0.98370247  0.91257392  1
  O  O41  1  0.79889863  0.82784804  0.91309707  1
  O  O42  1  0.98695170  0.17279100  0.58703324  1
  O  O43  1  0.19692615  0.02079720  0.58939728  1
  O  O44  1  0.82769377  0.81365114  0.58806067  1
  O  O45  1  0.98990345  0.81760127  0.08760245  1
  O  O46  1  0.82295546  0.01726991  0.08821989  1
  O  O47  1  0.19798514  0.17728885  0.08746819  1
  O  O48  1  0.69370204  0.16794893  0.74573177  1
  O  O49  1  0.48538272  0.33033289  0.74495480  1
  O  O50  1  0.84274464  0.53156619  0.74613136  1
  O  O51  1  0.68826453  0.53215676  0.24467539  1
  O  O52  1  0.83723155  0.31696654  0.24618779  1
  O  O53  1  0.48204259  0.16141302  0.24420678  1
  O  O54  1  0.65104992  0.51405664  0.92113732  1
  O  O55  1  0.86043168  0.34837588  0.92090508  1
  O  O56  1  0.50395734  0.14700731  0.92330426  1
  O  O57  1  0.65703719  0.15099864  0.42062216  1
  O  O58  1  0.48866076  0.35019823  0.42159027  1
  O  O59  1  0.86451249  0.50832771  0.42079540  1
  O  O60  1  0.35511019  0.49181493  0.07684150  1
  O  O61  1  0.14691312  0.65254132  0.08115126  1
  O  O62  1  0.50989304  0.86168788  0.07848629  1
  O  O63  1  0.35390158  0.86440701  0.57739165  1
  O  O64  1  0.50491984  0.64999522  0.58008763  1
  O  O65  1  0.15029064  0.49659549  0.57756148  1
  O  O66  1  0.31845131  0.83862328  0.25457187  1
  O  O67  1  0.53133826  0.68843754  0.25569887  1
  O  O68  1  0.15996700  0.48236923  0.25605777  1
  O  O69  1  0.31047195  0.47968092  0.75509218  1
  O  O70  1  0.15009958  0.67686116  0.75566363  1
  O  O71  1  0.52353416  0.83490428  0.75537954  1
loop_
_geom_bond_atom_site_label_1
_geom_bond_atom_site_label_2
_geom_bond_distance
_geom_bond_site_symmetry_2
Na0 O53 2.386766 1_555
Na0 O52 2.418907 1_555
Na0 O66 2.492203 1_545
Na0 O67 2.565624 1_545
Na0 O31 2.649636 1_545
Na0 O16 2.794998 1_555
Na0 O2 2.874871 1_555
Na0 O9 2.948952 1_545
Na1 O68 2.429365 1_555
Na1 O52 2.459300 1_455
Na1 O51 2.492085 1_455
Na1 O15 2.496256 1_455
Na1 O66 2.523438 1_555
Na1 O30 2.823581 1_555
Na1 O11 2.839894 1_555
Na1 O1 2.985081 1_455
Na2 O49 2.348457 1_555
Na2 O71 2.475574 1_555
Na2 O50 2.477618 1_555
Na2 O69 2.523691 1_555
Na2 O14 2.559097 1_555
Na2 O35 2.786956 1_555
Na2 O6 2.819930 1_555
Na2 O4 2.988981 1_555
Na3 O48 2.377112 1_555
Na3 O69 2.485245 1_655
Na3 O70 2.509904 1_655
Na3 O50 2.565373 1_555
Na3 O12 2.591567 1_555
Na3 O33 2.776832 1_655
Na3 O7 2.864911 1_655
Na3 O5 2.933745 1_555
Na4 O65 2.393018 1_555
Na4 O64 2.422637 1_555
Na4 O42 2.476657 1_455
Na4 O43 2.566039 1_555
Na4 O7 2.611796 1_555
Na4 O28 2.728055 1_555
Na4 O14 2.896798 1_555
Na4 O21 2.934767 1_555
Na5 O44 2.433764 1_555
Na5 O64 2.456189 1_555
Na5 O63 2.508394 1_555
Na5 O42 2.526629 1_565
Na5 O27 2.594718 1_555
Na5 O6 2.805631 1_555
Na5 O23 2.853486 1_565
Na5 O13 2.963865 1_565
Na6 O61 2.388653 1_555
Na6 O45 2.412248 1_455
Na6 O62 2.471320 1_555
Na6 O26 2.517835 1_554
Na6 O47 2.536639 1_565
Na6 O11 2.708275 1_555
Na6 O18 2.900983 1_565
Na6 O16 2.957852 1_565
Na7 O41 2.410003 1_545
Na7 O56 2.451785 1_555
Na7 O39 2.475506 1_655
Na7 O55 2.508759 1_555
Na7 O5 2.593718 1_555
Na7 O34 2.717089 1_545
Na7 O20 2.828816 1_556
Na7 O24 2.947749 1_545
Na8 O37 2.359148 1_545
Na8 O57 2.399587 1_555
Na8 O38 2.444101 1_655
Na8 O59 2.523155 1_555
Na8 O2 2.577428 1_555
Na8 O23 2.768103 1_555
Na8 O30 2.947643 1_655
Na8 O28 2.996925 1_655
Na9 O37 2.432488 1_555
Na9 O36 2.448235 1_655
Na9 O44 2.538155 1_555
Na9 O38 2.656312 1_665
Na9 O42 2.717198 1_565
Na9 O43 2.738895 1_665
Na10 O40 2.424779 1_555
Na10 O41 2.526149 1_455
Na10 O45 2.544451 1_456
Na10 O39 2.599901 1_565
Na10 O47 2.676769 1_566
Na10 O46 2.750622 1_466
Na11 O49 2.404629 1_555
Na11 O48 2.497057 1_555
Na11 O56 2.532384 1_555
Na11 O50 2.684625 1_555
Na11 O54 2.700544 1_555
Na11 O55 2.780705 1_555
Na12 O53 2.427747 1_555
Na12 O58 2.568936 1_555
Na12 O57 2.581761 1_555
Na12 O52 2.607669 1_555
Na12 O51 2.613052 1_555
Na12 O59 2.750980 1_555
Na13 O61 2.440394 1_555
Na13 O60 2.472817 1_555
Na13 O68 2.556830 1_555
Na13 O62 2.668239 1_555
Na13 O67 2.729187 1_555
Na13 O66 2.729840 1_555
Na14 O65 2.499462 1_555
Na14 O64 2.533972 1_555
Na14 O63 2.546364 1_555
Na14 O71 2.642801 1_555
Na14 O69 2.648932 1_555
Na14 O70 2.654155 1_555
In0 O6 2.086497 1_545
In0 O7 2.113544 1_655
In0 O44 2.155958 1_545
In0 O8 2.160227 1_645
In0 O42 2.172508 1_555
In0 O43 2.227986 1_655
In1 O10 2.074671 1_555
In1 O11 2.098459 1_545
In1 O45 2.156034 1_445
In1 O9 2.167045 1_445
In1 O47 2.211491 1_555
In1 O46 2.220179 1_455
In2 O19 2.046117 1_556
In2 O18 2.125798 1_556
In2 O56 2.139524 1_555
In2 O54 2.174074 1_555
In2 O20 2.205232 1_556
In2 O55 2.234600 1_555
In3 O22 2.067276 1_555
In3 O23 2.095093 1_555
In3 O57 2.152342 1_555
In3 O21 2.167245 1_555
In3 O59 2.213407 1_555
In3 O58 2.217545 1_555
In4 O31 2.083645 1_555
In4 O32 2.148087 1_555
In4 O30 2.148686 1_555
In4 O68 2.154743 1_555
In4 O66 2.155487 1_555
In4 O67 2.210674 1_555
In5 O34 2.059179 1_555
In5 O71 2.131827 1_555
In5 O35 2.157967 1_555
In5 O69 2.182180 1_555
In5 O33 2.191676 1_555
In5 O70 2.206882 1_555
O0 P0 1.521892 1_555
O0 Zn0 2.007507 1_555
O1 S0 1.470804 1_555
O1 Zn0 2.107742 1_665
O2 P1 1.543032 1_555
O2 Zn0 2.018107 1_655
O3 P2 1.513295 1_555
O3 Zn1 1.943765 1_555
O4 S1 1.469038 1_555
O4 Zn1 2.092971 1_665
O5 P3 1.546554 1_555
O5 Zn1 2.155293 1_655
O6 P3 1.570464 1_565
O7 P2 1.572505 1_555
O8 S1 1.483332 1_455
O9 S0 1.496509 1_555
O10 P1 1.541501 1_455
O11 P0 1.568899 1_565
O12 P4 1.537367 1_555
O12 Zn2 2.077649 1_555
O13 S2 1.472902 1_555
O13 Zn2 2.070902 1_555
O14 P5 1.542996 1_555
O14 Zn2 2.056980 1_555
O15 P6 1.539795 1_555
O15 Zn3 2.026477 1_555
O16 S3 1.485552 1_555
O16 Zn3 2.117259 1_555
O17 S4 1.465895 1_555
O17 Zn3 2.129035 1_555
O18 S4 1.501227 1_555
O19 P6 1.542363 1_555
O20 S3 1.497910 1_555
O21 S2 1.494651 1_555
O22 P5 1.541465 1_555
O23 P4 1.563453 1_555
O24 S5 1.475024 1_555
O24 Zn4 2.214454 1_556
O25 S6 1.467769 1_555
O25 Zn4 2.029695 1_556
O26 P7 1.543814 1_555
O26 Zn4 2.002372 1_556
O27 P8 1.537983 1_555
O27 Zn5 2.024866 1_555
O28 S7 1.485213 1_555
O28 Zn5 2.101333 1_555
O29 S8 1.464277 1_555
O29 Zn5 2.128938 1_555
O30 S8 1.514421 1_555
O31 P8 1.561749 1_555
O32 S7 1.487485 1_555
O33 S6 1.496831 1_555
O34 P7 1.561974 1_555
O35 S5 1.506287 1_555
O36 S8 1.467755 1_555
O36 Zn0 2.262910 1_565
O37 P8 1.554460 1_555
O37 Zn0 2.209084 1_665
O38 S7 1.487776 1_555
O38 Zn0 2.210347 1_555
O39 S6 1.484875 1_555
O39 Zn1 2.221405 1_555
O40 P7 1.533625 1_555
O40 Zn1 2.058654 1_565
O41 S5 1.489332 1_555
O41 Zn1 2.366611 1_665
O42 P4 1.587804 1_555
O43 S2 1.496250 1_555
O44 P5 1.567189 1_555
O45 P6 1.582229 1_555
O46 S3 1.488050 1_555
O47 S4 1.516143 1_555
O48 P3 1.545327 1_555
O48 Zn2 2.160449 1_555
O49 P2 1.542297 1_555
O49 Zn2 2.160403 1_555
O50 S1 1.493187 1_555
O50 Zn2 2.254362 1_555
O51 S0 1.478348 1_555
O51 Zn3 2.200013 1_555
O52 P1 1.564127 1_555
O52 Zn3 2.145445 1_555
O53 P0 1.548884 1_555
O53 Zn3 2.157089 1_555
O54 S5 1.490962 1_555
O55 S6 1.509215 1_655
O56 P7 1.588250 1_545
O57 P8 1.586347 1_545
O58 S7 1.489160 1_555
O59 S8 1.514635 1_655
O60 S4 1.475422 1_555
O60 Zn4 2.246479 1_555
O61 P6 1.562990 1_455
O61 Zn4 2.067546 1_555
O62 S3 1.489255 1_565
O62 Zn4 2.266851 1_555
O63 S2 1.479408 1_565
O63 Zn5 2.193340 1_555
O64 P5 1.568383 1_555
O64 Zn5 2.148136 1_555
O65 P4 1.546182 1_455
O65 Zn5 2.155555 1_555
O66 P0 1.591171 1_565
O67 S0 1.501495 1_555
O68 P1 1.569681 1_455
O69 P2 1.592764 1_555
O70 S1 1.501747 1_455
O71 P3 1.567198 1_565
