# generated using pymatgen
data_Na2Al4SiS5O24
_symmetry_space_group_name_H-M   'P 1'
_cell_length_a   8.35657921
_cell_length_b   8.34373199
_cell_length_c   21.79336164
_cell_angle_alpha   89.55280767
_cell_angle_beta   90.24957146
_cell_angle_gamma   119.79083950
_symmetry_Int_Tables_number   1
_chemical_formula_structural   Na2Al4SiS5O24
_chemical_formula_sum   'Na6 Al12 Si3 S15 O72'
_cell_volume   1318.68761185
_cell_formula_units_Z   3
loop_
 _symmetry_equiv_pos_site_id
 _symmetry_equiv_pos_as_xyz
  1  'x, y, z'
loop_
 _atom_site_type_symbol
 _atom_site_label
 _atom_site_symmetry_multiplicity
 _atom_site_fract_x
 _atom_site_fract_y
 _atom_site_fract_z
 _atom_site_occupancy
  Na  Na0  1  0.99154548  0.98890669  0.50421660  1
  Na  Na1  1  0.99992677  0.99982957  0.99873133  1
  Na  Na2  1  0.66861651  0.32411287  0.82651647  1
  Na  Na3  1  0.65507457  0.32412190  0.33354830  1
  Na  Na4  1  0.33099498  0.67601262  0.17144836  1
  Na  Na5  1  0.35407393  0.67379973  0.66525145  1
  Al  Al0  1  0.01305065  0.00374189  0.35338236  1
  Al  Al1  1  0.99336109  0.00343000  0.84473022  1
  Al  Al2  1  0.97525548  0.98411593  0.64465905  1
  Al  Al3  1  0.00516388  0.99656072  0.15216601  1
  Al  Al4  1  0.66307634  0.33026970  0.68504001  1
  Al  Al5  1  0.65975990  0.32742489  0.19048728  1
  Al  Al6  1  0.66731020  0.33282543  0.97980807  1
  Al  Al7  1  0.66884607  0.34130836  0.48517754  1
  Al  Al8  1  0.33287294  0.66688253  0.01795593  1
  Al  Al9  1  0.34141509  0.66570306  0.52388130  1
  Al  Al10  1  0.33283176  0.67626478  0.31445498  1
  Al  Al11  1  0.33967557  0.67076781  0.80734207  1
  Si  Si0  1  0.28934577  0.99804200  0.25042338  1
  Si  Si1  1  0.71033796  0.00682269  0.74963716  1
  Si  Si2  1  0.66812780  0.61997827  0.58395415  1
  S  S0  1  0.71281087  0.71289742  0.25017916  1
  S  S1  1  0.00112625  0.28756464  0.24997467  1
  S  S2  1  0.28540147  0.28495498  0.74997226  1
  S  S3  1  0.00017825  0.71277666  0.75070825  1
  S  S4  1  0.95599949  0.33513773  0.58260887  1
  S  S5  1  0.37668780  0.04542365  0.58301946  1
  S  S6  1  0.95244396  0.61964629  0.08298572  1
  S  S7  1  0.66793983  0.04452694  0.08307705  1
  S  S8  1  0.37841238  0.33491630  0.08242129  1
  S  S9  1  0.62211411  0.66565978  0.91760382  1
  S  S10  1  0.04689431  0.37925924  0.91723830  1
  S  S11  1  0.33167117  0.95567473  0.91707391  1
  S  S12  1  0.62482978  0.95771836  0.41662116  1
  S  S13  1  0.33166113  0.37981436  0.41598530  1
  S  S14  1  0.04424840  0.66322612  0.41745406  1
  O  O0  1  0.19935059  0.03758915  0.30957252  1
  O  O1  1  0.82481635  0.79460555  0.30531523  1
  O  O2  1  0.95784870  0.16947148  0.30498869  1
  O  O3  1  0.20880144  0.17161506  0.80769132  1
  O  O4  1  0.97343544  0.79546310  0.80813048  1
  O  O5  1  0.82847038  0.04314181  0.81342020  1
  O  O6  1  0.80373120  0.96805026  0.69219179  1
  O  O7  1  0.17495244  0.20403574  0.69532798  1
  O  O8  1  0.04427426  0.83120754  0.69643607  1
  O  O9  1  0.78687784  0.82882160  0.19347934  1
  O  O10  1  0.02851605  0.20563526  0.19315744  1
  O  O11  1  0.16686197  0.95967886  0.18811982  1
  O  O12  1  0.87622579  0.36558701  0.63745891  1
  O  O13  1  0.49303056  0.11802427  0.63755266  1
  O  O14  1  0.63150092  0.49231491  0.64407746  1
  O  O15  1  0.87074838  0.50484524  0.13797634  1
  O  O16  1  0.63596235  0.12732554  0.13730007  1
  O  O17  1  0.49458492  0.36979794  0.13689504  1
  O  O18  1  0.46127307  0.30201730  0.02716696  1
  O  O19  1  0.83946875  0.53477415  0.02724821  1
  O  O20  1  0.69980476  0.15841154  0.02687910  1
  O  O21  1  0.45894460  0.15527883  0.52582231  1
  O  O22  1  0.70261419  0.53551395  0.52159110  1
  O  O23  1  0.83884366  0.29275570  0.52640810  1
  O  O24  1  0.53918070  0.69749370  0.97365800  1
  O  O25  1  0.15924068  0.46458037  0.97367042  1
  O  O26  1  0.30098273  0.84255139  0.97410007  1
  O  O27  1  0.54156674  0.84250734  0.47117859  1
  O  O28  1  0.30096077  0.46370397  0.47027797  1
  O  O29  1  0.16112987  0.69709567  0.47168232  1
  O  O30  1  0.12784432  0.63457475  0.36159525  1
  O  O31  1  0.51216213  0.87664659  0.36069125  1
  O  O32  1  0.36289171  0.49447708  0.35982679  1
  O  O33  1  0.12888689  0.49543780  0.86283845  1
  O  O34  1  0.36453474  0.87223788  0.86350336  1
  O  O35  1  0.50441253  0.62991915  0.86373369  1
  O  O36  1  0.02088733  0.82843865  0.41055994  1
  O  O37  1  0.80984002  0.97534341  0.40794989  1
  O  O38  1  0.16063491  0.19621059  0.41042467  1
  O  O39  1  0.03216188  0.19620586  0.91325367  1
  O  O40  1  0.16706366  0.97668203  0.91061126  1
  O  O41  1  0.80816211  0.82748505  0.91218582  1
  O  O42  1  0.98753591  0.17681714  0.58912099  1
  O  O43  1  0.19828852  0.03679882  0.59128491  1
  O  O44  1  0.85369738  0.82094330  0.58767060  1
  O  O45  1  0.96683358  0.80360925  0.08770365  1
  O  O46  1  0.83385400  0.02412031  0.09040467  1
  O  O47  1  0.19153827  0.17198607  0.08845535  1
  O  O48  1  0.68780494  0.18737480  0.74078503  1
  O  O49  1  0.47072865  0.30973096  0.74610862  1
  O  O50  1  0.83429582  0.53288284  0.74526524  1
  O  O51  1  0.70504440  0.53371535  0.24070444  1
  O  O52  1  0.84091718  0.31509839  0.24075737  1
  O  O53  1  0.49211000  0.18097672  0.24201817  1
  O  O54  1  0.63865270  0.49633082  0.92633881  1
  O  O55  1  0.86067067  0.36077108  0.92540994  1
  O  O56  1  0.49962132  0.14073124  0.92585260  1
  O  O57  1  0.64401508  0.14346831  0.42368285  1
  O  O58  1  0.49425762  0.35426145  0.42128920  1
  O  O59  1  0.86105609  0.49394155  0.42197922  1
  O  O60  1  0.36055371  0.50351800  0.07426906  1
  O  O61  1  0.13919347  0.63967024  0.07544323  1
  O  O62  1  0.50105585  0.85911778  0.07491617  1
  O  O63  1  0.34993525  0.85769958  0.57386961  1
  O  O64  1  0.48546544  0.64198054  0.57630475  1
  O  O65  1  0.13468837  0.50573917  0.57306982  1
  O  O66  1  0.31140418  0.81601816  0.25805521  1
  O  O67  1  0.52569888  0.68426338  0.25752558  1
  O  O68  1  0.16970105  0.46647260  0.25768390  1
  O  O69  1  0.29372063  0.46565876  0.75964246  1
  O  O70  1  0.16188032  0.68681406  0.76026506  1
  O  O71  1  0.50921638  0.82181760  0.75843960  1
loop_
_geom_bond_atom_site_label_1
_geom_bond_atom_site_label_2
_geom_bond_distance
_geom_bond_site_symmetry_2
Na0 O44 2.230053 1_555
Na0 O42 2.445646 1_565
Na0 O43 2.458114 1_665
Na0 O36 2.528256 1_655
Na0 O37 2.554439 1_555
Na0 O38 2.589961 1_665
Na1 O39 2.397002 1_665
Na1 O41 2.432997 1_555
Na1 O40 2.444037 1_655
Na1 O45 2.453955 1_556
Na1 O47 2.486334 1_666
Na1 O46 2.503701 1_566
Na2 O48 2.244076 1_555
Na2 O49 2.366563 1_555
Na2 O50 2.379798 1_555
Na2 O55 2.608958 1_555
Na2 O56 2.617245 1_555
Na2 O54 2.696518 1_555
Na3 O53 2.378530 1_555
Na3 O58 2.427211 1_555
Na3 O57 2.440516 1_555
Na3 O59 2.504974 1_555
Na3 O51 2.559922 1_555
Na3 O52 2.579307 1_555
Na4 O66 2.276191 1_555
Na4 O68 2.456545 1_555
Na4 O67 2.456670 1_555
Na4 O61 2.556617 1_555
Na4 O62 2.568652 1_555
Na4 O60 2.650131 1_555
Na5 O64 2.312978 1_555
Na5 O71 2.399118 1_555
Na5 O63 2.515191 1_555
Na5 O69 2.566121 1_555
Na5 O65 2.611630 1_555
Na5 O70 2.661715 1_555
Al0 O0 1.728267 1_555
Al0 O38 1.922277 1_555
Al0 O36 1.939715 1_545
Al0 O2 1.960637 1_455
Al0 O1 1.975682 1_445
Al0 O37 1.991841 1_445
Al1 O5 1.707635 1_555
Al1 O3 1.829372 1_655
Al1 O4 1.846151 1_545
Al1 O39 2.106529 1_655
Al1 O41 2.107125 1_545
Al1 O40 2.125327 1_645
Al2 O6 1.722036 1_555
Al2 O44 1.751891 1_555
Al2 O42 1.966577 1_565
Al2 O8 1.984114 1_655
Al2 O43 2.053487 1_665
Al2 O7 2.084243 1_665
Al3 O11 1.713101 1_555
Al3 O9 1.885385 1_455
Al3 O10 1.887810 1_565
Al3 O45 2.046233 1_455
Al3 O47 2.053735 1_565
Al3 O46 2.054123 1_465
Al4 O14 1.740183 1_555
Al4 O48 1.777684 1_555
Al4 O13 1.934343 1_555
Al4 O12 1.955644 1_555
Al4 O49 2.031166 1_555
Al4 O50 2.059754 1_555
Al5 O53 1.734437 1_555
Al5 O52 1.908161 1_555
Al5 O51 1.918886 1_555
Al5 O17 1.964373 1_555
Al5 O16 1.966949 1_555
Al5 O15 2.001829 1_555
Al6 O54 1.890443 1_555
Al6 O19 1.892966 1_556
Al6 O20 1.900211 1_556
Al6 O18 1.915034 1_556
Al6 O56 1.923157 1_555
Al6 O55 1.925806 1_555
Al7 O22 1.702599 1_555
Al7 O23 1.882728 1_555
Al7 O21 1.886079 1_555
Al7 O59 2.014461 1_555
Al7 O58 2.053169 1_555
Al7 O57 2.062952 1_555
Al8 O25 1.861597 1_554
Al8 O26 1.870009 1_554
Al8 O24 1.882181 1_554
Al8 O60 1.924145 1_555
Al8 O62 1.965905 1_555
Al8 O61 1.971996 1_555
Al9 O64 1.736304 1_555
Al9 O65 1.901995 1_555
Al9 O63 1.916095 1_555
Al9 O28 1.944416 1_555
Al9 O27 1.957417 1_555
Al9 O29 2.001251 1_555
Al10 O66 1.756628 1_555
Al10 O30 1.878415 1_555
Al10 O31 1.892071 1_555
Al10 O32 1.922110 1_555
Al10 O67 2.012611 1_555
Al10 O68 2.025130 1_555
Al11 O71 1.717378 1_555
Al11 O70 1.860176 1_555
Al11 O69 1.878338 1_555
Al11 O35 1.991632 1_555
Al11 O34 2.012436 1_555
Al11 O33 2.033725 1_555
O0 Si0 1.611771 1_545
O1 S0 1.467519 1_555
O2 S1 1.473222 1_655
O3 S2 1.507741 1_555
O4 S3 1.503696 1_655
O5 Si1 1.641936 1_555
O6 Si1 1.595868 1_565
O7 S2 1.452479 1_555
O8 S3 1.461137 1_555
O9 S0 1.496221 1_555
O10 S1 1.491336 1_555
O11 Si0 1.631827 1_555
O12 S4 1.455276 1_555
O13 S5 1.463071 1_555
O14 Si2 1.613353 1_555
O15 S6 1.469434 1_555
O16 S7 1.464253 1_555
O17 S8 1.466672 1_555
O18 S8 1.485311 1_555
O19 S6 1.485734 1_555
O20 S7 1.485622 1_555
O21 S5 1.493327 1_555
O22 Si2 1.626977 1_555
O23 S4 1.495319 1_555
O24 S9 1.496175 1_555
O25 S10 1.496733 1_555
O26 S11 1.498376 1_555
O27 S12 1.465143 1_555
O28 S13 1.466209 1_555
O29 S14 1.466777 1_555
O30 S14 1.484923 1_555
O31 S12 1.483162 1_555
O32 S13 1.489196 1_555
O33 S10 1.464182 1_555
O34 S11 1.458956 1_555
O35 S9 1.462400 1_555
O36 S14 1.491587 1_555
O37 S12 1.491244 1_555
O38 S13 1.493295 1_555
O39 S10 1.473303 1_555
O40 S11 1.476557 1_555
O41 S9 1.472206 1_555
O42 S4 1.475556 1_555
O43 S5 1.468219 1_555
O44 Si2 1.624868 1_555
O45 S6 1.483245 1_555
O46 S7 1.486280 1_555
O47 S8 1.481066 1_555
O48 Si1 1.618385 1_555
O49 S2 1.459807 1_555
O50 S3 1.456860 1_655
O51 S0 1.479966 1_555
O52 S1 1.479213 1_655
O53 Si0 1.631806 1_545
O54 S9 1.497011 1_555
O55 S10 1.496894 1_655
O56 S11 1.496471 1_545
O57 S12 1.485941 1_545
O58 S13 1.480246 1_555
O59 S14 1.482855 1_655
O60 S8 1.495765 1_555
O61 S6 1.494352 1_455
O62 S7 1.492674 1_565
O63 S5 1.483117 1_565
O64 Si2 1.633170 1_555
O65 S4 1.478230 1_455
O66 Si0 1.625498 1_555
O67 S0 1.469009 1_555
O68 S1 1.467419 1_555
O69 S2 1.491045 1_555
O70 S3 1.484575 1_555
O71 Si1 1.632347 1_565
