# generated using pymatgen
data_Na7Y3TaSi3(PO8)3
_symmetry_space_group_name_H-M   'P 1'
_cell_length_a   9.34825524
_cell_length_b   9.35156452
_cell_length_c   22.84445036
_cell_angle_alpha   89.96840782
_cell_angle_beta   89.96730621
_cell_angle_gamma   119.94007895
_symmetry_Int_Tables_number   1
_chemical_formula_structural   Na7Y3TaSi3(PO8)3
_chemical_formula_sum   'Na21 Y9 Ta3 Si9 P9 O72'
_cell_volume   1730.56462016
_cell_formula_units_Z   3
loop_
 _symmetry_equiv_pos_site_id
 _symmetry_equiv_pos_as_xyz
  1  'x, y, z'
loop_
 _atom_site_type_symbol
 _atom_site_label
 _atom_site_symmetry_multiplicity
 _atom_site_fract_x
 _atom_site_fract_y
 _atom_site_fract_z
 _atom_site_occupancy
  Na  Na0  1  0.63221946  -0.00003515  0.25335614  1
  Na  Na1  1  0.36856974  0.36947469  0.25362840  1
  Na  Na2  1  0.00145107  0.63355038  0.25857251  1
  Na  Na3  1  0.64929240  0.64560304  0.74259886  1
  Na  Na4  1  0.99518748  0.34475218  0.73790641  1
  Na  Na5  1  0.29641660  0.34512763  0.58281878  1
  Na  Na6  1  0.03516600  0.69668506  0.57986028  1
  Na  Na7  1  0.66850031  0.95765951  0.57547646  1
  Na  Na8  1  0.30652670  0.96622021  0.07983300  1
  Na  Na9  1  0.65273102  0.69774480  0.08153101  1
  Na  Na10  1  0.04588075  0.33546968  0.07345652  1
  Na  Na11  1  0.31792801  0.29950903  0.90792996  1
  Na  Na12  1  0.98606562  0.30873755  0.42051591  1
  Na  Na13  1  0.32781164  0.01836980  0.42118067  1
  Na  Na14  1  0.68879916  0.67634543  0.42035130  1
  Na  Na15  1  0.99450084  0.99889615  0.49933428  1
  Na  Na16  1  0.98385391  0.00170939  0.99571404  1
  Na  Na17  1  0.65602377  0.31912603  0.83038040  1
  Na  Na18  1  0.66355677  0.33082075  0.33798084  1
  Na  Na19  1  0.34356925  0.66619271  0.16567199  1
  Na  Na20  1  0.33505011  0.67134132  0.65841006  1
  Y  Y0  1  0.99973363  0.00075295  0.35047934  1
  Y  Y1  1  -0.00069195  0.99746401  0.85208609  1
  Y  Y2  1  0.00289873  0.00327813  0.65095912  1
  Y  Y3  1  0.00156895  0.00417968  0.14383709  1
  Y  Y4  1  0.65897077  0.32942860  0.68710791  1
  Y  Y5  1  0.66423333  0.33115816  0.18168186  1
  Y  Y6  1  0.33403154  0.66687192  0.01310651  1
  Y  Y7  1  0.33237767  0.66335885  0.51463088  1
  Y  Y8  1  0.33522309  0.66723802  0.32202734  1
  Ta  Ta0  1  0.66784524  0.32710619  0.97866196  1
  Ta  Ta1  1  0.67101936  0.33792129  0.48397831  1
  Ta  Ta2  1  0.32706508  0.66587661  0.81943977  1
  Si  Si0  1  0.30438657  0.31309182  0.75555341  1
  Si  Si1  1  0.96141368  0.33040403  0.58714565  1
  Si  Si2  1  0.67049738  0.63348770  0.58621020  1
  Si  Si3  1  0.66746253  0.03706475  0.08233931  1
  Si  Si4  1  0.37136098  0.33222644  0.08012971  1
  Si  Si5  1  0.02631582  0.36891647  0.92069091  1
  Si  Si6  1  0.63931493  0.98054637  0.41795677  1
  Si  Si7  1  0.34118588  0.36018340  0.41734531  1
  Si  Si8  1  0.02202048  0.66134385  0.41764239  1
  P  P0  1  0.30174251  0.99427168  0.24782724  1
  P  P1  1  0.69462822  0.69852335  0.24765241  1
  P  P2  1  0.00639636  0.30882390  0.24807583  1
  P  P3  1  0.01157601  0.69947454  0.75043396  1
  P  P4  1  0.68934683  0.98690900  0.75214320  1
  P  P5  1  0.37267807  0.04313845  0.58082012  1
  P  P6  1  0.95290629  0.62444357  0.07929787  1
  P  P7  1  0.62495498  0.65217085  0.91781633  1
  P  P8  1  0.34594854  0.97283409  0.91980862  1
  O  O0  1  0.20841036  0.00125728  0.30227630  1
  O  O1  1  0.79321462  0.79130582  0.30235943  1
  O  O2  1  0.99509263  0.20807235  0.30297278  1
  O  O3  1  0.21287040  0.20737481  0.81300703  1
  O  O4  1  0.97824785  0.78997812  0.79916001  1
  O  O5  1  0.80950993  0.01010089  0.80115810  1
  O  O6  1  0.75199359  0.94721705  0.69443587  1
  O  O7  1  0.18955869  0.23632600  0.69641319  1
  O  O8  1  0.03671850  0.78917436  0.69129443  1
  O  O9  1  0.78425745  0.79474851  0.19134933  1
  O  O10  1  0.01330654  0.21699961  0.19239213  1
  O  O11  1  0.20543289  0.98668246  0.19147849  1
  O  O12  1  0.87770985  0.34052096  0.64750072  1
  O  O13  1  0.47628463  0.12694537  0.63469497  1
  O  O14  1  0.65281073  0.53511419  0.64639988  1
  O  O15  1  0.88244565  0.53104965  0.13697967  1
  O  O16  1  0.65301400  0.11819320  0.14293006  1
  O  O17  1  0.47304959  0.35444680  0.14014531  1
  O  O18  1  0.48785319  0.32682704  0.02355274  1
  O  O19  1  0.83748227  0.51487395  0.02752189  1
  O  O20  1  0.67390774  0.16477033  0.02700871  1
  O  O21  1  0.46945456  0.14620304  0.52507458  1
  O  O22  1  0.66954119  0.51237274  0.53030754  1
  O  O23  1  0.83715830  0.32365242  0.53139697  1
  O  O24  1  0.55757687  0.67371592  0.97632601  1
  O  O25  1  0.12582811  0.44342121  0.98070006  1
  O  O26  1  0.32979806  0.88973299  0.97878475  1
  O  O27  1  0.55785680  0.85837449  0.47373839  1
  O  O28  1  0.29985889  0.44134941  0.47306790  1
  O  O29  1  0.14164133  0.69989181  0.47374461  1
  O  O30  1  0.09758729  0.62158122  0.35894660  1
  O  O31  1  0.52481041  0.90309295  0.35920310  1
  O  O32  1  0.37999987  0.47571514  0.35874636  1
  O  O33  1  0.14658339  0.50519494  0.86721958  1
  O  O34  1  0.35944061  0.86457361  0.86966188  1
  O  O35  1  0.49996759  0.64025260  0.86779622  1
  O  O36  1  0.97979459  0.80945002  0.41205690  1
  O  O37  1  0.82863709  0.01859286  0.41278420  1
  O  O38  1  0.18957388  0.17153893  0.41203474  1
  O  O39  1  0.01035906  0.19020336  0.91185279  1
  O  O40  1  0.20164026  0.00381304  0.91118776  1
  O  O41  1  0.79865083  0.79395140  0.90824093  1
  O  O42  1  0.97034927  0.15986696  0.58222758  1
  O  O43  1  0.20549489  0.04004705  0.58190335  1
  O  O44  1  0.84612245  0.80739226  0.58159340  1
  O  O45  1  0.95274953  0.78986755  0.07790158  1
  O  O46  1  0.83896045  0.03160610  0.07688680  1
  O  O47  1  0.19654794  0.15679761  0.07719363  1
  O  O48  1  0.67212219  0.14103825  0.74919959  1
  O  O49  1  0.49601381  0.35628025  0.75380011  1
  O  O50  1  0.87020894  0.51785235  0.74974842  1
  O  O51  1  0.67740813  0.52402579  0.24977490  1
  O  O52  1  0.85267794  0.33204604  0.24906091  1
  O  O53  1  0.47665212  0.15154681  0.24984645  1
  O  O54  1  0.61949638  0.48115110  0.91750128  1
  O  O55  1  0.84426560  0.36144373  0.92265172  1
  O  O56  1  0.50877166  0.14818932  0.91998225  1
  O  O57  1  0.65008520  0.16165368  0.42803464  1
  O  O58  1  0.51182515  0.35013063  0.42742320  1
  O  O59  1  0.84057333  0.48945593  0.42801480  1
  O  O60  1  0.34449543  0.49188306  0.07757803  1
  O  O61  1  0.13009533  0.65497760  0.07388987  1
  O  O62  1  0.50437637  0.85425403  0.07867709  1
  O  O63  1  0.34631309  0.86702607  0.57796030  1
  O  O64  1  0.51051970  0.65941546  0.58170166  1
  O  O65  1  0.14290766  0.49610752  0.58210516  1
  O  O66  1  0.31754983  0.83651592  0.24886994  1
  O  O67  1  0.52099926  0.68312859  0.24819047  1
  O  O68  1  0.16665482  0.48024822  0.24876844  1
  O  O69  1  0.31467648  0.50052114  0.76453750  1
  O  O70  1  0.17586182  0.69371184  0.76441134  1
  O  O71  1  0.51681706  0.82874344  0.76593545  1
loop_
_geom_bond_atom_site_label_1
_geom_bond_atom_site_label_2
_geom_bond_distance
_geom_bond_site_symmetry_2
Na0 O53 2.487673 1_555
Na0 O66 2.551922 1_545
Na0 O31 2.600482 1_545
Na0 O67 2.607550 1_545
Na0 O16 2.721331 1_555
Na0 O52 2.740782 1_555
Na1 O51 2.503276 1_555
Na1 O67 2.544933 1_555
Na1 O68 2.569081 1_555
Na1 O32 2.581082 1_555
Na1 O53 2.690192 1_555
Na1 O17 2.798047 1_555
Na2 O52 2.453170 1_455
Na2 O30 2.486059 1_555
Na2 O68 2.588524 1_555
Na2 O66 2.604581 1_555
Na2 O51 2.677615 1_455
Na2 O15 2.968873 1_455
Na3 O49 2.359665 1_555
Na3 O14 2.436087 1_555
Na3 O71 2.620767 1_555
Na3 O6 2.716654 1_555
Na3 O69 2.763682 1_555
Na3 O50 2.860386 1_555
Na3 O4 2.968352 1_555
Na4 O12 2.330723 1_555
Na4 O50 2.438544 1_555
Na4 O7 2.658260 1_655
Na4 O48 2.659382 1_555
Na4 O69 2.659421 1_655
Na5 O65 2.464858 1_555
Na5 O43 2.538096 1_555
Na5 O64 2.602459 1_555
Na5 O42 2.649852 1_455
Na5 O28 2.658059 1_555
Na5 O7 2.783295 1_555
Na6 O44 2.454121 1_455
Na6 O63 2.524797 1_555
Na6 O65 2.533993 1_555
Na6 O29 2.614485 1_555
Na6 O8 2.686742 1_555
Na6 O43 2.782916 1_565
Na7 O64 2.422371 1_555
Na7 O42 2.497298 1_565
Na7 O27 2.525882 1_555
Na7 O44 2.660917 1_555
Na7 O63 2.691591 1_555
Na7 O6 2.842903 1_555
Na8 O26 2.458493 1_554
Na8 O47 2.462884 1_565
Na8 O61 2.533611 1_555
Na8 O62 2.539865 1_555
Na8 O11 2.759164 1_555
Na8 O45 2.866229 1_455
Na9 O62 2.468987 1_555
Na9 O45 2.490573 1_555
Na9 O24 2.534040 1_554
Na9 O60 2.545676 1_555
Na9 O46 2.713601 1_565
Na9 O9 2.742468 1_555
Na10 O25 2.304439 1_554
Na10 O60 2.421913 1_555
Na10 O46 2.517027 1_455
Na10 O47 2.670573 1_555
Na10 O61 2.683182 1_555
Na10 O10 2.891592 1_555
Na11 O3 2.359863 1_555
Na11 O40 2.415126 1_555
Na11 O54 2.470185 1_555
Na11 O39 2.527009 1_555
Na11 O56 2.789485 1_555
Na12 O37 2.360935 1_555
Na12 O59 2.651371 1_555
Na12 O57 2.733692 1_555
Na12 O38 2.781960 1_655
Na12 O28 2.821091 1_655
Na12 O2 2.861028 1_555
Na12 O23 2.926351 1_555
Na12 O30 2.928050 1_655
Na13 O38 2.369174 1_555
Na13 O57 2.620600 1_555
Na13 O21 2.691108 1_555
Na13 O58 2.697846 1_555
Na13 O36 2.846291 1_445
Na13 O29 2.856685 1_545
Na13 O0 2.911263 1_555
Na13 O31 2.922087 1_545
Na14 O36 2.367389 1_555
Na14 O58 2.651559 1_555
Na14 O59 2.751970 1_555
Na14 O37 2.793761 1_565
Na14 O27 2.822054 1_555
Na14 O1 2.884504 1_555
Na14 O22 2.900517 1_555
Na14 O32 2.904345 1_555
Na15 O44 2.485192 1_555
Na15 O42 2.498962 1_565
Na15 O37 2.575956 1_565
Na15 O43 2.616077 1_665
Na15 O36 2.625619 1_555
Na15 O38 2.638710 1_665
Na16 O46 2.393147 1_556
Na16 O39 2.529520 1_655
Na16 O47 2.578800 1_656
Na16 O45 2.637142 1_546
Na16 O41 2.723216 1_545
Na16 O40 2.798116 1_655
Na17 O49 2.437170 1_555
Na17 O56 2.537067 1_555
Na17 O48 2.547303 1_555
Na17 O54 2.625339 1_555
Na17 O55 2.646976 1_555
Na17 O50 2.670841 1_555
Na18 O58 2.544058 1_555
Na18 O57 2.558897 1_555
Na18 O59 2.593500 1_555
Na18 O53 2.645936 1_555
Na18 O51 2.665264 1_555
Na18 O52 2.688444 1_555
Na19 O67 2.464038 1_555
Na19 O68 2.546478 1_555
Na19 O66 2.568656 1_555
Na19 O62 2.579935 1_555
Na19 O60 2.593235 1_555
Na19 O61 2.861076 1_555
Na20 O64 2.439969 1_555
Na20 O65 2.453335 1_555
Na20 O63 2.557577 1_555
Na20 O69 2.856118 1_555
Na20 O70 2.903336 1_555
Na20 O71 2.932537 1_555
O0 P0 1.538974 1_545
O0 Y0 2.237507 1_455
O1 P1 1.538959 1_555
O1 Y0 2.236562 1_565
O2 P2 1.539736 1_655
O2 Y0 2.240572 1_555
O3 Si0 1.607782 1_555
O3 Y1 2.172609 1_545
O4 P3 1.521929 1_655
O4 Y1 2.210653 1_655
O5 P4 1.523536 1_545
O5 Y1 2.174187 1_645
O6 P4 1.560540 1_555
O6 Y2 2.352046 1_665
O7 Si0 1.651186 1_555
O7 Y2 2.254165 1_555
O8 P3 1.544571 1_555
O8 Y2 2.363893 1_565
O9 P1 1.552744 1_555
O9 Y3 2.272537 1_665
O10 P2 1.554402 1_555
O10 Y3 2.233356 1_555
O11 P0 1.552513 1_555
O11 Y3 2.270830 1_565
O12 Si1 1.610923 1_555
O12 Y4 2.190163 1_555
O13 P5 1.520444 1_555
O13 Y4 2.170852 1_555
O14 Si2 1.615791 1_555
O14 Y4 2.162536 1_555
O15 P6 1.535094 1_555
O15 Y5 2.210784 1_555
O16 Si3 1.616470 1_555
O16 Y5 2.134136 1_555
O17 Si4 1.622089 1_555
O17 Y5 2.128907 1_555
O18 Si4 1.706546 1_555
O18 Ta0 1.968881 1_554
O19 P6 1.585043 1_555
O19 Ta0 2.017072 1_554
O20 Si3 1.718711 1_555
O20 Ta0 1.900459 1_554
O21 P5 1.579906 1_555
O21 Ta1 2.066458 1_555
O22 Si2 1.704492 1_555
O22 Ta1 1.950940 1_555
O23 Si1 1.704033 1_555
O23 Ta1 1.952439 1_555
O24 P7 1.532937 1_555
O24 Y6 2.222972 1_556
O25 Si5 1.608002 1_555
O25 Y6 2.155551 1_556
O26 P8 1.524261 1_555
O26 Y6 2.245073 1_556
O27 Si6 1.624153 1_555
O27 Y7 2.190959 1_555
O28 Si7 1.624500 1_555
O28 Y7 2.162587 1_555
O29 Si8 1.619491 1_555
O29 Y7 2.185864 1_555
O30 Si8 1.642225 1_555
O30 Y8 2.208911 1_555
O31 Si6 1.643384 1_555
O31 Y8 2.197474 1_555
O32 Si7 1.642401 1_555
O32 Y8 2.198579 1_555
O33 Si5 1.716620 1_555
O33 Ta2 1.939417 1_555
O34 P8 1.575369 1_555
O34 Ta2 2.074108 1_555
O35 P7 1.598440 1_555
O35 Ta2 2.068486 1_555
O36 Si8 1.623572 1_655
O36 Y0 2.208640 1_565
O37 Si6 1.626043 1_545
O37 Y0 2.208154 1_555
O38 Si7 1.624888 1_555
O38 Y0 2.203122 1_455
O39 Si5 1.614820 1_555
O39 Y1 2.222729 1_545
O40 P8 1.527398 1_545
O40 Y1 2.301069 1_545
O41 P7 1.514148 1_555
O41 Y1 2.284155 1_655
O42 Si1 1.641984 1_555
O42 Y2 2.268261 1_655
O43 P5 1.548828 1_555
O43 Y2 2.353668 1_555
O44 Si2 1.638848 1_555
O44 Y2 2.310974 1_665
O45 P6 1.548016 1_555
O45 Y3 2.363230 1_665
O46 Si3 1.633971 1_555
O46 Y3 2.259887 1_655
O47 Si4 1.640304 1_555
O47 Y3 2.252727 1_555
O48 P4 1.529546 1_545
O48 Y4 2.311818 1_555
O49 Si0 1.628335 1_555
O49 Y4 2.254881 1_555
O50 P3 1.546284 1_655
O50 Y4 2.363219 1_555
O51 P1 1.558464 1_555
O51 Y5 2.338697 1_555
O52 P2 1.556952 1_655
O52 Y5 2.336913 1_555
O53 P0 1.561571 1_545
O53 Y5 2.318399 1_555
O54 P7 1.574476 1_555
O54 Ta0 2.209081 1_555
O55 Si5 1.668648 1_655
O55 Ta0 1.982106 1_555
O56 P8 1.585699 1_545
O56 Ta0 2.080606 1_555
O57 Si6 1.661863 1_545
O57 Ta1 2.017262 1_555
O58 Si7 1.660278 1_555
O58 Ta1 2.017069 1_555
O59 Si8 1.671712 1_655
O59 Ta1 1.977004 1_555
O60 Si4 1.633968 1_555
O60 Y6 2.239177 1_555
O61 P6 1.538862 1_455
O61 Y6 2.315202 1_555
O62 Si3 1.628682 1_565
O62 Y6 2.251766 1_555
O63 P5 1.540240 1_565
O63 Y7 2.343737 1_555
O64 Si2 1.633418 1_555
O64 Y7 2.277370 1_555
O65 Si1 1.633506 1_455
O65 Y7 2.277806 1_555
O66 P0 1.554470 1_555
O66 Y8 2.363204 1_555
O67 P1 1.556324 1_555
O67 Y8 2.371095 1_555
O68 P2 1.554771 1_555
O68 Y8 2.365893 1_555
O69 Si0 1.719202 1_555
O69 Ta2 1.949654 1_555
O70 P3 1.595823 1_555
O70 Ta2 2.003727 1_555
O71 P4 1.583021 1_555
O71 Ta2 2.063711 1_555
