# generated using pymatgen
data_Sm4Cl6O
_symmetry_space_group_name_H-M   'P 1'
_cell_length_a   8.70726862
_cell_length_b   8.70726862
_cell_length_c   8.28342800
_cell_angle_alpha   90.00000000
_cell_angle_beta   90.00000000
_cell_angle_gamma   120.00000470
_symmetry_Int_Tables_number   1
_chemical_formula_structural   Sm4Cl6O
_chemical_formula_sum   'Sm8 Cl12 O2'
_cell_volume   543.88189000
_cell_formula_units_Z   2
loop_
 _symmetry_equiv_pos_site_id
 _symmetry_equiv_pos_as_xyz
  1  'x, y, z'
loop_
 _atom_site_type_symbol
 _atom_site_label
 _atom_site_symmetry_multiplicity
 _atom_site_fract_x
 _atom_site_fract_y
 _atom_site_fract_z
 _atom_site_occupancy
  Sm  Sm0  1  0.81530100  0.18469900  0.54619500  1
  Sm  Sm1  1  0.63060200  0.81530100  0.04619500  1
  Sm  Sm2  1  0.18469900  0.36939800  0.04619500  1
  Sm  Sm3  1  0.81530100  0.63060200  0.54619500  1
  Sm  Sm4  1  0.36939800  0.18469900  0.54619500  1
  Sm  Sm5  1  0.18469900  0.81530100  0.04619500  1
  Sm  Sm6  1  0.66666700  0.33333300  0.84637400  1
  Sm  Sm7  1  0.33333300  0.66666700  0.34637400  1
  Cl  Cl0  1  0.48251900  0.96503800  0.71289500  1
  Cl  Cl1  1  0.51748100  0.03496200  0.21289500  1
  Cl  Cl2  1  0.96503800  0.48251900  0.21289500  1
  Cl  Cl3  1  0.48251900  0.51748100  0.71289500  1
  Cl  Cl4  1  0.86277300  0.13722700  0.88975700  1
  Cl  Cl5  1  0.72554500  0.86277300  0.38975700  1
  Cl  Cl6  1  0.51748100  0.48251900  0.21289500  1
  Cl  Cl7  1  0.03496200  0.51748100  0.71289500  1
  Cl  Cl8  1  0.13722700  0.86277300  0.38975700  1
  Cl  Cl9  1  0.27445500  0.13722700  0.88975700  1
  Cl  Cl10  1  0.86277300  0.72554500  0.88975700  1
  Cl  Cl11  1  0.13722700  0.27445500  0.38975700  1
  O  O0  1  0.33333300  0.66666700  0.06338400  1
  O  O1  1  0.66666700  0.33333300  0.56338400  1
loop_
_geom_bond_atom_site_label_1
_geom_bond_atom_site_label_2
_geom_bond_distance
_geom_bond_site_symmetry_2
Cl0 Sm0 2.901559 1_565
Cl0 Sm4 2.901559 1_565
Cl0 Sm6 2.989210 1_565
Cl1 Sm5 2.901559 1_545
Cl1 Sm1 2.901559 1_545
Cl1 Sm7 2.989210 1_545
Cl2 Sm5 2.901559 1_655
Cl2 Sm2 2.901559 1_655
Cl2 Sm7 2.989210 1_655
Cl3 Sm3 2.901559 1_555
Cl3 Sm4 2.901559 1_555
Cl3 Sm6 2.989217 1_555
Cl4 Sm2 2.820754 1_656
Cl4 Sm1 2.820754 1_546
Cl4 Sm0 2.934546 1_555
Cl4 Sm6 2.979311 1_555
Cl5 Sm0 2.820752 1_565
Cl5 Sm3 2.820760 1_555
Cl5 Sm1 2.934544 1_555
Cl5 Sm7 2.979311 1_555
Cl6 Sm1 2.901559 1_555
Cl6 Sm2 2.901559 1_555
Cl6 Sm7 2.989217 1_555
Cl7 Sm0 2.901559 1_455
Cl7 Sm3 2.901559 1_455
Cl7 Sm6 2.989210 1_455
Cl8 Sm4 2.820754 1_565
Cl8 Sm3 2.820754 1_455
Cl8 Sm5 2.934546 1_555
Cl8 Sm7 2.979311 1_555
Cl9 Sm5 2.820752 1_546
Cl9 Sm2 2.820760 1_556
Cl9 Sm4 2.934544 1_555
Cl9 Sm6 2.979311 1_555
Cl10 Sm5 2.820752 1_656
Cl10 Sm1 2.820760 1_556
Cl10 Sm3 2.934544 1_555
Cl10 Sm6 2.979311 1_555
Cl11 Sm0 2.820752 1_455
Cl11 Sm4 2.820760 1_555
Cl11 Sm2 2.934544 1_555
Cl11 Sm7 2.979311 1_555
O0 Sm5 2.246131 1_555
O0 Sm1 2.246138 1_555
O0 Sm2 2.246138 1_555
O0 Sm7 2.344127 1_555
O1 Sm0 2.246131 1_555
O1 Sm4 2.246138 1_555
O1 Sm3 2.246138 1_555
O1 Sm6 2.344127 1_555
