# generated using pymatgen
data_Y2(Ga3Co)3
_symmetry_space_group_name_H-M   'P 1'
_cell_length_a   7.27438935
_cell_length_b   7.27438935
_cell_length_c   9.37938748
_cell_angle_alpha   90.00000000
_cell_angle_beta   90.00000000
_cell_angle_gamma   119.72327391
_symmetry_Int_Tables_number   1
_chemical_formula_structural   Y2(Ga3Co)3
_chemical_formula_sum   'Y4 Ga18 Co6'
_cell_volume   431.02501218
_cell_formula_units_Z   2
loop_
 _symmetry_equiv_pos_site_id
 _symmetry_equiv_pos_as_xyz
  1  'x, y, z'
loop_
 _atom_site_type_symbol
 _atom_site_label
 _atom_site_symmetry_multiplicity
 _atom_site_fract_x
 _atom_site_fract_y
 _atom_site_fract_z
 _atom_site_occupancy
  Y  Y0  1  0.66824401  0.99708297  0.75000000  1
  Y  Y1  1  0.33175599  0.00291703  0.25000000  1
  Y  Y2  1  0.99708297  0.66824401  0.75000000  1
  Y  Y3  1  0.00291703  0.33175599  0.25000000  1
  Ga  Ga0  1  0.99824658  0.66577908  0.07053668  1
  Ga  Ga1  1  0.66577908  0.99824658  0.42946332  1
  Ga  Ga2  1  0.99824658  0.66577908  0.42946332  1
  Ga  Ga3  1  0.00175342  0.33422092  0.92946332  1
  Ga  Ga4  1  0.66577908  0.99824658  0.07053668  1
  Ga  Ga5  1  0.33422092  0.00175342  0.92946332  1
  Ga  Ga6  1  0.66497504  0.66497504  0.55712061  1
  Ga  Ga7  1  0.33502496  0.33502496  0.05712061  1
  Ga  Ga8  1  0.66497504  0.66497504  0.94287939  1
  Ga  Ga9  1  0.33502496  0.33502496  0.44287939  1
  Ga  Ga10  1  0.12326150  0.12326150  0.75000000  1
  Ga  Ga11  1  0.87673850  0.87673850  0.25000000  1
  Ga  Ga12  1  0.66404138  0.45241402  0.25000000  1
  Ga  Ga13  1  0.33595862  0.54758598  0.75000000  1
  Ga  Ga14  1  0.45241402  0.66404138  0.25000000  1
  Ga  Ga15  1  0.54758598  0.33595862  0.75000000  1
  Ga  Ga16  1  0.33422092  0.00175342  0.57053668  1
  Ga  Ga17  1  0.00175342  0.33422092  0.57053668  1
  Co  Co0  1  0.67086268  0.32913732  0.00000000  1
  Co  Co1  1  0.32913732  0.67086268  0.50000000  1
  Co  Co2  1  0.32913732  0.67086268  0.00000000  1
  Co  Co3  1  0.67086268  0.32913732  0.50000000  1
  Co  Co4  1  -0.00000000  -0.00000000  0.00000000  1
  Co  Co5  1  -0.00000000  -0.00000000  0.50000000  1
loop_
_geom_bond_atom_site_label_1
_geom_bond_atom_site_label_2
_geom_bond_distance
_geom_bond_site_symmetry_2
Ga0 Ga8 2.701309 1_554
Ga0 Ga11 2.704569 1_555
Ga0 Ga12 2.722323 1_555
Ga0 Ga3 2.762183 1_654
Ga0 Ga5 2.788194 1_664
Ga0 Y3 2.969909 1_655
Ga0 Y1 2.972167 1_665
Ga0 Y2 3.006528 1_554
Ga1 Ga6 2.701309 1_555
Ga1 Ga11 2.704569 1_555
Ga1 Ga14 2.722323 1_555
Ga1 Ga16 2.762183 1_565
Ga1 Ga17 2.788194 1_665
Ga1 Y1 2.969909 1_565
Ga1 Y3 2.972167 1_665
Ga1 Y0 3.006528 1_555
Ga2 Ga6 2.701309 1_555
Ga2 Y3 2.969909 1_655
Ga2 Y1 2.972167 1_665
Ga2 Y2 3.006528 1_555
Ga3 Ga7 2.701309 1_556
Ga3 Ga4 2.788194 1_446
Ga3 Y2 2.969909 1_455
Ga3 Y0 2.972167 1_445
Ga3 Y3 3.006528 1_556
Ga4 Ga8 2.701309 1_554
Ga4 Ga5 2.762183 1_564
Ga4 Y1 2.969909 1_565
Ga4 Y3 2.972167 1_665
Ga4 Y0 3.006528 1_554
Ga5 Ga7 2.701309 1_556
Ga5 Y0 2.969909 1_545
Ga5 Y2 2.972167 1_445
Ga5 Y1 3.006528 1_556
Ga6 Ga9 2.637667 1_555
Ga6 Y2 3.008803 1_555
Ga6 Y0 3.008803 1_555
Ga7 Ga8 2.637667 1_554
Ga7 Y3 3.008803 1_555
Ga7 Y1 3.008803 1_555
Ga8 Y2 3.008803 1_555
Ga8 Y0 3.008803 1_555
Ga9 Y3 3.008803 1_555
Ga9 Y1 3.008803 1_555
Ga10 Ga15 2.680638 1_555
Ga10 Ga13 2.680638 1_555
Ga10 Ga16 2.704569 1_555
Ga10 Ga3 2.704569 1_555
Ga10 Ga17 2.704569 1_555
Ga10 Ga5 2.704569 1_555
Ga10 Y2 2.964074 1_445
Ga10 Y0 2.964074 1_445
Ga11 Ga12 2.680638 1_555
Ga11 Ga14 2.680638 1_555
Ga11 Ga2 2.704569 1_555
Ga11 Ga4 2.704569 1_555
Ga11 Y3 2.964074 1_665
Ga11 Y1 2.964074 1_665
Ga12 Ga14 2.662697 1_555
Ga12 Ga2 2.722323 1_555
Ga12 Ga9 2.775548 1_555
Ga12 Ga7 2.775548 1_555
Ga12 Y1 2.949054 1_555
Ga12 Y3 2.998784 1_655
Ga13 Ga15 2.662697 1_555
Ga13 Ga3 2.722323 1_555
Ga13 Ga17 2.722323 1_555
Ga13 Ga8 2.775548 1_555
Ga13 Ga6 2.775548 1_555
Ga13 Y0 2.949054 1_555
Ga13 Y2 2.998784 1_455
Ga14 Ga4 2.722323 1_555
Ga14 Ga9 2.775548 1_555
Ga14 Ga7 2.775548 1_555
Ga14 Y3 2.949054 1_555
Ga14 Y1 2.998784 1_565
Ga15 Ga16 2.722323 1_555
Ga15 Ga5 2.722323 1_555
Ga15 Ga8 2.775548 1_555
Ga15 Ga6 2.775548 1_555
Ga15 Y2 2.949054 1_555
Ga15 Y0 2.998784 1_545
Ga16 Ga9 2.701309 1_555
Ga16 Ga2 2.788194 1_445
Ga16 Y0 2.969909 1_545
Ga16 Y2 2.972167 1_445
Ga16 Y1 3.006528 1_555
Ga17 Ga9 2.701309 1_555
Ga17 Ga2 2.762183 1_455
Ga17 Y2 2.969909 1_455
Ga17 Y0 2.972167 1_445
Ga17 Y3 3.006528 1_555
Co0 Ga3 2.478828 1_654
Co0 Ga4 2.478828 1_545
Co0 Ga0 2.514578 1_555
Co0 Ga5 2.514578 1_554
Co0 Ga12 2.519738 1_555
Co0 Ga15 2.519738 1_554
Co0 Ga8 2.522091 1_554
Co0 Ga7 2.522091 1_555
Co1 Ga16 2.478828 1_565
Co1 Ga2 2.478828 1_455
Co1 Ga1 2.514578 1_555
Co1 Ga17 2.514578 1_555
Co1 Ga14 2.519738 1_555
Co1 Ga13 2.519738 1_555
Co1 Ga6 2.522091 1_555
Co1 Ga9 2.522091 1_555
Co2 Ga5 2.478828 1_564
Co2 Ga0 2.478828 1_455
Co2 Ga4 2.514578 1_555
Co2 Ga3 2.514578 1_554
Co2 Ga13 2.519738 1_554
Co2 Ga14 2.519738 1_555
Co2 Ga8 2.522091 1_554
Co2 Ga7 2.522091 1_555
Co3 Ga17 2.478828 1_655
Co3 Ga1 2.478828 1_545
Co3 Ga2 2.514578 1_555
Co3 Ga16 2.514578 1_555
Co3 Ga12 2.519738 1_555
Co3 Ga15 2.519738 1_555
Co3 Ga6 2.522091 1_555
Co3 Ga9 2.522091 1_555
Co4 Ga7 2.505246 1_555
Co4 Ga8 2.505246 1_444
Co4 Ga10 2.511778 1_554
Co4 Ga11 2.511778 1_445
Co4 Ga5 2.513584 1_554
Co4 Ga0 2.513584 1_445
Co4 Ga4 2.513584 1_445
Co4 Ga3 2.513584 1_554
Co5 Ga6 2.505246 1_445
Co5 Ga9 2.505246 1_555
Co5 Ga11 2.511778 1_445
Co5 Ga10 2.511778 1_555
Co5 Ga16 2.513584 1_555
Co5 Ga1 2.513584 1_445
Co5 Ga17 2.513584 1_555
Co5 Ga2 2.513584 1_445
