# generated using pymatgen
data_Ba(BH4)2
_symmetry_space_group_name_H-M   'P 1'
_cell_length_a   7.38356300
_cell_length_b   7.91012400
_cell_length_c   8.73774900
_cell_angle_alpha   90.00000000
_cell_angle_beta   90.00000000
_cell_angle_gamma   90.00000000
_symmetry_Int_Tables_number   1
_chemical_formula_structural   Ba(BH4)2
_chemical_formula_sum   'Ba4 B8 H32'
_cell_volume   510.32734689
_cell_formula_units_Z   4
loop_
 _symmetry_equiv_pos_site_id
 _symmetry_equiv_pos_as_xyz
  1  'x, y, z'
loop_
 _atom_site_type_symbol
 _atom_site_label
 _atom_site_symmetry_multiplicity
 _atom_site_fract_x
 _atom_site_fract_y
 _atom_site_fract_z
 _atom_site_occupancy
  Ba  Ba0  1  0.50000000  0.25000000  0.17100800  1
  Ba  Ba1  1  0.00000000  0.75000000  0.32899200  1
  Ba  Ba2  1  0.50000000  0.75000000  0.82899200  1
  Ba  Ba3  1  0.00000000  0.25000000  0.67100800  1
  B  B0  1  0.75920200  0.07736400  0.39064900  1
  B  B1  1  0.25920200  0.92263600  0.10935100  1
  B  B2  1  0.74079800  0.57736400  0.10935100  1
  B  B3  1  0.24079800  0.42263600  0.39064900  1
  B  B4  1  0.24079800  0.92263600  0.60935100  1
  B  B5  1  0.74079800  0.07736400  0.89064900  1
  B  B6  1  0.25920200  0.42263600  0.89064900  1
  B  B7  1  0.75920200  0.57736400  0.60935100  1
  H  H0  1  0.72469000  0.22247100  0.43157500  1
  H  H1  1  0.22469000  0.77752900  0.06842500  1
  H  H2  1  0.77531000  0.72247100  0.06842500  1
  H  H3  1  0.27531000  0.27752900  0.43157500  1
  H  H4  1  0.27531000  0.77752900  0.56842500  1
  H  H5  1  0.77531000  0.22247100  0.93157500  1
  H  H6  1  0.22469000  0.27752900  0.93157500  1
  H  H7  1  0.72469000  0.72247100  0.56842500  1
  H  H8  1  0.83818600  0.00360900  0.49460700  1
  H  H9  1  0.33818600  0.99639100  0.00539300  1
  H  H10  1  0.66181400  0.50360900  0.00539300  1
  H  H11  1  0.16181400  0.49639100  0.49460700  1
  H  H12  1  0.16181400  0.99639100  0.50539300  1
  H  H13  1  0.66181400  0.00360900  0.99460700  1
  H  H14  1  0.33818600  0.49639100  0.99460700  1
  H  H15  1  0.83818600  0.50360900  0.50539300  1
  H  H16  1  0.61870000  0.99963200  0.36643400  1
  H  H17  1  0.11870000  0.00036800  0.13356600  1
  H  H18  1  0.88130000  0.49963200  0.13356600  1
  H  H19  1  0.38130000  0.50036800  0.36643400  1
  H  H20  1  0.38130000  0.00036800  0.63356600  1
  H  H21  1  0.88130000  0.99963200  0.86643400  1
  H  H22  1  0.11870000  0.50036800  0.86643400  1
  H  H23  1  0.61870000  0.49963200  0.63356600  1
  H  H24  1  0.85364700  0.08296100  0.27473600  1
  H  H25  1  0.35364700  0.91703900  0.22526400  1
  H  H26  1  0.64635300  0.58296100  0.22526400  1
  H  H27  1  0.14635300  0.41703900  0.27473600  1
  H  H28  1  0.14635300  0.91703900  0.72526400  1
  H  H29  1  0.64635300  0.08296100  0.77473600  1
  H  H30  1  0.35364700  0.41703900  0.77473600  1
  H  H31  1  0.85364700  0.58296100  0.72526400  1
loop_
_geom_bond_atom_site_label_1
_geom_bond_atom_site_label_2
_geom_bond_distance
_geom_bond_site_symmetry_2
Ba0 H9 2.746983 1_545
Ba0 H10 2.746983 1_555
Ba0 H14 2.757127 1_554
Ba0 H13 2.757127 1_554
Ba0 H19 2.757919 1_555
Ba0 H16 2.757919 1_545
Ba0 H0 2.825494 1_555
Ba0 H3 2.825494 1_555
Ba0 H26 2.886029 1_555
Ba0 H25 2.886029 1_545
Ba0 H6 2.925145 1_554
Ba0 H5 2.925145 1_554
Ba0 H27 3.063582 1_555
Ba0 H24 3.063582 1_555
Ba1 H8 2.746983 1_465
Ba1 H11 2.746983 1_555
Ba1 H15 2.757127 1_455
Ba1 H12 2.757127 1_555
Ba1 H17 2.757919 1_565
Ba1 H18 2.757919 1_455
Ba1 H2 2.825494 1_455
Ba1 H1 2.825494 1_555
Ba1 H27 2.886029 1_555
Ba1 H24 2.886029 1_465
Ba1 H4 2.925145 1_555
Ba1 H7 2.925145 1_455
Ba1 H25 3.063582 1_555
Ba1 H26 3.063582 1_455
Ba2 H13 2.746983 1_565
Ba2 H14 2.746983 1_555
Ba2 H9 2.757127 1_556
Ba2 H10 2.757127 1_556
Ba2 H20 2.757919 1_565
Ba2 H23 2.757919 1_555
Ba2 H7 2.825494 1_555
Ba2 H4 2.825494 1_555
Ba2 H30 2.886029 1_555
Ba2 H29 2.886029 1_565
Ba2 H1 2.925145 1_556
Ba2 H2 2.925145 1_556
Ba2 H28 3.063582 1_555
Ba2 H31 3.063582 1_555
Ba3 H15 2.746983 1_455
Ba3 H12 2.746983 1_545
Ba3 H8 2.757127 1_455
Ba3 H11 2.757127 1_555
Ba3 H21 2.757919 1_445
Ba3 H22 2.757919 1_555
Ba3 H5 2.825494 1_455
Ba3 H6 2.825494 1_555
Ba3 H31 2.886029 1_455
Ba3 H28 2.886029 1_545
Ba3 H3 2.925145 1_555
Ba3 H0 2.925145 1_455
Ba3 H30 3.063582 1_555
Ba3 H29 3.063582 1_455
B0 H16 1.224354 1_545
B0 H8 1.227024 1_555
B0 H0 1.228939 1_555
B0 H24 1.230466 1_555
B1 H17 1.224354 1_565
B1 H9 1.227024 1_555
B1 H1 1.228939 1_555
B1 H25 1.230466 1_555
B2 H18 1.224354 1_555
B2 H10 1.227024 1_555
B2 H2 1.228939 1_555
B2 H26 1.230466 1_555
B3 H19 1.224354 1_555
B3 H11 1.227024 1_555
B3 H3 1.228939 1_555
B3 H27 1.230466 1_555
B4 H20 1.224354 1_565
B4 H12 1.227024 1_555
B4 H4 1.228939 1_555
B4 H28 1.230466 1_555
B5 H21 1.224354 1_545
B5 H13 1.227024 1_555
B5 H5 1.228939 1_555
B5 H29 1.230466 1_555
B6 H22 1.224354 1_555
B6 H14 1.227024 1_555
B6 H6 1.228939 1_555
B6 H30 1.230466 1_555
B7 H23 1.224354 1_555
B7 H15 1.227024 1_555
B7 H7 1.228939 1_555
B7 H31 1.230466 1_555
