# generated using pymatgen
data_BaNd2MgMn2O7
_symmetry_space_group_name_H-M   'P 1'
_cell_length_a   4.14793092
_cell_length_b   4.14795626
_cell_length_c   12.02850369
_cell_angle_alpha   100.00118681
_cell_angle_beta   99.99493980
_cell_angle_gamma   89.99662776
_symmetry_Int_Tables_number   1
_chemical_formula_structural   BaNd2MgMn2O7
_chemical_formula_sum   'Ba1 Nd2 Mg1 Mn2 O7'
_cell_volume   200.62098460
_cell_formula_units_Z   1
loop_
 _symmetry_equiv_pos_site_id
 _symmetry_equiv_pos_as_xyz
  1  'x, y, z'
loop_
 _atom_site_type_symbol
 _atom_site_label
 _atom_site_symmetry_multiplicity
 _atom_site_fract_x
 _atom_site_fract_y
 _atom_site_fract_z
 _atom_site_occupancy
  Ba  Ba0  1  0.49999700  0.49999200  0.99999300  1
  Nd  Nd0  1  0.33718600  0.33785200  0.67592700  1
  Nd  Nd1  1  0.66210600  0.66295300  0.32407500  1
  Mg  Mg0  1  0.25063500  0.74928000  0.50000000  1
  Mn  Mn0  1  0.90996900  0.91009300  0.82013400  1
  Mn  Mn1  1  0.08991300  0.09006600  0.17987700  1
  O  O0  1  0.89102500  0.39118800  0.78255700  1
  O  O1  1  0.38103700  0.88130500  0.76228000  1
  O  O2  1  0.11868400  0.61898600  0.23771600  1
  O  O3  1  0.60880200  0.10902700  0.21744200  1
  O  O4  1  0.76328500  0.76253500  0.52528300  1
  O  O5  1  0.99992000  0.00008000  0.00000100  1
  O  O6  1  0.23744100  0.23664100  0.47471400  1
loop_
_geom_bond_atom_site_label_1
_geom_bond_atom_site_label_2
_geom_bond_distance
_geom_bond_site_symmetry_2
Ba0 O5 2.932469 1_556
Ba0 O5 2.933117 1_456
Ba0 O5 2.933134 1_566
Ba0 O5 2.933437 1_466
Nd0 O1 2.305358 1_555
Nd0 O1 2.305605 1_545
Nd0 O6 2.346218 1_555
Nd0 O0 2.417484 1_455
Nd0 O0 2.418726 1_555
Nd1 O2 2.305350 1_555
Nd1 O2 2.305652 1_655
Nd1 O4 2.346162 1_555
Nd1 O3 2.417326 1_565
Nd1 O3 2.418942 1_555
Mg0 O6 2.094443 1_555
Mg0 O4 2.094510 1_555
Mg0 O4 2.095120 1_455
Mg0 O6 2.095221 1_565
Mn0 O5 2.097311 1_566
Mn0 O0 2.119683 1_555
Mn0 O0 2.119831 1_565
Mn0 O1 2.180193 1_555
Mn0 O1 2.181649 1_655
Mn1 O5 2.097415 1_455
Mn1 O3 2.119648 1_555
Mn1 O3 2.119783 1_455
Mn1 O2 2.180063 1_555
Mn1 O2 2.181695 1_545
