# generated using pymatgen
data_NaSc2P(SO6)2
_symmetry_space_group_name_H-M   'P 1'
_cell_length_a   8.82881518
_cell_length_b   8.82875914
_cell_length_c   23.13403600
_cell_angle_alpha   90.00313273
_cell_angle_beta   90.00000000
_cell_angle_gamma   120.00020996
_symmetry_Int_Tables_number   1
_chemical_formula_structural   NaSc2P(SO6)2
_chemical_formula_sum   'Na6 Sc12 P6 S12 O72'
_cell_volume   1561.64823087
_cell_formula_units_Z   6
loop_
 _symmetry_equiv_pos_site_id
 _symmetry_equiv_pos_as_xyz
  1  'x, y, z'
loop_
 _atom_site_type_symbol
 _atom_site_label
 _atom_site_symmetry_multiplicity
 _atom_site_fract_x
 _atom_site_fract_y
 _atom_site_fract_z
 _atom_site_occupancy
  Na  Na0  1  0.99329418  0.99570377  0.49996349  1
  Na  Na1  1  0.00240960  0.99570377  0.99996349  1
  Na  Na2  1  0.66381856  0.32615356  0.83334209  1
  Na  Na3  1  0.66233600  0.32615356  0.33334209  1
  Na  Na4  1  0.32863852  0.66856854  0.16667921  1
  Na  Na5  1  0.33992903  0.66856854  0.66667921  1
  Sc  Sc0  1  0.00225244  0.00195037  0.35210032  1
  Sc  Sc1  1  0.99969793  0.00195037  0.85210032  1
  Sc  Sc2  1  0.98427229  0.99124083  0.64770613  1
  Sc  Sc3  1  0.00696854  0.99124083  0.14770613  1
  Sc  Sc4  1  0.66468380  0.33372501  0.68548695  1
  Sc  Sc5  1  0.66904220  0.33372501  0.18548695  1
  Sc  Sc6  1  0.66754613  0.33535814  0.98118452  1
  Sc  Sc7  1  0.66781301  0.33535814  0.48118452  1
  Sc  Sc8  1  0.32382777  0.67313941  0.01890220  1
  Sc  Sc9  1  0.34931065  0.67313941  0.51890220  1
  Sc  Sc10  1  0.33906227  0.68220705  0.31446011  1
  Sc  Sc11  1  0.34314378  0.68220705  0.81446011  1
  P  P0  1  0.29283745  0.00224530  0.25047727  1
  P  P1  1  0.70940785  0.00224530  0.75047727  1
  P  P2  1  0.66674924  0.62218187  0.58332735  1
  P  P3  1  0.95543363  0.62218187  0.08332735  1
  P  P4  1  0.33336030  0.96120924  0.91662200  1
  P  P5  1  0.62784794  0.96120924  0.41662200  1
  S  S0  1  0.70820153  0.70806937  0.25004705  1
  S  S1  1  0.00142217  0.29175180  0.24976919  1
  S  S2  1  0.29032963  0.29175180  0.74976919  1
  S  S3  1  0.99986784  0.70806937  0.75004705  1
  S  S4  1  0.95959900  0.33508419  0.58321136  1
  S  S5  1  0.37350741  0.04198561  0.58341174  1
  S  S6  1  0.66847920  0.04198561  0.08341174  1
  S  S7  1  0.37548619  0.33508419  0.08321136  1
  S  S8  1  0.62403536  0.66651885  0.91704945  1
  S  S9  1  0.04273601  0.37595238  0.91625166  1
  S  S10  1  0.33321537  0.37595238  0.41625166  1
  S  S11  1  0.04248249  0.66651885  0.41704945  1
  O  O0  1  0.20532699  0.02842177  0.30430869  1
  O  O1  1  0.81620676  0.78844448  0.30217554  1
  O  O2  1  0.97142101  0.18299877  0.30216112  1
  O  O3  1  0.21157777  0.18299877  0.80216112  1
  O  O4  1  0.97223772  0.78844448  0.80217554  1
  O  O5  1  0.82309478  0.02842177  0.80430869  1
  O  O6  1  0.79380756  0.97199614  0.69620552  1
  O  O7  1  0.18363545  0.21004650  0.69743600  1
  O  O8  1  0.03025705  0.81731823  0.69777172  1
  O  O9  1  0.78706118  0.81731823  0.19777172  1
  O  O10  1  0.02641105  0.21004650  0.19743600  1
  O  O11  1  0.17818858  0.97199614  0.19620552  1
  O  O12  1  0.87808304  0.36096125  0.63555258  1
  O  O13  1  0.48347897  0.12093706  0.63552364  1
  O  O14  1  0.63896234  0.50967964  0.63766025  1
  O  O15  1  0.87071830  0.50967964  0.13766025  1
  O  O16  1  0.63745909  0.12093706  0.13552364  1
  O  O17  1  0.48287921  0.36096125  0.13555258  1
  O  O18  1  0.45435615  0.30417509  0.03115144  1
  O  O19  1  0.84304221  0.53748540  0.02901970  1
  O  O20  1  0.69427473  0.14943767  0.03116279  1
  O  O21  1  0.45516393  0.14943767  0.53116279  1
  O  O22  1  0.69444419  0.53748540  0.52901970  1
  O  O23  1  0.84981994  0.30417509  0.53115144  1
  O  O24  1  0.54340890  0.69322950  0.96924906  1
  O  O25  1  0.15086284  0.45450028  0.96887597  1
  O  O26  1  0.30467126  0.84535847  0.97047094  1
  O  O27  1  0.54068621  0.84535847  0.47047094  1
  O  O28  1  0.30363644  0.45450028  0.46887597  1
  O  O29  1  0.14981960  0.69322950  0.46924906  1
  O  O30  1  0.12107470  0.63699851  0.36451037  1
  O  O31  1  0.51198751  0.87387685  0.36285461  1
  O  O32  1  0.35993056  0.48308844  0.36412462  1
  O  O33  1  0.12315688  0.48308844  0.86412462  1
  O  O34  1  0.36188835  0.87387685  0.86285461  1
  O  O35  1  0.51592281  0.63699851  0.86451037  1
  O  O36  1  0.02416717  0.82369882  0.41021839  1
  O  O37  1  0.80938892  0.97757580  0.40914213  1
  O  O38  1  0.17601110  0.19979403  0.41050076  1
  O  O39  1  0.02378293  0.19979403  0.91050076  1
  O  O40  1  0.16818688  0.97757580  0.90914213  1
  O  O41  1  0.79953165  0.82369882  0.91021839  1
  O  O42  1  0.97876137  0.17787736  0.58976070  1
  O  O43  1  0.19982342  0.02552883  0.59037301  1
  O  O44  1  0.83123725  0.80645100  0.58957991  1
  O  O45  1  0.97521375  0.80645100  0.08957991  1
  O  O46  1  0.82570541  0.02552883  0.09037301  1
  O  O47  1  0.19911599  0.17787736  0.08976070  1
  O  O48  1  0.68933813  0.16509420  0.74263428  1
  O  O49  1  0.46642947  0.30952453  0.74378850  1
  O  O50  1  0.84230289  0.53335792  0.74352833  1
  O  O51  1  0.69105603  0.53335792  0.24352833  1
  O  O52  1  0.84309606  0.30952453  0.24378850  1
  O  O53  1  0.47575707  0.16509420  0.24263428  1
  O  O54  1  0.64287133  0.50935838  0.92287848  1
  O  O55  1  0.86720081  0.35746592  0.92309547  1
  O  O56  1  0.49841972  0.14271555  0.92418057  1
  O  O57  1  0.64429683  0.14271555  0.42418057  1
  O  O58  1  0.49026611  0.35746592  0.42309547  1
  O  O59  1  0.86648805  0.50935838  0.42287848  1
  O  O60  1  0.35889197  0.49241369  0.07629289  1
  O  O61  1  0.13977850  0.64190091  0.07714535  1
  O  O62  1  0.51114427  0.86564496  0.07688017  1
  O  O63  1  0.35449970  0.86564496  0.57688017  1
  O  O64  1  0.50212141  0.64190091  0.57714535  1
  O  O65  1  0.13352072  0.49241369  0.57629289  1
  O  O66  1  0.30892437  0.83546229  0.25634059  1
  O  O67  1  0.53188219  0.68781009  0.25644503  1
  O  O68  1  0.15831173  0.46632636  0.25700877  1
  O  O69  1  0.30801364  0.46632636  0.75700877  1
  O  O70  1  0.15592691  0.68781009  0.75644503  1
  O  O71  1  0.52653692  0.83546229  0.75634059  1
loop_
_geom_bond_atom_site_label_1
_geom_bond_atom_site_label_2
_geom_bond_distance
_geom_bond_site_symmetry_2
Na0 O44 2.597451 1_555
Na0 O37 2.610838 1_555
Na0 O36 2.665420 1_655
Na0 O42 2.669229 1_565
Na0 O38 2.688140 1_665
Na0 O43 2.699719 1_665
Na1 O45 2.597451 1_456
Na1 O40 2.610838 1_555
Na1 O41 2.665420 1_455
Na1 O47 2.669229 1_566
Na1 O39 2.688140 1_565
Na1 O46 2.699719 1_466
Na2 O48 2.606954 1_555
Na2 O56 2.608988 1_555
Na2 O49 2.663607 1_555
Na2 O55 2.667487 1_555
Na2 O54 2.690655 1_555
Na2 O50 2.695267 1_555
Na3 O53 2.606954 1_555
Na3 O57 2.608988 1_555
Na3 O52 2.663607 1_555
Na3 O58 2.667487 1_555
Na3 O59 2.690655 1_555
Na3 O51 2.695267 1_555
Na4 O61 2.594852 1_555
Na4 O66 2.599990 1_555
Na4 O68 2.670515 1_555
Na4 O62 2.671358 1_555
Na4 O67 2.693756 1_555
Na4 O60 2.697668 1_555
Na5 O64 2.594851 1_555
Na5 O71 2.599990 1_555
Na5 O69 2.670515 1_555
Na5 O63 2.671358 1_555
Na5 O70 2.693756 1_555
Na5 O65 2.697668 1_555
O0 P0 1.542639 1_555
O0 Sc0 2.018050 1_555
O1 S0 1.479988 1_555
O1 Sc0 2.118648 1_665
O2 S1 1.485562 1_655
O2 Sc0 2.097402 1_655
O3 S2 1.485562 1_555
O3 Sc1 2.097402 1_455
O4 S3 1.479988 1_555
O4 Sc1 2.118648 1_565
O5 P1 1.542639 1_555
O5 Sc1 2.018050 1_555
O6 P1 1.549799 1_565
O6 Sc2 1.956971 1_555
O7 S2 1.481156 1_555
O7 Sc2 2.180125 1_445
O8 S3 1.485311 1_455
O8 Sc2 2.118426 1_455
O9 S0 1.485311 1_555
O9 Sc3 2.118426 1_655
O10 S1 1.481156 1_555
O10 Sc3 2.180125 1_545
O11 P0 1.549799 1_565
O11 Sc3 1.956971 1_555
O12 S4 1.483486 1_555
O12 Sc4 2.118713 1_555
O13 S5 1.484943 1_555
O13 Sc4 2.102142 1_555
O14 P2 1.543730 1_555
O14 Sc4 2.010461 1_555
O15 P3 1.543730 1_555
O15 Sc5 2.010461 1_555
O16 S6 1.484943 1_555
O16 Sc5 2.102142 1_555
O17 S7 1.483486 1_555
O17 Sc5 2.118713 1_555
O18 S7 1.483172 1_555
O18 Sc6 2.106314 1_554
O19 P3 1.542759 1_555
O19 Sc6 2.011131 1_554
O20 S6 1.482206 1_555
O20 Sc6 2.115276 1_554
O21 S5 1.482206 1_555
O21 Sc7 2.115276 1_555
O22 P2 1.542759 1_555
O22 Sc7 2.011131 1_555
O23 S4 1.483172 1_555
O23 Sc7 2.106314 1_555
O24 S8 1.479333 1_555
O24 Sc8 2.182982 1_556
O25 S9 1.487352 1_555
O25 Sc8 2.109368 1_556
O26 P4 1.550244 1_555
O26 Sc8 1.962939 1_556
O27 P5 1.550244 1_555
O27 Sc9 1.962939 1_555
O28 S10 1.487352 1_555
O28 Sc9 2.109368 1_555
O29 S11 1.479333 1_555
O29 Sc9 2.182983 1_555
O30 S11 1.485765 1_555
O30 Sc10 2.106138 1_555
O31 P5 1.548939 1_555
O31 Sc10 1.965734 1_555
O32 S10 1.477010 1_555
O32 Sc10 2.183709 1_555
O33 S9 1.477010 1_555
O33 Sc11 2.183709 1_555
O34 P4 1.548939 1_555
O34 Sc11 1.965734 1_555
O35 S8 1.485765 1_555
O35 Sc11 2.106138 1_555
O36 S11 1.483666 1_555
O36 Sc0 2.150932 1_565
O37 P5 1.545370 1_555
O37 Sc0 2.078618 1_665
O38 S10 1.484672 1_555
O38 Sc0 2.133036 1_555
O39 S9 1.484676 1_555
O39 Sc1 2.133036 1_455
O40 P4 1.545361 1_555
O40 Sc1 2.078618 1_465
O41 S8 1.483671 1_555
O41 Sc1 2.150932 1_565
O42 S4 1.487547 1_555
O42 Sc2 2.143571 1_545
O43 S5 1.475005 1_555
O43 Sc2 2.212786 1_445
O44 P2 1.553696 1_555
O44 Sc2 2.022584 1_555
O45 P3 1.553700 1_555
O45 Sc3 2.022584 1_655
O46 S6 1.474996 1_555
O46 Sc3 2.212786 1_645
O47 S7 1.487552 1_555
O47 Sc3 2.143571 1_545
O48 P1 1.544746 1_555
O48 Sc4 2.082307 1_555
O49 S2 1.488981 1_555
O49 Sc4 2.134140 1_555
O50 S3 1.480333 1_555
O50 Sc4 2.145770 1_555
O51 S0 1.480337 1_555
O51 Sc5 2.145770 1_555
O52 S1 1.488972 1_655
O52 Sc5 2.134140 1_555
O53 P0 1.544752 1_555
O53 Sc5 2.082307 1_555
O54 S8 1.483864 1_555
O54 Sc6 2.135810 1_555
O55 S9 1.483423 1_655
O55 Sc6 2.146421 1_555
O56 P4 1.544949 1_545
O56 Sc6 2.078821 1_555
O57 P5 1.544941 1_545
O57 Sc7 2.078821 1_555
O58 S10 1.483441 1_555
O58 Sc7 2.146421 1_555
O59 S11 1.483854 1_655
O59 Sc7 2.135810 1_555
O60 S7 1.476481 1_555
O60 Sc8 2.213288 1_555
O61 P3 1.554453 1_455
O61 Sc8 2.020855 1_555
O62 S6 1.487805 1_565
O62 Sc8 2.147456 1_555
O63 S5 1.487797 1_565
O63 Sc9 2.147456 1_555
O64 P2 1.554471 1_555
O64 Sc9 2.020855 1_555
O65 S4 1.476471 1_455
O65 Sc9 2.213288 1_555
O66 P0 1.554332 1_565
O66 Sc10 2.017316 1_555
O67 S0 1.482819 1_555
O67 Sc10 2.148861 1_555
O68 S1 1.478946 1_555
O68 Sc10 2.214476 1_555
O69 S2 1.478950 1_555
O69 Sc11 2.214476 1_555
O70 S3 1.482810 1_455
O70 Sc11 2.148861 1_555
O71 P1 1.554337 1_565
O71 Sc11 2.017316 1_555
