# generated using pymatgen
data_TaZnP(SO6)2
_symmetry_space_group_name_H-M   'P 1'
_cell_length_a   8.73081900
_cell_length_b   8.74049088
_cell_length_c   22.48414423
_cell_angle_alpha   89.88147947
_cell_angle_beta   90.00000000
_cell_angle_gamma   119.96340202
_symmetry_Int_Tables_number   1
_chemical_formula_structural   TaZnP(SO6)2
_chemical_formula_sum   'Ta6 Zn6 P6 S12 O72'
_cell_volume   1486.47157420
_cell_formula_units_Z   6
loop_
 _symmetry_equiv_pos_site_id
 _symmetry_equiv_pos_as_xyz
  1  'x, y, z'
loop_
 _atom_site_type_symbol
 _atom_site_label
 _atom_site_symmetry_multiplicity
 _atom_site_fract_x
 _atom_site_fract_y
 _atom_site_fract_z
 _atom_site_occupancy
  Ta  Ta0  1  0.00494537  0.01131322  0.64370000  1
  Ta  Ta1  1  0.00636786  0.01131322  0.14370000  1
  Ta  Ta2  1  0.65574540  0.32769982  0.97704576  1
  Ta  Ta3  1  0.67195543  0.32769982  0.47704576  1
  Ta  Ta4  1  0.33578671  0.66834228  0.31035346  1
  Ta  Ta5  1  0.33255457  0.66834228  0.81035346  1
  Zn  Zn0  1  0.99310645  0.00440438  0.35384031  1
  Zn  Zn1  1  0.01129792  0.00440438  0.85384031  1
  Zn  Zn2  1  0.66714281  0.33532625  0.68703809  1
  Zn  Zn3  1  0.66818444  0.33532625  0.18703809  1
  Zn  Zn4  1  0.33129620  0.66647655  0.02048968  1
  Zn  Zn5  1  0.33517935  0.66647655  0.52048968  1
  P  P0  1  0.99185188  0.28782335  0.25181307  1
  P  P1  1  0.29597148  0.28782335  0.75181307  1
  P  P2  1  0.96091494  0.34438601  0.58540843  1
  P  P3  1  0.38347207  0.34438601  0.08540843  1
  P  P4  1  0.32396895  0.94839290  0.91831680  1
  P  P5  1  0.62442295  0.94839290  0.41831680  1
  S  S0  1  0.29072148  0.00522345  0.25144018  1
  S  S1  1  0.71510048  0.70893455  0.25077535  1
  S  S2  1  0.99383407  0.70893455  0.75077535  1
  S  S3  1  0.71450197  0.00522345  0.75144018  1
  S  S4  1  0.38042414  0.04132101  0.58438701  1
  S  S5  1  0.66316614  0.62077165  0.58424024  1
  S  S6  1  0.95760651  0.62077165  0.08424024  1
  S  S7  1  0.66089787  0.04132101  0.08438701  1
  S  S8  1  0.62613622  0.67346776  0.91744884  1
  S  S9  1  0.04504617  0.37451164  0.91795561  1
  S  S10  1  0.32946447  0.37451164  0.41795561  1
  S  S11  1  0.04733054  0.67346776  0.41744884  1
  O  O0  1  0.20766511  0.02642347  0.30384963  1
  O  O1  1  0.81935355  0.78905897  0.30342671  1
  O  O2  1  0.97230582  0.17662822  0.30468624  1
  O  O3  1  0.20432239  0.17662822  0.80468624  1
  O  O4  1  0.96970543  0.78905897  0.80342671  1
  O  O5  1  0.81875836  0.02642347  0.80384963  1
  O  O6  1  0.79270021  0.96530694  0.69656631  1
  O  O7  1  0.16642866  0.19846825  0.69463482  1
  O  O8  1  0.03317857  0.82606402  0.69648517  1
  O  O9  1  0.79288545  0.82606402  0.19648517  1
  O  O10  1  0.03203959  0.19846825  0.19463482  1
  O  O11  1  0.17260673  0.96530694  0.19656631  1
  O  O12  1  0.86925917  0.36091573  0.63892804  1
  O  O13  1  0.48504225  0.12331993  0.63666110  1
  O  O14  1  0.63782211  0.51459111  0.63664104  1
  O  O15  1  0.87677000  0.51459111  0.13664104  1
  O  O16  1  0.63827869  0.12331993  0.13666110  1
  O  O17  1  0.49165756  0.36091573  0.13892804  1
  O  O18  1  0.46815874  0.30134193  0.02823046  1
  O  O19  1  0.84023081  0.53937614  0.02971556  1
  O  O20  1  0.70200248  0.16045864  0.02974878  1
  O  O21  1  0.45845716  0.16045864  0.52974878  1
  O  O22  1  0.69914633  0.53937614  0.52971556  1
  O  O23  1  0.83318419  0.30134193  0.52823046  1
  O  O24  1  0.54393337  0.69504348  0.96998134  1
  O  O25  1  0.15257584  0.45595254  0.96982797  1
  O  O26  1  0.30683967  0.84149575  0.97238979  1
  O  O27  1  0.53465508  0.84149575  0.47238979  1
  O  O28  1  0.30337570  0.45595254  0.46982797  1
  O  O29  1  0.15110910  0.69504348  0.46998134  1
  O  O30  1  0.12562776  0.63257158  0.36296281  1
  O  O31  1  0.49855859  0.86449727  0.36144074  1
  O  O32  1  0.36619529  0.49385653  0.36310779  1
  O  O33  1  0.12766024  0.49385653  0.86310779  1
  O  O34  1  0.36593768  0.86449727  0.86144074  1
  O  O35  1  0.50694281  0.63257158  0.86296281  1
  O  O36  1  0.02148824  0.82126054  0.40666745  1
  O  O37  1  0.80602215  0.97991959  0.40749084  1
  O  O38  1  0.18228295  0.20023509  0.40759295  1
  O  O39  1  0.01795214  0.20023509  0.90759295  1
  O  O40  1  0.17389744  0.97991959  0.90749084  1
  O  O41  1  0.79977230  0.82126054  0.90666745  1
  O  O42  1  0.96997114  0.16522877  0.59302554  1
  O  O43  1  0.19818143  0.02687466  0.59159284  1
  O  O44  1  0.83042934  0.80100903  0.59247774  1
  O  O45  1  0.97057969  0.80100903  0.09247774  1
  O  O46  1  0.82869323  0.02687466  0.09159284  1
  O  O47  1  0.19525763  0.16522877  0.09302554  1
  O  O48  1  0.68705196  0.15226135  0.74122377  1
  O  O49  1  0.47507637  0.31472249  0.73883616  1
  O  O50  1  0.84771296  0.53375711  0.74142737  1
  O  O51  1  0.68604515  0.53375711  0.24142737  1
  O  O52  1  0.83964712  0.31472249  0.23883616  1
  O  O53  1  0.46521040  0.15226135  0.24122377  1
  O  O54  1  0.64039169  0.50562291  0.92491962  1
  O  O55  1  0.86610732  0.36339980  0.92537121  1
  O  O56  1  0.50224398  0.13876173  0.92675709  1
  O  O57  1  0.63651875  0.13876173  0.42675709  1
  O  O58  1  0.49729348  0.36339980  0.42537121  1
  O  O59  1  0.86523222  0.50562291  0.42491962  1
  O  O60  1  0.35190842  0.49339740  0.07241150  1
  O  O61  1  0.13223610  0.64647134  0.07459878  1
  O  O62  1  0.51396555  0.86720744  0.07442978  1
  O  O63  1  0.35324089  0.86720744  0.57442978  1
  O  O64  1  0.51423423  0.64647134  0.57459878  1
  O  O65  1  0.14148798  0.49339740  0.57241150  1
  O  O66  1  0.30326261  0.83651286  0.25830687  1
  O  O67  1  0.53230231  0.69495568  0.25858198  1
  O  O68  1  0.16835574  0.47463689  0.26075135  1
  O  O69  1  0.30628015  0.47463689  0.76075135  1
  O  O70  1  0.16265237  0.69495568  0.75858198  1
  O  O71  1  0.53324925  0.83651286  0.75830687  1
loop_
_geom_bond_atom_site_label_1
_geom_bond_atom_site_label_2
_geom_bond_distance
_geom_bond_site_symmetry_2
O0 S0 1.443567 1_555
O0 Zn0 2.109156 1_455
O1 S1 1.444669 1_555
O1 Zn0 2.070158 1_565
O2 P0 1.488799 1_555
O2 Zn0 1.945919 1_555
O3 P1 1.488799 1_555
O3 Zn1 1.945919 1_555
O4 S2 1.444669 1_555
O4 Zn1 2.070158 1_665
O5 S3 1.443567 1_555
O5 Zn1 2.109156 1_655
O6 S3 1.532909 1_565
O6 Ta0 2.064503 1_665
O7 P1 1.632098 1_555
O7 Ta0 1.918129 1_555
O8 S2 1.516469 1_455
O8 Ta0 2.117018 1_565
O9 S1 1.516469 1_555
O9 Ta1 2.117018 1_665
O10 P0 1.632098 1_455
O10 Ta1 1.918129 1_555
O11 S0 1.532909 1_565
O11 Ta1 2.064503 1_565
O12 P2 1.491805 1_555
O12 Zn2 1.984650 1_555
O13 S4 1.441860 1_555
O13 Zn2 2.076123 1_555
O14 S5 1.445250 1_555
O14 Zn2 2.048879 1_555
O15 S6 1.445250 1_555
O15 Zn3 2.048879 1_555
O16 S7 1.441860 1_555
O16 Zn3 2.076123 1_555
O17 P3 1.491805 1_555
O17 Zn3 1.984650 1_555
O18 P3 1.618909 1_555
O18 Ta2 1.918818 1_554
O19 S6 1.527941 1_555
O19 Ta2 2.110017 1_554
O20 S7 1.530933 1_555
O20 Ta2 2.070409 1_554
O21 S4 1.530933 1_555
O21 Ta3 2.070409 1_555
O22 S5 1.527941 1_555
O22 Ta3 2.110017 1_555
O23 P2 1.618909 1_555
O23 Ta3 1.918818 1_555
O24 S8 1.442873 1_555
O24 Zn4 2.081919 1_556
O25 S9 1.443694 1_555
O25 Zn4 2.063691 1_556
O26 P4 1.493051 1_555
O26 Zn4 1.968447 1_556
O27 P5 1.493051 1_555
O27 Zn5 1.968447 1_555
O28 S10 1.443694 1_555
O28 Zn5 2.063691 1_555
O29 S11 1.442873 1_555
O29 Zn5 2.081919 1_555
O30 S11 1.530286 1_555
O30 Ta4 2.071011 1_555
O31 P5 1.606115 1_555
O31 Ta4 1.962862 1_555
O32 S10 1.540225 1_555
O32 Ta4 2.049457 1_555
O33 S9 1.540225 1_555
O33 Ta5 2.049457 1_555
O34 P4 1.606115 1_555
O34 Ta5 1.962862 1_555
O35 S8 1.530286 1_555
O35 Ta5 2.071011 1_555
O36 S11 1.438127 1_555
O36 Zn0 2.103098 1_465
O37 P5 1.487390 1_555
O37 Zn0 1.954143 1_565
O38 S10 1.439479 1_555
O38 Zn0 2.074377 1_455
O39 S9 1.439482 1_555
O39 Zn1 2.074377 1_555
O40 P4 1.487381 1_555
O40 Zn1 1.954143 1_565
O41 S8 1.438132 1_555
O41 Zn1 2.103098 1_665
O42 P2 1.615631 1_555
O42 Ta0 1.898744 1_655
O43 S4 1.540490 1_555
O43 Ta0 2.001892 1_555
O44 S5 1.533577 1_555
O44 Ta0 2.058616 1_665
O45 S6 1.533581 1_555
O45 Ta1 2.058616 1_665
O46 S7 1.540482 1_555
O46 Ta1 2.001892 1_655
O47 P3 1.615636 1_555
O47 Ta1 1.898744 1_555
O48 S3 1.438174 1_555
O48 Zn2 2.084351 1_555
O49 P1 1.489342 1_555
O49 Zn2 1.974404 1_555
O50 S2 1.437444 1_555
O50 Zn2 2.065549 1_555
O51 S1 1.437448 1_555
O51 Zn3 2.065549 1_555
O52 P0 1.489334 1_555
O52 Zn3 1.974404 1_555
O53 S0 1.438180 1_555
O53 Zn3 2.084351 1_555
O54 S8 1.541850 1_555
O54 Ta2 2.002679 1_555
O55 S9 1.525230 1_655
O55 Ta2 2.060713 1_555
O56 P4 1.625298 1_545
O56 Ta2 1.897029 1_555
O57 P5 1.625290 1_545
O57 Ta3 1.897029 1_555
O58 S10 1.525248 1_555
O58 Ta3 2.060713 1_555
O59 S11 1.541840 1_655
O59 Ta3 2.002679 1_555
O60 P3 1.488159 1_555
O60 Zn4 1.987069 1_555
O61 S6 1.442128 1_455
O61 Zn4 2.055905 1_555
O62 S7 1.436345 1_565
O62 Zn4 2.075188 1_555
O63 S4 1.436338 1_565
O63 Zn5 2.075188 1_555
O64 S5 1.442145 1_555
O64 Zn5 2.055905 1_555
O65 P2 1.488148 1_455
O65 Zn5 1.987069 1_555
O66 S0 1.539692 1_565
O66 Ta4 2.005108 1_555
O67 S1 1.548551 1_555
O67 Ta4 1.988235 1_555
O68 P0 1.602875 1_455
O68 Ta4 1.944943 1_555
O69 P1 1.602879 1_555
O69 Ta5 1.944943 1_555
O70 S2 1.548542 1_455
O70 Ta5 1.988235 1_555
O71 S3 1.539697 1_565
O71 Ta5 2.005108 1_555
