# generated using pymatgen
data_Ba4Pb3O10
_symmetry_space_group_name_H-M   'P 1'
_cell_length_a   4.31845308
_cell_length_b   4.31858539
_cell_length_c   15.56668671
_cell_angle_alpha   97.98357174
_cell_angle_beta   97.99054830
_cell_angle_gamma   90.00026376
_symmetry_Int_Tables_number   1
_chemical_formula_structural   Ba4Pb3O10
_chemical_formula_sum   'Ba4 Pb3 O10'
_cell_volume   284.65235366
_cell_formula_units_Z   1
loop_
 _symmetry_equiv_pos_site_id
 _symmetry_equiv_pos_as_xyz
  1  'x, y, z'
loop_
 _atom_site_type_symbol
 _atom_site_label
 _atom_site_symmetry_multiplicity
 _atom_site_fract_x
 _atom_site_fract_y
 _atom_site_fract_z
 _atom_site_occupancy
  Ba  Ba0  1  0.70824209  0.70604274  0.40529157  1
  Ba  Ba1  1  0.57459298  0.57189060  0.13832343  1
  Ba  Ba2  1  0.30156708  0.30005907  0.59473520  1
  Ba  Ba3  1  0.43611018  0.43372989  0.86170867  1
  Pb  Pb0  1  0.00515916  0.00334947  -0.00000190  1
  Pb  Pb1  1  0.86331920  0.86148485  0.71775893  1
  Pb  Pb2  1  0.14686586  0.14452759  0.28226223  1
  O  O0  1  0.14615319  0.64332408  0.27963385  1
  O  O1  1  0.36464560  0.86222030  0.72046879  1
  O  O2  1  0.93382262  0.93288469  0.85925672  1
  O  O3  1  0.79247595  0.79035549  0.57649073  1
  O  O4  1  0.07589523  0.07453532  0.14075538  1
  O  O5  1  0.50523849  0.00288606  -0.00002669  1
  O  O6  1  0.64561436  0.14354849  0.27956825  1
  O  O7  1  0.86445708  0.36266976  0.72028918  1
  O  O8  1  0.00614407  0.50328591  0.99998335  1
  O  O9  1  0.21789386  0.21540468  0.42350631  1
loop_
_geom_bond_atom_site_label_1
_geom_bond_atom_site_label_2
_geom_bond_distance
_geom_bond_site_symmetry_2
Ba0 O3 2.613059 1_555
Ba0 O0 2.885204 1_555
Ba0 O6 2.887304 1_555
Ba0 O6 2.890195 1_565
Ba0 O0 2.890866 1_655
Ba0 O9 3.063943 1_555
Ba0 O9 3.065435 1_565
Ba0 O9 3.067148 1_655
Ba0 O9 3.068611 1_665
Ba1 O8 3.017366 1_554
Ba1 O5 3.019410 1_555
Ba1 O5 3.021009 1_565
Ba1 O8 3.022749 1_654
Ba1 O6 3.048377 1_555
Ba1 O4 3.049262 1_555
Ba1 O0 3.049633 1_555
Ba1 O4 3.049788 1_655
Ba1 O6 3.054154 1_565
Ba1 O0 3.054222 1_655
Ba1 O4 3.057993 1_565
Ba1 O4 3.058489 1_665
Ba2 O9 2.613518 1_555
Ba2 O1 2.886316 1_555
Ba2 O7 2.886906 1_555
Ba2 O7 2.887060 1_455
Ba2 O1 2.891390 1_545
Ba2 O3 3.064445 1_455
Ba2 O3 3.064741 1_555
Ba2 O3 3.067896 1_445
Ba2 O3 3.068220 1_545
Ba3 O8 3.017055 1_555
Ba3 O5 3.019098 1_566
Ba3 O5 3.019497 1_556
Ba3 O8 3.021662 1_655
Ba3 O1 3.048771 1_555
Ba3 O2 3.049491 1_545
Ba3 O7 3.050692 1_555
Ba3 O2 3.051814 1_555
Ba3 O1 3.053656 1_545
Ba3 O7 3.055514 1_455
Ba3 O2 3.055945 1_445
Ba3 O2 3.058292 1_455
O0 Pb2 2.159182 1_565
O0 Pb2 2.160152 1_555
O1 Pb1 2.159488 1_455
O1 Pb1 2.159760 1_555
O2 Pb0 2.148164 1_666
O2 Pb1 2.159708 1_555
O3 Pb1 2.156203 1_555
O4 Pb0 2.148406 1_555
O4 Pb2 2.159848 1_555
O5 Pb0 2.158831 1_655
O5 Pb0 2.159624 1_555
O6 Pb2 2.159194 1_655
O6 Pb2 2.160044 1_555
O7 Pb1 2.159285 1_545
O7 Pb1 2.159991 1_555
O8 Pb0 2.159054 1_556
O8 Pb0 2.159540 1_566
O9 Pb2 2.155834 1_555
