# generated using pymatgen
data_CsSn2Br5
_symmetry_space_group_name_H-M   'P 1'
_cell_length_a   8.55200926
_cell_length_b   8.55369818
_cell_length_c   9.93815489
_cell_angle_alpha   115.49337958
_cell_angle_beta   115.48414952
_cell_angle_gamma   89.99999243
_symmetry_Int_Tables_number   1
_chemical_formula_structural   CsSn2Br5
_chemical_formula_sum   'Cs2 Sn4 Br10'
_cell_volume   576.85795691
_cell_formula_units_Z   2
loop_
 _symmetry_equiv_pos_site_id
 _symmetry_equiv_pos_as_xyz
  1  'x, y, z'
loop_
 _atom_site_type_symbol
 _atom_site_label
 _atom_site_symmetry_multiplicity
 _atom_site_fract_x
 _atom_site_fract_y
 _atom_site_fract_z
 _atom_site_occupancy
  Cs  Cs0  1  0.24989650  0.25000000  0.50000000  1
  Cs  Cs1  1  0.75010350  0.75000000  0.50000000  1
  Sn  Sn0  1  0.68496344  0.18497573  0.99984802  1
  Sn  Sn1  1  0.81488457  0.68497573  0.99984802  1
  Sn  Sn2  1  0.18511543  0.31502427  0.00015198  1
  Sn  Sn3  1  0.31503656  0.81502427  0.00015198  1
  Br  Br0  1  0.96569001  0.46550527  0.25278048  1
  Br  Br1  1  0.71270623  0.21290244  0.74722974  1
  Br  Br2  1  0.03430999  0.53449473  0.74721952  1
  Br  Br3  1  0.21290853  0.03449473  0.74721952  1
  Br  Br4  1  0.53452351  0.71290244  0.74722974  1
  Br  Br5  1  0.78709147  0.96550527  0.25278048  1
  Br  Br6  1  0.50000000  0.50000000  -0.00000000  1
  Br  Br7  1  0.00000000  -0.00000000  -0.00000000  1
  Br  Br8  1  0.28729377  0.78709756  0.25277026  1
  Br  Br9  1  0.46547649  0.28709756  0.25277026  1
loop_
_geom_bond_atom_site_label_1
_geom_bond_atom_site_label_2
_geom_bond_distance
_geom_bond_site_symmetry_2
Br0 Sn0 2.730377 1_554
Br0 Cs0 3.755237 1_655
Br0 Cs1 3.756164 1_555
Br1 Sn0 2.728566 1_555
Br1 Cs0 3.755765 1_555
Br1 Cs1 3.757490 1_545
Br2 Sn3 2.730377 1_556
Br2 Cs1 3.755237 1_455
Br2 Cs0 3.756164 1_555
Br3 Sn2 2.730372 1_556
Br3 Cs0 3.755240 1_555
Br3 Cs1 3.756158 1_445
Br4 Sn1 2.728566 1_555
Br4 Cs1 3.755765 1_555
Br4 Cs0 3.757491 1_555
Br5 Sn1 2.730372 1_554
Br5 Cs1 3.755240 1_555
Br5 Cs0 3.756158 1_665
Br6 Sn1 3.124210 1_554
Br6 Sn2 3.124210 1_555
Br6 Sn3 3.124366 1_555
Br6 Sn0 3.124366 1_554
Br6 Cs1 3.942910 1_555
Br6 Cs0 3.942910 1_554
Br7 Sn0 3.124210 1_454
Br7 Sn3 3.124210 1_545
Br7 Sn1 3.124367 1_444
Br7 Sn2 3.124367 1_555
Br7 Cs0 3.942910 1_555
Br7 Cs1 3.942910 1_444
Br8 Sn3 2.728566 1_555
Br8 Cs1 3.755765 1_555
Br8 Cs0 3.757490 1_565
Br9 Sn2 2.728566 1_555
Br9 Cs0 3.755765 1_555
Br9 Cs1 3.757491 1_555
