# generated using pymatgen
data_MgV4O7F5
_symmetry_space_group_name_H-M   'P 1'
_cell_length_a   5.14437342
_cell_length_b   7.69348029
_cell_length_c   5.33694629
_cell_angle_alpha   93.40113036
_cell_angle_beta   86.53608681
_cell_angle_gamma   89.01174678
_symmetry_Int_Tables_number   1
_chemical_formula_structural   MgV4O7F5
_chemical_formula_sum   'Mg1 V4 O7 F5'
_cell_volume   210.42311911
_cell_formula_units_Z   1
loop_
 _symmetry_equiv_pos_site_id
 _symmetry_equiv_pos_as_xyz
  1  'x, y, z'
loop_
 _atom_site_type_symbol
 _atom_site_label
 _atom_site_symmetry_multiplicity
 _atom_site_fract_x
 _atom_site_fract_y
 _atom_site_fract_z
 _atom_site_occupancy
  Mg  Mg0  1  0.52530564  0.73300410  0.07578025  1
  V  V0  1  0.47577544  0.48756896  0.47039026  1
  V  V1  1  0.53871634  0.00556231  0.53299931  1
  V  V2  1  0.00936191  0.48424419  0.00070354  1
  V  V3  1  0.01786517  0.01130666  0.03399603  1
  O  O0  1  0.76933851  0.55990150  0.25033086  1
  O  O1  1  0.78187570  0.94671235  0.70541812  1
  O  O2  1  0.68641599  0.94778740  0.20524673  1
  O  O3  1  0.28917481  0.44971398  0.21741193  1
  O  O4  1  0.28512784  0.03645837  0.76113762  1
  O  O5  1  0.19721631  0.05248334  0.27667431  1
  O  O6  1  0.20522538  0.45483827  0.72091045  1
  F  F0  1  0.87851347  0.24933427  0.99789544  1
  F  F1  1  0.68029000  0.57465787  0.78438801  1
  F  F2  1  0.61981625  0.25108508  0.50655761  1
  F  F3  1  0.39396773  0.74821704  0.46972431  1
  F  F4  1  0.14601150  0.74819334  0.00293422  1
loop_
_geom_bond_atom_site_label_1
_geom_bond_atom_site_label_2
_geom_bond_distance
_geom_bond_site_symmetry_2
Mg0 O2 1.968718 1_555
Mg0 O0 2.109094 1_555
O0 V2 1.822843 1_655
O0 V0 1.965174 1_555
O1 V1 1.668979 1_565
O1 V3 2.229483 1_666
O2 V1 1.889467 1_565
O2 V3 1.968479 1_665
O3 V0 1.717198 1_555
O3 V2 1.924760 1_555
O4 V1 1.733160 1_555
O4 V3 1.961904 1_556
O5 V3 1.653748 1_555
O5 V1 2.327059 1_555
O6 V2 1.751125 1_556
O6 V0 1.901399 1_555
F0 V2 1.938955 1_656
F0 V3 1.979348 1_656
F1 Mg0 2.032271 1_556
F1 V0 2.113823 1_555
F1 V2 2.230084 1_656
F2 V1 1.952873 1_555
F2 V0 1.977105 1_555
F3 V0 2.042115 1_555
F3 V1 2.142514 1_565
F3 Mg0 2.164937 1_555
F4 Mg0 2.015266 1_555
F4 V3 2.112021 1_565
F4 V2 2.159953 1_555
