# generated using pymatgen
data_NaMgCoO2
_symmetry_space_group_name_H-M   'P 1'
_cell_length_a   7.63936486
_cell_length_b   7.63936527
_cell_length_c   7.63936386
_cell_angle_alpha   24.53522665
_cell_angle_beta   24.53522547
_cell_angle_gamma   24.53522055
_symmetry_Int_Tables_number   1
_chemical_formula_structural   NaMgCoO2
_chemical_formula_sum   'Na1 Mg1 Co1 O2'
_cell_volume   67.59415923
_cell_formula_units_Z   1
loop_
 _symmetry_equiv_pos_site_id
 _symmetry_equiv_pos_as_xyz
  1  'x, y, z'
loop_
 _atom_site_type_symbol
 _atom_site_label
 _atom_site_symmetry_multiplicity
 _atom_site_fract_x
 _atom_site_fract_y
 _atom_site_fract_z
 _atom_site_occupancy
  Na  Na0  1  0.96885970  0.96885970  0.96885970  1
  Mg  Mg0  1  0.41194771  0.41194771  0.41194770  1
  Co  Co0  1  0.53493656  0.53493656  0.53493657  1
  O  O0  1  0.22872452  0.22872452  0.22872452  1
  O  O1  1  0.71267551  0.71267552  0.71267551  1
loop_
_geom_bond_atom_site_label_1
_geom_bond_atom_site_label_2
_geom_bond_distance
_geom_bond_site_symmetry_2
Na0 O0 2.485439 1_665
Na0 O0 2.485440 1_566
Na0 O0 2.485440 1_656
Na0 O1 2.539893 1_556
Na0 O1 2.539893 1_655
Na0 O1 2.539894 1_565
Mg0 O1 2.009429 1_554
Mg0 O1 2.009429 1_455
Mg0 O1 2.009429 1_545
Co0 O0 1.968785 1_556
Co0 O0 1.968786 1_655
Co0 O0 1.968786 1_565
