# generated using pymatgen
data_MgMnTl(VS2)4
_symmetry_space_group_name_H-M   'P 1'
_cell_length_a   3.40224054
_cell_length_b   8.83962897
_cell_length_c   9.41145684
_cell_angle_alpha   96.59079260
_cell_angle_beta   100.42775895
_cell_angle_gamma   89.96355550
_symmetry_Int_Tables_number   1
_chemical_formula_structural   MgMnTl(VS2)4
_chemical_formula_sum   'Mg1 Mn1 Tl1 V4 S8'
_cell_volume   276.47202791
_cell_formula_units_Z   1
loop_
 _symmetry_equiv_pos_site_id
 _symmetry_equiv_pos_as_xyz
  1  'x, y, z'
loop_
 _atom_site_type_symbol
 _atom_site_label
 _atom_site_symmetry_multiplicity
 _atom_site_fract_x
 _atom_site_fract_y
 _atom_site_fract_z
 _atom_site_occupancy
  Mg  Mg0  1  0.88645141  0.22806468  0.77229478  1
  Mn  Mn0  1  0.02440262  0.53285406  0.04761534  1
  Tl  Tl0  1  0.48688562  0.95206323  0.97312565  1
  V  V0  1  0.69763503  0.84654416  0.39413038  1
  V  V1  1  0.25401724  0.11784511  0.50870534  1
  V  V2  1  0.66618359  0.52011789  0.32973543  1
  V  V3  1  0.34458007  0.52086942  0.68740684  1
  S  S0  1  0.81340304  0.98548122  0.62696242  1
  S  S1  1  0.14384184  0.98582987  0.28733604  1
  S  S2  1  0.76329117  0.33214741  0.52649119  1
  S  S3  1  0.24018905  0.66891963  0.47844543  1
  S  S4  1  0.91077199  0.66103901  0.82029208  1
  S  S5  1  0.11039172  0.36188895  0.21881299  1
  S  S6  1  0.58007621  0.69303492  0.15896099  1
  S  S7  1  0.45287940  0.36673841  0.90539911  1
loop_
_geom_bond_atom_site_label_1
_geom_bond_atom_site_label_2
_geom_bond_distance
_geom_bond_site_symmetry_2
Mg0 S7 2.358389 1_555
Mg0 S7 2.358460 1_655
Mg0 S0 2.394823 1_545
Mg0 S2 2.551658 1_555
Mn0 S5 2.313723 1_555
Mn0 S6 2.370316 1_455
Mn0 S6 2.371243 1_555
Mn0 S4 2.503425 1_454
Mn0 S7 2.515001 1_554
Mn0 S7 2.517728 1_454
S0 V0 2.352794 1_555
S0 V1 2.399812 1_565
S0 V1 2.400014 1_665
S1 V1 2.236661 1_565
S1 V0 2.381086 1_455
S1 V0 2.381539 1_555
S2 V1 2.535429 1_655
S2 V1 2.538728 1_555
S2 V2 2.604456 1_555
S2 V3 2.702573 1_555
S2 V3 2.706997 1_655
S3 V3 2.458431 1_555
S3 V2 2.468616 1_455
S3 V2 2.469576 1_555
S3 V0 2.500678 1_555
S3 V0 2.500889 1_455
S4 V3 2.363322 1_555
S4 V3 2.363857 1_655
S5 V2 2.358689 1_455
S5 V2 2.361224 1_555
S6 V2 2.323434 1_555
S6 V0 2.427091 1_555
S6 Tl0 3.019915 1_554
S7 V3 2.562930 1_555
