# generated using pymatgen
data_Ce3Al
_symmetry_space_group_name_H-M   'P 1'
_cell_length_a   6.76331078
_cell_length_b   6.76350043
_cell_length_c   5.33569633
_cell_angle_alpha   90.00000000
_cell_angle_beta   90.00000000
_cell_angle_gamma   119.99919219
_symmetry_Int_Tables_number   1
_chemical_formula_structural   Ce3Al
_chemical_formula_sum   'Ce6 Al2'
_cell_volume   211.37622503
_cell_formula_units_Z   2
loop_
 _symmetry_equiv_pos_site_id
 _symmetry_equiv_pos_as_xyz
  1  'x, y, z'
loop_
 _atom_site_type_symbol
 _atom_site_label
 _atom_site_symmetry_multiplicity
 _atom_site_fract_x
 _atom_site_fract_y
 _atom_site_fract_z
 _atom_site_occupancy
  Ce  Ce0  1  0.81936592  0.63861581  0.25000000  1
  Ce  Ce1  1  0.18056848  0.81932461  0.75000000  1
  Ce  Ce2  1  0.63883102  0.81944259  0.75000000  1
  Ce  Ce3  1  0.36137384  0.18067555  0.25000000  1
  Ce  Ce4  1  0.81934706  0.18074428  0.25000000  1
  Ce  Ce5  1  0.18051819  0.36119805  0.75000000  1
  Al  Al0  1  0.33329111  0.66662722  0.25000000  1
  Al  Al1  1  0.66670439  0.33337089  0.75000000  1
loop_
_geom_bond_atom_site_label_1
_geom_bond_atom_site_label_2
_geom_bond_distance
_geom_bond_site_symmetry_2
Ce0 Ce4 3.096751 1_555
Ce0 Ce3 3.097449 1_555
Ce0 Ce1 3.404908 1_654
Ce0 Ce1 3.404908 1_655
Ce0 Ce2 3.405490 1_554
Ce0 Ce2 3.405490 1_555
Ce0 Ce3 3.666039 1_665
Ce0 Ce4 3.666750 1_565
Ce1 Ce5 3.098369 1_555
Ce1 Ce2 3.098973 1_555
Ce1 Ce3 3.405485 1_566
Ce1 Ce3 3.405485 1_565
Ce1 Ce2 3.664338 1_455
Ce1 Ce5 3.665131 1_565
Ce2 Ce5 3.099562 1_555
Ce2 Ce4 3.405306 1_566
Ce2 Ce4 3.405306 1_565
Ce2 Ce5 3.663926 1_665
Ce3 Ce4 3.097183 1_555
Ce3 Ce5 3.405550 1_555
Ce3 Ce5 3.405550 1_554
Ce3 Ce4 3.666128 1_455
Ce4 Ce5 3.404794 1_654
Ce4 Ce5 3.404794 1_655
Al0 Ce1 3.212112 1_555
Al0 Ce1 3.212112 1_554
Al0 Ce5 3.212168 1_555
Al0 Ce5 3.212168 1_554
Al0 Ce2 3.212501 1_554
Al0 Ce2 3.212501 1_555
Al0 Ce0 3.385089 1_455
Al0 Ce4 3.385146 1_455
Al0 Ce3 3.385696 1_555
Al0 Ce3 3.385800 1_565
Al0 Ce0 3.386178 1_555
Al0 Ce4 3.386326 1_565
Al1 Ce0 3.211567 1_556
Al1 Ce0 3.211567 1_555
Al1 Ce4 3.211620 1_555
Al1 Ce4 3.211620 1_556
Al1 Ce3 3.211818 1_556
Al1 Ce3 3.211818 1_555
Al1 Ce5 3.384907 1_655
Al1 Ce1 3.385072 1_655
Al1 Ce2 3.385637 1_545
Al1 Ce2 3.385741 1_555
Al1 Ce5 3.386256 1_555
Al1 Ce1 3.386314 1_545
