# generated using pymatgen
data_MgMn4(O2F3)2
_symmetry_space_group_name_H-M   'P 1'
_cell_length_a   5.09247240
_cell_length_b   5.97744971
_cell_length_c   7.80345827
_cell_angle_alpha   103.87726521
_cell_angle_beta   70.23407484
_cell_angle_gamma   65.32075736
_symmetry_Int_Tables_number   1
_chemical_formula_structural   MgMn4(O2F3)2
_chemical_formula_sum   'Mg1 Mn4 O4 F6'
_cell_volume   181.84252127
_cell_formula_units_Z   1
loop_
 _symmetry_equiv_pos_site_id
 _symmetry_equiv_pos_as_xyz
  1  'x, y, z'
loop_
 _atom_site_type_symbol
 _atom_site_label
 _atom_site_symmetry_multiplicity
 _atom_site_fract_x
 _atom_site_fract_y
 _atom_site_fract_z
 _atom_site_occupancy
  Mg  Mg0  1  0.38116400  0.54894200  0.16103900  1
  Mn  Mn0  1  0.34226200  0.99838700  0.87276600  1
  Mn  Mn1  1  0.80849400  0.48303100  0.39040400  1
  Mn  Mn2  1  0.20249600  0.50807000  0.63209700  1
  Mn  Mn3  1  0.66778100  0.99676500  0.12782900  1
  O  O0  1  0.75399300  0.76672800  0.87063900  1
  O  O1  1  0.39851600  0.72703200  0.64561800  1
  O  O2  1  0.57680900  0.30368000  0.35077400  1
  O  O3  1  0.24892200  0.25032800  0.13548700  1
  F  F0  1  0.97533300  0.72129600  0.43730700  1
  F  F1  1  0.84940600  0.21373800  0.96529600  1
  F  F2  1  0.58189000  0.73685200  0.24650400  1
  F  F3  1  0.38935400  0.26148500  0.75844100  1
  F  F4  1  0.14044400  0.78762500  0.06244700  1
  F  F5  1  0.04035100  0.29571400  0.53794900  1
loop_
_geom_bond_atom_site_label_1
_geom_bond_atom_site_label_2
_geom_bond_distance
_geom_bond_site_symmetry_2
Mg0 O3 2.145514 1_555
Mg0 O2 2.480574 1_555
Mn0 O1 1.935014 1_555
Mn0 O0 1.963390 1_555
Mn0 O3 1.989733 1_566
Mn1 O1 1.924568 1_555
Mn1 O2 1.944482 1_555
Mn1 O3 1.993030 1_655
Mn2 O1 1.953629 1_555
Mn2 O0 1.966487 1_455
Mn2 O2 1.970750 1_555
Mn3 O0 1.920302 1_554
Mn3 O2 1.954764 1_565
Mn3 O3 2.005290 1_565
F0 Mn1 1.963409 1_555
F0 Mg0 2.030603 1_655
F0 Mn2 2.482055 1_655
F1 Mn0 2.026869 1_645
F1 Mg0 2.027897 1_556
F1 Mn3 2.267936 1_546
F2 Mg0 1.952392 1_555
F2 Mn3 2.108630 1_555
F2 Mn1 2.264093 1_555
F3 Mn0 2.042033 1_545
F3 Mn2 2.051930 1_555
F4 Mg0 1.958079 1_555
F4 Mn3 1.991859 1_455
F4 Mn0 2.404401 1_554
F5 Mn2 1.915996 1_555
F5 Mn1 2.099353 1_455
