# generated using pymatgen
data_MgFe6O11F
_symmetry_space_group_name_H-M   'P 1'
_cell_length_a   7.27891011
_cell_length_b   5.91637306
_cell_length_c   5.74173525
_cell_angle_alpha   80.61060725
_cell_angle_beta   71.67177816
_cell_angle_gamma   69.63266986
_symmetry_Int_Tables_number   1
_chemical_formula_structural   MgFe6O11F
_chemical_formula_sum   'Mg1 Fe6 O11 F1'
_cell_volume   219.64702850
_cell_formula_units_Z   1
loop_
 _symmetry_equiv_pos_site_id
 _symmetry_equiv_pos_as_xyz
  1  'x, y, z'
loop_
 _atom_site_type_symbol
 _atom_site_label
 _atom_site_symmetry_multiplicity
 _atom_site_fract_x
 _atom_site_fract_y
 _atom_site_fract_z
 _atom_site_occupancy
  Mg  Mg0  1  0.98184770  0.52823463  0.02650644  1
  Fe  Fe0  1  0.81143840  0.67034341  0.64454188  1
  Fe  Fe1  1  0.66087495  0.26981906  0.39068989  1
  Fe  Fe2  1  0.33941872  0.73014064  0.60384398  1
  Fe  Fe3  1  0.17788448  0.31616191  0.39564355  1
  Fe  Fe4  1  0.50000007  0.99554162  -0.00118840  1
  Fe  Fe5  1  0.99624953  0.04257655  0.96713080  1
  O  O0  1  0.65654505  0.00630944  0.64293896  1
  O  O1  1  0.28765071  0.91839278  0.88872274  1
  O  O2  1  0.95310252  0.22351122  0.24165326  1
  O  O3  1  0.62699308  0.54570400  0.56035218  1
  O  O4  1  0.04200884  0.78981069  0.76725360  1
  O  O5  1  0.37524182  0.43807406  0.44398508  1
  O  O6  1  0.70613987  0.10374774  0.10039911  1
  O  O7  1  0.34524161  0.98566325  0.34695416  1
  O  O8  1  0.69019679  0.66665036  0.98252559  1
  O  O9  1  0.99722040  0.34214464  0.73004429  1
  O  O10  1  0.99145072  0.64659428  0.33210692  1
  F  F0  1  0.29567776  0.35200574  0.00732497  1
loop_
_geom_bond_atom_site_label_1
_geom_bond_atom_site_label_2
_geom_bond_distance
_geom_bond_site_symmetry_2
Mg0 O10 2.021452 1_555
Mg0 O4 2.027978 1_654
Mg0 O2 2.047785 1_555
Mg0 O8 2.073806 1_554
Mg0 O9 2.127940 1_554
Fe0 O10 1.852170 1_555
Fe0 O8 1.862195 1_555
Fe0 O0 1.913848 1_565
Fe0 O3 1.947696 1_555
Fe0 O9 2.029487 1_555
Fe0 O4 2.354700 1_655
Fe1 O5 1.914642 1_555
Fe1 O3 1.939463 1_555
Fe1 O0 1.948843 1_555
Fe1 O6 1.953382 1_555
Fe1 O2 1.964167 1_555
Fe2 O7 1.934052 1_555
Fe2 O3 1.950619 1_555
Fe2 O5 1.987390 1_555
Fe2 O1 1.993148 1_555
Fe2 O4 1.997515 1_555
Fe3 O7 1.921372 1_545
Fe3 O5 1.923092 1_555
Fe3 O9 1.951186 1_455
Fe3 O10 2.007112 1_455
Fe3 O2 2.334853 1_455
Fe4 O8 1.953073 1_554
Fe4 O7 1.964602 1_555
Fe4 O0 2.005337 1_564
Fe4 O1 2.048582 1_554
Fe4 O6 2.083843 1_565
Fe5 O4 1.907165 1_645
Fe5 O1 1.914180 1_645
Fe5 O6 1.928174 1_556
Fe5 O2 1.932425 1_556
Fe5 O9 2.051790 1_555
F0 Fe4 2.113455 1_545
F0 Fe3 2.126340 1_555
F0 Mg0 2.130447 1_455
