# generated using pymatgen
data_Nd3Te4
_symmetry_space_group_name_H-M   'P 1'
_cell_length_a   8.27831563
_cell_length_b   8.27831585
_cell_length_c   8.27831648
_cell_angle_alpha   109.47121961
_cell_angle_beta   109.47122009
_cell_angle_gamma   109.47122427
_symmetry_Int_Tables_number   1
_chemical_formula_structural   Nd3Te4
_chemical_formula_sum   'Nd6 Te8'
_cell_volume   436.72102125
_cell_formula_units_Z   2
loop_
 _symmetry_equiv_pos_site_id
 _symmetry_equiv_pos_as_xyz
  1  'x, y, z'
loop_
 _atom_site_type_symbol
 _atom_site_label
 _atom_site_symmetry_multiplicity
 _atom_site_fract_x
 _atom_site_fract_y
 _atom_site_fract_z
 _atom_site_occupancy
  Nd  Nd0  1  0.75000000  0.87500000  0.12500000  1
  Nd  Nd1  1  0.62500000  0.37500000  0.25000000  1
  Nd  Nd2  1  0.87500000  0.12500000  0.75000000  1
  Nd  Nd3  1  0.12500000  0.75000000  0.87500000  1
  Nd  Nd4  1  0.37500000  0.25000000  0.62500000  1
  Nd  Nd5  1  0.25000000  0.62500000  0.37500000  1
  Te  Te0  1  0.64615097  0.64615097  0.64615097  1
  Te  Te1  1  0.35384903  0.50000000  -0.00000000  1
  Te  Te2  1  0.50000000  0.00000000  0.35384903  1
  Te  Te3  1  -0.00000000  0.35384903  0.50000000  1
  Te  Te4  1  0.50000000  0.00000000  0.85384903  1
  Te  Te5  1  -0.00000000  0.85384903  0.50000000  1
  Te  Te6  1  0.14615097  0.14615097  0.14615097  1
  Te  Te7  1  0.85384903  0.50000000  -0.00000000  1
loop_
_geom_bond_atom_site_label_1
_geom_bond_atom_site_label_2
_geom_bond_distance
_geom_bond_site_symmetry_2
Nd0 Te1 3.204951 1_555
Nd0 Te6 3.204951 1_665
Nd0 Te4 3.204952 1_564
Nd0 Te5 3.204952 1_655
Nd0 Te3 3.417260 1_665
Nd0 Te7 3.417260 1_555
Nd0 Te2 3.417260 1_565
Nd0 Te0 3.417260 1_554
Nd1 Te3 3.204952 1_655
Nd1 Te1 3.204952 1_555
Nd1 Te4 3.204952 1_554
Nd1 Te0 3.204952 1_555
Nd1 Te6 3.417260 1_555
Nd1 Te5 3.417260 1_655
Nd1 Te2 3.417260 1_555
Nd1 Te7 3.417260 1_555
Nd2 Te2 3.204952 1_555
Nd2 Te7 3.204952 1_556
Nd2 Te5 3.204952 1_645
Nd2 Te6 3.204952 1_656
Nd2 Te1 3.417260 1_656
Nd2 Te0 3.417260 1_545
Nd2 Te4 3.417260 1_555
Nd2 Te3 3.417260 1_655
Nd3 Te4 3.204951 1_565
Nd3 Te7 3.204951 1_456
Nd3 Te6 3.204952 1_566
Nd3 Te3 3.204952 1_555
Nd3 Te0 3.417260 1_455
Nd3 Te1 3.417260 1_556
Nd3 Te2 3.417260 1_566
Nd3 Te5 3.417260 1_555
Nd4 Te5 3.204951 1_545
Nd4 Te0 3.204951 1_555
Nd4 Te2 3.204952 1_555
Nd4 Te1 3.204952 1_556
Nd4 Te7 3.417260 1_556
Nd4 Te3 3.417260 1_555
Nd4 Te4 3.417260 1_555
Nd4 Te6 3.417260 1_555
Nd5 Te2 3.204951 1_565
Nd5 Te3 3.204951 1_555
Nd5 Te0 3.204952 1_555
Nd5 Te7 3.204952 1_455
Nd5 Te6 3.417260 1_555
Nd5 Te5 3.417260 1_555
Nd5 Te4 3.417260 1_565
Nd5 Te1 3.417260 1_555
