# generated using pymatgen
data_Hg5(SbI3)2
_symmetry_space_group_name_H-M   'P 1'
_cell_length_a   8.29906663
_cell_length_b   10.99064415
_cell_length_c   21.64837844
_cell_angle_alpha   90.00000000
_cell_angle_beta   90.00000000
_cell_angle_gamma   90.00000000
_symmetry_Int_Tables_number   1
_chemical_formula_structural   Hg5(SbI3)2
_chemical_formula_sum   'Hg20 Sb8 I24'
_cell_volume   1974.59380165
_cell_formula_units_Z   4
loop_
 _symmetry_equiv_pos_site_id
 _symmetry_equiv_pos_as_xyz
  1  'x, y, z'
loop_
 _atom_site_type_symbol
 _atom_site_label
 _atom_site_symmetry_multiplicity
 _atom_site_fract_x
 _atom_site_fract_y
 _atom_site_fract_z
 _atom_site_occupancy
  Hg  Hg0  1  0.91037149  0.78123879  0.17495244  1
  Hg  Hg1  1  0.08962851  0.28123879  0.82504756  1
  Hg  Hg2  1  0.58962851  0.78123879  0.67495244  1
  Hg  Hg3  1  0.41037149  0.28123879  0.32504756  1
  Hg  Hg4  1  0.15396868  0.66310953  0.76950862  1
  Hg  Hg5  1  0.84603132  0.16310953  0.23049138  1
  Hg  Hg6  1  0.34603132  0.66310953  0.26950862  1
  Hg  Hg7  1  0.65396868  0.16310953  0.73049138  1
  Hg  Hg8  1  0.95246334  0.50002440  0.60232021  1
  Hg  Hg9  1  0.04753666  0.00002440  0.39767979  1
  Hg  Hg10  1  0.54753666  0.50002440  0.10232021  1
  Hg  Hg11  1  0.45246334  0.00002440  0.89767979  1
  Hg  Hg12  1  0.22974420  0.64205806  0.47941934  1
  Hg  Hg13  1  0.77025580  0.14205806  0.52058066  1
  Hg  Hg14  1  0.27025580  0.64205806  0.97941934  1
  Hg  Hg15  1  0.72974420  0.14205806  0.02058066  1
  Hg  Hg16  1  0.08575285  0.90370687  0.61400707  1
  Hg  Hg17  1  0.91424715  0.40370687  0.38599293  1
  Hg  Hg18  1  0.41424715  0.90370687  0.11400707  1
  Hg  Hg19  1  0.58575285  0.40370687  0.88599293  1
  Sb  Sb0  1  0.22633408  0.50840796  0.08311687  1
  Sb  Sb1  1  0.77366592  0.00840796  0.91688313  1
  Sb  Sb2  1  0.27366592  0.50840796  0.58311687  1
  Sb  Sb3  1  0.72633408  0.00840796  0.41688313  1
  Sb  Sb4  1  0.22298045  0.72234081  0.15868393  1
  Sb  Sb5  1  0.77701955  0.22234081  0.84131607  1
  Sb  Sb6  1  0.27701955  0.72234081  0.65868393  1
  Sb  Sb7  1  0.72298045  0.22234081  0.34131607  1
  I  I0  1  0.79689168  0.78451998  0.55777963  1
  I  I1  1  0.20310832  0.28451998  0.44222037  1
  I  I2  1  0.70310832  0.78451998  0.05777963  1
  I  I3  1  0.29689168  0.28451998  0.94222037  1
  I  I4  1  0.25225151  0.00129940  0.29391145  1
  I  I5  1  0.74774849  0.50129940  0.70608855  1
  I  I6  1  0.24774849  0.00129940  0.79391145  1
  I  I7  1  0.75225151  0.50129940  0.20608855  1
  I  I8  1  0.00457526  0.60657128  0.87670168  1
  I  I9  1  -0.00457526  0.10657128  0.12329832  1
  I  I10  1  0.49542474  0.60657128  0.37670168  1
  I  I11  1  0.50457526  0.10657128  0.62329832  1
  I  I12  1  0.49253794  0.15151838  0.12126117  1
  I  I13  1  0.50746206  0.65151838  0.87873883  1
  I  I14  1  0.00746206  0.15151838  0.62126117  1
  I  I15  1  0.99253794  0.65151838  0.37873883  1
  I  I16  1  0.70848487  0.41325994  0.51209719  1
  I  I17  1  0.29151513  0.91325994  0.48790281  1
  I  I18  1  0.79151513  0.41325994  0.01209719  1
  I  I19  1  0.20848487  0.91325994  0.98790281  1
  I  I20  1  0.31811622  0.37844361  0.74846604  1
  I  I21  1  0.68188378  0.87844361  0.25153396  1
  I  I22  1  0.18188378  0.37844361  0.24846604  1
  I  I23  1  0.81811622  0.87844361  0.75153396  1
loop_
_geom_bond_atom_site_label_1
_geom_bond_atom_site_label_2
_geom_bond_distance
_geom_bond_site_symmetry_2
Hg0 Sb4 2.696996 1_655
Hg0 I21 2.735979 1_555
Hg0 I2 3.065022 1_555
Hg0 I7 3.412111 1_555
Hg1 Sb5 2.696996 1_455
Hg1 I20 2.735979 1_555
Hg1 I3 3.065022 1_555
Hg1 I6 3.412111 1_555
Hg2 Sb6 2.696996 1_555
Hg2 I23 2.735979 1_555
Hg2 I0 3.065022 1_555
Hg2 I5 3.412111 1_555
Hg3 Sb7 2.696996 1_555
Hg3 I22 2.735979 1_555
Hg3 I1 3.065022 1_555
Hg3 I4 3.412111 1_555
Hg4 Sb6 2.687507 1_555
Hg4 I8 2.703382 1_555
Hg4 I20 3.442648 1_555
Hg5 Sb7 2.687507 1_555
Hg5 I9 2.703382 1_655
Hg5 I21 3.442648 1_545
Hg6 Sb4 2.687507 1_555
Hg6 I10 2.703382 1_555
Hg6 I22 3.442648 1_555
Hg7 Sb5 2.687507 1_555
Hg7 I11 2.703382 1_555
Hg7 I23 3.442648 1_545
Hg8 Sb2 2.699476 1_655
Hg8 I5 2.816556 1_555
Hg8 I16 2.970531 1_555
Hg9 Sb3 2.699476 1_455
Hg9 I4 2.816556 1_555
Hg9 I17 2.970531 1_545
Hg10 Sb0 2.699476 1_555
Hg10 I7 2.816556 1_555
Hg10 I18 2.970531 1_555
Hg11 Sb1 2.699476 1_555
Hg11 I6 2.816556 1_555
Hg11 I19 2.970531 1_545
Hg12 Sb2 2.707404 1_555
Hg12 I15 2.938824 1_455
Hg12 I17 3.030017 1_555
Hg12 I10 3.155696 1_555
Hg13 Sb3 2.707404 1_555
Hg13 I14 2.938824 1_655
Hg13 I16 3.030017 1_555
Hg13 I11 3.155696 1_555
Hg14 Sb0 2.707404 1_556
Hg14 I13 2.938824 1_555
Hg14 I19 3.030017 1_555
Hg14 I8 3.155696 1_555
Hg15 Sb1 2.707404 1_554
Hg15 I12 2.938824 1_555
Hg15 I18 3.030017 1_555
Hg15 I9 3.155696 1_655
Hg16 Sb6 2.725516 1_555
Hg16 I14 2.804437 1_565
Hg16 I0 2.990743 1_455
Hg16 I17 3.221751 1_555
Hg17 Sb7 2.725516 1_555
Hg17 I15 2.804437 1_555
Hg17 I1 2.990743 1_655
Hg17 I16 3.221751 1_555
Hg18 Sb4 2.725516 1_555
Hg18 I12 2.804437 1_565
Hg18 I2 2.990743 1_555
Hg18 I19 3.221751 1_554
Hg19 Sb5 2.725516 1_555
Hg19 I13 2.804437 1_555
Hg19 I3 2.990743 1_555
Hg19 I18 3.221751 1_556
Sb0 Sb4 2.864504 1_555
Sb1 Sb5 2.864504 1_555
Sb2 Sb6 2.864504 1_555
Sb3 Sb7 2.864504 1_555
