# generated using pymatgen
data_Ba2Y(CuO2)4
_symmetry_space_group_name_H-M   'P 1'
_cell_length_a   14.70696103
_cell_length_b   14.70696103
_cell_length_c   3.85376200
_cell_angle_alpha   90.00000000
_cell_angle_beta   90.00000000
_cell_angle_gamma   164.89056298
_symmetry_Int_Tables_number   1
_chemical_formula_structural   Ba2Y(CuO2)4
_chemical_formula_sum   'Ba2 Y1 Cu4 O8'
_cell_volume   217.27564013
_cell_formula_units_Z   1
loop_
 _symmetry_equiv_pos_site_id
 _symmetry_equiv_pos_as_xyz
  1  'x, y, z'
loop_
 _atom_site_type_symbol
 _atom_site_label
 _atom_site_symmetry_multiplicity
 _atom_site_fract_x
 _atom_site_fract_y
 _atom_site_fract_z
 _atom_site_occupancy
  Ba  Ba0  1  0.63628100  0.36371900  0.50000000  1
  Ba  Ba1  1  0.36371900  0.63628100  0.50000000  1
  Y  Y0  1  0.00000000  0.00000000  0.00000000  1
  Cu  Cu0  1  0.78535400  0.21464600  0.00000000  1
  Cu  Cu1  1  0.08283200  0.91716800  0.00000000  1
  Cu  Cu2  1  0.21464600  0.78535400  0.00000000  1
  Cu  Cu3  1  0.91716800  0.08283200  0.00000000  1
  O  O0  1  0.15061700  0.84938300  0.00000000  1
  O  O1  1  0.05822800  0.94177200  0.50000000  1
  O  O2  1  0.94177200  0.05822800  0.50000000  1
  O  O3  1  0.55744800  0.44255200  0.00000000  1
  O  O4  1  0.72061500  0.27938500  0.00000000  1
  O  O5  1  0.44255200  0.55744800  0.00000000  1
  O  O6  1  0.84938300  0.15061700  0.00000000  1
  O  O7  1  0.27938500  0.72061500  0.00000000  1
loop_
_geom_bond_atom_site_label_1
_geom_bond_atom_site_label_2
_geom_bond_distance
_geom_bond_site_symmetry_2
Ba0 O0 2.761575 1_656
Ba0 O0 2.761575 1_546
Ba0 O0 2.761575 1_655
Ba0 O0 2.761575 1_545
Ba0 O1 2.986383 1_545
Ba0 O1 2.986383 1_655
Ba0 O3 2.999451 1_555
Ba0 O3 2.999451 1_556
Ba0 O4 3.124077 1_555
Ba0 O4 3.124077 1_556
Ba1 O6 2.761575 1_566
Ba1 O6 2.761575 1_565
Ba1 O6 2.761575 1_456
Ba1 O6 2.761575 1_455
Ba1 O2 2.986383 1_455
Ba1 O2 2.986383 1_565
Ba1 O5 2.999451 1_555
Ba1 O5 2.999451 1_556
Ba1 O7 3.124077 1_556
Ba1 O7 3.124077 1_555
Cu0 O6 1.866996 1_555
Cu0 O4 1.887699 1_555
Cu0 O7 1.941386 1_655
Cu0 O7 1.941386 1_545
Cu1 O0 1.976516 1_555
Cu1 O1 2.056103 1_554
Cu1 O1 2.056103 1_555
Cu1 O3 2.070392 1_455
Cu1 O3 2.070392 1_565
Cu1 Y0 2.415265 1_565
Cu2 O0 1.866996 1_555
Cu2 O7 1.887699 1_555
Cu2 O4 1.941386 1_565
Cu2 O4 1.941386 1_455
Cu3 O6 1.976516 1_555
Cu3 O2 2.056103 1_555
Cu3 O2 2.056103 1_554
Cu3 O5 2.070392 1_545
Cu3 O5 2.070392 1_655
Cu3 Y0 2.415265 1_655
O1 Y0 2.568181 1_565
O1 Y0 2.568181 1_566
O2 Y0 2.568181 1_656
O2 Y0 2.568181 1_655
O3 Y0 2.558253 1_665
O3 Y0 2.558253 1_555
O5 Y0 2.558253 1_665
O5 Y0 2.558253 1_555
