# generated using pymatgen
data_Na6Ta4Zn2Si3(PO6)6
_symmetry_space_group_name_H-M   'P 1'
_cell_length_a   8.93581689
_cell_length_b   8.93581659
_cell_length_c   22.49988499
_cell_angle_alpha   90.14706053
_cell_angle_beta   89.85293947
_cell_angle_gamma   120.29318023
_symmetry_Int_Tables_number   1
_chemical_formula_structural   Na6Ta4Zn2Si3(PO6)6
_chemical_formula_sum   'Na12 Ta8 Zn4 Si6 P12 O72'
_cell_volume   1551.26828098
_cell_formula_units_Z   2
loop_
 _symmetry_equiv_pos_site_id
 _symmetry_equiv_pos_as_xyz
  1  'x, y, z'
loop_
 _atom_site_type_symbol
 _atom_site_label
 _atom_site_symmetry_multiplicity
 _atom_site_fract_x
 _atom_site_fract_y
 _atom_site_fract_z
 _atom_site_occupancy
  Na  Na0  1  0.36990180  0.35659251  0.24287665  1
  Na  Na1  1  0.98179129  0.62766401  0.24125937  1
  Na  Na2  1  0.64340749  0.63009820  0.74287665  1
  Na  Na3  1  0.37233599  0.01820871  0.74125937  1
  Na  Na4  1  0.71382444  0.03360703  0.91205606  1
  Na  Na5  1  0.96639297  0.28617556  0.41205606  1
  Na  Na6  1  0.00641629  0.99139439  0.49198657  1
  Na  Na7  1  0.00860561  0.99358371  0.99198657  1
  Na  Na8  1  0.68221750  0.34672318  0.82566577  1
  Na  Na9  1  0.65327682  0.31778250  0.32566577  1
  Na  Na10  1  0.34570834  0.69154726  0.16224569  1
  Na  Na11  1  0.30845274  0.65429166  0.66224569  1
  Ta  Ta0  1  0.00205844  0.00484395  0.64388016  1
  Ta  Ta1  1  0.99515605  0.99794156  0.14388016  1
  Ta  Ta2  1  0.66965535  0.34079907  0.98197257  1
  Ta  Ta3  1  0.65920093  0.33034465  0.48197257  1
  Ta  Ta4  1  0.33719967  0.66844034  0.02170601  1
  Ta  Ta5  1  0.33155966  0.66280033  0.52170601  1
  Ta  Ta6  1  0.34022192  0.67061170  0.31238832  1
  Ta  Ta7  1  0.32938830  0.65977808  0.81238832  1
  Zn  Zn0  1  0.00807558  0.00014402  0.35417855  1
  Zn  Zn1  1  0.99985598  0.99192442  0.85417855  1
  Zn  Zn2  1  0.67506241  0.32818814  0.67896100  1
  Zn  Zn3  1  0.67181186  0.32493759  0.17896100  1
  Si  Si0  1  0.95334703  0.33277963  0.58427497  1
  Si  Si1  1  0.37536503  0.04060349  0.58804346  1
  Si  Si2  1  0.95939651  0.62463497  0.08804346  1
  Si  Si3  1  0.66722037  0.04665297  0.08427497  1
  Si  Si4  1  0.62627396  0.66181983  0.91557236  1
  Si  Si5  1  0.33818017  0.37372604  0.41557236  1
  P  P0  1  0.29108986  0.00286969  0.25130762  1
  P  P1  1  0.71284633  0.71619605  0.25256265  1
  P  P2  1  0.99737294  0.28905057  0.25436448  1
  P  P3  1  0.28380395  0.28715367  0.75256265  1
  P  P4  1  0.99713031  0.70891014  0.75130762  1
  P  P5  1  0.71094943  0.00262706  0.75436448  1
  P  P6  1  0.66574611  0.62358850  0.58606570  1
  P  P7  1  0.37641150  0.33425389  0.08606570  1
  P  P8  1  0.04181302  0.37848202  0.91803890  1
  P  P9  1  0.33379267  0.95625687  0.91692910  1
  P  P10  1  0.62151798  0.95818698  0.41803890  1
  P  P11  1  0.04374314  0.66620733  0.41692910  1
  O  O0  1  0.20973351  0.02689425  0.30682772  1
  O  O1  1  0.82262230  0.79920523  0.30666011  1
  O  O2  1  0.98436951  0.19598392  0.31193851  1
  O  O3  1  0.20079477  0.17737770  0.80666011  1
  O  O4  1  0.97310575  0.79026649  0.80682772  1
  O  O5  1  0.80401608  0.01563049  0.81193851  1
  O  O6  1  0.80167882  0.97081221  0.69942787  1
  O  O7  1  0.17227044  0.19783678  0.69513262  1
  O  O8  1  0.02929119  0.83044589  0.69591462  1
  O  O9  1  0.80216322  0.82772956  0.19513262  1
  O  O10  1  0.02918779  0.19832118  0.19942787  1
  O  O11  1  0.16955411  0.97070881  0.19591462  1
  O  O12  1  0.88725560  0.38095939  0.64176817  1
  O  O13  1  0.47586961  0.11174060  0.64868262  1
  O  O14  1  0.62619666  0.52182749  0.64299960  1
  O  O15  1  0.88825940  0.52413039  0.14868262  1
  O  O16  1  0.61904061  0.11274440  0.14176817  1
  O  O17  1  0.47817251  0.37380334  0.14299960  1
  O  O18  1  0.46928949  0.30553690  0.03121647  1
  O  O19  1  0.82992848  0.52458454  0.03004662  1
  O  O20  1  0.69423553  0.16258864  0.02325918  1
  O  O21  1  0.47541546  0.17007152  0.53004662  1
  O  O22  1  0.69446310  0.53071051  0.53121647  1
  O  O23  1  0.83741136  0.30576447  0.52325918  1
  O  O24  1  0.51240681  0.67526156  0.97030697  1
  O  O25  1  0.15033328  0.47674916  0.97197587  1
  O  O26  1  0.31990272  0.84186129  0.97084451  1
  O  O27  1  0.52325084  0.84966672  0.47197587  1
  O  O28  1  0.32473844  0.48759319  0.47030697  1
  O  O29  1  0.15813871  0.68009728  0.47084451  1
  O  O30  1  0.13579192  0.64135368  0.36007025  1
  O  O31  1  0.50621400  0.86752257  0.36135290  1
  O  O32  1  0.36160436  0.49814204  0.35576346  1
  O  O33  1  0.13247743  0.49378600  0.86135290  1
  O  O34  1  0.35864632  0.86420808  0.86007025  1
  O  O35  1  0.50185796  0.63839564  0.85576346  1
  O  O36  1  0.02302925  0.82191748  0.41413510  1
  O  O37  1  0.79980953  0.98060931  0.41429196  1
  O  O38  1  0.16369734  0.19174902  0.41477639  1
  O  O39  1  0.01939069  0.20019047  0.91429196  1
  O  O40  1  0.17808252  0.97697075  0.91413510  1
  O  O41  1  0.80825098  0.83630266  0.91477639  1
  O  O42  1  0.96786840  0.15552992  0.59220254  1
  O  O43  1  0.18103721  0.02081247  0.59118961  1
  O  O44  1  0.83158985  0.80538984  0.59085228  1
  O  O45  1  0.97918753  0.81896279  0.09118961  1
  O  O46  1  0.84447008  0.03213160  0.09220254  1
  O  O47  1  0.19461016  0.16841015  0.09085228  1
  O  O48  1  0.67424617  0.15012286  0.74834548  1
  O  O49  1  0.46991855  0.32554543  0.74595135  1
  O  O50  1  0.84031853  0.52942214  0.74358085  1
  O  O51  1  0.67445457  0.53008145  0.24595135  1
  O  O52  1  0.84987714  0.32575383  0.24834548  1
  O  O53  1  0.47057786  0.15968147  0.24358085  1
  O  O54  1  0.63348146  0.48254986  0.92268325  1
  O  O55  1  0.85986565  0.36469314  0.92203307  1
  O  O56  1  0.50821296  0.13083129  0.92183024  1
  O  O57  1  0.63530686  0.14013435  0.42203307  1
  O  O58  1  0.51745014  0.36651854  0.42268325  1
  O  O59  1  0.86916871  0.49178704  0.42183024  1
  O  O60  1  0.34561037  0.48634981  0.07183736  1
  O  O61  1  0.15117634  0.65159566  0.07331646  1
  O  O62  1  0.50781334  0.84631086  0.07180513  1
  O  O63  1  0.34840434  0.84882366  0.57331646  1
  O  O64  1  0.51365019  0.65438963  0.57183736  1
  O  O65  1  0.15368914  0.49218666  0.57180513  1
  O  O66  1  0.29726948  0.82728658  0.25583587  1
  O  O67  1  0.52885112  0.70615878  0.25578208  1
  O  O68  1  0.17529740  0.47751829  0.25569395  1
  O  O69  1  0.29384122  0.47114888  0.75578208  1
  O  O70  1  0.17271342  0.70273052  0.75583587  1
  O  O71  1  0.52248171  0.82470260  0.75569395  1
loop_
_geom_bond_atom_site_label_1
_geom_bond_atom_site_label_2
_geom_bond_distance
_geom_bond_site_symmetry_2
Na0 O53 2.345803 1_555
Na0 O51 2.357631 1_555
Na0 O17 2.418718 1_555
Na0 O68 2.483195 1_555
Na0 O67 2.716702 1_555
Na0 O10 2.808812 1_555
Na0 O32 2.851985 1_555
Na0 O0 2.925024 1_555
Na1 O15 2.261011 1_555
Na1 O52 2.342247 1_555
Na1 O51 2.428323 1_555
Na1 O66 2.482979 1_655
Na1 O68 2.690923 1_655
Na1 O11 2.840980 1_655
Na1 O1 2.952138 1_555
Na1 O30 2.983658 1_655
Na2 O50 2.345803 1_555
Na2 O49 2.357631 1_555
Na2 O14 2.418718 1_555
Na2 O71 2.483195 1_555
Na2 O69 2.716702 1_555
Na2 O6 2.808812 1_555
Na2 O35 2.851985 1_555
Na2 O4 2.925024 1_555
Na3 O13 2.261011 1_555
Na3 O48 2.342247 1_555
Na3 O49 2.428323 1_555
Na3 O70 2.482979 1_545
Na3 O71 2.690923 1_545
Na3 O8 2.840980 1_545
Na3 O3 2.952138 1_555
Na3 O34 2.983658 1_545
Na4 O41 2.307764 1_545
Na4 O39 2.360878 1_655
Na4 O56 2.405435 1_555
Na4 O5 2.422627 1_555
Na4 O55 2.570863 1_555
Na4 O20 2.793886 1_556
Na5 O38 2.307764 1_655
Na5 O37 2.360878 1_545
Na5 O59 2.405435 1_555
Na5 O2 2.422627 1_555
Na5 O57 2.570864 1_555
Na5 O23 2.793886 1_555
Na6 O36 2.365506 1_555
Na6 O38 2.379798 1_565
Na6 O37 2.511945 1_455
Na6 O43 2.662146 1_565
Na6 O44 2.744623 1_455
Na6 O42 2.800513 1_465
Na7 O40 2.365506 1_555
Na7 O41 2.379798 1_455
Na7 O39 2.511945 1_565
Na7 O45 2.662146 1_456
Na7 O47 2.744623 1_566
Na7 O46 2.800513 1_466
Na8 O50 2.397385 1_555
Na8 O48 2.444712 1_555
Na8 O49 2.550507 1_555
Na8 O54 2.634867 1_555
Na8 O55 2.646841 1_555
Na8 O56 2.792647 1_555
Na9 O53 2.397385 1_555
Na9 O52 2.444712 1_555
Na9 O51 2.550507 1_555
Na9 O58 2.634867 1_555
Na9 O57 2.646841 1_555
Na9 O59 2.792647 1_555
Na10 O62 2.475876 1_555
Na10 O61 2.557510 1_555
Na10 O66 2.569962 1_555
Na10 O67 2.631567 1_555
Na10 O68 2.731938 1_555
Na10 O60 2.734819 1_555
Na11 O65 2.475876 1_555
Na11 O63 2.557510 1_555
Na11 O70 2.569962 1_555
Na11 O69 2.631567 1_555
Na11 O71 2.731938 1_555
Na11 O64 2.734819 1_555
O0 P0 1.512117 1_555
O0 Zn0 1.999055 1_555
O1 P1 1.503803 1_555
O1 Zn0 2.027487 1_665
O2 P2 1.513426 1_555
O2 Zn0 2.096222 1_655
O3 P3 1.503803 1_555
O3 Zn1 2.027487 1_445
O4 P4 1.512117 1_555
O4 Zn1 1.999055 1_555
O5 P5 1.513426 1_555
O5 Zn1 2.096222 1_545
O6 P5 1.578469 1_565
O6 Ta0 2.074065 1_665
O7 P3 1.580769 1_555
O7 Ta0 1.992446 1_555
O8 P4 1.582918 1_455
O8 Ta0 2.062016 1_565
O9 P1 1.580769 1_555
O9 Ta1 1.992446 1_555
O10 P2 1.578469 1_455
O10 Ta1 2.074065 1_445
O11 P0 1.582918 1_565
O11 Ta1 2.062016 1_455
O12 Si0 1.567560 1_555
O12 Zn2 1.899939 1_555
O13 Si1 1.580524 1_555
O13 Zn2 1.974727 1_555
O14 P6 1.507377 1_555
O14 Zn2 2.147237 1_555
O15 Si2 1.580524 1_555
O15 Zn3 1.974727 1_555
O16 Si3 1.567560 1_555
O16 Zn3 1.899939 1_555
O17 P7 1.507377 1_555
O17 Zn3 2.147237 1_555
O18 P7 1.576588 1_555
O18 Ta2 1.988722 1_554
O19 Si2 1.672973 1_555
O19 Ta2 1.882596 1_554
O20 Si3 1.664194 1_555
O20 Ta2 1.951565 1_554
O21 Si1 1.672973 1_555
O21 Ta3 1.882596 1_555
O22 P6 1.576588 1_555
O22 Ta3 1.988722 1_555
O23 Si0 1.664194 1_555
O23 Ta3 1.951565 1_555
O24 Si4 1.637827 1_555
O24 Ta4 1.920182 1_556
O25 P8 1.525025 1_555
O25 Ta4 2.022009 1_556
O26 P9 1.552262 1_555
O26 Ta4 1.996642 1_556
O27 P10 1.525025 1_555
O27 Ta5 2.022009 1_555
O28 Si5 1.637827 1_555
O28 Ta5 1.920182 1_555
O29 P11 1.552262 1_555
O29 Ta5 1.996642 1_555
O30 P11 1.593726 1_555
O30 Ta6 2.016409 1_555
O31 P10 1.582399 1_555
O31 Ta6 1.968584 1_555
O32 Si5 1.691797 1_555
O32 Ta6 1.915692 1_555
O33 P8 1.582399 1_555
O33 Ta7 1.968584 1_555
O34 P9 1.593727 1_555
O34 Ta7 2.016409 1_555
O35 Si4 1.691797 1_555
O35 Ta7 1.915692 1_555
O36 P11 1.494834 1_555
O36 Zn0 2.144928 1_565
O37 P10 1.504273 1_555
O37 Zn0 2.232449 1_665
O38 Si5 1.586730 1_555
O38 Zn0 2.078454 1_555
O39 P8 1.504273 1_555
O39 Zn1 2.232449 1_445
O40 P9 1.494834 1_555
O40 Zn1 2.144928 1_455
O41 Si4 1.586730 1_555
O41 Zn1 2.078454 1_555
O42 Si0 1.663193 1_555
O42 Ta0 1.919180 1_655
O43 Si1 1.655676 1_555
O43 Ta0 1.935092 1_555
O44 P6 1.555004 1_555
O44 Ta0 2.044486 1_665
O45 Si2 1.655676 1_555
O45 Ta1 1.935092 1_555
O46 Si3 1.663193 1_555
O46 Ta1 1.919180 1_545
O47 P7 1.555004 1_555
O47 Ta1 2.044486 1_445
O48 P5 1.516660 1_555
O48 Zn2 2.229348 1_555
O49 P3 1.526131 1_555
O49 Zn2 2.361169 1_555
O50 P4 1.516122 1_555
O50 Zn2 2.201541 1_555
O51 P1 1.526131 1_555
O51 Zn3 2.361169 1_555
O52 P2 1.516660 1_555
O52 Zn3 2.229348 1_555
O53 P0 1.516122 1_555
O53 Zn3 2.201541 1_555
O54 Si4 1.643581 1_555
O54 Ta2 1.977985 1_555
O55 P8 1.569664 1_655
O55 Ta2 2.092108 1_555
O56 P9 1.556274 1_545
O56 Ta2 2.167691 1_555
O57 P10 1.569664 1_545
O57 Ta3 2.092108 1_555
O58 Si5 1.643581 1_555
O58 Ta3 1.977985 1_555
O59 P11 1.556274 1_655
O59 Ta3 2.167691 1_555
O60 P7 1.550955 1_555
O60 Ta4 2.014619 1_555
O61 Si2 1.638786 1_455
O61 Ta4 1.967948 1_555
O62 Si3 1.655136 1_565
O62 Ta4 1.917343 1_555
O63 Si1 1.638786 1_565
O63 Ta5 1.967948 1_555
O64 P6 1.550955 1_555
O64 Ta5 2.014619 1_555
O65 Si0 1.655136 1_455
O65 Ta5 1.917343 1_555
O66 P0 1.601055 1_565
O66 Ta6 2.068860 1_555
O67 P1 1.602237 1_555
O67 Ta6 2.003760 1_555
O68 P2 1.632064 1_455
O68 Ta6 2.051648 1_555
O69 P3 1.602237 1_555
O69 Ta7 2.003760 1_555
O70 P4 1.601055 1_455
O70 Ta7 2.068860 1_555
O71 P5 1.632064 1_565
O71 Ta7 2.051648 1_555
