# generated using pymatgen
data_GaTeCl
_symmetry_space_group_name_H-M   'P 1'
_cell_length_a   4.11089761
_cell_length_b   5.90537728
_cell_length_c   14.88708005
_cell_angle_alpha   90.00000000
_cell_angle_beta   90.00000000
_cell_angle_gamma   90.00000000
_symmetry_Int_Tables_number   1
_chemical_formula_structural   GaTeCl
_chemical_formula_sum   'Ga4 Te4 Cl4'
_cell_volume   361.40473017
_cell_formula_units_Z   4
loop_
 _symmetry_equiv_pos_site_id
 _symmetry_equiv_pos_as_xyz
  1  'x, y, z'
loop_
 _atom_site_type_symbol
 _atom_site_label
 _atom_site_symmetry_multiplicity
 _atom_site_fract_x
 _atom_site_fract_y
 _atom_site_fract_z
 _atom_site_occupancy
  Ga  Ga0  1  0.50000000  0.52587068  0.18885108  1
  Ga  Ga1  1  -0.00000000  0.97412932  0.68885108  1
  Ga  Ga2  1  -0.00000000  0.02587068  0.31114892  1
  Ga  Ga3  1  0.50000000  0.47412932  0.81114892  1
  Te  Te0  1  0.50000000  0.24776184  0.65829585  1
  Te  Te1  1  0.00000000  0.74776184  0.84170415  1
  Te  Te2  1  0.00000000  0.25223816  0.15829585  1
  Te  Te3  1  0.50000000  0.75223816  0.34170415  1
  Cl  Cl0  1  0.50000000  0.23501758  0.92326596  1
  Cl  Cl1  1  0.00000000  0.73501758  0.57673404  1
  Cl  Cl2  1  0.50000000  0.76498242  0.07673404  1
  Cl  Cl3  1  0.00000000  0.26498242  0.42326596  1
loop_
_geom_bond_atom_site_label_1
_geom_bond_atom_site_label_2
_geom_bond_distance
_geom_bond_site_symmetry_2
Ga0 Te3 2.639140 1_555
Ga0 Te2 2.653851 1_555
Ga0 Te2 2.653851 1_655
Ga1 Te1 2.639140 1_555
Ga1 Te0 2.653851 1_465
Ga1 Te0 2.653851 1_565
Ga2 Te2 2.639140 1_555
Ga2 Te3 2.653851 1_445
Ga2 Te3 2.653851 1_545
Ga3 Te0 2.639140 1_555
Ga3 Te1 2.653851 1_655
Ga3 Te1 2.653851 1_555
Cl0 Ga3 2.186264 1_555
Cl1 Ga1 2.186264 1_555
Cl2 Ga0 2.186264 1_555
Cl3 Ga2 2.186264 1_555
