# generated using pymatgen
data_MgCd2(CoO2)4
_symmetry_space_group_name_H-M   'P 1'
_cell_length_a   7.24948486
_cell_length_b   6.50975826
_cell_length_c   7.24948486
_cell_angle_alpha   56.16406640
_cell_angle_beta   90.00000000
_cell_angle_gamma   123.83593360
_symmetry_Int_Tables_number   1
_chemical_formula_structural   MgCd2(CoO2)4
_chemical_formula_sum   'Mg1 Cd2 Co4 O8'
_cell_volume   210.87240340
_cell_formula_units_Z   1
loop_
 _symmetry_equiv_pos_site_id
 _symmetry_equiv_pos_as_xyz
  1  'x, y, z'
loop_
 _atom_site_type_symbol
 _atom_site_label
 _atom_site_symmetry_multiplicity
 _atom_site_fract_x
 _atom_site_fract_y
 _atom_site_fract_z
 _atom_site_occupancy
  Mg  Mg0  1  0.50000000  0.00000000  0.50000000  1
  Cd  Cd0  1  -0.00000000  0.00000000  -0.00000000  1
  Cd  Cd1  1  0.75000000  0.50000000  0.75000000  1
  Co  Co0  1  0.30189753  0.24863635  0.37568183  1
  Co  Co1  1  0.94673882  0.24863635  0.37568183  1
  Co  Co2  1  0.37568183  0.75136365  0.30189753  1
  Co  Co3  1  0.37568183  0.75136365  0.94673882  1
  O  O0  1  0.14080374  0.28160648  0.13775457  1
  O  O1  1  0.59409114  0.18818328  0.15780699  1
  O  O2  1  0.58063995  0.71839352  0.14080374  1
  O  O3  1  0.13775457  0.71839352  0.14080374  1
  O  O4  1  0.59409114  0.18818328  0.65400873  1
  O  O5  1  0.14080374  0.28160648  0.58063995  1
  O  O6  1  0.15780699  0.81181672  0.59409114  1
  O  O7  1  0.65400873  0.81181672  0.59409114  1
loop_
_geom_bond_atom_site_label_1
_geom_bond_atom_site_label_2
_geom_bond_distance
_geom_bond_site_symmetry_2
Mg0 O7 1.950664 1_545
Mg0 O4 1.950664 1_555
Mg0 O1 1.950671 1_555
Mg0 O6 1.950671 1_545
Cd0 O2 2.314016 1_445
Cd0 O5 2.314016 1_554
Cd0 O0 2.314022 1_555
Cd0 O3 2.314022 1_545
Cd1 O1 2.213620 1_556
Cd1 O6 2.213620 1_655
Cd1 O4 2.213626 1_555
Cd1 O7 2.213626 1_555
Co0 O6 1.833640 1_545
Co0 O2 1.911495 1_555
Co0 O0 2.062015 1_555
Co0 O5 2.062021 1_555
Co1 O7 1.833643 1_545
Co1 O3 1.911493 1_655
Co1 O0 2.062020 1_655
Co1 O5 2.062025 1_655
Co2 O1 1.833640 1_565
Co2 O5 1.911495 1_555
Co2 O3 2.062015 1_555
Co2 O2 2.062021 1_555
Co3 O4 1.833643 1_565
Co3 O0 1.911493 1_556
Co3 O3 2.062020 1_556
Co3 O2 2.062025 1_556
