# generated using pymatgen
data_K2La2MgTi3O10
_symmetry_space_group_name_H-M   'P 1'
_cell_length_a   3.96371021
_cell_length_b   3.96370901
_cell_length_c   14.80746041
_cell_angle_alpha   97.69164592
_cell_angle_beta   97.69164447
_cell_angle_gamma   89.99999181
_symmetry_Int_Tables_number   1
_chemical_formula_structural   K2La2MgTi3O10
_chemical_formula_sum   'K2 La2 Mg1 Ti3 O10'
_cell_volume   228.43449248
_cell_formula_units_Z   1
loop_
 _symmetry_equiv_pos_site_id
 _symmetry_equiv_pos_as_xyz
  1  'x, y, z'
loop_
 _atom_site_type_symbol
 _atom_site_label
 _atom_site_symmetry_multiplicity
 _atom_site_fract_x
 _atom_site_fract_y
 _atom_site_fract_z
 _atom_site_occupancy
  K  K0  1  0.31067600  0.31067600  0.62135300  1
  K  K1  1  0.68932400  0.68932400  0.37864700  1
  La  La0  1  0.43046700  0.43046700  0.86093400  1
  La  La1  1  0.56953300  0.56953300  0.13906600  1
  Mg  Mg0  1  0.75000000  0.25000000  0.50000000  1
  Ti  Ti0  1  0.13572200  0.13572200  0.27144200  1
  Ti  Ti1  1  0.86427800  0.86427800  0.72855800  1
  Ti  Ti2  1  0.00000000  0.00000000  0.00000000  1
  O  O0  1  0.78681300  0.78681300  0.57362500  1
  O  O1  1  0.21318700  0.21318700  0.42637500  1
  O  O2  1  0.86819200  0.36819200  0.73638300  1
  O  O3  1  0.37098600  0.87098600  0.74197300  1
  O  O4  1  0.12901400  0.62901400  0.25802700  1
  O  O5  1  0.63180800  0.13180800  0.26361600  1
  O  O6  1  0.93231500  0.93231500  0.86462900  1
  O  O7  1  0.49997200  0.99997200  0.99994500  1
  O  O8  1  0.00002800  0.50002800  0.00005500  1
  O  O9  1  0.06768500  0.06768500  0.13537100  1
loop_
_geom_bond_atom_site_label_1
_geom_bond_atom_site_label_2
_geom_bond_distance
_geom_bond_site_symmetry_2
K0 O2 2.593266 1_455
K0 O2 2.593272 1_555
K0 O3 2.646417 1_555
K0 O3 2.646417 1_545
K0 Mg0 2.653491 1_455
K0 Mg0 2.653494 1_555
K0 O1 2.834938 1_555
K0 O0 2.887393 1_445
K0 O0 2.887398 1_545
K0 O0 2.887398 1_455
K0 O0 2.887404 1_555
K1 O5 2.593277 1_565
K1 O5 2.593279 1_555
K1 O4 2.646417 1_655
K1 O4 2.646418 1_555
K1 Mg0 2.653490 1_565
K1 Mg0 2.653493 1_555
K1 O0 2.834938 1_555
K1 O1 2.887393 1_665
K1 O1 2.887398 1_565
K1 O1 2.887398 1_655
K1 O1 2.887404 1_555
La0 O3 2.630492 1_555
La0 O3 2.630495 1_545
La0 O2 2.684635 1_455
La0 O2 2.684638 1_555
La0 O6 2.803278 1_445
La0 O6 2.803281 1_455
La0 O6 2.803281 1_545
La0 O6 2.803284 1_555
La0 O7 2.830715 1_555
La0 O7 2.830718 1_545
La0 O8 2.831858 1_556
La0 O8 2.831861 1_656
La1 O4 2.630493 1_555
La1 O4 2.630496 1_655
La1 O5 2.684626 1_565
La1 O5 2.684626 1_555
La1 O9 2.803278 1_665
La1 O9 2.803281 1_655
La1 O9 2.803281 1_565
La1 O9 2.803284 1_555
La1 O8 2.830716 1_555
La1 O8 2.830719 1_655
La1 O7 2.831858 1_554
La1 O7 2.831860 1_544
Mg0 O0 2.252486 1_545
Mg0 O1 2.252486 1_655
Mg0 O0 2.252489 1_555
Mg0 O1 2.252490 1_555
O0 Ti1 2.252693 1_555
O1 Ti0 2.252693 1_555
O2 Ti1 1.985112 1_555
O2 Ti1 1.985124 1_545
O3 Ti1 1.991428 1_555
O3 Ti1 1.991432 1_455
O4 Ti0 1.991428 1_555
O4 Ti0 1.991432 1_565
O5 Ti0 1.985115 1_555
O5 Ti0 1.985123 1_655
O6 Ti2 1.968265 1_666
O6 Ti1 1.978443 1_555
O7 Ti2 1.981853 1_566
O7 Ti2 1.981857 1_666
O8 Ti2 1.981853 1_565
O8 Ti2 1.981857 1_555
O9 Ti2 1.968265 1_555
O9 Ti0 1.978443 1_555
