# generated using pymatgen
data_Fe3Sn
_symmetry_space_group_name_H-M   'P 1'
_cell_length_a   4.31041800
_cell_length_b   5.48658972
_cell_length_c   5.48658972
_cell_angle_alpha   119.99999666
_cell_angle_beta   90.00000000
_cell_angle_gamma   90.00000000
_symmetry_Int_Tables_number   1
_chemical_formula_structural   Fe3Sn
_chemical_formula_sum   'Fe6 Sn2'
_cell_volume   112.37119653
_cell_formula_units_Z   2
loop_
 _symmetry_equiv_pos_site_id
 _symmetry_equiv_pos_as_xyz
  1  'x, y, z'
loop_
 _atom_site_type_symbol
 _atom_site_label
 _atom_site_symmetry_multiplicity
 _atom_site_fract_x
 _atom_site_fract_y
 _atom_site_fract_z
 _atom_site_occupancy
  Fe  Fe0  1  0.75000000  0.84923100  0.15076900  1
  Fe  Fe1  1  0.75000000  0.30153700  0.15076900  1
  Fe  Fe2  1  0.75000000  0.84923100  0.69846300  1
  Fe  Fe3  1  0.25000000  0.15076900  0.84923100  1
  Fe  Fe4  1  0.25000000  0.69846300  0.84923100  1
  Fe  Fe5  1  0.25000000  0.15076900  0.30153700  1
  Sn  Sn0  1  0.75000000  0.33333300  0.66666700  1
  Sn  Sn1  1  0.25000000  0.66666700  0.33333300  1
loop_
_geom_bond_atom_site_label_1
_geom_bond_atom_site_label_2
_geom_bond_distance
_geom_bond_site_symmetry_2
Fe0 Fe2 2.481617 1_554
Fe0 Fe1 2.481617 1_565
Fe0 Fe4 2.588000 1_554
Fe0 Fe5 2.588000 1_565
Fe0 Fe5 2.588000 1_665
Fe0 Fe4 2.588000 1_654
Fe0 Sn0 2.747452 1_554
Fe0 Sn0 2.747452 1_565
Fe0 Sn1 2.766741 1_555
Fe0 Sn1 2.766741 1_655
Fe0 Fe1 3.004972 1_555
Fe0 Fe2 3.004972 1_555
Fe1 Fe2 2.481618 1_544
Fe1 Fe5 2.587995 1_555
Fe1 Fe5 2.587995 1_655
Fe1 Fe3 2.588000 1_654
Fe1 Fe3 2.588000 1_554
Fe1 Sn0 2.747452 1_554
Fe1 Sn0 2.747452 1_555
Fe1 Sn1 2.766747 1_655
Fe1 Sn1 2.766747 1_555
Fe1 Fe2 3.004972 1_555
Fe2 Fe4 2.587995 1_655
Fe2 Fe4 2.587995 1_555
Fe2 Fe3 2.588000 1_565
Fe2 Fe3 2.588000 1_665
Fe2 Sn0 2.747452 1_565
Fe2 Sn0 2.747452 1_555
Fe2 Sn1 2.766747 1_655
Fe2 Sn1 2.766747 1_555
Fe3 Fe5 2.481617 1_556
Fe3 Fe4 2.481617 1_545
Fe3 Sn1 2.747452 1_545
Fe3 Sn1 2.747452 1_556
Fe3 Sn0 2.766741 1_555
Fe3 Sn0 2.766741 1_455
Fe3 Fe5 3.004972 1_555
Fe3 Fe4 3.004972 1_555
Fe4 Fe5 2.481618 1_566
Fe4 Sn1 2.747452 1_556
Fe4 Sn1 2.747452 1_555
Fe4 Sn0 2.766747 1_455
Fe4 Sn0 2.766747 1_555
Fe4 Fe5 3.004972 1_555
Fe5 Sn1 2.747452 1_545
Fe5 Sn1 2.747452 1_555
Fe5 Sn0 2.766747 1_455
Fe5 Sn0 2.766747 1_555
