# generated using pymatgen
data_MgCu4As2(ClO4)2
_symmetry_space_group_name_H-M   'P 1'
_cell_length_a   4.84103753
_cell_length_b   7.35573735
_cell_length_c   6.64998946
_cell_angle_alpha   93.46459333
_cell_angle_beta   91.48057118
_cell_angle_gamma   93.80710827
_symmetry_Int_Tables_number   1
_chemical_formula_structural   MgCu4As2(ClO4)2
_chemical_formula_sum   'Mg1 Cu4 As2 Cl2 O8'
_cell_volume   235.74177973
_cell_formula_units_Z   1
loop_
 _symmetry_equiv_pos_site_id
 _symmetry_equiv_pos_as_xyz
  1  'x, y, z'
loop_
 _atom_site_type_symbol
 _atom_site_label
 _atom_site_symmetry_multiplicity
 _atom_site_fract_x
 _atom_site_fract_y
 _atom_site_fract_z
 _atom_site_occupancy
  Mg  Mg0  1  0.00000000  0.00000000  0.50000000  1
  Cu  Cu0  1  0.36970700  0.28781300  0.28314300  1
  Cu  Cu1  1  0.63029300  0.71218700  0.71685700  1
  Cu  Cu2  1  0.00000000  0.00000000  0.00000000  1
  Cu  Cu3  1  0.00000000  0.50000000  0.00000000  1
  As  As0  1  0.46999600  0.76970800  0.22261100  1
  As  As1  1  0.53000400  0.23029200  0.77738900  1
  Cl  Cl0  1  0.84528000  0.26251700  0.28709800  1
  Cl  Cl1  1  0.15472000  0.73748300  0.71290200  1
  O  O0  1  0.30193000  0.55476600  0.19286700  1
  O  O1  1  0.78502700  0.07368700  0.75830200  1
  O  O2  1  0.68898200  0.80315400  0.02262400  1
  O  O3  1  0.21497300  0.92631300  0.24169800  1
  O  O4  1  0.32055700  0.20035700  0.56291000  1
  O  O5  1  0.67944300  0.79964300  0.43709000  1
  O  O6  1  0.69807000  0.44523400  0.80713300  1
  O  O7  1  0.31101800  0.19684600  0.97737600  1
loop_
_geom_bond_atom_site_label_1
_geom_bond_atom_site_label_2
_geom_bond_distance
_geom_bond_site_symmetry_2
Mg0 O4 2.084088 1_555
Mg0 O5 2.084088 1_445
Mg0 O3 2.093346 1_545
Mg0 O1 2.093346 1_455
Cu0 O4 2.019634 1_555
Cu0 O7 2.107941 1_554
Cu0 O0 2.131146 1_555
Cu1 O5 2.019634 1_555
Cu1 O2 2.107941 1_556
Cu1 O6 2.131146 1_555
Cu2 O1 2.013447 1_454
Cu2 O3 2.013447 1_545
Cu2 O2 2.033395 1_445
Cu2 O7 2.033395 1_554
Cu3 O0 1.925142 1_555
Cu3 O6 1.925142 1_454
As0 O5 1.722935 1_555
As0 O0 1.727395 1_555
As0 O2 1.740922 1_555
As0 O3 1.745437 1_555
As1 O4 1.722935 1_555
As1 O6 1.727395 1_555
As1 O7 1.740922 1_555
As1 O1 1.745437 1_555
Cl0 Cu0 2.321658 1_555
Cl0 Cu0 2.534163 1_655
Cl0 Mg0 2.600379 1_655
Cl0 Cu3 2.749694 1_655
Cl0 Cu2 2.784818 1_655
Cl1 Cu1 2.321658 1_555
Cl1 Cu1 2.534163 1_455
Cl1 Mg0 2.600379 1_565
Cl1 Cu3 2.749694 1_556
Cl1 Cu2 2.784818 1_566
