# generated using pymatgen
data_NaMgZrP(SO6)2
_symmetry_space_group_name_H-M   'P 1'
_cell_length_a   8.80011216
_cell_length_b   8.79830425
_cell_length_c   23.15016993
_cell_angle_alpha   89.96971828
_cell_angle_beta   90.00000000
_cell_angle_gamma   120.00679759
_symmetry_Int_Tables_number   1
_chemical_formula_structural   NaMgZrP(SO6)2
_chemical_formula_sum   'Na6 Mg6 Zr6 P6 S12 O72'
_cell_volume   1552.18029452
_cell_formula_units_Z   6
loop_
 _symmetry_equiv_pos_site_id
 _symmetry_equiv_pos_as_xyz
  1  'x, y, z'
loop_
 _atom_site_type_symbol
 _atom_site_label
 _atom_site_symmetry_multiplicity
 _atom_site_fract_x
 _atom_site_fract_y
 _atom_site_fract_z
 _atom_site_occupancy
  Na  Na0  1  0.99079212  0.99330976  0.50385300  1
  Na  Na1  1  0.00251764  0.99330976  0.00385300  1
  Na  Na2  1  0.66218441  0.32393826  0.83721143  1
  Na  Na3  1  0.66175484  0.32393826  0.33721143  1
  Na  Na4  1  0.32867014  0.67111934  0.17060937  1
  Na  Na5  1  0.34244820  0.67111934  0.67060937  1
  Mg  Mg0  1  0.98491766  0.99137920  0.64802850  1
  Mg  Mg1  1  0.00646154  0.99137920  0.14802850  1
  Mg  Mg2  1  0.66604573  0.33468165  0.98157209  1
  Mg  Mg3  1  0.66863692  0.33468165  0.48157209  1
  Mg  Mg4  1  0.33824503  0.68167622  0.31488645  1
  Mg  Mg5  1  0.34343019  0.68167622  0.81488645  1
  Zr  Zr0  1  0.00337963  0.00057936  0.35292438  1
  Zr  Zr1  1  0.99719973  0.00057936  0.85292438  1
  Zr  Zr2  1  0.66633977  0.33372551  0.68626148  1
  Zr  Zr3  1  0.66738673  0.33372551  0.18626148  1
  Zr  Zr4  1  0.32331266  0.67374792  0.01967546  1
  Zr  Zr5  1  0.35043426  0.67374792  0.51967546  1
  P  P0  1  0.28817558  0.99308769  0.24809619  1
  P  P1  1  0.70491211  0.99308769  0.74809619  1
  P  P2  1  0.67637523  0.62612715  0.58129824  1
  P  P3  1  0.94975292  0.62612715  0.08129824  1
  P  P4  1  0.34131157  0.96540574  0.91417475  1
  P  P5  1  0.62409317  0.96540574  0.41417475  1
  S  S0  1  0.70548190  0.71206551  0.24878048  1
  S  S1  1  0.00704347  0.29369345  0.24856472  1
  S  S2  1  0.28664999  0.29369345  0.74856472  1
  S  S3  1  0.00658361  0.71206551  0.74878048  1
  S  S4  1  0.95678988  0.32936031  0.58186043  1
  S  S5  1  0.37100440  0.04549941  0.58229255  1
  S  S6  1  0.67449602  0.04549941  0.08229255  1
  S  S7  1  0.37257142  0.32936031  0.08186043  1
  S  S8  1  0.61928884  0.65972645  0.91587775  1
  S  S9  1  0.04061017  0.37985029  0.91503252  1
  S  S10  1  0.33923912  0.37985029  0.41503252  1
  S  S11  1  0.04043660  0.65972645  0.41587775  1
  O  O0  1  0.20478223  0.02768781  0.30366319  1
  O  O1  1  0.81643314  0.78947100  0.30182080  1
  O  O2  1  0.97201607  0.18269734  0.30197078  1
  O  O3  1  0.21068127  0.18269734  0.80197078  1
  O  O4  1  0.97303786  0.78947100  0.80182080  1
  O  O5  1  0.82290558  0.02768781  0.80366319  1
  O  O6  1  0.79583587  0.97482769  0.69582135  1
  O  O7  1  0.18423534  0.20936365  0.69714399  1
  O  O8  1  0.02996622  0.81777381  0.69754013  1
  O  O9  1  0.78780759  0.81777381  0.19754013  1
  O  O10  1  0.02512831  0.20936365  0.19714399  1
  O  O11  1  0.17899182  0.97482769  0.19582135  1
  O  O12  1  0.87694828  0.36003284  0.63516864  1
  O  O13  1  0.48322316  0.12122461  0.63534450  1
  O  O14  1  0.63989979  0.50946344  0.63694327  1
  O  O15  1  0.86956465  0.50946344  0.13694327  1
  O  O16  1  0.63800245  0.12122461  0.13534450  1
  O  O17  1  0.48308556  0.36003284  0.13516864  1
  O  O18  1  0.45531187  0.30501272  0.03100078  1
  O  O19  1  0.84352717  0.53567123  0.02830469  1
  O  O20  1  0.69367956  0.14892442  0.03088347  1
  O  O21  1  0.45524586  0.14892442  0.53088347  1
  O  O22  1  0.69214506  0.53567123  0.52830469  1
  O  O23  1  0.84970185  0.30501272  0.53100078  1
  O  O24  1  0.54257108  0.69256025  0.96889476  1
  O  O25  1  0.15116872  0.45524241  0.96844153  1
  O  O26  1  0.30540840  0.84629151  0.97000616  1
  O  O27  1  0.54088211  0.84629151  0.47000616  1
  O  O28  1  0.30407269  0.45524241  0.46844153  1
  O  O29  1  0.14998817  0.69256025  0.46889476  1
  O  O30  1  0.12188113  0.63761751  0.36428603  1
  O  O31  1  0.51311613  0.87313856  0.36257105  1
  O  O32  1  0.35799488  0.48298150  0.36370685  1
  O  O33  1  0.12498563  0.48298150  0.86370685  1
  O  O34  1  0.36002144  0.87313856  0.86257105  1
  O  O35  1  0.51573539  0.63761751  0.86428603  1
  O  O36  1  0.02457319  0.82349091  0.41033953  1
  O  O37  1  0.80869289  0.97754720  0.40920887  1
  O  O38  1  0.17552902  0.20064691  0.41067003  1
  O  O39  1  0.02511789  0.20064691  0.91067003  1
  O  O40  1  0.16885431  0.97754720  0.90920887  1
  O  O41  1  0.79891772  0.82349091  0.91033953  1
  O  O42  1  0.98047923  0.17779053  0.59031113  1
  O  O43  1  0.19807450  0.02536536  0.59131822  1
  O  O44  1  0.83251654  0.80941981  0.58955475  1
  O  O45  1  0.97690327  0.80941981  0.08955475  1
  O  O46  1  0.82729087  0.02536536  0.09131822  1
  O  O47  1  0.19731130  0.17779053  0.09031113  1
  O  O48  1  0.68999203  0.16467373  0.74272221  1
  O  O49  1  0.46577950  0.30917603  0.74393346  1
  O  O50  1  0.84210336  0.53409860  0.74376819  1
  O  O51  1  0.69199624  0.53409860  0.24376819  1
  O  O52  1  0.84339753  0.30917603  0.24393346  1
  O  O53  1  0.47468270  0.16467373  0.24272221  1
  O  O54  1  0.64433568  0.50869059  0.92333568  1
  O  O55  1  0.86609340  0.35704870  0.92337313  1
  O  O56  1  0.49976110  0.14622069  0.92481577  1
  O  O57  1  0.64646059  0.14622069  0.42481577  1
  O  O58  1  0.49095631  0.35704870  0.42337313  1
  O  O59  1  0.86435591  0.50869059  0.42333568  1
  O  O60  1  0.35989778  0.49312824  0.07647441  1
  O  O61  1  0.13736095  0.64008068  0.07730175  1
  O  O62  1  0.51201860  0.86579535  0.07718348  1
  O  O63  1  0.35377575  0.86579535  0.57718348  1
  O  O64  1  0.50271873  0.64008068  0.57730175  1
  O  O65  1  0.13322947  0.49312824  0.57647441  1
  O  O66  1  0.31104858  0.83425127  0.25655202  1
  O  O67  1  0.52998684  0.68607791  0.25700096  1
  O  O68  1  0.15965700  0.46754197  0.25762461  1
  O  O69  1  0.30788397  0.46754197  0.75762461  1
  O  O70  1  0.15609007  0.68607791  0.75700096  1
  O  O71  1  0.52320169  0.83425127  0.75655202  1
loop_
_geom_bond_atom_site_label_1
_geom_bond_atom_site_label_2
_geom_bond_distance
_geom_bond_site_symmetry_2
Na0 O44 2.497320 1_555
Na0 O42 2.607605 1_565
Na0 O43 2.644410 1_665
Na0 O37 2.676912 1_555
Na0 O36 2.730390 1_655
Na0 O38 2.766549 1_665
Na1 O45 2.497320 1_455
Na1 O47 2.607605 1_565
Na1 O46 2.644410 1_465
Na1 O40 2.676912 1_554
Na1 O41 2.730390 1_454
Na1 O39 2.766549 1_564
Na2 O56 2.522333 1_555
Na2 O55 2.600238 1_555
Na2 O54 2.626965 1_555
Na2 O48 2.674793 1_555
Na2 O49 2.728179 1_555
Na2 O50 2.770012 1_555
Na3 O57 2.522333 1_555
Na3 O58 2.600238 1_555
Na3 O59 2.626965 1_555
Na3 O53 2.674793 1_555
Na3 O52 2.728179 1_555
Na3 O51 2.770011 1_555
Na4 O66 2.503634 1_555
Na4 O68 2.609565 1_555
Na4 O67 2.631142 1_555
Na4 O61 2.667516 1_555
Na4 O62 2.728884 1_555
Na4 O60 2.776882 1_555
Na5 O71 2.503634 1_555
Na5 O69 2.609565 1_555
Na5 O70 2.631142 1_555
Na5 O64 2.667516 1_555
Na5 O63 2.728884 1_555
Na5 O65 2.776882 1_555
Mg0 O6 1.942041 1_555
Mg0 O44 2.012180 1_555
Mg0 O8 2.099473 1_655
Mg0 O42 2.130391 1_565
Mg0 O7 2.164562 1_665
Mg0 O43 2.184079 1_665
Mg1 O11 1.942041 1_555
Mg1 O45 2.012180 1_455
Mg1 O9 2.099473 1_455
Mg1 O47 2.130391 1_565
Mg1 O10 2.164562 1_565
Mg1 O46 2.184079 1_465
Mg2 O19 1.994110 1_556
Mg2 O56 2.047567 1_555
Mg2 O18 2.081375 1_556
Mg2 O20 2.104509 1_556
Mg2 O54 2.118580 1_555
Mg2 O55 2.146241 1_555
Mg3 O22 1.994110 1_555
Mg3 O57 2.047567 1_555
Mg3 O23 2.081375 1_555
Mg3 O21 2.104509 1_555
Mg3 O59 2.118580 1_555
Mg3 O58 2.146241 1_555
Mg4 O31 1.957953 1_555
Mg4 O66 2.000618 1_555
Mg4 O30 2.084400 1_555
Mg4 O67 2.139858 1_555
Mg4 O32 2.159975 1_555
Mg4 O68 2.194954 1_555
Mg5 O34 1.957953 1_555
Mg5 O71 2.000618 1_555
Mg5 O35 2.084400 1_555
Mg5 O70 2.139858 1_555
Mg5 O33 2.159975 1_555
Mg5 O69 2.194954 1_555
O0 P0 1.584264 1_545
O0 Zr0 2.018809 1_555
O1 S0 1.503546 1_555
O1 Zr0 2.121806 1_665
O2 S1 1.508290 1_655
O2 Zr0 2.115513 1_655
O3 S2 1.508290 1_555
O3 Zr1 2.115513 1_455
O4 S3 1.503546 1_655
O4 Zr1 2.121806 1_565
O5 P1 1.584264 1_545
O5 Zr1 2.018809 1_555
O6 P1 1.503106 1_555
O7 S2 1.453245 1_555
O8 S3 1.456669 1_555
O9 S0 1.456669 1_555
O10 S1 1.453245 1_555
O11 P0 1.503106 1_555
O12 S4 1.509797 1_555
O12 Zr2 2.111459 1_555
O13 S5 1.506746 1_555
O13 Zr2 2.114388 1_555
O14 P2 1.576425 1_555
O14 Zr2 2.026416 1_555
O15 P3 1.576425 1_555
O15 Zr3 2.026416 1_555
O16 S6 1.506746 1_555
O16 Zr3 2.114388 1_555
O17 S7 1.509797 1_555
O17 Zr3 2.111459 1_555
O18 S7 1.455550 1_555
O19 P3 1.506391 1_555
O20 S6 1.455386 1_555
O21 S5 1.455386 1_555
O22 P2 1.506391 1_555
O23 S4 1.455550 1_555
O24 S8 1.497026 1_555
O24 Zr4 2.193791 1_556
O25 S9 1.506887 1_555
O25 Zr4 2.118266 1_556
O26 P4 1.592511 1_555
O26 Zr4 1.972050 1_556
O27 P5 1.592511 1_555
O27 Zr5 1.972050 1_555
O28 S10 1.506887 1_555
O28 Zr5 2.118266 1_555
O29 S11 1.497026 1_555
O29 Zr5 2.193791 1_555
O30 S11 1.455235 1_555
O31 P5 1.499328 1_555
O32 S10 1.453086 1_555
O33 S9 1.453086 1_555
O34 P4 1.499328 1_555
O35 S8 1.455235 1_555
O36 S11 1.520842 1_555
O36 Zr0 2.125452 1_565
O37 P5 1.577985 1_555
O37 Zr0 2.080050 1_665
O38 S10 1.516536 1_555
O38 Zr0 2.125061 1_555
O39 S9 1.516540 1_555
O39 Zr1 2.125061 1_455
O40 P4 1.577977 1_555
O40 Zr1 2.080050 1_465
O41 S8 1.520848 1_555
O41 Zr1 2.125452 1_565
O42 S4 1.462154 1_555
O43 S5 1.456450 1_555
O44 P2 1.519617 1_555
O45 P3 1.519620 1_555
O46 S6 1.456441 1_555
O47 S7 1.462159 1_555
O48 P1 1.584256 1_545
O48 Zr2 2.066792 1_555
O49 S2 1.516631 1_555
O49 Zr2 2.136035 1_555
O50 S3 1.514470 1_655
O50 Zr2 2.132560 1_555
O51 S0 1.514474 1_555
O51 Zr3 2.132560 1_555
O52 S1 1.516622 1_655
O52 Zr3 2.136035 1_555
O53 P0 1.584261 1_545
O53 Zr3 2.066792 1_555
O54 S8 1.461840 1_555
O55 S9 1.458735 1_655
O56 P4 1.522338 1_545
O57 P5 1.522331 1_545
O58 S10 1.458752 1_555
O59 S11 1.461830 1_655
O60 S7 1.504880 1_555
O60 Zr4 2.206251 1_555
O61 P3 1.595807 1_455
O61 Zr4 2.014945 1_555
O62 S6 1.515678 1_565
O62 Zr4 2.140331 1_555
O63 S5 1.515671 1_565
O63 Zr5 2.140331 1_555
O64 P2 1.595825 1_555
O64 Zr5 2.014945 1_555
O65 S4 1.504871 1_455
O65 Zr5 2.206251 1_555
O66 P0 1.520815 1_555
O67 S0 1.456145 1_555
O68 S1 1.460462 1_555
O69 S2 1.460466 1_555
O70 S3 1.456136 1_555
O71 P1 1.520821 1_555
