# generated using pymatgen
data_Na3Ta10Zn2Si3(P5O24)3
_symmetry_space_group_name_H-M   'P 1'
_cell_length_a   8.77145179
_cell_length_b   8.77363465
_cell_length_c   22.69446867
_cell_angle_alpha   89.89880573
_cell_angle_beta   89.99153183
_cell_angle_gamma   120.01163895
_symmetry_Int_Tables_number   1
_chemical_formula_structural   Na3Ta10Zn2Si3(P5O24)3
_chemical_formula_sum   'Na3 Ta10 Zn2 Si3 P15 O72'
_cell_volume   1512.34106689
_cell_formula_units_Z   1
loop_
 _symmetry_equiv_pos_site_id
 _symmetry_equiv_pos_as_xyz
  1  'x, y, z'
loop_
 _atom_site_type_symbol
 _atom_site_label
 _atom_site_symmetry_multiplicity
 _atom_site_fract_x
 _atom_site_fract_y
 _atom_site_fract_z
 _atom_site_occupancy
  Na  Na0  1  0.00044942  0.00057794  0.00154044  1
  Na  Na1  1  0.66724051  0.33415349  0.83868802  1
  Na  Na2  1  0.66742899  0.33389216  0.33946909  1
  Ta  Ta0  1  0.99420087  0.99804804  0.35870858  1
  Ta  Ta1  1  0.99836053  0.99556986  0.85566940  1
  Ta  Ta2  1  0.00157345  0.99671711  0.64191227  1
  Ta  Ta3  1  0.99774477  0.00135970  0.14739665  1
  Ta  Ta4  1  0.66917723  0.33566374  0.68524437  1
  Ta  Ta5  1  0.66848719  0.33537416  0.18842972  1
  Ta  Ta6  1  0.33350052  0.66599043  0.02497962  1
  Ta  Ta7  1  0.33235500  0.66666694  0.52164627  1
  Ta  Ta8  1  0.33287385  0.66441379  0.31016658  1
  Ta  Ta9  1  0.33138660  0.66622401  0.81051557  1
  Zn  Zn0  1  0.66668013  0.33330541  0.98166470  1
  Zn  Zn1  1  0.66668914  0.33334548  0.47974130  1
  Si  Si0  1  0.71326172  0.71327418  0.25121281  1
  Si  Si1  1  0.99946531  0.28627507  0.25108386  1
  Si  Si2  1  0.99756830  0.71068257  0.74926779  1
  P  P0  1  0.28509201  0.00010951  0.25095916  1
  P  P1  1  0.28634990  0.28482377  0.74958828  1
  P  P2  1  0.71478892  0.00105860  0.74959277  1
  P  P3  1  0.95408899  0.33344849  0.58102509  1
  P  P4  1  0.38231676  0.04712187  0.58123963  1
  P  P5  1  0.66480231  0.61942196  0.58091212  1
  P  P6  1  0.95108835  0.62108051  0.08123314  1
  P  P7  1  0.66935563  0.04956082  0.08139520  1
  P  P8  1  0.37972993  0.32941842  0.08129567  1
  P  P9  1  0.61824676  0.66127141  0.91695154  1
  P  P10  1  0.04275675  0.38039219  0.91707352  1
  P  P11  1  0.33903807  0.95733484  0.91698327  1
  P  P12  1  0.61797371  0.95758942  0.41665041  1
  P  P13  1  0.33792557  0.37985410  0.41675451  1
  P  P14  1  0.04254996  0.66252227  0.41645298  1
  O  O0  1  0.20296615  0.03433680  0.30529541  1
  O  O1  1  0.83950726  0.80303589  0.30779240  1
  O  O2  1  0.96753501  0.16150286  0.30773754  1
  O  O3  1  0.19933708  0.16973914  0.80511440  1
  O  O4  1  0.96809761  0.80519987  0.80715380  1
  O  O5  1  0.83089671  0.03268550  0.80512844  1
  O  O6  1  0.80013816  0.97210658  0.69533266  1
  O  O7  1  0.17096273  0.20201886  0.69527288  1
  O  O8  1  0.02878649  0.83633289  0.69318035  1
  O  O9  1  0.80478294  0.83253600  0.19271585  1
  O  O10  1  0.03182031  0.19785977  0.19265197  1
  O  O11  1  0.17286743  0.97079885  0.19496917  1
  O  O12  1  0.86727994  0.36307857  0.63829490  1
  O  O13  1  0.49423387  0.13139652  0.63862991  1
  O  O14  1  0.63670255  0.50462976  0.63831337  1
  O  O15  1  0.86901422  0.50598195  0.13788443  1
  O  O16  1  0.63673539  0.12939217  0.13795791  1
  O  O17  1  0.49249826  0.36223532  0.13793963  1
  O  O18  1  0.45212210  0.29613894  0.02673879  1
  O  O19  1  0.84406131  0.54878973  0.02699995  1
  O  O20  1  0.70493082  0.15603535  0.02683380  1
  O  O21  1  0.45495048  0.15978403  0.52788534  1
  O  O22  1  0.70591719  0.54633806  0.52805133  1
  O  O23  1  0.84064488  0.29476581  0.52806698  1
  O  O24  1  0.53278856  0.69807718  0.97148926  1
  O  O25  1  0.16536499  0.46743970  0.97142240  1
  O  O26  1  0.30110436  0.83466077  0.97145759  1
  O  O27  1  0.53095040  0.83515826  0.47164929  1
  O  O28  1  0.30404303  0.46882480  0.47149128  1
  O  O29  1  0.16474549  0.69521913  0.47149139  1
  O  O30  1  0.13957684  0.64439253  0.36214557  1
  O  O31  1  0.50436341  0.86170147  0.36219653  1
  O  O32  1  0.35686933  0.49686795  0.36227267  1
  O  O33  1  0.14121793  0.49444379  0.86162565  1
  O  O34  1  0.35453572  0.85960393  0.86169917  1
  O  O35  1  0.50716865  0.64650086  0.86155010  1
  O  O36  1  0.03648886  0.83532389  0.40777677  1
  O  O37  1  0.79914177  0.96549349  0.40858973  1
  O  O38  1  0.16760240  0.19966045  0.40734683  1
  O  O39  1  0.03286577  0.19738024  0.90818212  1
  O  O40  1  0.16539686  0.96908544  0.90839226  1
  O  O41  1  0.80261534  0.83736368  0.90887879  1
  O  O42  1  0.98006364  0.17572381  0.59688124  1
  O  O43  1  0.19638175  0.02261172  0.59526636  1
  O  O44  1  0.82344291  0.80551766  0.59581841  1
  O  O45  1  0.98415625  0.81045841  0.09265197  1
  O  O46  1  0.82874871  0.01856394  0.09196101  1
  O  O47  1  0.19086191  0.17060376  0.09204989  1
  O  O48  1  0.69038211  0.16315134  0.74184966  1
  O  O49  1  0.47102728  0.30497467  0.74184667  1
  O  O50  1  0.82476712  0.51536053  0.74154055  1
  O  O51  1  0.68847554  0.51768077  0.24049224  1
  O  O52  1  0.82525588  0.30517544  0.24045615  1
  O  O53  1  0.47011566  0.16346049  0.24052343  1
  O  O54  1  0.64258547  0.50502878  0.92053769  1
  O  O55  1  0.86342028  0.35965655  0.92027561  1
  O  O56  1  0.49619708  0.13735780  0.92017939  1
  O  O57  1  0.64097860  0.13799255  0.42135994  1
  O  O58  1  0.49807066  0.36113873  0.42120160  1
  O  O59  1  0.86309419  0.50339448  0.42140059  1
  O  O60  1  0.35708737  0.49609666  0.07380823  1
  O  O61  1  0.13943727  0.64198963  0.07394980  1
  O  O62  1  0.50359762  0.86020515  0.07381118  1
  O  O63  1  0.35615581  0.85927640  0.57484781  1
  O  O64  1  0.50187686  0.64305642  0.57492638  1
  O  O65  1  0.14048429  0.49747387  0.57489715  1
  O  O66  1  0.30755677  0.83953019  0.25991092  1
  O  O67  1  0.52224974  0.69362878  0.26061624  1
  O  O68  1  0.16720283  0.47988610  0.26056217  1
  O  O69  1  0.30971495  0.46891154  0.76059631  1
  O  O70  1  0.16929330  0.69040216  0.76080785  1
  O  O71  1  0.53247641  0.83789862  0.76059659  1
loop_
_geom_bond_atom_site_label_1
_geom_bond_atom_site_label_2
_geom_bond_distance
_geom_bond_site_symmetry_2
Na0 O46 2.596537 1_455
Na0 O47 2.598747 1_555
Na0 O45 2.612955 1_445
Na0 O41 2.647634 1_444
Na0 O40 2.653205 1_544
Na0 O39 2.654614 1_554
Na1 O56 2.459459 1_555
Na1 O55 2.461050 1_555
Na1 O54 2.465532 1_555
Na1 O50 2.662095 1_555
Na1 O49 2.723995 1_555
Na1 O48 2.727299 1_555
Na2 O57 2.459985 1_555
Na2 O58 2.461802 1_555
Na2 O59 2.464142 1_555
Na2 O51 2.714600 1_555
Na2 O52 2.716463 1_555
Na2 O53 2.774498 1_555
O0 P0 1.532045 1_555
O0 Ta0 2.082958 1_445
O1 Si0 1.620748 1_555
O1 Ta0 1.946485 1_555
O2 Si1 1.618062 1_555
O2 Ta0 1.944015 1_545
O3 P1 1.553797 1_555
O3 Ta1 2.014331 1_445
O4 Si2 1.642702 1_555
O4 Ta1 1.906698 1_555
O5 P2 1.556152 1_555
O5 Ta1 2.014199 1_545
O6 P2 1.527220 1_565
O6 Ta2 2.062782 1_655
O7 P1 1.529574 1_555
O7 Ta2 2.061449 1_545
O8 Si2 1.613525 1_455
O8 Ta2 1.929013 1_555
O9 Si0 1.629790 1_555
O9 Ta3 1.898079 1_565
O10 Si1 1.632339 1_455
O10 Ta3 1.899282 1_455
O11 P0 1.548547 1_565
O11 Ta3 2.002130 1_465
O12 P3 1.592335 1_555
O12 Ta4 1.947562 1_555
O13 P4 1.576206 1_555
O13 Ta4 1.985402 1_555
O14 P5 1.587149 1_555
O14 Ta4 1.957065 1_555
O15 P6 1.568081 1_555
O15 Ta5 2.002437 1_555
O16 P7 1.556847 1_555
O16 Ta5 2.039484 1_555
O17 P8 1.559041 1_555
O17 Ta5 2.028532 1_555
O18 P8 1.485921 1_555
O18 Zn0 2.019639 1_554
O19 P6 1.485229 1_555
O19 Zn0 2.029388 1_554
O20 P7 1.485759 1_555
O20 Zn0 2.024555 1_554
O21 P4 1.488177 1_555
O21 Zn1 2.031344 1_555
O22 P5 1.488046 1_555
O22 Zn1 2.043687 1_555
O23 P3 1.487873 1_555
O23 Zn1 2.039956 1_555
O24 P9 1.562485 1_555
O24 Ta6 2.028408 1_556
O25 P10 1.563098 1_555
O25 Ta6 2.030995 1_556
O26 P11 1.560261 1_555
O26 Ta6 2.039733 1_556
O27 P12 1.571363 1_555
O27 Ta7 1.981080 1_555
O28 P13 1.573583 1_555
O28 Ta7 1.986478 1_555
O29 P14 1.576504 1_555
O29 Ta7 1.971718 1_555
O30 P14 1.550620 1_555
O30 Ta8 1.999461 1_555
O31 P12 1.547066 1_555
O31 Ta8 2.013997 1_555
O32 P13 1.560504 1_555
O32 Ta8 1.976601 1_555
O33 P10 1.568876 1_555
O33 Ta9 1.969177 1_555
O34 P11 1.564669 1_555
O34 Ta9 1.982805 1_555
O35 P9 1.556128 1_555
O35 Ta9 2.003857 1_555
O36 P14 1.555548 1_555
O36 Ta0 1.984987 1_455
O37 P12 1.566258 1_555
O37 Ta0 1.949320 1_555
O38 P13 1.554194 1_555
O38 Ta0 1.994177 1_445
O39 P10 1.577418 1_555
O39 Ta1 2.029386 1_445
O40 P11 1.589190 1_555
O40 Ta1 1.993093 1_455
O41 P9 1.592264 1_555
O41 Ta1 1.985509 1_555
O42 P3 1.552421 1_555
O42 Ta2 1.958926 1_645
O43 P4 1.567240 1_555
O43 Ta2 1.924151 1_545
O44 P5 1.563933 1_555
O44 Ta2 1.932440 1_655
O45 P6 1.559300 1_555
O45 Ta3 2.042240 1_565
O46 P7 1.570475 1_555
O46 Ta3 2.006639 1_555
O47 P8 1.560475 1_555
O47 Ta3 2.031887 1_455
O48 P2 1.550127 1_555
O48 Ta4 2.061686 1_555
O49 P1 1.549025 1_555
O49 Ta4 2.067226 1_555
O50 Si2 1.633288 1_555
O50 Ta4 1.958494 1_555
O51 Si0 1.636951 1_555
O51 Ta5 1.926482 1_555
O52 Si1 1.635273 1_555
O52 Ta5 1.928468 1_555
O53 P0 1.554320 1_555
O53 Ta5 2.016930 1_555
O54 P9 1.491207 1_555
O54 Zn0 2.133146 1_555
O55 P10 1.492138 1_655
O55 Zn0 2.138108 1_555
O56 P11 1.490841 1_545
O56 Zn0 2.139198 1_555
O57 P12 1.496153 1_545
O57 Zn1 2.089353 1_555
O58 P13 1.497018 1_555
O58 Zn1 2.090979 1_555
O59 P14 1.496839 1_655
O59 Zn1 2.089973 1_555
O60 P8 1.580041 1_555
O60 Ta6 1.948167 1_555
O61 P6 1.577028 1_455
O61 Ta6 1.953722 1_555
O62 P7 1.577452 1_565
O62 Ta6 1.954901 1_555
O63 P4 1.553199 1_565
O63 Ta7 2.002855 1_555
O64 P5 1.549244 1_555
O64 Ta7 2.005940 1_555
O65 P3 1.552084 1_455
O65 Ta7 1.997589 1_555
O66 P0 1.530265 1_565
O66 Ta8 2.011430 1_555
O67 Si0 1.610363 1_555
O67 Ta8 1.913637 1_555
O68 Si1 1.611748 1_455
O68 Ta8 1.911426 1_555
O69 P1 1.543805 1_555
O69 Ta9 1.998561 1_555
O70 Si2 1.623941 1_455
O70 Ta9 1.907990 1_555
O71 P2 1.541903 1_565
O71 Ta9 1.999745 1_555
