# generated using pymatgen
data_NdH5(SeO4)2
_symmetry_space_group_name_H-M   'P 1'
_cell_length_a   6.85870500
_cell_length_b   7.18769100
_cell_length_c   16.43042600
_cell_angle_alpha   90.00000000
_cell_angle_beta   90.00000000
_cell_angle_gamma   90.00000000
_symmetry_Int_Tables_number   1
_chemical_formula_structural   NdH5(SeO4)2
_chemical_formula_sum   'Nd4 H20 Se8 O32'
_cell_volume   809.99128470
_cell_formula_units_Z   4
loop_
 _symmetry_equiv_pos_site_id
 _symmetry_equiv_pos_as_xyz
  1  'x, y, z'
loop_
 _atom_site_type_symbol
 _atom_site_label
 _atom_site_symmetry_multiplicity
 _atom_site_fract_x
 _atom_site_fract_y
 _atom_site_fract_z
 _atom_site_occupancy
  Nd  Nd0  1  0.37238700  0.61910500  0.78533200  1
  Nd  Nd1  1  0.87238700  0.88089500  0.21466800  1
  Nd  Nd2  1  0.62761300  0.11910500  0.71466800  1
  Nd  Nd3  1  0.12761300  0.38089500  0.28533200  1
  H  H0  1  0.05846300  0.24345700  0.60461900  1
  H  H1  1  0.55846300  0.25654300  0.39538100  1
  H  H2  1  0.94153700  0.74345700  0.89538100  1
  H  H3  1  0.44153700  0.75654300  0.10461900  1
  H  H4  1  0.17686600  0.41669300  0.57509800  1
  H  H5  1  0.67686600  0.08330700  0.42490200  1
  H  H6  1  0.82313400  0.91669300  0.92490200  1
  H  H7  1  0.32313400  0.58330700  0.07509800  1
  H  H8  1  0.40096600  0.77119500  0.96306000  1
  H  H9  1  0.90096600  0.72880500  0.03694000  1
  H  H10  1  0.59903400  0.27119500  0.53694000  1
  H  H11  1  0.09903400  0.22880500  0.46306000  1
  H  H12  1  0.48202400  0.92968400  0.90095800  1
  H  H13  1  0.98202400  0.57031600  0.09904200  1
  H  H14  1  0.51797600  0.42968400  0.59904200  1
  H  H15  1  0.01797600  0.07031600  0.40095800  1
  H  H16  1  0.70248200  0.17591200  0.04718900  1
  H  H17  1  0.20248200  0.32408800  0.95281100  1
  H  H18  1  0.29751800  0.67591200  0.45281100  1
  H  H19  1  0.79751800  0.82408800  0.54718900  1
  Se  Se0  1  0.63195500  0.31864100  0.92429600  1
  Se  Se1  1  0.13195500  0.18135900  0.07570400  1
  Se  Se2  1  0.36804500  0.81864100  0.57570400  1
  Se  Se3  1  0.86804500  0.68135900  0.42429600  1
  Se  Se4  1  0.84124000  0.62101000  0.72870000  1
  Se  Se5  1  0.34124000  0.87899000  0.27130000  1
  Se  Se6  1  0.15876000  0.12101000  0.77130000  1
  Se  Se7  1  0.65876000  0.37899000  0.22870000  1
  O  O0  1  0.09163600  0.31672400  0.55583400  1
  O  O1  1  0.59163600  0.18327600  0.44416600  1
  O  O2  1  0.90836400  0.81672400  0.94416600  1
  O  O3  1  0.40836400  0.68327600  0.05583400  1
  O  O4  1  0.39904100  0.81724500  0.90521500  1
  O  O5  1  0.89904100  0.68275500  0.09478500  1
  O  O6  1  0.60095900  0.31724500  0.59478500  1
  O  O7  1  0.10095900  0.18275500  0.40521500  1
  O  O8  1  0.57506500  0.21567200  0.02136200  1
  O  O9  1  0.07506500  0.28432800  0.97863800  1
  O  O10  1  0.42493500  0.71567200  0.47863800  1
  O  O11  1  0.92493500  0.78432800  0.52136200  1
  O  O12  1  0.63988000  0.11782200  0.86649500  1
  O  O13  1  0.13988000  0.38217800  0.13350500  1
  O  O14  1  0.36012000  0.61782200  0.63350500  1
  O  O15  1  0.86012000  0.88217800  0.36649500  1
  O  O16  1  0.40451600  0.40634700  0.90534900  1
  O  O17  1  0.90451600  0.09365300  0.09465100  1
  O  O18  1  0.59548400  0.90634700  0.59465100  1
  O  O19  1  0.09548400  0.59365300  0.40534900  1
  O  O20  1  0.68758800  0.44330700  0.76280800  1
  O  O21  1  0.18758800  0.05669300  0.23719200  1
  O  O22  1  0.31241200  0.94330700  0.73719200  1
  O  O23  1  0.81241200  0.55669300  0.26280800  1
  O  O24  1  0.02370100  0.62297900  0.80020200  1
  O  O25  1  0.52370100  0.87702100  0.19979800  1
  O  O26  1  0.97629900  0.12297900  0.69979800  1
  O  O27  1  0.47629900  0.37702100  0.30020200  1
  O  O28  1  0.68970500  0.79747000  0.76275800  1
  O  O29  1  0.18970500  0.70253000  0.23724200  1
  O  O30  1  0.31029500  0.29747000  0.73724200  1
  O  O31  1  0.81029500  0.20253000  0.26275800  1
loop_
_geom_bond_atom_site_label_1
_geom_bond_atom_site_label_2
_geom_bond_distance
_geom_bond_site_symmetry_2
Nd0 O24 2.404143 1_555
Nd0 O4 2.437521 1_555
Nd0 O30 2.479953 1_555
Nd0 O22 2.494987 1_555
Nd0 O14 2.496018 1_555
Nd0 O16 2.505123 1_555
Nd0 O20 2.531261 1_555
Nd0 O28 2.553008 1_555
Nd1 O25 2.404143 1_555
Nd1 O5 2.437521 1_555
Nd1 O31 2.479953 1_565
Nd1 O23 2.494987 1_555
Nd1 O15 2.496018 1_555
Nd1 O17 2.505123 1_565
Nd1 O21 2.531261 1_665
Nd1 O29 2.553008 1_655
Nd2 O26 2.404143 1_555
Nd2 O6 2.437521 1_555
Nd2 O28 2.479953 1_545
Nd2 O20 2.494987 1_555
Nd2 O12 2.496018 1_555
Nd2 O18 2.505123 1_545
Nd2 O22 2.531261 1_545
Nd2 O30 2.553008 1_555
Nd3 O27 2.404143 1_555
Nd3 O7 2.437521 1_555
Nd3 O29 2.479953 1_555
Nd3 O21 2.494987 1_555
Nd3 O13 2.496018 1_555
Nd3 O19 2.505123 1_555
Nd3 O23 2.531261 1_455
Nd3 O31 2.553008 1_455
H0 O0 0.985694 1_555
H1 O1 0.985694 1_555
H2 O2 0.985694 1_555
H3 O3 0.985694 1_555
H4 O0 0.978882 1_555
H5 O1 0.978882 1_555
H6 O2 0.978882 1_555
H7 O3 0.978882 1_555
H8 O4 1.006492 1_555
H8 O3 1.650896 1_556
H9 O5 1.006492 1_555
H9 O2 1.650896 1_554
H10 O6 1.006492 1_555
H10 O1 1.650896 1_555
H11 O7 1.006492 1_555
H11 O0 1.650896 1_555
H12 O4 0.990949 1_555
H13 O5 0.990949 1_555
H14 O6 0.990949 1_555
H15 O7 0.990949 1_555
H16 O8 1.012656 1_555
H16 O17 1.696420 1_555
H17 O9 1.012656 1_555
H17 O16 1.696420 1_555
H18 O10 1.012656 1_555
H18 O19 1.696420 1_555
H19 O11 1.012656 1_555
H19 O18 1.696420 1_555
O8 Se0 1.800975 1_554
O9 Se1 1.800975 1_556
O10 Se2 1.800975 1_555
O11 Se3 1.800975 1_555
O12 Se0 1.728685 1_555
O13 Se1 1.728685 1_555
O14 Se2 1.728685 1_555
O15 Se3 1.728685 1_555
O16 Se0 1.711059 1_555
O17 Se1 1.711059 1_655
O18 Se2 1.711059 1_555
O19 Se3 1.711059 1_455
O20 Se4 1.748169 1_555
O21 Se5 1.748169 1_545
O22 Se6 1.748169 1_565
O23 Se7 1.748169 1_555
O24 Se4 1.716535 1_455
O25 Se5 1.716535 1_555
O26 Se6 1.716535 1_655
O27 Se7 1.716535 1_555
O28 Se4 1.732639 1_555
O29 Se5 1.732639 1_555
O30 Se6 1.732639 1_555
O31 Se7 1.732639 1_555
