# generated using pymatgen
data_Na6Zr2Si5Ge2SO24
_symmetry_space_group_name_H-M   'P 1'
_cell_length_a   8.96117078
_cell_length_b   8.96616122
_cell_length_c   22.27752365
_cell_angle_alpha   89.87947377
_cell_angle_beta   89.19440737
_cell_angle_gamma   120.02223882
_symmetry_Int_Tables_number   1
_chemical_formula_structural   Na6Zr2Si5Ge2SO24
_chemical_formula_sum   'Na18 Zr6 Si15 Ge6 S3 O72'
_cell_volume   1549.54557030
_cell_formula_units_Z   3
loop_
 _symmetry_equiv_pos_site_id
 _symmetry_equiv_pos_as_xyz
  1  'x, y, z'
loop_
 _atom_site_type_symbol
 _atom_site_label
 _atom_site_symmetry_multiplicity
 _atom_site_fract_x
 _atom_site_fract_y
 _atom_site_fract_z
 _atom_site_occupancy
  Na  Na0  1  0.63431534  0.99743978  0.25534208  1
  Na  Na1  1  0.36094351  0.36671904  0.24883197  1
  Na  Na2  1  0.00222196  0.63050154  0.25240661  1
  Na  Na3  1  0.63471950  0.63324579  0.74712509  1
  Na  Na4  1  0.99224133  0.36092646  0.74830737  1
  Na  Na5  1  0.36838579  0.00898456  0.74864653  1
  Na  Na6  1  0.29663638  0.33531010  0.58245051  1
  Na  Na7  1  0.03477423  0.70710766  0.58370971  1
  Na  Na8  1  0.67376691  0.96456069  0.58340046  1
  Na  Na9  1  0.03625026  0.33956640  0.08914821  1
  Na  Na10  1  0.97587637  0.66689059  0.91662703  1
  Na  Na11  1  0.33393853  0.03390116  0.41808706  1
  Na  Na12  1  0.98232582  0.99316537  0.49708518  1
  Na  Na13  1  0.03205755  0.01334096  0.99810393  1
  Na  Na14  1  0.66072689  0.31230219  0.82876480  1
  Na  Na15  1  0.69007507  0.34405038  0.34351275  1
  Na  Na16  1  0.33700781  0.66473424  0.16750658  1
  Na  Na17  1  0.33635183  0.66629883  0.66446537  1
  Zr  Zr0  1  0.00956879  0.01302238  0.84858601  1
  Zr  Zr1  1  0.00930129  0.99253671  0.14672662  1
  Zr  Zr2  1  0.66394986  0.33833418  0.19102775  1
  Zr  Zr3  1  0.65587378  0.32442930  0.97419481  1
  Zr  Zr4  1  0.32143944  0.66044764  0.01952306  1
  Zr  Zr5  1  0.32566446  0.66915334  0.32171796  1
  Si  Si0  1  0.28207689  0.99883815  0.25958731  1
  Si  Si1  1  0.71073491  0.71392862  0.25396645  1
  Si  Si2  1  0.99804847  0.27708442  0.25448072  1
  Si  Si3  1  0.29858628  0.29846817  0.74288542  1
  Si  Si4  1  0.99206108  0.70629184  0.74504664  1
  Si  Si5  1  0.70573161  0.00041504  0.74453362  1
  Si  Si6  1  0.96075319  0.33427903  0.58472075  1
  Si  Si7  1  0.38402989  0.05523148  0.58343055  1
  Si  Si8  1  0.66687994  0.61931215  0.58214477  1
  Si  Si9  1  0.95590811  0.62931436  0.07984154  1
  Si  Si10  1  0.37058014  0.33581266  0.08494393  1
  Si  Si11  1  0.04592207  0.37755491  0.91127621  1
  Si  Si12  1  0.33609428  0.95376779  0.90814746  1
  Si  Si13  1  0.63594382  0.96978757  0.42182553  1
  Si  Si14  1  0.02802217  0.66499526  0.42361094  1
  Ge  Ge0  1  0.97471037  0.97396276  0.35473639  1
  Ge  Ge1  1  0.00099393  0.00326243  0.64584141  1
  Ge  Ge2  1  0.66848248  0.33752477  0.68227808  1
  Ge  Ge3  1  0.68946139  0.33169217  0.48816288  1
  Ge  Ge4  1  0.33976394  0.68901408  0.52283349  1
  Ge  Ge5  1  0.31705427  0.67141248  0.80390768  1
  S  S0  1  0.66577542  0.03808256  0.08414339  1
  S  S1  1  0.62130878  0.66735940  0.91141357  1
  S  S2  1  0.33442039  0.37196653  0.42223076  1
  O  O0  1  0.19047807  0.03107298  0.31887926  1
  O  O1  1  0.83710505  0.78869692  0.31176214  1
  O  O2  1  0.96225068  0.14196488  0.30993389  1
  O  O3  1  0.22041452  0.16893881  0.80055060  1
  O  O4  1  0.95010832  0.77801665  0.80592772  1
  O  O5  1  0.83387180  0.04635937  0.80073886  1
  O  O6  1  0.79150236  0.95447131  0.68600434  1
  O  O7  1  0.16490002  0.21315257  0.68647944  1
  O  O8  1  0.03778337  0.84172815  0.68799524  1
  O  O9  1  0.78777061  0.83656994  0.19501969  1
  O  O10  1  0.03245845  0.21048565  0.19017968  1
  O  O11  1  0.16586799  0.95967323  0.19969607  1
  O  O12  1  0.87886999  0.38217548  0.64298915  1
  O  O13  1  0.50995750  0.13558649  0.64132895  1
  O  O14  1  0.62282340  0.49829610  0.64298815  1
  O  O15  1  0.86727644  0.51155528  0.14115853  1
  O  O16  1  0.64554081  0.11484841  0.14074162  1
  O  O17  1  0.46680724  0.33671317  0.14737813  1
  O  O18  1  0.47163550  0.31401357  0.02714762  1
  O  O19  1  0.85362628  0.52428581  0.02013343  1
  O  O20  1  0.68284221  0.14619815  0.03115989  1
  O  O21  1  0.47052248  0.18022352  0.52417146  1
  O  O22  1  0.71134737  0.52344110  0.52848637  1
  O  O23  1  0.82761640  0.27537319  0.52902233  1
  O  O24  1  0.53611679  0.67701634  0.96695054  1
  O  O25  1  0.14906886  0.45995596  0.97370567  1
  O  O26  1  0.32019364  0.84219695  0.96792744  1
  O  O27  1  0.53794549  0.84264745  0.48112551  1
  O  O28  1  0.31717217  0.46352795  0.47599808  1
  O  O29  1  0.16948927  0.70884387  0.47911337  1
  O  O30  1  0.10528647  0.63239953  0.36121290  1
  O  O31  1  0.51335474  0.88722323  0.36299865  1
  O  O32  1  0.34873441  0.47065408  0.36589543  1
  O  O33  1  0.14843408  0.50312202  0.85174336  1
  O  O34  1  0.35506799  0.86190183  0.84614151  1
  O  O35  1  0.52652923  0.65295740  0.85616442  1
  O  O36  1  0.02533999  0.84844985  0.41623127  1
  O  O37  1  0.82486581  0.98301054  0.41346137  1
  O  O38  1  0.17792427  0.19777278  0.42142101  1
  O  O39  1  0.01910494  0.18492298  0.91060379  1
  O  O40  1  0.15382037  0.95483901  0.90857098  1
  O  O41  1  0.79726819  0.82061808  0.91091249  1
  O  O42  1  0.97980290  0.16044411  0.59152295  1
  O  O43  1  0.18897688  0.03227102  0.59002982  1
  O  O44  1  0.84147285  0.81409869  0.58783246  1
  O  O45  1  0.96967774  0.81611138  0.08008420  1
  O  O46  1  0.82751553  0.03286554  0.08471036  1
  O  O47  1  0.17175362  0.17607220  0.08210378  1
  O  O48  1  0.68334750  0.17157531  0.73761228  1
  O  O49  1  0.48966034  0.31516828  0.73697801  1
  O  O50  1  0.82277734  0.51239668  0.73798429  1
  O  O51  1  0.69479256  0.52388415  0.24980037  1
  O  O52  1  0.82541265  0.29724223  0.25172808  1
  O  O53  1  0.47425956  0.16799327  0.25488367  1
  O  O54  1  0.64272418  0.51097843  0.91381412  1
  O  O55  1  0.86141749  0.37445557  0.91151719  1
  O  O56  1  0.50410007  0.14564967  0.91040079  1
  O  O57  1  0.64012736  0.15580143  0.42986669  1
  O  O58  1  0.49207219  0.35630577  0.42237636  1
  O  O59  1  0.84080717  0.48892451  0.43158304  1
  O  O60  1  0.36047302  0.51274524  0.08435900  1
  O  O61  1  0.14889124  0.64926785  0.08219926  1
  O  O62  1  0.51545764  0.86515575  0.07999131  1
  O  O63  1  0.36067161  0.85745485  0.57891072  1
  O  O64  1  0.49109573  0.63943382  0.57486812  1
  O  O65  1  0.15392623  0.50983504  0.57405715  1
  O  O66  1  0.30749242  0.82997363  0.26009747  1
  O  O67  1  0.51618056  0.68227652  0.26135338  1
  O  O68  1  0.16733123  0.46987621  0.26127326  1
  O  O69  1  0.31839322  0.49166951  0.75297075  1
  O  O70  1  0.16895484  0.68744368  0.74797529  1
  O  O71  1  0.51291823  0.82236711  0.75244456  1
loop_
_geom_bond_atom_site_label_1
_geom_bond_atom_site_label_2
_geom_bond_distance
_geom_bond_site_symmetry_2
Na0 O52 2.356618 1_565
Na0 O67 2.474820 1_555
Na0 O66 2.536393 1_555
Na0 O53 2.567278 1_565
Na0 O31 2.597787 1_555
Na0 O16 2.740747 1_565
Na0 O9 2.778196 1_555
Na0 O2 2.844406 1_565
Na1 O68 2.352844 1_555
Na1 O53 2.457137 1_555
Na1 O67 2.468567 1_555
Na1 O17 2.505642 1_555
Na1 O51 2.592237 1_555
Na1 O32 2.790285 1_555
Na1 O10 2.885140 1_555
Na2 O66 2.414556 1_555
Na2 O51 2.424093 1_455
Na2 O68 2.538036 1_555
Na2 O52 2.588908 1_455
Na2 O30 2.603103 1_555
Na2 O15 2.747129 1_455
Na2 O11 2.801100 1_555
Na2 O1 2.828902 1_455
Na3 O50 2.423643 1_555
Na3 O71 2.435163 1_555
Na3 O69 2.460040 1_555
Na3 O49 2.485080 1_555
Na3 O14 2.597519 1_555
Na3 O35 2.641759 1_555
Na3 O4 2.798010 1_555
Na3 O6 2.829084 1_555
Na4 O48 2.432870 1_555
Na4 O50 2.505151 1_555
Na4 O70 2.537522 1_655
Na4 O69 2.551030 1_655
Na4 O12 2.613821 1_555
Na4 O33 2.685462 1_655
Na4 O5 2.695827 1_555
Na4 O7 2.836501 1_655
Na5 O49 2.405997 1_555
Na5 O48 2.452219 1_555
Na5 O34 2.508767 1_545
Na5 O70 2.520094 1_545
Na5 O71 2.579822 1_545
Na5 O3 2.649338 1_555
Na5 O13 2.660079 1_555
Na5 O8 2.920060 1_545
Na6 O43 2.390036 1_555
Na6 O64 2.394904 1_555
Na6 O42 2.467420 1_455
Na6 O65 2.475295 1_555
Na6 O7 2.565662 1_555
Na6 O28 2.596931 1_555
Na6 O21 2.857652 1_555
Na6 O14 2.888441 1_555
Na7 O44 2.363884 1_455
Na7 O65 2.489960 1_555
Na7 O43 2.530817 1_565
Na7 O63 2.531527 1_555
Na7 O29 2.605593 1_555
Na7 O8 2.614575 1_555
Na7 O22 2.821022 1_455
Na7 O12 2.835954 1_455
Na8 O42 2.415333 1_565
Na8 O63 2.473111 1_555
Na8 O44 2.473999 1_555
Na8 O64 2.539628 1_555
Na8 O6 2.551168 1_555
Na8 O27 2.573835 1_555
Na8 O23 2.688615 1_565
Na8 O13 2.894685 1_565
Na9 O47 2.329121 1_555
Na9 O46 2.435119 1_455
Na9 O61 2.437752 1_555
Na9 O60 2.517941 1_555
Na9 O10 2.520707 1_555
Na9 O25 2.761245 1_554
Na9 O15 2.882376 1_455
Na10 O40 2.260732 1_655
Na10 O55 2.292016 1_555
Na10 O19 2.582035 1_556
Na10 O41 2.586568 1_555
Na10 O54 2.588502 1_555
Na10 O4 2.713608 1_555
Na11 O57 2.410907 1_555
Na11 O36 2.411673 1_545
Na11 O38 2.484363 1_555
Na11 O58 2.505872 1_555
Na11 O0 2.566206 1_555
Na11 O21 2.700368 1_555
Na11 O31 2.808527 1_545
Na11 O29 2.853675 1_545
Na12 O37 2.327202 1_555
Na12 O36 2.359534 1_655
Na12 O38 2.442393 1_665
Na12 O44 2.478830 1_555
Na12 O42 2.592695 1_565
Na12 O43 2.701972 1_665
Na13 O47 2.333967 1_556
Na13 O45 2.396589 1_446
Na13 O40 2.441305 1_545
Na13 O39 2.520396 1_555
Na13 O46 2.708480 1_456
Na13 O41 2.770665 1_445
Na14 O56 2.308317 1_555
Na14 O48 2.451913 1_555
Na14 O55 2.457254 1_555
Na14 O49 2.580522 1_555
Na14 O50 2.590862 1_555
Na14 O54 2.661259 1_555
Na15 O59 2.385519 1_555
Na15 O57 2.440535 1_555
Na15 O52 2.504224 1_555
Na15 O58 2.520963 1_555
Na15 O51 2.622067 1_555
Na15 O53 2.682538 1_555
Na16 O60 2.370409 1_555
Na16 O61 2.515927 1_555
Na16 O62 2.570893 1_555
Na16 O67 2.610875 1_555
Na16 O66 2.628562 1_555
Na16 O68 2.639105 1_555
Na17 O70 2.440251 1_555
Na17 O69 2.467986 1_555
Na17 O71 2.487213 1_555
Na17 O63 2.493692 1_555
Na17 O64 2.494673 1_555
Na17 O65 2.550790 1_555
Ge0 O1 1.785101 1_555
Ge0 O2 1.855478 1_565
Ge0 O37 1.892409 1_555
Ge0 O0 1.898142 1_665
Ge0 O36 1.967483 1_655
Ge0 O38 2.445782 1_665
Ge1 O8 1.889192 1_545
Ge1 O6 1.909307 1_445
Ge1 O42 1.937426 1_455
Ge1 O7 1.948613 1_555
Ge1 O43 1.988105 1_555
Ge1 O44 2.055519 1_445
Ge2 O13 1.896861 1_555
Ge2 O14 1.899057 1_555
Ge2 O12 1.917712 1_555
Ge2 O49 1.927592 1_555
Ge2 O50 1.948664 1_555
Ge2 O48 1.986577 1_555
Ge3 O23 1.808756 1_555
Ge3 O59 1.856548 1_555
Ge3 O22 1.864212 1_555
Ge3 O21 1.903160 1_555
Ge3 O57 1.922569 1_555
Ge3 O58 2.405727 1_555
Ge4 O27 1.847972 1_555
Ge4 O63 1.899483 1_555
Ge4 O29 1.902900 1_555
Ge4 O65 1.979424 1_555
Ge4 O64 2.006414 1_555
Ge4 O28 2.195977 1_555
Ge5 O34 1.830836 1_555
Ge5 O33 1.833600 1_555
Ge5 O70 1.889765 1_555
Ge5 O71 1.945927 1_555
Ge5 O69 1.977809 1_555
Ge5 O35 2.297334 1_555
O0 Si0 1.646370 1_545
O1 Si1 1.635400 1_555
O2 Si2 1.640250 1_555
O3 Si3 1.626077 1_555
O3 Zr0 1.990753 1_555
O4 Si4 1.620391 1_555
O4 Zr0 2.127454 1_665
O5 Si5 1.620278 1_555
O5 Zr0 2.054554 1_655
O6 Si5 1.658759 1_565
O7 Si3 1.651873 1_555
O8 Si4 1.654943 1_455
O9 Si1 1.618335 1_555
O9 Zr1 2.051729 1_655
O10 Si2 1.636780 1_455
O10 Zr1 2.099218 1_545
O11 Si0 1.631881 1_555
O11 Zr1 1.976497 1_555
O12 Si6 1.642782 1_555
O13 Si7 1.639341 1_555
O14 Si8 1.649399 1_555
O15 Si9 1.654034 1_555
O15 Zr2 2.017509 1_555
O16 S0 1.489473 1_555
O16 Zr2 2.231879 1_555
O17 Si10 1.644686 1_555
O17 Zr2 2.022234 1_555
O18 Si10 1.631399 1_555
O18 Zr3 1.979032 1_554
O19 Si9 1.634635 1_555
O19 Zr3 2.068771 1_554
O20 S0 1.482583 1_555
O20 Zr3 2.146900 1_554
O21 Si7 1.641733 1_555
O22 Si8 1.631044 1_555
O23 Si6 1.629670 1_555
O24 S1 1.470059 1_555
O24 Zr4 2.178194 1_556
O25 Si11 1.640602 1_555
O25 Zr4 1.983111 1_556
O26 Si12 1.625118 1_555
O26 Zr4 1.996887 1_556
O27 Si13 1.665886 1_555
O28 S2 1.502829 1_555
O29 Si14 1.684597 1_555
O30 Si14 1.635311 1_555
O30 Zr5 2.020256 1_555
O31 Si13 1.644097 1_555
O31 Zr5 2.063458 1_555
O32 S2 1.500563 1_555
O32 Zr5 2.132009 1_555
O33 Si11 1.671787 1_555
O34 Si12 1.659454 1_555
O35 S1 1.474200 1_555
O36 Si14 1.664867 1_555
O37 Si13 1.644714 1_555
O38 S2 1.488432 1_555
O39 Si11 1.620481 1_555
O39 Zr0 2.042591 1_555
O40 Si12 1.638109 1_555
O40 Zr0 2.109342 1_565
O41 S1 1.485237 1_555
O41 Zr0 2.270408 1_665
O42 Si6 1.657535 1_555
O43 Si7 1.658834 1_555
O44 Si8 1.669222 1_555
O45 Si9 1.616675 1_555
O45 Zr1 2.072468 1_655
O46 S0 1.473570 1_555
O46 Zr1 2.311664 1_645
O47 Si10 1.637023 1_555
O47 Zr1 2.105636 1_545
O48 Si5 1.651386 1_555
O49 Si3 1.645769 1_555
O50 Si4 1.648385 1_555
O51 Si1 1.640115 1_555
O51 Zr2 2.029210 1_555
O52 Si2 1.646848 1_555
O52 Zr2 2.155043 1_555
O53 Si0 1.630245 1_545
O53 Zr2 2.137926 1_555
O54 S1 1.508281 1_555
O54 Zr3 2.193895 1_555
O55 Si11 1.639582 1_655
O55 Zr3 2.154485 1_555
O56 Si12 1.624695 1_545
O56 Zr3 2.078786 1_555
O57 Si13 1.659527 1_545
O58 S2 1.488022 1_555
O59 Si14 1.636611 1_655
O60 Si10 1.633641 1_555
O60 Zr4 2.105263 1_555
O61 Si9 1.648765 1_455
O61 Zr4 2.033239 1_555
O62 S0 1.463285 1_565
O62 Zr4 2.255944 1_555
O63 Si7 1.681799 1_565
O64 Si8 1.682744 1_555
O65 Si6 1.670600 1_455
O66 Si0 1.639958 1_555
O66 Zr5 2.055014 1_555
O67 Si1 1.625979 1_555
O67 Zr5 2.114406 1_555
O68 Si2 1.641864 1_455
O68 Zr5 2.132099 1_555
O69 Si3 1.666686 1_555
O70 Si4 1.678251 1_455
O71 Si5 1.671842 1_565
