# generated using pymatgen
data_Na3Al2Ge2P5SO24
_symmetry_space_group_name_H-M   'P 1'
_cell_length_a   8.41327097
_cell_length_b   8.38857155
_cell_length_c   21.69336971
_cell_angle_alpha   90.32321086
_cell_angle_beta   89.93169625
_cell_angle_gamma   119.89582090
_symmetry_Int_Tables_number   1
_chemical_formula_structural   Na3Al2Ge2P5SO24
_chemical_formula_sum   'Na9 Al6 Ge6 P15 S3 O72'
_cell_volume   1327.26556557
_cell_formula_units_Z   3
loop_
 _symmetry_equiv_pos_site_id
 _symmetry_equiv_pos_as_xyz
  1  'x, y, z'
loop_
 _atom_site_type_symbol
 _atom_site_label
 _atom_site_symmetry_multiplicity
 _atom_site_fract_x
 _atom_site_fract_y
 _atom_site_fract_z
 _atom_site_occupancy
  Na  Na0  1  0.00154288  0.36444768  0.75061203  1
  Na  Na1  1  0.66740986  0.96725993  0.58328409  1
  Na  Na2  1  0.03381856  0.33332260  0.08332847  1
  Na  Na3  1  0.00533064  0.99720382  0.50048636  1
  Na  Na4  1  0.00274160  0.99491090  0.00015422  1
  Na  Na5  1  0.65974542  0.32977727  0.83411398  1
  Na  Na6  1  0.67235664  0.33560208  0.33328181  1
  Na  Na7  1  0.34062454  0.67045956  0.16735952  1
  Na  Na8  1  0.33364746  0.66701478  0.66668377  1
  Al  Al0  1  0.00428112  0.99910816  0.64658523  1
  Al  Al1  1  0.99366641  0.99674450  0.14630934  1
  Al  Al2  1  0.33029060  0.67045948  0.01999616  1
  Al  Al3  1  0.32936804  0.67064502  0.51991495  1
  Al  Al4  1  0.33108832  0.66590198  0.31365695  1
  Al  Al5  1  0.33288782  0.67379208  0.81331536  1
  Ge  Ge0  1  0.98181156  0.98779922  0.35215532  1
  Ge  Ge1  1  0.01028063  0.00689004  0.85134960  1
  Ge  Ge2  1  0.66265865  0.33490825  0.68579997  1
  Ge  Ge3  1  0.67416040  0.34041736  0.18517463  1
  Ge  Ge4  1  0.66582667  0.32575343  0.98135822  1
  Ge  Ge5  1  0.67421014  0.33394700  0.48114036  1
  P  P0  1  0.70729872  0.71071236  0.24846727  1
  P  P1  1  0.00231613  0.28907510  0.24935063  1
  P  P2  1  0.29141642  0.28957578  0.74897769  1
  P  P3  1  0.00098204  0.71710953  0.74911468  1
  P  P4  1  0.70811617  0.99289256  0.74901228  1
  P  P5  1  0.96202770  0.33816460  0.58394308  1
  P  P6  1  0.37526664  0.04791871  0.58253451  1
  P  P7  1  0.66556872  0.61936945  0.58275039  1
  P  P8  1  0.95453737  0.62651757  0.08236370  1
  P  P9  1  0.66100889  0.03968208  0.08414855  1
  P  P10  1  0.38128378  0.33346577  0.08342907  1
  P  P11  1  0.04570229  0.37950316  0.91655334  1
  P  P12  1  0.33267965  0.95305374  0.91681903  1
  P  P13  1  0.61697687  0.95267358  0.41677592  1
  P  P14  1  0.04772705  0.66773676  0.41598444  1
  S  S0  1  0.28678949  0.99936755  0.24954675  1
  S  S1  1  0.61970424  0.66703364  0.91658276  1
  S  S2  1  0.33285226  0.37905054  0.41641310  1
  O  O0  1  0.21039236  0.03793328  0.30653283  1
  O  O1  1  0.82935306  0.78528546  0.30768177  1
  O  O2  1  0.96332307  0.16671576  0.30788019  1
  O  O3  1  0.21335544  0.17109336  0.80806944  1
  O  O4  1  0.95887746  0.79337033  0.80873529  1
  O  O5  1  0.83693854  0.04349627  0.80688719  1
  O  O6  1  0.79442378  0.96670007  0.69072222  1
  O  O7  1  0.16585391  0.20549248  0.69346829  1
  O  O8  1  0.03320647  0.83276738  0.69257849  1
  O  O9  1  0.79839193  0.83050819  0.19270953  1
  O  O10  1  0.03362259  0.20407330  0.19113268  1
  O  O11  1  0.17410036  0.96883249  0.19448552  1
  O  O12  1  0.87749487  0.37372009  0.64302110  1
  O  O13  1  0.50504495  0.12702203  0.64004902  1
  O  O14  1  0.62622999  0.49939873  0.64098669  1
  O  O15  1  0.87709922  0.49774728  0.13965786  1
  O  O16  1  0.62474301  0.12663866  0.14187667  1
  O  O17  1  0.50184699  0.37229914  0.14166432  1
  O  O18  1  0.46306485  0.29446733  0.02502024  1
  O  O19  1  0.83136414  0.53955538  0.02481887  1
  O  O20  1  0.71234224  0.16877225  0.02690961  1
  O  O21  1  0.46215600  0.16917214  0.52484599  1
  O  O22  1  0.70495154  0.53668254  0.52467784  1
  O  O23  1  0.83097750  0.28797418  0.52724988  1
  O  O24  1  0.54042598  0.69806394  0.97254845  1
  O  O25  1  0.16085902  0.46019567  0.97511622  1
  O  O26  1  0.30093960  0.83825447  0.97440186  1
  O  O27  1  0.54003787  0.83983993  0.47576926  1
  O  O28  1  0.30135434  0.45854072  0.47237393  1
  O  O29  1  0.16194529  0.70011194  0.47410137  1
  O  O30  1  0.12969969  0.63288518  0.35850166  1
  O  O31  1  0.50179374  0.86734535  0.35945071  1
  O  O32  1  0.36489648  0.48954484  0.36097351  1
  O  O33  1  0.12867167  0.49284509  0.85820096  1
  O  O34  1  0.36848249  0.87213594  0.85907759  1
  O  O35  1  0.50905627  0.63501360  0.86097432  1
  O  O36  1  0.02786726  0.84377278  0.40887714  1
  O  O37  1  0.81476341  0.97855409  0.41072314  1
  O  O38  1  0.16755970  0.19209806  0.41000533  1
  O  O39  1  0.02097769  0.18232896  0.90980789  1
  O  O40  1  0.15853954  0.97394769  0.91001268  1
  O  O41  1  0.80583020  0.83323900  0.91088278  1
  O  O42  1  0.97309752  0.16259066  0.59144773  1
  O  O43  1  0.18884108  0.02955380  0.59094683  1
  O  O44  1  0.83445901  0.81065666  0.59040471  1
  O  O45  1  0.97392828  0.81391951  0.09176768  1
  O  O46  1  0.83617557  0.02763576  0.09130092  1
  O  O47  1  0.18967676  0.16425946  0.09146986  1
  O  O48  1  0.69378938  0.17221833  0.74333753  1
  O  O49  1  0.48238198  0.30728963  0.74274078  1
  O  O50  1  0.82916677  0.51893714  0.74357161  1
  O  O51  1  0.68889924  0.51616153  0.24271011  1
  O  O52  1  0.82540568  0.30531526  0.24321780  1
  O  O53  1  0.47211392  0.16604100  0.24436244  1
  O  O54  1  0.64031173  0.50044780  0.92220767  1
  O  O55  1  0.85132303  0.35969218  0.92341936  1
  O  O56  1  0.50504550  0.14990879  0.92348893  1
  O  O57  1  0.63953444  0.14880967  0.42344706  1
  O  O58  1  0.49914422  0.35891525  0.42226194  1
  O  O59  1  0.85084671  0.49591281  0.42318159  1
  O  O60  1  0.35808335  0.50256255  0.07516035  1
  O  O61  1  0.14181318  0.63878591  0.07515990  1
  O  O62  1  0.49341620  0.85279483  0.07490212  1
  O  O63  1  0.36247856  0.85939067  0.57555591  1
  O  O64  1  0.49653563  0.64177009  0.57472955  1
  O  O65  1  0.14768294  0.50691506  0.57482039  1
  O  O66  1  0.30573763  0.83556208  0.25667904  1
  O  O67  1  0.51930292  0.69133660  0.25864597  1
  O  O68  1  0.17035734  0.47882792  0.25849588  1
  O  O69  1  0.30962302  0.47910558  0.75895036  1
  O  O70  1  0.16607690  0.68767792  0.75748798  1
  O  O71  1  0.52052863  0.82596851  0.75850609  1
loop_
_geom_bond_atom_site_label_1
_geom_bond_atom_site_label_2
_geom_bond_distance
_geom_bond_site_symmetry_2
Na0 O48 2.272720 1_455
Na0 O69 2.278178 1_555
Na0 O70 2.354729 1_555
Na0 O50 2.383757 1_455
Na0 O33 2.565283 1_555
Na0 O12 2.575196 1_455
Na0 O5 2.640663 1_455
Na0 O7 2.653383 1_555
Na1 O63 2.261359 1_555
Na1 O42 2.264408 1_565
Na1 O44 2.359685 1_555
Na1 O64 2.374503 1_555
Na1 O27 2.562570 1_555
Na1 O6 2.566152 1_555
Na1 O23 2.636583 1_565
Na1 O13 2.642119 1_565
Na2 O61 2.259810 1_555
Na2 O46 2.263674 1_455
Na2 O47 2.370463 1_555
Na2 O60 2.372844 1_555
Na2 O10 2.582937 1_555
Na2 O25 2.583417 1_554
Na2 O15 2.631386 1_455
Na2 O20 2.643060 1_455
Na3 O36 2.419797 1_555
Na3 O43 2.427321 1_565
Na3 O44 2.470959 1_455
Na3 O37 2.478073 1_455
Na3 O38 2.488755 1_565
Na3 O42 2.496987 1_465
Na4 O40 2.406804 1_554
Na4 O45 2.445334 1_455
Na4 O41 2.464257 1_454
Na4 O39 2.475909 1_564
Na4 O47 2.482785 1_565
Na4 O46 2.513875 1_465
Na5 O56 2.408126 1_555
Na5 O49 2.431786 1_555
Na5 O54 2.435218 1_555
Na5 O55 2.452118 1_555
Na5 O48 2.460387 1_555
Na5 O50 2.486242 1_555
Na6 O59 2.414789 1_555
Na6 O52 2.419584 1_555
Na6 O57 2.441178 1_555
Na6 O51 2.448824 1_555
Na6 O58 2.482141 1_555
Na6 O53 2.484012 1_555
Na7 O67 2.439850 1_555
Na7 O62 2.466432 1_555
Na7 O66 2.476359 1_555
Na7 O60 2.485839 1_555
Na7 O68 2.505695 1_555
Na7 O61 2.535313 1_555
Na8 O71 2.470922 1_555
Na8 O65 2.470938 1_555
Na8 O70 2.476098 1_555
Na8 O64 2.485987 1_555
Na8 O63 2.493133 1_555
Na8 O69 2.499774 1_555
Al0 O8 1.832088 1_555
Al0 O7 1.875359 1_565
Al0 O43 1.880631 1_565
Al0 O6 1.904836 1_455
Al0 O44 1.938205 1_455
Al0 O42 1.938592 1_465
Al1 O9 1.839840 1_555
Al1 O10 1.866062 1_665
Al1 O45 1.872350 1_555
Al1 O46 1.896404 1_565
Al1 O11 1.952529 1_655
Al1 O47 1.952832 1_665
Al2 O26 1.839371 1_554
Al2 O62 1.879498 1_555
Al2 O25 1.889045 1_554
Al2 O61 1.896367 1_555
Al2 O60 1.954064 1_555
Al2 O24 1.956757 1_554
Al3 O29 1.840138 1_555
Al3 O65 1.887563 1_555
Al3 O27 1.891201 1_555
Al3 O63 1.892347 1_555
Al3 O64 1.948723 1_555
Al3 O28 1.961318 1_555
Al4 O30 1.850732 1_555
Al4 O31 1.862856 1_555
Al4 O68 1.894855 1_555
Al4 O67 1.907541 1_555
Al4 O32 1.939172 1_555
Al4 O66 1.980371 1_555
Al5 O34 1.824525 1_555
Al5 O71 1.881287 1_555
Al5 O33 1.901854 1_555
Al5 O70 1.902235 1_555
Al5 O69 1.938175 1_555
Al5 O35 1.964581 1_555
Ge0 O1 1.809502 1_555
Ge0 O2 1.857045 1_565
Ge0 O37 1.866462 1_555
Ge0 O36 1.899607 1_655
Ge0 O0 2.012133 1_665
Ge0 O38 2.065137 1_665
Ge1 O3 1.833766 1_555
Ge1 O4 1.860073 1_445
Ge1 O40 1.898181 1_545
Ge1 O5 1.898578 1_455
Ge1 O39 1.905087 1_555
Ge1 O41 2.065613 1_445
Ge2 O14 1.838581 1_555
Ge2 O13 1.860904 1_555
Ge2 O49 1.878402 1_555
Ge2 O12 1.909706 1_555
Ge2 O50 1.934641 1_555
Ge2 O48 1.966056 1_555
Ge3 O15 1.842921 1_555
Ge3 O17 1.859230 1_555
Ge3 O16 1.873422 1_555
Ge3 O51 1.882550 1_555
Ge3 O52 1.916468 1_555
Ge3 O53 2.053088 1_555
Ge4 O20 1.842019 1_556
Ge4 O18 1.851686 1_556
Ge4 O19 1.881291 1_556
Ge4 O56 1.890964 1_555
Ge4 O55 1.911242 1_555
Ge4 O54 2.043423 1_555
Ge5 O22 1.842599 1_555
Ge5 O23 1.844821 1_555
Ge5 O21 1.882797 1_555
Ge5 O57 1.894924 1_555
Ge5 O59 1.907189 1_555
Ge5 O58 2.039529 1_555
O0 S0 1.498967 1_545
O1 P0 1.565130 1_555
O2 P1 1.565680 1_655
O3 P2 1.556952 1_555
O4 P3 1.556601 1_655
O5 P4 1.571543 1_545
O6 P4 1.525856 1_555
O7 P2 1.521254 1_555
O8 P3 1.506463 1_555
O9 P0 1.517910 1_555
O10 P1 1.532676 1_555
O11 S0 1.465736 1_555
O12 P5 1.562764 1_555
O13 P6 1.568713 1_555
O14 P7 1.549095 1_555
O15 P8 1.564537 1_555
O16 P9 1.550524 1_555
O17 P10 1.549189 1_555
O18 P10 1.550340 1_555
O19 P8 1.550367 1_555
O20 P9 1.564825 1_555
O21 P6 1.551158 1_555
O22 P7 1.547972 1_555
O23 P5 1.562089 1_555
O24 S1 1.467721 1_555
O25 P11 1.533076 1_555
O26 P12 1.521685 1_555
O27 P13 1.534154 1_555
O28 S2 1.467942 1_555
O29 P14 1.524974 1_555
O30 P14 1.520172 1_555
O31 P13 1.516342 1_555
O32 S2 1.463192 1_555
O33 P11 1.530857 1_555
O34 P12 1.521128 1_555
O35 S1 1.464155 1_555
O36 P14 1.575085 1_555
O37 P13 1.572594 1_555
O38 S2 1.495544 1_555
O39 P11 1.566780 1_555
O40 P12 1.567096 1_555
O41 S1 1.495457 1_555
O42 P5 1.530960 1_555
O43 P6 1.508587 1_555
O44 P7 1.531700 1_555
O45 P8 1.510077 1_555
O46 P9 1.534707 1_555
O47 P10 1.537856 1_555
O48 P4 1.573352 1_545
O49 P2 1.543832 1_555
O50 P3 1.571699 1_655
O51 P0 1.564898 1_555
O52 P1 1.566648 1_655
O53 S0 1.492241 1_545
O54 S1 1.497068 1_555
O55 P11 1.566207 1_655
O56 P12 1.568902 1_545
O57 P13 1.565277 1_545
O58 S2 1.496070 1_555
O59 P14 1.570842 1_655
O60 P10 1.536659 1_555
O61 P8 1.534760 1_455
O62 P9 1.509863 1_565
O63 P6 1.537303 1_565
O64 P7 1.534719 1_555
O65 P5 1.510321 1_455
O66 S0 1.469118 1_555
O67 P0 1.523197 1_555
O68 P1 1.524998 1_555
O69 P2 1.533438 1_555
O70 P3 1.538242 1_555
O71 P4 1.514413 1_555
