# generated using pymatgen
data_Na10Nb4Si11Ge4SO48
_symmetry_space_group_name_H-M   'P 1'
_cell_length_a   17.72916626
_cell_length_b   8.85818717
_cell_length_c   22.15071831
_cell_angle_alpha   90.27221561
_cell_angle_beta   90.20899447
_cell_angle_gamma   119.98851602
_symmetry_Int_Tables_number   1
_chemical_formula_structural   Na10Nb4Si11Ge4SO48
_chemical_formula_sum   'Na30 Nb12 Si33 Ge12 S3 O144'
_cell_volume   3012.91205966
_cell_formula_units_Z   3
loop_
 _symmetry_equiv_pos_site_id
 _symmetry_equiv_pos_as_xyz
  1  'x, y, z'
loop_
 _atom_site_type_symbol
 _atom_site_label
 _atom_site_symmetry_multiplicity
 _atom_site_fract_x
 _atom_site_fract_y
 _atom_site_fract_z
 _atom_site_occupancy
  Na  Na0  1  0.31614428  0.99988821  0.24952043  1
  Na  Na1  1  0.81610502  0.99987657  0.25036142  1
  Na  Na2  1  0.82184615  0.63912701  0.74939498  1
  Na  Na3  1  0.49549923  0.35503364  0.74795445  1
  Na  Na4  1  0.01721120  0.70192924  0.58571071  1
  Na  Na5  1  0.33086615  0.96772559  0.58542310  1
  Na  Na6  1  0.83469292  0.96544946  0.58420359  1
  Na  Na7  1  0.33191619  0.69883451  0.08736586  1
  Na  Na8  1  0.83308367  0.69974925  0.08849901  1
  Na  Na9  1  0.01792078  0.33355320  0.08735583  1
  Na  Na10  1  0.51519390  0.33110486  0.08728361  1
  Na  Na11  1  0.98578056  0.66456921  0.91247323  1
  Na  Na12  1  0.34685408  0.03306266  0.91607343  1
  Na  Na13  1  0.85444710  0.03669383  0.91475266  1
  Na  Na14  1  0.48250962  0.30135125  0.41236986  1
  Na  Na15  1  0.98300454  0.30113376  0.41147164  1
  Na  Na16  1  0.35101810  0.66691973  0.41256761  1
  Na  Na17  1  0.85051749  0.66794097  0.41245224  1
  Na  Na18  1  0.01028799  0.01007289  0.49906091  1
  Na  Na19  1  0.50946698  0.00121026  0.49789273  1
  Na  Na20  1  0.01200125  0.01179759  0.00088798  1
  Na  Na21  1  0.50722396  0.99715303  0.00210927  1
  Na  Na22  1  0.32587293  0.33903664  0.83040454  1
  Na  Na23  1  0.83221440  0.32533354  0.83298126  1
  Na  Na24  1  0.33195037  0.33995336  0.32747194  1
  Na  Na25  1  0.83156222  0.33961582  0.32716833  1
  Na  Na26  1  0.16243314  0.66100288  0.17193362  1
  Na  Na27  1  0.66152763  0.66050846  0.17327108  1
  Na  Na28  1  0.16671648  0.65729987  0.67341506  1
  Na  Na29  1  0.66238819  0.66876160  0.66386673  1
  Nb  Nb0  1  0.49714408  0.99454731  0.85406553  1
  Nb  Nb1  1  0.49748047  0.99607176  0.64458833  1
  Nb  Nb2  1  0.83877954  0.33470647  0.69139553  1
  Nb  Nb3  1  0.33122806  0.34278245  0.97928123  1
  Nb  Nb4  1  0.83261122  0.33609625  0.98104592  1
  Nb  Nb5  1  0.32886224  0.32631615  0.47729152  1
  Nb  Nb6  1  0.83294120  0.32850497  0.47675496  1
  Nb  Nb7  1  0.16552189  0.67009327  0.02175864  1
  Nb  Nb8  1  0.66721856  0.67003409  0.02420918  1
  Nb  Nb9  1  0.16666211  0.66190876  0.52037251  1
  Nb  Nb10  1  0.66126385  0.65973223  0.51927317  1
  Nb  Nb11  1  0.66693407  0.67412988  0.80952069  1
  Si  Si0  1  0.35526753  0.70776207  0.24947288  1
  Si  Si1  1  0.85556178  0.70870016  0.24938185  1
  Si  Si2  1  0.00151352  0.29142293  0.25044714  1
  Si  Si3  1  0.50147429  0.29134929  0.25041756  1
  Si  Si4  1  0.64604906  0.28706649  0.75046398  1
  Si  Si5  1  0.00872648  0.72652969  0.75177639  1
  Si  Si6  1  0.49183224  0.69812186  0.74771043  1
  Si  Si7  1  0.34487911  0.99314446  0.74953889  1
  Si  Si8  1  0.86476653  0.00443574  0.75037292  1
  Si  Si9  1  0.47703286  0.33677802  0.58530459  1
  Si  Si10  1  0.98167497  0.32584221  0.58484038  1
  Si  Si11  1  0.18811519  0.05307040  0.58851105  1
  Si  Si12  1  0.68736665  0.04636509  0.58391283  1
  Si  Si13  1  0.33146729  0.60931626  0.58643904  1
  Si  Si14  1  0.83398034  0.62462700  0.58513141  1
  Si  Si15  1  0.47895626  0.63271479  0.08849954  1
  Si  Si16  1  0.97958886  0.63369635  0.08816982  1
  Si  Si17  1  0.33283475  0.05304163  0.08834904  1
  Si  Si18  1  0.83386831  0.05169649  0.09013085  1
  Si  Si19  1  0.18820423  0.32157203  0.09029138  1
  Si  Si20  1  0.68817553  0.32008686  0.09057511  1
  Si  Si21  1  0.30358017  0.66081675  0.91204499  1
  Si  Si22  1  0.81353612  0.66873151  0.91531339  1
  Si  Si23  1  0.02834441  0.37808013  0.91153594  1
  Si  Si24  1  0.52174180  0.37804939  0.91667412  1
  Si  Si25  1  0.16437349  0.95811076  0.91290463  1
  Si  Si26  1  0.66445279  0.95803885  0.91781292  1
  Si  Si27  1  0.30762906  0.94839624  0.41020337  1
  Si  Si28  1  0.80712774  0.94675133  0.41098556  1
  Si  Si29  1  0.16256165  0.36792725  0.41120925  1
  Si  Si30  1  0.66310253  0.36761229  0.41171352  1
  Si  Si31  1  0.02870288  0.68007798  0.41096089  1
  Si  Si32  1  0.52655315  0.67795849  0.40909256  1
  Ge  Ge0  1  0.99337187  0.99375373  0.35289661  1
  Ge  Ge1  1  0.49361080  0.99413083  0.35254615  1
  Ge  Ge2  1  0.99940339  0.99910130  0.85531507  1
  Ge  Ge3  1  0.00105089  0.99285022  0.64629258  1
  Ge  Ge4  1  0.99710290  0.00609280  0.14753561  1
  Ge  Ge5  1  0.49563775  0.00506733  0.14738257  1
  Ge  Ge6  1  0.33658656  0.33160340  0.68549409  1
  Ge  Ge7  1  0.34473424  0.35420560  0.18655565  1
  Ge  Ge8  1  0.84466541  0.35445139  0.18703014  1
  Ge  Ge9  1  0.16715693  0.64656665  0.31293311  1
  Ge  Ge10  1  0.66728480  0.64595186  0.31325782  1
  Ge  Ge11  1  0.16726878  0.68305044  0.81401025  1
  S  S0  1  0.14056446  0.99980537  0.25026258  1
  S  S1  1  0.64088907  0.00043005  0.24998679  1
  S  S2  1  0.14186633  0.28286811  0.74998116  1
  O  O0  1  0.09958347  0.02439999  0.30542576  1
  O  O1  1  0.60018038  0.02480585  0.30521260  1
  O  O2  1  0.41437994  0.79522157  0.31067719  1
  O  O3  1  0.91448970  0.79527496  0.31072959  1
  O  O4  1  0.48044886  0.16190395  0.30917327  1
  O  O5  1  0.98043046  0.16208394  0.30923806  1
  O  O6  1  0.10204777  0.17523370  0.80507703  1
  O  O7  1  0.59696892  0.16721835  0.80861629  1
  O  O8  1  0.48156163  0.79587631  0.80725327  1
  O  O9  1  0.98390131  0.80809839  0.81007981  1
  O  O10  1  0.41229536  0.03614559  0.80778995  1
  O  O11  1  0.91812960  0.02919889  0.81268003  1
  O  O12  1  0.39499458  0.97093575  0.68994466  1
  O  O13  1  0.90514618  0.96407807  0.69036594  1
  O  O14  1  0.08708532  0.20063883  0.69422698  1
  O  O15  1  0.58144389  0.19737451  0.69263635  1
  O  O16  1  0.01928952  0.83366146  0.68926114  1
  O  O17  1  0.51094469  0.82662015  0.69066119  1
  O  O18  1  0.39894015  0.83787800  0.19093743  1
  O  O19  1  0.89930409  0.83831069  0.19073908  1
  O  O20  1  0.01649516  0.20440618  0.18945866  1
  O  O21  1  0.51693331  0.20450153  0.18934298  1
  O  O22  1  0.08728785  0.97484104  0.19473959  1
  O  O23  1  0.58777628  0.97603004  0.19452707  1
  O  O24  1  0.43635088  0.36603666  0.64676750  1
  O  O25  1  0.93470875  0.36787504  0.64084776  1
  O  O26  1  0.25636182  0.13700144  0.64403727  1
  O  O27  1  0.75228310  0.14009721  0.64174677  1
  O  O28  1  0.31629138  0.48787545  0.64405844  1
  O  O29  1  0.82042270  0.50769364  0.64487654  1
  O  O30  1  0.44052785  0.49678316  0.14403448  1
  O  O31  1  0.93850605  0.49489206  0.14268756  1
  O  O32  1  0.31742396  0.14079959  0.14819911  1
  O  O33  1  0.81723642  0.14155555  0.14846148  1
  O  O34  1  0.25905192  0.37449333  0.14450646  1
  O  O35  1  0.75916584  0.37375172  0.14438844  1
  O  O36  1  0.23234735  0.29632788  0.02806114  1
  O  O37  1  0.73465414  0.29787945  0.02800493  1
  O  O38  1  0.41522429  0.54327512  0.02868553  1
  O  O39  1  0.91882881  0.54720226  0.02618690  1
  O  O40  1  0.35172088  0.17162394  0.02716963  1
  O  O41  1  0.85193568  0.16986775  0.02816908  1
  O  O42  1  0.23327521  0.16811128  0.52696310  1
  O  O43  1  0.73748401  0.16727961  0.52507840  1
  O  O44  1  0.34565394  0.52915691  0.52328250  1
  O  O45  1  0.85225548  0.53531315  0.52551797  1
  O  O46  1  0.41688895  0.30301146  0.52449524  1
  O  O47  1  0.92037362  0.29143423  0.52416810  1
  O  O48  1  0.26514003  0.69945369  0.97476267  1
  O  O49  1  0.76928426  0.70054091  0.97545570  1
  O  O50  1  0.08226216  0.46245770  0.97544899  1
  O  O51  1  0.58139327  0.46947189  0.97695757  1
  O  O52  1  0.14490966  0.82814312  0.97201314  1
  O  O53  1  0.65537266  0.83767974  0.97598827  1
  O  O54  1  0.26677019  0.83112812  0.47218939  1
  O  O55  1  0.76678221  0.82898541  0.47221983  1
  O  O56  1  0.14538225  0.46049470  0.47131839  1
  O  O57  1  0.64430283  0.45805093  0.47137033  1
  O  O58  1  0.08263399  0.70299735  0.47508554  1
  O  O59  1  0.58424659  0.70392177  0.47170953  1
  O  O60  1  0.07258505  0.62655464  0.35696031  1
  O  O61  1  0.57169577  0.62562629  0.35559357  1
  O  O62  1  0.24684956  0.85853346  0.35134296  1
  O  O63  1  0.74702175  0.85885623  0.35142485  1
  O  O64  1  0.19157465  0.50488166  0.35620342  1
  O  O65  1  0.69248963  0.50449383  0.35636254  1
  O  O66  1  0.06989168  0.51552213  0.85673763  1
  O  O67  1  0.56917599  0.49630564  0.85705295  1
  O  O68  1  0.19038844  0.87689040  0.85682539  1
  O  O69  1  0.68279056  0.86778128  0.85887458  1
  O  O70  1  0.24268754  0.63196452  0.85444094  1
  O  O71  1  0.75397953  0.64023516  0.85546634  1
  O  O72  1  0.01266120  0.84587885  0.40647651  1
  O  O73  1  0.51266473  0.84640201  0.40563636  1
  O  O74  1  0.40560539  0.96964847  0.40856870  1
  O  O75  1  0.90564859  0.97003117  0.40863621  1
  O  O76  1  0.07379686  0.18020405  0.40524101  1
  O  O77  1  0.57441955  0.17998553  0.40475624  1
  O  O78  1  0.01448545  0.18158993  0.90726804  1
  O  O79  1  0.50810102  0.18232980  0.91293057  1
  O  O80  1  0.07616037  0.97037404  0.90699544  1
  O  O81  1  0.57833407  0.97351143  0.91372211  1
  O  O82  1  0.39947215  0.83854612  0.90904570  1
  O  O83  1  0.90985939  0.84464335  0.91178727  1
  O  O84  1  0.48155974  0.15696463  0.58719964  1
  O  O85  1  0.98665494  0.15002741  0.59366385  1
  O  O86  1  0.09050730  0.02496155  0.59280808  1
  O  O87  1  0.59240710  0.02747647  0.58729944  1
  O  O88  1  0.41472634  0.80884318  0.58846795  1
  O  O89  1  0.92323637  0.81670242  0.58936521  1
  O  O90  1  0.48438554  0.82073025  0.09535529  1
  O  O91  1  0.98419820  0.82061121  0.09502290  1
  O  O92  1  0.42010174  0.02972303  0.09136997  1
  O  O93  1  0.92143955  0.03162750  0.09145640  1
  O  O94  1  0.08963224  0.15470476  0.09441508  1
  O  O95  1  0.58955980  0.15455669  0.09386666  1
  O  O96  1  0.34246709  0.17659765  0.74423252  1
  O  O97  1  0.85206657  0.17437104  0.74631782  1
  O  O98  1  0.22901958  0.29826608  0.74522126  1
  O  O99  1  0.74390586  0.31655608  0.74818786  1
  O  O100  1  0.40636870  0.50347958  0.74422678  1
  O  O101  1  0.91798799  0.53291388  0.74605330  1
  O  O102  1  0.34625531  0.51387337  0.24361712  1
  O  O103  1  0.84639553  0.51452504  0.24355295  1
  O  O104  1  0.40928469  0.29937784  0.24522498  1
  O  O105  1  0.90932915  0.29991759  0.24515871  1
  O  O106  1  0.22959365  0.15659877  0.24778470  1
  O  O107  1  0.73016731  0.15738361  0.24763613  1
  O  O108  1  0.31700028  0.49336197  0.92002832  1
  O  O109  1  0.82665332  0.49935732  0.91987898  1
  O  O110  1  0.42475199  0.35488938  0.92148729  1
  O  O111  1  0.92999126  0.35616964  0.92163020  1
  O  O112  1  0.25226171  0.14565798  0.92301084  1
  O  O113  1  0.75565165  0.14450627  0.92212091  1
  O  O114  1  0.32278752  0.14569938  0.41791911  1
  O  O115  1  0.82367633  0.14629126  0.41814238  1
  O  O116  1  0.25088453  0.35625220  0.41975194  1
  O  O117  1  0.75263971  0.35897414  0.42169524  1
  O  O118  1  0.42922509  0.50215631  0.41944779  1
  O  O119  1  0.93082406  0.50256144  0.42046373  1
  O  O120  1  0.17855386  0.49790504  0.08001149  1
  O  O121  1  0.67985501  0.49738214  0.08000678  1
  O  O122  1  0.07272948  0.64141644  0.07956249  1
  O  O123  1  0.57323301  0.64285404  0.07963542  1
  O  O124  1  0.24958358  0.85412105  0.08037160  1
  O  O125  1  0.75107886  0.85305818  0.08281314  1
  O  O126  1  0.17943549  0.85901849  0.57846911  1
  O  O127  1  0.68384448  0.85963810  0.57750871  1
  O  O128  1  0.24809260  0.64257763  0.57908013  1
  O  O129  1  0.75042451  0.65219572  0.57822823  1
  O  O130  1  0.07341675  0.50744771  0.57923842  1
  O  O131  1  0.57355310  0.50729754  0.57900969  1
  O  O132  1  0.15083975  0.84198230  0.25268149  1
  O  O133  1  0.65147333  0.84282643  0.25240700  1
  O  O134  1  0.25912843  0.69993200  0.25465341  1
  O  O135  1  0.75935054  0.70030789  0.25459019  1
  O  O136  1  0.08879744  0.48614053  0.25639170  1
  O  O137  1  0.58925637  0.48556898  0.25638453  1
  O  O138  1  0.14895065  0.45682263  0.75401134  1
  O  O139  1  0.65470279  0.48036738  0.75307621  1
  O  O140  1  0.09078408  0.69388040  0.75746295  1
  O  O141  1  0.57945924  0.67816276  0.75300955  1
  O  O142  1  0.25341057  0.81202829  0.75558719  1
  O  O143  1  0.76610824  0.82907814  0.75374796  1
loop_
_geom_bond_atom_site_label_1
_geom_bond_atom_site_label_2
_geom_bond_distance
_geom_bond_site_symmetry_2
Na0 O104 2.323399 1_565
Na0 O134 2.326694 1_555
Na0 O106 2.532300 1_565
Na0 O132 2.540667 1_555
Na0 O32 2.567939 1_565
Na0 O62 2.583306 1_555
Na0 O18 2.828478 1_555
Na0 O4 2.840050 1_565
Na1 O135 2.323118 1_555
Na1 O105 2.328520 1_565
Na1 O107 2.529197 1_565
Na1 O133 2.529654 1_555
Na1 O63 2.566932 1_555
Na1 O33 2.583082 1_565
Na1 O5 2.832468 1_565
Na1 O19 2.841623 1_555
Na2 O101 2.323675 1_555
Na2 O143 2.340588 1_555
Na2 O99 2.475240 1_555
Na2 O139 2.569541 1_555
Na2 O29 2.580831 1_555
Na2 O71 2.645838 1_555
Na2 O9 2.820598 1_555
Na2 O13 2.824290 1_555
Na3 O96 2.361447 1_555
Na3 O139 2.464981 1_555
Na3 O141 2.481488 1_555
Na3 O24 2.493989 1_555
Na3 O100 2.512027 1_555
Na3 O67 2.725150 1_555
Na3 O10 2.792204 1_555
Na3 O15 2.810379 1_555
Na4 O89 2.347248 1_455
Na4 O130 2.386669 1_555
Na4 O86 2.485664 1_565
Na4 O126 2.497747 1_555
Na4 O16 2.560300 1_555
Na4 O58 2.712935 1_555
Na4 O25 2.847466 1_455
Na4 O45 2.854279 1_455
Na5 O84 2.339019 1_565
Na5 O126 2.360091 1_555
Na5 O128 2.497672 1_555
Na5 O88 2.507545 1_555
Na5 O12 2.569354 1_555
Na5 O54 2.760867 1_555
Na5 O26 2.766386 1_565
Na5 O46 2.914357 1_565
Na6 O127 2.354349 1_555
Na6 O85 2.358994 1_565
Na6 O129 2.408375 1_555
Na6 O89 2.506255 1_555
Na6 O13 2.661625 1_555
Na6 O55 2.749301 1_555
Na6 O47 2.842653 1_565
Na6 O27 2.899511 1_565
Na7 O90 2.362453 1_555
Na7 O120 2.396584 1_555
Na7 O124 2.460572 1_555
Na7 O92 2.541447 1_565
Na7 O18 2.585055 1_555
Na7 O48 2.758249 1_554
Na7 O38 2.793085 1_555
Na7 O34 2.803862 1_555
Na8 O91 2.339496 1_555
Na8 O121 2.398700 1_555
Na8 O125 2.438835 1_555
Na8 O93 2.548456 1_565
Na8 O19 2.554873 1_555
Na8 O49 2.745335 1_554
Na8 O35 2.802114 1_555
Na8 O39 2.844848 1_555
Na9 O93 2.348911 1_455
Na9 O122 2.401626 1_555
Na9 O120 2.473341 1_555
Na9 O94 2.482985 1_555
Na9 O20 2.533882 1_555
Na9 O50 2.737709 1_554
Na9 O31 2.744907 1_455
Na9 O41 2.858231 1_455
Na10 O92 2.341338 1_555
Na10 O123 2.424603 1_555
Na10 O95 2.503457 1_555
Na10 O121 2.534776 1_555
Na10 O21 2.535257 1_555
Na10 O30 2.724550 1_555
Na10 O51 2.731902 1_554
Na10 O40 2.833662 1_555
Na11 O80 2.363418 1_655
Na11 O111 2.405849 1_555
Na11 O109 2.450744 1_555
Na11 O83 2.550069 1_555
Na11 O9 2.613619 1_555
Na11 O66 2.730785 1_655
Na11 O39 2.765404 1_556
Na11 O52 2.768835 1_655
Na12 O82 2.338545 1_545
Na12 O112 2.345930 1_555
Na12 O110 2.471550 1_555
Na12 O79 2.479800 1_555
Na12 O10 2.662551 1_555
Na12 O40 2.726477 1_556
Na12 O68 2.729693 1_545
Na12 O48 2.879646 1_545
Na13 O83 2.352388 1_545
Na13 O113 2.383165 1_555
Na13 O111 2.455858 1_555
Na13 O78 2.467868 1_655
Na13 O11 2.546233 1_555
Na13 O41 2.780326 1_556
Na13 O69 2.904398 1_545
Na13 O49 2.917687 1_545
Na14 O77 2.364523 1_555
Na14 O118 2.399848 1_555
Na14 O114 2.456838 1_555
Na14 O74 2.547863 1_545
Na14 O4 2.584543 1_555
Na14 O46 2.749565 1_555
Na14 O57 2.799636 1_555
Na14 O61 2.800261 1_555
Na15 O76 2.341266 1_655
Na15 O119 2.393167 1_555
Na15 O115 2.452396 1_555
Na15 O75 2.542385 1_545
Na15 O5 2.562023 1_555
Na15 O47 2.720073 1_555
Na15 O60 2.785750 1_655
Na15 O56 2.815957 1_655
Na16 O74 2.354596 1_555
Na16 O116 2.423348 1_555
Na16 O118 2.469702 1_555
Na16 O73 2.493027 1_555
Na16 O2 2.532589 1_555
Na16 O44 2.725198 1_555
Na16 O64 2.740617 1_555
Na16 O54 2.873845 1_555
Na17 O75 2.347642 1_555
Na17 O117 2.409143 1_555
Na17 O72 2.498188 1_655
Na17 O119 2.508066 1_555
Na17 O3 2.529745 1_555
Na17 O65 2.718806 1_555
Na17 O45 2.777993 1_555
Na17 O55 2.846955 1_555
Na18 O86 2.478020 1_555
Na18 O76 2.491658 1_555
Na18 O72 2.521213 1_545
Na18 O85 2.569965 1_455
Na18 O89 2.594146 1_445
Na18 O75 2.624444 1_445
Na19 O87 2.402254 1_555
Na19 O73 2.472194 1_545
Na19 O77 2.513058 1_555
Na19 O84 2.593319 1_555
Na19 O74 2.614803 1_545
Na19 O88 2.635550 1_545
Na20 O94 2.449752 1_555
Na20 O80 2.486219 1_544
Na20 O78 2.555119 1_554
Na20 O83 2.575413 1_444
Na20 O91 2.581774 1_445
Na20 O93 2.633533 1_455
Na21 O81 2.396759 1_554
Na21 O95 2.474425 1_565
Na21 O90 2.505317 1_555
Na21 O79 2.568762 1_564
Na21 O92 2.615465 1_565
Na21 O82 2.670870 1_554
Na22 O100 2.402213 1_555
Na22 O98 2.447285 1_555
Na22 O108 2.454822 1_555
Na22 O96 2.490306 1_555
Na22 O112 2.581369 1_555
Na22 O110 2.624652 1_555
Na23 O99 2.416713 1_555
Na23 O97 2.459318 1_555
Na23 O113 2.486574 1_555
Na23 O109 2.493233 1_555
Na23 O111 2.536186 1_555
Na23 O101 2.580892 1_555
Na24 O102 2.351161 1_555
Na24 O104 2.415102 1_555
Na24 O106 2.459635 1_555
Na24 O116 2.547695 1_555
Na24 O118 2.580483 1_555
Na24 O114 2.599407 1_555
Na25 O103 2.350247 1_555
Na25 O105 2.412758 1_555
Na25 O107 2.447434 1_555
Na25 O117 2.574729 1_555
Na25 O115 2.609313 1_555
Na25 O119 2.618577 1_555
Na26 O136 2.372218 1_555
Na26 O134 2.407339 1_555
Na26 O132 2.473124 1_555
Na26 O122 2.538288 1_555
Na26 O120 2.589195 1_555
Na26 O124 2.615490 1_555
Na27 O137 2.343492 1_555
Na27 O135 2.395142 1_555
Na27 O133 2.444566 1_555
Na27 O123 2.550548 1_555
Na27 O125 2.606411 1_555
Na27 O121 2.628180 1_555
Na28 O142 2.324647 1_555
Na28 O140 2.414940 1_555
Na28 O138 2.432108 1_555
Na28 O130 2.569721 1_555
Na28 O128 2.583087 1_555
Na28 O126 2.702446 1_555
Na29 O131 2.400060 1_555
Na29 O127 2.460855 1_555
Na29 O141 2.491901 1_555
Na29 O129 2.510779 1_555
Na29 O139 2.552321 1_555
Na29 O143 2.588032 1_555
Nb0 O8 1.934738 1_555
Nb0 O7 1.951109 1_565
Nb0 O10 1.998963 1_565
Nb0 O82 2.007643 1_555
Nb0 O81 2.027183 1_555
Nb0 O79 2.039452 1_565
Nb1 O17 1.929395 1_555
Nb1 O15 1.960938 1_565
Nb1 O12 1.992841 1_555
Nb1 O88 1.995789 1_555
Nb1 O87 2.017679 1_565
Nb1 O84 2.035587 1_565
Nb2 O25 1.936494 1_555
Nb2 O27 1.964663 1_555
Nb2 O97 1.975225 1_555
Nb2 O101 2.005793 1_555
Nb2 O29 2.006713 1_555
Nb2 O99 2.045638 1_555
Nb3 O36 1.925357 1_556
Nb3 O38 1.973626 1_556
Nb3 O108 1.978894 1_555
Nb3 O112 2.021261 1_555
Nb3 O40 2.029550 1_556
Nb3 O110 2.058806 1_555
Nb4 O37 1.908269 1_556
Nb4 O41 1.972671 1_556
Nb4 O39 1.986685 1_556
Nb4 O113 2.024034 1_555
Nb4 O109 2.026982 1_555
Nb4 O111 2.111005 1_555
Nb5 O42 1.923694 1_555
Nb5 O44 1.949515 1_555
Nb5 O46 1.970709 1_555
Nb5 O116 1.990695 1_555
Nb5 O114 2.026750 1_555
Nb5 O118 2.121075 1_555
Nb6 O43 1.913409 1_555
Nb6 O117 1.990413 1_555
Nb6 O45 1.997845 1_555
Nb6 O115 2.007823 1_555
Nb6 O47 2.028274 1_555
Nb6 O119 2.074328 1_555
Nb7 O48 1.956372 1_554
Nb7 O52 1.957292 1_554
Nb7 O50 1.967510 1_554
Nb7 O122 2.002774 1_555
Nb7 O124 2.025163 1_555
Nb7 O120 2.100868 1_555
Nb8 O53 1.927576 1_554
Nb8 O51 1.958441 1_554
Nb8 O123 1.989595 1_555
Nb8 O49 2.010447 1_554
Nb8 O125 2.020002 1_555
Nb8 O121 2.067668 1_555
Nb9 O56 1.952420 1_555
Nb9 O58 1.972997 1_555
Nb9 O54 1.976255 1_555
Nb9 O128 2.010027 1_555
Nb9 O130 2.019105 1_555
Nb9 O126 2.082604 1_555
Nb10 O59 1.911915 1_555
Nb10 O57 1.962304 1_555
Nb10 O131 1.981231 1_555
Nb10 O55 2.014729 1_555
Nb10 O127 2.055691 1_555
Nb10 O129 2.073605 1_555
Nb11 O69 1.927339 1_555
Nb11 O67 1.973222 1_555
Nb11 O71 1.990517 1_555
Nb11 O141 2.003743 1_555
Nb11 O143 2.030059 1_555
Nb11 O139 2.040043 1_555
Ge0 O3 1.853724 1_555
Ge0 O5 1.888208 1_565
Ge0 O75 1.917596 1_555
Ge0 O72 1.923797 1_655
Ge0 O76 1.928954 1_665
Ge0 O0 2.057030 1_665
Ge1 O2 1.854357 1_555
Ge1 O4 1.882756 1_565
Ge1 O73 1.913936 1_555
Ge1 O74 1.923489 1_555
Ge1 O77 1.926765 1_565
Ge1 O1 2.060792 1_565
Ge2 O11 1.848162 1_565
Ge2 O9 1.859898 1_555
Ge2 O78 1.885986 1_665
Ge2 O80 1.888036 1_655
Ge2 O83 1.953576 1_555
Ge2 O6 2.043835 1_665
Ge3 O16 1.861511 1_555
Ge3 O13 1.868250 1_455
Ge3 O86 1.888323 1_565
Ge3 O85 1.931617 1_465
Ge3 O89 1.935136 1_455
Ge3 O14 2.001234 1_565
Ge4 O20 1.856057 1_655
Ge4 O19 1.892262 1_545
Ge4 O94 1.917978 1_655
Ge4 O93 1.920293 1_555
Ge4 O91 1.925886 1_545
Ge4 O22 2.039472 1_645
Ge5 O21 1.855389 1_555
Ge5 O18 1.884341 1_545
Ge5 O92 1.913989 1_555
Ge5 O90 1.920693 1_545
Ge5 O95 1.938183 1_555
Ge5 O23 2.057979 1_545
Ge6 O26 1.833651 1_555
Ge6 O28 1.842745 1_555
Ge6 O24 1.852451 1_555
Ge6 O100 1.904639 1_555
Ge6 O96 1.936010 1_555
Ge6 O98 2.221171 1_555
Ge7 O30 1.801487 1_555
Ge7 O34 1.863224 1_555
Ge7 O102 1.882385 1_555
Ge7 O32 1.896477 1_555
Ge7 O104 1.945569 1_555
Ge7 O106 2.354005 1_555
Ge8 O31 1.798575 1_555
Ge8 O35 1.862608 1_555
Ge8 O103 1.875763 1_555
Ge8 O33 1.894136 1_555
Ge8 O105 1.937605 1_555
Ge8 O107 2.338811 1_555
Ge9 O64 1.798004 1_555
Ge9 O60 1.873556 1_555
Ge9 O136 1.874812 1_555
Ge9 O62 1.889373 1_555
Ge9 O134 1.949201 1_555
Ge9 O132 2.319716 1_555
Ge10 O65 1.802636 1_555
Ge10 O61 1.868704 1_555
Ge10 O137 1.877440 1_555
Ge10 O63 1.892341 1_555
Ge10 O135 1.954642 1_555
Ge10 O133 2.333460 1_555
Ge11 O68 1.814911 1_555
Ge11 O70 1.842466 1_555
Ge11 O140 1.880339 1_555
Ge11 O66 1.882198 1_555
Ge11 O142 1.896489 1_555
Ge11 O138 2.282237 1_555
O0 S0 1.493514 1_545
O1 S1 1.491200 1_555
O2 Si0 1.644544 1_555
O3 Si1 1.644696 1_555
O4 Si3 1.654706 1_555
O5 Si2 1.654653 1_655
O6 S2 1.497105 1_555
O7 Si4 1.625172 1_555
O8 Si6 1.634334 1_555
O9 Si5 1.642210 1_655
O10 Si7 1.663586 1_545
O11 Si8 1.621153 1_555
O12 Si7 1.658768 1_555
O13 Si8 1.632589 1_565
O14 S2 1.508165 1_555
O15 Si4 1.629066 1_555
O16 Si5 1.640101 1_555
O17 Si6 1.624370 1_555
O18 Si0 1.654859 1_555
O19 Si1 1.654807 1_555
O20 Si2 1.639244 1_555
O21 Si3 1.643394 1_555
O22 S0 1.494592 1_555
O23 S1 1.492695 1_565
O24 Si9 1.622223 1_555
O25 Si10 1.638336 1_555
O26 Si11 1.615769 1_555
O27 Si12 1.636761 1_555
O28 Si13 1.607733 1_555
O29 Si14 1.627431 1_555
O30 Si15 1.620926 1_555
O31 Si16 1.620465 1_555
O32 Si17 1.625323 1_555
O33 Si18 1.617905 1_555
O34 Si19 1.623165 1_555
O35 Si20 1.617560 1_555
O36 Si19 1.656049 1_555
O37 Si20 1.675240 1_555
O38 Si15 1.656514 1_555
O39 Si16 1.669322 1_555
O40 Si17 1.648401 1_555
O41 Si18 1.662462 1_555
O42 Si11 1.656419 1_555
O43 Si12 1.644828 1_555
O44 Si13 1.642015 1_555
O45 Si14 1.650461 1_555
O46 Si9 1.645496 1_555
O47 Si10 1.653648 1_555
O48 Si21 1.657451 1_555
O49 Si22 1.641555 1_555
O50 Si23 1.656059 1_555
O51 Si24 1.637265 1_555
O52 Si25 1.667109 1_555
O53 Si26 1.632841 1_555
O54 Si27 1.660609 1_555
O55 Si28 1.647502 1_555
O56 Si29 1.667383 1_555
O57 Si30 1.661076 1_555
O58 Si31 1.663220 1_555
O59 Si32 1.665649 1_555
O60 Si31 1.622029 1_555
O61 Si32 1.622451 1_555
O62 Si27 1.617752 1_555
O63 Si28 1.622633 1_555
O64 Si29 1.617316 1_555
O65 Si30 1.622395 1_555
O66 Si23 1.619349 1_555
O67 Si24 1.639905 1_555
O68 Si25 1.612704 1_555
O69 Si26 1.643883 1_555
O70 Si21 1.603102 1_555
O71 Si22 1.629770 1_555
O72 Si31 1.632960 1_555
O73 Si32 1.631284 1_555
O74 Si27 1.651570 1_555
O75 Si28 1.654346 1_555
O76 Si29 1.624702 1_555
O77 Si30 1.625326 1_555
O78 Si23 1.633880 1_555
O79 Si24 1.628036 1_555
O80 Si25 1.625833 1_555
O81 Si26 1.602016 1_555
O82 Si21 1.643020 1_555
O83 Si22 1.640910 1_555
O84 Si9 1.635140 1_555
O85 Si10 1.616080 1_555
O86 Si11 1.623700 1_555
O87 Si12 1.608547 1_555
O88 Si13 1.641802 1_555
O89 Si14 1.647335 1_555
O90 Si15 1.625844 1_555
O91 Si16 1.622780 1_555
O92 Si17 1.661244 1_555
O93 Si18 1.648803 1_555
O94 Si19 1.633247 1_555
O95 Si20 1.628299 1_555
O96 Si7 1.651581 1_545
O97 Si8 1.632393 1_555
O98 S2 1.485889 1_555
O99 Si4 1.621247 1_555
O100 Si6 1.631222 1_555
O101 Si5 1.668495 1_655
O102 Si0 1.647900 1_555
O103 Si1 1.649220 1_555
O104 Si3 1.674695 1_555
O105 Si2 1.676936 1_655
O106 S0 1.494426 1_545
O107 S1 1.497487 1_555
O108 Si21 1.625788 1_555
O109 Si22 1.632612 1_555
O110 Si24 1.630704 1_555
O111 Si23 1.671276 1_655
O112 Si25 1.626108 1_545
O113 Si26 1.636866 1_545
O114 Si27 1.638092 1_545
O115 Si28 1.647445 1_545
O116 Si29 1.630469 1_555
O117 Si30 1.641239 1_555
O118 Si32 1.665926 1_555
O119 Si31 1.675205 1_655
O120 Si19 1.670685 1_555
O121 Si20 1.666708 1_555
O122 Si16 1.630144 1_455
O123 Si15 1.640991 1_555
O124 Si17 1.646177 1_565
O125 Si18 1.640289 1_565
O126 Si11 1.661214 1_565
O127 Si12 1.629233 1_565
O128 Si13 1.653002 1_555
O129 Si14 1.624141 1_555
O130 Si10 1.623744 1_455
O131 Si9 1.627626 1_555
O132 S0 1.498589 1_555
O133 S1 1.499885 1_565
O134 Si0 1.675263 1_555
O135 Si1 1.674263 1_555
O136 Si2 1.647795 1_555
O137 Si3 1.648998 1_555
O138 S2 1.484360 1_555
O139 Si4 1.641713 1_555
O140 Si5 1.623455 1_555
O141 Si6 1.652879 1_555
O142 Si7 1.620033 1_555
O143 Si8 1.662507 1_565
