# generated using pymatgen
data_KMnCl3
_symmetry_space_group_name_H-M   'P 1'
_cell_length_a   6.96865944
_cell_length_b   7.09603931
_cell_length_c   9.99008665
_cell_angle_alpha   90.00000000
_cell_angle_beta   90.00000000
_cell_angle_gamma   90.00000000
_symmetry_Int_Tables_number   1
_chemical_formula_structural   KMnCl3
_chemical_formula_sum   'K4 Mn4 Cl12'
_cell_volume   494.00859926
_cell_formula_units_Z   4
loop_
 _symmetry_equiv_pos_site_id
 _symmetry_equiv_pos_as_xyz
  1  'x, y, z'
loop_
 _atom_site_type_symbol
 _atom_site_label
 _atom_site_symmetry_multiplicity
 _atom_site_fract_x
 _atom_site_fract_y
 _atom_site_fract_z
 _atom_site_occupancy
  K  K0  1  0.98732590  0.04953322  0.25000000  1
  K  K1  1  0.48732590  0.45046678  0.75000000  1
  K  K2  1  0.51267410  0.54953322  0.25000000  1
  K  K3  1  0.01267410  0.95046678  0.75000000  1
  Mn  Mn0  1  0.50000000  -0.00000000  -0.00000000  1
  Mn  Mn1  1  -0.00000000  0.50000000  -0.00000000  1
  Mn  Mn2  1  -0.00000000  0.50000000  0.50000000  1
  Mn  Mn3  1  0.50000000  -0.00000000  0.50000000  1
  Cl  Cl0  1  0.70716106  0.29207632  0.46901053  1
  Cl  Cl1  1  0.20716106  0.20792368  0.53098947  1
  Cl  Cl2  1  0.79283894  0.79207632  0.03098947  1
  Cl  Cl3  1  0.29283894  0.70792368  0.96901053  1
  Cl  Cl4  1  0.29283894  0.70792368  0.53098947  1
  Cl  Cl5  1  0.79283894  0.79207632  0.46901053  1
  Cl  Cl6  1  0.20716106  0.20792368  0.96901053  1
  Cl  Cl7  1  0.70716106  0.29207632  0.03098947  1
  Cl  Cl8  1  0.06084218  0.49359365  0.25000000  1
  Cl  Cl9  1  0.56084218  0.00640635  0.75000000  1
  Cl  Cl10  1  0.43915782  0.99359365  0.25000000  1
  Cl  Cl11  1  0.93915782  0.50640635  0.75000000  1
loop_
_geom_bond_atom_site_label_1
_geom_bond_atom_site_label_2
_geom_bond_distance
_geom_bond_site_symmetry_2
Cl0 Mn2 2.537161 1_655
Cl0 Mn3 2.544707 1_555
Cl0 K2 3.156198 1_555
Cl0 K1 3.389691 1_555
Cl0 K0 3.400145 1_555
Cl1 Mn3 2.537161 1_555
Cl1 Mn2 2.544707 1_555
Cl1 K3 3.156198 1_545
Cl1 K0 3.389691 1_455
Cl1 K1 3.400145 1_555
Cl2 Mn0 2.537161 1_565
Cl2 Mn1 2.544707 1_655
Cl2 K0 3.156198 1_565
Cl2 K3 3.389691 1_654
Cl2 K2 3.400145 1_555
Cl3 Mn1 2.537161 1_556
Cl3 Mn0 2.544707 1_566
Cl3 K1 3.156198 1_555
Cl3 K2 3.389691 1_556
Cl3 K3 3.400145 1_555
Cl4 Mn2 2.537161 1_555
Cl4 Mn3 2.544707 1_565
Cl4 K1 3.156198 1_555
Cl4 K2 3.389691 1_555
Cl4 K3 3.400145 1_555
Cl5 Mn3 2.537161 1_565
Cl5 Mn2 2.544707 1_655
Cl5 K0 3.156198 1_565
Cl5 K3 3.389691 1_655
Cl5 K2 3.400145 1_555
Cl6 Mn0 2.537161 1_556
Cl6 Mn1 2.544707 1_556
Cl6 K3 3.156198 1_545
Cl6 K0 3.389691 1_456
Cl6 K1 3.400145 1_555
Cl7 Mn1 2.537161 1_655
Cl7 Mn0 2.544707 1_555
Cl7 K2 3.156198 1_555
Cl7 K1 3.389691 1_554
Cl7 K0 3.400145 1_555
Cl8 Mn2 2.533663 1_555
Cl8 Mn1 2.533663 1_555
Cl8 K2 3.173586 1_555
Cl8 K0 3.192445 1_455
Cl9 Mn3 2.533663 1_555
Cl9 Mn0 2.533663 1_556
Cl9 K3 3.173586 1_645
Cl9 K1 3.192445 1_555
Cl10 Mn0 2.533663 1_565
Cl10 Mn3 2.533663 1_565
Cl10 K0 3.173586 1_465
Cl10 K2 3.192445 1_555
Cl11 Mn1 2.533663 1_656
Cl11 Mn2 2.533663 1_655
Cl11 K1 3.173586 1_555
Cl11 K3 3.192445 1_655
