# generated using pymatgen
data_LuCoC
_symmetry_space_group_name_H-M   'P 1'
_cell_length_a   3.59035571
_cell_length_b   3.59059839
_cell_length_c   6.57832479
_cell_angle_alpha   90.00000000
_cell_angle_beta   90.00000000
_cell_angle_gamma   90.00000000
_symmetry_Int_Tables_number   1
_chemical_formula_structural   LuCoC
_chemical_formula_sum   'Lu2 Co2 C2'
_cell_volume   84.80464133
_cell_formula_units_Z   2
loop_
 _symmetry_equiv_pos_site_id
 _symmetry_equiv_pos_as_xyz
  1  'x, y, z'
loop_
 _atom_site_type_symbol
 _atom_site_label
 _atom_site_symmetry_multiplicity
 _atom_site_fract_x
 _atom_site_fract_y
 _atom_site_fract_z
 _atom_site_occupancy
  Lu  Lu0  1  0.00000000  -0.00000000  0.75000725  1
  Lu  Lu1  1  0.00000000  -0.00000000  0.24999275  1
  Co  Co0  1  0.50000000  0.50000000  0.00000000  1
  Co  Co1  1  0.50000000  0.50000000  0.50000000  1
  C  C0  1  0.50000000  -0.00000000  0.50000000  1
  C  C1  1  0.00000000  0.50000000  -0.00000000  1
loop_
_geom_bond_atom_site_label_1
_geom_bond_atom_site_label_2
_geom_bond_distance
_geom_bond_site_symmetry_2
C0 Co1 1.795299 1_545
C0 Co1 1.795299 1_555
C0 Lu1 2.434639 1_555
C0 Lu0 2.434639 1_555
C0 Lu0 2.434639 1_655
C0 Lu1 2.434639 1_655
C1 Co0 1.795178 1_555
C1 Co0 1.795178 1_455
C1 Lu1 2.434664 1_565
C1 Lu0 2.434664 1_564
C1 Lu1 2.434664 1_555
C1 Lu0 2.434664 1_554
