# generated using pymatgen
data_Cs2MgMo2(O2F3)2
_symmetry_space_group_name_H-M   'P 1'
_cell_length_a   5.51777582
_cell_length_b   7.01082594
_cell_length_c   9.35878814
_cell_angle_alpha   123.55305220
_cell_angle_beta   107.14501051
_cell_angle_gamma   90.00000102
_symmetry_Int_Tables_number   1
_chemical_formula_structural   Cs2MgMo2(O2F3)2
_chemical_formula_sum   'Cs2 Mg1 Mo2 O4 F6'
_cell_volume   282.20565082
_cell_formula_units_Z   1
loop_
 _symmetry_equiv_pos_site_id
 _symmetry_equiv_pos_as_xyz
  1  'x, y, z'
loop_
 _atom_site_type_symbol
 _atom_site_label
 _atom_site_symmetry_multiplicity
 _atom_site_fract_x
 _atom_site_fract_y
 _atom_site_fract_z
 _atom_site_occupancy
  Cs  Cs0  1  0.35635578  0.22552270  0.71271255  1
  Cs  Cs1  1  0.64364422  0.77447730  0.28728745  1
  Mg  Mg0  1  0.50000000  -0.00000000  0.00000000  1
  Mo  Mo0  1  0.86344932  0.64749975  0.72689963  1
  Mo  Mo1  1  0.13655068  0.35250025  0.27310037  1
  O  O0  1  0.69635156  0.74801645  0.89056993  1
  O  O1  1  0.80578164  0.25198355  0.10943007  1
  O  O2  1  0.30364844  0.25198355  0.10943007  1
  O  O3  1  0.19421836  0.74801645  0.89056993  1
  F  F0  1  0.50000000  0.50000000  0.50000000  1
  F  F1  1  0.00000000  0.50000000  0.50000000  1
  F  F2  1  0.84684130  0.90436398  0.69368359  1
  F  F3  1  0.15315870  0.09563702  0.30631641  1
  F  F4  1  0.17609127  0.68553959  0.35218154  1
  F  F5  1  0.82390873  0.31446041  0.64781846  1
loop_
_geom_bond_atom_site_label_1
_geom_bond_atom_site_label_2
_geom_bond_distance
_geom_bond_site_symmetry_2
Cs0 F5 2.958995 1_555
Cs0 F5 2.958995 1_455
Cs0 F3 3.195199 1_555
Cs0 F4 3.256846 1_545
Cs0 O3 3.335758 1_555
Cs0 O0 3.335760 1_555
Cs0 F2 3.502402 1_445
Cs0 F2 3.502402 1_545
Cs1 F4 2.958995 1_555
Cs1 F4 2.958995 1_655
Cs1 F2 3.195197 1_555
Cs1 F5 3.256846 1_565
Cs1 O1 3.335758 1_555
Cs1 O2 3.335760 1_555
Cs1 F3 3.502406 1_665
Cs1 F3 3.502406 1_565
Mg0 O0 1.999446 1_544
Mg0 O2 1.999446 1_555
Mg0 O1 1.999447 1_555
Mg0 O3 1.999447 1_544
Mo0 O0 1.825491 1_555
Mo0 O3 1.825495 1_655
Mo1 O2 1.825491 1_555
Mo1 O1 1.825495 1_455
F0 Mo0 2.159219 1_555
F0 Mo1 2.159219 1_555
F1 Mo1 2.159223 1_555
F1 Mo0 2.159223 1_455
F2 Mo0 1.987473 1_555
F3 Mo1 1.987467 1_555
F4 Mo1 2.010373 1_555
F5 Mo0 2.010373 1_555
