# generated using pymatgen
data_Sb2(S2O7)3
_symmetry_space_group_name_H-M   'P 1'
_cell_length_a   6.63488169
_cell_length_b   9.64175479
_cell_length_c   12.39444862
_cell_angle_alpha   87.32176936
_cell_angle_beta   83.06227624
_cell_angle_gamma   82.80252692
_symmetry_Int_Tables_number   1
_chemical_formula_structural   Sb2(S2O7)3
_chemical_formula_sum   'Sb4 S12 O42'
_cell_volume   780.48690047
_cell_formula_units_Z   2
loop_
 _symmetry_equiv_pos_site_id
 _symmetry_equiv_pos_as_xyz
  1  'x, y, z'
loop_
 _atom_site_type_symbol
 _atom_site_label
 _atom_site_symmetry_multiplicity
 _atom_site_fract_x
 _atom_site_fract_y
 _atom_site_fract_z
 _atom_site_occupancy
  Sb  Sb0  1  0.73830340  0.58658494  0.24070694  1
  Sb  Sb1  1  0.26169660  0.41341506  0.75929306  1
  Sb  Sb2  1  0.28123432  0.09444720  0.21182109  1
  Sb  Sb3  1  0.71876568  0.90555280  0.78817891  1
  S  S0  1  0.21329547  0.47382969  0.28878696  1
  S  S1  1  0.78670453  0.52617031  0.71121304  1
  S  S2  1  0.92981329  0.31165974  0.40627023  1
  S  S3  1  0.07018671  0.68834026  0.59372977  1
  S  S4  1  0.58303716  0.82343159  0.42189655  1
  S  S5  1  0.41696284  0.17656841  0.57810345  1
  S  S6  1  0.84221921  0.93721806  0.25571951  1
  S  S7  1  0.15778079  0.06278194  0.74428049  1
  S  S8  1  0.60664331  0.19852882  0.95677641  1
  S  S9  1  0.39335669  0.80147118  0.04322359  1
  S  S10  1  0.96312981  0.27443055  0.04538024  1
  S  S11  1  0.03687019  0.72556945  0.95461976  1
  O  O0  1  0.05285357  0.58775123  0.26225614  1
  O  O1  1  0.94714643  0.41224877  0.73774386  1
  O  O2  1  0.38976930  0.52777784  0.31601047  1
  O  O3  1  0.61023070  0.47222216  0.68398953  1
  O  O4  1  0.24279563  0.36589104  0.21041209  1
  O  O5  1  0.75720437  0.63410896  0.78958791  1
  O  O6  1  0.12102392  0.40729299  0.40264430  1
  O  O7  1  0.87897608  0.59270701  0.59735570  1
  O  O8  1  0.87136055  0.29172435  0.51828392  1
  O  O9  1  0.12863945  0.70827565  0.48171608  1
  O  O10  1  0.01404998  0.18793936  0.34673124  1
  O  O11  1  0.98595002  0.81206064  0.65326876  1
  O  O12  1  0.77928534  0.40031180  0.34732526  1
  O  O13  1  0.22071466  0.59968820  0.65267474  1
  O  O14  1  0.66836326  0.67594241  0.39380897  1
  O  O15  1  0.33163674  0.32405759  0.60619103  1
  O  O16  1  0.91281558  0.84479114  0.90279915  1
  O  O17  1  0.08718442  0.15520886  0.09720085  1
  O  O18  1  0.18628981  0.65096234  0.87955521  1
  O  O19  1  0.81371019  0.34903766  0.12044479  1
  O  O20  1  0.91503374  0.64700640  0.03046466  1
  O  O21  1  0.08496626  0.35299360  0.96953534  1
  O  O22  1  0.15253974  0.82399427  0.02484699  1
  O  O23  1  0.84746026  0.17600573  0.97515301  1
  O  O24  1  0.50847555  0.79756967  0.93768814  1
  O  O25  1  0.49152445  0.20243033  0.06231186  1
  O  O26  1  0.42447463  0.67852632  0.11053634  1
  O  O27  1  0.57552537  0.32147368  0.88946366  1
  O  O28  1  0.40410736  0.93176438  0.09796453  1
  O  O29  1  0.59589264  0.06823562  0.90203547  1
  O  O30  1  0.93599739  0.05896445  0.75119252  1
  O  O31  1  0.06400261  0.94103555  0.24880748  1
  O  O32  1  0.20139580  0.18577088  0.79741770  1
  O  O33  1  0.79860420  0.81422912  0.20258230  1
  O  O34  1  0.27472835  0.93673365  0.77514579  1
  O  O35  1  0.72527165  0.06326635  0.22485421  1
  O  O36  1  0.21504890  0.09239539  0.61619819  1
  O  O37  1  0.78495110  0.90760461  0.38380181  1
  O  O38  1  0.44811851  0.16202001  0.46430264  1
  O  O39  1  0.55188149  0.83797999  0.53569736  1
  O  O40  1  0.57034667  0.12034862  0.64480014  1
  O  O41  1  0.42965333  0.87965138  0.35519986  1
loop_
_geom_bond_atom_site_label_1
_geom_bond_atom_site_label_2
_geom_bond_distance
_geom_bond_site_symmetry_2
O0 S0 1.485136 1_555
O0 Sb0 2.137257 1_455
O1 S1 1.485136 1_555
O1 Sb1 2.137257 1_655
O2 S0 1.421210 1_555
O2 Sb0 2.509559 1_555
O3 S1 1.421210 1_555
O3 Sb1 2.509559 1_555
O4 S0 1.436158 1_555
O4 Sb2 2.597038 1_555
O5 S1 1.436158 1_555
O5 Sb3 2.597038 1_555
O6 S0 1.607153 1_555
O6 S2 1.654453 1_455
O7 S1 1.607153 1_555
O7 S3 1.654453 1_655
O8 S2 1.406602 1_555
O9 S3 1.406602 1_555
O10 S2 1.447576 1_455
O10 Sb2 2.403236 1_555
O11 S3 1.447576 1_655
O11 Sb3 2.403236 1_555
O12 S2 1.471683 1_555
O12 Sb0 2.188260 1_555
O13 S3 1.471683 1_555
O13 Sb1 2.188260 1_555
O14 S4 1.503614 1_555
O14 Sb0 2.097248 1_555
O15 S5 1.503614 1_555
O15 Sb1 2.097248 1_555
O16 S11 1.494324 1_655
O16 Sb3 2.047979 1_555
O17 S10 1.494324 1_455
O17 Sb2 2.047979 1_555
O18 S11 1.423702 1_555
O19 S10 1.423702 1_555
O20 S11 1.419247 1_654
O21 S10 1.419247 1_456
O22 S9 1.627368 1_555
O22 S11 1.633487 1_554
O23 S8 1.627368 1_555
O23 S10 1.633487 1_556
O24 S9 1.432427 1_556
O24 Sb3 2.454327 1_555
O25 S8 1.432427 1_554
O25 Sb2 2.454327 1_555
O26 S9 1.425390 1_555
O27 S8 1.425390 1_555
O28 S9 1.468811 1_555
O28 Sb2 2.173690 1_565
O29 S8 1.468811 1_555
O29 Sb3 2.173690 1_545
O30 S7 1.468621 1_655
O30 Sb3 2.187842 1_545
O31 S6 1.468621 1_455
O31 Sb2 2.187842 1_565
O32 S7 1.459010 1_555
O32 Sb1 2.297465 1_555
O33 S6 1.459010 1_555
O33 Sb0 2.297465 1_555
O34 S7 1.420354 1_565
O35 S6 1.420354 1_545
O36 S7 1.607852 1_555
O36 S5 1.661367 1_555
O37 S6 1.607852 1_555
O37 S4 1.661367 1_555
O38 S5 1.411630 1_555
O39 S4 1.411630 1_555
O40 S5 1.426891 1_555
O41 S4 1.426891 1_555
