# generated using pymatgen
data_NaEuTiO4
_symmetry_space_group_name_H-M   'P 1'
_cell_length_a   5.31994300
_cell_length_b   5.40085900
_cell_length_c   12.84569100
_cell_angle_alpha   90.00000000
_cell_angle_beta   90.00000000
_cell_angle_gamma   90.00000000
_symmetry_Int_Tables_number   1
_chemical_formula_structural   NaEuTiO4
_chemical_formula_sum   'Na4 Eu4 Ti4 O16'
_cell_volume   369.08575978
_cell_formula_units_Z   4
loop_
 _symmetry_equiv_pos_site_id
 _symmetry_equiv_pos_as_xyz
  1  'x, y, z'
loop_
 _atom_site_type_symbol
 _atom_site_label
 _atom_site_symmetry_multiplicity
 _atom_site_fract_x
 _atom_site_fract_y
 _atom_site_fract_z
 _atom_site_occupancy
  Na  Na0  1  0.75000000  0.99767900  0.58536100  1
  Na  Na1  1  0.75000000  0.49767900  0.41463900  1
  Na  Na2  1  0.25000000  0.00232100  0.41463900  1
  Na  Na3  1  0.25000000  0.50232100  0.58536100  1
  Eu  Eu0  1  0.75000000  0.98059300  0.89247800  1
  Eu  Eu1  1  0.75000000  0.48059300  0.10752200  1
  Eu  Eu2  1  0.25000000  0.51940700  0.89247800  1
  Eu  Eu3  1  0.25000000  0.01940700  0.10752200  1
  Ti  Ti0  1  0.25000000  0.00756300  0.73077200  1
  Ti  Ti1  1  0.75000000  0.49243700  0.73077200  1
  Ti  Ti2  1  0.25000000  0.50756300  0.26922800  1
  Ti  Ti3  1  0.75000000  0.99243700  0.26922800  1
  O  O0  1  0.25000000  0.53443500  0.40564900  1
  O  O1  1  0.75000000  0.46556500  0.59435100  1
  O  O2  1  0.25000000  0.03443500  0.59435100  1
  O  O3  1  0.75000000  0.96556500  0.40564900  1
  O  O4  1  0.25000000  0.44783500  0.06726700  1
  O  O5  1  0.75000000  0.55216500  0.93273300  1
  O  O6  1  0.25000000  0.94783500  0.93273300  1
  O  O7  1  0.75000000  0.05216500  0.06726700  1
  O  O8  1  0.50000000  0.75000000  0.75544300  1
  O  O9  1  0.00000000  0.25000000  0.24455700  1
  O  O10  1  0.50000000  0.25000000  0.24455700  1
  O  O11  1  0.00000000  0.75000000  0.75544300  1
  O  O12  1  0.00000000  0.75000000  0.22301000  1
  O  O13  1  0.50000000  0.25000000  0.77699000  1
  O  O14  1  0.00000000  0.25000000  0.77699000  1
  O  O15  1  0.50000000  0.75000000  0.22301000  1
loop_
_geom_bond_atom_site_label_1
_geom_bond_atom_site_label_2
_geom_bond_distance
_geom_bond_site_symmetry_2
Na0 O3 2.315031 1_555
Na0 O1 2.529624 1_565
Na0 O2 2.669867 1_665
Na0 O2 2.669867 1_565
Na0 O1 2.876192 1_555
Na0 O11 2.886467 1_655
Na0 O8 2.886467 1_555
Na1 O1 2.315031 1_555
Na1 O3 2.529624 1_555
Na1 O0 2.669867 1_555
Na1 O0 2.669867 1_655
Na1 O3 2.876192 1_545
Na1 O9 2.886467 1_655
Na1 O10 2.886467 1_555
Na2 O2 2.315031 1_555
Na2 O0 2.529624 1_545
Na2 O3 2.669867 1_445
Na2 O3 2.669867 1_545
Na2 O0 2.876192 1_555
Na2 O10 2.886467 1_555
Na2 O9 2.886467 1_555
Na3 O0 2.315031 1_555
Na3 O2 2.529624 1_555
Na3 O1 2.669867 1_455
Na3 O1 2.669867 1_555
Na3 O2 2.876192 1_565
Na3 O8 2.886467 1_555
Na3 O11 2.886467 1_555
Eu0 O7 2.278317 1_566
Eu0 O5 2.370956 1_555
Eu0 O13 2.467147 1_565
Eu0 O14 2.467147 1_665
Eu0 O11 2.533490 1_655
Eu0 O8 2.533490 1_555
Eu0 O6 2.715538 1_555
Eu0 O6 2.715538 1_655
Eu0 O5 3.129990 1_565
Eu1 O5 2.278317 1_554
Eu1 O7 2.370956 1_555
Eu1 O12 2.467147 1_655
Eu1 O15 2.467147 1_555
Eu1 O9 2.533490 1_655
Eu1 O10 2.533490 1_555
Eu1 O4 2.715538 1_555
Eu1 O4 2.715538 1_655
Eu1 O7 3.129990 1_565
Eu2 O4 2.278317 1_556
Eu2 O6 2.370956 1_555
Eu2 O13 2.467147 1_555
Eu2 O14 2.467147 1_555
Eu2 O8 2.533490 1_555
Eu2 O11 2.533490 1_555
Eu2 O5 2.715538 1_455
Eu2 O5 2.715538 1_555
Eu2 O6 3.129990 1_545
Eu3 O6 2.278317 1_544
Eu3 O4 2.370956 1_555
Eu3 O15 2.467147 1_545
Eu3 O12 2.467147 1_545
Eu3 O9 2.533490 1_555
Eu3 O10 2.533490 1_555
Eu3 O7 2.715538 1_555
Eu3 O7 2.715538 1_455
Eu3 O4 3.129990 1_545
O0 Ti2 1.758421 1_555
O1 Ti1 1.758421 1_555
O2 Ti0 1.758421 1_555
O3 Ti3 1.758421 1_555
O4 Ti2 2.614307 1_555
O5 Ti1 2.614307 1_555
O6 Ti0 2.614307 1_565
O7 Ti3 2.614307 1_545
O8 Ti0 1.950474 1_565
O8 Ti1 1.950474 1_555
O9 Ti2 1.950474 1_555
O9 Ti3 1.950474 1_445
O10 Ti2 1.950474 1_555
O10 Ti3 1.950474 1_545
O11 Ti0 1.950474 1_565
O11 Ti1 1.950474 1_455
O12 Ti3 1.958517 1_455
O12 Ti2 1.958517 1_555
O13 Ti1 1.958517 1_555
O13 Ti0 1.958517 1_555
O14 Ti1 1.958517 1_455
O14 Ti0 1.958517 1_555
O15 Ti3 1.958517 1_555
O15 Ti2 1.958517 1_555
