# generated using pymatgen
data_Cu3SbS4
_symmetry_space_group_name_H-M   'P 1'
_cell_length_a   6.25681026
_cell_length_b   6.52661059
_cell_length_c   7.56252475
_cell_angle_alpha   90.00000000
_cell_angle_beta   90.00000000
_cell_angle_gamma   90.00000000
_symmetry_Int_Tables_number   1
_chemical_formula_structural   Cu3SbS4
_chemical_formula_sum   'Cu6 Sb2 S8'
_cell_volume   308.82147671
_cell_formula_units_Z   2
loop_
 _symmetry_equiv_pos_site_id
 _symmetry_equiv_pos_as_xyz
  1  'x, y, z'
loop_
 _atom_site_type_symbol
 _atom_site_label
 _atom_site_symmetry_multiplicity
 _atom_site_fract_x
 _atom_site_fract_y
 _atom_site_fract_z
 _atom_site_occupancy
  Cu  Cu0  1  0.50739924  0.32852063  0.25221650  1
  Cu  Cu1  1  0.00739924  0.67147937  0.75221750  1
  Cu  Cu2  1  0.00739924  0.67147937  0.24778350  1
  Cu  Cu3  1  0.50415564  0.83351444  0.00000000  1
  Cu  Cu4  1  0.50739924  0.32852063  0.74778250  1
  Cu  Cu5  1  0.00415564  0.16648556  0.50000000  1
  Sb  Sb0  1  0.00402214  0.16849821  0.00000000  1
  Sb  Sb1  1  0.50402314  0.83150179  0.50000000  1
  S  S0  1  0.37080675  0.65527629  0.76339680  1
  S  S1  1  0.87080675  0.34472371  0.73660320  1
  S  S2  1  0.89574403  0.83111006  0.50000000  1
  S  S3  1  0.37080675  0.65527629  0.23660320  1
  S  S4  1  0.86856620  0.81872919  0.00000000  1
  S  S5  1  0.87080675  0.34472371  0.26339680  1
  S  S6  1  0.36856620  0.18127081  0.50000000  1
  S  S7  1  0.39574403  0.16888994  0.00000000  1
loop_
_geom_bond_atom_site_label_1
_geom_bond_atom_site_label_2
_geom_bond_distance
_geom_bond_site_symmetry_2
Cu0 S5 2.277800 1_555
Cu0 S6 2.278057 1_555
Cu0 S7 2.282903 1_555
Cu0 S3 2.300511 1_555
Cu1 S0 2.277799 1_555
Cu1 S4 2.278051 1_456
Cu1 S2 2.282909 1_455
Cu1 S1 2.300512 1_455
Cu2 S3 2.277800 1_555
Cu2 S4 2.278057 1_455
Cu2 S2 2.282903 1_455
Cu2 S5 2.300511 1_455
Cu3 S4 2.282089 1_555
Cu3 S3 2.291511 1_555
Cu3 S0 2.291511 1_554
Cu3 S7 2.291558 1_565
Cu4 S1 2.277799 1_555
Cu4 S6 2.278051 1_555
Cu4 S7 2.282909 1_556
Cu4 S0 2.300512 1_555
Cu5 S6 2.282089 1_555
Cu5 S5 2.291511 1_455
Cu5 S1 2.291511 1_455
Cu5 S2 2.291558 1_445
S0 Sb1 2.446516 1_555
S1 Sb0 2.446514 1_656
S2 Sb1 2.450925 1_555
S3 Sb1 2.446516 1_555
S4 Sb0 2.435056 1_665
S5 Sb0 2.446514 1_655
S6 Sb1 2.435058 1_545
S7 Sb0 2.450931 1_555
