# generated using pymatgen
data_P3(WO6)2
_symmetry_space_group_name_H-M   'P 1'
_cell_length_a   8.85765804
_cell_length_b   8.85765804
_cell_length_c   8.85765749
_cell_angle_alpha   58.74962172
_cell_angle_beta   58.74962173
_cell_angle_gamma   58.74962001
_symmetry_Int_Tables_number   1
_chemical_formula_structural   P3(WO6)2
_chemical_formula_sum   'P6 W4 O24'
_cell_volume   477.37132130
_cell_formula_units_Z   2
loop_
 _symmetry_equiv_pos_site_id
 _symmetry_equiv_pos_as_xyz
  1  'x, y, z'
loop_
 _atom_site_type_symbol
 _atom_site_label
 _atom_site_symmetry_multiplicity
 _atom_site_fract_x
 _atom_site_fract_y
 _atom_site_fract_z
 _atom_site_occupancy
  P  P0  1  0.24977528  0.53520987  0.96505704  1
  P  P1  1  0.96505704  0.24977528  0.53520987  1
  P  P2  1  0.53520987  0.96505704  0.24977528  1
  P  P3  1  0.46479013  0.03494296  0.75022472  1
  P  P4  1  0.03494296  0.75022472  0.46479013  1
  P  P5  1  0.75022472  0.46479013  0.03494296  1
  W  W0  1  0.85801166  0.85801166  0.85801166  1
  W  W1  1  0.64226424  0.64226424  0.64226424  1
  W  W2  1  0.35773576  0.35773576  0.35773576  1
  W  W3  1  0.14198834  0.14198834  0.14198834  1
  O  O0  1  0.72480516  0.49305233  0.86347297  1
  O  O1  1  0.49305233  0.86347297  0.72480516  1
  O  O2  1  0.86347297  0.72480516  0.49305233  1
  O  O3  1  0.42289739  0.55810391  0.79120108  1
  O  O4  1  0.08094833  0.71248955  0.93539156  1
  O  O5  1  0.21874539  0.36652594  0.99444588  1
  O  O6  1  0.93539156  0.08094833  0.71248955  1
  O  O7  1  0.79120108  0.42289739  0.55810391  1
  O  O8  1  0.55810391  0.79120108  0.42289739  1
  O  O9  1  0.63347406  0.00555412  0.78125461  1
  O  O10  1  0.28751045  0.06460844  0.91905167  1
  O  O11  1  0.00555412  0.78125461  0.63347406  1
  O  O12  1  0.99444588  0.21874539  0.36652594  1
  O  O13  1  0.71248955  0.93539156  0.08094833  1
  O  O14  1  0.36652594  0.99444588  0.21874539  1
  O  O15  1  0.44189609  0.20879892  0.57710261  1
  O  O16  1  0.20879892  0.57710261  0.44189609  1
  O  O17  1  0.06460844  0.91905167  0.28751045  1
  O  O18  1  0.78125461  0.63347406  0.00555412  1
  O  O19  1  0.91905167  0.28751045  0.06460844  1
  O  O20  1  0.57710261  0.44189609  0.20879892  1
  O  O21  1  0.13652703  0.27519484  0.50694767  1
  O  O22  1  0.50694767  0.13652703  0.27519484  1
  O  O23  1  0.27519484  0.50694767  0.13652703  1
loop_
_geom_bond_atom_site_label_1
_geom_bond_atom_site_label_2
_geom_bond_distance
_geom_bond_site_symmetry_2
O0 P5 1.523819 1_556
O0 W1 1.979240 1_555
O1 P3 1.523819 1_565
O1 W1 1.979240 1_555
O2 P4 1.523819 1_655
O2 W1 1.979240 1_555
O3 P0 1.520711 1_555
O3 W1 1.973452 1_555
O4 P0 1.521271 1_555
O4 W0 1.969106 1_455
O5 P0 1.524492 1_555
O5 W3 1.977389 1_556
O6 P1 1.521271 1_555
O6 W0 1.969106 1_545
O7 P1 1.520711 1_555
O7 W1 1.973452 1_555
O8 P2 1.520711 1_555
O8 W1 1.973452 1_555
O9 P3 1.524492 1_555
O9 W0 1.977389 1_545
O10 P3 1.521271 1_555
O10 W3 1.969106 1_556
O11 P4 1.524492 1_555
O11 W0 1.977389 1_455
O12 P1 1.524492 1_555
O12 W3 1.977389 1_655
O13 P2 1.521271 1_555
O13 W0 1.969106 1_554
O14 P2 1.524492 1_555
O14 W3 1.977389 1_565
O15 P3 1.520711 1_555
O15 W2 1.973452 1_555
O16 P4 1.520711 1_555
O16 W2 1.973452 1_555
O17 P4 1.521271 1_555
O17 W3 1.969106 1_565
O18 P5 1.524492 1_555
O18 W0 1.977389 1_554
O19 P5 1.521271 1_555
O19 W3 1.969106 1_655
O20 P5 1.520711 1_555
O20 W2 1.973452 1_555
O21 P1 1.523819 1_455
O21 W2 1.979240 1_555
O22 P2 1.523819 1_545
O22 W2 1.979240 1_555
O23 P0 1.523819 1_554
O23 W2 1.979240 1_555
