# generated using pymatgen
data_MgFe2(AgO2)2
_symmetry_space_group_name_H-M   'P 1'
_cell_length_a   3.10406182
_cell_length_b   3.13162883
_cell_length_c   14.32861097
_cell_angle_alpha   90.00000137
_cell_angle_beta   85.72874639
_cell_angle_gamma   120.29423151
_symmetry_Int_Tables_number   1
_chemical_formula_structural   MgFe2(AgO2)2
_chemical_formula_sum   'Mg1 Fe2 Ag2 O4'
_cell_volume   119.81699162
_cell_formula_units_Z   1
loop_
 _symmetry_equiv_pos_site_id
 _symmetry_equiv_pos_as_xyz
  1  'x, y, z'
loop_
 _atom_site_type_symbol
 _atom_site_label
 _atom_site_symmetry_multiplicity
 _atom_site_fract_x
 _atom_site_fract_y
 _atom_site_fract_z
 _atom_site_occupancy
  Mg  Mg0  1  0.55689249  0.77844675  0.87060714  1
  Fe  Fe0  1  0.97100214  0.98550107  0.47662086  1
  Fe  Fe1  1  0.13274394  0.06637197  0.04802482  1
  Ag  Ag0  1  0.41484710  0.20742355  0.70184297  1
  Ag  Ag1  1  0.39452315  0.69726207  0.25726485  1
  O  O0  1  0.33520526  0.66760313  0.40460808  1
  O  O1  1  0.85701435  0.42850717  0.93386779  1
  O  O2  1  0.60647085  0.30323543  0.54742373  1
  O  O3  1  0.43963073  0.71981587  0.10869675  1
loop_
_geom_bond_atom_site_label_1
_geom_bond_atom_site_label_2
_geom_bond_distance
_geom_bond_site_symmetry_2
Mg0 O1 2.011521 1_565
Mg0 O1 2.011523 1_555
Mg0 O1 2.011704 1_455
Fe0 O2 2.056240 1_665
Fe0 O2 2.065081 1_555
Fe0 O2 2.065081 1_565
Fe0 O0 2.066844 1_555
Fe0 O0 2.072571 1_655
Fe0 O0 2.072573 1_665
Fe1 O3 1.981947 1_445
Fe1 O3 2.001854 1_545
Fe1 O3 2.001856 1_555
Fe1 O1 2.425283 1_444
Fe1 O1 2.425283 1_454
Fe1 O1 2.428163 1_554
Ag0 O2 2.227867 1_555
Ag1 O0 2.103482 1_555
Ag1 O3 2.121768 1_555
