# generated using pymatgen
data_MgFe12(OF)12
_symmetry_space_group_name_H-M   'P 1'
_cell_length_a   9.56777255
_cell_length_b   14.66052579
_cell_length_c   3.10437000
_cell_angle_alpha   90.00000000
_cell_angle_beta   90.00000000
_cell_angle_gamma   91.46622766
_symmetry_Int_Tables_number   1
_chemical_formula_structural   MgFe12(OF)12
_chemical_formula_sum   'Mg1 Fe12 O12 F12'
_cell_volume   435.30298677
_cell_formula_units_Z   1
loop_
 _symmetry_equiv_pos_site_id
 _symmetry_equiv_pos_as_xyz
  1  'x, y, z'
loop_
 _atom_site_type_symbol
 _atom_site_label
 _atom_site_symmetry_multiplicity
 _atom_site_fract_x
 _atom_site_fract_y
 _atom_site_fract_z
 _atom_site_occupancy
  Mg  Mg0  1  0.26582200  0.01128400  0.00000000  1
  Fe  Fe0  1  0.98324600  0.00793500  0.00000000  1
  Fe  Fe1  1  0.00470000  0.34259100  0.00000000  1
  Fe  Fe2  1  0.00830100  0.66184000  0.00000000  1
  Fe  Fe3  1  0.20929100  0.18477400  0.50000000  1
  Fe  Fe4  1  0.24840500  0.48618900  0.50000000  1
  Fe  Fe5  1  0.26704200  0.84237100  0.50000000  1
  Fe  Fe6  1  0.49338400  0.34661100  0.00000000  1
  Fe  Fe7  1  0.56323100  0.98304500  0.00000000  1
  Fe  Fe8  1  0.52325200  0.66164600  0.00000000  1
  Fe  Fe9  1  0.74392200  0.15499900  0.50000000  1
  Fe  Fe10  1  0.72131800  0.49726100  0.50000000  1
  Fe  Fe11  1  0.74379300  0.82017700  0.50000000  1
  O  O0  1  0.08349000  0.28188200  0.50000000  1
  O  O1  1  0.13351000  0.95249000  0.50000000  1
  O  O2  1  0.13806700  0.11557300  0.00000000  1
  O  O3  1  0.14274200  0.44235100  0.00000000  1
  O  O4  1  0.36576000  0.89598300  0.00000000  1
  O  O5  1  0.39650600  0.39717500  0.50000000  1
  O  O6  1  0.63650600  0.92278300  0.50000000  1
  O  O7  1  0.59117800  0.59617300  0.50000000  1
  O  O8  1  0.64653100  0.11048900  0.00000000  1
  O  O9  1  0.65181300  0.43127400  0.00000000  1
  O  O10  1  0.66507600  0.75622400  0.00000000  1
  O  O11  1  0.89359200  0.06205000  0.50000000  1
  F  F0  1  0.11518200  0.60071600  0.50000000  1
  F  F1  1  0.16382200  0.77252000  0.00000000  1
  F  F2  1  0.33789800  0.23712500  0.00000000  1
  F  F3  1  0.34616700  0.56446800  0.00000000  1
  F  F4  1  0.36634400  0.07258400  0.50000000  1
  F  F5  1  0.40178000  0.72679700  0.50000000  1
  F  F6  1  0.58620100  0.27112100  0.50000000  1
  F  F7  1  0.84125700  0.23926600  0.00000000  1
  F  F8  1  0.87868300  0.88527400  0.00000000  1
  F  F9  1  0.84391500  0.55961600  0.00000000  1
  F  F10  1  0.89289700  0.40364200  0.50000000  1
  F  F11  1  0.91252000  0.72947500  0.50000000  1
loop_
_geom_bond_atom_site_label_1
_geom_bond_atom_site_label_2
_geom_bond_distance
_geom_bond_site_symmetry_2
Mg0 O4 1.963254 1_545
Mg0 O2 1.981758 1_555
Mg0 O1 2.167713 1_544
Mg0 O1 2.167713 1_545
Fe0 O11 1.951747 1_554
Fe0 O11 1.951747 1_555
Fe0 O2 2.136535 1_655
Fe0 O1 2.279643 1_645
Fe0 O1 2.279643 1_644
Fe1 O3 1.945391 1_555
Fe1 O0 1.950395 1_554
Fe1 O0 1.950395 1_555
Fe3 O0 1.887650 1_555
Fe3 O2 1.966605 1_556
Fe3 O2 1.966605 1_555
Fe4 O5 1.950773 1_555
Fe4 O3 1.952208 1_555
Fe4 O3 1.952208 1_556
Fe5 O4 1.970064 1_555
Fe5 O4 1.970064 1_556
Fe5 O1 2.084255 1_555
Fe6 O9 1.934423 1_555
Fe6 O5 1.962935 1_555
Fe6 O5 1.962935 1_554
Fe7 O6 1.926917 1_555
Fe7 O6 1.926917 1_554
Fe7 O8 2.012436 1_565
Fe7 O4 2.252863 1_555
Fe8 O10 1.915087 1_555
Fe8 O7 1.945487 1_554
Fe8 O7 1.945487 1_555
Fe9 O8 1.916311 1_556
Fe9 O8 1.916311 1_555
Fe9 O11 2.001852 1_555
Fe10 O7 1.935354 1_555
Fe10 O9 1.937643 1_556
Fe10 O9 1.937643 1_555
Fe11 O6 1.842691 1_555
Fe11 O10 1.954338 1_555
Fe11 O10 1.954338 1_556
F0 Fe2 2.074831 1_556
F0 Fe2 2.074831 1_555
F0 Fe4 2.133865 1_555
F1 Fe5 2.093211 1_554
F1 Fe5 2.093211 1_555
F1 Fe2 2.173355 1_555
F2 Fe3 2.112837 1_555
F2 Fe3 2.112837 1_554
F2 Fe6 2.160401 1_555
F3 Fe4 2.132197 1_554
F3 Fe4 2.132197 1_555
F3 Fe8 2.185605 1_555
F4 Mg0 2.024276 1_555
F4 Mg0 2.024276 1_556
F4 Fe3 2.256032 1_555
F5 Fe5 2.155129 1_555
F5 Fe8 2.174659 1_556
F5 Fe8 2.174659 1_555
F6 Fe6 2.114958 1_556
F6 Fe6 2.114958 1_555
F6 Fe9 2.303664 1_555
F7 Fe1 2.149143 1_655
F7 Fe9 2.178048 1_555
F7 Fe9 2.178048 1_554
F8 Fe0 2.035337 1_565
F8 Fe11 2.218712 1_555
F8 Fe11 2.218712 1_554
F9 Fe10 2.136813 1_555
F9 Fe10 2.136813 1_554
F9 Fe2 2.144545 1_655
F10 Fe1 2.098486 1_655
F10 Fe1 2.098486 1_656
F10 Fe10 2.166568 1_555
F11 Fe2 2.068524 1_655
F11 Fe2 2.068524 1_656
F11 Fe11 2.117584 1_555
