# generated using pymatgen
data_MgTe3WO12
_symmetry_space_group_name_H-M   'P 1'
_cell_length_a   5.57015678
_cell_length_b   11.11140646
_cell_length_c   9.77861052
_cell_angle_alpha   27.95675595
_cell_angle_beta   51.97648757
_cell_angle_gamma   57.23101926
_symmetry_Int_Tables_number   1
_chemical_formula_structural   MgTe3WO12
_chemical_formula_sum   'Mg1 Te3 W1 O12'
_cell_volume   223.50425443
_cell_formula_units_Z   1
loop_
 _symmetry_equiv_pos_site_id
 _symmetry_equiv_pos_as_xyz
  1  'x, y, z'
loop_
 _atom_site_type_symbol
 _atom_site_label
 _atom_site_symmetry_multiplicity
 _atom_site_fract_x
 _atom_site_fract_y
 _atom_site_fract_z
 _atom_site_occupancy
  Mg  Mg0  1  0.69294200  0.49857300  0.70851000  1
  Te  Te0  1  0.50927100  0.99328800  0.48937300  1
  Te  Te1  1  0.48176900  0.50549600  0.48768600  1
  Te  Te2  1  0.97077000  0.50350400  0.00147500  1
  W  W0  1  0.01686000  0.00429200  0.97069100  1
  O  O0  1  0.39121200  0.30251400  0.12525500  1
  O  O1  1  0.24447100  0.10065000  0.64502900  1
  O  O2  1  0.10992100  0.31543400  0.74588000  1
  O  O3  1  0.84822100  0.18357700  0.25560900  1
  O  O4  1  0.34798500  0.82508700  0.12309700  1
  O  O5  1  0.73180800  0.39664000  0.35887600  1
  O  O6  1  0.28248100  0.59090600  0.64729000  1
  O  O7  1  0.66501800  0.20856200  0.84372200  1
  O  O8  1  0.14572200  0.81883200  0.73224000  1
  O  O9  1  0.84838500  0.69698400  0.26602400  1
  O  O10  1  0.75551400  0.86758500  0.37535000  1
  O  O11  1  0.61534900  0.69432400  0.86195500  1
loop_
_geom_bond_atom_site_label_1
_geom_bond_atom_site_label_2
_geom_bond_distance
_geom_bond_site_symmetry_2
Mg0 O0 2.004931 1_556
Mg0 O10 2.024088 1_555
Mg0 O2 2.069958 1_655
Mg0 O6 2.168008 1_555
Mg0 O7 2.217827 1_555
Mg0 O9 2.220591 1_555
O0 Te0 1.934428 1_545
O0 Te2 2.234354 1_455
O1 W0 1.834930 1_555
O1 Te0 2.110125 1_545
O2 Te1 1.999402 1_555
O2 W0 2.040448 1_555
O3 Te0 1.930405 1_545
O3 Te2 2.051618 1_555
O4 W0 1.938077 1_564
O4 Te1 1.979603 1_555
O5 Te1 1.922484 1_555
O5 Te2 2.011130 1_555
O6 Te1 1.977506 1_555
O6 Te2 2.104291 1_456
O7 W0 1.933428 1_655
O7 Te1 2.118610 1_555
O8 Te0 1.920973 1_555
O8 Te2 2.096809 1_456
O9 W0 1.894621 1_664
O9 Te1 2.120975 1_555
O10 Te0 1.966892 1_555
O10 W0 2.182432 1_664
O11 Te0 1.950525 1_555
O11 Te2 1.987371 1_556
