# generated using pymatgen
data_MgV4Ag2O11
_symmetry_space_group_name_H-M   'P 1'
_cell_length_a   3.70070390
_cell_length_b   8.05890834
_cell_length_c   8.53702436
_cell_angle_alpha   67.99241720
_cell_angle_beta   77.41903057
_cell_angle_gamma   76.53083724
_symmetry_Int_Tables_number   1
_chemical_formula_structural   MgV4Ag2O11
_chemical_formula_sum   'Mg1 V4 Ag2 O11'
_cell_volume   227.14195986
_cell_formula_units_Z   1
loop_
 _symmetry_equiv_pos_site_id
 _symmetry_equiv_pos_as_xyz
  1  'x, y, z'
loop_
 _atom_site_type_symbol
 _atom_site_label
 _atom_site_symmetry_multiplicity
 _atom_site_fract_x
 _atom_site_fract_y
 _atom_site_fract_z
 _atom_site_occupancy
  Mg  Mg0  1  0.46841018  0.11048746  0.94846856  1
  V  V0  1  0.63857012  0.14116681  0.57845550  1
  V  V1  1  0.35333093  0.86491329  0.42994200  1
  V  V2  1  0.80686382  0.18519319  0.19820522  1
  V  V3  1  0.16071390  0.83954730  0.83888835  1
  Ag  Ag0  1  0.89705593  0.50539351  0.70212182  1
  Ag  Ag1  1  0.08565113  0.52859084  0.29788438  1
  O  O0  1  0.50781360  0.28158954  0.69961472  1
  O  O1  1  0.48118927  0.71026465  0.33106650  1
  O  O2  1  0.66621637  0.31804108  0.34286611  1
  O  O3  1  0.31859204  0.71681465  0.64886503  1
  O  O4  1  0.84766415  0.31670700  0.98944781  1
  O  O5  1  0.18503945  0.63983262  0.99138910  1
  O  O6  1  0.02184985  0.99345278  0.96026052  1
  O  O7  1  0.34712096  0.09932479  0.20539727  1
  O  O8  1  0.82277250  0.94353159  0.41156484  1
  O  O9  1  0.17911694  0.06972462  0.57017560  1
  O  O10  1  0.65846085  0.90209329  0.78038369  1
loop_
_geom_bond_atom_site_label_1
_geom_bond_atom_site_label_2
_geom_bond_distance
_geom_bond_site_symmetry_2
Mg0 O0 2.049201 1_555
Mg0 O6 2.052613 1_545
Mg0 O6 2.052624 1_645
Mg0 O7 2.112494 1_556
Mg0 O10 2.488055 1_545
Mg0 O4 2.543345 1_455
Mg0 O4 2.567170 1_555
Ag0 O4 2.345456 1_555
Ag0 O3 2.415932 1_555
Ag0 O3 2.427323 1_655
Ag0 O0 2.543805 1_655
Ag0 O0 2.565364 1_555
Ag1 O1 2.395160 1_455
Ag1 O5 2.400351 1_554
Ag1 O2 2.411527 1_555
Ag1 O1 2.419969 1_555
Ag1 O2 2.432049 1_455
O0 V0 1.728805 1_555
O1 V1 1.682078 1_555
O2 V2 1.842166 1_555
O2 V0 1.979153 1_555
O3 V1 1.796950 1_555
O3 V3 2.114647 1_555
O4 V2 1.692314 1_556
O5 V3 1.645187 1_555
O6 V3 1.819439 1_555
O7 V2 1.961740 1_555
O7 V2 1.963946 1_455
O7 V1 2.128111 1_545
O8 V1 1.939412 1_655
O8 V1 1.940011 1_555
O8 V2 2.109208 1_565
O8 V0 2.408980 1_565
O9 V0 1.940720 1_555
O9 V0 1.941770 1_455
O9 V1 2.285213 1_545
O9 V3 2.347263 1_545
O10 V3 1.933275 1_655
O10 V3 1.933804 1_555
O10 V0 2.046757 1_565
