# generated using pymatgen
data_MgCu6(OF5)2
_symmetry_space_group_name_H-M   'P 1'
_cell_length_a   7.94494959
_cell_length_b   5.12178543
_cell_length_c   5.64517934
_cell_angle_alpha   95.16250544
_cell_angle_beta   92.95871460
_cell_angle_gamma   84.02053914
_symmetry_Int_Tables_number   1
_chemical_formula_structural   MgCu6(OF5)2
_chemical_formula_sum   'Mg1 Cu6 O2 F10'
_cell_volume   227.33188534
_cell_formula_units_Z   1
loop_
 _symmetry_equiv_pos_site_id
 _symmetry_equiv_pos_as_xyz
  1  'x, y, z'
loop_
 _atom_site_type_symbol
 _atom_site_label
 _atom_site_symmetry_multiplicity
 _atom_site_fract_x
 _atom_site_fract_y
 _atom_site_fract_z
 _atom_site_occupancy
  Mg  Mg0  1  0.49597673  0.99893895  0.97990674  1
  Cu  Cu0  1  0.98914446  0.02556849  0.97977296  1
  Cu  Cu1  1  0.98536865  0.43743321  0.54217235  1
  Cu  Cu2  1  0.29847408  0.91237353  0.37757280  1
  Cu  Cu3  1  0.65117073  0.51811480  0.17112743  1
  Cu  Cu4  1  0.31426721  0.50599006  0.86481292  1
  Cu  Cu5  1  0.70927308  0.05484286  0.58390479  1
  O  O0  1  0.42297344  0.68662327  0.13715665  1
  O  O1  1  0.90527004  0.18027818  0.71156622  1
  F  F0  1  0.26666373  0.17158939  0.03043736  1
  F  F1  1  0.07378186  0.85233150  0.25938384  1
  F  F2  1  0.22762003  0.29204732  0.55742830  1
  F  F3  1  0.10152700  0.72865620  0.79041567  1
  F  F4  1  0.57121240  0.20135613  0.29363267  1
  F  F5  1  0.46213476  0.84737949  0.64042504  1
  F  F6  1  0.88430813  0.31379998  0.18235214  1
  F  F7  1  0.78460590  0.68487802  0.49615834  1
  F  F8  1  0.55742860  0.30020572  0.81314093  1
  F  F9  1  0.72379819  0.80148191  0.00529985  1
loop_
_geom_bond_atom_site_label_1
_geom_bond_atom_site_label_2
_geom_bond_distance
_geom_bond_site_symmetry_2
Mg0 O0 2.045773 1_556
Cu0 O1 1.834694 1_555
Cu0 F6 1.928533 1_556
Cu0 F1 1.936266 1_646
Cu0 F3 1.943085 1_645
Cu0 F0 2.396369 1_656
Cu0 F9 2.519448 1_546
Cu1 O1 1.875700 1_555
Cu1 F7 1.952732 1_555
Cu1 F2 1.990504 1_655
Cu1 F3 2.194877 1_655
Cu1 F6 2.208555 1_555
Cu2 F1 1.918605 1_555
Cu2 O0 1.942980 1_555
Cu2 F5 1.950095 1_555
Cu2 F2 2.145898 1_565
Cu2 F0 2.452324 1_565
Cu3 O0 1.933021 1_555
Cu3 F9 1.946904 1_555
Cu3 F4 1.993965 1_555
Cu3 F6 2.031244 1_555
Cu3 F7 2.219444 1_555
Cu3 F8 2.344412 1_554
Cu4 O0 1.933639 1_556
Cu4 F3 1.986236 1_555
Cu4 F2 2.092209 1_555
Cu4 F0 2.100075 1_556
Cu4 F8 2.122933 1_555
Cu5 O1 1.834721 1_555
Cu5 F7 1.954370 1_545
Cu5 F8 2.064450 1_555
Cu5 F4 2.077416 1_555
Cu5 F5 2.376257 1_545
F0 Mg0 1.963459 1_544
F4 Mg0 2.063516 1_544
F5 Mg0 2.017464 1_555
F8 Mg0 1.992836 1_545
F9 Mg0 1.984307 1_554
