# generated using pymatgen
data_Zr4Ni2O
_symmetry_space_group_name_H-M   'P 1'
_cell_length_a   8.74115450
_cell_length_b   8.74115377
_cell_length_c   8.74115400
_cell_angle_alpha   59.99999912
_cell_angle_beta   60.00000189
_cell_angle_gamma   59.99999848
_symmetry_Int_Tables_number   1
_chemical_formula_structural   Zr4Ni2O
_chemical_formula_sum   'Zr16 Ni8 O4'
_cell_volume   472.27105464
_cell_formula_units_Z   4
loop_
 _symmetry_equiv_pos_site_id
 _symmetry_equiv_pos_as_xyz
  1  'x, y, z'
loop_
 _atom_site_type_symbol
 _atom_site_label
 _atom_site_symmetry_multiplicity
 _atom_site_fract_x
 _atom_site_fract_y
 _atom_site_fract_z
 _atom_site_occupancy
  Zr  Zr0  1  0.05764400  0.69235700  0.69235600  1
  Zr  Zr1  1  0.30764300  0.94235700  0.94235600  1
  Zr  Zr2  1  0.69235700  0.05764400  0.69235600  1
  Zr  Zr3  1  0.69235600  0.69235700  0.05764400  1
  Zr  Zr4  1  0.05764400  0.05764400  0.69235700  1
  Zr  Zr5  1  0.05764400  0.69235700  0.05764400  1
  Zr  Zr6  1  0.30764300  0.94235700  0.30764300  1
  Zr  Zr7  1  0.94235600  0.30764400  0.94235600  1
  Zr  Zr8  1  0.50000000  0.50000000  0.49999900  1
  Zr  Zr9  1  0.50000000  0.50000000  0.00000000  1
  Zr  Zr10  1  0.00000000  0.50000000  0.50000100  1
  Zr  Zr11  1  0.50000000  0.00000000  0.50000000  1
  Zr  Zr12  1  0.94235600  0.30764400  0.30764300  1
  Zr  Zr13  1  0.30764300  0.30764400  0.94235600  1
  Zr  Zr14  1  0.94235700  0.94235700  0.30764300  1
  Zr  Zr15  1  0.69235700  0.05764400  0.05764300  1
  Ni  Ni0  1  0.71426400  0.71426500  0.35720700  1
  Ni  Ni1  1  0.28573500  0.28573600  0.28573600  1
  Ni  Ni2  1  0.71426400  0.35720800  0.71426400  1
  Ni  Ni3  1  0.35720700  0.71426500  0.71426400  1
  Ni  Ni4  1  0.28573600  0.64279300  0.28573600  1
  Ni  Ni5  1  0.71426400  0.71426500  0.71426500  1
  Ni  Ni6  1  0.28573500  0.28573600  0.64279300  1
  Ni  Ni7  1  0.64279300  0.28573600  0.28573600  1
  O  O0  1  0.00000000  0.50000000  0.00000000  1
  O  O1  1  0.50000000  0.00000000  0.00000000  1
  O  O2  1  0.00000000  0.00000000  0.50000000  1
  O  O3  1  0.00000000  0.00000000  0.00000000  1
loop_
_geom_bond_atom_site_label_1
_geom_bond_atom_site_label_2
_geom_bond_distance
_geom_bond_site_symmetry_2
Ni0 Zr11 2.721381 1_565
Ni0 Zr8 2.721391 1_555
Ni0 Zr10 2.721394 1_655
Ni0 Zr3 2.823048 1_555
Ni0 Zr15 2.823052 1_565
Ni0 Zr5 2.823053 1_655
Ni1 Zr10 2.721387 1_555
Ni1 Zr11 2.721388 1_555
Ni1 Zr9 2.721389 1_555
Ni1 Zr6 2.823052 1_545
Ni1 Zr12 2.823052 1_455
Ni1 Zr13 2.823057 1_554
Ni2 Zr9 2.721384 1_556
Ni2 Zr10 2.721384 1_655
Ni2 Zr8 2.721391 1_555
Ni2 Zr2 2.823052 1_555
Ni2 Zr15 2.823052 1_556
Ni2 Zr4 2.823057 1_655
Ni3 Zr11 2.721382 1_565
Ni3 Zr9 2.721388 1_556
Ni3 Zr8 2.721395 1_555
Ni3 Zr4 2.823048 1_565
Ni3 Zr0 2.823048 1_555
Ni3 Zr5 2.823053 1_556
Ni4 Zr8 2.721374 1_555
Ni4 Zr9 2.721389 1_555
Ni4 Zr10 2.721389 1_555
Ni4 Zr6 2.823047 1_555
Ni4 Zr14 2.823052 1_455
Ni4 Zr1 2.823057 1_554
Ni5 Zr11 2.721386 1_565
Ni5 Zr9 2.721387 1_556
Ni5 Zr10 2.721389 1_655
Ni5 Zr2 2.823048 1_565
Ni5 Zr3 2.823048 1_556
Ni5 Zr0 2.823053 1_655
Ni6 Zr10 2.721377 1_555
Ni6 Zr8 2.721387 1_555
Ni6 Zr11 2.721388 1_555
Ni6 Zr1 2.823048 1_545
Ni6 Zr13 2.823048 1_555
Ni6 Zr7 2.823048 1_455
Ni7 Zr8 2.721374 1_555
Ni7 Zr9 2.721388 1_555
Ni7 Zr11 2.721389 1_555
Ni7 Zr12 2.823043 1_555
Ni7 Zr14 2.823052 1_545
Ni7 Zr7 2.823053 1_554
O0 Zr12 2.298530 1_455
O0 Zr13 2.298530 1_554
O0 Zr7 2.298536 1_454
O0 Zr0 2.298538 1_554
O0 Zr3 2.298538 1_455
O0 Zr5 2.298544 1_555
O1 Zr3 2.298529 1_545
O1 Zr6 2.298532 1_545
O1 Zr13 2.298538 1_554
O1 Zr1 2.298538 1_544
O1 Zr15 2.298538 1_555
O1 Zr2 2.298538 1_554
O2 Zr0 2.298529 1_545
O2 Zr2 2.298530 1_455
O2 Zr14 2.298532 1_445
O2 Zr6 2.298532 1_545
O2 Zr12 2.298538 1_455
O2 Zr4 2.298544 1_555
O3 Zr5 2.298527 1_545
O3 Zr4 2.298527 1_554
O3 Zr15 2.298530 1_455
O3 Zr1 2.298530 1_544
O3 Zr14 2.298532 1_445
O3 Zr7 2.298536 1_454
