# generated using pymatgen
data_NaCa2Si3HO9
_symmetry_space_group_name_H-M   'P 1'
_cell_length_a   7.09031600
_cell_length_b   7.11624034
_cell_length_c   8.08561858
_cell_angle_alpha   95.22026963
_cell_angle_beta   102.41097799
_cell_angle_gamma   90.44883053
_symmetry_Int_Tables_number   1
_chemical_formula_structural   NaCa2Si3HO9
_chemical_formula_sum   'Na2 Ca4 Si6 H2 O18'
_cell_volume   396.62735011
_cell_formula_units_Z   2
loop_
 _symmetry_equiv_pos_site_id
 _symmetry_equiv_pos_as_xyz
  1  'x, y, z'
loop_
 _atom_site_type_symbol
 _atom_site_label
 _atom_site_symmetry_multiplicity
 _atom_site_fract_x
 _atom_site_fract_y
 _atom_site_fract_z
 _atom_site_occupancy
  Na  Na0  1  0.74549500  0.65979200  0.44871000  1
  Na  Na1  1  0.25450500  0.34020800  0.55129000  1
  Ca  Ca0  1  0.59447700  0.14214300  0.85383000  1
  Ca  Ca1  1  0.40552300  0.85785700  0.14617000  1
  Ca  Ca2  1  0.91641700  0.85709800  0.15384400  1
  Ca  Ca3  1  0.08358300  0.14290200  0.84615600  1
  Si  Si0  1  0.73456400  0.14421200  0.44946600  1
  Si  Si1  1  0.04873100  0.65566700  0.78628300  1
  Si  Si2  1  0.59996500  0.66407200  0.78212000  1
  Si  Si3  1  0.40003500  0.33592800  0.21788000  1
  Si  Si4  1  0.26543600  0.85578800  0.55053400  1
  Si  Si5  1  0.95126900  0.34433300  0.21371700  1
  H  H0  1  0.63818700  0.53079400  0.16635700  1
  H  H1  1  0.36181300  0.46920600  0.83364300  1
  O  O0  1  0.09074100  0.72792000  0.60543500  1
  O  O1  1  0.90925900  0.27208000  0.39456500  1
  O  O2  1  0.46707300  0.72914100  0.60168800  1
  O  O3  1  0.53292700  0.27085900  0.39831200  1
  O  O4  1  0.81064300  0.61524600  0.73712100  1
  O  O5  1  0.18935700  0.38475400  0.26287900  1
  O  O6  1  0.10499500  0.82299600  0.94105100  1
  O  O7  1  0.89500500  0.17700400  0.05894900  1
  O  O8  1  0.61351400  0.82678800  0.93767100  1
  O  O9  1  0.38648600  0.17321200  0.06232900  1
  O  O10  1  0.15649300  0.45853800  0.81939600  1
  O  O11  1  0.84350700  0.54146200  0.18060400  1
  O  O12  1  0.21331500  0.87158900  0.34795900  1
  O  O13  1  0.78668500  0.12841100  0.65204100  1
  O  O14  1  0.70341300  0.94496200  0.32980400  1
  O  O15  1  0.29658700  0.05503800  0.67019600  1
  O  O16  1  0.49429000  0.53972200  0.18650700  1
  O  O17  1  0.50571000  0.46027800  0.81349300  1
loop_
_geom_bond_atom_site_label_1
_geom_bond_atom_site_label_2
_geom_bond_distance
_geom_bond_site_symmetry_2
Na0 O14 2.317930 1_555
Na0 O4 2.329331 1_555
Na0 O11 2.493176 1_555
Na0 O0 2.523755 1_655
Na0 O16 2.533884 1_555
Na0 O2 2.573786 1_555
Na1 O15 2.317930 1_555
Na1 O5 2.329331 1_555
Na1 O10 2.493176 1_555
Na1 O1 2.523755 1_455
Na1 O17 2.533884 1_555
Na1 O3 2.573786 1_555
Ca0 O13 2.336184 1_555
Ca0 O15 2.348176 1_555
Ca0 O17 2.386694 1_555
Ca0 O7 2.398010 1_556
Ca0 O8 2.399208 1_545
Ca0 O9 2.464081 1_556
Ca1 O12 2.336184 1_555
Ca1 O14 2.348176 1_555
Ca1 O16 2.386694 1_555
Ca1 O6 2.398010 1_554
Ca1 O9 2.399208 1_565
Ca1 O8 2.464081 1_554
Ca2 O12 2.335050 1_655
Ca2 O14 2.339357 1_555
Ca2 O11 2.340414 1_555
Ca2 O6 2.392693 1_654
Ca2 O8 2.454529 1_554
Ca2 O7 2.463240 1_565
Ca3 O13 2.335050 1_455
Ca3 O15 2.339357 1_555
Ca3 O10 2.340414 1_555
Ca3 O7 2.392693 1_456
Ca3 O9 2.454529 1_556
Ca3 O6 2.463240 1_545
H0 O16 1.068703 1_555
H0 O11 1.436291 1_555
H0 Na0 2.344079 1_555
H1 O17 1.068703 1_555
H1 O10 1.436291 1_555
H1 Na1 2.344079 1_555
O0 Si1 1.677188 1_555
O0 Si4 1.688631 1_555
O1 Si5 1.677188 1_555
O1 Si0 1.688631 1_555
O2 Si2 1.664188 1_555
O2 Si4 1.691486 1_555
O3 Si3 1.664188 1_555
O3 Si0 1.691486 1_555
O4 Si2 1.644146 1_555
O4 Si1 1.665425 1_655
O5 Si3 1.644146 1_555
O5 Si5 1.665425 1_455
O6 Si1 1.627835 1_555
O7 Si5 1.627835 1_555
O8 Si2 1.616541 1_555
O9 Si3 1.616541 1_555
O10 Si1 1.618822 1_555
O11 Si5 1.618822 1_555
O12 Si4 1.614327 1_555
O13 Si0 1.614327 1_555
O14 Si0 1.627570 1_565
O15 Si4 1.627570 1_545
O16 Si3 1.654937 1_555
O17 Si2 1.654937 1_555
