# generated using pymatgen
data_AlH18Ru(NF)6
_symmetry_space_group_name_H-M   'P 1'
_cell_length_a   9.88777615
_cell_length_b   9.88779746
_cell_length_c   9.88783553
_cell_angle_alpha   90.00000000
_cell_angle_beta   90.00000000
_cell_angle_gamma   90.00000000
_symmetry_Int_Tables_number   1
_chemical_formula_structural   AlH18Ru(NF)6
_chemical_formula_sum   'Al4 H72 Ru4 N24 F24'
_cell_volume   966.71714633
_cell_formula_units_Z   4
loop_
 _symmetry_equiv_pos_site_id
 _symmetry_equiv_pos_as_xyz
  1  'x, y, z'
loop_
 _atom_site_type_symbol
 _atom_site_label
 _atom_site_symmetry_multiplicity
 _atom_site_fract_x
 _atom_site_fract_y
 _atom_site_fract_z
 _atom_site_occupancy
  Al  Al0  1  0.00000000  0.50000000  0.50000000  1
  Al  Al1  1  0.50000000  0.50000000  0.00000000  1
  Al  Al2  1  0.50000000  0.00000000  0.50000000  1
  Al  Al3  1  0.00000000  0.00000000  0.00000000  1
  H  H0  1  0.89186152  0.24362590  0.44510931  1
  H  H1  1  0.39186152  0.25637410  0.55489069  1
  H  H2  1  0.10813848  0.74362590  0.05489069  1
  H  H3  1  0.25637368  0.55489146  0.39186100  1
  H  H4  1  0.05489054  0.10813878  0.74362634  1
  H  H5  1  0.55489054  0.39186122  0.25637366  1
  H  H6  1  0.24362632  0.44510854  0.89186100  1
  H  H7  1  0.44510946  0.89186122  0.24362634  1
  H  H8  1  0.74362632  0.05489146  0.10813900  1
  H  H9  1  0.75637368  0.94510854  0.60813900  1
  H  H10  1  0.94510946  0.60813878  0.75637366  1
  H  H11  1  0.60813848  0.75637410  0.94510931  1
  H  H12  1  0.10813848  0.75637410  0.55489069  1
  H  H13  1  0.60813848  0.74362590  0.44510931  1
  H  H14  1  0.89186152  0.25637410  0.94510931  1
  H  H15  1  0.74362632  0.44510854  0.60813900  1
  H  H16  1  0.94510946  0.89186122  0.25637366  1
  H  H17  1  0.44510946  0.60813878  0.74362634  1
  H  H18  1  0.75637368  0.55489146  0.10813900  1
  H  H19  1  0.55489054  0.10813878  0.75637366  1
  H  H20  1  0.25637368  0.94510854  0.89186100  1
  H  H21  1  0.24362632  0.05489146  0.39186100  1
  H  H22  1  0.05489054  0.39186122  0.24362634  1
  H  H23  1  0.39186152  0.24362590  0.05489069  1
  H  H24  1  0.76956050  0.13132769  0.45554430  1
  H  H25  1  0.26956050  0.36867231  0.54445570  1
  H  H26  1  0.23043950  0.63132769  0.04445570  1
  H  H27  1  0.36867244  0.54445502  0.26956069  1
  H  H28  1  0.04445578  0.23043972  0.63132811  1
  H  H29  1  0.54445578  0.26956028  0.36867189  1
  H  H30  1  0.13132756  0.45554498  0.76956069  1
  H  H31  1  0.64053856  0.18197943  0.13247507  1
  H  H32  1  0.45554422  0.76956028  0.13132811  1
  H  H33  1  0.86867244  0.95554498  0.73043931  1
  H  H34  1  0.95554422  0.73043972  0.86867189  1
  H  H35  1  0.73043950  0.86867231  0.95554430  1
  H  H36  1  0.23043950  0.86867231  0.54445570  1
  H  H37  1  0.73043950  0.63132769  0.45554430  1
  H  H38  1  0.76956050  0.36867231  0.95554430  1
  H  H39  1  0.63132756  0.45554498  0.73043931  1
  H  H40  1  0.95554422  0.76956028  0.36867189  1
  H  H41  1  0.45554422  0.73043972  0.63132811  1
  H  H42  1  0.86867244  0.54445502  0.23043931  1
  H  H43  1  0.54445578  0.23043972  0.86867189  1
  H  H44  1  0.36867244  0.95554498  0.76956069  1
  H  H45  1  0.13132756  0.04445502  0.26956069  1
  H  H46  1  0.04445578  0.26956028  0.13132811  1
  H  H47  1  0.26956050  0.13132769  0.04445570  1
  H  H48  1  0.86752464  0.14054016  0.31802000  1
  H  H49  1  0.36752464  0.35945984  0.68198000  1
  H  H50  1  0.13247536  0.64054016  0.18198000  1
  H  H51  1  0.35946144  0.68197943  0.36752493  1
  H  H52  1  0.18197910  0.13247392  0.64053913  1
  H  H53  1  0.68197910  0.36752608  0.35946087  1
  H  H54  1  0.14053856  0.31802057  0.86752493  1
  H  H55  1  0.31802090  0.86752608  0.14053913  1
  H  H56  1  0.36752464  0.14054016  0.18198000  1
  H  H57  1  0.18197910  0.36752608  0.14053913  1
  H  H58  1  0.14053856  0.18197943  0.36752493  1
  H  H59  1  0.35946144  0.81802057  0.86752493  1
  H  H60  1  0.68197910  0.13247392  0.85946087  1
  H  H61  1  0.85946144  0.68197943  0.13247507  1
  H  H62  1  0.31802090  0.63247392  0.64053913  1
  H  H63  1  0.81802090  0.86752608  0.35946087  1
  H  H64  1  0.64053856  0.31802057  0.63247507  1
  H  H65  1  0.86752464  0.35945984  0.81802000  1
  H  H66  1  0.63247536  0.64054016  0.31802000  1
  H  H67  1  0.13247536  0.85945984  0.68198000  1
  H  H68  1  0.63247536  0.85945984  0.81802000  1
  H  H69  1  0.81802090  0.63247392  0.85946087  1
  H  H70  1  0.85946144  0.81802057  0.63247507  1
  H  H71  1  0.63132756  0.04445502  0.23043931  1
  Ru  Ru0  1  0.50000000  0.00000000  0.00000000  1
  Ru  Ru1  1  0.00000000  0.00000000  0.50000000  1
  Ru  Ru2  1  0.00000000  0.50000000  0.00000000  1
  Ru  Ru3  1  0.50000000  0.50000000  0.50000000  1
  N  N0  1  0.86637836  0.14627890  0.42139095  1
  N  N1  1  0.36637836  0.35372110  0.57860905  1
  N  N2  1  0.13362164  0.64627890  0.07860905  1
  N  N3  1  0.35372133  0.57860804  0.36637792  1
  N  N4  1  0.07860741  0.13362158  0.64627947  1
  N  N5  1  0.57860741  0.36637842  0.35372053  1
  N  N6  1  0.14627867  0.42139196  0.86637792  1
  N  N7  1  0.42139259  0.86637842  0.14627947  1
  N  N8  1  0.64627867  0.07860804  0.13362208  1
  N  N9  1  0.85372133  0.92139196  0.63362208  1
  N  N10  1  0.92139259  0.63362158  0.85372053  1
  N  N11  1  0.63362164  0.85372110  0.92139095  1
  N  N12  1  0.13362164  0.85372110  0.57860905  1
  N  N13  1  0.63362164  0.64627890  0.42139095  1
  N  N14  1  0.86637836  0.35372110  0.92139095  1
  N  N15  1  0.64627867  0.42139196  0.63362208  1
  N  N16  1  0.92139259  0.86637842  0.35372053  1
  N  N17  1  0.42139259  0.63362158  0.64627947  1
  N  N18  1  0.85372133  0.57860804  0.13362208  1
  N  N19  1  0.57860741  0.13362158  0.85372053  1
  N  N20  1  0.35372133  0.92139196  0.86637792  1
  N  N21  1  0.14627867  0.07860804  0.36637792  1
  N  N22  1  0.07860741  0.36637842  0.14627947  1
  N  N23  1  0.36637836  0.14627890  0.07860905  1
  F  F0  1  0.61042377  0.13400989  0.56001637  1
  F  F1  1  0.11042377  0.36599011  0.43998363  1
  F  F2  1  0.38957623  0.63400989  0.93998363  1
  F  F3  1  0.36598973  0.43998106  0.11042302  1
  F  F4  1  0.93998100  0.38957679  0.63400957  1
  F  F5  1  0.43998100  0.11042321  0.36599043  1
  F  F6  1  0.13401027  0.56001894  0.61042302  1
  F  F7  1  0.56001900  0.61042321  0.13400957  1
  F  F8  1  0.63401027  0.93998106  0.38957698  1
  F  F9  1  0.86598973  0.06001894  0.88957698  1
  F  F10  1  0.06001900  0.88957679  0.86599043  1
  F  F11  1  0.88957623  0.86599011  0.06001637  1
  F  F12  1  0.38957623  0.86599011  0.43998363  1
  F  F13  1  0.88957623  0.63400989  0.56001637  1
  F  F14  1  0.61042377  0.36599011  0.06001637  1
  F  F15  1  0.63401027  0.56001894  0.88957698  1
  F  F16  1  0.06001900  0.61042321  0.36599043  1
  F  F17  1  0.56001900  0.88957679  0.63400957  1
  F  F18  1  0.86598973  0.43998106  0.38957698  1
  F  F19  1  0.43998100  0.38957679  0.86599043  1
  F  F20  1  0.36598973  0.06001894  0.61042302  1
  F  F21  1  0.13401027  0.93998106  0.11042302  1
  F  F22  1  0.93998100  0.11042321  0.13400957  1
  F  F23  1  0.11042377  0.13400989  0.93998363  1
loop_
_geom_bond_atom_site_label_1
_geom_bond_atom_site_label_2
_geom_bond_distance
_geom_bond_site_symmetry_2
Al0 F13 1.816612 1_455
Al0 F1 1.816612 1_555
Al0 F16 1.816619 1_555
Al0 F4 1.816619 1_455
Al0 F18 1.816620 1_455
Al0 F6 1.816620 1_555
Al1 F2 1.816612 1_554
Al1 F14 1.816612 1_555
Al1 F7 1.816619 1_555
Al1 F19 1.816619 1_554
Al1 F15 1.816620 1_554
Al1 F3 1.816620 1_555
Al2 F12 1.816612 1_545
Al2 F0 1.816612 1_555
Al2 F5 1.816619 1_555
Al2 F17 1.816619 1_545
Al2 F8 1.816620 1_545
Al2 F20 1.816620 1_555
Al3 F11 1.816612 1_445
Al3 F23 1.816612 1_554
Al3 F10 1.816619 1_544
Al3 F22 1.816619 1_455
Al3 F21 1.816620 1_545
Al3 F9 1.816620 1_454
H0 N0 1.022247 1_555
H1 N1 1.022247 1_555
H2 N2 1.022247 1_555
H3 N3 1.022247 1_555
H4 N4 1.022245 1_555
H5 N5 1.022245 1_555
H6 N6 1.022247 1_555
H7 N7 1.022245 1_555
H8 N8 1.022247 1_555
H9 N9 1.022247 1_555
H10 N10 1.022245 1_555
H11 N11 1.022247 1_555
H12 N12 1.022247 1_555
H13 N13 1.022247 1_555
H14 N14 1.022247 1_555
H15 N15 1.022247 1_555
H16 N16 1.022245 1_555
H17 N17 1.022245 1_555
H18 N18 1.022247 1_555
H19 N19 1.022245 1_555
H20 N20 1.022247 1_555
H21 N21 1.022247 1_555
H22 N22 1.022245 1_555
H23 N23 1.022247 1_555
H24 N0 1.025840 1_555
H25 N1 1.025840 1_555
H26 N2 1.025840 1_555
H27 N3 1.025838 1_555
H28 N4 1.025838 1_555
H29 N5 1.025838 1_555
H30 N6 1.025838 1_555
H31 N8 1.023753 1_555
H32 N7 1.025838 1_555
H33 N9 1.025838 1_555
H34 N10 1.025838 1_555
H35 N11 1.025840 1_555
H36 N12 1.025840 1_555
H37 N13 1.025840 1_555
H38 N14 1.025840 1_555
H39 N15 1.025838 1_555
H40 N16 1.025838 1_555
H41 N17 1.025838 1_555
H42 N18 1.025838 1_555
H43 N19 1.025838 1_555
H44 N20 1.025838 1_555
H45 N21 1.025838 1_555
H46 N22 1.025838 1_555
H47 N23 1.025840 1_555
H48 N0 1.023752 1_555
H49 N1 1.023752 1_555
H50 N2 1.023752 1_555
H51 N3 1.023753 1_555
H52 N4 1.023754 1_555
H53 N5 1.023754 1_555
H54 N6 1.023753 1_555
H55 N7 1.023754 1_555
H56 N23 1.023752 1_555
H57 N22 1.023754 1_555
H58 N21 1.023753 1_555
H59 N20 1.023753 1_555
H60 N19 1.023754 1_555
H61 N18 1.023753 1_555
H62 N17 1.023754 1_555
H63 N16 1.023754 1_555
H64 N15 1.023753 1_555
H65 N14 1.023752 1_555
H66 N13 1.023752 1_555
H67 N12 1.023752 1_555
H68 N11 1.023752 1_555
H69 N10 1.023754 1_555
H70 N9 1.023753 1_555
H71 N8 1.025838 1_555
N0 Ru1 2.107554 1_655
N1 Ru3 2.107554 1_555
N2 Ru2 2.107554 1_555
N3 Ru3 2.107553 1_555
N4 Ru1 2.107555 1_555
N5 Ru3 2.107555 1_555
N6 Ru2 2.107553 1_556
N7 Ru0 2.107555 1_565
N8 Ru0 2.107553 1_555
N9 Ru1 2.107553 1_665
N10 Ru2 2.107555 1_656
N11 Ru0 2.107554 1_566
N12 Ru1 2.107554 1_565
N13 Ru3 2.107554 1_555
N14 Ru2 2.107554 1_656
N15 Ru3 2.107553 1_555
N16 Ru1 2.107555 1_665
N17 Ru3 2.107555 1_555
N18 Ru2 2.107553 1_655
N19 Ru0 2.107555 1_556
N20 Ru0 2.107553 1_566
N21 Ru1 2.107553 1_555
N22 Ru2 2.107555 1_555
N23 Ru0 2.107554 1_555
