# generated using pymatgen
data_Na7Ti2Al2Si3(PO8)3
_symmetry_space_group_name_H-M   'P 1'
_cell_length_a   8.80429219
_cell_length_b   8.76990235
_cell_length_c   21.77274005
_cell_angle_alpha   89.83476184
_cell_angle_beta   90.04432525
_cell_angle_gamma   119.96449644
_symmetry_Int_Tables_number   1
_chemical_formula_structural   Na7Ti2Al2Si3(PO8)3
_chemical_formula_sum   'Na21 Ti6 Al6 Si9 P9 O72'
_cell_volume   1456.41871277
_cell_formula_units_Z   3
loop_
 _symmetry_equiv_pos_site_id
 _symmetry_equiv_pos_as_xyz
  1  'x, y, z'
loop_
 _atom_site_type_symbol
 _atom_site_label
 _atom_site_symmetry_multiplicity
 _atom_site_fract_x
 _atom_site_fract_y
 _atom_site_fract_z
 _atom_site_occupancy
  Na  Na0  1  0.63414681  0.00155036  0.25104088  1
  Na  Na1  1  0.36593676  0.36733963  0.24888635  1
  Na  Na2  1  0.99980689  0.62999805  0.24975054  1
  Na  Na3  1  0.63270115  0.63521274  0.74985723  1
  Na  Na4  1  0.99532546  0.36362191  0.74938370  1
  Na  Na5  1  0.37022761  0.00058802  0.74820387  1
  Na  Na6  1  0.03256818  0.69844385  0.58363698  1
  Na  Na7  1  0.66304277  0.96707129  0.58318225  1
  Na  Na8  1  0.66662378  0.69550496  0.08309193  1
  Na  Na9  1  0.03156390  0.33498366  0.08449100  1
  Na  Na10  1  0.96333820  0.66550780  0.91866165  1
  Na  Na11  1  0.70070334  0.03142493  0.91641829  1
  Na  Na12  1  0.33806336  0.30318182  0.91799539  1
  Na  Na13  1  0.96804146  0.30326588  0.41632018  1
  Na  Na14  1  0.33530223  0.03263820  0.41710148  1
  Na  Na15  1  0.00099930  0.99925161  0.50012225  1
  Na  Na16  1  0.00571650  0.99630693  0.00033731  1
  Na  Na17  1  0.66670215  0.33327174  0.83339300  1
  Na  Na18  1  0.66987421  0.34028945  0.33446051  1
  Na  Na19  1  0.32925330  0.66962529  0.16636267  1
  Na  Na20  1  0.33370779  0.66159038  0.66533579  1
  Ti  Ti0  1  0.98665613  0.99431941  0.35476208  1
  Ti  Ti1  1  0.00094190  0.00794943  0.64619769  1
  Ti  Ti2  1  0.01421503  0.00656204  0.14486641  1
  Ti  Ti3  1  0.66810294  0.33027532  0.48042798  1
  Ti  Ti4  1  0.33647670  0.66870391  0.02159412  1
  Ti  Ti5  1  0.33087322  0.67016402  0.51961620  1
  Al  Al0  1  0.99259661  0.99725720  0.85112005  1
  Al  Al1  1  0.66924191  0.32721291  0.68401936  1
  Al  Al2  1  0.67294625  0.33600879  0.18321848  1
  Al  Al3  1  0.66404445  0.34177645  0.98297833  1
  Al  Al4  1  0.32726913  0.66179189  0.31628183  1
  Al  Al5  1  0.34065986  0.67000199  0.81562049  1
  Si  Si0  1  0.99973139  0.29767156  0.24963765  1
  Si  Si1  1  0.70581829  0.00078265  0.75194226  1
  Si  Si2  1  0.95826274  0.33606124  0.58545366  1
  Si  Si3  1  0.37730428  0.04934965  0.58519515  1
  Si  Si4  1  0.95386344  0.62052291  0.08316230  1
  Si  Si5  1  0.38549198  0.32966031  0.08347477  1
  Si  Si6  1  0.62731302  0.66584582  0.91472190  1
  Si  Si7  1  0.61729229  0.94825175  0.41438890  1
  Si  Si8  1  0.04166686  0.66645713  0.41428820  1
  P  P0  1  0.29452211  0.00128317  0.25066919  1
  P  P1  1  0.70591194  0.70708246  0.24928012  1
  P  P2  1  0.28929598  0.29004902  0.75245678  1
  P  P3  1  0.00028750  0.70923650  0.75177780  1
  P  P4  1  0.66256020  0.61448040  0.58596031  1
  P  P5  1  0.66345063  0.05049325  0.08293351  1
  P  P6  1  0.04435706  0.37654736  0.91486477  1
  P  P7  1  0.33342393  0.95683585  0.91483098  1
  P  P8  1  0.33769514  0.38344486  0.41488670  1
  O  O0  1  0.21089570  0.03571265  0.30717726  1
  O  O1  1  0.83040267  0.79539879  0.30522390  1
  O  O2  1  0.96550075  0.16618305  0.30869808  1
  O  O3  1  0.20555812  0.16907687  0.80881957  1
  O  O4  1  0.96968969  0.79741211  0.80821217  1
  O  O5  1  0.83710332  0.03938815  0.80979601  1
  O  O6  1  0.79795967  0.96227034  0.69189663  1
  O  O7  1  0.16870141  0.20185772  0.69574580  1
  O  O8  1  0.03784736  0.82629906  0.69396900  1
  O  O9  1  0.78932599  0.82538550  0.19251669  1
  O  O10  1  0.03401654  0.20025152  0.19098611  1
  O  O11  1  0.16982344  0.96502674  0.19471447  1
  O  O12  1  0.87173666  0.37489309  0.64451259  1
  O  O13  1  0.50199105  0.13396980  0.64435938  1
  O  O14  1  0.63863388  0.50507641  0.64426146  1
  O  O15  1  0.87221438  0.49830842  0.14390554  1
  O  O16  1  0.63597964  0.13114165  0.14137555  1
  O  O17  1  0.50509522  0.36989867  0.14445673  1
  O  O18  1  0.46459212  0.29794019  0.02149464  1
  O  O19  1  0.83355772  0.53564870  0.02249506  1
  O  O20  1  0.69876426  0.16571520  0.02508639  1
  O  O21  1  0.46426677  0.16501038  0.52273596  1
  O  O22  1  0.69968204  0.53294506  0.52906746  1
  O  O23  1  0.83255939  0.29590872  0.52449156  1
  O  O24  1  0.53523294  0.70409659  0.97497653  1
  O  O25  1  0.16048260  0.46001021  0.97270767  1
  O  O26  1  0.29578501  0.83485861  0.97120454  1
  O  O27  1  0.53440000  0.83392670  0.47709839  1
  O  O28  1  0.29914505  0.46493742  0.47126448  1
  O  O29  1  0.16692735  0.70309331  0.47545314  1
  O  O30  1  0.12914599  0.62714628  0.35559749  1
  O  O31  1  0.49469897  0.86242277  0.35488696  1
  O  O32  1  0.36374318  0.49301207  0.35659243  1
  O  O33  1  0.12878621  0.49802232  0.85855841  1
  O  O34  1  0.36439698  0.87086213  0.85776225  1
  O  O35  1  0.49630391  0.62766561  0.85681361  1
  O  O36  1  0.03358153  0.84808834  0.40915950  1
  O  O37  1  0.81854611  0.98101892  0.41085934  1
  O  O38  1  0.17077485  0.19609441  0.40994713  1
  O  O39  1  0.03107046  0.19321013  0.90920020  1
  O  O40  1  0.16949472  0.97922710  0.90811234  1
  O  O41  1  0.82275919  0.84292738  0.90919758  1
  O  O42  1  0.96890152  0.15474655  0.59008708  1
  O  O43  1  0.17668700  0.01345614  0.59073136  1
  O  O44  1  0.83097402  0.80149164  0.58999081  1
  O  O45  1  0.96780161  0.81388731  0.09094320  1
  O  O46  1  0.82768997  0.02624161  0.08837531  1
  O  O47  1  0.18155163  0.16377306  0.08911567  1
  O  O48  1  0.68860511  0.17797812  0.74439754  1
  O  O49  1  0.47418336  0.31310843  0.74435144  1
  O  O50  1  0.83150049  0.52679777  0.74539745  1
  O  O51  1  0.68880480  0.52307226  0.24497125  1
  O  O52  1  0.82055365  0.30885143  0.24350607  1
  O  O53  1  0.47653718  0.16727225  0.24239671  1
  O  O54  1  0.64563728  0.48927077  0.92180559  1
  O  O55  1  0.85830501  0.35240767  0.92228572  1
  O  O56  1  0.50193662  0.13873795  0.92196335  1
  O  O57  1  0.64058276  0.14641307  0.42052604  1
  O  O58  1  0.49719267  0.35711519  0.42074435  1
  O  O59  1  0.85005064  0.49225208  0.42298858  1
  O  O60  1  0.35792342  0.50473462  0.07687338  1
  O  O61  1  0.14901950  0.64072024  0.07527359  1
  O  O62  1  0.50253704  0.86146816  0.07789242  1
  O  O63  1  0.35933197  0.85268285  0.57875730  1
  O  O64  1  0.50417615  0.64239366  0.57976057  1
  O  O65  1  0.15064192  0.50838161  0.57738155  1
  O  O66  1  0.31124826  0.83415493  0.25500952  1
  O  O67  1  0.52397288  0.69115173  0.25722104  1
  O  O68  1  0.17880187  0.48841356  0.25609265  1
  O  O69  1  0.30174597  0.47268924  0.75739010  1
  O  O70  1  0.16395746  0.68648091  0.75887259  1
  O  O71  1  0.51069029  0.82373543  0.75751353  1
loop_
_geom_bond_atom_site_label_1
_geom_bond_atom_site_label_2
_geom_bond_distance
_geom_bond_site_symmetry_2
Na0 O52 2.358611 1_555
Na0 O67 2.393661 1_545
Na0 O66 2.464812 1_545
Na0 O53 2.466950 1_555
Na0 O31 2.569093 1_545
Na0 O16 2.638024 1_555
Na0 O2 2.822869 1_555
Na0 O9 2.828376 1_545
Na1 O68 2.369707 1_555
Na1 O53 2.398964 1_555
Na1 O51 2.464672 1_555
Na1 O67 2.467573 1_555
Na1 O17 2.578361 1_555
Na1 O32 2.598193 1_555
Na1 O0 2.819248 1_555
Na1 O10 2.829095 1_555
Na2 O51 2.413064 1_555
Na2 O66 2.415368 1_655
Na2 O68 2.449030 1_655
Na2 O52 2.450146 1_555
Na2 O15 2.573324 1_555
Na2 O30 2.575362 1_655
Na2 O11 2.810423 1_655
Na2 O1 2.821605 1_555
Na3 O50 2.374889 1_555
Na3 O71 2.385627 1_555
Na3 O49 2.450571 1_555
Na3 O69 2.529730 1_555
Na3 O14 2.581865 1_555
Na3 O35 2.606441 1_555
Na3 O6 2.783815 1_555
Na3 O4 2.868660 1_555
Na4 O48 2.358732 1_555
Na4 O69 2.376137 1_655
Na4 O70 2.463260 1_655
Na4 O50 2.489329 1_555
Na4 O12 2.551403 1_555
Na4 O33 2.654920 1_655
Na4 O5 2.789368 1_555
Na4 O7 2.807491 1_655
Na5 O49 2.418583 1_555
Na5 O71 2.426888 1_545
Na5 O48 2.434729 1_555
Na5 O70 2.437211 1_545
Na5 O13 2.541532 1_555
Na5 O34 2.629301 1_545
Na5 O8 2.798439 1_545
Na5 O3 2.860293 1_555
Na6 O44 2.364208 1_455
Na6 O65 2.368537 1_555
Na6 O43 2.401355 1_565
Na6 O63 2.495995 1_555
Na6 O29 2.627692 1_555
Na6 O8 2.644511 1_555
Na6 O12 2.789424 1_455
Na6 O22 2.804154 1_455
Na7 O63 2.342282 1_555
Na7 O42 2.357222 1_565
Na7 O64 2.468246 1_555
Na7 O44 2.541598 1_555
Na7 O27 2.582934 1_555
Na7 O6 2.657165 1_555
Na7 O23 2.803449 1_565
Na7 O13 2.830992 1_565
Na8 O45 2.321356 1_555
Na8 O60 2.379662 1_555
Na8 O62 2.513470 1_555
Na8 O46 2.515980 1_565
Na8 O9 2.631188 1_555
Na8 O24 2.639483 1_554
Na8 O17 2.808202 1_555
Na8 O19 2.817470 1_555
Na9 O61 2.350824 1_555
Na9 O46 2.388382 1_455
Na9 O47 2.447046 1_555
Na9 O60 2.495253 1_555
Na9 O10 2.604333 1_555
Na9 O25 2.675774 1_554
Na9 O15 2.777445 1_455
Na9 O20 2.849931 1_455
Na10 O55 2.421464 1_555
Na10 O54 2.428700 1_555
Na10 O41 2.432455 1_555
Na10 O40 2.434213 1_655
Na10 O19 2.530370 1_556
Na10 O4 2.654022 1_555
Na10 O26 2.782771 1_655
Na10 O33 2.853609 1_655
Na11 O56 2.368328 1_555
Na11 O41 2.385074 1_545
Na11 O55 2.442504 1_555
Na11 O39 2.524874 1_655
Na11 O5 2.599197 1_555
Na11 O20 2.649808 1_556
Na11 O24 2.791540 1_545
Na11 O34 2.867158 1_545
Na12 O54 2.364143 1_555
Na12 O39 2.380874 1_555
Na12 O40 2.472162 1_545
Na12 O56 2.499300 1_555
Na12 O18 2.523463 1_556
Na12 O3 2.652515 1_555
Na12 O35 2.798944 1_555
Na12 O25 2.813452 1_555
Na13 O59 2.359808 1_555
Na13 O38 2.401155 1_655
Na13 O37 2.453411 1_545
Na13 O57 2.500124 1_555
Na13 O23 2.626878 1_555
Na13 O2 2.631694 1_555
Na13 O30 2.790057 1_655
Na13 O28 2.795533 1_655
Na14 O36 2.326407 1_545
Na14 O57 2.355092 1_555
Na14 O58 2.466778 1_555
Na14 O38 2.500016 1_555
Na14 O21 2.573194 1_555
Na14 O0 2.636975 1_555
Na14 O29 2.804683 1_545
Na14 O31 2.853068 1_545
Na15 O43 2.470691 1_565
Na15 O37 2.474583 1_455
Na15 O36 2.481543 1_555
Na15 O42 2.485461 1_465
Na15 O44 2.543409 1_455
Na15 O38 2.544903 1_565
Na16 O45 2.451907 1_455
Na16 O47 2.455692 1_565
Na16 O41 2.487528 1_454
Na16 O40 2.521043 1_554
Na16 O39 2.562240 1_564
Na16 O46 2.572640 1_465
Na17 O54 2.425046 1_555
Na17 O48 2.434074 1_555
Na17 O50 2.486374 1_555
Na17 O56 2.499379 1_555
Na17 O55 2.516711 1_555
Na17 O49 2.521950 1_555
Na18 O59 2.430232 1_555
Na18 O57 2.452191 1_555
Na18 O58 2.468318 1_555
Na18 O51 2.471703 1_555
Na18 O52 2.475930 1_555
Na18 O53 2.578753 1_555
Na19 O68 2.445460 1_555
Na19 O66 2.465231 1_555
Na19 O61 2.472209 1_555
Na19 O62 2.508067 1_555
Na19 O60 2.516517 1_555
Na19 O67 2.561586 1_555
Na20 O65 2.432518 1_555
Na20 O64 2.451730 1_555
Na20 O63 2.453078 1_555
Na20 O71 2.505237 1_555
Na20 O69 2.521272 1_555
Na20 O70 2.600381 1_555
Al0 O5 1.822551 1_565
Al0 O41 1.907392 1_555
Al0 O4 1.908191 1_555
Al0 O3 1.951089 1_665
Al0 O39 2.024216 1_665
Al0 O40 2.057269 1_655
Al1 O13 1.816505 1_555
Al1 O12 1.829976 1_555
Al1 O14 1.914894 1_555
Al1 O48 1.919045 1_555
Al1 O50 2.098363 1_555
Al1 O49 2.116715 1_555
Al2 O15 1.826850 1_555
Al2 O17 1.849292 1_555
Al2 O16 1.894406 1_555
Al2 O52 1.942513 1_555
Al2 O53 2.067974 1_555
Al2 O51 2.074175 1_555
Al3 O18 1.805761 1_556
Al3 O19 1.824866 1_556
Al3 O54 1.916382 1_555
Al3 O20 1.944459 1_556
Al3 O56 2.108204 1_555
Al3 O55 2.126881 1_555
Al4 O30 1.827335 1_555
Al4 O31 1.841484 1_555
Al4 O32 1.879165 1_555
Al4 O68 1.939433 1_555
Al4 O67 2.067663 1_555
Al4 O66 2.070181 1_555
Al5 O35 1.823320 1_555
Al5 O34 1.905205 1_555
Al5 O71 1.906904 1_555
Al5 O33 1.952591 1_555
Al5 O69 2.034424 1_555
Al5 O70 2.046558 1_555
O0 P0 1.540327 1_555
O0 Ti0 2.094756 1_445
O1 P1 1.562124 1_555
O1 Ti0 1.926247 1_555
O2 Si0 1.648942 1_555
O2 Ti0 1.893076 1_545
O3 P2 1.545186 1_555
O4 P3 1.547391 1_655
O5 Si1 1.626848 1_555
O6 Si1 1.661101 1_565
O6 Ti1 1.905143 1_665
O7 P2 1.559902 1_555
O7 Ti1 1.932957 1_555
O8 P3 1.549708 1_555
O8 Ti1 2.057238 1_565
O9 P1 1.541455 1_555
O9 Ti2 2.091019 1_665
O10 Si0 1.648122 1_455
O10 Ti2 1.907311 1_555
O11 P0 1.562730 1_565
O11 Ti2 1.918727 1_565
O12 Si2 1.616473 1_555
O13 Si3 1.613923 1_555
O14 P4 1.538749 1_555
O15 Si4 1.624286 1_555
O16 P5 1.534406 1_555
O17 Si5 1.620380 1_555
O18 Si5 1.606431 1_555
O19 Si4 1.623779 1_555
O20 P5 1.543857 1_555
O21 Si3 1.637773 1_555
O21 Ti3 1.888509 1_555
O22 P4 1.546520 1_555
O22 Ti3 1.968426 1_555
O23 Si2 1.649766 1_555
O23 Ti3 1.881447 1_555
O24 Si6 1.663344 1_555
O24 Ti4 1.909736 1_556
O25 P6 1.556576 1_555
O25 Ti4 2.014795 1_556
O26 P7 1.549067 1_555
O26 Ti4 1.991731 1_556
O27 Si7 1.632415 1_555
O27 Ti5 1.885387 1_555
O28 P8 1.542962 1_555
O28 Ti5 1.983407 1_555
O29 Si8 1.655055 1_555
O29 Ti5 1.871926 1_555
O30 Si8 1.616872 1_555
O31 Si7 1.613020 1_555
O32 P8 1.536272 1_555
O33 P6 1.547009 1_555
O34 P7 1.548573 1_555
O35 Si6 1.626838 1_555
O36 Si8 1.633113 1_555
O36 Ti0 1.933345 1_455
O37 Si7 1.649107 1_555
O37 Ti0 1.877654 1_555
O38 P8 1.568329 1_555
O38 Ti0 2.084840 1_445
O39 P6 1.557984 1_555
O40 P7 1.557446 1_555
O41 Si6 1.648349 1_555
O42 Si2 1.641721 1_555
O42 Ti1 1.892787 1_655
O43 Si3 1.636496 1_555
O43 Ti1 1.944953 1_555
O44 P4 1.570835 1_555
O44 Ti1 2.078143 1_665
O45 Si4 1.647180 1_555
O45 Ti2 1.929134 1_665
O46 P5 1.567490 1_555
O46 Ti2 2.125622 1_655
O47 Si5 1.656953 1_555
O47 Ti2 1.873208 1_555
O48 Si1 1.642732 1_555
O49 P2 1.546992 1_555
O50 P3 1.553521 1_655
O51 P1 1.547170 1_555
O52 Si0 1.634060 1_555
O53 P0 1.545388 1_555
O54 Si6 1.641937 1_555
O55 P6 1.551759 1_655
O56 P7 1.551444 1_545
O57 Si7 1.650868 1_545
O57 Ti3 1.995269 1_555
O58 P8 1.537856 1_555
O58 Ti3 2.087419 1_555
O59 Si8 1.624885 1_655
O59 Ti3 1.966671 1_555
O60 Si5 1.675686 1_555
O60 Ti4 1.952688 1_555
O61 Si4 1.646022 1_455
O61 Ti4 1.935676 1_555
O62 P5 1.556283 1_565
O62 Ti4 2.009518 1_555
O63 Si3 1.657765 1_565
O63 Ti5 1.973263 1_555
O64 P4 1.537262 1_555
O64 Ti5 2.113880 1_555
O65 Si2 1.620355 1_455
O65 Ti5 1.963838 1_555
O66 P0 1.547151 1_565
O67 P1 1.546626 1_555
O68 Si0 1.634060 1_455
O69 P2 1.553932 1_555
O70 P3 1.557852 1_555
O71 Si1 1.646691 1_565
