# generated using pymatgen
data_Na3La2Sc2P3(SO8)3
_symmetry_space_group_name_H-M   'P 1'
_cell_length_a   9.13048265
_cell_length_b   9.12077140
_cell_length_c   23.91230510
_cell_angle_alpha   89.39377767
_cell_angle_beta   90.45562003
_cell_angle_gamma   119.88942999
_symmetry_Int_Tables_number   1
_chemical_formula_structural   Na3La2Sc2P3(SO8)3
_chemical_formula_sum   'Na9 La6 Sc6 P9 S9 O72'
_cell_volume   1726.36968299
_cell_formula_units_Z   3
loop_
 _symmetry_equiv_pos_site_id
 _symmetry_equiv_pos_as_xyz
  1  'x, y, z'
loop_
 _atom_site_type_symbol
 _atom_site_label
 _atom_site_symmetry_multiplicity
 _atom_site_fract_x
 _atom_site_fract_y
 _atom_site_fract_z
 _atom_site_occupancy
  Na  Na0  1  0.36085567  0.35938544  0.25278711  1
  Na  Na1  1  0.67846536  0.01123127  0.92333215  1
  Na  Na2  1  0.98631232  0.31188805  0.41137942  1
  Na  Na3  1  0.01364469  0.99111950  0.49299535  1
  Na  Na4  1  0.00800202  0.98217947  0.00732690  1
  Na  Na5  1  0.65157521  0.33902647  0.83886422  1
  Na  Na6  1  0.66472444  0.33499441  0.33473115  1
  Na  Na7  1  0.33812157  0.71338460  0.17611639  1
  Na  Na8  1  0.33234422  0.66817224  0.66893495  1
  La  La0  1  0.00358620  0.99341458  0.85321363  1
  La  La1  1  0.98777875  0.01335151  0.64262934  1
  La  La2  1  0.67428277  0.31850562  0.68307699  1
  La  La3  1  0.33765643  0.67308868  0.02904429  1
  La  La4  1  0.32256463  0.66247191  0.50716139  1
  La  La5  1  0.35028005  0.67844111  0.82301530  1
  Sc  Sc0  1  0.00866478  -0.00032154  0.34358688  1
  Sc  Sc1  1  0.00166104  0.00509923  0.15299703  1
  Sc  Sc2  1  0.67311751  0.31599714  0.18989572  1
  Sc  Sc3  1  0.66575607  0.33136424  0.99191256  1
  Sc  Sc4  1  0.66691804  0.34102441  0.47428264  1
  Sc  Sc5  1  0.31837505  0.66319006  0.31442309  1
  P  P0  1  0.29076650  0.99718163  0.24818389  1
  P  P1  1  0.00490489  0.29400214  0.25174459  1
  P  P2  1  0.68537743  0.99336958  0.75616512  1
  P  P3  1  0.95902020  0.32782351  0.57008270  1
  P  P4  1  0.68938724  0.05287193  0.08897160  1
  P  P5  1  0.63885396  0.65543036  0.92415796  1
  P  P6  1  0.34946613  0.98993741  0.92439544  1
  P  P7  1  0.33049324  0.35997104  0.40648439  1
  P  P8  1  0.02289312  0.66513460  0.40951891  1
  S  S0  1  0.70181898  0.70643524  0.24873223  1
  S  S1  1  0.31024364  0.31716493  0.74866274  1
  S  S2  1  0.00803550  0.69300115  0.74779335  1
  S  S3  1  0.36769513  0.04120665  0.57398408  1
  S  S4  1  0.67142902  0.62845175  0.57511503  1
  S  S5  1  0.94022837  0.62660816  0.09241679  1
  S  S6  1  0.37255554  0.31163896  0.09285112  1
  S  S7  1  0.01313636  0.36228635  0.92242162  1
  S  S8  1  0.64253344  0.97459300  0.40989261  1
  O  O0  1  0.20797841  0.03402041  0.29817662  1
  O  O1  1  0.80426678  0.79030888  0.29816605  1
  O  O2  1  0.97667579  0.19034780  0.30580229  1
  O  O3  1  0.21597747  0.22937091  0.80027617  1
  O  O4  1  0.02841631  0.78979036  0.80000432  1
  O  O5  1  0.75632228  -0.02742036  0.81325669  1
  O  O6  1  0.80366049  0.01202367  0.70669347  1
  O  O7  1  0.22531149  0.21529581  0.69821895  1
  O  O8  1  -0.00070420  0.78576964  0.69789784  1
  O  O9  1  0.78398624  0.80586880  0.19724709  1
  O  O10  1  0.03662954  0.20298102  0.20228807  1
  O  O11  1  0.17967457  0.96699998  0.19560053  1
  O  O12  1  0.86627837  0.31383502  0.62579333  1
  O  O13  1  0.43768838  0.12351882  0.62887322  1
  O  O14  1  0.67497034  0.54855443  0.62919031  1
  O  O15  1  0.84552754  0.52983862  0.14179768  1
  O  O16  1  0.67753759  0.15451608  0.13838389  1
  O  O17  1  0.46870636  0.32420046  0.14398352  1
  O  O18  1  0.46198192  0.30522677  0.04178873  1
  O  O19  1  0.85095849  0.54148169  0.03982002  1
  O  O20  1  0.69782282  0.14500438  0.03272805  1
  O  O21  1  0.47722560  0.14319464  0.52699782  1
  O  O22  1  0.65546443  0.51931694  0.52699954  1
  O  O23  1  0.86115850  0.34190576  0.51866888  1
  O  O24  1  0.53132748  0.67989198  0.96878647  1
  O  O25  1  0.12153945  0.45211921  0.97029006  1
  O  O26  1  0.32501383  0.86932103  0.97338330  1
  O  O27  1  0.58191857  0.88646037  0.46426159  1
  O  O28  1  0.28188863  0.43174240  0.45719196  1
  O  O29  1  0.11965435  0.70829659  0.46544440  1
  O  O30  1  0.12839693  0.63190672  0.36477184  1
  O  O31  1  0.52502284  0.87817748  0.36387676  1
  O  O32  1  0.35830291  0.47663774  0.35469749  1
  O  O33  1  0.08953378  0.44689725  0.86854599  1
  O  O34  1  0.37202129  0.91267904  0.86948847  1
  O  O35  1  0.55006192  0.62933149  0.86650211  1
  O  O36  1  -0.01017254  0.80868974  0.39392593  1
  O  O37  1  0.81524067  0.00173194  0.40072278  1
  O  O38  1  0.17297338  0.18177530  0.39846824  1
  O  O39  1  0.98119780  0.18390086  0.92252515  1
  O  O40  1  0.20013142  0.02377690  0.92221789  1
  O  O41  1  0.81287773  0.82348069  0.92391008  1
  O  O42  1  0.97232555  0.16488597  0.56435870  1
  O  O43  1  0.19668298  0.02196516  0.56729532  1
  O  O44  1  0.83160545  0.79338269  0.56905583  1
  O  O45  1  0.95926533  0.79877446  0.09257999  1
  O  O46  1  0.84995004  0.03640467  0.09469321  1
  O  O47  1  0.20350997  0.15459074  0.09362647  1
  O  O48  1  0.66701325  0.15328206  0.75941425  1
  O  O49  1  0.48419650  0.34316789  0.75348411  1
  O  O50  1  0.84928756  0.52738521  0.75361800  1
  O  O51  1  0.67540868  0.52980930  0.24525818  1
  O  O52  1  0.85091443  0.31976998  0.24283436  1
  O  O53  1  0.46877194  0.16026575  0.24209546  1
  O  O54  1  0.66288721  0.50391211  0.93681321  1
  O  O55  1  0.84544521  0.35123381  0.92725933  1
  O  O56  1  0.51863386  0.15815728  0.93192336  1
  O  O57  1  0.65915337  0.14775575  0.41290784  1
  O  O58  1  0.49102706  0.34679801  0.41740910  1
  O  O59  1  0.85151721  0.49392262  0.41459669  1
  O  O60  1  0.34846135  0.46142315  0.09031461  1
  O  O61  1  0.11146923  0.64220535  0.09333165  1
  O  O62  1  0.52892248  0.87454210  0.09126769  1
  O  O63  1  0.35616242  0.87318734  0.57606825  1
  O  O64  1  0.52562520  0.65770158  0.57584235  1
  O  O65  1  0.13700821  0.48501944  0.57482888  1
  O  O66  1  0.31284114  0.84073217  0.25884009  1
  O  O67  1  0.52838350  0.68693303  0.25346464  1
  O  O68  1  0.16988634  0.47151688  0.25720391  1
  O  O69  1  0.31644729  0.48200478  0.74359231  1
  O  O70  1  0.15435997  0.66579457  0.74297348  1
  O  O71  1  0.51083182  0.83522611  0.74543846  1
loop_
_geom_bond_atom_site_label_1
_geom_bond_atom_site_label_2
_geom_bond_distance
_geom_bond_site_symmetry_2
Na0 O68 2.424856 1_555
Na0 O53 2.476261 1_555
Na0 O51 2.500007 1_555
Na0 O67 2.590612 1_555
Na0 O32 2.676502 1_555
Na0 O0 2.785758 1_555
Na0 O10 2.833282 1_555
Na0 O17 2.866204 1_555
Na1 O39 2.404679 1_555
Na1 O56 2.434618 1_555
Na1 O41 2.555882 1_545
Na1 O55 2.691048 1_555
Na1 O34 2.784776 1_545
Na1 O5 2.803040 1_555
Na1 O24 2.833099 1_545
Na1 O20 2.864987 1_556
Na2 O37 2.472297 1_555
Na2 O59 2.513565 1_555
Na2 O38 2.537756 1_655
Na2 O57 2.590182 1_555
Na2 O28 2.591597 1_655
Na2 O2 2.751118 1_555
Na2 O30 2.761308 1_655
Na2 O23 2.887220 1_555
Na3 O43 2.350214 1_565
Na3 O42 2.495914 1_465
Na3 O44 2.512823 1_455
Na3 O38 2.774396 1_565
Na3 O36 2.853507 1_555
Na3 O37 2.875079 1_465
Na4 O45 2.520421 1_455
Na4 O41 2.585030 1_454
Na4 O40 2.596197 1_564
Na4 O47 2.670256 1_565
Na4 O46 2.733628 1_465
Na4 O39 2.814052 1_464
Na5 O49 2.551769 1_555
Na5 O48 2.609537 1_555
Na5 O56 2.667604 1_555
Na5 O50 2.694238 1_555
Na5 O55 2.713420 1_555
Na5 O54 2.770208 1_555
Na6 O59 2.489979 1_555
Na6 O57 2.502202 1_555
Na6 O58 2.580687 1_555
Na6 O51 2.737582 1_555
Na6 O53 2.795982 1_555
Na6 O52 2.835363 1_555
Na7 O66 2.374532 1_555
Na7 O62 2.598656 1_555
Na7 O67 2.618035 1_555
Na7 O61 2.691806 1_555
Na7 O68 2.750509 1_555
Na8 O70 2.405330 1_555
Na8 O69 2.405333 1_555
Na8 O71 2.420909 1_555
Na8 O63 2.826596 1_555
Na8 O65 2.842819 1_555
Na8 O64 2.883356 1_555
La0 O40 2.342446 1_565
La0 O5 2.363875 1_465
La0 O41 2.365095 1_455
La0 O4 2.365112 1_555
La0 O3 2.411740 1_565
La0 O39 2.495503 1_465
La1 O6 2.278873 1_555
La1 O42 2.359780 1_555
La1 O7 2.426484 1_655
La1 O8 2.494711 1_645
La1 O44 2.517376 1_545
La1 O43 2.606092 1_655
La2 O12 2.250562 1_555
La2 O48 2.334837 1_555
La2 O13 2.384247 1_555
La2 O14 2.448007 1_555
La2 O50 2.453406 1_555
La2 O49 2.518116 1_555
La3 O24 2.266329 1_554
La3 O26 2.267432 1_554
La3 O62 2.336274 1_555
La3 O25 2.445752 1_554
La3 O60 2.451733 1_555
La3 O61 2.483768 1_555
La4 O28 2.293798 1_555
La4 O29 2.309914 1_555
La4 O65 2.315899 1_555
La4 O63 2.444201 1_555
La4 O27 2.450761 1_555
La4 O64 2.483352 1_555
La5 O35 2.320261 1_555
La5 O34 2.337250 1_555
La5 O71 2.352201 1_555
La5 O33 2.508950 1_555
La5 O69 2.534446 1_555
La5 O70 2.573165 1_555
O0 P0 1.545753 1_545
O0 Sc0 2.011246 1_555
O1 S0 1.464875 1_555
O1 Sc0 2.183785 1_665
O2 P1 1.538745 1_655
O2 Sc0 2.096363 1_655
O3 S1 1.488060 1_555
O4 S2 1.492838 1_555
O5 P2 1.556333 1_545
O6 P2 1.558101 1_545
O7 S1 1.486725 1_555
O8 S2 1.479943 1_555
O9 S0 1.487936 1_555
O9 Sc1 2.182885 1_665
O10 P1 1.561277 1_555
O10 Sc1 2.052638 1_555
O11 P0 1.547388 1_555
O11 Sc1 2.080732 1_565
O12 P3 1.553916 1_555
O13 S3 1.491340 1_555
O14 S4 1.485591 1_555
O15 S5 1.467834 1_555
O15 Sc2 2.127495 1_555
O16 P4 1.546751 1_555
O16 Sc2 1.945901 1_555
O17 S6 1.471213 1_555
O17 Sc2 2.190686 1_555
O18 S6 1.491962 1_555
O18 Sc3 2.127942 1_554
O19 S5 1.490854 1_555
O19 Sc3 2.151819 1_554
O20 P4 1.560156 1_555
O20 Sc3 2.093745 1_554
O21 S3 1.482019 1_555
O21 Sc4 2.171720 1_555
O22 S4 1.487544 1_555
O22 Sc4 2.111725 1_555
O23 P3 1.555613 1_555
O23 Sc4 2.056199 1_555
O24 P5 1.546774 1_555
O25 S7 1.467911 1_555
O26 P6 1.537662 1_555
O27 S8 1.479399 1_555
O28 P7 1.552606 1_555
O29 P8 1.539355 1_555
O30 P8 1.574461 1_555
O30 Sc5 2.018019 1_555
O31 S8 1.482090 1_555
O31 Sc5 2.264860 1_555
O32 P7 1.561438 1_555
O32 Sc5 2.129190 1_555
O33 S7 1.482753 1_555
O34 P6 1.559264 1_555
O35 P5 1.552908 1_555
O36 P8 1.525248 1_555
O36 Sc0 2.042862 1_565
O37 S8 1.487042 1_545
O37 Sc0 2.248961 1_655
O38 P7 1.555407 1_555
O38 Sc0 2.064665 1_555
O39 S7 1.503087 1_655
O40 P6 1.541121 1_545
O41 P5 1.564196 1_555
O42 P3 1.557735 1_555
O43 S3 1.489274 1_555
O44 S4 1.492941 1_555
O45 S5 1.491350 1_555
O45 Sc1 2.258535 1_665
O46 P4 1.551227 1_555
O46 Sc1 2.073422 1_655
O47 S6 1.493597 1_555
O47 Sc1 2.183425 1_555
O48 P2 1.551706 1_545
O49 S1 1.488084 1_555
O50 S2 1.489519 1_655
O51 S0 1.508510 1_555
O51 Sc2 2.359988 1_555
O52 P1 1.549517 1_655
O52 Sc2 2.037535 1_555
O53 P0 1.570025 1_545
O53 Sc2 2.101171 1_555
O54 P5 1.530321 1_555
O54 Sc3 2.051838 1_555
O55 S7 1.488810 1_655
O55 Sc3 2.202904 1_555
O56 P6 1.552966 1_545
O56 Sc3 2.064020 1_555
O57 S8 1.511962 1_545
O57 Sc4 2.279204 1_555
O58 P7 1.549152 1_555
O58 Sc4 2.116480 1_555
O59 P8 1.570165 1_655
O59 Sc4 2.115682 1_555
O60 S6 1.488625 1_555
O61 S5 1.497708 1_455
O62 P4 1.555457 1_565
O63 S3 1.483126 1_565
O64 S4 1.482619 1_555
O65 P3 1.545255 1_455
O66 P0 1.555584 1_555
O66 Sc5 2.103864 1_555
O67 S0 1.507901 1_555
O67 Sc5 2.339296 1_555
O68 P1 1.574215 1_555
O68 Sc5 2.103641 1_555
O69 S1 1.479763 1_555
O70 S2 1.480966 1_555
O71 P2 1.548036 1_555
