# generated using pymatgen
data_Na6Ca4Nb20Si21(S5O48)3
_symmetry_space_group_name_H-M   'P 1'
_cell_length_a   17.86781522
_cell_length_b   8.96119506
_cell_length_c   23.19686503
_cell_angle_alpha   90.03448651
_cell_angle_beta   89.79477826
_cell_angle_gamma   120.04531336
_symmetry_Int_Tables_number   1
_chemical_formula_structural   Na6Ca4Nb20Si21(S5O48)3
_chemical_formula_sum   'Na6 Ca4 Nb20 Si21 S15 O144'
_cell_volume   3215.10847570
_cell_formula_units_Z   1
loop_
 _symmetry_equiv_pos_site_id
 _symmetry_equiv_pos_as_xyz
  1  'x, y, z'
loop_
 _atom_site_type_symbol
 _atom_site_label
 _atom_site_symmetry_multiplicity
 _atom_site_fract_x
 _atom_site_fract_y
 _atom_site_fract_z
 _atom_site_occupancy
  Na  Na0  1  0.99848949  0.99702501  0.49920606  1
  Na  Na1  1  0.50000061  0.00200251  0.00117854  1
  Na  Na2  1  0.33563079  0.31816437  0.83698459  1
  Na  Na3  1  0.83244820  0.33293819  0.83443327  1
  Na  Na4  1  0.33503204  0.33366279  0.33282494  1
  Na  Na5  1  0.83234327  0.35006988  0.33426395  1
  Ca  Ca0  1  0.99806107  0.98215511  0.35506904  1
  Ca  Ca1  1  0.49776882  0.01548446  0.85487286  1
  Ca  Ca2  1  0.99415590  0.00538411  0.64650511  1
  Ca  Ca3  1  0.49567215  0.97944161  0.14811140  1
  Nb  Nb0  1  0.50254378  0.98981886  0.36000503  1
  Nb  Nb1  1  0.99441187  0.00170132  0.86139894  1
  Nb  Nb2  1  0.49200670  0.99075544  0.63861270  1
  Nb  Nb3  1  0.99194129  0.99297195  0.13862976  1
  Nb  Nb4  1  0.33507431  0.33490544  0.68491215  1
  Nb  Nb5  1  0.83805368  0.31901485  0.68427113  1
  Nb  Nb6  1  0.33952744  0.36068810  0.18575443  1
  Nb  Nb7  1  0.83024138  0.32393033  0.18956780  1
  Nb  Nb8  1  0.33075462  0.33178774  0.97827991  1
  Nb  Nb9  1  0.84344360  0.34592325  0.97820965  1
  Nb  Nb10  1  0.34254075  0.34044272  0.47604870  1
  Nb  Nb11  1  0.83001734  0.32863662  0.47682608  1
  Nb  Nb12  1  0.15827509  0.65935233  0.02515223  1
  Nb  Nb13  1  0.66737430  0.66219559  0.02551438  1
  Nb  Nb14  1  0.16834820  0.67440983  0.52392724  1
  Nb  Nb15  1  0.65887923  0.65865324  0.52381466  1
  Nb  Nb16  1  0.16651988  0.67957292  0.31376237  1
  Nb  Nb17  1  0.66809336  0.66048694  0.30800127  1
  Nb  Nb18  1  0.16917879  0.67945044  0.81172929  1
  Nb  Nb19  1  0.66626338  0.65578490  0.81440114  1
  Si  Si0  1  0.64422916  0.99836355  0.25207039  1
  Si  Si1  1  0.35361253  0.71256868  0.25289821  1
  Si  Si2  1  0.85649097  0.70920215  0.24895949  1
  Si  Si3  1  0.35464769  0.00136228  0.74909077  1
  Si  Si4  1  0.85279026  0.99832953  0.75246888  1
  Si  Si5  1  0.47592148  0.33144105  0.58254310  1
  Si  Si6  1  0.97985139  0.33332322  0.57768069  1
  Si  Si7  1  0.69012992  0.04466430  0.58265300  1
  Si  Si8  1  0.32904374  0.60982895  0.58199262  1
  Si  Si9  1  0.47917009  0.62826396  0.07851089  1
  Si  Si10  1  0.97392838  0.61666844  0.08542977  1
  Si  Si11  1  0.82956829  0.04879277  0.08246943  1
  Si  Si12  1  0.19058234  0.33581153  0.08330247  1
  Si  Si13  1  0.80628063  0.65655768  0.91812429  1
  Si  Si14  1  0.02710878  0.38699668  0.91617411  1
  Si  Si15  1  0.52182443  0.37970828  0.92017771  1
  Si  Si16  1  0.16685314  0.95338431  0.91699701  1
  Si  Si17  1  0.31000285  0.95641960  0.41721327  1
  Si  Si18  1  0.66636120  0.38422097  0.41601498  1
  Si  Si19  1  0.02156320  0.66414968  0.41959098  1
  Si  Si20  1  0.52750069  0.66647458  0.41573498  1
  S  S0  1  0.15002291  0.00405069  0.24725688  1
  S  S1  1  0.00162408  0.29578491  0.24926649  1
  S  S2  1  0.49720061  0.29066447  0.25089317  1
  S  S3  1  0.14869546  0.29567339  0.75353427  1
  S  S4  1  0.64976219  0.29690363  0.74742649  1
  S  S5  1  0.99899214  0.70595478  0.75187204  1
  S  S6  1  0.49990358  0.70485552  0.74901721  1
  S  S7  1  0.19336177  0.05106448  0.58047129  1
  S  S8  1  0.83097488  0.61234136  0.58065705  1
  S  S9  1  0.33058588  0.04774489  0.08027534  1
  S  S10  1  0.69309133  0.33538811  0.08035622  1
  S  S11  1  0.30600266  0.66092990  0.91888372  1
  S  S12  1  0.66927005  0.95100617  0.91968248  1
  S  S13  1  0.80682589  0.95135536  0.41942998  1
  S  S14  1  0.16943749  0.38770573  0.41989270  1
  O  O0  1  0.12062121  0.04535922  0.30027595  1
  O  O1  1  0.59642017  0.03145425  0.30813071  1
  O  O2  1  0.41803865  0.80668449  0.30781843  1
  O  O3  1  0.91000980  0.76177110  0.30634016  1
  O  O4  1  0.48319157  0.18240884  0.30184509  1
  O  O5  1  0.98419542  0.19363116  0.30147104  1
  O  O6  1  0.10620639  0.18011252  0.80372472  1
  O  O7  1  0.62035410  0.19594584  0.80031391  1
  O  O8  1  0.48120620  0.76945967  0.80119162  1
  O  O9  1  0.98694862  0.79227158  0.80251853  1
  O  O10  1  0.40764964  0.05710668  0.80668151  1
  O  O11  1  0.91834334  0.02820204  0.80766028  1
  O  O12  1  0.40578322  0.97540554  0.69335587  1
  O  O13  1  0.88229726  0.95424864  0.69467067  1
  O  O14  1  0.10092131  0.23304544  0.70046461  1
  O  O15  1  0.59363204  0.21054259  0.69767964  1
  O  O16  1  0.01720182  0.80258527  0.69905656  1
  O  O17  1  0.51169404  0.81241622  0.69769466  1
  O  O18  1  0.37768950  0.80785838  0.19361169  1
  O  O19  1  0.90735803  0.84104323  0.19339700  1
  O  O20  1  0.01344494  0.21194454  0.19765279  1
  O  O21  1  0.51287458  0.22748962  0.19782538  1
  O  O22  1  0.09371375  0.97810850  0.19746756  1
  O  O23  1  0.59538418  0.95657101  0.19325872  1
  O  O24  1  0.42700650  0.35830182  0.63815513  1
  O  O25  1  0.93184720  0.35662581  0.63878929  1
  O  O26  1  0.24436699  0.13409523  0.63405553  1
  O  O27  1  0.75375044  0.14143304  0.63966776  1
  O  O28  1  0.31477360  0.49229551  0.63970006  1
  O  O29  1  0.81947792  0.50794550  0.63360906  1
  O  O30  1  0.43236572  0.50959424  0.13884003  1
  O  O31  1  0.92650482  0.49173109  0.13869968  1
  O  O32  1  0.31818598  0.12661382  0.13263275  1
  O  O33  1  0.81504176  0.13651312  0.13922854  1
  O  O34  1  0.25409156  0.36502843  0.13935623  1
  O  O35  1  0.74260416  0.35403485  0.13352502  1
  O  O36  1  0.23339042  0.30033612  0.02637526  1
  O  O37  1  0.73934692  0.32057353  0.02872960  1
  O  O38  1  0.41305919  0.50171243  0.02724579  1
  O  O39  1  0.91807869  0.53218521  0.02551581  1
  O  O40  1  0.33633476  0.15011662  0.02709184  1
  O  O41  1  0.84515418  0.17381381  0.02627387  1
  O  O42  1  0.23773731  0.15728358  0.52945649  1
  O  O43  1  0.73319266  0.16753222  0.52689810  1
  O  O44  1  0.34451158  0.51449245  0.52698874  1
  O  O45  1  0.83818679  0.52361037  0.52826645  1
  O  O46  1  0.41712964  0.30217614  0.52534111  1
  O  O47  1  0.91270323  0.32151209  0.52719743  1
  O  O48  1  0.26179085  0.67750972  0.97002602  1
  O  O49  1  0.76475299  0.69135834  0.97413189  1
  O  O50  1  0.08188521  0.47477898  0.97451142  1
  O  O51  1  0.58639656  0.49942423  0.97220278  1
  O  O52  1  0.15475076  0.83094252  0.97225715  1
  O  O53  1  0.66298588  0.85133281  0.97171933  1
  O  O54  1  0.26470580  0.83837740  0.47382623  1
  O  O55  1  0.76236238  0.84787566  0.47116885  1
  O  O56  1  0.16330937  0.47474060  0.47243567  1
  O  O57  1  0.65726185  0.48363762  0.47331667  1
  O  O58  1  0.08587878  0.67291643  0.47232616  1
  O  O59  1  0.58168249  0.68735539  0.47519665  1
  O  O60  1  0.06698918  0.63617811  0.36056745  1
  O  O61  1  0.57169968  0.63326859  0.36117630  1
  O  O62  1  0.24501598  0.86246119  0.36091217  1
  O  O63  1  0.75820658  0.87348983  0.36603714  1
  O  O64  1  0.18183543  0.49177267  0.36719985  1
  O  O65  1  0.68482334  0.50749696  0.35978376  1
  O  O66  1  0.07364766  0.50504474  0.86002586  1
  O  O67  1  0.56817421  0.49853450  0.86060625  1
  O  O68  1  0.18340380  0.86129463  0.85931612  1
  O  O69  1  0.68118221  0.86904134  0.86659405  1
  O  O70  1  0.25608615  0.64237997  0.86496959  1
  O  O71  1  0.74584872  0.62857879  0.86031055  1
  O  O72  1  0.01670239  0.83551433  0.42387623  1
  O  O73  1  0.51499505  0.83379692  0.40993325  1
  O  O74  1  0.40387351  0.98337817  0.40260532  1
  O  O75  1  0.89467360  0.98103948  0.41800976  1
  O  O76  1  0.09277013  0.21710599  0.41618757  1
  O  O77  1  0.58083851  0.19807714  0.40445226  1
  O  O78  1  0.01570368  0.19469300  0.90690628  1
  O  O79  1  0.51602051  0.19751525  0.92327620  1
  O  O80  1  0.08241546  0.97024273  0.90027940  1
  O  O81  1  0.59224488  0.96675377  0.91491992  1
  O  O82  1  0.39332837  0.80746797  0.91570680  1
  O  O83  1  0.90248646  0.82437226  0.90420979  1
  O  O84  1  0.48723689  0.16439980  0.59428080  1
  O  O85  1  0.98897257  0.16714590  0.57665131  1
  O  O86  1  0.10730655  0.02709131  0.58507362  1
  O  O87  1  0.59629920  0.02085424  0.60146584  1
  O  O88  1  0.41701983  0.79802895  0.59409616  1
  O  O89  1  0.90966034  0.77988500  0.58292439  1
  O  O90  1  0.48535644  0.80887347  0.07352685  1
  O  O91  1  0.98770538  0.80978579  0.09425230  1
  O  O92  1  0.40877671  0.03650494  0.08123662  1
  O  O93  1  0.91725813  0.03512320  0.09297631  1
  O  O94  1  0.09703397  0.17237710  0.10068627  1
  O  O95  1  0.60665123  0.18849649  0.08179215  1
  O  O96  1  0.33185858  0.15532140  0.73148672  1
  O  O97  1  0.84426062  0.17884160  0.74510280  1
  O  O98  1  0.23794005  0.31692062  0.74824199  1
  O  O99  1  0.74040282  0.33491708  0.73617983  1
  O  O100  1  0.42161533  0.52308225  0.73913519  1
  O  O101  1  0.91999218  0.53017429  0.74764751  1
  O  O102  1  0.34393929  0.51188618  0.24461971  1
  O  O103  1  0.83773972  0.51539743  0.23061780  1
  O  O104  1  0.41740264  0.31004834  0.24600053  1
  O  O105  1  0.92425895  0.32107594  0.24036759  1
  O  O106  1  0.24040834  0.14697999  0.23593905  1
  O  O107  1  0.74410889  0.17281634  0.24560742  1
  O  O108  1  0.30880221  0.49575702  0.92220526  1
  O  O109  1  0.81507840  0.48344477  0.92354206  1
  O  O110  1  0.42628278  0.36955193  0.92463913  1
  O  O111  1  0.92962928  0.36235290  0.92310622  1
  O  O112  1  0.25144014  0.14400048  0.92361715  1
  O  O113  1  0.74913848  0.12547340  0.92362811  1
  O  O114  1  0.31462215  0.14466305  0.42513457  1
  O  O115  1  0.81013596  0.12390039  0.42381011  1
  O  O116  1  0.24923097  0.37136716  0.42472008  1
  O  O117  1  0.75094652  0.36012016  0.42549935  1
  O  O118  1  0.42933095  0.49494951  0.42408544  1
  O  O119  1  0.92595154  0.48460115  0.42523821  1
  O  O120  1  0.18344880  0.50782233  0.07038034  1
  O  O121  1  0.69142370  0.50084293  0.07486665  1
  O  O122  1  0.06892833  0.63751693  0.07385204  1
  O  O123  1  0.57146384  0.63076639  0.07238651  1
  O  O124  1  0.25212869  0.87448070  0.07194931  1
  O  O125  1  0.74863114  0.85992749  0.07044094  1
  O  O126  1  0.19168433  0.88325758  0.57646046  1
  O  O127  1  0.68376641  0.86001447  0.57120439  1
  O  O128  1  0.24833412  0.63769675  0.57149319  1
  O  O129  1  0.75305231  0.62914853  0.57402684  1
  O  O130  1  0.07176651  0.51512417  0.57213767  1
  O  O131  1  0.56952569  0.50157122  0.57483679  1
  O  O132  1  0.15588005  0.84107621  0.25472586  1
  O  O133  1  0.66236082  0.84293631  0.27213783  1
  O  O134  1  0.25453519  0.66536009  0.27262944  1
  O  O135  1  0.75966930  0.68815954  0.25703380  1
  O  O136  1  0.07847722  0.47085707  0.25523405  1
  O  O137  1  0.57187923  0.47128600  0.26076920  1
  O  O138  1  0.16231158  0.47129198  0.76594165  1
  O  O139  1  0.65566265  0.47126635  0.75531740  1
  O  O140  1  0.07405096  0.67574925  0.76328837  1
  O  O141  1  0.57596457  0.68118847  0.75480824  1
  O  O142  1  0.25844983  0.82486930  0.75822314  1
  O  O143  1  0.75508906  0.84517446  0.77204512  1
loop_
_geom_bond_atom_site_label_1
_geom_bond_atom_site_label_2
_geom_bond_distance
_geom_bond_site_symmetry_2
Na0 O72 2.391369 1_655
Na0 O85 2.415459 1_565
Na0 O75 2.601460 1_555
Na0 O89 2.639439 1_555
Na0 O76 2.662782 1_665
Na0 O86 2.706105 1_665
Na1 O90 2.329613 1_545
Na1 O79 2.432083 1_554
Na1 O92 2.585243 1_555
Na1 O95 2.598820 1_555
Na1 O82 2.701575 1_544
Na1 O81 2.704998 1_544
Na2 O110 2.499113 1_555
Na2 O112 2.523566 1_555
Na2 O98 2.700153 1_555
Na2 O108 2.724662 1_555
Na2 O96 2.832187 1_555
Na2 O100 2.835376 1_555
Na3 O97 2.555511 1_555
Na3 O109 2.568900 1_555
Na3 O101 2.614721 1_555
Na3 O111 2.623394 1_555
Na3 O113 2.676652 1_555
Na3 O99 2.820624 1_555
Na4 O102 2.551387 1_555
Na4 O104 2.560755 1_555
Na4 O114 2.639490 1_555
Na4 O118 2.644370 1_555
Na4 O116 2.739154 1_555
Na4 O106 2.810439 1_555
Na5 O119 2.589864 1_555
Na5 O117 2.590612 1_555
Na5 O107 2.598004 1_555
Na5 O115 2.788142 1_555
Na5 O103 2.800769 1_555
Na5 O105 2.812450 1_555
Ca0 O3 2.133515 1_555
Ca0 O72 2.197711 1_655
Ca0 O0 2.338974 1_665
Ca0 O75 2.346600 1_555
Ca0 O5 2.381953 1_565
Ca0 O76 2.398417 1_665
Ca1 O10 2.143934 1_555
Ca1 O79 2.180105 1_555
Ca1 O82 2.334417 1_545
Ca1 O7 2.334549 1_555
Ca1 O81 2.395044 1_545
Ca1 O8 2.417599 1_545
Ca2 O13 2.126147 1_545
Ca2 O85 2.207681 1_555
Ca2 O14 2.341973 1_655
Ca2 O89 2.344219 1_545
Ca2 O16 2.390370 1_645
Ca2 O86 2.396224 1_655
Ca3 O18 2.159267 1_555
Ca3 O23 2.166168 1_555
Ca3 O90 2.254018 1_555
Ca3 O21 2.383386 1_565
Ca3 O92 2.427319 1_565
Ca3 O95 2.463744 1_565
Nb0 O73 1.913362 1_555
Nb0 O1 1.939108 1_565
Nb0 O77 1.973987 1_565
Nb0 O2 1.991965 1_555
Nb0 O74 1.993439 1_555
Nb0 O4 2.349883 1_565
Nb1 O83 1.893613 1_545
Nb1 O78 1.895222 1_655
Nb1 O11 1.947667 1_555
Nb1 O80 1.954430 1_645
Nb1 O6 2.263079 1_655
Nb1 O9 2.270037 1_545
Nb2 O88 1.880128 1_555
Nb2 O84 1.903016 1_565
Nb2 O87 1.942494 1_565
Nb2 O12 1.943966 1_555
Nb2 O17 2.263873 1_555
Nb2 O15 2.342442 1_565
Nb3 O93 1.886856 1_565
Nb3 O91 1.906379 1_555
Nb3 O19 1.918217 1_555
Nb3 O94 1.962715 1_665
Nb3 O20 2.262345 1_665
Nb3 O22 2.334066 1_655
Nb4 O24 1.887120 1_555
Nb4 O96 1.915566 1_555
Nb4 O28 1.933274 1_555
Nb4 O100 2.053530 1_555
Nb4 O26 2.085030 1_555
Nb4 O98 2.213197 1_555
Nb5 O25 1.859419 1_555
Nb5 O27 1.865667 1_555
Nb5 O97 1.929794 1_555
Nb5 O99 2.179056 1_555
Nb5 O29 2.219359 1_555
Nb5 O101 2.263463 1_555
Nb6 O30 1.867849 1_555
Nb6 O34 1.887209 1_555
Nb6 O102 1.896882 1_555
Nb6 O104 2.177647 1_555
Nb6 O106 2.179654 1_555
Nb6 O32 2.294129 1_555
Nb7 O103 1.907179 1_555
Nb7 O107 1.947564 1_555
Nb7 O33 1.949651 1_555
Nb7 O31 2.002395 1_555
Nb7 O105 2.066045 1_555
Nb7 O35 2.157043 1_555
Nb8 O38 1.881231 1_556
Nb8 O36 1.961154 1_556
Nb8 O110 1.995773 1_555
Nb8 O112 2.017486 1_555
Nb8 O40 2.026803 1_556
Nb8 O108 2.141945 1_555
Nb9 O39 1.883591 1_556
Nb9 O41 1.916312 1_556
Nb9 O111 1.945784 1_555
Nb9 O109 2.003902 1_555
Nb9 O37 2.108577 1_556
Nb9 O113 2.241407 1_555
Nb10 O118 1.900885 1_555
Nb10 O46 1.915789 1_555
Nb10 O44 1.942488 1_555
Nb10 O114 1.961391 1_555
Nb10 O42 2.154884 1_555
Nb10 O116 2.179781 1_555
Nb11 O47 1.912861 1_555
Nb11 O117 1.976067 1_555
Nb11 O119 1.977871 1_555
Nb11 O43 1.978121 1_555
Nb11 O45 2.059421 1_555
Nb11 O115 2.086251 1_555
Nb12 O122 1.880853 1_555
Nb12 O50 1.930579 1_554
Nb12 O120 1.940003 1_555
Nb12 O52 1.993404 1_554
Nb12 O124 2.116668 1_555
Nb12 O48 2.182809 1_554
Nb13 O51 1.909897 1_554
Nb13 O123 1.924064 1_555
Nb13 O125 1.940673 1_555
Nb13 O49 2.011603 1_554
Nb13 O121 2.052709 1_555
Nb13 O53 2.138304 1_554
Nb14 O58 1.896619 1_555
Nb14 O130 1.946184 1_555
Nb14 O128 1.962343 1_555
Nb14 O54 1.982016 1_555
Nb14 O126 2.093068 1_555
Nb14 O56 2.114991 1_555
Nb15 O59 1.899310 1_555
Nb15 O131 1.915529 1_555
Nb15 O57 1.945602 1_555
Nb15 O127 1.964637 1_555
Nb15 O55 2.152259 1_555
Nb15 O129 2.172065 1_555
Nb16 O62 1.885848 1_555
Nb16 O134 1.894600 1_555
Nb16 O60 1.945993 1_555
Nb16 O132 2.070243 1_555
Nb16 O136 2.209552 1_555
Nb16 O64 2.215799 1_555
Nb17 O133 1.882985 1_555
Nb17 O135 1.927907 1_555
Nb17 O65 1.956202 1_555
Nb17 O61 2.027792 1_555
Nb17 O137 2.030513 1_555
Nb17 O63 2.232295 1_555
Nb18 O68 1.877131 1_555
Nb18 O142 1.920744 1_555
Nb18 O66 1.982014 1_555
Nb18 O140 2.027315 1_555
Nb18 O138 2.095723 1_555
Nb18 O70 2.139559 1_555
Nb19 O71 1.890507 1_555
Nb19 O143 1.912644 1_555
Nb19 O67 1.929114 1_555
Nb19 O139 2.081802 1_555
Nb19 O69 2.162947 1_555
Nb19 O141 2.224886 1_555
O0 S0 1.454362 1_555
O1 Si0 1.659517 1_545
O2 Si1 1.642099 1_555
O3 Si2 1.570136 1_555
O4 S2 1.468604 1_555
O5 S1 1.454173 1_655
O6 S3 1.487319 1_555
O7 S4 1.456149 1_555
O8 S6 1.449652 1_555
O9 S5 1.479403 1_555
O10 Si3 1.570233 1_555
O11 Si4 1.667039 1_545
O12 Si3 1.662659 1_565
O13 Si4 1.560266 1_555
O14 S3 1.444330 1_555
O15 S4 1.471874 1_555
O16 S5 1.439786 1_455
O17 S6 1.478859 1_555
O18 Si1 1.560416 1_555
O19 Si2 1.673699 1_555
O20 S1 1.482753 1_555
O21 S2 1.438666 1_555
O22 S0 1.474460 1_565
O23 Si0 1.563245 1_555
O24 Si5 1.639573 1_555
O25 Si6 1.720169 1_555
O26 S7 1.502389 1_555
O27 Si7 1.677991 1_555
O28 Si8 1.642131 1_555
O29 S8 1.494419 1_555
O30 Si9 1.700459 1_555
O31 Si10 1.594555 1_555
O32 S9 1.475642 1_555
O33 Si11 1.618466 1_555
O34 Si12 1.661207 1_555
O35 S10 1.480297 1_555
O36 Si12 1.632688 1_555
O37 S10 1.495821 1_555
O38 Si9 1.662111 1_555
O39 Si10 1.659131 1_555
O40 S9 1.510036 1_555
O41 Si11 1.648852 1_555
O42 S7 1.474442 1_555
O43 Si7 1.619660 1_555
O44 Si8 1.633043 1_555
O45 S8 1.492016 1_555
O46 Si5 1.632994 1_555
O47 Si6 1.644634 1_555
O48 S11 1.471100 1_555
O49 Si13 1.600024 1_555
O50 Si14 1.626415 1_555
O51 Si15 1.645431 1_555
O52 Si16 1.629708 1_555
O53 S12 1.472199 1_555
O54 Si17 1.623378 1_555
O55 S13 1.479286 1_555
O56 S14 1.479614 1_555
O57 Si18 1.651974 1_555
O58 Si19 1.656133 1_555
O59 Si20 1.643972 1_555
O60 Si19 1.670803 1_555
O61 Si20 1.594258 1_555
O62 Si17 1.671356 1_555
O63 S13 1.474864 1_555
O64 S14 1.485043 1_555
O65 Si18 1.632283 1_555
O66 Si14 1.618633 1_555
O67 Si15 1.685169 1_555
O68 Si16 1.673010 1_555
O69 S12 1.501644 1_555
O70 S11 1.498830 1_555
O71 Si13 1.663194 1_555
O72 Si19 1.583951 1_555
O73 Si20 1.628565 1_555
O74 Si17 1.605203 1_555
O75 S13 1.455049 1_555
O76 S14 1.457632 1_555
O77 Si18 1.624631 1_555
O78 Si14 1.644877 1_555
O79 Si15 1.584950 1_555
O80 Si16 1.637661 1_555
O81 S12 1.456651 1_555
O82 S11 1.453255 1_555
O83 Si13 1.651846 1_555
O84 Si5 1.630838 1_555
O85 Si6 1.577228 1_555
O86 S7 1.445647 1_555
O87 Si7 1.638124 1_555
O88 Si8 1.655894 1_555
O89 S8 1.456119 1_555
O90 Si9 1.570363 1_555
O91 Si10 1.634220 1_555
O92 S9 1.450403 1_555
O93 Si11 1.650550 1_555
O94 Si12 1.626652 1_555
O95 S10 1.443305 1_555
O96 Si3 1.673452 1_555
O97 Si4 1.707763 1_545
O98 S3 1.512841 1_555
O99 S4 1.500558 1_555
O100 S6 1.543627 1_555
O101 S5 1.502542 1_555
O102 Si1 1.728988 1_555
O103 Si2 1.651344 1_555
O104 S2 1.524858 1_555
O105 S1 1.523377 1_655
O106 S0 1.497878 1_555
O107 Si0 1.689950 1_545
O108 S11 1.507839 1_555
O109 Si13 1.640610 1_555
O110 Si15 1.666258 1_555
O111 Si14 1.649597 1_655
O112 Si16 1.625355 1_545
O113 S12 1.501938 1_545
O114 Si17 1.657250 1_545
O115 S13 1.520811 1_545
O116 S14 1.508938 1_555
O117 Si18 1.645763 1_555
O118 Si20 1.665829 1_555
O119 Si19 1.664525 1_655
O120 Si12 1.636964 1_555
O121 S10 1.503302 1_555
O122 Si10 1.633270 1_455
O123 Si9 1.643615 1_555
O124 S9 1.495072 1_565
O125 Si11 1.607814 1_565
O126 S7 1.491824 1_565
O127 Si7 1.622566 1_565
O128 Si8 1.601426 1_555
O129 S8 1.482026 1_555
O130 Si6 1.639322 1_455
O131 Si5 1.611950 1_555
O132 S0 1.525568 1_565
O133 Si0 1.647815 1_555
O134 Si1 1.663398 1_555
O135 Si2 1.653652 1_555
O136 S1 1.486588 1_555
O137 S2 1.513873 1_555
O138 S3 1.495084 1_555
O139 S4 1.523436 1_555
O140 S5 1.519273 1_455
O141 S6 1.483238 1_555
O142 Si3 1.666222 1_565
O143 Si4 1.653246 1_555
