# generated using pymatgen
data_CaSn3P2(SO6)4
_symmetry_space_group_name_H-M   'P 1'
_cell_length_a   8.86885149
_cell_length_b   8.88254618
_cell_length_c   23.01194231
_cell_angle_alpha   89.87506499
_cell_angle_beta   89.94422888
_cell_angle_gamma   120.01666414
_symmetry_Int_Tables_number   1
_chemical_formula_structural   CaSn3P2(SO6)4
_chemical_formula_sum   'Ca3 Sn9 P6 S12 O72'
_cell_volume   1569.68875689
_cell_formula_units_Z   3
loop_
 _symmetry_equiv_pos_site_id
 _symmetry_equiv_pos_as_xyz
  1  'x, y, z'
loop_
 _atom_site_type_symbol
 _atom_site_label
 _atom_site_symmetry_multiplicity
 _atom_site_fract_x
 _atom_site_fract_y
 _atom_site_fract_z
 _atom_site_occupancy
  Ca  Ca0  1  0.99521435  0.00099543  0.35857270  1
  Ca  Ca1  1  0.67286058  0.33460330  0.68918113  1
  Ca  Ca2  1  0.66331987  0.33330537  0.18480576  1
  Sn  Sn0  1  0.00196551  0.00128255  0.86070077  1
  Sn  Sn1  1  0.99800027  0.00514019  0.64641675  1
  Sn  Sn2  1  0.00717065  0.00700160  0.14679804  1
  Sn  Sn3  1  0.65929904  0.33189042  0.97986324  1
  Sn  Sn4  1  0.67043375  0.32445096  0.48105329  1
  Sn  Sn5  1  0.33356724  0.66183155  0.01661794  1
  Sn  Sn6  1  0.33227956  0.66480063  0.51945625  1
  Sn  Sn7  1  0.33952896  0.67255378  0.31244482  1
  Sn  Sn8  1  0.33087502  0.66488619  0.81912116  1
  P  P0  1  0.96519859  0.33455914  0.58279632  1
  P  P1  1  0.36923002  0.33446764  0.08206587  1
  P  P2  1  0.62270180  0.66392433  0.91627819  1
  P  P3  1  0.03724932  0.37682101  0.91701756  1
  P  P4  1  0.33690585  0.95662529  0.91715224  1
  P  P5  1  0.61205836  0.95534628  0.41879438  1
  S  S0  1  0.28698745  0.99018431  0.25097862  1
  S  S1  1  0.70636009  0.71372623  0.24964859  1
  S  S2  1  0.01044767  0.30054824  0.25104716  1
  S  S3  1  0.28171332  0.29199449  0.75261047  1
  S  S4  1  0.01089411  0.72253207  0.75212117  1
  S  S5  1  0.70779724  0.98794106  0.75301687  1
  S  S6  1  0.36758118  0.03596005  0.58314397  1
  S  S7  1  0.66781092  0.62876784  0.58219047  1
  S  S8  1  0.96561267  0.63251856  0.08176387  1
  S  S9  1  0.66648149  0.03413875  0.08186357  1
  S  S10  1  0.34573351  0.38344432  0.41879859  1
  S  S11  1  0.04106798  0.65740495  0.41793050  1
  O  O0  1  0.20487788  0.01202906  0.30231885  1
  O  O1  1  0.80893781  0.79522242  0.30115951  1
  O  O2  1  0.98678535  0.19597684  0.30236827  1
  O  O3  1  0.19578017  0.17878549  0.80367836  1
  O  O4  1  0.98506114  0.80885155  0.80309957  1
  O  O5  1  0.82202368  0.01541195  0.80343905  1
  O  O6  1  0.78332039  0.95505520  0.69820233  1
  O  O7  1  0.17288234  0.21542649  0.69831939  1
  O  O8  1  0.04256491  0.83133206  0.69725406  1
  O  O9  1  0.78562974  0.82538472  0.19541470  1
  O  O10  1  0.04382434  0.22311831  0.19705180  1
  O  O11  1  0.17681998  0.95871010  0.19678878  1
  O  O12  1  0.89075472  0.36949142  0.63616110  1
  O  O13  1  0.47298702  0.11023483  0.63428737  1
  O  O14  1  0.63432449  0.52330587  0.63363197  1
  O  O15  1  0.89511505  0.52693110  0.13329252  1
  O  O16  1  0.63563325  0.10643971  0.13361032  1
  O  O17  1  0.47677237  0.36813190  0.13554824  1
  O  O18  1  0.45087239  0.29777653  0.02681411  1
  O  O19  1  0.85397165  0.55260810  0.02892021  1
  O  O20  1  0.70326163  0.14858184  0.02924096  1
  O  O21  1  0.44328059  0.14880057  0.53013347  1
  O  O22  1  0.69873358  0.54985919  0.52889732  1
  O  O23  1  0.84909949  0.29858424  0.52738192  1
  O  O24  1  0.54416633  0.70435125  0.96911723  1
  O  O25  1  0.15722695  0.45677590  0.96931087  1
  O  O26  1  0.29864803  0.83790648  0.97021429  1
  O  O27  1  0.52692164  0.84282187  0.47402753  1
  O  O28  1  0.31392417  0.46260930  0.47119011  1
  O  O29  1  0.14723294  0.68188270  0.47103705  1
  O  O30  1  0.11863031  0.62215541  0.36567752  1
  O  O31  1  0.49470001  0.87270398  0.36423832  1
  O  O32  1  0.37625728  0.49316523  0.36591114  1
  O  O33  1  0.11277629  0.48953885  0.86084802  1
  O  O34  1  0.37220829  0.88044864  0.86106933  1
  O  O35  1  0.50875935  0.62658630  0.86073153  1
  O  O36  1  0.02562260  0.80994855  0.41281744  1
  O  O37  1  0.78924963  0.97499122  0.41445618  1
  O  O38  1  0.19719480  0.21225765  0.41360007  1
  O  O39  1  0.02112602  0.19709249  0.90772413  1
  O  O40  1  0.17309836  0.97365845  0.90855487  1
  O  O41  1  0.80285509  0.82758492  0.90736460  1
  O  O42  1  0.98485638  0.16876252  0.58917321  1
  O  O43  1  0.18907747  0.01473684  0.58946970  1
  O  O44  1  0.82785621  0.80536432  0.58861085  1
  O  O45  1  0.98050856  0.80768157  0.08857854  1
  O  O46  1  0.82354646  0.01287830  0.08850331  1
  O  O47  1  0.18349942  0.16773313  0.08840159  1
  O  O48  1  0.68938668  0.13957206  0.74670826  1
  O  O49  1  0.45184638  0.31019296  0.74594161  1
  O  O50  1  0.85777436  0.55329173  0.74648260  1
  O  O51  1  0.68346761  0.54198976  0.24235081  1
  O  O52  1  0.86309798  0.32592067  0.24244450  1
  O  O53  1  0.46054587  0.13690517  0.24321932  1
  O  O54  1  0.64391773  0.50443082  0.92506631  1
  O  O55  1  0.85716340  0.35701079  0.92723073  1
  O  O56  1  0.49885827  0.13599159  0.92526986  1
  O  O57  1  0.61812268  0.13358523  0.42520329  1
  O  O58  1  0.51063835  0.37784385  0.42707124  1
  O  O59  1  0.86562642  0.49750867  0.42478120  1
  O  O60  1  0.34619694  0.49432751  0.07122292  1
  O  O61  1  0.14300701  0.65785435  0.07192652  1
  O  O62  1  0.51061463  0.86035921  0.07185490  1
  O  O63  1  0.34555086  0.86073844  0.57359175  1
  O  O64  1  0.51553803  0.65399046  0.57347611  1
  O  O65  1  0.14944477  0.49329314  0.57182134  1
  O  O66  1  0.29559345  0.82402484  0.25501036  1
  O  O67  1  0.52890510  0.70007703  0.25417750  1
  O  O68  1  0.17566690  0.47657984  0.25691241  1
  O  O69  1  0.29206503  0.46442134  0.75900319  1
  O  O70  1  0.17252414  0.71054835  0.75816966  1
  O  O71  1  0.53484453  0.82621024  0.75917172  1
loop_
_geom_bond_atom_site_label_1
_geom_bond_atom_site_label_2
_geom_bond_distance
_geom_bond_site_symmetry_2
Ca0 O37 2.148448 1_545
Ca0 O2 2.190421 1_555
Ca0 O1 2.193010 1_545
Ca0 O0 2.226081 1_655
Ca0 O36 2.227101 1_645
Ca0 O38 2.232790 1_655
Ca1 O12 2.171106 1_555
Ca1 O48 2.240422 1_555
Ca1 O50 2.242704 1_555
Ca1 O14 2.263849 1_555
Ca1 O49 2.272401 1_555
Ca1 O13 2.278295 1_555
Ca2 O17 2.152202 1_555
Ca2 O51 2.213885 1_555
Ca2 O53 2.220497 1_555
Ca2 O52 2.241282 1_555
Ca2 O16 2.241626 1_555
Ca2 O15 2.244613 1_555
O0 S0 1.450671 1_545
O1 S1 1.450415 1_555
O2 S2 1.449581 1_655
O3 S3 1.483037 1_555
O3 Sn0 2.106534 1_555
O4 S4 1.481797 1_655
O4 Sn0 2.110681 1_665
O5 S5 1.479308 1_545
O5 Sn0 2.121953 1_655
O6 S5 1.523412 1_555
O6 Sn1 2.094975 1_565
O7 S3 1.517995 1_555
O7 Sn1 2.106161 1_455
O8 S4 1.526244 1_555
O8 Sn1 2.124104 1_465
O9 S1 1.526690 1_555
O9 Sn2 2.128657 1_665
O10 S2 1.520284 1_555
O10 Sn2 2.124665 1_555
O11 S0 1.522644 1_555
O11 Sn2 2.101935 1_565
O12 P0 1.498427 1_555
O13 S6 1.443175 1_555
O14 S7 1.443323 1_555
O15 S8 1.443475 1_555
O16 S9 1.443528 1_555
O17 P1 1.494107 1_555
O18 P1 1.575818 1_555
O18 Sn3 2.027410 1_554
O19 S8 1.505283 1_555
O19 Sn3 2.173895 1_554
O20 S9 1.506077 1_555
O20 Sn3 2.173085 1_554
O21 S6 1.504417 1_555
O21 Sn4 2.147456 1_555
O22 S7 1.505293 1_555
O22 Sn4 2.188912 1_555
O23 P0 1.569579 1_555
O23 Sn4 2.016604 1_555
O24 P2 1.530708 1_555
O24 Sn5 2.028421 1_556
O25 P3 1.528024 1_555
O25 Sn5 2.027440 1_556
O26 P4 1.534188 1_555
O26 Sn5 2.039664 1_556
O27 P5 1.556325 1_555
O27 Sn6 1.957416 1_555
O28 S10 1.493023 1_555
O28 Sn6 2.049929 1_555
O29 S11 1.491938 1_555
O29 Sn6 2.051792 1_555
O30 S11 1.494194 1_555
O30 Sn7 2.157453 1_555
O31 P5 1.562197 1_555
O31 Sn7 2.009908 1_555
O32 S10 1.494839 1_555
O32 Sn7 2.161121 1_555
O33 P3 1.563183 1_555
O33 Sn8 2.016188 1_555
O34 P4 1.560910 1_555
O34 Sn8 2.009710 1_555
O35 P2 1.560165 1_555
O35 Sn8 2.014951 1_555
O36 S11 1.433041 1_555
O37 P5 1.495070 1_555
O38 S10 1.434869 1_555
O39 P3 1.545308 1_555
O39 Sn0 1.984390 1_555
O40 P4 1.546919 1_555
O40 Sn0 1.987745 1_565
O41 P2 1.543502 1_555
O41 Sn0 1.978656 1_665
O42 P0 1.573770 1_555
O42 Sn1 2.005644 1_555
O43 S6 1.504607 1_555
O43 Sn1 2.108798 1_455
O44 S7 1.506959 1_555
O44 Sn1 2.128516 1_565
O45 S8 1.502765 1_555
O45 Sn2 2.139507 1_665
O46 S9 1.504294 1_555
O46 Sn2 2.131527 1_655
O47 P1 1.576645 1_555
O47 Sn2 2.010841 1_555
O48 S5 1.442572 1_545
O49 S3 1.442853 1_555
O50 S4 1.442070 1_655
O51 S1 1.444907 1_555
O52 S2 1.446632 1_655
O53 S0 1.446055 1_545
O54 P2 1.532610 1_555
O54 Sn3 2.039271 1_555
O55 P3 1.534604 1_655
O55 Sn3 2.049168 1_555
O56 P4 1.532510 1_545
O56 Sn3 2.041237 1_555
O57 P5 1.564307 1_545
O57 Sn4 1.991239 1_555
O58 S10 1.500321 1_555
O58 Sn4 2.109467 1_555
O59 S11 1.500203 1_655
O59 Sn4 2.088339 1_555
O60 P1 1.552111 1_555
O60 Sn5 1.991005 1_555
O61 S8 1.490624 1_455
O61 Sn5 2.100788 1_555
O62 S9 1.487938 1_565
O62 Sn5 2.105771 1_555
O63 S6 1.485343 1_565
O63 Sn6 2.097535 1_555
O64 S7 1.489049 1_555
O64 Sn6 2.087020 1_555
O65 P0 1.553845 1_455
O65 Sn6 1.979630 1_555
O66 S0 1.518188 1_555
O66 Sn7 2.055888 1_555
O67 S1 1.520262 1_555
O67 Sn7 2.064433 1_555
O68 S2 1.522891 1_555
O68 Sn7 2.063374 1_555
O69 S3 1.495380 1_555
O69 Sn8 2.145109 1_555
O70 S4 1.496174 1_555
O70 Sn8 2.162267 1_555
O71 S5 1.493543 1_555
O71 Sn8 2.149876 1_555
