# generated using pymatgen
data_Na6Nb3In(SiO4)6
_symmetry_space_group_name_H-M   'P 1'
_cell_length_a   15.83903259
_cell_length_b   9.12118005
_cell_length_c   9.13097826
_cell_angle_alpha   90.38508173
_cell_angle_beta   125.00606899
_cell_angle_gamma   89.79657404
_symmetry_Int_Tables_number   1
_chemical_formula_structural   Na6Nb3In(SiO4)6
_chemical_formula_sum   'Na12 Nb6 In2 Si12 O48'
_cell_volume   1080.48677491
_cell_formula_units_Z   2
loop_
 _symmetry_equiv_pos_site_id
 _symmetry_equiv_pos_as_xyz
  1  'x, y, z'
loop_
 _atom_site_type_symbol
 _atom_site_label
 _atom_site_symmetry_multiplicity
 _atom_site_fract_x
 _atom_site_fract_y
 _atom_site_fract_z
 _atom_site_occupancy
  Na  Na0  1  0.25084176  0.75017463  0.99881450  1
  Na  Na1  1  0.74655507  0.74820015  0.48868239  1
  Na  Na2  1  0.75084176  0.25017463  0.99881450  1
  Na  Na3  1  0.24655507  0.24820015  0.48868239  1
  Na  Na4  1  0.50579746  0.09505749  0.76115213  1
  Na  Na5  1  0.50060665  0.88579965  0.23745151  1
  Na  Na6  1  0.00579746  0.59505749  0.76115213  1
  Na  Na7  1  0.00060665  0.38579965  0.23745151  1
  Na  Na8  1  0.80468903  0.92918682  0.21355671  1
  Na  Na9  1  0.18520411  0.07029613  0.79649919  1
  Na  Na10  1  0.30468903  0.42918682  0.21355671  1
  Na  Na11  1  0.68520411  0.57029613  0.79649919  1
  Nb  Nb0  1  0.10591712  0.75032763  0.56143606  1
  Nb  Nb1  1  0.89496434  0.75447195  0.93027596  1
  Nb  Nb2  1  0.89241829  0.24960833  0.43628083  1
  Nb  Nb3  1  0.60591712  0.25032763  0.56143606  1
  Nb  Nb4  1  0.39496434  0.25447195  0.93027596  1
  Nb  Nb5  1  0.39241829  0.74960833  0.43628083  1
  In  In0  1  0.10356057  0.24403808  0.06534790  1
  In  In1  1  0.60356057  0.74403808  0.06534790  1
  Si  Si0  1  0.99756577  0.95745182  0.74634153  1
  Si  Si1  1  0.00089766  0.04268020  0.25515557  1
  Si  Si2  1  0.49756577  0.45745182  0.74634153  1
  Si  Si3  1  0.50089766  0.54268020  0.25515557  1
  Si  Si4  1  0.35419066  0.89473232  0.75998357  1
  Si  Si5  1  0.64697660  0.89627368  0.74833615  1
  Si  Si6  1  0.64603273  0.11187077  0.24351070  1
  Si  Si7  1  0.35591193  0.10122335  0.25116531  1
  Si  Si8  1  0.85419066  0.39473232  0.75998357  1
  Si  Si9  1  0.14697660  0.39627368  0.74833615  1
  Si  Si10  1  0.14603273  0.61187077  0.24351070  1
  Si  Si11  1  0.85591193  0.60122335  0.25116531  1
  O  O0  1  0.15334498  0.57359407  0.72609488  1
  O  O1  1  0.84989215  0.57674942  0.75522221  1
  O  O2  1  0.85518394  0.42076666  0.26032413  1
  O  O3  1  0.15708008  0.43512490  0.25558157  1
  O  O4  1  0.65334498  0.07359407  0.72609488  1
  O  O5  1  0.34989215  0.07674942  0.75522221  1
  O  O6  1  0.35518394  0.92076666  0.26032413  1
  O  O7  1  0.65708008  0.93512490  0.25558157  1
  O  O8  1  0.42946071  0.56289450  0.56627058  1
  O  O9  1  0.57983753  0.55628203  0.91570707  1
  O  O10  1  0.55915431  0.43581235  0.43116035  1
  O  O11  1  0.43541924  0.42692960  0.08171128  1
  O  O12  1  0.92946071  0.06289450  0.56627058  1
  O  O13  1  0.07983753  0.05628203  0.91570707  1
  O  O14  1  0.05915431  0.93581235  0.43116035  1
  O  O15  1  0.93541924  0.92692960  0.08171128  1
  O  O16  1  0.24858810  0.83889372  0.73720384  1
  O  O17  1  0.74227201  0.80890232  0.76138836  1
  O  O18  1  0.74419952  0.18605362  0.25504679  1
  O  O19  1  0.26821027  0.18775885  0.25411283  1
  O  O20  1  0.74858810  0.33889372  0.73720384  1
  O  O21  1  0.24227201  0.30890232  0.76138836  1
  O  O22  1  0.24419952  0.68605362  0.25504679  1
  O  O23  1  0.76821027  0.68775885  0.25411283  1
  O  O24  1  0.36111813  0.84788615  0.58914374  1
  O  O25  1  0.64912157  0.88003871  0.92686968  1
  O  O26  1  0.64387854  0.16759842  0.41312896  1
  O  O27  1  0.35472058  0.14028814  0.07138399  1
  O  O28  1  0.86111813  0.34788615  0.58914374  1
  O  O29  1  0.14912157  0.38003871  0.92686968  1
  O  O30  1  0.14387854  0.66759842  0.41312896  1
  O  O31  1  0.85472058  0.64028814  0.07138399  1
  O  O32  1  0.45341984  0.83601051  0.94494172  1
  O  O33  1  0.53771793  0.82516388  0.57313912  1
  O  O34  1  0.53646628  0.16932428  0.06090396  1
  O  O35  1  0.46857682  0.15827213  0.42453350  1
  O  O36  1  0.95341984  0.33601051  0.94494172  1
  O  O37  1  0.03771793  0.32516388  0.57313912  1
  O  O38  1  0.03646628  0.66932428  0.06090396  1
  O  O39  1  0.96857682  0.65827213  0.42453350  1
  O  O40  1  0.07085140  0.83920441  0.72838681  1
  O  O41  1  0.91648456  0.85587713  0.75989521  1
  O  O42  1  0.91140281  0.13755372  0.25481446  1
  O  O43  1  0.08146894  0.15162748  0.25904496  1
  O  O44  1  0.57085140  0.33920441  0.72838681  1
  O  O45  1  0.41648456  0.35587713  0.75989521  1
  O  O46  1  0.41140281  0.63755372  0.25481446  1
  O  O47  1  0.58146894  0.65162748  0.25904496  1
loop_
_geom_bond_atom_site_label_1
_geom_bond_atom_site_label_2
_geom_bond_distance
_geom_bond_site_symmetry_2
Na0 O22 2.475548 1_556
Na0 O46 2.485972 1_556
Na0 O16 2.508036 1_555
Na0 O6 2.508954 1_556
Na0 O0 2.594536 1_555
Na0 O40 2.611136 1_555
Na1 O47 2.389719 1_555
Na1 O23 2.415525 1_555
Na1 O7 2.452844 1_555
Na1 O1 2.551549 1_555
Na1 O41 2.584634 1_555
Na1 O17 2.585852 1_555
Na2 O18 2.475548 1_556
Na2 O42 2.485972 1_556
Na2 O20 2.508036 1_555
Na2 O2 2.508954 1_556
Na2 O4 2.594536 1_555
Na2 O44 2.611136 1_555
Na3 O43 2.389719 1_555
Na3 O19 2.415525 1_555
Na3 O3 2.452844 1_555
Na3 O5 2.551549 1_555
Na3 O45 2.584634 1_555
Na3 O21 2.585852 1_555
Na4 O5 2.445016 1_555
Na4 O4 2.540989 1_555
Na4 O44 2.547405 1_555
Na4 O34 2.576460 1_556
Na4 O25 2.712312 1_545
Na4 O45 2.760201 1_555
Na4 O35 2.840738 1_555
Na4 O24 2.942882 1_545
Na5 O32 2.365236 1_554
Na5 O7 2.430722 1_555
Na5 O47 2.436792 1_555
Na5 O6 2.448796 1_555
Na5 O46 2.726355 1_555
Na5 O33 2.828410 1_555
Na6 O1 2.445016 1_455
Na6 O0 2.540989 1_555
Na6 O40 2.547405 1_555
Na6 O38 2.576460 1_556
Na6 O29 2.712312 1_555
Na6 O41 2.760201 1_455
Na6 O39 2.840738 1_455
Na6 O28 2.942882 1_455
Na7 O36 2.365236 1_454
Na7 O3 2.430722 1_555
Na7 O43 2.436792 1_555
Na7 O2 2.448796 1_455
Na7 O42 2.726355 1_455
Na7 O37 2.828410 1_555
Na8 O23 2.363416 1_555
Na8 O25 2.390934 1_554
Na8 O42 2.427666 1_565
Na8 O7 2.577691 1_555
Na8 O18 2.634266 1_565
Na8 O12 2.902964 1_565
Na8 O15 2.932015 1_555
Na9 O21 2.451985 1_555
Na9 O13 2.464543 1_555
Na9 O27 2.484989 1_556
Na9 O16 2.519756 1_545
Na9 O40 2.612926 1_545
Na9 O5 2.842386 1_555
Na9 O14 2.989978 1_545
Na10 O19 2.363416 1_555
Na10 O29 2.390934 1_554
Na10 O46 2.427666 1_555
Na10 O3 2.577691 1_555
Na10 O22 2.634266 1_555
Na10 O8 2.902964 1_555
Na10 O11 2.932015 1_555
Na11 O17 2.451985 1_555
Na11 O9 2.464543 1_555
Na11 O31 2.484989 1_556
Na11 O20 2.519756 1_555
Na11 O44 2.612926 1_555
Na11 O1 2.842386 1_555
Na11 O10 2.989978 1_555
Nb0 O30 1.918853 1_555
Nb0 O14 1.957861 1_555
Nb0 O39 1.969441 1_455
Nb0 O0 2.037538 1_555
Nb0 O16 2.041909 1_555
Nb0 O40 2.059398 1_555
Nb1 O15 1.938642 1_556
Nb1 O38 1.995506 1_656
Nb1 O41 2.005498 1_555
Nb1 O31 2.028833 1_556
Nb1 O17 2.048518 1_555
Nb1 O1 2.087225 1_555
Nb2 O28 1.942038 1_555
Nb2 O12 1.968379 1_555
Nb2 O37 2.008248 1_655
Nb2 O18 2.031109 1_555
Nb2 O2 2.075197 1_555
Nb2 O42 2.104111 1_555
Nb3 O26 1.918853 1_555
Nb3 O10 1.957861 1_555
Nb3 O35 1.969441 1_555
Nb3 O4 2.037538 1_555
Nb3 O20 2.041909 1_555
Nb3 O44 2.059398 1_555
Nb4 O11 1.938642 1_556
Nb4 O34 1.995506 1_556
Nb4 O45 2.005498 1_555
Nb4 O27 2.028833 1_556
Nb4 O21 2.048518 1_555
Nb4 O5 2.087225 1_555
Nb5 O24 1.942038 1_555
Nb5 O8 1.968379 1_555
Nb5 O33 2.008248 1_555
Nb5 O22 2.031109 1_555
Nb5 O6 2.075197 1_555
Nb5 O46 2.104111 1_555
In0 O13 2.079678 1_554
In0 O36 2.136887 1_454
In0 O43 2.166375 1_555
In0 O29 2.175484 1_554
In0 O19 2.209210 1_555
In0 O3 2.248122 1_555
In1 O9 2.079678 1_554
In1 O32 2.136887 1_554
In1 O47 2.166375 1_555
In1 O25 2.175484 1_554
In1 O23 2.209210 1_555
In1 O7 2.248122 1_555
O0 Si9 1.642067 1_555
O1 Si8 1.661203 1_555
O2 Si11 1.649079 1_555
O3 Si10 1.618638 1_555
O4 Si5 1.642067 1_545
O5 Si4 1.661203 1_545
O6 Si7 1.649079 1_565
O7 Si6 1.618638 1_565
O8 Si2 1.664638 1_555
O9 Si2 1.606164 1_555
O10 Si3 1.642446 1_555
O11 Si3 1.673099 1_555
O12 Si0 1.664638 1_545
O13 Si0 1.606164 1_445
O14 Si1 1.642446 1_565
O15 Si1 1.673099 1_665
O16 Si4 1.644948 1_555
O17 Si5 1.647391 1_555
O18 Si6 1.644732 1_555
O19 Si7 1.608781 1_555
O20 Si8 1.644948 1_555
O21 Si9 1.647391 1_555
O22 Si10 1.644732 1_555
O23 Si11 1.608781 1_555
O24 Si4 1.677827 1_555
O25 Si5 1.618720 1_555
O26 Si6 1.645655 1_555
O27 Si7 1.671638 1_555
O28 Si8 1.677827 1_555
O29 Si9 1.618720 1_555
O30 Si10 1.645655 1_555
O31 Si11 1.671638 1_555
O32 Si4 1.603148 1_555
O33 Si5 1.671038 1_555
O34 Si6 1.658869 1_555
O35 Si7 1.647909 1_555
O36 Si8 1.603148 1_555
O37 Si9 1.671038 1_555
O38 Si10 1.658869 1_555
O39 Si11 1.647909 1_555
O40 Si0 1.656692 1_455
O41 Si0 1.647822 1_555
O42 Si1 1.656640 1_655
O43 Si1 1.604338 1_555
O44 Si2 1.656692 1_555
O45 Si2 1.647822 1_555
O46 Si3 1.656640 1_555
O47 Si3 1.604338 1_555
