# generated using pymatgen
data_Ba6Mg(TiS5)2
_symmetry_space_group_name_H-M   'P 1'
_cell_length_a   9.85878387
_cell_length_b   8.46288217
_cell_length_c   9.36756015
_cell_angle_alpha   117.67647008
_cell_angle_beta   122.49174023
_cell_angle_gamma   88.60985528
_symmetry_Int_Tables_number   1
_chemical_formula_structural   Ba6Mg(TiS5)2
_chemical_formula_sum   'Ba6 Mg1 Ti2 S10'
_cell_volume   556.62811665
_cell_formula_units_Z   1
loop_
 _symmetry_equiv_pos_site_id
 _symmetry_equiv_pos_as_xyz
  1  'x, y, z'
loop_
 _atom_site_type_symbol
 _atom_site_label
 _atom_site_symmetry_multiplicity
 _atom_site_fract_x
 _atom_site_fract_y
 _atom_site_fract_z
 _atom_site_occupancy
  Ba  Ba0  1  0.67012613  0.18577651  -0.00000000  1
  Ba  Ba1  1  0.90684231  0.66357362  0.00000000  1
  Ba  Ba2  1  0.16124060  0.33142659  0.00000000  1
  Ba  Ba3  1  0.26955965  0.86871688  1.00000000  1
  Ba  Ba4  1  0.68881187  0.75057423  0.50154867  1
  Ba  Ba5  1  0.18726320  0.24902556  0.49845133  1
  Mg  Mg0  1  0.58749403  0.72681647  0.00000000  1
  Ti  Ti0  1  0.75119558  0.23595295  0.48360129  1
  Ti  Ti1  1  0.26759429  0.75235166  0.51639871  1
  S  S0  1  0.02880887  0.50367029  0.29681159  1
  S  S1  1  0.73199729  0.20685871  0.70318941  1
  S  S2  1  0.98642409  0.48633416  0.68210366  1
  S  S3  1  0.24413565  0.01291577  0.72321803  1
  S  S4  1  0.52173982  0.69266631  0.70042323  1
  S  S5  1  0.82131759  0.99224407  0.29957777  1
  S  S6  1  0.52091862  0.28969873  0.27678297  1
  S  S7  1  0.30432142  0.80423149  0.31789734  1
  S  S8  1  0.99034567  0.01085709  1.00000000  1
  S  S9  1  0.45361332  0.50974689  1.00000000  1
loop_
_geom_bond_atom_site_label_1
_geom_bond_atom_site_label_2
_geom_bond_distance
_geom_bond_site_symmetry_2
Ba0 S1 3.228413 1_554
Ba0 S0 3.228423 1_655
Ba0 S6 3.402406 1_555
Ba0 S3 3.402407 1_554
Ba0 S9 3.433570 1_554
Ba0 S8 3.454142 1_554
Ba0 S4 3.526611 1_544
Ba0 S5 3.526612 1_545
Ba1 S8 3.071312 1_564
Ba1 S2 3.168127 1_554
Ba1 S7 3.168135 1_655
Ba1 Mg0 3.180728 1_555
Ba1 S1 3.291230 1_554
Ba1 S0 3.291231 1_655
Ba1 S4 3.391192 1_554
Ba1 S5 3.391194 1_555
Ba2 S3 3.214564 1_554
Ba2 S6 3.214569 1_555
Ba2 S8 3.228070 1_454
Ba2 S9 3.285865 1_554
Ba2 S2 3.399992 1_454
Ba2 S7 3.399999 1_555
Ba2 S1 3.406289 1_454
Ba2 S0 3.406289 1_555
Ba3 S8 2.977206 1_465
Ba3 S7 3.112470 1_556
Ba3 S2 3.112470 1_455
Ba3 S3 3.240486 1_565
Ba3 S6 3.240495 1_566
Ba3 Mg0 3.329301 1_556
Ba3 S9 3.500582 1_555
Ba4 S4 3.256969 1_555
Ba4 S1 3.331704 1_565
Ba4 S7 3.342250 1_555
Ba4 S9 3.351739 1_554
Ba4 S6 3.365382 1_555
Ba4 S8 3.367782 1_565
Ba4 S2 3.786020 1_555
Ba5 S5 3.256961 1_445
Ba5 S0 3.331705 1_555
Ba5 S2 3.342255 1_455
Ba5 S9 3.351739 1_555
Ba5 S3 3.365390 1_555
Ba5 S8 3.367782 1_454
Ba5 S7 3.786017 1_545
Mg0 S9 2.287899 1_554
Mg0 S4 2.383336 1_554
Mg0 S5 2.383345 1_555
S0 Ti1 2.284451 1_555
S1 Ti0 2.284460 1_555
S2 Ti0 2.295861 1_555
S3 Ti1 2.271014 1_545
S4 Ti1 2.368915 1_555
S5 Ti0 2.368912 1_565
S6 Ti0 2.271010 1_555
S7 Ti1 2.295863 1_555
