# generated using pymatgen
data_Na6La5Nb3Si6(SO8)6
_symmetry_space_group_name_H-M   'P 1'
_cell_length_a   18.83501619
_cell_length_b   9.41370395
_cell_length_c   24.00213724
_cell_angle_alpha   90.52063502
_cell_angle_beta   89.77268213
_cell_angle_gamma   120.12833019
_symmetry_Int_Tables_number   1
_chemical_formula_structural   Na6La5Nb3Si6(SO8)6
_chemical_formula_sum   'Na18 La15 Nb9 Si18 S18 O144'
_cell_volume   3680.66245290
_cell_formula_units_Z   3
loop_
 _symmetry_equiv_pos_site_id
 _symmetry_equiv_pos_as_xyz
  1  'x, y, z'
loop_
 _atom_site_type_symbol
 _atom_site_label
 _atom_site_symmetry_multiplicity
 _atom_site_fract_x
 _atom_site_fract_y
 _atom_site_fract_z
 _atom_site_occupancy
  Na  Na0  1  0.49134486  0.69719230  0.90792960  1
  Na  Na1  1  0.15749826  0.32119491  0.90831183  1
  Na  Na2  1  0.49081167  0.29392864  0.41167461  1
  Na  Na3  1  0.97928621  0.29080897  0.40467106  1
  Na  Na4  1  0.16091971  0.01775808  0.40836685  1
  Na  Na5  1  0.66131541  0.02764806  0.41611812  1
  Na  Na6  1  0.97865963  0.96429054  0.49238215  1
  Na  Na7  1  0.49311517  0.98687766  0.49475103  1
  Na  Na8  1  0.98988882  0.00291042  0.00434584  1
  Na  Na9  1  0.49719411  0.98621105  0.99056587  1
  Na  Na10  1  0.33110087  0.32609063  0.82225091  1
  Na  Na11  1  0.83043859  0.34753513  0.83658522  1
  Na  Na12  1  0.33776303  0.32517547  0.33233428  1
  Na  Na13  1  0.84073686  0.33867468  0.33595287  1
  Na  Na14  1  0.15332402  0.65811693  0.16785147  1
  Na  Na15  1  0.66689760  0.64819032  0.17315353  1
  Na  Na16  1  0.16863039  0.66955757  0.67816868  1
  Na  Na17  1  0.66488380  0.65920989  0.66641538  1
  La  La0  1  0.99314158  0.98694986  0.34677713  1
  La  La1  1  0.49045693  0.99050472  0.34850124  1
  La  La2  1  0.99522144  0.99343765  0.85087740  1
  La  La3  1  0.49977010  0.00452220  0.84828671  1
  La  La4  1  0.33481374  0.33314437  0.68807463  1
  La  La5  1  0.83390525  0.34013101  0.68675746  1
  La  La6  1  0.33624364  0.32914814  0.18842543  1
  La  La7  1  0.84004944  0.33801724  0.18345304  1
  La  La8  1  0.33041022  0.33897048  0.97994578  1
  La  La9  1  0.33982075  0.34048700  0.47929776  1
  La  La10  1  0.83372447  0.34329781  0.47705240  1
  La  La11  1  0.16394114  0.66593254  0.01842253  1
  La  La12  1  0.66908261  0.66936245  0.02310798  1
  La  La13  1  0.16979554  0.67210369  0.52023593  1
  La  La14  1  0.66926946  0.66860303  0.51746794  1
  Nb  Nb0  1  0.00610366  0.99759811  0.65845466  1
  Nb  Nb1  1  0.50008869  0.00458889  0.66349693  1
  Nb  Nb2  1  0.00494965  0.99529905  0.15570276  1
  Nb  Nb3  1  0.51250019  0.03029317  0.15088404  1
  Nb  Nb4  1  0.83591258  0.34130410  0.98068855  1
  Nb  Nb5  1  0.16002185  0.67715885  0.30936602  1
  Nb  Nb6  1  0.66481259  0.65218805  0.32031379  1
  Nb  Nb7  1  0.16329836  0.64561986  0.81049394  1
  Nb  Nb8  1  0.66373620  0.67896134  0.80945284  1
  Si  Si0  1  0.14677203  0.99191116  0.25407361  1
  Si  Si1  1  0.00845536  0.30343415  0.25372051  1
  Si  Si2  1  0.51369950  0.31973107  0.25347912  1
  Si  Si3  1  0.14597469  0.29968102  0.75524262  1
  Si  Si4  1  0.64815771  0.31276372  0.75421330  1
  Si  Si5  1  0.00883533  0.70231124  0.75368749  1
  Si  Si6  1  0.50594419  0.71162715  0.75415743  1
  Si  Si7  1  0.34229157  0.98044088  0.75429214  1
  Si  Si8  1  0.97759687  0.64427724  0.08298864  1
  Si  Si9  1  0.68914049  0.32578017  0.08288417  1
  Si  Si10  1  0.31039902  0.66094806  0.91450761  1
  Si  Si11  1  0.01572611  0.38026827  0.91560991  1
  Si  Si12  1  0.67487878  0.96920893  0.91861388  1
  Si  Si13  1  0.30708529  0.95890360  0.41224293  1
  Si  Si14  1  0.81241314  0.96275950  0.41313665  1
  Si  Si15  1  0.66724303  0.36812958  0.41476168  1
  Si  Si16  1  0.02188156  0.66535017  0.41480450  1
  Si  Si17  1  0.52082423  0.66132455  0.41462738  1
  S  S0  1  0.64225051  0.98274068  0.24715642  1
  S  S1  1  0.34595979  0.71367108  0.24420486  1
  S  S2  1  0.84435917  0.71035031  0.24490442  1
  S  S3  1  0.84589712  0.97900037  0.74765893  1
  S  S4  1  0.48669221  0.31049255  0.58634633  1
  S  S5  1  0.98540811  0.30972186  0.58642757  1
  S  S6  1  0.16970201  0.02961360  0.58627506  1
  S  S7  1  0.66967088  0.02842753  0.58698562  1
  S  S8  1  0.34465657  0.65896245  0.58815563  1
  S  S9  1  0.84450408  0.66323521  0.58917182  1
  S  S10  1  0.48413888  0.65639414  0.08631815  1
  S  S11  1  0.34580601  0.03077546  0.08765062  1
  S  S12  1  0.84585467  0.05296441  0.08046634  1
  S  S13  1  0.17222250  0.31225186  0.08754922  1
  S  S14  1  0.80957087  0.64410681  0.91671778  1
  S  S15  1  0.52385774  0.39568229  0.91163541  1
  S  S16  1  0.16994014  0.96415873  0.91248456  1
  S  S17  1  0.16838457  0.37841530  0.41203745  1
  O  O0  1  0.11286319  0.01233383  0.31247733  1
  O  O1  1  0.60735914  0.00041831  0.29973774  1
  O  O2  1  0.38841335  0.76822808  0.29780403  1
  O  O3  1  0.88737110  0.77188785  0.29795568  1
  O  O4  1  0.50022382  0.22106798  0.30973715  1
  O  O5  1  0.99929538  0.21489946  0.31227264  1
  O  O6  1  0.10866854  0.20591812  0.81219640  1
  O  O7  1  0.61293935  0.21012697  0.80917082  1
  O  O8  1  0.49514331  0.77001154  0.81403286  1
  O  O9  1  0.99012937  0.78493014  0.80503392  1
  O  O10  1  0.39693614  0.02019533  0.80852087  1
  O  O11  1  0.88993429  0.00785794  0.80024898  1
  O  O12  1  0.40479699  0.96865223  0.70021048  1
  O  O13  1  0.89340742  0.96127282  0.70000548  1
  O  O14  1  0.07870369  0.18091014  0.70123284  1
  O  O15  1  0.57974970  0.19835375  0.70043188  1
  O  O16  1  0.01350093  0.83677689  0.69780693  1
  O  O17  1  0.51648058  0.84641941  0.70328734  1
  O  O18  1  0.39774559  0.82462351  0.19828227  1
  O  O19  1  0.89751265  0.82017331  0.19780140  1
  O  O20  1  0.01165534  0.17724170  0.20076728  1
  O  O21  1  0.51928801  0.19686796  0.19842987  1
  O  O22  1  0.07934125  0.96789999  0.20014025  1
  O  O23  1  0.58529032  0.97642359  0.19923539  1
  O  O24  1  0.43932105  0.32780275  0.63172393  1
  O  O25  1  0.94022095  0.33106859  0.63247880  1
  O  O26  1  0.22388022  0.12207429  0.63235379  1
  O  O27  1  0.72566383  0.12379969  0.63264302  1
  O  O28  1  0.33534433  0.55252125  0.63499164  1
  O  O29  1  0.83712383  0.55671863  0.63534607  1
  O  O30  1  0.43780917  0.54348463  0.13169308  1
  O  O31  1  0.93858956  0.53883501  0.13734474  1
  O  O32  1  0.33628278  0.11783064  0.13535786  1
  O  O33  1  0.83221397  0.11627321  0.13237695  1
  O  O34  1  0.22749685  0.32842512  0.13293541  1
  O  O35  1  0.73404342  0.33784251  0.13940465  1
  O  O36  1  0.20489507  0.28952932  0.03335900  1
  O  O37  1  0.74018220  0.30622869  0.02793791  1
  O  O38  1  0.44034307  0.58575949  0.03216425  1
  O  O39  1  0.91424514  0.52885426  0.02775287  1
  O  O40  1  0.35828638  0.12449361  0.03571980  1
  O  O41  1  0.85103284  0.15649540  0.03145712  1
  O  O42  1  0.20145492  0.11431898  0.53253201  1
  O  O43  1  0.70461213  0.11203893  0.53268931  1
  O  O44  1  0.35113737  0.58228678  0.53478998  1
  O  O45  1  0.85564743  0.59721027  0.53552705  1
  O  O46  1  0.44397003  0.29512941  0.53190700  1
  O  O47  1  0.94221937  0.29161958  0.53256741  1
  O  O48  1  0.26660519  0.66747471  0.97100566  1
  O  O49  1  0.77084220  0.65960049  0.96748815  1
  O  O50  1  0.07459601  0.45679177  0.96872597  1
  O  O51  1  0.56640200  0.47059591  0.96346955  1
  O  O52  1  0.16604858  0.88414860  0.96555570  1
  O  O53  1  0.66090844  0.84451767  0.96792894  1
  O  O54  1  0.26610427  0.86027096  0.46867152  1
  O  O55  1  0.77022790  0.86246005  0.46881082  1
  O  O56  1  0.16259941  0.45207544  0.46508840  1
  O  O57  1  0.65409710  0.45112080  0.46922913  1
  O  O58  1  0.07429438  0.67389234  0.46851159  1
  O  O59  1  0.56860411  0.67626698  0.47126614  1
  O  O60  1  0.07613653  0.65776843  0.35680488  1
  O  O61  1  0.57757949  0.64948967  0.35920359  1
  O  O62  1  0.24943043  0.84038976  0.35678246  1
  O  O63  1  0.75443044  0.84303633  0.35707576  1
  O  O64  1  0.17278753  0.47869300  0.36357545  1
  O  O65  1  0.67129288  0.48996780  0.35953793  1
  O  O66  1  0.06847878  0.49877641  0.85954680  1
  O  O67  1  0.57399008  0.49789667  0.86221220  1
  O  O68  1  0.17167560  0.87036886  0.86368478  1
  O  O69  1  0.68284709  0.85650762  0.86007477  1
  O  O70  1  0.24659776  0.64571928  0.86057584  1
  O  O71  1  0.76206069  0.63092959  0.86597373  1
  O  O72  1  0.01642968  0.83139858  0.41414162  1
  O  O73  1  0.51671783  0.82669129  0.40769080  1
  O  O74  1  0.40279969  0.00860224  0.41111357  1
  O  O75  1  0.90824325  0.00950404  0.41320290  1
  O  O76  1  0.09441512  0.21110178  0.41015090  1
  O  O77  1  0.58811023  0.18512658  0.40923016  1
  O  O78  1  0.00173023  0.19578751  0.90894727  1
  O  O79  1  0.50859166  0.22774982  0.90923639  1
  O  O80  1  0.09958062  0.99502627  0.91207298  1
  O  O81  1  0.59349544  0.98343407  0.91302532  1
  O  O82  1  0.40577102  0.80584315  0.91489164  1
  O  O83  1  0.89442545  0.78514892  0.91507750  1
  O  O84  1  0.49081115  0.15619562  0.59373809  1
  O  O85  1  0.98962812  0.15551418  0.59578026  1
  O  O86  1  0.08635850  0.01990408  0.59595467  1
  O  O87  1  0.58802608  0.01846165  0.59511263  1
  O  O88  1  0.42149632  0.82322682  0.59441433  1
  O  O89  1  0.92046062  0.82996789  0.59744804  1
  O  O90  1  0.48879241  0.81835348  0.09503463  1
  O  O91  1  0.98030787  0.82857607  0.09678608  1
  O  O92  1  0.42383604  0.02133606  0.09684147  1
  O  O93  1  0.92313135  0.04537975  0.08353189  1
  O  O94  1  0.08975200  0.15556229  0.09585629  1
  O  O95  1  0.59147248  0.14739059  0.09751085  1
  O  O96  1  0.32444708  0.12467381  0.73851753  1
  O  O97  1  0.82971572  0.11320327  0.73800814  1
  O  O98  1  0.23599361  0.33375113  0.74237701  1
  O  O99  1  0.73837278  0.34722703  0.73912846  1
  O  O100  1  0.43861723  0.52700486  0.74000442  1
  O  O101  1  0.93515883  0.52083746  0.74051204  1
  O  O102  1  0.33064054  0.54420119  0.23569035  1
  O  O103  1  0.82903447  0.54318481  0.23824180  1
  O  O104  1  0.43835328  0.34914398  0.24090961  1
  O  O105  1  0.93378171  0.33619996  0.24452425  1
  O  O106  1  0.23645470  0.14153098  0.24143455  1
  O  O107  1  0.72375659  0.12540331  0.24022260  1
  O  O108  1  0.30861116  0.47823191  0.91405670  1
  O  O109  1  0.81447059  0.48672603  0.92051665  1
  O  O110  1  0.44485695  0.39908084  0.90996638  1
  O  O111  1  0.92514031  0.37138464  0.92805576  1
  O  O112  1  0.24709261  0.13186441  0.91240259  1
  O  O113  1  0.76054688  0.15058880  0.92894971  1
  O  O114  1  0.30251767  0.13149889  0.41219426  1
  O  O115  1  0.80816416  0.13381929  0.41093689  1
  O  O116  1  0.24266625  0.35873183  0.41282976  1
  O  O117  1  0.75114589  0.35896339  0.41209016  1
  O  O118  1  0.43408205  0.48309522  0.41200518  1
  O  O119  1  0.93608863  0.48919995  0.41200466  1
  O  O120  1  0.15935613  0.45351755  0.08718597  1
  O  O121  1  0.66174736  0.46011491  0.07443028  1
  O  O122  1  0.07173098  0.69196838  0.07506641  1
  O  O123  1  0.56759934  0.67971781  0.08567139  1
  O  O124  1  0.27577173  0.86315006  0.08555285  1
  O  O125  1  0.77548898  0.88306857  0.07445827  1
  O  O126  1  0.15442480  0.86027040  0.58625103  1
  O  O127  1  0.65820641  0.86035686  0.58790485  1
  O  O128  1  0.27213960  0.68191072  0.58721467  1
  O  O129  1  0.77215510  0.68510056  0.58928599  1
  O  O130  1  0.07020386  0.45280741  0.58563986  1
  O  O131  1  0.57054776  0.45544898  0.58712112  1
  O  O132  1  0.14951160  0.81569557  0.25515656  1
  O  O133  1  0.64301094  0.82644964  0.24462715  1
  O  O134  1  0.26589327  0.70995221  0.24634328  1
  O  O135  1  0.76649860  0.71472275  0.24505284  1
  O  O136  1  0.09800010  0.48612963  0.25793145  1
  O  O137  1  0.60148947  0.49894189  0.25569394  1
  O  O138  1  0.14438420  0.47505069  0.75657566  1
  O  O139  1  0.65241535  0.49567243  0.76195712  1
  O  O140  1  0.09628195  0.70535009  0.75839868  1
  O  O141  1  0.59804991  0.71145795  0.75864988  1
  O  O142  1  0.25569909  0.80230025  0.75895644  1
  O  O143  1  0.76487656  0.81901602  0.75127747  1
loop_
_geom_bond_atom_site_label_1
_geom_bond_atom_site_label_2
_geom_bond_distance
_geom_bond_site_symmetry_2
Na0 O82 2.306859 1_555
Na0 O8 2.351990 1_555
Na0 O81 2.401867 1_555
Na0 O110 2.485955 1_555
Na1 O108 2.465939 1_555
Na1 O6 2.512974 1_555
Na1 O78 2.554329 1_555
Na1 O80 2.695855 1_545
Na1 O50 2.849479 1_555
Na1 O70 2.891994 1_555
Na2 O74 2.343575 1_555
Na2 O118 2.494526 1_555
Na2 O77 2.508654 1_555
Na2 O4 2.564453 1_555
Na3 O75 2.301192 1_555
Na3 O119 2.387297 1_555
Na3 O5 2.409575 1_555
Na3 O76 2.630580 1_655
Na3 O115 2.795252 1_555
Na4 O114 2.324057 1_555
Na4 O72 2.389949 1_545
Na4 O0 2.467193 1_555
Na4 O76 2.677765 1_555
Na4 O116 2.778284 1_555
Na5 O73 2.421226 1_545
Na5 O115 2.426723 1_555
Na5 O77 2.486842 1_555
Na5 O117 2.703017 1_555
Na5 O43 2.907243 1_555
Na5 O1 2.940997 1_555
Na6 O75 2.480604 1_565
Na6 O72 2.537298 1_655
Na6 O89 2.793664 1_555
Na7 O74 2.710960 1_565
Na7 O73 2.728814 1_555
Na7 O77 2.754295 1_565
Na7 O88 2.805433 1_555
Na7 O84 2.861317 1_565
Na7 O87 2.928214 1_565
Na8 O93 2.413527 1_555
Na8 O91 2.722955 1_545
Na8 O94 2.772958 1_655
Na8 O78 2.873062 1_654
Na8 O83 2.876922 1_544
Na8 O80 3.048573 1_644
Na9 O82 2.486137 1_555
Na9 O81 2.602779 1_555
Na9 O79 2.934976 1_565
Na9 O90 2.937211 1_556
Na9 O92 2.990078 1_566
Na9 O95 3.050420 1_566
Na10 O98 2.654997 1_555
Na10 O96 2.710025 1_555
Na10 O108 2.762336 1_555
Na10 O112 2.769351 1_555
Na10 O100 2.786811 1_555
Na10 O110 2.833192 1_555
Na11 O109 2.491691 1_555
Na11 O111 2.769890 1_555
Na11 O113 2.772461 1_555
Na11 O99 2.916455 1_555
Na11 O101 2.944716 1_555
Na12 O114 2.505464 1_555
Na12 O118 2.535045 1_555
Na12 O116 2.751421 1_555
Na12 O104 2.828903 1_555
Na12 O106 2.835987 1_555
Na13 O119 2.447389 1_555
Na13 O115 2.490203 1_555
Na13 O117 2.552701 1_555
Na13 O105 2.810177 1_555
Na14 O132 2.577990 1_555
Na14 O136 2.594985 1_555
Na14 O134 2.694303 1_555
Na14 O120 2.760678 1_555
Na14 O122 2.820410 1_555
Na14 O124 2.917331 1_555
Na15 O137 2.389617 1_555
Na15 O135 2.390878 1_555
Na15 O133 2.580860 1_555
Na15 O121 2.917543 1_555
Na15 O123 2.931681 1_555
Na16 O142 2.436168 1_555
Na16 O140 2.471241 1_555
Na16 O138 2.513817 1_555
Na16 O128 2.885062 1_555
Na16 O130 2.947112 1_555
Na16 O126 2.953140 1_555
Na17 O131 2.645324 1_555
Na17 O129 2.655752 1_555
Na17 O143 2.662617 1_555
Na17 O141 2.703184 1_555
Na17 O139 2.716786 1_555
Na17 O127 2.730960 1_555
La0 O5 2.255181 1_565
La0 O0 2.295131 1_665
La0 O3 2.316727 1_555
La0 O75 2.336345 1_565
La0 O72 2.375793 1_655
La0 O76 2.515729 1_665
La1 O4 2.290178 1_565
La1 O74 2.295960 1_565
La1 O73 2.334978 1_555
La1 O77 2.335424 1_565
La1 O2 2.342673 1_555
La1 O1 2.449904 1_565
La2 O9 2.201192 1_555
La2 O6 2.270705 1_665
La2 O78 2.303234 1_665
La2 O11 2.391674 1_565
La2 O80 2.452403 1_655
La2 O83 2.473488 1_555
La3 O10 2.233468 1_555
La3 O7 2.246477 1_555
La3 O8 2.309018 1_545
La3 O82 2.428179 1_545
La3 O81 2.439146 1_545
La3 O79 2.485795 1_555
La4 O96 2.238743 1_555
La4 O100 2.258920 1_555
La4 O98 2.270344 1_555
La4 O24 2.404885 1_555
La4 O26 2.430758 1_555
La4 O28 2.432135 1_555
La5 O101 2.217746 1_555
La5 O99 2.218878 1_555
La5 O29 2.367386 1_555
La5 O27 2.407431 1_555
La5 O25 2.421402 1_555
La5 O97 2.441450 1_555
La6 O106 2.227159 1_555
La6 O104 2.229953 1_555
La6 O32 2.352670 1_555
La6 O102 2.359726 1_555
La6 O30 2.395688 1_555
La6 O34 2.444740 1_555
La7 O31 2.177785 1_555
La7 O35 2.262239 1_555
La7 O105 2.305883 1_555
La7 O33 2.351115 1_555
La7 O103 2.420037 1_555
La7 O107 2.507035 1_555
La8 O108 2.229679 1_555
La8 O112 2.404853 1_555
La8 O36 2.516213 1_556
La8 O38 2.528660 1_556
La8 O110 2.559711 1_555
La8 O40 2.695018 1_556
La9 O118 2.277510 1_555
La9 O114 2.349896 1_555
La9 O116 2.503383 1_555
La9 O44 2.541811 1_555
La9 O46 2.548566 1_555
La9 O42 2.722191 1_555
La10 O117 2.264025 1_555
La10 O119 2.323374 1_555
La10 O115 2.373790 1_555
La10 O45 2.608929 1_555
La10 O43 2.673741 1_555
La10 O47 2.686902 1_555
La11 O50 2.185892 1_554
La11 O48 2.233667 1_554
La11 O122 2.308127 1_555
La11 O52 2.407627 1_554
La11 O124 2.554701 1_555
La11 O120 2.572051 1_555
La12 O53 2.189215 1_554
La12 O121 2.277315 1_555
La12 O125 2.347334 1_555
La12 O49 2.370329 1_554
La12 O51 2.372975 1_554
La12 O123 2.465703 1_555
La13 O54 2.180910 1_555
La13 O58 2.196738 1_555
La13 O56 2.393829 1_555
La13 O128 2.480341 1_555
La13 O126 2.488432 1_555
La13 O130 2.528411 1_555
La14 O55 2.201734 1_555
La14 O59 2.232792 1_555
La14 O57 2.232925 1_555
La14 O129 2.543689 1_555
La14 O127 2.545475 1_555
La14 O131 2.563113 1_555
Nb0 O16 1.855346 1_555
Nb0 O14 1.874048 1_565
Nb0 O86 2.061195 1_565
Nb0 O89 2.158180 1_455
Nb0 O13 2.208592 1_455
Nb0 O85 2.253136 1_465
Nb1 O12 1.869673 1_545
Nb1 O15 1.896848 1_555
Nb1 O17 1.927206 1_545
Nb1 O84 2.273097 1_555
Nb1 O87 2.284659 1_555
Nb1 O88 2.299225 1_545
Nb2 O22 1.883368 1_555
Nb2 O20 1.967152 1_565
Nb2 O91 1.977889 1_455
Nb2 O94 2.119618 1_565
Nb2 O19 2.121036 1_455
Nb2 O93 2.522530 1_465
Nb3 O95 1.852914 1_555
Nb3 O21 1.882807 1_555
Nb3 O23 2.050591 1_545
Nb3 O92 2.086237 1_555
Nb3 O90 2.244708 1_545
Nb3 O18 2.352455 1_545
Nb4 O39 1.982935 1_556
Nb4 O111 2.003112 1_555
Nb4 O37 2.009775 1_556
Nb4 O113 2.048295 1_555
Nb4 O109 2.172232 1_555
Nb4 O41 2.265241 1_556
Nb5 O60 1.877799 1_555
Nb5 O132 1.930027 1_555
Nb5 O62 1.969276 1_555
Nb5 O136 1.996200 1_555
Nb5 O134 2.393005 1_555
Nb5 O64 2.395609 1_555
Nb6 O65 1.856723 1_555
Nb6 O61 1.875603 1_555
Nb6 O63 1.947866 1_555
Nb6 O137 2.038638 1_555
Nb6 O135 2.477488 1_555
Nb6 O133 2.626059 1_555
Nb7 O138 1.942069 1_555
Nb7 O70 1.979909 1_555
Nb7 O66 2.005287 1_555
Nb7 O142 2.042967 1_555
Nb7 O140 2.052009 1_555
Nb7 O68 2.397604 1_555
Nb8 O141 1.873455 1_555
Nb8 O69 1.939578 1_555
Nb8 O139 1.979649 1_555
Nb8 O67 2.120400 1_555
Nb8 O143 2.192712 1_555
Nb8 O71 2.519179 1_555
O0 Si0 1.587832 1_545
O1 S0 1.466892 1_545
O2 S1 1.463596 1_555
O3 S2 1.461833 1_555
O4 Si2 1.591800 1_555
O5 Si1 1.604519 1_655
O6 Si3 1.591613 1_555
O7 Si4 1.576828 1_555
O8 Si6 1.582529 1_555
O9 Si5 1.581808 1_655
O10 Si7 1.583873 1_545
O11 S3 1.459789 1_545
O12 Si7 1.788782 1_555
O13 S3 1.508372 1_555
O14 Si3 1.760845 1_555
O15 Si4 1.755366 1_555
O16 Si5 1.824071 1_555
O17 Si6 1.706967 1_555
O18 S1 1.498971 1_555
O19 S2 1.523988 1_555
O20 Si1 1.753305 1_555
O21 Si2 1.785488 1_555
O22 Si0 1.749129 1_555
O23 S0 1.556282 1_555
O24 S4 1.464216 1_555
O25 S5 1.465161 1_555
O26 S6 1.456687 1_555
O27 S7 1.469696 1_555
O28 S8 1.463216 1_555
O29 S9 1.460170 1_555
O30 S10 1.469605 1_555
O31 Si8 1.584622 1_555
O32 S11 1.464190 1_555
O33 S12 1.453030 1_555
O34 S13 1.463091 1_555
O35 Si9 1.574318 1_555
O36 S13 1.495649 1_555
O37 Si9 1.691323 1_555
O38 S10 1.501422 1_555
O39 Si8 1.745544 1_555
O40 S11 1.482129 1_555
O41 S12 1.505862 1_555
O42 S6 1.480308 1_555
O43 S7 1.497620 1_555
O44 S8 1.498994 1_555
O45 S9 1.484088 1_555
O46 S4 1.504612 1_555
O47 S5 1.492369 1_555
O48 Si10 1.601121 1_555
O49 S14 1.461123 1_555
O50 Si11 1.602013 1_555
O51 S15 1.453264 1_555
O52 S16 1.468524 1_555
O53 Si12 1.600263 1_555
O54 Si13 1.608545 1_555
O55 Si14 1.603089 1_555
O56 S17 1.474037 1_555
O57 Si15 1.598078 1_555
O58 Si16 1.603523 1_555
O59 Si17 1.599040 1_555
O60 Si16 1.745700 1_555
O61 Si17 1.740803 1_555
O62 Si13 1.721686 1_555
O63 Si14 1.738385 1_555
O64 S17 1.480406 1_555
O65 Si15 1.737017 1_555
O66 Si11 1.716523 1_555
O67 S15 1.524612 1_555
O68 S16 1.470515 1_555
O69 Si12 1.803718 1_555
O70 Si10 1.725204 1_555
O71 S14 1.481237 1_555
O72 Si16 1.617335 1_555
O73 Si17 1.607091 1_555
O74 Si13 1.619501 1_545
O75 Si14 1.629172 1_545
O76 S17 1.490026 1_555
O77 Si15 1.620715 1_555
O78 Si11 1.626874 1_555
O79 S15 1.458523 1_555
O80 S16 1.492474 1_555
O81 Si12 1.610464 1_555
O82 Si10 1.620987 1_555
O83 S14 1.479518 1_555
O84 S4 1.505053 1_555
O85 S5 1.511932 1_555
O86 S6 1.542720 1_555
O87 S7 1.504908 1_555
O88 S8 1.503058 1_555
O89 S9 1.513982 1_555
O90 S10 1.495383 1_555
O91 Si8 1.738689 1_555
O92 S11 1.533167 1_555
O93 S12 1.494753 1_555
O94 S13 1.526795 1_555
O95 Si9 1.797712 1_555
O96 Si7 1.602597 1_545
O97 S3 1.461164 1_545
O98 Si3 1.588935 1_555
O99 Si4 1.602337 1_555
O100 Si6 1.588793 1_555
O101 Si5 1.599360 1_655
O102 S1 1.484106 1_555
O103 S2 1.457760 1_555
O104 Si2 1.606562 1_555
O105 Si1 1.600392 1_655
O106 Si0 1.595136 1_545
O107 S0 1.456153 1_545
O108 Si10 1.703318 1_555
O109 S14 1.533479 1_555
O110 S15 1.504992 1_555
O111 Si11 1.691293 1_655
O112 S16 1.516928 1_545
O113 Si12 1.676378 1_545
O114 Si13 1.669613 1_545
O115 Si14 1.653248 1_545
O116 S17 1.500897 1_555
O117 Si15 1.626323 1_555
O118 Si17 1.653886 1_555
O119 Si16 1.635329 1_655
O120 S13 1.466631 1_555
O121 Si9 1.602201 1_555
O122 Si8 1.606580 1_455
O123 S10 1.474093 1_555
O124 S11 1.463581 1_565
O125 S12 1.484811 1_565
O126 S6 1.470918 1_565
O127 S7 1.485933 1_565
O128 S8 1.486368 1_555
O129 S9 1.476769 1_555
O130 S5 1.485295 1_455
O131 S4 1.480932 1_555
O132 Si0 1.685768 1_555
O133 S0 1.479214 1_555
O134 S1 1.491478 1_555
O135 S2 1.487581 1_555
O136 Si1 1.702620 1_555
O137 Si2 1.667861 1_555
O138 Si3 1.666133 1_555
O139 Si4 1.691575 1_555
O140 Si5 1.637231 1_555
O141 Si6 1.739387 1_555
O142 Si7 1.655623 1_555
O143 S3 1.516120 1_555
