# generated using pymatgen
data_SrCl2
_symmetry_space_group_name_H-M   'P 1'
_cell_length_a   4.94938930
_cell_length_b   4.94938928
_cell_length_c   4.94939066
_cell_angle_alpha   60.00001141
_cell_angle_beta   60.00001161
_cell_angle_gamma   60.00000762
_symmetry_Int_Tables_number   1
_chemical_formula_structural   SrCl2
_chemical_formula_sum   'Sr1 Cl2'
_cell_volume   85.73142957
_cell_formula_units_Z   1
loop_
 _symmetry_equiv_pos_site_id
 _symmetry_equiv_pos_as_xyz
  1  'x, y, z'
loop_
 _atom_site_type_symbol
 _atom_site_label
 _atom_site_symmetry_multiplicity
 _atom_site_fract_x
 _atom_site_fract_y
 _atom_site_fract_z
 _atom_site_occupancy
  Sr  Sr0  1  -0.00000000  0.00000000  0.00000000  1
  Cl  Cl0  1  0.75000000  0.75000000  0.75000000  1
  Cl  Cl1  1  0.25000000  0.25000000  0.25000000  1
loop_
_geom_bond_atom_site_label_1
_geom_bond_atom_site_label_2
_geom_bond_distance
_geom_bond_site_symmetry_2
Cl0 Sr0 3.030870 1_666
Cl0 Sr0 3.030870 1_656
Cl0 Sr0 3.030870 1_566
Cl0 Sr0 3.030871 1_665
Cl1 Sr0 3.030870 1_555
Cl1 Sr0 3.030870 1_565
Cl1 Sr0 3.030870 1_655
Cl1 Sr0 3.030871 1_556
