# generated using pymatgen
data_LiBeH3
_symmetry_space_group_name_H-M   'P 1'
_cell_length_a   4.39489500
_cell_length_b   4.51740900
_cell_length_c   6.27660700
_cell_angle_alpha   90.00000000
_cell_angle_beta   90.00000000
_cell_angle_gamma   90.00000000
_symmetry_Int_Tables_number   1
_chemical_formula_structural   LiBeH3
_chemical_formula_sum   'Li4 Be4 H12'
_cell_volume   124.61285701
_cell_formula_units_Z   4
loop_
 _symmetry_equiv_pos_site_id
 _symmetry_equiv_pos_as_xyz
  1  'x, y, z'
loop_
 _atom_site_type_symbol
 _atom_site_label
 _atom_site_symmetry_multiplicity
 _atom_site_fract_x
 _atom_site_fract_y
 _atom_site_fract_z
 _atom_site_occupancy
  Li  Li0  1  0.48999300  0.45050100  0.75000000  1
  Li  Li1  1  0.98999300  0.04949900  0.25000000  1
  Li  Li2  1  0.01000700  0.95050100  0.75000000  1
  Li  Li3  1  0.51000700  0.54949900  0.25000000  1
  Be  Be0  1  0.50000000  0.00000000  0.00000000  1
  Be  Be1  1  0.00000000  0.50000000  0.00000000  1
  Be  Be2  1  0.00000000  0.50000000  0.50000000  1
  Be  Be3  1  0.50000000  0.00000000  0.50000000  1
  H  H0  1  0.57234100  0.01658100  0.75000000  1
  H  H1  1  0.07234100  0.48341900  0.25000000  1
  H  H2  1  0.92765900  0.51658100  0.75000000  1
  H  H3  1  0.42765900  0.98341900  0.25000000  1
  H  H4  1  0.29211300  0.70722500  0.53693000  1
  H  H5  1  0.79211300  0.79277500  0.46307000  1
  H  H6  1  0.20788700  0.20722500  0.96307000  1
  H  H7  1  0.70788700  0.29277500  0.03693000  1
  H  H8  1  0.29211300  0.70722500  0.96307000  1
  H  H9  1  0.79211300  0.79277500  0.03693000  1
  H  H10  1  0.20788700  0.20722500  0.53693000  1
  H  H11  1  0.70788700  0.29277500  0.46307000  1
loop_
_geom_bond_atom_site_label_1
_geom_bond_atom_site_label_2
_geom_bond_distance
_geom_bond_site_symmetry_2
Be0 H0 1.602788 1_554
Be0 H3 1.602788 1_545
Be0 H6 1.605680 1_554
Be0 H9 1.605680 1_545
Be0 H8 1.624100 1_544
Be0 H7 1.624100 1_555
Be1 H2 1.602788 1_454
Be1 H1 1.602788 1_555
Be1 H7 1.605680 1_455
Be1 H8 1.605680 1_554
Be1 H9 1.624100 1_455
Be1 H6 1.624100 1_554
Be2 H2 1.602788 1_455
Be2 H1 1.602788 1_555
Be2 H11 1.605680 1_455
Be2 H4 1.605680 1_555
Be2 H5 1.624100 1_455
Be2 H10 1.624100 1_555
Be3 H3 1.602788 1_545
Be3 H0 1.602788 1_555
Be3 H10 1.605680 1_555
Be3 H5 1.605680 1_545
Be3 H11 1.624100 1_555
Be3 H4 1.624100 1_545
H0 Li2 1.946521 1_645
H0 Li0 1.993324 1_555
H1 Li3 1.946521 1_555
H1 Li1 1.993324 1_455
H2 Li0 1.946521 1_555
H2 Li2 1.993324 1_655
H3 Li1 1.946521 1_465
H3 Li3 1.993324 1_555
H4 Li0 1.972258 1_555
H4 Li2 2.129188 1_555
H4 Li3 2.160584 1_555
H5 Li1 1.972258 1_565
H5 Li3 2.129188 1_555
H5 Li2 2.160584 1_655
H6 Li2 1.972258 1_545
H6 Li0 2.129188 1_555
H6 Li1 2.160584 1_456
H7 Li3 1.972258 1_555
H7 Li1 2.129188 1_555
H7 Li0 2.160584 1_554
H8 Li0 1.972258 1_555
H8 Li2 2.129188 1_555
H8 Li3 2.160584 1_556
H9 Li1 1.972258 1_565
H9 Li3 2.129188 1_555
H9 Li2 2.160584 1_654
H10 Li2 1.972258 1_545
H10 Li0 2.129188 1_555
H10 Li1 2.160584 1_455
H11 Li3 1.972258 1_555
H11 Li1 2.129188 1_555
H11 Li0 2.160584 1_555
