# generated using pymatgen
data_U2SnRu2
_symmetry_space_group_name_H-M   'P 1'
_cell_length_a   7.53524093
_cell_length_b   7.53524093
_cell_length_c   3.46332026
_cell_angle_alpha   90.00000000
_cell_angle_beta   90.00000000
_cell_angle_gamma   90.00000000
_symmetry_Int_Tables_number   1
_chemical_formula_structural   U2SnRu2
_chemical_formula_sum   'U4 Sn2 Ru4'
_cell_volume   196.64682521
_cell_formula_units_Z   2
loop_
 _symmetry_equiv_pos_site_id
 _symmetry_equiv_pos_as_xyz
  1  'x, y, z'
loop_
 _atom_site_type_symbol
 _atom_site_label
 _atom_site_symmetry_multiplicity
 _atom_site_fract_x
 _atom_site_fract_y
 _atom_site_fract_z
 _atom_site_occupancy
  U  U0  1  0.33203391  0.83203391  0.50000000  1
  U  U1  1  0.83203391  0.66796609  0.50000000  1
  U  U2  1  0.16796609  0.33203391  0.50000000  1
  U  U3  1  0.66796609  0.16796609  0.50000000  1
  Sn  Sn0  1  -0.00000000  -0.00000000  -0.00000000  1
  Sn  Sn1  1  0.50000000  0.50000000  -0.00000000  1
  Ru  Ru0  1  0.36332492  0.13667508  -0.00000000  1
  Ru  Ru1  1  0.86332492  0.36332492  0.00000000  1
  Ru  Ru2  1  0.13667508  0.63667508  -0.00000000  1
  Ru  Ru3  1  0.63667508  0.86332492  0.00000000  1
loop_
_geom_bond_atom_site_label_1
_geom_bond_atom_site_label_2
_geom_bond_distance
_geom_bond_site_symmetry_2
Sn0 U1 3.295502 1_444
Sn0 U1 3.295502 1_445
Sn0 U3 3.295502 1_455
Sn0 U3 3.295502 1_454
Sn0 U2 3.295502 1_554
Sn0 U0 3.295502 1_545
Sn0 U0 3.295502 1_544
Sn0 U2 3.295502 1_555
Sn1 U2 3.295502 1_554
Sn1 U2 3.295502 1_555
Sn1 U0 3.295502 1_554
Sn1 U0 3.295502 1_555
Sn1 U3 3.295502 1_555
Sn1 U3 3.295502 1_554
Sn1 U1 3.295502 1_554
Sn1 U1 3.295502 1_555
Ru0 U2 2.707889 1_555
Ru0 U2 2.707889 1_554
Ru0 U0 2.885094 1_545
Ru0 U0 2.885094 1_544
Ru0 U3 2.885094 1_554
Ru0 U3 2.885094 1_555
Ru0 Sn0 2.925043 1_555
Ru0 Sn1 2.925043 1_555
Ru1 U3 2.707889 1_555
Ru1 U3 2.707889 1_554
Ru1 U2 2.885094 1_655
Ru1 U2 2.885094 1_654
Ru1 U1 2.885094 1_554
Ru1 U1 2.885094 1_555
Ru1 Sn0 2.925043 1_655
Ru1 Sn1 2.925043 1_555
Ru2 U0 2.707889 1_555
Ru2 U0 2.707889 1_554
Ru2 U1 2.885094 1_454
Ru2 U1 2.885094 1_455
Ru2 U2 2.885094 1_555
Ru2 U2 2.885094 1_554
Ru2 Sn0 2.925043 1_565
Ru2 Sn1 2.925043 1_555
Ru3 U1 2.707889 1_554
Ru3 U1 2.707889 1_555
Ru3 U3 2.885094 1_565
Ru3 U3 2.885094 1_564
Ru3 U0 2.885094 1_555
Ru3 U0 2.885094 1_554
Ru3 Sn0 2.925043 1_665
Ru3 Sn1 2.925043 1_555
