# generated using pymatgen
data_Na2Nb4In4Si5S7O48
_symmetry_space_group_name_H-M   'P 1'
_cell_length_a   17.86608511
_cell_length_b   8.93366411
_cell_length_c   23.21447228
_cell_angle_alpha   89.99457077
_cell_angle_beta   89.89302661
_cell_angle_gamma   120.08254870
_symmetry_Int_Tables_number   1
_chemical_formula_structural   Na2Nb4In4Si5S7O48
_chemical_formula_sum   'Na6 Nb12 In12 Si15 S21 O144'
_cell_volume   3206.16262168
_cell_formula_units_Z   3
loop_
 _symmetry_equiv_pos_site_id
 _symmetry_equiv_pos_as_xyz
  1  'x, y, z'
loop_
 _atom_site_type_symbol
 _atom_site_label
 _atom_site_symmetry_multiplicity
 _atom_site_fract_x
 _atom_site_fract_y
 _atom_site_fract_z
 _atom_site_occupancy
  Na  Na0  1  0.00119900  0.99134243  0.49673223  1
  Na  Na1  1  0.49733411  0.00613229  0.99499110  1
  Na  Na2  1  0.33305270  0.31872822  0.84399996  1
  Na  Na3  1  0.83296748  0.33747244  0.83781163  1
  Na  Na4  1  0.32958777  0.32441648  0.33380035  1
  Na  Na5  1  0.84292276  0.34817828  0.33663618  1
  Nb  Nb0  1  0.50362428  0.01479552  0.35110187  1
  Nb  Nb1  1  0.00919733  0.99187889  0.85493775  1
  Nb  Nb2  1  0.50467910  0.01120169  0.64071180  1
  Nb  Nb3  1  0.00629270  0.00185895  0.14004783  1
  Nb  Nb4  1  0.33378688  0.34778451  0.68744330  1
  Nb  Nb5  1  0.83021798  0.32826582  0.69183385  1
  Nb  Nb6  1  0.33040513  0.32826678  0.18828046  1
  Nb  Nb7  1  0.83284429  0.32028231  0.18550030  1
  Nb  Nb8  1  0.16088400  0.66540328  0.02373717  1
  Nb  Nb9  1  0.66622486  0.66283239  0.02192644  1
  Nb  Nb10  1  0.16572023  0.66933599  0.52277646  1
  Nb  Nb11  1  0.66345775  0.66904761  0.52638261  1
  In  In0  1  0.00647745  0.98898957  0.35428772  1
  In  In1  1  0.50357071  0.02116619  0.85514097  1
  In  In2  1  0.00367292  0.00807428  0.65511455  1
  In  In3  1  0.50276061  0.00103171  0.15174498  1
  In  In4  1  0.32856789  0.32335887  0.97831946  1
  In  In5  1  0.83886654  0.33215069  0.98513885  1
  In  In6  1  0.33789977  0.34456324  0.48576747  1
  In  In7  1  0.83344038  0.33356075  0.48175568  1
  In  In8  1  0.15691647  0.67237483  0.31078817  1
  In  In9  1  0.66888513  0.67058138  0.30758402  1
  In  In10  1  0.16757091  0.67185009  0.80792217  1
  In  In11  1  0.65865906  0.64362671  0.81014719  1
  Si  Si0  1  0.14192826  0.99817475  0.25009557  1
  Si  Si1  1  0.64891517  0.00828341  0.24843927  1
  Si  Si2  1  0.49849015  0.29252933  0.24739190  1
  Si  Si3  1  0.14777406  0.29368546  0.74998759  1
  Si  Si4  1  0.64059187  0.28439708  0.75052324  1
  Si  Si5  1  0.99924585  0.70877899  0.74749384  1
  Si  Si6  1  0.47316120  0.32954869  0.58209963  1
  Si  Si7  1  0.69384435  0.05530789  0.58217254  1
  Si  Si8  1  0.33236306  0.62612550  0.58337419  1
  Si  Si9  1  0.97419998  0.61836924  0.08221493  1
  Si  Si10  1  0.83228336  0.03670000  0.08310078  1
  Si  Si11  1  0.19450339  0.34295207  0.08181811  1
  Si  Si12  1  0.51876923  0.37466896  0.91765008  1
  Si  Si13  1  0.17115044  0.95264899  0.91423789  1
  Si  Si14  1  0.01637723  0.66044371  0.41815133  1
  S  S0  1  0.35332631  0.70435597  0.25284136  1
  S  S1  1  0.85783399  0.70691169  0.24801375  1
  S  S2  1  0.99746367  0.28133041  0.25028227  1
  S  S3  1  0.49825343  0.71535576  0.74977109  1
  S  S4  1  0.35819252  0.00880257  0.74606787  1
  S  S5  1  0.85217372  0.00000825  0.75255694  1
  S  S6  1  0.98070584  0.33039357  0.58338417  1
  S  S7  1  0.18580127  0.04076591  0.58153198  1
  S  S8  1  0.83440803  0.63073353  0.58292712  1
  S  S9  1  0.47960926  0.62781424  0.08249133  1
  S  S10  1  0.33488564  0.03949723  0.08367961  1
  S  S11  1  0.68652640  0.33170004  0.08133527  1
  S  S12  1  0.31268379  0.67337203  0.91712348  1
  S  S13  1  0.81201812  0.66711211  0.91657329  1
  S  S14  1  0.02019943  0.37107427  0.91583847  1
  S  S15  1  0.66855410  0.95421386  0.91717922  1
  S  S16  1  0.31251624  0.95803166  0.41665157  1
  S  S17  1  0.81093268  0.95009523  0.41716953  1
  S  S18  1  0.16848735  0.38294924  0.41735959  1
  S  S19  1  0.66506062  0.37905523  0.41550419  1
  S  S20  1  0.52252361  0.66908717  0.41628551  1
  O  O0  1  0.11614627  0.06000227  0.30831341  1
  O  O1  1  0.59345640  0.03417425  0.30555483  1
  O  O2  1  0.41290442  0.79451452  0.30346933  1
  O  O3  1  0.90781476  0.77288787  0.30252490  1
  O  O4  1  0.47919416  0.15586544  0.30586982  1
  O  O5  1  0.97811188  0.17820810  0.30372990  1
  O  O6  1  0.09493266  0.15633067  0.80570648  1
  O  O7  1  0.61276202  0.16832511  0.80795196  1
  O  O8  1  0.47929590  0.78001509  0.80313211  1
  O  O9  1  0.97949011  0.80188651  0.80482407  1
  O  O10  1  0.40836440  0.04519303  0.80037658  1
  O  O11  1  0.90943032  0.03076990  0.80190174  1
  O  O12  1  0.40521306  0.99208389  0.69653840  1
  O  O13  1  0.88512094  0.97258887  0.69748494  1
  O  O14  1  0.09409291  0.22676039  0.69128659  1
  O  O15  1  0.58143735  0.17738478  0.69554241  1
  O  O16  1  0.00518091  0.80535072  0.68827104  1
  O  O17  1  0.50272798  0.81433874  0.69844932  1
  O  O18  1  0.38731644  0.80210709  0.19924393  1
  O  O19  1  0.90166058  0.81779412  0.19829215  1
  O  O20  1  0.00210294  0.19040032  0.19912215  1
  O  O21  1  0.50679489  0.20503338  0.19021028  1
  O  O22  1  0.08006228  0.98373634  0.19651288  1
  O  O23  1  0.59228783  0.96689189  0.19177756  1
  O  O24  1  0.42687741  0.36367264  0.63715485  1
  O  O25  1  0.94244976  0.36201994  0.63486146  1
  O  O26  1  0.23873310  0.12215444  0.63271164  1
  O  O27  1  0.75953137  0.14699112  0.63623004  1
  O  O28  1  0.31271991  0.49188151  0.63902299  1
  O  O29  1  0.82018546  0.52103631  0.63392060  1
  O  O30  1  0.44225950  0.52213557  0.13544161  1
  O  O31  1  0.92480108  0.49148908  0.13814059  1
  O  O32  1  0.32431282  0.12831295  0.13596279  1
  O  O33  1  0.81262896  0.13187704  0.13966389  1
  O  O34  1  0.25879907  0.37384346  0.13830147  1
  O  O35  1  0.73928570  0.35374945  0.13345844  1
  O  O36  1  0.22947853  0.28861679  0.02853321  1
  O  O37  1  0.72427763  0.30635211  0.02862642  1
  O  O38  1  0.42760339  0.54867362  0.03138004  1
  O  O39  1  0.91974367  0.55662473  0.02469152  1
  O  O40  1  0.35335020  0.14637946  0.03253148  1
  O  O41  1  0.85461490  0.15224759  0.02705070  1
  O  O42  1  0.22300518  0.13996300  0.52791741  1
  O  O43  1  0.72713493  0.16501436  0.52465539  1
  O  O44  1  0.35478359  0.55858305  0.52612387  1
  O  O45  1  0.85169567  0.56056987  0.53049815  1
  O  O46  1  0.42170508  0.28634875  0.52313100  1
  O  O47  1  0.92947930  0.30366455  0.53079705  1
  O  O48  1  0.26647329  0.68907454  0.96926408  1
  O  O49  1  0.76791041  0.68381400  0.97020167  1
  O  O50  1  0.07075496  0.45308766  0.97039246  1
  O  O51  1  0.58417690  0.48655759  0.97425085  1
  O  O52  1  0.15803758  0.83193671  0.97311006  1
  O  O53  1  0.66608218  0.84937636  0.96989412  1
  O  O54  1  0.26960106  0.85323438  0.46989173  1
  O  O55  1  0.76437718  0.84054773  0.46936296  1
  O  O56  1  0.16571789  0.48217690  0.46975323  1
  O  O57  1  0.65392830  0.46090580  0.46849961  1
  O  O58  1  0.08099790  0.67653309  0.47461090  1
  O  O59  1  0.57452531  0.68757460  0.47019237  1
  O  O60  1  0.05609662  0.62787581  0.36079499  1
  O  O61  1  0.56467850  0.64417063  0.36651704  1
  O  O62  1  0.26124600  0.87595519  0.36482257  1
  O  O63  1  0.76257991  0.86698416  0.36504235  1
  O  O64  1  0.18140558  0.48275585  0.36461555  1
  O  O65  1  0.67802867  0.48372389  0.36431421  1
  O  O66  1  0.06143762  0.47670620  0.86575787  1
  O  O67  1  0.55922737  0.48477263  0.86008800  1
  O  O68  1  0.18320424  0.86691395  0.85840340  1
  O  O69  1  0.68174847  0.88091816  0.86462907  1
  O  O70  1  0.26568109  0.65496459  0.86424199  1
  O  O71  1  0.76006132  0.64336679  0.86493301  1
  O  O72  1  0.01359663  0.84066552  0.42085595  1
  O  O73  1  0.51625103  0.82896783  0.41037777  1
  O  O74  1  0.39866585  0.96854826  0.41093709  1
  O  O75  1  0.89841004  0.96848520  0.41636445  1
  O  O76  1  0.08533928  0.21673389  0.41860178  1
  O  O77  1  0.58172012  0.20478126  0.40873762  1
  O  O78  1  0.01111489  0.19636029  0.91030178  1
  O  O79  1  0.51629987  0.18940647  0.92093270  1
  O  O80  1  0.07718325  0.95616440  0.90707392  1
  O  O81  1  0.58559247  0.95357539  0.91873833  1
  O  O82  1  0.40042363  0.83545000  0.91619177  1
  O  O83  1  0.89638567  0.82756547  0.91193760  1
  O  O84  1  0.49349328  0.17533341  0.59652933  1
  O  O85  1  0.99198086  0.17753815  0.58877499  1
  O  O86  1  0.09652114  0.00793429  0.58597120  1
  O  O87  1  0.59613015  0.01070983  0.59790847  1
  O  O88  1  0.41053492  0.81127816  0.60366499  1
  O  O89  1  0.90511858  0.81132994  0.58968692  1
  O  O90  1  0.49120046  0.80373050  0.08835307  1
  O  O91  1  0.99306479  0.81233852  0.09736649  1
  O  O92  1  0.40731918  0.00508910  0.09132120  1
  O  O93  1  0.91111860  0.01084150  0.10430688  1
  O  O94  1  0.09694272  0.18510155  0.09913826  1
  O  O95  1  0.59761452  0.18503352  0.08606512  1
  O  O96  1  0.34878260  0.16582433  0.73637968  1
  O  O97  1  0.84864139  0.16861254  0.74624701  1
  O  O98  1  0.24122321  0.29130118  0.74076331  1
  O  O99  1  0.73805739  0.30221694  0.73493549  1
  O  O100  1  0.41961733  0.53125409  0.74202217  1
  O  O101  1  0.90809907  0.51499856  0.73954586  1
  O  O102  1  0.35141791  0.53313418  0.24792135  1
  O  O103  1  0.84856340  0.53124359  0.23905867  1
  O  O104  1  0.41040059  0.30891267  0.24152973  1
  O  O105  1  0.91904485  0.30835414  0.24241401  1
  O  O106  1  0.23974951  0.17380167  0.23410547  1
  O  O107  1  0.74136186  0.19603911  0.24280485  1
  O  O108  1  0.32413225  0.52212593  0.92292155  1
  O  O109  1  0.82171361  0.51145937  0.92205853  1
  O  O110  1  0.42652000  0.36150282  0.92502849  1
  O  O111  1  0.93158894  0.35028091  0.91972775  1
  O  O112  1  0.24636406  0.14909603  0.91810068  1
  O  O113  1  0.74339050  0.13384950  0.92333165  1
  O  O114  1  0.32335456  0.13331932  0.42151036  1
  O  O115  1  0.81726351  0.12100199  0.42171106  1
  O  O116  1  0.24325302  0.35293723  0.42309969  1
  O  O117  1  0.73755912  0.34681392  0.42024778  1
  O  O118  1  0.43451473  0.51572673  0.42027872  1
  O  O119  1  0.92007677  0.49079522  0.42313855  1
  O  O120  1  0.18482142  0.51286262  0.06949005  1
  O  O121  1  0.68304010  0.49680925  0.07540476  1
  O  O122  1  0.06986849  0.63301888  0.07288147  1
  O  O123  1  0.56889256  0.64826060  0.07455093  1
  O  O124  1  0.25285577  0.86976281  0.07768359  1
  O  O125  1  0.74651103  0.84657593  0.07142329  1
  O  O126  1  0.18185649  0.86727693  0.57428963  1
  O  O127  1  0.68291614  0.85920285  0.56949563  1
  O  O128  1  0.24641124  0.64543643  0.57025912  1
  O  O129  1  0.75117911  0.63603029  0.57278391  1
  O  O130  1  0.06948505  0.48861954  0.57463819  1
  O  O131  1  0.57168782  0.50483140  0.56968339  1
  O  O132  1  0.15937827  0.83978897  0.25048724  1
  O  O133  1  0.67127126  0.86555029  0.26467075  1
  O  O134  1  0.26720399  0.67364233  0.26459279  1
  O  O135  1  0.77162199  0.68548085  0.25296992  1
  O  O136  1  0.07577257  0.45042701  0.25336592  1
  O  O137  1  0.57969400  0.46818072  0.26367238  1
  O  O138  1  0.17337163  0.48322487  0.76552086  1
  O  O139  1  0.65913434  0.47831107  0.74975719  1
  O  O140  1  0.07534040  0.67343143  0.75763520  1
  O  O141  1  0.57619069  0.70135314  0.75264220  1
  O  O142  1  0.27348550  0.85559598  0.74854000  1
  O  O143  1  0.76385427  0.85949529  0.76171500  1
loop_
_geom_bond_atom_site_label_1
_geom_bond_atom_site_label_2
_geom_bond_distance
_geom_bond_site_symmetry_2
Na0 O72 2.293809 1_555
Na0 O75 2.555768 1_455
Na0 O76 2.560982 1_565
Na0 O86 2.640859 1_565
Na0 O89 2.721661 1_455
Na0 O85 2.762904 1_465
Na1 O79 2.278696 1_555
Na1 O82 2.456587 1_545
Na1 O81 2.563648 1_545
Na1 O95 2.716334 1_556
Na1 O92 2.749328 1_556
Na1 O90 2.789030 1_546
Na2 O112 2.300222 1_555
Na2 O110 2.417647 1_555
Na2 O108 2.640784 1_555
Na2 O98 2.847302 1_555
Na2 O96 2.927375 1_555
Na2 O100 2.939876 1_555
Na3 O111 2.558189 1_555
Na3 O109 2.567831 1_555
Na3 O113 2.623112 1_555
Na3 O97 2.700789 1_555
Na3 O101 2.715621 1_555
Na3 O99 2.856210 1_555
Na4 O102 2.621226 1_555
Na4 O114 2.623109 1_555
Na4 O104 2.623161 1_555
Na4 O116 2.669035 1_555
Na4 O118 2.695980 1_555
Na4 O106 2.755427 1_555
Na5 O119 2.409581 1_555
Na5 O105 2.689730 1_555
Na5 O117 2.697136 1_555
Na5 O115 2.700508 1_555
Na5 O107 2.725333 1_555
Na5 O103 2.765724 1_555
Nb0 O4 1.853180 1_555
Nb0 O1 1.854428 1_555
Nb0 O77 2.061806 1_555
Nb0 O2 2.128841 1_545
Nb0 O74 2.197722 1_545
Nb0 O73 2.253132 1_545
Nb1 O80 1.853630 1_555
Nb1 O6 1.883616 1_565
Nb1 O9 1.901475 1_455
Nb1 O78 2.219906 1_565
Nb1 O83 2.234201 1_455
Nb1 O11 2.332946 1_465
Nb2 O84 1.880484 1_555
Nb2 O87 1.912602 1_555
Nb2 O15 1.915926 1_555
Nb2 O88 1.937209 1_545
Nb2 O12 2.133966 1_545
Nb2 O17 2.197433 1_545
Nb3 O91 1.871970 1_445
Nb3 O94 1.881712 1_555
Nb3 O22 1.924007 1_545
Nb3 O93 1.930860 1_455
Nb3 O20 2.202231 1_555
Nb3 O19 2.221539 1_445
Nb4 O28 1.883978 1_555
Nb4 O98 1.917635 1_555
Nb4 O24 1.976155 1_555
Nb4 O100 2.032557 1_555
Nb4 O96 2.107657 1_555
Nb4 O26 2.266776 1_555
Nb5 O99 1.837422 1_555
Nb5 O101 1.903920 1_555
Nb5 O27 1.959566 1_555
Nb5 O97 2.051853 1_555
Nb5 O29 2.261705 1_555
Nb5 O25 2.290114 1_555
Nb6 O106 1.847131 1_555
Nb6 O34 1.917352 1_555
Nb6 O104 1.963387 1_555
Nb6 O32 2.117510 1_555
Nb6 O102 2.172826 1_555
Nb6 O30 2.240214 1_555
Nb7 O33 1.867628 1_555
Nb7 O31 1.929018 1_555
Nb7 O107 1.961117 1_555
Nb7 O105 2.073857 1_555
Nb7 O103 2.155879 1_555
Nb7 O35 2.202597 1_555
Nb8 O122 1.884362 1_555
Nb8 O52 1.916513 1_554
Nb8 O120 1.937466 1_555
Nb8 O124 2.145275 1_555
Nb8 O50 2.161058 1_554
Nb8 O48 2.189455 1_554
Nb9 O51 1.883042 1_554
Nb9 O125 1.928316 1_555
Nb9 O53 2.059179 1_554
Nb9 O121 2.068601 1_555
Nb9 O123 2.073261 1_555
Nb9 O49 2.104253 1_554
Nb10 O58 1.910339 1_555
Nb10 O128 1.911383 1_555
Nb10 O126 2.032439 1_555
Nb10 O130 2.054574 1_555
Nb10 O56 2.076316 1_555
Nb10 O54 2.141314 1_555
Nb11 O127 1.848780 1_555
Nb11 O131 1.852863 1_555
Nb11 O129 2.042850 1_555
Nb11 O59 2.127153 1_555
Nb11 O55 2.138179 1_555
Nb11 O57 2.230731 1_555
In0 O0 2.031388 1_565
In0 O72 2.080723 1_555
In0 O3 2.207953 1_455
In0 O5 2.313545 1_465
In0 O75 2.339451 1_455
In0 O76 2.342743 1_565
In1 O7 2.038326 1_555
In1 O79 2.074249 1_555
In1 O10 2.220285 1_555
In1 O82 2.254340 1_545
In1 O8 2.313626 1_545
In1 O81 2.363622 1_545
In2 O16 1.980369 1_545
In2 O14 1.993256 1_555
In2 O13 2.207530 1_445
In2 O85 2.241683 1_455
In2 O86 2.306578 1_555
In2 O89 2.324774 1_445
In3 O21 1.998215 1_555
In3 O23 2.002408 1_545
In3 O18 2.223669 1_545
In3 O92 2.224268 1_555
In3 O90 2.225265 1_545
In3 O95 2.257434 1_555
In4 O36 2.007646 1_556
In4 O110 2.025627 1_555
In4 O112 2.061752 1_555
In4 O108 2.225838 1_555
In4 O40 2.232299 1_556
In4 O38 2.266681 1_556
In5 O39 2.013183 1_556
In5 O41 2.015675 1_556
In5 O37 2.186953 1_556
In5 O111 2.190407 1_555
In5 O113 2.255441 1_555
In5 O109 2.301675 1_555
In6 O44 2.011857 1_555
In6 O46 2.012468 1_555
In6 O42 2.177804 1_555
In6 O118 2.229960 1_555
In6 O116 2.262165 1_555
In6 O114 2.316136 1_555
In7 O43 1.997993 1_555
In7 O119 2.008176 1_555
In7 O47 2.185910 1_555
In7 O45 2.199622 1_555
In7 O115 2.254827 1_555
In7 O117 2.280289 1_555
In8 O60 2.006105 1_555
In8 O132 2.032692 1_555
In8 O136 2.221758 1_555
In8 O62 2.228507 1_555
In8 O134 2.236608 1_555
In8 O64 2.316706 1_555
In9 O133 1.988252 1_555
In9 O137 1.991429 1_555
In9 O63 2.173540 1_555
In9 O135 2.177283 1_555
In9 O65 2.195786 1_555
In9 O61 2.223419 1_555
In10 O138 1.998563 1_555
In10 O68 2.000448 1_555
In10 O140 2.027004 1_555
In10 O142 2.247558 1_555
In10 O70 2.253487 1_555
In10 O66 2.261310 1_555
In11 O67 1.994623 1_555
In11 O139 2.039494 1_555
In11 O143 2.207634 1_555
In11 O71 2.216411 1_555
In11 O141 2.233351 1_555
In11 O69 2.321529 1_555
O0 Si0 1.611421 1_545
O1 Si1 1.737291 1_555
O2 S0 1.519361 1_555
O3 S1 1.490929 1_555
O4 Si2 1.740217 1_555
O5 S2 1.478718 1_555
O6 Si3 1.704083 1_555
O7 Si4 1.606312 1_555
O8 S3 1.475666 1_555
O9 Si5 1.697204 1_555
O10 S4 1.486884 1_555
O11 S5 1.468593 1_555
O12 S4 1.473867 1_565
O13 S5 1.477422 1_565
O14 Si3 1.601394 1_555
O15 Si4 1.628607 1_555
O16 Si5 1.597883 1_455
O17 S3 1.461633 1_555
O18 S0 1.464529 1_555
O19 S1 1.464759 1_555
O20 S2 1.464447 1_455
O21 Si2 1.584561 1_555
O22 Si0 1.627219 1_555
O23 Si1 1.587613 1_565
O24 Si6 1.630656 1_555
O25 S6 1.471617 1_555
O26 S7 1.466162 1_555
O27 Si7 1.632488 1_555
O28 Si8 1.675242 1_555
O29 S8 1.474901 1_555
O30 S9 1.487522 1_555
O31 Si9 1.655854 1_555
O32 S10 1.512599 1_555
O33 Si10 1.693598 1_555
O34 Si11 1.674191 1_555
O35 S11 1.486471 1_555
O36 Si11 1.567645 1_555
O37 S11 1.467476 1_555
O38 S9 1.454898 1_555
O39 Si9 1.581473 1_555
O40 S10 1.453606 1_555
O41 Si10 1.582002 1_555
O42 S7 1.477313 1_555
O43 Si7 1.584159 1_555
O44 Si8 1.591023 1_555
O45 S8 1.470538 1_555
O46 Si6 1.586559 1_555
O47 S6 1.473123 1_555
O48 S12 1.509572 1_555
O49 S13 1.519018 1_555
O50 S14 1.515763 1_555
O51 Si12 1.710613 1_555
O52 Si13 1.682534 1_555
O53 S15 1.528010 1_555
O54 S16 1.506174 1_555
O55 S17 1.515801 1_555
O56 S18 1.520390 1_555
O57 S19 1.494270 1_555
O58 Si14 1.706100 1_555
O59 S20 1.518896 1_555
O60 Si14 1.601449 1_555
O61 S20 1.454809 1_555
O62 S16 1.468096 1_555
O63 S17 1.457044 1_555
O64 S18 1.462853 1_555
O65 S19 1.456637 1_555
O66 S14 1.443804 1_555
O67 Si12 1.599690 1_555
O68 Si13 1.574033 1_555
O69 S15 1.458206 1_555
O70 S12 1.450765 1_555
O71 S13 1.466492 1_555
O72 Si14 1.636714 1_555
O73 S20 1.493972 1_555
O74 S16 1.499898 1_555
O75 S17 1.487418 1_555
O76 S18 1.483591 1_555
O77 S19 1.530559 1_555
O78 S14 1.491719 1_555
O79 Si12 1.635171 1_555
O80 Si13 1.703232 1_555
O81 S15 1.479724 1_555
O82 S12 1.509550 1_555
O83 S13 1.473655 1_555
O84 Si6 1.626135 1_555
O85 S6 1.482167 1_555
O86 S7 1.473538 1_555
O87 Si7 1.624869 1_555
O88 Si8 1.610949 1_555
O89 S8 1.476856 1_555
O90 S9 1.484969 1_555
O91 Si9 1.629467 1_555
O92 S10 1.483340 1_555
O93 Si10 1.615015 1_555
O94 Si11 1.649723 1_555
O95 S11 1.471385 1_555
O96 S4 1.511006 1_555
O97 S5 1.545810 1_555
O98 Si3 1.693544 1_555
O99 Si4 1.705356 1_555
O100 S3 1.547826 1_555
O101 Si5 1.690517 1_555
O102 S0 1.517156 1_555
O103 S1 1.507697 1_555
O104 Si2 1.657877 1_555
O105 S2 1.547444 1_555
O106 Si0 1.703657 1_545
O107 Si1 1.667458 1_555
O108 S12 1.470637 1_555
O109 S13 1.490426 1_555
O110 Si12 1.601286 1_555
O111 S14 1.501194 1_655
O112 Si13 1.590613 1_545
O113 S15 1.494383 1_545
O114 S16 1.482761 1_545
O115 S17 1.477176 1_545
O116 S18 1.494530 1_555
O117 S19 1.465379 1_555
O118 S20 1.482512 1_555
O119 Si14 1.629631 1_655
O120 Si11 1.636840 1_555
O121 S11 1.513488 1_555
O122 Si9 1.661287 1_455
O123 S9 1.522703 1_555
O124 S10 1.496498 1_565
O125 Si10 1.642874 1_565
O126 S7 1.525119 1_565
O127 Si7 1.688612 1_565
O128 Si8 1.657683 1_555
O129 S8 1.529910 1_555
O130 S6 1.518627 1_455
O131 Si6 1.693654 1_555
O132 Si0 1.594255 1_555
O133 Si1 1.561576 1_565
O134 S0 1.446509 1_555
O135 S1 1.458092 1_555
O136 S2 1.458153 1_455
O137 Si2 1.558829 1_555
O138 Si3 1.559101 1_555
O139 Si4 1.592415 1_555
O140 Si5 1.560442 1_455
O141 S3 1.460797 1_555
O142 S4 1.445712 1_565
O143 S5 1.457327 1_565
