# generated using pymatgen
data_LiBPt3
_symmetry_space_group_name_H-M   'P 1'
_cell_length_a   18.56240572
_cell_length_b   18.56240453
_cell_length_c   5.55092788
_cell_angle_alpha   90.00000000
_cell_angle_beta   90.00000000
_cell_angle_gamma   120.00000211
_symmetry_Int_Tables_number   1
_chemical_formula_structural   LiBPt3
_chemical_formula_sum   'Li24 B24 Pt72'
_cell_volume   1656.39801448
_cell_formula_units_Z   24
loop_
 _symmetry_equiv_pos_site_id
 _symmetry_equiv_pos_as_xyz
  1  'x, y, z'
loop_
 _atom_site_type_symbol
 _atom_site_label
 _atom_site_symmetry_multiplicity
 _atom_site_fract_x
 _atom_site_fract_y
 _atom_site_fract_z
 _atom_site_occupancy
  Li  Li0_0  1  0.00000000  0.18146676  0.00000000  1
  Li  Li0_1  1  0.00000000  0.18146676  0.50000000  1
  Li  Li0_2  1  0.00000000  0.68146675  0.00000000  1
  Li  Li0_3  1  0.00000000  0.68146675  0.50000000  1
  Li  Li0_4  1  0.50000000  0.18146676  0.00000000  1
  Li  Li0_5  1  0.50000000  0.18146676  0.50000000  1
  Li  Li0_6  1  0.50000000  0.68146675  0.00000000  1
  Li  Li0_7  1  0.50000000  0.68146675  0.50000000  1
  Li  Li1_0  1  0.31853325  0.31853325  0.00000000  1
  Li  Li1_1  1  0.31853325  0.31853325  0.50000000  1
  Li  Li1_2  1  0.31853325  0.81853325  0.00000000  1
  Li  Li1_3  1  0.31853325  0.81853325  0.50000000  1
  Li  Li1_4  1  0.81853325  0.31853325  0.00000000  1
  Li  Li1_5  1  0.81853325  0.31853325  0.50000000  1
  Li  Li1_6  1  0.81853325  0.81853325  0.00000000  1
  Li  Li1_7  1  0.81853325  0.81853325  0.50000000  1
  Li  Li2_0  1  0.18146676  0.00000000  0.00000000  1
  Li  Li2_1  1  0.18146676  0.00000000  0.50000000  1
  Li  Li2_2  1  0.18146676  0.50000000  0.00000000  1
  Li  Li2_3  1  0.18146676  0.50000000  0.50000000  1
  Li  Li2_4  1  0.68146675  0.00000000  0.00000000  1
  Li  Li2_5  1  0.68146675  0.00000000  0.50000000  1
  Li  Li2_6  1  0.68146676  0.50000000  0.00000000  1
  Li  Li2_7  1  0.68146676  0.50000000  0.50000000  1
  B  B0_0  1  0.00000000  0.00000000  0.25000000  1
  B  B0_1  1  0.00000000  0.00000000  0.75000000  1
  B  B0_2  1  0.00000000  0.50000000  0.25000000  1
  B  B0_3  1  0.00000000  0.50000000  0.75000000  1
  B  B0_4  1  0.50000000  0.00000000  0.25000000  1
  B  B0_5  1  0.50000000  0.00000000  0.75000000  1
  B  B0_6  1  0.50000000  0.50000000  0.25000000  1
  B  B0_7  1  0.50000000  0.50000000  0.75000000  1
  B  B1_0  1  0.33333350  0.16666650  0.00000000  1
  B  B1_1  1  0.33333350  0.16666650  0.50000000  1
  B  B1_2  1  0.33333350  0.66666650  0.00000000  1
  B  B1_3  1  0.33333350  0.66666650  0.50000000  1
  B  B1_4  1  0.83333350  0.16666650  0.00000000  1
  B  B1_5  1  0.83333350  0.16666650  0.50000000  1
  B  B1_6  1  0.83333350  0.66666650  0.00000000  1
  B  B1_7  1  0.83333350  0.66666650  0.50000000  1
  B  B2_0  1  0.16666650  0.33333350  0.00000000  1
  B  B2_1  1  0.16666650  0.33333350  0.50000000  1
  B  B2_2  1  0.16666650  0.83333350  0.00000000  1
  B  B2_3  1  0.16666650  0.83333350  0.50000000  1
  B  B2_4  1  0.66666650  0.33333350  0.00000000  1
  B  B2_5  1  0.66666650  0.33333350  0.50000000  1
  B  B2_6  1  0.66666650  0.83333350  0.00000000  1
  B  B2_7  1  0.66666650  0.83333350  0.50000000  1
  Pt  Pt0_0  1  0.34058016  0.08240715  0.25000000  1
  Pt  Pt0_1  1  0.34058016  0.08240715  0.75000000  1
  Pt  Pt0_2  1  0.34058016  0.58240715  0.25000000  1
  Pt  Pt0_3  1  0.34058016  0.58240715  0.75000000  1
  Pt  Pt0_4  1  0.84058016  0.08240715  0.25000000  1
  Pt  Pt0_5  1  0.84058016  0.08240715  0.75000000  1
  Pt  Pt0_6  1  0.84058016  0.58240715  0.25000000  1
  Pt  Pt0_7  1  0.84058016  0.58240715  0.75000000  1
  Pt  Pt1_0  1  0.24182697  0.15941984  0.25000000  1
  Pt  Pt1_1  1  0.24182697  0.15941984  0.75000000  1
  Pt  Pt1_2  1  0.24182698  0.65941984  0.25000000  1
  Pt  Pt1_3  1  0.24182698  0.65941984  0.75000000  1
  Pt  Pt1_4  1  0.74182697  0.15941984  0.25000000  1
  Pt  Pt1_5  1  0.74182697  0.15941984  0.75000000  1
  Pt  Pt1_6  1  0.74182698  0.65941984  0.25000000  1
  Pt  Pt1_7  1  0.74182698  0.65941984  0.75000000  1
  Pt  Pt2_0  1  0.41759285  0.25817303  0.25000000  1
  Pt  Pt2_1  1  0.41759285  0.25817303  0.75000000  1
  Pt  Pt2_2  1  0.41759285  0.75817303  0.25000000  1
  Pt  Pt2_3  1  0.41759285  0.75817303  0.75000000  1
  Pt  Pt2_4  1  0.91759285  0.25817303  0.25000000  1
  Pt  Pt2_5  1  0.91759285  0.25817303  0.75000000  1
  Pt  Pt2_6  1  0.91759285  0.75817303  0.25000000  1
  Pt  Pt2_7  1  0.91759285  0.75817303  0.75000000  1
  Pt  Pt3_0  1  0.08240714  0.34058016  0.25000000  1
  Pt  Pt3_1  1  0.08240714  0.34058016  0.75000000  1
  Pt  Pt3_2  1  0.08240715  0.84058016  0.25000000  1
  Pt  Pt3_3  1  0.08240715  0.84058016  0.75000000  1
  Pt  Pt3_4  1  0.58240714  0.34058016  0.25000000  1
  Pt  Pt3_5  1  0.58240714  0.34058016  0.75000000  1
  Pt  Pt3_6  1  0.58240715  0.84058016  0.25000000  1
  Pt  Pt3_7  1  0.58240715  0.84058016  0.75000000  1
  Pt  Pt4_0  1  0.15941984  0.24182697  0.25000000  1
  Pt  Pt4_1  1  0.15941984  0.24182697  0.75000000  1
  Pt  Pt4_2  1  0.15941984  0.74182697  0.25000000  1
  Pt  Pt4_3  1  0.15941984  0.74182697  0.75000000  1
  Pt  Pt4_4  1  0.65941983  0.24182697  0.25000000  1
  Pt  Pt4_5  1  0.65941983  0.24182697  0.75000000  1
  Pt  Pt4_6  1  0.65941984  0.74182697  0.25000000  1
  Pt  Pt4_7  1  0.65941984  0.74182697  0.75000000  1
  Pt  Pt5_0  1  0.25817303  0.41759285  0.25000000  1
  Pt  Pt5_1  1  0.25817303  0.41759285  0.75000000  1
  Pt  Pt5_2  1  0.25817303  0.91759285  0.25000000  1
  Pt  Pt5_3  1  0.25817303  0.91759285  0.75000000  1
  Pt  Pt5_4  1  0.75817302  0.41759285  0.25000000  1
  Pt  Pt5_5  1  0.75817302  0.41759285  0.75000000  1
  Pt  Pt5_6  1  0.75817302  0.91759285  0.25000000  1
  Pt  Pt5_7  1  0.75817302  0.91759285  0.75000000  1
  Pt  Pt6_0  1  0.00000000  0.41128666  0.00000000  1
  Pt  Pt6_1  1  0.00000000  0.41128666  0.50000000  1
  Pt  Pt6_2  1  0.00000000  0.91128666  0.00000000  1
  Pt  Pt6_3  1  0.00000000  0.91128666  0.50000000  1
  Pt  Pt6_4  1  0.50000000  0.41128666  0.00000000  1
  Pt  Pt6_5  1  0.50000000  0.41128666  0.50000000  1
  Pt  Pt6_6  1  0.50000000  0.91128666  0.00000000  1
  Pt  Pt6_7  1  0.50000000  0.91128666  0.50000000  1
  Pt  Pt7_0  1  0.08871334  0.08871334  0.00000000  1
  Pt  Pt7_1  1  0.08871334  0.08871334  0.50000000  1
  Pt  Pt7_2  1  0.08871335  0.58871335  0.00000000  1
  Pt  Pt7_3  1  0.08871335  0.58871335  0.50000000  1
  Pt  Pt7_4  1  0.58871334  0.08871334  0.00000000  1
  Pt  Pt7_5  1  0.58871334  0.08871334  0.50000000  1
  Pt  Pt7_6  1  0.58871335  0.58871335  0.00000000  1
  Pt  Pt7_7  1  0.58871335  0.58871335  0.50000000  1
  Pt  Pt8_0  1  0.41128666  0.00000000  0.00000000  1
  Pt  Pt8_1  1  0.41128666  0.00000000  0.50000000  1
  Pt  Pt8_2  1  0.41128666  0.50000000  0.00000000  1
  Pt  Pt8_3  1  0.41128666  0.50000000  0.50000000  1
  Pt  Pt8_4  1  0.91128665  0.00000000  0.00000000  1
  Pt  Pt8_5  1  0.91128665  0.00000000  0.50000000  1
  Pt  Pt8_6  1  0.91128665  0.50000000  0.00000000  1
  Pt  Pt8_7  1  0.91128665  0.50000000  0.50000000  1
loop_
_geom_bond_atom_site_label_1
_geom_bond_atom_site_label_2
_geom_bond_distance
_geom_bond_site_symmetry_2
Li0_0 Li0_1 2.775464 1_554
Li0_0 Li0_1 2.775464 1_555
Li0_0 Pt3_1 2.910514 1_554
Li0_0 Pt3_0 2.910514 1_555
Li0_0 Pt2_4 2.910514 1_455
Li0_0 Pt2_5 2.910514 1_454
Li0_0 Pt8_4 2.917412 1_455
Li0_0 Pt7_0 2.917412 1_555
Li0_0 Pt0_4 2.936414 1_455
Li0_0 Pt0_5 2.936414 1_454
Li0_0 Pt4_1 2.936414 1_554
Li0_0 Pt4_0 2.936414 1_555
Li0_1 Pt3_1 2.910514 1_555
Li0_1 Pt3_0 2.910514 1_555
Li0_1 Pt2_4 2.910514 1_455
Li0_1 Pt2_5 2.910514 1_455
Li0_1 Pt8_5 2.917412 1_455
Li0_1 Pt7_1 2.917412 1_555
Li0_1 Pt0_4 2.936414 1_455
Li0_1 Pt0_5 2.936414 1_455
Li0_1 Pt4_1 2.936414 1_555
Li0_1 Pt4_0 2.936414 1_555
Li0_2 Li0_3 2.775464 1_554
Li0_2 Li0_3 2.775464 1_555
Li0_2 Pt3_3 2.910514 1_554
Li0_2 Pt3_2 2.910514 1_555
Li0_2 Pt2_6 2.910514 1_455
Li0_2 Pt2_7 2.910514 1_454
Li0_2 Pt8_6 2.917412 1_455
Li0_2 Pt7_2 2.917412 1_555
Li0_2 Pt0_7 2.936414 1_454
Li0_2 Pt0_6 2.936414 1_455
Li0_2 Pt4_2 2.936414 1_555
Li0_2 Pt4_3 2.936414 1_554
Li0_3 Pt3_3 2.910514 1_555
Li0_3 Pt3_2 2.910514 1_555
Li0_3 Pt2_7 2.910514 1_455
Li0_3 Pt2_6 2.910514 1_455
Li0_3 Pt8_7 2.917412 1_455
Li0_3 Pt7_3 2.917412 1_555
Li0_3 Pt0_7 2.936414 1_455
Li0_3 Pt0_6 2.936414 1_455
Li0_3 Pt4_2 2.936414 1_555
Li0_3 Pt4_3 2.936414 1_555
Li0_4 Li0_5 2.775464 1_555
Li0_4 Li0_5 2.775464 1_554
Li0_4 Pt3_4 2.910514 1_555
Li0_4 Pt3_5 2.910514 1_554
Li0_4 Pt2_0 2.910514 1_555
Li0_4 Pt2_1 2.910514 1_554
Li0_4 Pt8_0 2.917412 1_555
Li0_4 Pt7_4 2.917412 1_555
Li0_4 Pt0_0 2.936414 1_555
Li0_4 Pt0_1 2.936414 1_554
Li0_4 Pt4_5 2.936414 1_554
Li0_4 Pt4_4 2.936414 1_555
Li0_5 Pt3_5 2.910514 1_555
Li0_5 Pt3_4 2.910514 1_555
Li0_5 Pt2_0 2.910514 1_555
Li0_5 Pt2_1 2.910514 1_555
Li0_5 Pt8_1 2.917412 1_555
Li0_5 Pt7_5 2.917412 1_555
Li0_5 Pt0_0 2.936414 1_555
Li0_5 Pt0_1 2.936414 1_555
Li0_5 Pt4_4 2.936414 1_555
Li0_5 Pt4_5 2.936414 1_555
Li0_6 Li0_7 2.775464 1_554
Li0_6 Li0_7 2.775464 1_555
Li0_6 Pt3_7 2.910514 1_554
Li0_6 Pt3_6 2.910514 1_555
Li0_6 Pt2_3 2.910514 1_554
Li0_6 Pt2_2 2.910514 1_555
Li0_6 Pt8_2 2.917412 1_555
Li0_6 Pt7_6 2.917412 1_555
Li0_6 Pt0_3 2.936414 1_554
Li0_6 Pt0_2 2.936414 1_555
Li0_6 Pt4_7 2.936414 1_554
Li0_6 Pt4_6 2.936414 1_555
Li0_7 Pt3_6 2.910514 1_555
Li0_7 Pt3_7 2.910514 1_555
Li0_7 Pt2_2 2.910514 1_555
Li0_7 Pt2_3 2.910514 1_555
Li0_7 Pt8_3 2.917412 1_555
Li0_7 Pt7_7 2.917412 1_555
Li0_7 Pt0_2 2.936414 1_555
Li0_7 Pt0_3 2.936414 1_555
Li0_7 Pt4_6 2.936414 1_555
Li0_7 Pt4_7 2.936414 1_555
Li1_0 Li1_1 2.775464 1_554
Li1_0 Li1_1 2.775464 1_555
Li1_0 Pt1_0 2.910514 1_555
Li1_0 Pt1_1 2.910514 1_554
Li1_0 Pt4_1 2.910514 1_554
Li1_0 Pt4_0 2.910514 1_555
Li1_0 Pt8_2 2.917412 1_555
Li1_0 Pt6_4 2.917412 1_555
Li1_0 Pt5_1 2.936414 1_554
Li1_0 Pt5_0 2.936414 1_555
Li1_0 Pt2_1 2.936414 1_554
Li1_0 Pt2_0 2.936414 1_555
Li1_1 Pt1_0 2.910514 1_555
Li1_1 Pt1_1 2.910514 1_555
Li1_1 Pt4_0 2.910514 1_555
Li1_1 Pt4_1 2.910514 1_555
Li1_1 Pt8_3 2.917412 1_555
Li1_1 Pt6_5 2.917412 1_555
Li1_1 Pt5_0 2.936414 1_555
Li1_1 Pt5_1 2.936414 1_555
Li1_1 Pt2_1 2.936414 1_555
Li1_1 Pt2_0 2.936414 1_555
Li1_2 Li1_3 2.775464 1_555
Li1_2 Li1_3 2.775464 1_554
Li1_2 Pt1_3 2.910514 1_554
Li1_2 Pt1_2 2.910514 1_555
Li1_2 Pt4_3 2.910514 1_554
Li1_2 Pt4_2 2.910514 1_555
Li1_2 Pt8_0 2.917412 1_565
Li1_2 Pt6_6 2.917412 1_555
Li1_2 Pt5_2 2.936414 1_555
Li1_2 Pt5_3 2.936414 1_554
Li1_2 Pt2_3 2.936414 1_554
Li1_2 Pt2_2 2.936414 1_555
Li1_3 Pt1_2 2.910514 1_555
Li1_3 Pt1_3 2.910514 1_555
Li1_3 Pt4_2 2.910514 1_555
Li1_3 Pt4_3 2.910514 1_555
Li1_3 Pt8_1 2.917412 1_565
Li1_3 Pt6_7 2.917412 1_555
Li1_3 Pt5_2 2.936414 1_555
Li1_3 Pt5_3 2.936414 1_555
Li1_3 Pt2_3 2.936414 1_555
Li1_3 Pt2_2 2.936414 1_555
Li1_4 Li1_5 2.775464 1_554
Li1_4 Li1_5 2.775464 1_555
Li1_4 Pt1_4 2.910514 1_555
Li1_4 Pt1_5 2.910514 1_554
Li1_4 Pt4_4 2.910514 1_555
Li1_4 Pt4_5 2.910514 1_554
Li1_4 Pt8_6 2.917412 1_555
Li1_4 Pt6_0 2.917412 1_655
Li1_4 Pt5_4 2.936414 1_555
Li1_4 Pt5_5 2.936414 1_554
Li1_4 Pt2_5 2.936414 1_554
Li1_4 Pt2_4 2.936414 1_555
Li1_5 Pt1_4 2.910514 1_555
Li1_5 Pt1_5 2.910514 1_555
Li1_5 Pt4_4 2.910514 1_555
Li1_5 Pt4_5 2.910514 1_555
Li1_5 Pt8_7 2.917412 1_555
Li1_5 Pt6_1 2.917412 1_655
Li1_5 Pt5_4 2.936414 1_555
Li1_5 Pt5_5 2.936414 1_555
Li1_5 Pt2_5 2.936414 1_555
Li1_5 Pt2_4 2.936414 1_555
Li1_6 Li1_7 2.775464 1_555
Li1_6 Li1_7 2.775464 1_554
Li1_6 Pt1_6 2.910514 1_555
Li1_6 Pt1_7 2.910514 1_554
Li1_6 Pt4_7 2.910514 1_554
Li1_6 Pt4_6 2.910514 1_555
Li1_6 Pt8_4 2.917412 1_565
Li1_6 Pt6_2 2.917412 1_655
Li1_6 Pt5_7 2.936414 1_554
Li1_6 Pt5_6 2.936414 1_555
Li1_6 Pt2_7 2.936414 1_554
Li1_6 Pt2_6 2.936414 1_555
Li1_7 Pt1_6 2.910514 1_555
Li1_7 Pt1_7 2.910514 1_555
Li1_7 Pt4_6 2.910514 1_555
Li1_7 Pt4_7 2.910514 1_555
Li1_7 Pt8_5 2.917412 1_565
Li1_7 Pt6_3 2.917412 1_655
Li1_7 Pt5_7 2.936414 1_555
Li1_7 Pt5_6 2.936414 1_555
Li1_7 Pt2_7 2.936414 1_555
Li1_7 Pt2_6 2.936414 1_555
Li2_0 Li2_1 2.775464 1_555
Li2_0 Li2_1 2.775464 1_554
Li2_0 Pt0_0 2.910514 1_555
Li2_0 Pt0_1 2.910514 1_554
Li2_0 Pt5_3 2.910514 1_544
Li2_0 Pt5_2 2.910514 1_545
Li2_0 Pt6_2 2.917412 1_545
Li2_0 Pt7_0 2.917412 1_555
Li2_0 Pt3_3 2.936414 1_544
Li2_0 Pt3_2 2.936414 1_545
Li2_0 Pt1_1 2.936414 1_554
Li2_0 Pt1_0 2.936414 1_555
Li2_1 Pt0_0 2.910514 1_555
Li2_1 Pt0_1 2.910514 1_555
Li2_1 Pt5_3 2.910514 1_545
Li2_1 Pt5_2 2.910514 1_545
Li2_1 Pt6_3 2.917412 1_545
Li2_1 Pt7_1 2.917412 1_555
Li2_1 Pt3_3 2.936414 1_545
Li2_1 Pt3_2 2.936414 1_545
Li2_1 Pt1_0 2.936414 1_555
Li2_1 Pt1_1 2.936414 1_555
Li2_2 Li2_3 2.775464 1_555
Li2_2 Li2_3 2.775464 1_554
Li2_2 Pt0_2 2.910514 1_555
Li2_2 Pt0_3 2.910514 1_554
Li2_2 Pt5_1 2.910514 1_554
Li2_2 Pt5_0 2.910514 1_555
Li2_2 Pt6_0 2.917412 1_555
Li2_2 Pt7_2 2.917412 1_555
Li2_2 Pt3_1 2.936414 1_554
Li2_2 Pt3_0 2.936414 1_555
Li2_2 Pt1_2 2.936414 1_555
Li2_2 Pt1_3 2.936414 1_554
Li2_3 Pt0_2 2.910514 1_555
Li2_3 Pt0_3 2.910514 1_555
Li2_3 Pt5_1 2.910514 1_555
Li2_3 Pt5_0 2.910514 1_555
Li2_3 Pt6_1 2.917412 1_555
Li2_3 Pt7_3 2.917412 1_555
Li2_3 Pt3_1 2.936414 1_555
Li2_3 Pt3_0 2.936414 1_555
Li2_3 Pt1_2 2.936414 1_555
Li2_3 Pt1_3 2.936414 1_555
Li2_4 Li2_5 2.775464 1_555
Li2_4 Li2_5 2.775464 1_554
Li2_4 Pt0_5 2.910514 1_554
Li2_4 Pt0_4 2.910514 1_555
Li2_4 Pt5_7 2.910514 1_544
Li2_4 Pt5_6 2.910514 1_545
Li2_4 Pt6_6 2.917412 1_545
Li2_4 Pt7_4 2.917412 1_555
Li2_4 Pt3_6 2.936414 1_545
Li2_4 Pt3_7 2.936414 1_544
Li2_4 Pt1_4 2.936414 1_555
Li2_4 Pt1_5 2.936414 1_554
Li2_5 Pt0_4 2.910514 1_555
Li2_5 Pt0_5 2.910514 1_555
Li2_5 Pt5_7 2.910514 1_545
Li2_5 Pt5_6 2.910514 1_545
Li2_5 Pt6_7 2.917412 1_545
Li2_5 Pt7_5 2.917412 1_555
Li2_5 Pt3_6 2.936414 1_545
Li2_5 Pt3_7 2.936414 1_545
Li2_5 Pt1_4 2.936414 1_555
Li2_5 Pt1_5 2.936414 1_555
Li2_6 Li2_7 2.775464 1_555
Li2_6 Li2_7 2.775464 1_554
Li2_6 Pt0_6 2.910514 1_555
Li2_6 Pt0_7 2.910514 1_554
Li2_6 Pt5_5 2.910514 1_554
Li2_6 Pt5_4 2.910514 1_555
Li2_6 Pt6_4 2.917412 1_555
Li2_6 Pt7_6 2.917412 1_555
Li2_6 Pt3_5 2.936414 1_554
Li2_6 Pt3_4 2.936414 1_555
Li2_6 Pt1_6 2.936414 1_555
Li2_6 Pt1_7 2.936414 1_554
Li2_7 Pt0_6 2.910514 1_555
Li2_7 Pt0_7 2.910514 1_555
Li2_7 Pt5_4 2.910514 1_555
Li2_7 Pt5_5 2.910514 1_555
Li2_7 Pt6_5 2.917412 1_555
Li2_7 Pt7_7 2.917412 1_555
Li2_7 Pt3_4 2.936414 1_555
Li2_7 Pt3_5 2.936414 1_555
Li2_7 Pt1_6 2.936414 1_555
Li2_7 Pt1_7 2.936414 1_555
B0_0 Pt6_2 2.153492 1_545
B0_0 Pt6_3 2.153492 1_545
B0_0 Pt7_0 2.153492 1_555
B0_0 Pt7_1 2.153492 1_555
B0_0 Pt8_5 2.153492 1_455
B0_0 Pt8_4 2.153492 1_455
B0_1 Pt6_3 2.153492 1_545
B0_1 Pt6_2 2.153492 1_546
B0_1 Pt7_0 2.153492 1_556
B0_1 Pt7_1 2.153492 1_555
B0_1 Pt8_5 2.153492 1_455
B0_1 Pt8_4 2.153492 1_456
B0_2 Pt6_0 2.153492 1_555
B0_2 Pt6_1 2.153492 1_555
B0_2 Pt7_2 2.153492 1_555
B0_2 Pt7_3 2.153492 1_555
B0_2 Pt8_6 2.153492 1_455
B0_2 Pt8_7 2.153492 1_455
B0_3 Pt6_1 2.153492 1_555
B0_3 Pt6_0 2.153492 1_556
B0_3 Pt7_2 2.153492 1_556
B0_3 Pt7_3 2.153492 1_555
B0_3 Pt8_7 2.153492 1_455
B0_3 Pt8_6 2.153492 1_456
B0_4 Pt6_6 2.153492 1_545
B0_4 Pt6_7 2.153492 1_545
B0_4 Pt7_4 2.153492 1_555
B0_4 Pt7_5 2.153492 1_555
B0_4 Pt8_0 2.153492 1_555
B0_4 Pt8_1 2.153492 1_555
B0_5 Pt6_7 2.153492 1_545
B0_5 Pt6_6 2.153492 1_546
B0_5 Pt7_4 2.153492 1_556
B0_5 Pt7_5 2.153492 1_555
B0_5 Pt8_0 2.153492 1_556
B0_5 Pt8_1 2.153492 1_555
B0_6 Pt6_4 2.153492 1_555
B0_6 Pt6_5 2.153492 1_555
B0_6 Pt7_6 2.153492 1_555
B0_6 Pt7_7 2.153492 1_555
B0_6 Pt8_2 2.153492 1_555
B0_6 Pt8_3 2.153492 1_555
B0_7 Pt6_4 2.153492 1_556
B0_7 Pt6_5 2.153492 1_555
B0_7 Pt7_6 2.153492 1_556
B0_7 Pt7_7 2.153492 1_555
B0_7 Pt8_2 2.153492 1_556
B0_7 Pt8_3 2.153492 1_555
B1_0 Pt0_1 2.144891 1_554
B1_0 Pt0_0 2.144891 1_555
B1_0 Pt2_1 2.144895 1_554
B1_0 Pt2_0 2.144895 1_555
B1_0 Pt1_0 2.144898 1_555
B1_0 Pt1_1 2.144898 1_554
B1_1 Pt0_1 2.144891 1_555
B1_1 Pt0_0 2.144891 1_555
B1_1 Pt2_1 2.144895 1_555
B1_1 Pt2_0 2.144895 1_555
B1_1 Pt1_0 2.144898 1_555
B1_1 Pt1_1 2.144898 1_555
B1_2 Pt0_2 2.144891 1_555
B1_2 Pt0_3 2.144891 1_554
B1_2 Pt2_2 2.144895 1_555
B1_2 Pt2_3 2.144895 1_554
B1_2 Pt1_3 2.144898 1_554
B1_2 Pt1_2 2.144898 1_555
B1_3 Pt0_2 2.144891 1_555
B1_3 Pt0_3 2.144891 1_555
B1_3 Pt2_2 2.144895 1_555
B1_3 Pt2_3 2.144895 1_555
B1_3 Pt1_2 2.144898 1_555
B1_3 Pt1_3 2.144898 1_555
B1_4 Pt0_5 2.144891 1_554
B1_4 Pt0_4 2.144891 1_555
B1_4 Pt2_4 2.144895 1_555
B1_4 Pt2_5 2.144895 1_554
B1_4 Pt1_4 2.144898 1_555
B1_4 Pt1_5 2.144898 1_554
B1_5 Pt0_4 2.144891 1_555
B1_5 Pt0_5 2.144891 1_555
B1_5 Pt2_4 2.144895 1_555
B1_5 Pt2_5 2.144895 1_555
B1_5 Pt1_4 2.144898 1_555
B1_5 Pt1_5 2.144898 1_555
B1_6 Pt0_6 2.144891 1_555
B1_6 Pt0_7 2.144891 1_554
B1_6 Pt2_7 2.144895 1_554
B1_6 Pt2_6 2.144895 1_555
B1_6 Pt1_6 2.144898 1_555
B1_6 Pt1_7 2.144898 1_554
B1_7 Pt0_6 2.144891 1_555
B1_7 Pt0_7 2.144891 1_555
B1_7 Pt2_7 2.144895 1_555
B1_7 Pt2_6 2.144895 1_555
B1_7 Pt1_6 2.144898 1_555
B1_7 Pt1_7 2.144898 1_555
B2_0 Pt3_1 2.144891 1_554
B2_0 Pt3_0 2.144891 1_555
B2_0 Pt5_1 2.144895 1_554
B2_0 Pt5_0 2.144895 1_555
B2_0 Pt4_0 2.144898 1_555
B2_0 Pt4_1 2.144898 1_554
B2_1 Pt3_1 2.144891 1_555
B2_1 Pt3_0 2.144891 1_555
B2_1 Pt5_0 2.144895 1_555
B2_1 Pt5_1 2.144895 1_555
B2_1 Pt4_0 2.144898 1_555
B2_1 Pt4_1 2.144898 1_555
B2_2 Pt3_2 2.144891 1_555
B2_2 Pt3_3 2.144891 1_554
B2_2 Pt5_2 2.144895 1_555
B2_2 Pt5_3 2.144895 1_554
B2_2 Pt4_3 2.144898 1_554
B2_2 Pt4_2 2.144898 1_555
B2_3 Pt3_2 2.144891 1_555
B2_3 Pt3_3 2.144891 1_555
B2_3 Pt5_2 2.144895 1_555
B2_3 Pt5_3 2.144895 1_555
B2_3 Pt4_2 2.144898 1_555
B2_3 Pt4_3 2.144898 1_555
B2_4 Pt3_4 2.144891 1_555
B2_4 Pt3_5 2.144891 1_554
B2_4 Pt5_5 2.144895 1_554
B2_4 Pt5_4 2.144895 1_555
B2_4 Pt4_4 2.144898 1_555
B2_4 Pt4_5 2.144898 1_554
B2_5 Pt3_4 2.144891 1_555
B2_5 Pt3_5 2.144891 1_555
B2_5 Pt5_5 2.144895 1_555
B2_5 Pt5_4 2.144895 1_555
B2_5 Pt4_4 2.144898 1_555
B2_5 Pt4_5 2.144898 1_555
B2_6 Pt3_7 2.144891 1_554
B2_6 Pt3_6 2.144891 1_555
B2_6 Pt5_7 2.144895 1_554
B2_6 Pt5_6 2.144895 1_555
B2_6 Pt4_6 2.144898 1_555
B2_6 Pt4_7 2.144898 1_554
B2_7 Pt3_6 2.144891 1_555
B2_7 Pt3_7 2.144891 1_555
B2_7 Pt5_7 2.144895 1_555
B2_7 Pt5_6 2.144895 1_555
B2_7 Pt4_7 2.144898 1_555
B2_7 Pt4_6 2.144898 1_555
