# generated using pymatgen
data_Na7Ti2Si5Sn2PO24
_symmetry_space_group_name_H-M   'P 1'
_cell_length_a   8.99751216
_cell_length_b   9.00903516
_cell_length_c   22.36813646
_cell_angle_alpha   90.02105698
_cell_angle_beta   89.82396843
_cell_angle_gamma   119.98685014
_symmetry_Int_Tables_number   1
_chemical_formula_structural   Na7Ti2Si5Sn2PO24
_chemical_formula_sum   'Na21 Ti6 Si15 Sn6 P3 O72'
_cell_volume   1570.42155142
_cell_formula_units_Z   3
loop_
 _symmetry_equiv_pos_site_id
 _symmetry_equiv_pos_as_xyz
  1  'x, y, z'
loop_
 _atom_site_type_symbol
 _atom_site_label
 _atom_site_symmetry_multiplicity
 _atom_site_fract_x
 _atom_site_fract_y
 _atom_site_fract_z
 _atom_site_occupancy
  Na  Na0  1  0.63579534  0.00146773  0.24984691  1
  Na  Na1  1  0.36540045  0.36698387  0.24991933  1
  Na  Na2  1  0.00007526  0.63281773  0.25014018  1
  Na  Na3  1  0.63114005  0.63377269  0.75053214  1
  Na  Na4  1  0.00136815  0.36597931  0.75051961  1
  Na  Na5  1  0.36651905  0.00009325  0.75068373  1
  Na  Na6  1  0.30083604  0.33580258  0.58271534  1
  Na  Na7  1  0.03329201  0.69853785  0.58290869  1
  Na  Na8  1  0.66694156  0.96704761  0.58291365  1
  Na  Na9  1  0.29846849  0.96554872  0.08232481  1
  Na  Na10  1  0.03668863  0.33743738  0.08402866  1
  Na  Na11  1  0.96618625  0.66578144  0.91740754  1
  Na  Na12  1  0.33591700  0.29913028  0.91729490  1
  Na  Na13  1  0.33132181  0.03177496  0.41665232  1
  Na  Na14  1  0.70074350  0.66623209  0.41708055  1
  Na  Na15  1  0.99786973  0.00544723  0.49959827  1
  Na  Na16  1  0.98858518  0.99453335  0.00009733  1
  Na  Na17  1  0.66714287  0.32484343  0.83531874  1
  Na  Na18  1  0.67516667  0.33154466  0.33284428  1
  Na  Na19  1  0.34089229  0.66584047  0.16562152  1
  Na  Na20  1  0.33420543  0.66546151  0.66675181  1
  Ti  Ti0  1  0.66801815  0.34234810  0.18597885  1
  Ti  Ti1  1  0.66649377  0.32794047  0.98195996  1
  Ti  Ti2  1  0.32686901  0.65892185  0.01815853  1
  Ti  Ti3  1  0.33482093  0.67293108  0.51927397  1
  Ti  Ti4  1  0.32995747  0.67183414  0.31364910  1
  Ti  Ti5  1  0.32846331  0.67069370  0.81445668  1
  Si  Si0  1  0.29547903  0.00168868  0.25005980  1
  Si  Si1  1  0.70538214  0.70682777  0.25058644  1
  Si  Si2  1  0.99981059  0.29409998  0.24912603  1
  Si  Si3  1  0.29403935  0.29605807  0.75108852  1
  Si  Si4  1  0.00051919  0.70729836  0.75123545  1
  Si  Si5  1  0.70480294  0.99758405  0.75075812  1
  Si  Si6  1  0.96325006  0.33513737  0.58315096  1
  Si  Si7  1  0.37435345  0.04038272  0.58213847  1
  Si  Si8  1  0.66446377  0.62598810  0.58216632  1
  Si  Si9  1  0.95298280  0.62268148  0.08205658  1
  Si  Si10  1  0.38184486  0.34015597  0.08268265  1
  Si  Si11  1  0.03941250  0.37533396  0.91672302  1
  Si  Si12  1  0.33918708  0.95771519  0.91786370  1
  Si  Si13  1  0.62311822  0.95678466  0.41636174  1
  Si  Si14  1  0.04347878  0.66412414  0.41651128  1
  Sn  Sn0  1  0.99772966  0.00171704  0.35237394  1
  Sn  Sn1  1  0.99821006  0.00204551  0.85366612  1
  Sn  Sn2  1  0.99980673  0.00021962  0.64877881  1
  Sn  Sn3  1  0.99754164  0.99654963  0.14731265  1
  Sn  Sn4  1  0.66768648  0.33361817  0.68482733  1
  Sn  Sn5  1  0.67320951  0.33219299  0.48007535  1
  P  P0  1  0.66409101  0.04390582  0.08354510  1
  P  P1  1  0.61861399  0.66681136  0.91715541  1
  P  P2  1  0.33069074  0.38010076  0.41678329  1
  O  O0  1  0.21803687  0.04664895  0.30953399  1
  O  O1  1  0.82823143  0.77845593  0.30997009  1
  O  O2  1  0.95121551  0.16494213  0.30629590  1
  O  O3  1  0.21602393  0.17135449  0.80969916  1
  O  O4  1  0.95729369  0.78611410  0.81027414  1
  O  O5  1  0.83465862  0.04555506  0.80709071  1
  O  O6  1  0.77836513  0.95258990  0.69011405  1
  O  O7  1  0.17368681  0.21939218  0.69128027  1
  O  O8  1  0.04598734  0.82726965  0.69132864  1
  O  O9  1  0.78475437  0.83542724  0.19334499  1
  O  O10  1  0.04615179  0.21854451  0.18914591  1
  O  O11  1  0.17167209  0.95322466  0.19119632  1
  O  O12  1  0.88951669  0.38137696  0.64344336  1
  O  O13  1  0.49418493  0.11480689  0.64189089  1
  O  O14  1  0.62140133  0.50609901  0.64210250  1
  O  O15  1  0.86548699  0.49906946  0.14110547  1
  O  O16  1  0.63486207  0.12571028  0.14018068  1
  O  O17  1  0.49811844  0.35930672  0.14203065  1
  O  O18  1  0.47242460  0.30282644  0.02491537  1
  O  O19  1  0.83328168  0.52377213  0.02399270  1
  O  O20  1  0.69601200  0.16456793  0.02880986  1
  O  O21  1  0.45264318  0.16313209  0.52320225  1
  O  O22  1  0.70742115  0.54610941  0.52319365  1
  O  O23  1  0.83280449  0.28503293  0.52696741  1
  O  O24  1  0.52785395  0.69112972  0.97184177  1
  O  O25  1  0.16700992  0.46991429  0.97480355  1
  O  O26  1  0.30539945  0.83075301  0.97545020  1
  O  O27  1  0.53005141  0.83349147  0.47504237  1
  O  O28  1  0.30859934  0.46466103  0.47353999  1
  O  O29  1  0.16649263  0.69421955  0.47473088  1
  O  O30  1  0.13829998  0.64091007  0.35738291  1
  O  O31  1  0.50015809  0.86061018  0.35819273  1
  O  O32  1  0.36008376  0.49112651  0.36048014  1
  O  O33  1  0.13504420  0.50006781  0.85866441  1
  O  O34  1  0.36168142  0.86381679  0.85803909  1
  O  O35  1  0.50927909  0.63720867  0.86010959  1
  O  O36  1  0.03354303  0.84271709  0.41341548  1
  O  O37  1  0.80908947  0.96520925  0.41377227  1
  O  O38  1  0.17315690  0.19526056  0.41330949  1
  O  O39  1  0.03391925  0.19098967  0.91444877  1
  O  O40  1  0.16070249  0.96903081  0.91403145  1
  O  O41  1  0.80365793  0.82508307  0.91395597  1
  O  O42  1  0.98095294  0.16315866  0.58777106  1
  O  O43  1  0.18383696  0.02047266  0.58710201  1
  O  O44  1  0.83736355  0.81522267  0.58699460  1
  O  O45  1  0.98090514  0.81657568  0.08558007  1
  O  O46  1  0.83330762  0.03593381  0.08658982  1
  O  O47  1  0.18924860  0.16522614  0.08637478  1
  O  O48  1  0.68645934  0.16929190  0.74594828  1
  O  O49  1  0.48344829  0.31232222  0.74598659  1
  O  O50  1  0.82962097  0.51744917  0.74654003  1
  O  O51  1  0.68739552  0.51641295  0.24200897  1
  O  O52  1  0.82870696  0.31312677  0.24155938  1
  O  O53  1  0.48651770  0.17002498  0.24218367  1
  O  O54  1  0.63698260  0.50360713  0.92299736  1
  O  O55  1  0.85482783  0.36675958  0.92396579  1
  O  O56  1  0.50349399  0.15182840  0.92420299  1
  O  O57  1  0.62643039  0.14017325  0.41908630  1
  O  O58  1  0.49625841  0.36305800  0.42019610  1
  O  O59  1  0.84826038  0.50016321  0.41857868  1
  O  O60  1  0.35589562  0.50670835  0.07615670  1
  O  O61  1  0.14552825  0.64062040  0.07596603  1
  O  O62  1  0.50183361  0.86728902  0.07596485  1
  O  O63  1  0.35576306  0.84987700  0.57530539  1
  O  O64  1  0.49284527  0.64396061  0.57544420  1
  O  O65  1  0.15272207  0.50560877  0.57489120  1
  O  O66  1  0.31385738  0.82937931  0.25728880  1
  O  O67  1  0.51372131  0.68242979  0.25860688  1
  O  O68  1  0.17143174  0.48336244  0.25744027  1
  O  O69  1  0.31361562  0.48580520  0.75875396  1
  O  O70  1  0.17282803  0.68895163  0.75756191  1
  O  O71  1  0.51546740  0.82593581  0.75826179  1
loop_
_geom_bond_atom_site_label_1
_geom_bond_atom_site_label_2
_geom_bond_distance
_geom_bond_site_symmetry_2
Na0 O52 2.461182 1_555
Na0 O53 2.485904 1_555
Na0 O66 2.515955 1_545
Na0 O67 2.519795 1_545
Na0 O16 2.698482 1_555
Na0 O31 2.721959 1_545
Na0 O9 2.761062 1_545
Na0 O2 2.767703 1_555
Na1 O68 2.449604 1_555
Na1 O67 2.470843 1_555
Na1 O53 2.509492 1_555
Na1 O51 2.517040 1_555
Na1 O17 2.705426 1_555
Na1 O32 2.723924 1_555
Na1 O0 2.834021 1_555
Na1 O10 2.840793 1_555
Na2 O51 2.470134 1_455
Na2 O66 2.477345 1_555
Na2 O52 2.504326 1_455
Na2 O68 2.508683 1_555
Na2 O30 2.689602 1_555
Na2 O15 2.724700 1_455
Na2 O1 2.813714 1_455
Na2 O11 2.826606 1_555
Na3 O71 2.431027 1_555
Na3 O69 2.482525 1_555
Na3 O50 2.482962 1_555
Na3 O49 2.513285 1_555
Na3 O14 2.666758 1_555
Na3 O35 2.688517 1_555
Na3 O6 2.831869 1_555
Na3 O4 2.877129 1_555
Na4 O69 2.462455 1_555
Na4 O48 2.482219 1_455
Na4 O50 2.523252 1_455
Na4 O70 2.526877 1_555
Na4 O12 2.631186 1_455
Na4 O33 2.705701 1_555
Na4 O5 2.801249 1_455
Na4 O7 2.817177 1_555
Na5 O70 2.456352 1_545
Na5 O49 2.464053 1_555
Na5 O48 2.496692 1_555
Na5 O71 2.527838 1_545
Na5 O13 2.665974 1_555
Na5 O34 2.687699 1_545
Na5 O3 2.834174 1_555
Na5 O8 2.835091 1_545
Na6 O64 2.433664 1_555
Na6 O65 2.487241 1_555
Na6 O43 2.489635 1_555
Na6 O42 2.497807 1_455
Na6 O7 2.662941 1_555
Na6 O28 2.690005 1_555
Na6 O14 2.834823 1_555
Na6 O21 2.858117 1_555
Na7 O44 2.464240 1_455
Na7 O65 2.464436 1_555
Na7 O43 2.515748 1_565
Na7 O63 2.519724 1_555
Na7 O8 2.665829 1_555
Na7 O29 2.705863 1_555
Na7 O12 2.822837 1_455
Na7 O22 2.874829 1_455
Na8 O63 2.455766 1_555
Na8 O42 2.475431 1_565
Na8 O44 2.515531 1_555
Na8 O64 2.529320 1_555
Na8 O6 2.630089 1_555
Na8 O27 2.705822 1_555
Na8 O23 2.778047 1_565
Na8 O13 2.825394 1_565
Na9 O62 2.401955 1_555
Na9 O47 2.444665 1_565
Na9 O45 2.477124 1_455
Na9 O61 2.541096 1_555
Na9 O11 2.664740 1_555
Na9 O26 2.695581 1_554
Na9 O18 2.927134 1_565
Na9 O16 2.928288 1_565
Na10 O46 2.400178 1_455
Na10 O61 2.403649 1_555
Na10 O60 2.494861 1_555
Na10 O47 2.534413 1_555
Na10 O10 2.603320 1_555
Na10 O25 2.711830 1_554
Na10 O15 2.889953 1_455
Na10 O20 2.932016 1_455
Na11 O55 2.363011 1_555
Na11 O40 2.398402 1_655
Na11 O41 2.510525 1_555
Na11 O54 2.568220 1_555
Na11 O4 2.648403 1_555
Na11 O19 2.684433 1_556
Na11 O33 2.918424 1_655
Na11 O26 2.949286 1_655
Na12 O39 2.385658 1_555
Na12 O54 2.400300 1_555
Na12 O56 2.461706 1_555
Na12 O40 2.578512 1_545
Na12 O3 2.655882 1_555
Na12 O18 2.698486 1_556
Na12 O35 2.930447 1_555
Na12 O25 2.942025 1_555
Na13 O57 2.327192 1_555
Na13 O36 2.350365 1_545
Na13 O38 2.509174 1_555
Na13 O58 2.586363 1_555
Na13 O0 2.636221 1_555
Na13 O21 2.644783 1_555
Na13 O29 2.935631 1_545
Na13 O31 2.953528 1_545
Na14 O37 2.363414 1_555
Na14 O58 2.413732 1_555
Na14 O59 2.446729 1_555
Na14 O36 2.596245 1_655
Na14 O22 2.622261 1_555
Na14 O1 2.627497 1_555
Na14 O27 2.934248 1_555
Na14 O32 2.945382 1_555
Na15 O37 2.471039 1_545
Na15 O42 2.478710 1_555
Na15 O44 2.520970 1_545
Na15 O38 2.534717 1_655
Na15 O36 2.536337 1_645
Na15 O43 2.538226 1_655
Na16 O45 2.474247 1_555
Na16 O39 2.499039 1_664
Na16 O41 2.508007 1_554
Na16 O46 2.517489 1_565
Na16 O40 2.548370 1_654
Na16 O47 2.567642 1_665
Na17 O48 2.495899 1_555
Na17 O56 2.498112 1_555
Na17 O55 2.511704 1_555
Na17 O50 2.557445 1_555
Na17 O49 2.563395 1_555
Na17 O54 2.635321 1_555
Na18 O59 2.462136 1_555
Na18 O57 2.475392 1_555
Na18 O52 2.513328 1_555
Na18 O53 2.580884 1_555
Na18 O51 2.594641 1_555
Na18 O58 2.631851 1_555
Na19 O60 2.503565 1_555
Na19 O67 2.560042 1_555
Na19 O68 2.592909 1_555
Na19 O62 2.601978 1_555
Na19 O61 2.604858 1_555
Na19 O66 2.605199 1_555
Na20 O64 2.550368 1_555
Na20 O70 2.562767 1_555
Na20 O69 2.566975 1_555
Na20 O71 2.569287 1_555
Na20 O65 2.574900 1_555
Na20 O63 2.580666 1_555
O0 Si0 1.641759 1_555
O0 Sn0 2.048860 1_455
O1 Si1 1.642550 1_555
O1 Sn0 2.052389 1_565
O2 Si2 1.633859 1_555
O2 Sn0 2.004686 1_555
O3 Si3 1.637306 1_555
O3 Sn1 2.033638 1_455
O4 Si4 1.634498 1_655
O4 Sn1 2.036379 1_565
O5 Si5 1.625892 1_545
O5 Sn1 1.997697 1_555
O6 Si5 1.644609 1_555
O6 Sn2 2.035464 1_565
O7 Si3 1.643156 1_555
O7 Sn2 2.042070 1_455
O8 Si4 1.639165 1_555
O8 Sn2 2.038844 1_465
O9 Si1 1.630971 1_555
O9 Sn3 2.010905 1_555
O10 Si2 1.648266 1_455
O10 Sn3 2.047801 1_445
O11 Si0 1.639375 1_565
O11 Sn3 2.047332 1_455
O12 Si6 1.644019 1_555
O12 Sn4 2.038682 1_555
O13 Si7 1.638285 1_555
O13 Sn4 2.043775 1_555
O14 Si8 1.641228 1_555
O14 Sn4 2.037573 1_555
O15 Si9 1.650094 1_555
O15 Ti0 1.907940 1_555
O16 P0 1.551828 1_555
O16 Ti0 2.089488 1_555
O17 Si10 1.647560 1_555
O17 Ti0 1.889275 1_555
O18 Si10 1.647465 1_555
O18 Ti1 1.902191 1_554
O19 Si9 1.639887 1_555
O19 Ti1 1.899873 1_554
O20 P0 1.565206 1_555
O20 Ti1 1.930958 1_554
O21 Si7 1.635147 1_555
O21 Sn5 2.038793 1_555
O22 Si8 1.637531 1_555
O22 Sn5 2.036286 1_555
O23 Si6 1.624717 1_555
O23 Sn5 1.990498 1_555
O24 P1 1.543909 1_555
O24 Ti2 1.972793 1_556
O25 Si11 1.662041 1_555
O25 Ti2 1.862223 1_556
O26 Si12 1.646516 1_555
O26 Ti2 1.909835 1_556
O27 Si13 1.649968 1_555
O27 Ti3 1.899291 1_555
O28 P2 1.542950 1_555
O28 Ti3 2.044573 1_555
O29 Si14 1.644103 1_555
O29 Ti3 1.903438 1_555
O30 Si14 1.640755 1_555
O30 Ti4 1.875600 1_555
O31 Si13 1.648474 1_555
O31 Ti4 1.906559 1_555
O32 P2 1.546269 1_555
O32 Ti4 2.065255 1_555
O33 Si11 1.648438 1_555
O33 Ti5 1.919846 1_555
O34 Si12 1.647999 1_555
O34 Ti5 1.883482 1_555
O35 P1 1.553152 1_555
O35 Ti5 2.069201 1_555
O36 Si14 1.656927 1_555
O36 Sn0 2.117904 1_465
O37 Si13 1.637509 1_555
O37 Sn0 2.074392 1_565
O38 P2 1.558619 1_555
O38 Sn0 2.156352 1_455
O39 Si11 1.637397 1_555
O39 Sn1 2.074493 1_455
O40 Si12 1.661689 1_555
O40 Sn1 2.120447 1_465
O41 P1 1.560945 1_555
O41 Sn1 2.149876 1_565
O42 Si6 1.638133 1_555
O42 Sn2 2.073066 1_555
O43 Si7 1.635356 1_555
O43 Sn2 2.088646 1_455
O44 Si8 1.639511 1_555
O44 Sn2 2.097521 1_565
O45 Si9 1.637676 1_555
O45 Sn3 2.077273 1_555
O46 P0 1.561357 1_555
O46 Sn3 2.165901 1_545
O47 Si10 1.662135 1_555
O47 Sn3 2.123526 1_445
O48 Si5 1.639277 1_545
O48 Sn4 2.083788 1_555
O49 Si3 1.639521 1_555
O49 Sn4 2.079556 1_555
O50 Si4 1.634842 1_655
O50 Sn4 2.090406 1_555
O51 Si1 1.651733 1_555
O51 Ti0 1.945982 1_555
O52 Si2 1.641195 1_555
O52 Ti0 2.024109 1_555
O53 Si0 1.636489 1_555
O53 Ti0 2.027837 1_555
O54 P1 1.565052 1_555
O54 Ti1 2.176759 1_555
O55 Si11 1.631133 1_655
O55 Ti1 2.017670 1_555
O56 Si12 1.637276 1_545
O56 Ti1 2.005344 1_555
O57 Si13 1.638578 1_545
O57 Sn5 2.074800 1_555
O58 P2 1.574148 1_555
O58 Sn5 2.205002 1_555
O59 Si14 1.635636 1_655
O59 Sn5 2.066050 1_555
O60 Si10 1.636401 1_555
O60 Ti2 1.998265 1_555
O61 Si9 1.662735 1_455
O61 Ti2 2.019803 1_555
O62 P0 1.539855 1_565
O62 Ti2 2.175023 1_555
O63 Si7 1.646188 1_565
O63 Ti3 1.961437 1_555
O64 Si8 1.638462 1_555
O64 Ti3 2.012578 1_555
O65 Si6 1.637124 1_455
O65 Ti3 2.006109 1_555
O66 Si0 1.649301 1_565
O66 Ti4 1.957740 1_555
O67 Si1 1.635094 1_555
O67 Ti4 2.022015 1_555
O68 Si2 1.641940 1_455
O68 Ti4 2.021584 1_555
O69 Si3 1.637558 1_555
O69 Ti5 2.030219 1_555
O70 Si4 1.645736 1_555
O70 Ti5 1.961865 1_555
O71 Si5 1.639114 1_555
O71 Ti5 2.000770 1_555
