# generated using pymatgen
data_H2SeO4
_symmetry_space_group_name_H-M   'P 1'
_cell_length_a   4.58832648
_cell_length_b   8.15352288
_cell_length_c   8.41039341
_cell_angle_alpha   90.00000000
_cell_angle_beta   90.00000000
_cell_angle_gamma   90.00000000
_symmetry_Int_Tables_number   1
_chemical_formula_structural   H2SeO4
_chemical_formula_sum   'H8 Se4 O16'
_cell_volume   314.64143758
_cell_formula_units_Z   4
loop_
 _symmetry_equiv_pos_site_id
 _symmetry_equiv_pos_as_xyz
  1  'x, y, z'
loop_
 _atom_site_type_symbol
 _atom_site_label
 _atom_site_symmetry_multiplicity
 _atom_site_fract_x
 _atom_site_fract_y
 _atom_site_fract_z
 _atom_site_occupancy
  H  H0  1  0.19080308  0.27454681  0.29481460  1
  H  H1  1  0.69080308  0.22545319  0.70518540  1
  H  H2  1  0.80919692  0.77454681  0.20518540  1
  H  H3  1  0.30919692  0.72545319  0.79481460  1
  H  H4  1  0.73477403  0.54274054  0.49408315  1
  H  H5  1  0.23477403  0.95725946  0.50591685  1
  H  H6  1  0.26522597  0.04274054  0.00591685  1
  H  H7  1  0.76522597  0.45725946  0.99408315  1
  Se  Se0  1  0.18212819  0.54040548  0.37817685  1
  Se  Se1  1  0.31787181  0.45959452  0.87817685  1
  Se  Se2  1  0.81787181  0.04040548  0.12182315  1
  Se  Se3  1  0.68212819  0.95959452  0.62182315  1
  O  O0  1  0.84042269  0.14070980  0.67302995  1
  O  O1  1  0.15957731  0.64070980  0.82697005  1
  O  O2  1  0.65957731  0.85929020  0.17302995  1
  O  O3  1  0.96749693  0.12793253  0.27419711  1
  O  O4  1  0.03250307  0.62793253  0.22580289  1
  O  O5  1  0.53250307  0.87206747  0.77419711  1
  O  O6  1  0.55437644  0.13971791  0.03636622  1
  O  O7  1  0.46749693  0.37206747  0.72580289  1
  O  O8  1  0.44562356  0.63971791  0.46363378  1
  O  O9  1  0.94562356  0.86028209  0.53636622  1
  O  O10  1  0.57571622  0.51979394  0.01235051  1
  O  O11  1  0.05437644  0.36028209  0.96363378  1
  O  O12  1  0.92428378  0.48020606  0.51235051  1
  O  O13  1  0.42428378  0.01979394  0.48764949  1
  O  O14  1  0.07571622  0.98020606  0.98764949  1
  O  O15  1  0.34042269  0.35929020  0.32697005  1
loop_
_geom_bond_atom_site_label_1
_geom_bond_atom_site_label_2
_geom_bond_distance
_geom_bond_site_symmetry_2
H0 O15 1.010864 1_555
H0 O3 1.583955 1_455
H1 O0 1.010864 1_555
H1 O7 1.583955 1_555
H2 O2 1.010864 1_555
H2 O4 1.583955 1_655
H3 O1 1.010864 1_555
H3 O5 1.583955 1_555
H4 O12 1.019640 1_555
H4 O8 1.565560 1_555
H5 O13 1.019640 1_565
H5 O9 1.565560 1_455
H6 O14 1.019640 1_544
H6 O6 1.565560 1_555
H7 O10 1.019640 1_556
H7 O11 1.565560 1_655
O0 Se3 1.701094 1_545
O1 Se1 1.701094 1_555
O2 Se2 1.701094 1_565
O3 Se2 1.619546 1_555
O4 Se0 1.619546 1_555
O5 Se3 1.619546 1_555
O6 Se2 1.622943 1_555
O7 Se1 1.619546 1_555
O8 Se0 1.622943 1_555
O9 Se3 1.622943 1_555
O10 Se1 1.707042 1_554
O11 Se1 1.622943 1_555
O12 Se0 1.707042 1_655
O13 Se3 1.707042 1_545
O14 Se2 1.707042 1_466
O15 Se0 1.701094 1_555
