# generated using pymatgen
data_MgFe6(OF)6
_symmetry_space_group_name_H-M   'P 1'
_cell_length_a   8.18824639
_cell_length_b   5.73526181
_cell_length_c   5.94054880
_cell_angle_alpha   67.89770587
_cell_angle_beta   64.48696904
_cell_angle_gamma   68.17641888
_symmetry_Int_Tables_number   1
_chemical_formula_structural   MgFe6(OF)6
_chemical_formula_sum   'Mg1 Fe6 O6 F6'
_cell_volume   225.81853595
_cell_formula_units_Z   1
loop_
 _symmetry_equiv_pos_site_id
 _symmetry_equiv_pos_as_xyz
  1  'x, y, z'
loop_
 _atom_site_type_symbol
 _atom_site_label
 _atom_site_symmetry_multiplicity
 _atom_site_fract_x
 _atom_site_fract_y
 _atom_site_fract_z
 _atom_site_occupancy
  Mg  Mg0  1  0.97641900  0.00823700  0.51493100  1
  Fe  Fe0  1  0.80270500  0.61017800  0.67784300  1
  Fe  Fe1  1  0.63695000  0.32652000  0.33662800  1
  Fe  Fe2  1  0.33826700  0.69763500  0.63985900  1
  Fe  Fe3  1  0.19846000  0.37944900  0.37856800  1
  Fe  Fe4  1  0.50575800  0.98478500  0.99531900  1
  Fe  Fe5  1  0.00238800  0.99202900  0.01147400  1
  O  O0  1  0.68582800  0.05208000  0.64156700  1
  O  O1  1  0.36703900  0.42728500  0.49131200  1
  O  O2  1  0.30233400  0.99515700  0.34890700  1
  O  O3  1  0.63609000  0.62808500  0.03911400  1
  O  O4  1  0.99322900  0.25240700  0.67075900  1
  O  O5  1  0.02199000  0.72455500  0.34207900  1
  F  F0  1  0.34892800  0.39986400  0.98164400  1
  F  F1  1  0.31766200  0.91729600  0.86122400  1
  F  F2  1  0.92842600  0.27744000  0.20925400  1
  F  F3  1  0.61384600  0.59996700  0.52616800  1
  F  F4  1  0.06101200  0.72517000  0.79819300  1
  F  F5  1  0.67933800  0.08519200  0.13039600  1
loop_
_geom_bond_atom_site_label_1
_geom_bond_atom_site_label_2
_geom_bond_distance
_geom_bond_site_symmetry_2
Mg0 O4 2.016316 1_555
Mg0 O5 2.077614 1_645
Mg0 O0 2.108645 1_555
Mg0 O2 2.395763 1_645
Fe0 O3 2.004301 1_556
Fe0 O4 2.067437 1_555
Fe0 O5 2.106842 1_655
Fe0 O0 2.312776 1_565
Fe1 O1 1.939959 1_555
Fe1 O3 1.953573 1_555
Fe1 O0 1.982344 1_555
Fe2 O1 1.953798 1_555
Fe2 O2 1.957307 1_555
Fe3 O1 1.909323 1_555
Fe3 O4 1.952872 1_455
Fe3 O5 1.967998 1_555
Fe3 O2 2.093209 1_545
Fe4 O3 1.899256 1_556
Fe4 O0 1.970475 1_565
Fe4 O2 2.048553 1_556
Fe5 O5 2.014324 1_555
Fe5 O4 2.026163 1_464
F0 Fe2 2.116399 1_555
F0 Fe3 2.118612 1_556
F0 Fe4 2.234788 1_545
F1 Fe2 2.059718 1_555
F1 Fe4 2.211039 1_555
F1 Fe5 2.263857 1_556
F2 Mg0 1.972175 1_555
F2 Fe1 2.110240 1_555
F2 Fe5 2.126956 1_645
F3 Fe2 1.973279 1_555
F3 Fe0 2.124632 1_555
F3 Fe1 2.165154 1_555
F4 Mg0 2.014748 1_465
F4 Fe2 2.017265 1_555
F4 Fe5 2.137120 1_556
F5 Fe1 2.022289 1_555
F5 Fe4 2.221349 1_544
F5 Fe5 2.324898 1_645
