# generated using pymatgen
data_Na6Ca4Nb2Si3(SO6)6
_symmetry_space_group_name_H-M   'P 1'
_cell_length_a   9.20213996
_cell_length_b   9.20213964
_cell_length_c   23.43297986
_cell_angle_alpha   90.00000000
_cell_angle_beta   90.00000000
_cell_angle_gamma   120.00000117
_symmetry_Int_Tables_number   1
_chemical_formula_structural   Na6Ca4Nb2Si3(SO6)6
_chemical_formula_sum   'Na12 Ca8 Nb4 Si6 S12 O72'
_cell_volume   1718.44564302
_cell_formula_units_Z   2
loop_
 _symmetry_equiv_pos_site_id
 _symmetry_equiv_pos_as_xyz
  1  'x, y, z'
loop_
 _atom_site_type_symbol
 _atom_site_label
 _atom_site_symmetry_multiplicity
 _atom_site_fract_x
 _atom_site_fract_y
 _atom_site_fract_z
 _atom_site_occupancy
  Na  Na0  1  0.99672935  0.69638868  0.91933560  1
  Na  Na1  1  0.69965833  0.00327065  0.91933560  1
  Na  Na2  1  0.30361132  0.30034167  0.91933560  1
  Na  Na3  1  0.99672935  0.30034167  0.41933560  1
  Na  Na4  1  0.30361132  0.00327065  0.41933560  1
  Na  Na5  1  0.69965833  0.69638868  0.41933560  1
  Na  Na6  1  0.00000000  0.00000000  0.49610300  1
  Na  Na7  1  0.00000000  0.00000000  0.99610300  1
  Na  Na8  1  0.66666700  0.33333300  0.82392497  1
  Na  Na9  1  0.66666700  0.33333300  0.32392497  1
  Na  Na10  1  0.33333300  0.66666700  0.16744577  1
  Na  Na11  1  0.33333300  0.66666700  0.66744577  1
  Ca  Ca0  1  0.00000000  0.00000000  0.34437458  1
  Ca  Ca1  1  0.00000000  0.00000000  0.84437458  1
  Ca  Ca2  1  0.00000000  0.00000000  0.64794417  1
  Ca  Ca3  1  0.00000000  0.00000000  0.14794417  1
  Ca  Ca4  1  0.66666700  0.33333300  0.68631863  1
  Ca  Ca5  1  0.66666700  0.33333300  0.18631863  1
  Ca  Ca6  1  0.33333300  0.66666700  0.01869299  1
  Ca  Ca7  1  0.33333300  0.66666700  0.51869299  1
  Nb  Nb0  1  0.66666700  0.33333300  0.97632672  1
  Nb  Nb1  1  0.66666700  0.33333300  0.47632672  1
  Nb  Nb2  1  0.33333300  0.66666700  0.32332624  1
  Nb  Nb3  1  0.33333300  0.66666700  0.82332624  1
  Si  Si0  1  0.62921187  0.66553746  0.91931401  1
  Si  Si1  1  0.03632460  0.37078813  0.91931401  1
  Si  Si2  1  0.33446254  0.96367540  0.91931401  1
  Si  Si3  1  0.62921187  0.96367540  0.41931401  1
  Si  Si4  1  0.33446254  0.37078813  0.41931401  1
  Si  Si5  1  0.03632460  0.66553746  0.41931401  1
  S  S0  1  0.30590292  0.98533499  0.25381543  1
  S  S1  1  0.67943206  0.69409708  0.25381543  1
  S  S2  1  0.01466501  0.32056794  0.25381543  1
  S  S3  1  0.30590292  0.32056794  0.75381543  1
  S  S4  1  0.01466501  0.69409708  0.75381543  1
  S  S5  1  0.67943206  0.98533499  0.75381543  1
  S  S6  1  0.94998587  0.32528775  0.58076735  1
  S  S7  1  0.37530288  0.05001413  0.58076735  1
  S  S8  1  0.67471225  0.62469712  0.58076735  1
  S  S9  1  0.94998587  0.62469712  0.08076735  1
  S  S10  1  0.67471225  0.05001413  0.08076735  1
  S  S11  1  0.37530288  0.32528775  0.08076735  1
  O  O0  1  0.23242153  0.00132251  0.30762270  1
  O  O1  1  0.76890098  0.76757847  0.30762270  1
  O  O2  1  0.99867749  0.23109902  0.30762270  1
  O  O3  1  0.23242153  0.23109902  0.80762270  1
  O  O4  1  0.99867749  0.76757847  0.80762270  1
  O  O5  1  0.76890098  0.00132251  0.80762270  1
  O  O6  1  0.76738423  0.97046725  0.70352868  1
  O  O7  1  0.20308302  0.23261577  0.70352868  1
  O  O8  1  0.02953275  0.79691698  0.70352868  1
  O  O9  1  0.76738423  0.79691698  0.20352868  1
  O  O10  1  0.02953275  0.23261577  0.20352868  1
  O  O11  1  0.20308302  0.97046725  0.20352868  1
  O  O12  1  0.85931655  0.32513134  0.63167460  1
  O  O13  1  0.46581579  0.14068345  0.63167460  1
  O  O14  1  0.67486866  0.53418421  0.63167460  1
  O  O15  1  0.85931655  0.53418421  0.13167460  1
  O  O16  1  0.67486866  0.14068345  0.13167460  1
  O  O17  1  0.46581579  0.32513134  0.13167460  1
  O  O18  1  0.47585345  0.32369852  0.02754464  1
  O  O19  1  0.84784607  0.52414655  0.02754464  1
  O  O20  1  0.67630148  0.15215393  0.02754464  1
  O  O21  1  0.47585345  0.15215393  0.52754464  1
  O  O22  1  0.67630148  0.52414655  0.52754464  1
  O  O23  1  0.84784607  0.32369852  0.52754464  1
  O  O24  1  0.56062036  0.72243423  0.97131814  1
  O  O25  1  0.16181288  0.43937964  0.97131814  1
  O  O26  1  0.27756577  0.83818712  0.97131814  1
  O  O27  1  0.56062036  0.83818712  0.47131814  1
  O  O28  1  0.27756577  0.43937964  0.47131814  1
  O  O29  1  0.16181288  0.72243423  0.47131814  1
  O  O30  1  0.13596298  0.62755036  0.36326874  1
  O  O31  1  0.49158638  0.86403702  0.36326874  1
  O  O32  1  0.37244964  0.50841362  0.36326874  1
  O  O33  1  0.13596298  0.50841362  0.86326874  1
  O  O34  1  0.37244964  0.86403702  0.86326874  1
  O  O35  1  0.49158638  0.62755036  0.86326874  1
  O  O36  1  0.98258938  0.80223706  0.40505619  1
  O  O37  1  0.81964768  0.01741062  0.40505619  1
  O  O38  1  0.19776294  0.18035232  0.40505619  1
  O  O39  1  0.98258938  0.18035232  0.90505619  1
  O  O40  1  0.19776294  0.01741062  0.90505619  1
  O  O41  1  0.81964768  0.80223706  0.90505619  1
  O  O42  1  0.95970499  0.16966344  0.57640984  1
  O  O43  1  0.20995845  0.04029501  0.57640984  1
  O  O44  1  0.83033656  0.79004155  0.57640984  1
  O  O45  1  0.95970499  0.79004155  0.07640984  1
  O  O46  1  0.83033656  0.04029501  0.07640984  1
  O  O47  1  0.20995845  0.16966344  0.07640984  1
  O  O48  1  0.65068052  0.12995796  0.74915346  1
  O  O49  1  0.47927844  0.34931948  0.74915346  1
  O  O50  1  0.87004204  0.52072156  0.74915346  1
  O  O51  1  0.65068052  0.52072156  0.24915346  1
  O  O52  1  0.87004204  0.34931948  0.24915346  1
  O  O53  1  0.47927844  0.12995796  0.24915346  1
  O  O54  1  0.61938655  0.47694394  0.92689588  1
  O  O55  1  0.85755839  0.38061345  0.92689588  1
  O  O56  1  0.52305606  0.14244161  0.92689588  1
  O  O57  1  0.61938655  0.14244161  0.42689588  1
  O  O58  1  0.52305606  0.38061345  0.42689588  1
  O  O59  1  0.85755839  0.47694394  0.42689588  1
  O  O60  1  0.36134903  0.47730083  0.07962734  1
  O  O61  1  0.11595080  0.63865097  0.07962734  1
  O  O62  1  0.52269917  0.88404920  0.07962734  1
  O  O63  1  0.36134903  0.88404920  0.57962734  1
  O  O64  1  0.52269917  0.63865097  0.57962734  1
  O  O65  1  0.11595080  0.47730083  0.57962734  1
  O  O66  1  0.31657437  0.82537724  0.25651536  1
  O  O67  1  0.50880188  0.68342563  0.25651536  1
  O  O68  1  0.17462276  0.49119812  0.25651536  1
  O  O69  1  0.31657437  0.49119812  0.75651536  1
  O  O70  1  0.17462276  0.68342563  0.75651536  1
  O  O71  1  0.50880188  0.82537724  0.75651536  1
loop_
_geom_bond_atom_site_label_1
_geom_bond_atom_site_label_2
_geom_bond_distance
_geom_bond_site_symmetry_2
Na0 O41 2.302886 1_555
Na0 O55 2.528604 1_555
Na0 O26 2.548114 1_655
Na0 O40 2.606913 1_665
Na0 O4 2.696374 1_555
Na0 O33 2.928495 1_655
Na0 O19 2.940628 1_556
Na1 O39 2.302893 1_555
Na1 O56 2.528588 1_555
Na1 O24 2.548113 1_545
Na1 O41 2.606920 1_545
Na1 O5 2.696376 1_555
Na1 O34 2.928495 1_545
Na1 O20 2.940622 1_556
Na2 O40 2.302894 1_555
Na2 O54 2.528603 1_555
Na2 O25 2.548113 1_555
Na2 O39 2.606911 1_455
Na2 O3 2.696375 1_555
Na2 O35 2.928495 1_555
Na2 O18 2.940632 1_556
Na3 O37 2.302893 1_555
Na3 O59 2.528588 1_555
Na3 O28 2.548114 1_655
Na3 O38 2.606920 1_655
Na3 O2 2.696376 1_555
Na3 O30 2.928495 1_655
Na3 O23 2.940622 1_555
Na4 O38 2.302886 1_555
Na4 O57 2.528604 1_555
Na4 O29 2.548113 1_545
Na4 O36 2.606913 1_445
Na4 O0 2.696374 1_555
Na4 O31 2.928495 1_545
Na4 O21 2.940628 1_555
Na5 O36 2.302894 1_555
Na5 O58 2.528603 1_555
Na5 O27 2.548113 1_555
Na5 O37 2.606911 1_565
Na5 O1 2.696375 1_555
Na5 O32 2.928495 1_555
Na5 O22 2.940632 1_555
Na6 O44 2.587517 1_445
Na6 O42 2.587517 1_455
Na6 O43 2.587517 1_555
Na6 O36 2.756400 1_445
Na6 O38 2.756400 1_555
Na6 O37 2.756400 1_455
Na7 O45 2.587517 1_446
Na7 O47 2.587517 1_556
Na7 O46 2.587517 1_456
Na7 O41 2.756400 1_445
Na7 O39 2.756400 1_455
Na7 O40 2.756400 1_555
Na8 O48 2.513704 1_555
Na8 O50 2.513704 1_555
Na8 O49 2.513704 1_555
Na8 O56 2.886670 1_555
Na8 O54 2.886670 1_555
Na8 O55 2.886670 1_555
Na9 O53 2.513704 1_555
Na9 O51 2.513704 1_555
Na9 O52 2.513704 1_555
Na9 O57 2.886670 1_555
Na9 O59 2.886670 1_555
Na9 O58 2.886670 1_555
Na10 O66 2.595815 1_555
Na10 O68 2.595815 1_555
Na10 O67 2.595815 1_555
Na10 O62 2.790522 1_555
Na10 O60 2.790522 1_555
Na10 O61 2.790522 1_555
Na11 O70 2.595815 1_555
Na11 O71 2.595815 1_555
Na11 O69 2.595815 1_555
Na11 O63 2.790522 1_555
Na11 O65 2.790522 1_555
Na11 O64 2.790522 1_555
Ca0 O36 2.251194 1_445
Ca0 O38 2.251194 1_555
Ca0 O37 2.251194 1_455
Ca0 O1 2.300034 1_445
Ca0 O2 2.300034 1_455
Ca0 O0 2.300034 1_555
Ca1 O41 2.251194 1_445
Ca1 O39 2.251194 1_455
Ca1 O40 2.251194 1_555
Ca1 O4 2.300034 1_445
Ca1 O3 2.300034 1_555
Ca1 O5 2.300034 1_455
Ca2 O7 2.402222 1_555
Ca2 O8 2.402222 1_545
Ca2 O6 2.402222 1_445
Ca2 O44 2.442093 1_445
Ca2 O42 2.442094 1_455
Ca2 O43 2.442094 1_555
Ca3 O10 2.402222 1_555
Ca3 O9 2.402222 1_445
Ca3 O11 2.402222 1_545
Ca3 O45 2.442093 1_445
Ca3 O47 2.442094 1_555
Ca3 O46 2.442094 1_455
Ca4 O14 2.218531 1_555
Ca4 O13 2.218531 1_555
Ca4 O12 2.218531 1_555
Ca4 O48 2.327395 1_555
Ca4 O50 2.327395 1_555
Ca4 O49 2.327395 1_555
Ca5 O15 2.218531 1_555
Ca5 O16 2.218531 1_555
Ca5 O17 2.218531 1_555
Ca5 O53 2.327395 1_555
Ca5 O51 2.327395 1_555
Ca5 O52 2.327395 1_555
Ca6 O26 2.190187 1_554
Ca6 O25 2.190187 1_554
Ca6 O24 2.190187 1_554
Ca6 O62 2.364551 1_555
Ca6 O60 2.364551 1_555
Ca6 O61 2.364551 1_555
Ca7 O29 2.190187 1_555
Ca7 O28 2.190187 1_555
Ca7 O27 2.190187 1_555
Ca7 O63 2.364551 1_555
Ca7 O65 2.364551 1_555
Ca7 O64 2.364551 1_555
Nb0 O56 1.962751 1_555
Nb0 O54 1.962751 1_555
Nb0 O55 1.962751 1_555
Nb0 O19 2.091841 1_556
Nb0 O20 2.091841 1_556
Nb0 O18 2.091841 1_556
Nb1 O57 1.962751 1_555
Nb1 O59 1.962751 1_555
Nb1 O58 1.962751 1_555
Nb1 O22 2.091841 1_555
Nb1 O21 2.091841 1_555
Nb1 O23 2.091841 1_555
Nb2 O31 1.910635 1_555
Nb2 O32 1.910635 1_555
Nb2 O30 1.910635 1_555
Nb2 O66 2.198415 1_555
Nb2 O68 2.198415 1_555
Nb2 O67 2.198415 1_555
Nb3 O34 1.910635 1_555
Nb3 O33 1.910635 1_555
Nb3 O35 1.910635 1_555
Nb3 O70 2.198415 1_555
Nb3 O71 2.198415 1_555
Nb3 O69 2.198415 1_555
O0 S0 1.472458 1_545
O1 S1 1.472458 1_555
O2 S2 1.472458 1_655
O3 S3 1.472458 1_555
O4 S4 1.472458 1_655
O5 S5 1.472458 1_545
O6 S5 1.474125 1_555
O7 S3 1.474125 1_555
O8 S4 1.474125 1_555
O9 S1 1.474125 1_555
O10 S2 1.474125 1_555
O11 S0 1.474125 1_555
O12 S6 1.455326 1_555
O13 S7 1.455326 1_555
O14 S8 1.455326 1_555
O15 S9 1.455326 1_555
O16 S10 1.455326 1_555
O17 S11 1.455326 1_555
O18 S11 1.557342 1_555
O19 S9 1.557342 1_555
O20 S10 1.557342 1_555
O21 S7 1.557342 1_555
O22 S8 1.557342 1_555
O23 S6 1.557342 1_555
O24 Si0 1.577344 1_555
O25 Si1 1.577344 1_555
O26 Si2 1.577344 1_555
O27 Si3 1.577344 1_555
O28 Si4 1.577344 1_555
O29 Si5 1.577344 1_555
O30 Si5 1.734405 1_555
O31 Si3 1.734405 1_555
O32 Si4 1.734405 1_555
O33 Si1 1.734405 1_555
O34 Si2 1.734405 1_555
O35 Si0 1.734405 1_555
O36 Si5 1.600168 1_655
O37 Si3 1.600177 1_545
O38 Si4 1.600175 1_555
O39 Si1 1.600177 1_655
O40 Si2 1.600168 1_545
O41 Si0 1.600175 1_555
O42 S6 1.482346 1_555
O43 S7 1.482355 1_555
O44 S8 1.482351 1_555
O45 S9 1.482355 1_555
O46 S10 1.482346 1_555
O47 S11 1.482351 1_555
O48 S5 1.484985 1_545
O49 S3 1.484994 1_555
O50 S4 1.484991 1_655
O51 S1 1.484994 1_555
O52 S2 1.484985 1_655
O53 S0 1.484991 1_545
O54 Si0 1.701371 1_555
O55 Si1 1.701353 1_655
O56 Si2 1.701363 1_545
O57 Si3 1.701353 1_545
O58 Si4 1.701371 1_555
O59 Si5 1.701363 1_655
O60 S11 1.467511 1_555
O61 S9 1.467493 1_455
O62 S10 1.467501 1_565
O63 S7 1.467493 1_565
O64 S8 1.467511 1_555
O65 S6 1.467501 1_455
O66 S0 1.524742 1_555
O67 S1 1.524751 1_555
O68 S2 1.524747 1_555
O69 S3 1.524751 1_555
O70 S4 1.524742 1_555
O71 S5 1.524747 1_555
