# generated using pymatgen
data_Na3HfTa(SiO4)3
_symmetry_space_group_name_H-M   'P 1'
_cell_length_a   15.78260767
_cell_length_b   9.12550472
_cell_length_c   9.09648817
_cell_angle_alpha   90.00000000
_cell_angle_beta   124.94136633
_cell_angle_gamma   90.00000000
_symmetry_Int_Tables_number   1
_chemical_formula_structural   Na3HfTa(SiO4)3
_chemical_formula_sum   'Na12 Hf4 Ta4 Si12 O48'
_cell_volume   1073.95180316
_cell_formula_units_Z   4
loop_
 _symmetry_equiv_pos_site_id
 _symmetry_equiv_pos_as_xyz
  1  'x, y, z'
loop_
 _atom_site_type_symbol
 _atom_site_label
 _atom_site_symmetry_multiplicity
 _atom_site_fract_x
 _atom_site_fract_y
 _atom_site_fract_z
 _atom_site_occupancy
  Na  Na0  1  0.25391092  0.72590416  0.99752057  1
  Na  Na1  1  0.75391092  0.77409584  0.49752057  1
  Na  Na2  1  0.75391092  0.22590416  0.99752057  1
  Na  Na3  1  0.25391092  0.27409584  0.49752057  1
  Na  Na4  1  0.49931642  0.11410677  0.74513456  1
  Na  Na5  1  0.49931642  0.88589323  0.24513456  1
  Na  Na6  1  0.99931642  0.61410677  0.74513456  1
  Na  Na7  1  0.99931642  0.38589323  0.24513456  1
  Na  Na8  1  0.18989350  0.94461897  0.29110558  1
  Na  Na9  1  0.18989350  0.05538103  0.79110558  1
  Na  Na10  1  0.68989350  0.44461897  0.29110558  1
  Na  Na11  1  0.68989350  0.55538103  0.79110558  1
  Hf  Hf0  1  0.10612790  0.74923811  0.56685739  1
  Hf  Hf1  1  0.10612790  0.25076189  0.06685739  1
  Hf  Hf2  1  0.60612790  0.24923811  0.56685739  1
  Hf  Hf3  1  0.60612790  0.75076189  0.06685739  1
  Ta  Ta0  1  0.89310227  0.75359479  0.93405713  1
  Ta  Ta1  1  0.89310227  0.24640521  0.43405713  1
  Ta  Ta2  1  0.39310227  0.25359479  0.93405713  1
  Ta  Ta3  1  0.39310227  0.74640521  0.43405713  1
  Si  Si0  1  0.99630494  0.95963151  0.75457742  1
  Si  Si1  1  0.99630494  0.04036849  0.25457742  1
  Si  Si2  1  0.49630494  0.45963151  0.75457742  1
  Si  Si3  1  0.49630494  0.54036849  0.25457742  1
  Si  Si4  1  0.35515376  0.89634439  0.75709629  1
  Si  Si5  1  0.64466062  0.89103415  0.74357677  1
  Si  Si6  1  0.64466062  0.10896585  0.24357677  1
  Si  Si7  1  0.35515376  0.10365561  0.25709629  1
  Si  Si8  1  0.85515376  0.39634439  0.75709629  1
  Si  Si9  1  0.14466062  0.39103415  0.74357677  1
  Si  Si10  1  0.14466062  0.60896585  0.24357677  1
  Si  Si11  1  0.85515376  0.60365561  0.25709629  1
  O  O0  1  0.15225096  0.56832083  0.74234272  1
  O  O1  1  0.85051275  0.57843793  0.75986455  1
  O  O2  1  0.85051275  0.42156207  0.25986455  1
  O  O3  1  0.15225096  0.43167917  0.24234272  1
  O  O4  1  0.65225096  0.06832083  0.74234272  1
  O  O5  1  0.35051275  0.07843793  0.75986455  1
  O  O6  1  0.35051275  0.92156207  0.25986455  1
  O  O7  1  0.65225096  0.93167917  0.24234272  1
  O  O8  1  0.43271064  0.57416042  0.58106508  1
  O  O9  1  0.56704401  0.55700500  0.93367139  1
  O  O10  1  0.56704401  0.44299500  0.43367139  1
  O  O11  1  0.43271064  0.42583958  0.08106508  1
  O  O12  1  0.93271064  0.07416042  0.58106508  1
  O  O13  1  0.06704401  0.05700500  0.93367139  1
  O  O14  1  0.06704401  0.94299500  0.43367139  1
  O  O15  1  0.93271064  0.92583958  0.08106508  1
  O  O16  1  0.25575319  0.83530331  0.74867829  1
  O  O17  1  0.74110064  0.80550813  0.75787937  1
  O  O18  1  0.74110064  0.19449187  0.25787937  1
  O  O19  1  0.25575319  0.16469669  0.24867829  1
  O  O20  1  0.75575319  0.33530331  0.74867829  1
  O  O21  1  0.24110064  0.30550813  0.75787937  1
  O  O22  1  0.24110064  0.69449187  0.25787937  1
  O  O23  1  0.75575319  0.66469669  0.24867829  1
  O  O24  1  0.35543395  0.85820491  0.57716110  1
  O  O25  1  0.64290128  0.84322706  0.91292312  1
  O  O26  1  0.64290128  0.15677294  0.41292312  1
  O  O27  1  0.35543395  0.14179509  0.07716110  1
  O  O28  1  0.85543395  0.35820491  0.57716110  1
  O  O29  1  0.14290128  0.34322706  0.91292312  1
  O  O30  1  0.14290128  0.65677294  0.41292312  1
  O  O31  1  0.85543395  0.64179509  0.07716110  1
  O  O32  1  0.46140788  0.83906225  0.93577377  1
  O  O33  1  0.53530371  0.82826091  0.56098112  1
  O  O34  1  0.53530371  0.17173909  0.06098112  1
  O  O35  1  0.46140788  0.16093775  0.43577377  1
  O  O36  1  0.96140788  0.33906225  0.93577377  1
  O  O37  1  0.03530371  0.32826091  0.56098112  1
  O  O38  1  0.03530371  0.67173909  0.06098112  1
  O  O39  1  0.96140788  0.66093775  0.43577377  1
  O  O40  1  0.07446396  0.85245971  0.74123990  1
  O  O41  1  0.91264671  0.85506506  0.75849389  1
  O  O42  1  0.91264671  0.14493494  0.25849389  1
  O  O43  1  0.07446396  0.14754029  0.24123990  1
  O  O44  1  0.57446396  0.35245971  0.74123990  1
  O  O45  1  0.41264671  0.35506506  0.75849389  1
  O  O46  1  0.41264671  0.64493494  0.25849389  1
  O  O47  1  0.57446396  0.64754029  0.24123990  1
loop_
_geom_bond_atom_site_label_1
_geom_bond_atom_site_label_2
_geom_bond_distance
_geom_bond_site_symmetry_2
Na0 O46 2.375995 1_556
Na0 O0 2.400871 1_555
Na0 O16 2.489323 1_555
Na0 O22 2.506117 1_556
Na0 O6 2.653240 1_556
Na0 O40 2.688231 1_555
Na1 O41 2.375995 1_555
Na1 O7 2.400871 1_555
Na1 O23 2.489323 1_555
Na1 O17 2.506117 1_555
Na1 O1 2.653240 1_555
Na1 O47 2.688231 1_555
Na2 O42 2.375995 1_556
Na2 O4 2.400871 1_555
Na2 O20 2.489323 1_555
Na2 O18 2.506117 1_556
Na2 O2 2.653240 1_556
Na2 O44 2.688231 1_555
Na3 O45 2.375995 1_555
Na3 O3 2.400871 1_555
Na3 O19 2.489323 1_555
Na3 O21 2.506117 1_555
Na3 O5 2.653240 1_555
Na3 O43 2.688231 1_555
Na4 O5 2.449461 1_555
Na4 O4 2.464023 1_555
Na4 O44 2.487380 1_555
Na4 O35 2.555609 1_555
Na4 O45 2.628929 1_555
Na4 O34 2.642845 1_556
Na5 O6 2.449461 1_555
Na5 O7 2.464023 1_555
Na5 O47 2.487380 1_555
Na5 O32 2.555609 1_554
Na5 O46 2.628929 1_555
Na5 O33 2.642845 1_555
Na6 O1 2.449461 1_555
Na6 O0 2.464023 1_655
Na6 O40 2.487380 1_655
Na6 O39 2.555609 1_555
Na6 O41 2.628929 1_555
Na6 O38 2.642845 1_656
Na7 O2 2.449461 1_555
Na7 O3 2.464023 1_655
Na7 O43 2.487380 1_655
Na7 O36 2.555609 1_554
Na7 O42 2.628929 1_555
Na7 O37 2.642845 1_655
Na8 O19 2.392122 1_565
Na8 O43 2.450932 1_565
Na8 O22 2.496854 1_555
Na8 O24 2.536012 1_555
Na8 O6 2.715955 1_555
Na8 O13 2.856832 1_564
Na8 O14 2.884708 1_555
Na9 O16 2.392122 1_545
Na9 O40 2.450932 1_545
Na9 O21 2.496854 1_555
Na9 O27 2.536012 1_556
Na9 O5 2.715955 1_555
Na9 O14 2.856832 1_545
Na9 O13 2.884708 1_555
Na10 O23 2.392122 1_555
Na10 O47 2.450932 1_555
Na10 O18 2.496854 1_555
Na10 O28 2.536012 1_555
Na10 O2 2.715955 1_555
Na10 O9 2.856832 1_554
Na10 O10 2.884708 1_555
Na11 O20 2.392122 1_555
Na11 O44 2.450932 1_555
Na11 O17 2.496854 1_555
Na11 O31 2.536012 1_556
Na11 O1 2.715955 1_555
Na11 O10 2.856832 1_555
Na11 O9 2.884708 1_555
Hf0 O30 1.985061 1_555
Hf0 O14 2.029417 1_555
Hf0 O39 2.041646 1_455
Hf0 O16 2.110685 1_555
Hf0 O0 2.114873 1_555
Hf0 O40 2.135720 1_555
Hf1 O29 1.985061 1_554
Hf1 O13 2.029417 1_554
Hf1 O36 2.041646 1_454
Hf1 O19 2.110685 1_555
Hf1 O3 2.114873 1_555
Hf1 O43 2.135720 1_555
Hf2 O26 1.985061 1_555
Hf2 O10 2.029417 1_555
Hf2 O35 2.041646 1_555
Hf2 O20 2.110685 1_555
Hf2 O4 2.114873 1_555
Hf2 O44 2.135720 1_555
Hf3 O25 1.985061 1_554
Hf3 O9 2.029417 1_554
Hf3 O32 2.041646 1_554
Hf3 O23 2.110685 1_555
Hf3 O7 2.114873 1_555
Hf3 O47 2.135720 1_555
O0 Si9 1.622773 1_555
O1 Si8 1.664135 1_555
O1 Ta0 2.073022 1_555
O2 Si11 1.664135 1_555
O2 Ta1 2.073022 1_555
O3 Si10 1.622773 1_555
O4 Si5 1.622773 1_545
O5 Si4 1.664135 1_545
O5 Ta2 2.073022 1_555
O6 Si7 1.664135 1_565
O6 Ta3 2.073022 1_555
O7 Si6 1.622773 1_565
O8 Si2 1.666211 1_555
O8 Ta3 1.921482 1_555
O9 Si2 1.614514 1_555
O10 Si3 1.614514 1_555
O11 Si3 1.666211 1_555
O11 Ta2 1.921482 1_554
O12 Si0 1.666211 1_545
O12 Ta1 1.921482 1_555
O13 Si0 1.614514 1_445
O14 Si1 1.614514 1_465
O15 Si1 1.666211 1_565
O15 Ta0 1.921482 1_554
O16 Si4 1.624708 1_555
O17 Si5 1.648009 1_555
O17 Ta0 2.035672 1_555
O18 Si6 1.648009 1_555
O18 Ta1 2.035672 1_555
O19 Si7 1.624708 1_555
O20 Si8 1.624708 1_555
O21 Si9 1.648009 1_555
O21 Ta2 2.035672 1_555
O22 Si10 1.648009 1_555
O22 Ta3 2.035672 1_555
O23 Si11 1.624708 1_555
O24 Si4 1.675854 1_555
O24 Ta3 1.993819 1_555
O25 Si5 1.616509 1_555
O26 Si6 1.616509 1_555
O27 Si7 1.675854 1_555
O27 Ta2 1.993819 1_554
O28 Si8 1.675854 1_555
O28 Ta1 1.993819 1_555
O29 Si9 1.616509 1_555
O30 Si10 1.616509 1_555
O31 Si11 1.675854 1_555
O31 Ta0 1.993819 1_554
O32 Si4 1.614012 1_555
O33 Si5 1.667953 1_555
O33 Ta3 1.989914 1_555
O34 Si6 1.667953 1_555
O34 Ta2 1.989914 1_554
O35 Si7 1.614012 1_555
O36 Si8 1.614012 1_555
O37 Si9 1.667953 1_555
O37 Ta1 1.989914 1_455
O38 Si10 1.667953 1_555
O38 Ta0 1.989914 1_454
O39 Si11 1.614012 1_555
O40 Si0 1.632263 1_455
O41 Si0 1.645904 1_555
O41 Ta0 2.016751 1_555
O42 Si1 1.645904 1_555
O42 Ta1 2.016751 1_555
O43 Si1 1.632263 1_455
O44 Si2 1.632263 1_555
O45 Si2 1.645904 1_555
O45 Ta2 2.016751 1_555
O46 Si3 1.645904 1_555
O46 Ta3 2.016751 1_555
O47 Si3 1.632263 1_555
