# generated using pymatgen
data_HfCoSn
_symmetry_space_group_name_H-M   'P 1'
_cell_length_a   7.05588592
_cell_length_b   7.05588625
_cell_length_c   7.10331537
_cell_angle_alpha   90.00000000
_cell_angle_beta   90.00000000
_cell_angle_gamma   120.00000319
_symmetry_Int_Tables_number   1
_chemical_formula_structural   HfCoSn
_chemical_formula_sum   'Hf6 Co6 Sn6'
_cell_volume   306.26321409
_cell_formula_units_Z   6
loop_
 _symmetry_equiv_pos_site_id
 _symmetry_equiv_pos_as_xyz
  1  'x, y, z'
loop_
 _atom_site_type_symbol
 _atom_site_label
 _atom_site_symmetry_multiplicity
 _atom_site_fract_x
 _atom_site_fract_y
 _atom_site_fract_z
 _atom_site_occupancy
  Hf  Hf0  1  0.00741239  0.40058161  0.74998925  1
  Hf  Hf1  1  0.59941839  0.60682978  0.74998925  1
  Hf  Hf2  1  0.39317022  0.99258761  0.74998925  1
  Hf  Hf3  1  0.99257978  0.39315190  0.25001162  1
  Hf  Hf4  1  0.60684810  0.59942789  0.25001162  1
  Hf  Hf5  1  0.40057211  0.00742122  0.25001162  1
  Co  Co0  1  0.33333300  0.66666700  0.46426555  1
  Co  Co1  1  0.66666700  0.33333300  0.53566554  1
  Co  Co2  1  0.33333300  0.66666700  0.03574788  1
  Co  Co3  1  0.00000000  -0.00000000  0.74997940  1
  Co  Co4  1  0.00000000  -0.00000000  0.25002173  1
  Co  Co5  1  0.66666600  0.33333300  0.96431520  1
  Sn  Sn0  1  0.26790875  0.26787231  0.50000210  1
  Sn  Sn1  1  -0.00003544  0.73209125  0.50000210  1
  Sn  Sn2  1  -0.00003339  0.73208817  -0.00000140  1
  Sn  Sn3  1  0.73212769  0.00003644  0.50000210  1
  Sn  Sn4  1  0.73212157  0.00003339  -0.00000040  1
  Sn  Sn5  1  0.26791183  0.26787843  -0.00000140  1
loop_
_geom_bond_atom_site_label_1
_geom_bond_atom_site_label_2
_geom_bond_distance
_geom_bond_site_symmetry_2
Hf0 Sn1 2.958089 1_555
Hf0 Sn2 2.958160 1_556
Hf0 Sn0 3.021509 1_555
Hf0 Sn5 3.021592 1_556
Hf0 Sn3 3.069843 1_455
Hf0 Sn4 3.069959 1_456
Hf1 Sn0 2.958089 1_555
Hf1 Sn5 2.958157 1_556
Hf1 Sn3 3.021515 1_565
Hf1 Sn4 3.021602 1_566
Hf1 Sn1 3.069847 1_655
Hf1 Sn2 3.069954 1_656
Hf2 Sn3 2.958086 1_565
Hf2 Sn4 2.958159 1_566
Hf2 Sn1 3.021509 1_555
Hf2 Sn2 3.021596 1_556
Hf2 Sn0 3.069848 1_565
Hf2 Sn5 3.069959 1_566
Hf3 Sn1 2.958173 1_655
Hf3 Sn2 2.958246 1_655
Hf3 Sn3 3.021086 1_555
Hf3 Sn4 3.021195 1_555
Hf3 Sn0 3.070181 1_655
Hf3 Sn5 3.070264 1_655
Hf4 Sn0 2.958175 1_555
Hf4 Sn5 2.958246 1_555
Hf4 Sn1 3.021091 1_655
Hf4 Sn2 3.021200 1_655
Hf4 Sn3 3.070181 1_565
Hf4 Sn4 3.070260 1_565
Hf5 Sn3 2.958178 1_555
Hf5 Sn4 2.958245 1_555
Hf5 Sn0 3.021080 1_555
Hf5 Sn5 3.021194 1_555
Hf5 Sn1 3.070178 1_545
Hf5 Sn2 3.070265 1_545
Co0 Sn1 2.626075 1_555
Co0 Sn3 2.626086 1_565
Co0 Sn0 2.626089 1_555
Co0 Hf3 2.679807 1_455
Co0 Hf4 2.679811 1_555
Co0 Hf5 2.679811 1_565
Co0 Hf2 2.935128 1_555
Co0 Hf0 2.935132 1_555
Co0 Hf1 2.935138 1_555
Co0 Co2 3.043896 1_555
Co1 Sn3 2.625686 1_555
Co1 Sn1 2.625693 1_655
Co1 Sn0 2.625693 1_555
Co1 Hf0 2.680024 1_655
Co1 Hf2 2.680024 1_545
Co1 Hf1 2.680024 1_555
Co1 Hf5 2.934777 1_555
Co1 Hf3 2.934778 1_555
Co1 Hf4 2.934783 1_555
Co1 Co5 3.044834 1_555
Co2 Sn2 2.626056 1_555
Co2 Sn4 2.626059 1_565
Co2 Sn5 2.626063 1_555
Co2 Hf3 2.679847 1_455
Co2 Hf4 2.679851 1_555
Co2 Hf5 2.679851 1_565
Co2 Hf2 2.935300 1_554
Co2 Hf0 2.935303 1_554
Co2 Hf1 2.935310 1_554
Co3 Sn0 2.593428 1_555
Co3 Sn3 2.593428 1_455
Co3 Sn1 2.593431 1_545
Co3 Sn5 2.593656 1_556
Co3 Sn2 2.593656 1_546
Co3 Sn4 2.593661 1_456
Co3 Hf0 2.800674 1_555
Co3 Hf1 2.800677 1_445
Co3 Hf2 2.800681 1_545
Co4 Sn0 2.593443 1_555
Co4 Sn3 2.593443 1_455
Co4 Sn1 2.593446 1_545
Co4 Sn4 2.593670 1_455
Co4 Sn5 2.593675 1_555
Co4 Sn2 2.593675 1_545
Co4 Hf5 2.800577 1_555
Co4 Hf4 2.800580 1_445
Co4 Hf3 2.800580 1_455
Co5 Sn5 2.625694 1_556
Co5 Sn4 2.625699 1_556
Co5 Sn2 2.625701 1_656
Co5 Hf1 2.680029 1_555
Co5 Hf2 2.680031 1_545
Co5 Hf0 2.680039 1_655
Co5 Hf5 2.934984 1_556
Co5 Hf4 2.934989 1_556
Co5 Hf3 2.934992 1_556
