# generated using pymatgen
data_Li3Mo3(PO4)4
_symmetry_space_group_name_H-M   'P 1'
_cell_length_a   5.10417400
_cell_length_b   8.73817800
_cell_length_c   13.76753872
_cell_angle_alpha   84.68046726
_cell_angle_beta   90.00000000
_cell_angle_gamma   90.00000000
_symmetry_Int_Tables_number   1
_chemical_formula_structural   Li3Mo3(PO4)4
_chemical_formula_sum   'Li6 Mo6 P8 O32'
_cell_volume   611.40387122
_cell_formula_units_Z   2
loop_
 _symmetry_equiv_pos_site_id
 _symmetry_equiv_pos_as_xyz
  1  'x, y, z'
loop_
 _atom_site_type_symbol
 _atom_site_label
 _atom_site_symmetry_multiplicity
 _atom_site_fract_x
 _atom_site_fract_y
 _atom_site_fract_z
 _atom_site_occupancy
  Li  Li0  1  0.55238200  0.84998100  0.88749800  1
  Li  Li1  1  0.00000000  0.00000000  0.00000000  1
  Li  Li2  1  0.05238200  0.65001900  0.61250200  1
  Li  Li3  1  0.50000000  0.50000000  0.50000000  1
  Li  Li4  1  0.94761800  0.34998100  0.38749800  1
  Li  Li5  1  0.44761800  0.15001900  0.11250200  1
  Mo  Mo0  1  0.50000000  0.50000000  0.00000000  1
  Mo  Mo1  1  0.02468400  0.99889600  0.78190900  1
  Mo  Mo2  1  0.52468400  0.50110400  0.71809100  1
  Mo  Mo3  1  0.00000000  0.00000000  0.50000000  1
  Mo  Mo4  1  0.47531600  0.49889600  0.28190900  1
  Mo  Mo5  1  0.97531600  0.00110400  0.21809100  1
  P  P0  1  0.99595500  0.38165100  0.14875600  1
  P  P1  1  0.49595500  0.11834900  0.35124400  1
  P  P2  1  0.49876600  0.82186200  0.11307000  1
  P  P3  1  0.99876600  0.67813800  0.38693000  1
  P  P4  1  0.00123400  0.32186200  0.61307000  1
  P  P5  1  0.50123400  0.17813800  0.88693000  1
  P  P6  1  0.00404500  0.61834900  0.85124400  1
  P  P7  1  0.50404500  0.88165100  0.64875600  1
  O  O0  1  0.03253700  0.21118200  0.12703400  1
  O  O1  1  0.15331600  0.48889700  0.07771200  1
  O  O2  1  0.59825800  0.09997800  0.24658200  1
  O  O3  1  0.69446900  0.42826500  0.14444700  1
  O  O4  1  0.48657100  0.74094300  0.01714600  1
  O  O5  1  0.19446900  0.07173500  0.35555300  1
  O  O6  1  0.96746300  0.78881800  0.87296600  1
  O  O7  1  0.84668400  0.51110300  0.92228800  1
  O  O8  1  0.40174200  0.90002200  0.75341800  1
  O  O9  1  0.30553100  0.57173500  0.85555300  1
  O  O10  1  0.51342900  0.25905700  0.98285400  1
  O  O11  1  0.80553100  0.92826500  0.64444700  1
  O  O12  1  0.90174200  0.59997800  0.74658200  1
  O  O13  1  0.34668400  0.98889700  0.57771200  1
  O  O14  1  0.24551100  0.07805400  0.89498700  1
  O  O15  1  0.46746300  0.71118200  0.62703400  1
  O  O16  1  0.50887800  0.28836300  0.79544800  1
  O  O17  1  0.72960300  0.05890500  0.88557800  1
  O  O18  1  0.22960300  0.44109500  0.61442200  1
  O  O19  1  0.98657100  0.75905700  0.48285400  1
  O  O20  1  0.00887800  0.21163700  0.70455200  1
  O  O21  1  0.74551100  0.42194600  0.60501300  1
  O  O22  1  0.25448900  0.57805400  0.39498700  1
  O  O23  1  0.99112200  0.78836300  0.29544800  1
  O  O24  1  0.01342900  0.24094300  0.51714600  1
  O  O25  1  0.77039700  0.55890500  0.38557800  1
  O  O26  1  0.27039700  0.94109500  0.11442200  1
  O  O27  1  0.49112200  0.71163700  0.20455200  1
  O  O28  1  0.53253700  0.28881800  0.37296600  1
  O  O29  1  0.75448900  0.92194600  0.10501300  1
  O  O30  1  0.65331600  0.01110300  0.42228800  1
  O  O31  1  0.09825800  0.40002200  0.25341800  1
loop_
_geom_bond_atom_site_label_1
_geom_bond_atom_site_label_2
_geom_bond_distance
_geom_bond_site_symmetry_2
Li0 O4 1.972638 1_556
Li0 O8 2.010042 1_555
Li0 O17 2.035402 1_565
Li0 O6 2.198671 1_555
Li0 O14 2.544390 1_565
Li1 O29 1.985684 1_445
Li1 O14 1.985684 1_554
Li1 O17 2.121559 1_454
Li1 O26 2.121559 1_545
Li2 O19 1.972638 1_455
Li2 O12 2.010042 1_455
Li2 O18 2.035402 1_555
Li2 O15 2.198671 1_555
Li2 O21 2.544390 1_455
Li3 O22 1.985684 1_555
Li3 O21 1.985684 1_555
Li3 O18 2.121559 1_555
Li3 O25 2.121559 1_555
Li4 O24 1.972638 1_655
Li4 O31 2.010042 1_655
Li4 O25 2.035402 1_555
Li4 O28 2.198671 1_555
Li4 O22 2.544390 1_655
Li5 O10 1.972638 1_554
Li5 O2 2.010042 1_555
Li5 O26 2.035402 1_545
Li5 O0 2.198671 1_555
Li5 O29 2.544390 1_545
Mo0 O7 2.065457 1_554
Mo0 O1 2.065457 1_555
Mo0 O4 2.141330 1_555
Mo0 O10 2.141330 1_554
Mo0 O9 2.258736 1_554
Mo0 O3 2.258736 1_555
Mo1 O20 2.056558 1_565
Mo1 O14 2.090980 1_565
Mo1 O6 2.144756 1_455
Mo1 O8 2.160353 1_555
Mo1 O17 2.172394 1_465
Mo1 O11 2.330313 1_455
Mo2 O16 2.056558 1_555
Mo2 O21 2.090980 1_555
Mo2 O15 2.144756 1_555
Mo2 O12 2.160353 1_555
Mo2 O18 2.172394 1_555
Mo2 O9 2.330313 1_555
Mo3 O13 2.065457 1_545
Mo3 O30 2.065457 1_455
Mo3 O24 2.141330 1_555
Mo3 O19 2.141330 1_445
Mo3 O5 2.258736 1_555
Mo3 O11 2.258736 1_445
Mo4 O27 2.056558 1_555
Mo4 O22 2.090980 1_555
Mo4 O28 2.144756 1_555
Mo4 O31 2.160353 1_555
Mo4 O25 2.172394 1_555
Mo4 O3 2.330313 1_555
Mo5 O23 2.056558 1_545
Mo5 O29 2.090980 1_545
Mo5 O0 2.144756 1_655
Mo5 O2 2.160353 1_555
Mo5 O26 2.172394 1_645
Mo5 O5 2.330313 1_655
O0 P0 1.557490 1_455
O1 P0 1.519892 1_455
O2 P1 1.554872 1_555
O3 P0 1.591530 1_555
O4 P2 1.555979 1_555
O5 P1 1.591530 1_555
O6 P6 1.557490 1_655
O7 P6 1.519892 1_655
O8 P7 1.554872 1_555
O9 P6 1.591530 1_555
O10 P5 1.555979 1_555
O11 P7 1.591530 1_555
O12 P6 1.554872 1_655
O13 P7 1.519892 1_555
O14 P5 1.569346 1_555
O15 P7 1.557490 1_555
O16 P5 1.513464 1_555
O17 P5 1.564660 1_555
O18 P4 1.564660 1_555
O19 P3 1.555979 1_555
O20 P4 1.513464 1_555
O21 P4 1.569346 1_655
O22 P3 1.569346 1_455
O23 P3 1.513464 1_555
O24 P4 1.555979 1_555
O25 P3 1.564660 1_555
O26 P2 1.564660 1_555
O27 P2 1.513464 1_555
O28 P1 1.557490 1_555
O29 P2 1.569346 1_555
O30 P1 1.519892 1_555
O31 P0 1.554872 1_455
