# generated using pymatgen
data_MgMn6O7F5
_symmetry_space_group_name_H-M   'P 1'
_cell_length_a   5.22354898
_cell_length_b   7.81734320
_cell_length_c   5.83392094
_cell_angle_alpha   97.61166350
_cell_angle_beta   99.95344867
_cell_angle_gamma   82.84365541
_symmetry_Int_Tables_number   1
_chemical_formula_structural   MgMn6O7F5
_chemical_formula_sum   'Mg1 Mn6 O7 F5'
_cell_volume   231.30591131
_cell_formula_units_Z   1
loop_
 _symmetry_equiv_pos_site_id
 _symmetry_equiv_pos_as_xyz
  1  'x, y, z'
loop_
 _atom_site_type_symbol
 _atom_site_label
 _atom_site_symmetry_multiplicity
 _atom_site_fract_x
 _atom_site_fract_y
 _atom_site_fract_z
 _atom_site_occupancy
  Mg  Mg0  1  0.99815400  0.49446000  0.99453600  1
  Mn  Mn0  1  0.52169100  0.00675600  0.47717900  1
  Mn  Mn1  1  0.50297600  0.67312700  0.15983200  1
  Mn  Mn2  1  0.49064200  0.31485500  0.84423500  1
  Mn  Mn3  1  0.03651800  0.68873000  0.62310400  1
  Mn  Mn4  1  0.96710700  0.30332400  0.37122200  1
  Mn  Mn5  1  0.98690800  0.99923100  0.01297800  1
  O  O0  1  0.82466000  0.09377800  0.27834900  1
  O  O1  1  0.69991300  0.09622800  0.79121800  1
  O  O2  1  0.69600400  0.77320800  0.44439500  1
  O  O3  1  0.70321900  0.42951000  0.13414500  1
  O  O4  1  0.30510800  0.55583300  0.87008200  1
  O  O5  1  0.30879100  0.22886900  0.53414600  1
  O  O6  1  0.29673600  0.89784200  0.20761400  1
  F  F0  1  0.83191000  0.44472700  0.66045300  1
  F  F1  1  0.83409000  0.73758900  0.96163800  1
  F  F2  1  0.16347000  0.53951500  0.33362800  1
  F  F3  1  0.17051500  0.25358500  0.02574400  1
  F  F4  1  0.17548000  0.91883200  0.74425200  1
loop_
_geom_bond_atom_site_label_1
_geom_bond_atom_site_label_2
_geom_bond_distance
_geom_bond_site_symmetry_2
Mg0 O4 2.003643 1_655
Mg0 O3 2.008194 1_556
Mn0 O2 1.937118 1_545
Mn0 O6 1.958204 1_545
Mn0 O5 1.963630 1_555
Mn0 O1 1.986340 1_555
Mn0 O0 2.329100 1_555
Mn1 O2 1.912735 1_555
Mn1 O6 1.956212 1_555
Mn1 O4 1.996986 1_554
Mn1 O3 2.055645 1_555
Mn2 O1 1.929490 1_555
Mn2 O5 1.967145 1_555
Mn2 O4 2.007761 1_555
Mn2 O3 2.023372 1_556
Mn3 O2 1.983807 1_455
Mn3 O4 2.111474 1_555
Mn4 O0 1.860043 1_555
Mn4 O5 1.931061 1_655
Mn4 O3 2.037070 1_555
Mn5 O0 1.911991 1_565
Mn5 O1 1.949944 1_564
Mn5 O6 1.954561 1_655
F0 Mg0 2.000547 1_555
F0 Mn4 2.071497 1_555
F0 Mn3 2.350893 1_655
F0 Mn2 2.599630 1_555
F1 Mg0 2.004393 1_555
F1 Mn5 2.252156 1_556
F1 Mn3 2.363467 1_655
F1 Mn1 2.375958 1_556
F2 Mg0 2.020846 1_454
F2 Mn3 2.079646 1_555
F2 Mn4 2.272936 1_455
F2 Mn1 2.574429 1_555
F3 Mg0 2.000301 1_454
F3 Mn2 2.256766 1_554
F3 Mn5 2.300049 1_445
F3 Mn4 2.402516 1_455
F4 Mn5 1.985346 1_456
F4 Mn3 2.018222 1_555
