# generated using pymatgen
data_Na3ZrSi2GePO12
_symmetry_space_group_name_H-M   'P 1'
_cell_length_a   15.47902784
_cell_length_b   8.96585960
_cell_length_c   9.00934157
_cell_angle_alpha   89.84609208
_cell_angle_beta   125.15526160
_cell_angle_gamma   90.35238244
_symmetry_Int_Tables_number   1
_chemical_formula_structural   Na3ZrSi2GePO12
_chemical_formula_sum   'Na12 Zr4 Si8 Ge4 P4 O48'
_cell_volume   1022.25279964
_cell_formula_units_Z   4
loop_
 _symmetry_equiv_pos_site_id
 _symmetry_equiv_pos_as_xyz
  1  'x, y, z'
loop_
 _atom_site_type_symbol
 _atom_site_label
 _atom_site_symmetry_multiplicity
 _atom_site_fract_x
 _atom_site_fract_y
 _atom_site_fract_z
 _atom_site_occupancy
  Na  Na0  1  0.24908367  0.77215532  0.00134026  1
  Na  Na1  1  0.73897880  0.72864656  0.48760755  1
  Na  Na2  1  0.73589463  0.27341748  0.98700231  1
  Na  Na3  1  0.24824693  0.23035307  0.50016980  1
  Na  Na4  1  0.50156010  0.12151714  0.75181960  1
  Na  Na5  1  0.49994831  0.87047636  0.25046131  1
  Na  Na6  1  0.99969780  0.61008364  0.74568764  1
  Na  Na7  1  0.00517877  0.40458555  0.25858776  1
  Na  Na8  1  0.80632454  0.93308451  0.20945518  1
  Na  Na9  1  0.80842186  0.06392711  0.71345632  1
  Na  Na10  1  0.31862924  0.43617906  0.23870951  1
  Na  Na11  1  0.31255564  0.57079830  0.71368941  1
  Zr  Zr0  1  0.89469070  0.74475352  0.93132224  1
  Zr  Zr1  1  0.89118941  0.25506716  0.42831019  1
  Zr  Zr2  1  0.10631876  0.25054017  0.06276259  1
  Zr  Zr3  1  0.39256574  0.24304547  0.93520604  1
  Si  Si0  1  0.35494984  0.88559038  0.74628581  1
  Si  Si1  1  0.63877376  0.89809073  0.74029950  1
  Si  Si2  1  0.64157723  0.09633788  0.24181176  1
  Si  Si3  1  0.36192282  0.09962754  0.27009815  1
  Si  Si4  1  0.84526648  0.38854252  0.75170671  1
  Si  Si5  1  0.14659606  0.40680917  0.73729236  1
  Si  Si6  1  0.15348578  0.61348255  0.25662682  1
  Si  Si7  1  0.85029119  0.61417465  0.25552415  1
  Ge  Ge0  1  0.10572010  0.74806381  0.56225029  1
  Ge  Ge1  1  0.60476223  0.24325584  0.55635539  1
  Ge  Ge2  1  0.39794306  0.75730400  0.44229498  1
  Ge  Ge3  1  0.60220742  0.75551138  0.05346843  1
  P  P0  1  0.00587398  0.95398030  0.73860358  1
  P  P1  1  0.00925425  0.03363064  0.25915367  1
  P  P2  1  0.50765059  0.47362515  0.74775145  1
  P  P3  1  0.50608421  0.53616046  0.25843956  1
  O  O0  1  0.14845054  0.59138235  0.73638179  1
  O  O1  1  0.84267565  0.56974188  0.74484588  1
  O  O2  1  0.84306760  0.43223784  0.24784343  1
  O  O3  1  0.15803583  0.42915741  0.25013962  1
  O  O4  1  0.64139854  0.08382151  0.73096288  1
  O  O5  1  0.35081767  0.06742468  0.75261514  1
  O  O6  1  0.35932554  0.91632282  0.27394928  1
  O  O7  1  0.64112764  0.91109554  0.23189179  1
  O  O8  1  0.43355194  0.56587093  0.57194992  1
  O  O9  1  0.57401186  0.57370237  0.91953639  1
  O  O10  1  0.57246882  0.43186625  0.42486560  1
  O  O11  1  0.43101726  0.44436301  0.08416483  1
  O  O12  1  0.93998399  0.04720695  0.56566867  1
  O  O13  1  0.06527796  0.05451617  0.90838499  1
  O  O14  1  0.06858930  0.93013692  0.42596217  1
  O  O15  1  0.94580532  0.94592663  0.07945442  1
  O  O16  1  0.25238846  0.80822799  0.72646772  1
  O  O17  1  0.74445077  0.84326334  0.75584764  1
  O  O18  1  0.74514683  0.15366129  0.25301194  1
  O  O19  1  0.26288231  0.18038531  0.25279441  1
  O  O20  1  0.74457143  0.30396367  0.73066547  1
  O  O21  1  0.24684901  0.34315913  0.74407137  1
  O  O22  1  0.26079130  0.67459364  0.27666052  1
  O  O23  1  0.74739868  0.69439617  0.23068115  1
  O  O24  1  0.36377186  0.85069463  0.57857563  1
  O  O25  1  0.63927667  0.87064759  0.92308259  1
  O  O26  1  0.64068912  0.13106539  0.42162779  1
  O  O27  1  0.36075515  0.13581115  0.09134234  1
  O  O28  1  0.85345002  0.33393568  0.58828293  1
  O  O29  1  0.14891969  0.36610415  0.91804528  1
  O  O30  1  0.14048481  0.63963220  0.42481992  1
  O  O31  1  0.85688747  0.65880736  0.08727867  1
  O  O32  1  0.45897028  0.80966247  0.93443103  1
  O  O33  1  0.53681150  0.82155889  0.55863581  1
  O  O34  1  0.54214942  0.16771530  0.05749487  1
  O  O35  1  0.46576054  0.18468841  0.44582207  1
  O  O36  1  0.95159376  0.32719115  0.94168307  1
  O  O37  1  0.03947742  0.34486192  0.55496051  1
  O  O38  1  0.04900084  0.66976153  0.06377072  1
  O  O39  1  0.95937340  0.68035404  0.44245992  1
  O  O40  1  0.08779635  0.85578561  0.73934563  1
  O  O41  1  0.92459789  0.85428199  0.74302508  1
  O  O42  1  0.92594727  0.13105333  0.25737884  1
  O  O43  1  0.08926713  0.13914009  0.26280385  1
  O  O44  1  0.58319942  0.37048288  0.73676816  1
  O  O45  1  0.43035125  0.37261994  0.76225714  1
  O  O46  1  0.42879020  0.63743028  0.27280599  1
  O  O47  1  0.58095040  0.63747280  0.24093484  1
loop_
_geom_bond_atom_site_label_1
_geom_bond_atom_site_label_2
_geom_bond_distance
_geom_bond_site_symmetry_2
Na0 O40 2.365142 1_554
Na0 O6 2.403816 1_555
Na0 O16 2.526115 1_554
Na0 O22 2.534418 1_555
Na0 O0 2.541517 1_554
Na0 O46 2.714656 1_555
Na1 O47 2.305553 1_555
Na1 O1 2.388265 1_555
Na1 O23 2.412680 1_555
Na1 O7 2.503886 1_555
Na1 O17 2.584577 1_555
Na1 O41 2.679481 1_555
Na2 O44 2.303226 1_555
Na2 O20 2.404129 1_555
Na2 O2 2.408673 1_556
Na2 O4 2.540696 1_555
Na2 O18 2.551421 1_556
Na2 O42 2.827443 1_556
Na3 O43 2.285206 1_555
Na3 O5 2.383218 1_555
Na3 O19 2.409797 1_555
Na3 O21 2.432880 1_555
Na3 O3 2.566706 1_555
Na3 O45 2.730427 1_555
Na4 O4 2.304907 1_555
Na4 O5 2.384342 1_555
Na4 O34 2.482105 1_556
Na4 O45 2.538384 1_555
Na4 O35 2.542484 1_555
Na4 O44 2.599811 1_555
Na4 O25 2.869967 1_545
Na4 O24 3.000687 1_545
Na5 O7 2.312389 1_555
Na5 O6 2.343863 1_555
Na5 O46 2.417510 1_555
Na5 O47 2.469983 1_555
Na5 O33 2.529574 1_555
Na5 O32 2.594349 1_554
Na6 O0 2.358814 1_655
Na6 O1 2.450802 1_555
Na6 O41 2.478813 1_555
Na6 O39 2.506319 1_555
Na6 O38 2.562369 1_656
Na6 O40 2.601516 1_655
Na6 O29 2.906036 1_655
Na7 O3 2.419409 1_555
Na7 O37 2.462009 1_555
Na7 O2 2.468875 1_455
Na7 O36 2.568566 1_454
Na7 O43 2.709327 1_555
Na7 O30 2.724169 1_555
Na7 O42 2.732494 1_455
Na7 O31 2.968491 1_455
Na8 O18 2.327452 1_565
Na8 O23 2.371282 1_555
Na8 O42 2.410087 1_565
Na8 O25 2.441998 1_554
Na8 O7 2.684632 1_555
Na9 O17 2.334085 1_545
Na9 O20 2.415980 1_555
Na9 O26 2.483067 1_555
Na9 O41 2.514977 1_545
Na9 O4 2.686294 1_555
Na10 O46 2.370603 1_555
Na10 O22 2.422333 1_555
Na10 O19 2.473992 1_555
Na10 O3 2.546909 1_555
Na10 O29 2.625182 1_554
Na10 O8 2.715367 1_555
Na10 O11 2.785261 1_555
Na10 O35 2.983214 1_555
Na11 O16 2.358268 1_555
Na11 O21 2.359455 1_555
Na11 O45 2.406276 1_555
Na11 O30 2.505435 1_555
Na11 O0 2.670660 1_555
Na11 O8 2.809970 1_555
Na11 O32 2.907017 1_555
Na11 O11 2.957205 1_556
Ge0 O30 1.883596 1_555
Ge0 O0 1.917475 1_555
Ge0 O14 1.921181 1_555
Ge0 O16 1.937848 1_555
Ge0 O39 1.958597 1_455
Ge0 O40 2.019104 1_555
Ge1 O35 1.848870 1_555
Ge1 O20 1.876756 1_555
Ge1 O26 1.893455 1_555
Ge1 O4 1.951966 1_555
Ge1 O10 1.957193 1_555
Ge1 O44 2.166546 1_555
Ge2 O24 1.802006 1_555
Ge2 O33 1.855935 1_555
Ge2 O22 1.903182 1_555
Ge2 O6 1.909241 1_555
Ge2 O8 1.968146 1_555
Ge2 O46 2.137655 1_555
Ge3 O25 1.880739 1_554
Ge3 O32 1.890479 1_554
Ge3 O9 1.923268 1_554
Ge3 O23 1.943847 1_555
Ge3 O7 1.944039 1_555
Ge3 O47 2.169547 1_555
O0 Si5 1.655010 1_555
O1 Si4 1.625481 1_555
O1 Zr0 2.091371 1_555
O2 Si7 1.633286 1_555
O2 Zr1 2.080300 1_555
O3 Si6 1.657186 1_555
O3 Zr2 2.120809 1_555
O4 Si1 1.668559 1_545
O5 Si0 1.634382 1_545
O5 Zr3 2.092904 1_555
O6 Si3 1.644490 1_565
O7 Si2 1.663256 1_565
O8 P2 1.555889 1_555
O9 P2 1.555924 1_555
O10 P3 1.551921 1_555
O11 P3 1.544991 1_555
O11 Zr3 2.119717 1_554
O12 P0 1.529670 1_645
O12 Zr1 2.122175 1_555
O13 P0 1.541182 1_545
O13 Zr2 2.099714 1_556
O14 P1 1.541609 1_565
O15 P1 1.539562 1_665
O15 Zr0 2.107079 1_554
O16 Si0 1.641342 1_555
O17 Si1 1.637890 1_555
O17 Zr0 2.114607 1_555
O18 Si2 1.627358 1_555
O18 Zr1 2.074176 1_555
O19 Si3 1.623773 1_555
O19 Zr2 2.105902 1_555
O20 Si4 1.639020 1_555
O21 Si5 1.624532 1_555
O21 Zr3 2.098155 1_555
O22 Si6 1.654013 1_555
O23 Si7 1.645223 1_555
O24 Si0 1.624870 1_555
O25 Si1 1.659967 1_555
O26 Si2 1.658319 1_555
O27 Si3 1.631851 1_555
O27 Zr3 1.982462 1_554
O28 Si4 1.625716 1_555
O28 Zr1 1.974486 1_555
O29 Si5 1.647999 1_555
O29 Zr2 2.045175 1_556
O30 Si6 1.656891 1_555
O31 Si7 1.625614 1_555
O31 Zr0 1.961088 1_554
O32 Si0 1.671372 1_555
O33 Si1 1.630492 1_555
O34 Si2 1.612144 1_555
O34 Zr3 2.026987 1_554
O35 Si3 1.653028 1_555
O36 Si4 1.644055 1_555
O36 Zr2 2.099012 1_656
O37 Si5 1.616520 1_555
O37 Zr1 2.045698 1_455
O38 Si6 1.630495 1_555
O38 Zr0 2.077118 1_454
O39 Si7 1.660650 1_555
O40 P0 1.545028 1_555
O41 P0 1.557899 1_655
O41 Zr0 2.224049 1_555
O42 P1 1.554379 1_655
O42 Zr1 2.206352 1_555
O43 P1 1.539075 1_555
O43 Zr2 2.202320 1_555
O44 P2 1.542586 1_555
O45 P2 1.560434 1_555
O45 Zr3 2.269581 1_555
O46 P3 1.570016 1_555
O47 P3 1.545855 1_555
