# generated using pymatgen
data_K2MgV2(CuS2)4
_symmetry_space_group_name_H-M   'P 1'
_cell_length_a   5.54790631
_cell_length_b   7.47083500
_cell_length_c   9.61795370
_cell_angle_alpha   90.00000000
_cell_angle_beta   104.32146907
_cell_angle_gamma   90.00000000
_symmetry_Int_Tables_number   1
_chemical_formula_structural   K2MgV2(CuS2)4
_chemical_formula_sum   'K2 Mg1 V2 Cu4 S8'
_cell_volume   386.25157183
_cell_formula_units_Z   1
loop_
 _symmetry_equiv_pos_site_id
 _symmetry_equiv_pos_as_xyz
  1  'x, y, z'
loop_
 _atom_site_type_symbol
 _atom_site_label
 _atom_site_symmetry_multiplicity
 _atom_site_fract_x
 _atom_site_fract_y
 _atom_site_fract_z
 _atom_site_occupancy
  K  K0  1  0.00167100  0.75000000  0.40649100  1
  K  K1  1  0.55476400  0.25000000  0.64555500  1
  Mg  Mg0  1  0.34647500  0.75000000  0.05309800  1
  V  V0  1  0.89297300  0.75000000  0.78428100  1
  V  V1  1  0.08050700  0.25000000  0.23029800  1
  Cu  Cu0  1  0.99389700  0.49101700  0.00428000  1
  Cu  Cu1  1  0.99389700  0.00898300  0.00428000  1
  Cu  Cu2  1  0.38891400  0.75000000  0.77443200  1
  Cu  Cu3  1  0.58190100  0.25000000  0.22514100  1
  S  S0  1  0.31783800  0.49607200  0.22081900  1
  S  S1  1  0.13866900  0.50876200  0.79953800  1
  S  S2  1  0.57910400  0.75000000  0.59311500  1
  S  S3  1  0.92685500  0.25000000  0.41808700  1
  S  S4  1  0.75093900  0.75000000  0.98943800  1
  S  S5  1  0.76153000  0.25000000  0.03079000  1
  S  S6  1  0.31783800  0.00392800  0.22081900  1
  S  S7  1  0.13866900  0.99123800  0.79953800  1
loop_
_geom_bond_atom_site_label_1
_geom_bond_atom_site_label_2
_geom_bond_distance
_geom_bond_site_symmetry_2
K0 S2 3.261864 1_555
K0 S2 3.286281 1_455
K0 S6 3.378498 1_565
K0 S0 3.378498 1_555
K0 S3 3.763106 1_465
K0 S3 3.763106 1_455
K1 S3 3.358887 1_555
K1 S5 3.597426 1_556
K1 S1 3.598729 1_555
K1 S7 3.598729 1_545
K1 S3 3.626466 1_455
K1 S1 3.748471 1_655
K1 S7 3.748471 1_645
K1 S2 3.776196 1_545
K1 S2 3.776196 1_555
Mg0 S4 2.467753 1_554
Mg0 S6 2.520525 1_565
Mg0 S0 2.520525 1_555
Cu0 S5 2.265323 1_555
Cu0 S1 2.307139 1_654
Cu0 S4 2.342129 1_554
Cu0 S0 2.391043 1_655
Cu1 S5 2.265323 1_555
Cu1 S7 2.307139 1_644
Cu1 S4 2.342129 1_544
Cu1 S6 2.391043 1_655
Cu2 S2 2.250527 1_555
Cu2 S1 2.323733 1_555
Cu2 S7 2.323733 1_555
Cu2 S4 2.501101 1_555
Cu3 S3 2.312859 1_555
Cu3 S5 2.325696 1_555
Cu3 S6 2.344653 1_555
Cu3 S0 2.344653 1_555
S0 V1 2.276170 1_555
S1 V0 2.242480 1_455
S2 V0 2.197454 1_555
S3 V1 2.179571 1_655
S4 V0 2.298616 1_555
S5 V1 2.265779 1_655
S6 V1 2.276170 1_555
S7 V0 2.242480 1_455
