# generated using pymatgen
data_Ba2LuMgRuO6
_symmetry_space_group_name_H-M   'P 1'
_cell_length_a   5.94691308
_cell_length_b   5.93636325
_cell_length_c   6.43899703
_cell_angle_alpha   62.55031140
_cell_angle_beta   63.37847732
_cell_angle_gamma   60.05866345
_symmetry_Int_Tables_number   1
_chemical_formula_structural   Ba2LuMgRuO6
_chemical_formula_sum   'Ba2 Lu1 Mg1 Ru1 O6'
_cell_volume   167.62864671
_cell_formula_units_Z   1
loop_
 _symmetry_equiv_pos_site_id
 _symmetry_equiv_pos_as_xyz
  1  'x, y, z'
loop_
 _atom_site_type_symbol
 _atom_site_label
 _atom_site_symmetry_multiplicity
 _atom_site_fract_x
 _atom_site_fract_y
 _atom_site_fract_z
 _atom_site_occupancy
  Ba  Ba0  1  0.75153696  0.75869442  0.73107420  1
  Ba  Ba1  1  0.30624481  0.30507076  0.08361367  1
  Lu  Lu0  1  0.96644910  0.96931881  0.09491327  1
  Mg  Mg0  1  0.12653953  0.13979281  0.59387485  1
  Ru  Ru0  1  0.49842570  0.49767368  0.50622695  1
  O  O0  1  0.24509750  0.75577997  0.75046474  1
  O  O1  1  0.25343703  0.73129096  0.28398104  1
  O  O2  1  0.75099690  0.24391170  0.76117969  1
  O  O3  1  0.24509750  0.24865779  0.75046474  1
  O  O4  1  0.73537898  0.24667122  0.28981192  1
  O  O5  1  0.73537898  0.72813787  0.28981192  1
loop_
_geom_bond_atom_site_label_1
_geom_bond_atom_site_label_2
_geom_bond_distance
_geom_bond_site_symmetry_2
Ba0 O3 2.966405 1_565
Ba0 O0 2.966405 1_555
Ba0 O2 2.973118 1_565
Ba0 O2 2.973118 1_555
Ba0 O4 2.975279 1_565
Ba0 O5 2.975279 1_555
Ba0 O3 2.984427 1_655
Ba0 O0 2.984427 1_655
Ba0 O1 3.077234 1_655
Ba0 O1 3.460011 1_556
Ba0 O5 3.477295 1_556
Ba0 O4 3.477295 1_556
Ba1 O2 2.500585 1_554
Ba1 O3 2.515745 1_554
Ba1 O0 2.515745 1_554
Ba1 Mg0 2.797796 1_555
Ba1 O1 3.165172 1_555
Ba1 O1 3.165172 1_545
Ba1 O5 3.181078 1_455
Ba1 O4 3.181078 1_455
Ba1 O5 3.181965 1_545
Ba1 O4 3.181965 1_555
Lu0 O1 2.064050 1_655
Lu0 O4 2.067615 1_565
Lu0 O5 2.067615 1_555
Lu0 O2 2.463702 1_564
Lu0 O0 2.544287 1_654
Lu0 O3 2.544287 1_664
Mg0 O2 1.900016 1_455
Mg0 O0 1.903700 1_545
Mg0 O3 1.903700 1_555
O0 Ru0 2.210099 1_555
O1 Ru0 2.028714 1_555
O2 Ru0 2.211681 1_555
O3 Ru0 2.210099 1_555
O4 Ru0 2.050921 1_555
O5 Ru0 2.050921 1_555
