# generated using pymatgen
data_TbGe2Pt
_symmetry_space_group_name_H-M   'P 1'
_cell_length_a   4.34784842
_cell_length_b   8.70230921
_cell_length_c   9.51109055
_cell_angle_alpha   117.22473672
_cell_angle_beta   103.21273554
_cell_angle_gamma   90.00000289
_symmetry_Int_Tables_number   1
_chemical_formula_structural   TbGe2Pt
_chemical_formula_sum   'Tb4 Ge8 Pt4'
_cell_volume   309.24655048
_cell_formula_units_Z   4
loop_
 _symmetry_equiv_pos_site_id
 _symmetry_equiv_pos_as_xyz
  1  'x, y, z'
loop_
 _atom_site_type_symbol
 _atom_site_label
 _atom_site_symmetry_multiplicity
 _atom_site_fract_x
 _atom_site_fract_y
 _atom_site_fract_z
 _atom_site_occupancy
  Tb  Tb0  1  0.20198793  0.70198693  0.40397486  1
  Tb  Tb1  1  -0.00000000  0.26484847  0.00000100  1
  Tb  Tb2  1  0.79801207  0.29801307  0.59602514  1
  Tb  Tb3  1  0.00000000  0.73515153  0.99999900  1
  Ge  Ge0  1  0.19970773  0.04885127  0.39941547  1
  Ge  Ge1  1  0.80029227  0.95114873  0.60058453  1
  Ge  Ge2  1  0.80029227  0.64943480  0.60058453  1
  Ge  Ge3  1  0.19970773  0.35056520  0.39941547  1
  Ge  Ge4  1  0.57426135  0.57426035  0.14852169  1
  Ge  Ge5  1  0.42706230  0.92706130  0.85412460  1
  Ge  Ge6  1  0.57293770  0.07293870  0.14587540  1
  Ge  Ge7  1  0.42573865  0.42573965  0.85147831  1
  Pt  Pt0  1  0.35152346  0.60411594  0.70304992  1
  Pt  Pt1  1  0.64847654  0.39588406  0.29695008  1
  Pt  Pt2  1  0.64847454  0.90106602  0.29694808  1
  Pt  Pt3  1  0.35152546  0.09893398  0.70305192  1
loop_
_geom_bond_atom_site_label_1
_geom_bond_atom_site_label_2
_geom_bond_distance
_geom_bond_site_symmetry_2
Ge0 Pt2 2.476551 1_445
Ge0 Pt2 2.476555 1_545
Ge0 Ge3 2.625608 1_555
Ge0 Pt3 2.634894 1_555
Ge0 Tb2 3.005272 1_555
Ge0 Tb2 3.005276 1_455
Ge0 Tb0 3.038588 1_545
Ge0 Tb3 3.411930 1_544
Ge1 Pt3 2.476551 1_665
Ge1 Pt3 2.476555 1_565
Ge1 Ge2 2.625608 1_555
Ge1 Pt2 2.634894 1_555
Ge1 Tb0 3.005272 1_555
Ge1 Tb0 3.005276 1_655
Ge1 Tb2 3.038588 1_565
Ge1 Tb1 3.411930 1_666
Ge2 Pt0 2.476542 1_655
Ge2 Pt0 2.476553 1_555
Ge2 Pt1 2.634873 1_555
Ge2 Tb0 3.005272 1_555
Ge2 Tb0 3.005275 1_655
Ge2 Tb2 3.038570 1_555
Ge2 Tb3 3.411911 1_655
Ge3 Pt1 2.476542 1_455
Ge3 Pt1 2.476553 1_555
Ge3 Pt0 2.634873 1_555
Ge3 Tb2 3.005272 1_555
Ge3 Tb2 3.005275 1_455
Ge3 Tb0 3.038570 1_555
Ge3 Tb1 3.411911 1_555
Ge4 Ge7 2.427816 1_554
Ge4 Pt1 2.510668 1_555
Ge4 Pt2 2.510676 1_555
Ge4 Tb0 3.014171 1_655
Ge4 Tb0 3.014171 1_555
Ge4 Tb1 3.222899 1_655
Ge4 Tb1 3.222905 1_555
Ge4 Tb3 3.222913 1_654
Ge4 Tb3 3.222913 1_554
Ge5 Ge6 2.384559 1_566
Ge5 Pt3 2.481968 1_565
Ge5 Pt0 2.481969 1_555
Ge5 Tb3 3.385182 1_555
Ge5 Tb3 3.385185 1_655
Ge5 Tb1 3.385200 1_666
Ge5 Tb1 3.385203 1_566
Ge6 Pt2 2.481968 1_545
Ge6 Pt1 2.481969 1_555
Ge6 Tb1 3.385182 1_655
Ge6 Tb1 3.385185 1_555
Ge6 Tb3 3.385200 1_544
Ge6 Tb3 3.385203 1_644
Ge7 Pt0 2.510668 1_555
Ge7 Pt3 2.510676 1_555
Ge7 Tb2 3.014171 1_455
Ge7 Tb2 3.014171 1_555
Ge7 Tb3 3.222899 1_555
Ge7 Tb3 3.222905 1_655
Ge7 Tb1 3.222913 1_556
Ge7 Tb1 3.222913 1_656
Pt0 Tb2 3.212917 1_455
Pt0 Tb2 3.212923 1_555
Pt0 Tb0 3.257409 1_555
Pt0 Tb3 3.261823 1_555
Pt0 Tb3 3.261835 1_655
Pt1 Tb0 3.212917 1_655
Pt1 Tb0 3.212923 1_555
Pt1 Tb2 3.257409 1_555
Pt1 Tb1 3.261823 1_655
Pt1 Tb1 3.261835 1_555
Pt2 Tb0 3.212936 1_555
Pt2 Tb0 3.212936 1_655
Pt2 Tb2 3.257422 1_565
Pt2 Tb3 3.261829 1_554
Pt2 Tb3 3.261829 1_654
Pt3 Tb2 3.212936 1_555
Pt3 Tb2 3.212936 1_455
Pt3 Tb0 3.257422 1_545
Pt3 Tb1 3.261829 1_656
Pt3 Tb1 3.261829 1_556
