# generated using pymatgen
data_MgAg2(BiO3)2
_symmetry_space_group_name_H-M   'P 1'
_cell_length_a   7.18938214
_cell_length_b   7.19003806
_cell_length_c   3.58422744
_cell_angle_alpha   90.20165471
_cell_angle_beta   90.20495598
_cell_angle_gamma   78.02100917
_symmetry_Int_Tables_number   1
_chemical_formula_structural   MgAg2(BiO3)2
_chemical_formula_sum   'Mg1 Ag2 Bi2 O6'
_cell_volume   181.23914388
_cell_formula_units_Z   1
loop_
 _symmetry_equiv_pos_site_id
 _symmetry_equiv_pos_as_xyz
  1  'x, y, z'
loop_
 _atom_site_type_symbol
 _atom_site_label
 _atom_site_symmetry_multiplicity
 _atom_site_fract_x
 _atom_site_fract_y
 _atom_site_fract_z
 _atom_site_occupancy
  Mg  Mg0  1  0.76172700  0.76214800  0.50153400  1
  Ag  Ag0  1  0.50045700  0.50107500  0.50094200  1
  Ag  Ag1  1  0.01082900  0.01103500  0.49787400  1
  Bi  Bi0  1  0.03205600  0.46026200  0.00062800  1
  Bi  Bi1  1  0.45992700  0.03256700  0.00062100  1
  O  O0  1  0.20223200  0.53011600  0.50214300  1
  O  O1  1  0.47725100  0.80548600  0.49983400  1
  O  O2  1  0.83417400  0.83484800  0.00273800  1
  O  O3  1  0.14961600  0.15004900  0.99918200  1
  O  O4  1  0.80492000  0.47773800  0.49985100  1
  O  O5  1  0.52949700  0.20287500  0.50209200  1
loop_
_geom_bond_atom_site_label_1
_geom_bond_atom_site_label_2
_geom_bond_distance
_geom_bond_site_symmetry_2
Mg0 O2 1.966467 1_555
Mg0 O2 1.967583 1_556
Mg0 O4 2.003619 1_555
Mg0 O1 2.003842 1_555
Ag0 O0 2.110641 1_555
Ag0 O5 2.110658 1_555
Ag0 O1 2.160290 1_555
Ag0 O4 2.160336 1_555
Ag1 O3 2.368890 1_555
Ag1 O3 2.372517 1_554
Ag1 O2 2.646348 1_445
Ag1 O2 2.681913 1_446
Ag1 Mg0 2.782168 1_445
Bi0 O3 2.215098 1_554
Bi0 O0 2.283258 1_555
Bi0 O0 2.284378 1_554
Bi0 O4 2.408210 1_454
Bi0 O4 2.412098 1_455
Bi0 O2 2.772580 1_455
Bi1 O3 2.215479 1_554
Bi1 O5 2.283096 1_555
Bi1 O5 2.284393 1_554
Bi1 O1 2.408244 1_544
Bi1 O1 2.411932 1_545
Bi1 O2 2.769934 1_545
