# generated using pymatgen
data_NaSc2In2PS5O24
_symmetry_space_group_name_H-M   'P 1'
_cell_length_a   8.84792134
_cell_length_b   8.85168470
_cell_length_c   23.25075761
_cell_angle_alpha   89.92120402
_cell_angle_beta   90.13565866
_cell_angle_gamma   119.81223224
_symmetry_Int_Tables_number   1
_chemical_formula_structural   NaSc2In2PS5O24
_chemical_formula_sum   'Na3 Sc6 In6 P3 S15 O72'
_cell_volume   1579.98262666
_cell_formula_units_Z   3
loop_
 _symmetry_equiv_pos_site_id
 _symmetry_equiv_pos_as_xyz
  1  'x, y, z'
loop_
 _atom_site_type_symbol
 _atom_site_label
 _atom_site_symmetry_multiplicity
 _atom_site_fract_x
 _atom_site_fract_y
 _atom_site_fract_z
 _atom_site_occupancy
  Na  Na0  1  0.99890023  0.99229006  0.99653168  1
  Na  Na1  1  0.65852987  0.33193336  0.83841458  1
  Na  Na2  1  0.67188885  0.33236470  0.33105473  1
  Sc  Sc0  1  0.99759702  0.00627066  0.35324410  1
  Sc  Sc1  1  0.00081230  0.00039304  0.64652684  1
  Sc  Sc2  1  0.66569676  0.33293398  0.68529154  1
  Sc  Sc3  1  0.66732719  0.33339948  0.48160281  1
  Sc  Sc4  1  0.33304561  0.66718024  0.52036866  1
  Sc  Sc5  1  0.32692582  0.66006964  0.31065077  1
  In  In0  1  0.99914684  0.99292811  0.85326822  1
  In  In1  1  0.00063650  0.00480212  0.15044490  1
  In  In2  1  0.67193060  0.33364631  0.18476378  1
  In  In3  1  0.66042143  0.33331500  0.98013890  1
  In  In4  1  0.33837409  0.67269013  0.01665926  1
  In  In5  1  0.33995901  0.67225164  0.81638125  1
  P  P0  1  0.99749013  0.29056891  0.25115245  1
  P  P1  1  0.62768521  0.66661289  0.91643972  1
  P  P2  1  0.33375532  0.96129582  0.91652026  1
  S  S0  1  0.29160108  0.00062888  0.25150979  1
  S  S1  1  0.70815414  0.70800341  0.25146381  1
  S  S2  1  0.29091574  0.29166204  0.74928850  1
  S  S3  1  0.99957459  0.70565574  0.74851674  1
  S  S4  1  0.71047580  0.00188739  0.74879722  1
  S  S5  1  0.95669591  0.33365828  0.58337356  1
  S  S6  1  0.37712129  0.04385670  0.58318554  1
  S  S7  1  0.66693563  0.62324563  0.58322608  1
  S  S8  1  0.96236039  0.62919160  0.08297627  1
  S  S9  1  0.66744152  0.03964971  0.08292613  1
  S  S10  1  0.37123203  0.33339127  0.08393273  1
  S  S11  1  0.03940621  0.37278454  0.91647613  1
  S  S12  1  0.62081581  0.95549465  0.41654412  1
  S  S13  1  0.33498667  0.37800579  0.41678112  1
  S  S14  1  0.04315234  0.66651050  0.41651935  1
  O  O0  1  0.20579637  0.02708991  0.30205365  1
  O  O1  1  0.82199995  0.79143271  0.30198983  1
  O  O2  1  0.96957130  0.17176598  0.30396602  1
  O  O3  1  0.21764163  0.18403032  0.80152515  1
  O  O4  1  0.96338044  0.77717759  0.80078384  1
  O  O5  1  0.81763084  0.03622487  0.80130091  1
  O  O6  1  0.79824299  0.97996116  0.69771156  1
  O  O7  1  0.18234872  0.20456932  0.69784062  1
  O  O8  1  0.02287586  0.81641209  0.69756557  1
  O  O9  1  0.78097475  0.80825319  0.19797041  1
  O  O10  1  0.03073663  0.21749771  0.19594822  1
  O  O11  1  0.18930596  0.96874544  0.19807940  1
  O  O12  1  0.87565827  0.36392082  0.63446739  1
  O  O13  1  0.48823480  0.12420049  0.63446897  1
  O  O14  1  0.63659745  0.51197617  0.63444786  1
  O  O15  1  0.88413616  0.52569804  0.13593584  1
  O  O16  1  0.64179831  0.11810357  0.13575631  1
  O  O17  1  0.47698260  0.35899521  0.13663813  1
  O  O18  1  0.44968547  0.30176654  0.03253562  1
  O  O19  1  0.85156325  0.54976157  0.03164041  1
  O  O20  1  0.69853108  0.15045204  0.03164184  1
  O  O21  1  0.45803503  0.15520946  0.53179870  1
  O  O22  1  0.69691548  0.54174804  0.53184167  1
  O  O23  1  0.84514697  0.30330294  0.53183397  1
  O  O24  1  0.54783188  0.69222798  0.97149824  1
  O  O25  1  0.14341302  0.44936369  0.96902090  1
  O  O26  1  0.30064931  0.85150085  0.97112184  1
  O  O27  1  0.53920794  0.84919026  0.46868084  1
  O  O28  1  0.30934519  0.45968028  0.46865270  1
  O  O29  1  0.15019736  0.69089976  0.46859330  1
  O  O30  1  0.12290696  0.63522075  0.36545619  1
  O  O31  1  0.51163084  0.87664119  0.36524767  1
  O  O32  1  0.36596443  0.48811600  0.36550239  1
  O  O33  1  0.11549679  0.47673143  0.86369507  1
  O  O34  1  0.35964877  0.88237201  0.86092163  1
  O  O35  1  0.51839241  0.63277150  0.86124202  1
  O  O36  1  0.02403858  0.82087436  0.40828630  1
  O  O37  1  0.79471272  0.97314836  0.40945962  1
  O  O38  1  0.18096735  0.20408141  0.40902175  1
  O  O39  1  0.02193273  0.19774121  0.91112530  1
  O  O40  1  0.17149045  0.98485692  0.91234373  1
  O  O41  1  0.80803675  0.83445840  0.91198227  1
  O  O42  1  0.97493552  0.17812894  0.59220707  1
  O  O43  1  0.20353578  0.02575612  0.59207820  1
  O  O44  1  0.82186938  0.79633601  0.59221734  1
  O  O45  1  0.97901690  0.80564696  0.08899045  1
  O  O46  1  0.82627184  0.02137790  0.08795072  1
  O  O47  1  0.19641554  0.17300791  0.08887587  1
  O  O48  1  0.69086056  0.15920696  0.74073872  1
  O  O49  1  0.46783362  0.31073968  0.74121054  1
  O  O50  1  0.84210054  0.53008582  0.74015322  1
  O  O51  1  0.68861777  0.53058841  0.24665025  1
  O  O52  1  0.83129722  0.30884906  0.24740451  1
  O  O53  1  0.46631627  0.16071403  0.24635584  1
  O  O54  1  0.65158154  0.50475002  0.92055167  1
  O  O55  1  0.86417519  0.35518856  0.92177806  1
  O  O56  1  0.50132939  0.14169629  0.92102114  1
  O  O57  1  0.64143130  0.13329242  0.42414930  1
  O  O58  1  0.49279180  0.35851020  0.42436806  1
  O  O59  1  0.86665600  0.50842068  0.42416141  1
  O  O60  1  0.35209562  0.48803876  0.07717988  1
  O  O61  1  0.13464898  0.64460025  0.07650667  1
  O  O62  1  0.51168131  0.86720272  0.07761434  1
  O  O63  1  0.35905319  0.87028610  0.57406333  1
  O  O64  1  0.51129352  0.64141367  0.57392976  1
  O  O65  1  0.12988610  0.48857999  0.57406641  1
  O  O66  1  0.31366049  0.84796732  0.26048433  1
  O  O67  1  0.53579229  0.69120944  0.26033206  1
  O  O68  1  0.15829748  0.47077250  0.26188571  1
  O  O69  1  0.30620035  0.46433739  0.75486499  1
  O  O70  1  0.15536766  0.68767964  0.75476489  1
  O  O71  1  0.53767518  0.84553848  0.75354610  1
loop_
_geom_bond_atom_site_label_1
_geom_bond_atom_site_label_2
_geom_bond_distance
_geom_bond_site_symmetry_2
Na0 O40 2.506435 1_655
Na0 O41 2.512794 1_555
Na0 O39 2.629739 1_665
Na0 O45 2.661728 1_556
Na0 O46 2.706507 1_566
Na0 O47 2.726707 1_666
Na1 O54 2.468413 1_555
Na1 O56 2.476699 1_555
Na1 O55 2.592667 1_555
Na1 O49 2.767371 1_555
Na1 O48 2.832762 1_555
Na1 O50 2.847465 1_555
Na2 O52 2.474152 1_555
Na2 O51 2.585639 1_555
Na2 O53 2.595858 1_555
Na2 O57 2.717159 1_555
Na2 O59 2.721392 1_555
Na2 O58 2.766611 1_555
In0 O40 2.077293 1_655
In0 O41 2.082722 1_555
In0 O4 2.154090 1_555
In0 O39 2.186096 1_665
In0 O5 2.188089 1_565
In0 O3 2.190880 1_665
In1 O10 2.059238 1_555
In1 O11 2.152954 1_545
In1 O9 2.160559 1_445
In1 O47 2.169827 1_555
In1 O46 2.174130 1_455
In1 O45 2.203689 1_445
In2 O52 2.110647 1_555
In2 O16 2.123290 1_555
In2 O15 2.129597 1_555
In2 O17 2.156998 1_555
In2 O51 2.209346 1_555
In2 O53 2.222834 1_555
In3 O54 2.083285 1_555
In3 O56 2.090682 1_555
In3 O18 2.128585 1_556
In3 O20 2.168668 1_556
In3 O19 2.177090 1_556
In3 O55 2.189207 1_555
In4 O26 2.063160 1_554
In4 O24 2.063272 1_554
In4 O62 2.166949 1_555
In4 O25 2.171775 1_554
In4 O61 2.193749 1_555
In4 O60 2.203746 1_555
In5 O35 2.059699 1_555
In5 O34 2.060188 1_555
In5 O33 2.176510 1_555
In5 O71 2.210289 1_555
In5 O70 2.224575 1_555
In5 O69 2.231735 1_555
O0 S0 1.481244 1_555
O0 Sc0 2.125148 1_455
O1 S1 1.482305 1_555
O1 Sc0 2.123697 1_565
O2 P0 1.553821 1_555
O2 Sc0 1.968612 1_555
O3 S2 1.479695 1_555
O4 S3 1.478424 1_555
O5 S4 1.480039 1_555
O6 S4 1.485394 1_565
O6 Sc1 2.085331 1_665
O7 S2 1.486175 1_555
O7 Sc1 2.092884 1_555
O8 S3 1.484602 1_455
O8 Sc1 2.099568 1_565
O9 S1 1.477086 1_555
O10 P0 1.531541 1_455
O11 S0 1.477771 1_565
O12 S5 1.480887 1_555
O12 Sc2 2.103719 1_555
O13 S6 1.481773 1_555
O13 Sc2 2.094787 1_555
O14 S7 1.481851 1_555
O14 Sc2 2.091549 1_555
O15 S8 1.484914 1_555
O16 S9 1.484215 1_555
O17 S10 1.487627 1_555
O18 S10 1.478628 1_555
O19 S8 1.480363 1_555
O20 S9 1.479697 1_555
O21 S6 1.486855 1_555
O21 Sc3 2.092855 1_555
O22 S7 1.487373 1_555
O22 Sc3 2.087723 1_555
O23 S5 1.487925 1_555
O23 Sc3 2.077879 1_555
O24 P1 1.534197 1_555
O25 S11 1.474994 1_555
O26 P2 1.535363 1_555
O27 S12 1.483814 1_555
O27 Sc4 2.109554 1_555
O28 S13 1.481717 1_555
O28 Sc4 2.117850 1_555
O29 S14 1.483769 1_555
O29 Sc4 2.106762 1_555
O30 S14 1.477652 1_555
O30 Sc5 2.132137 1_555
O31 S12 1.472859 1_555
O31 Sc5 2.199763 1_555
O32 S13 1.476252 1_555
O32 Sc5 2.139594 1_555
O33 S11 1.480115 1_555
O34 P2 1.540997 1_555
O35 P1 1.542429 1_555
O36 S14 1.470079 1_555
O36 Sc0 2.181793 1_465
O37 S12 1.476815 1_555
O37 Sc0 2.122143 1_565
O38 S13 1.474213 1_555
O38 Sc0 2.133460 1_455
O39 S11 1.484035 1_555
O40 P2 1.552800 1_555
O41 P1 1.551607 1_555
O42 S5 1.477667 1_555
O42 Sc1 2.115185 1_655
O43 S6 1.477854 1_555
O43 Sc1 2.116589 1_555
O44 S7 1.476991 1_555
O44 Sc1 2.125338 1_665
O45 S8 1.500837 1_555
O46 S9 1.496628 1_555
O47 S10 1.496033 1_555
O48 S4 1.497945 1_555
O48 Sc2 2.099991 1_555
O49 S2 1.500865 1_555
O49 Sc2 2.112339 1_555
O50 S3 1.496948 1_555
O50 Sc2 2.096912 1_555
O51 S1 1.496364 1_555
O52 P0 1.559478 1_555
O53 S0 1.494772 1_555
O54 P1 1.551574 1_555
O55 S11 1.484597 1_655
O56 P2 1.550735 1_545
O57 S12 1.502195 1_545
O57 Sc3 2.139142 1_555
O58 S13 1.499578 1_555
O58 Sc3 2.129752 1_555
O59 S14 1.502074 1_655
O59 Sc3 2.140786 1_555
O60 S10 1.468647 1_555
O61 S8 1.469458 1_455
O62 S9 1.467170 1_565
O63 S6 1.479040 1_565
O63 Sc4 2.106468 1_555
O64 S7 1.479091 1_555
O64 Sc4 2.106604 1_555
O65 S5 1.478794 1_455
O65 Sc4 2.113956 1_555
O66 S0 1.472740 1_565
O66 Sc5 2.080546 1_555
O67 S1 1.471856 1_555
O67 Sc5 2.088741 1_555
O68 P0 1.540716 1_455
O68 Sc5 1.957215 1_555
O69 S2 1.471817 1_555
O70 S3 1.470922 1_455
O71 S4 1.470228 1_565
