# generated using pymatgen
data_AsCl2F3
_symmetry_space_group_name_H-M   'P 1'
_cell_length_a   8.65189889
_cell_length_b   8.65189889
_cell_length_c   6.21059654
_cell_angle_alpha   90.00000000
_cell_angle_beta   90.00000000
_cell_angle_gamma   90.00000000
_symmetry_Int_Tables_number   1
_chemical_formula_structural   AsCl2F3
_chemical_formula_sum   'As4 Cl8 F12'
_cell_volume   464.89640505
_cell_formula_units_Z   4
loop_
 _symmetry_equiv_pos_site_id
 _symmetry_equiv_pos_as_xyz
  1  'x, y, z'
loop_
 _atom_site_type_symbol
 _atom_site_label
 _atom_site_symmetry_multiplicity
 _atom_site_fract_x
 _atom_site_fract_y
 _atom_site_fract_z
 _atom_site_occupancy
  As  As0  1  0.50000000  0.00000000  0.67610730  1
  As  As1  1  0.00000000  0.50000000  0.32389270  1
  As  As2  1  0.50000000  0.50000000  0.00000000  1
  As  As3  1  0.00000000  0.00000000  0.00000000  1
  Cl  Cl0  1  0.46312559  0.69014082  0.19563017  1
  Cl  Cl1  1  0.19014082  0.03687441  0.19563017  1
  Cl  Cl2  1  0.69014082  0.53687441  0.80436983  1
  Cl  Cl3  1  0.03687441  0.80985918  0.80436983  1
  Cl  Cl4  1  0.96312559  0.19014082  0.80436983  1
  Cl  Cl5  1  0.30985918  0.46312559  0.80436983  1
  Cl  Cl6  1  0.53687441  0.30985918  0.19563017  1
  Cl  Cl7  1  0.80985918  0.96312559  0.19563017  1
  F  F0  1  0.50000000  0.00000000  0.39355035  1
  F  F1  1  0.00000000  0.50000000  0.60644965  1
  F  F2  1  0.43227090  0.80952434  0.67366257  1
  F  F3  1  0.30952434  0.06772910  0.67366257  1
  F  F4  1  0.69047566  0.93227090  0.67366257  1
  F  F5  1  0.56772910  0.19047566  0.67366257  1
  F  F6  1  0.06772910  0.69047566  0.32633743  1
  F  F7  1  0.19047566  0.43227090  0.32633743  1
  F  F8  1  0.80952434  0.56772910  0.32633743  1
  F  F9  1  0.00000000  0.50000000  0.04512350  1
  F  F10  1  0.50000000  0.00000000  0.95487650  1
  F  F11  1  0.93227090  0.30952434  0.32633743  1
loop_
_geom_bond_atom_site_label_1
_geom_bond_atom_site_label_2
_geom_bond_distance
_geom_bond_site_symmetry_2
As0 F10 1.731323 1_555
As0 F5 1.749124 1_555
As0 F3 1.749124 1_555
As0 F2 1.749124 1_545
As0 F4 1.749124 1_545
As0 F0 1.754847 1_555
As1 F9 1.731323 1_555
As1 F8 1.749124 1_455
As1 F6 1.749124 1_555
As1 F11 1.749124 1_455
As1 F7 1.749124 1_555
As1 F1 1.754847 1_555
As2 Cl5 2.069842 1_554
As2 Cl2 2.069842 1_554
As2 Cl6 2.069842 1_555
As2 Cl0 2.069842 1_555
As3 Cl3 2.069842 1_544
As3 Cl4 2.069842 1_454
As3 Cl7 2.069842 1_445
As3 Cl1 2.069842 1_555
