# generated using pymatgen
data_MgCr3AgO8
_symmetry_space_group_name_H-M   'P 1'
_cell_length_a   5.25408314
_cell_length_b   5.25407944
_cell_length_c   6.62626883
_cell_angle_alpha   89.91605968
_cell_angle_beta   89.91594388
_cell_angle_gamma   65.80101384
_symmetry_Int_Tables_number   1
_chemical_formula_structural   MgCr3AgO8
_chemical_formula_sum   'Mg1 Cr3 Ag1 O8'
_cell_volume   166.84663513
_cell_formula_units_Z   1
loop_
 _symmetry_equiv_pos_site_id
 _symmetry_equiv_pos_as_xyz
  1  'x, y, z'
loop_
 _atom_site_type_symbol
 _atom_site_label
 _atom_site_symmetry_multiplicity
 _atom_site_fract_x
 _atom_site_fract_y
 _atom_site_fract_z
 _atom_site_occupancy
  Mg  Mg0  1  0.33640300  0.33640300  0.24762700  1
  Cr  Cr0  1  0.99755800  0.99756200  0.49579200  1
  Cr  Cr1  1  0.65350700  0.65350400  0.27910000  1
  Cr  Cr2  1  0.35725500  0.35725100  0.72863900  1
  Ag  Ag0  1  0.00288700  0.00288700  0.98735100  1
  O  O0  1  0.74441200  0.27507800  0.28398400  1
  O  O1  1  0.27507700  0.74441100  0.28398500  1
  O  O2  1  0.26629200  0.26629000  0.95884500  1
  O  O3  1  0.22708600  0.22708300  0.51586500  1
  O  O4  1  0.77087200  0.77087500  0.47832400  1
  O  O5  1  0.74059500  0.74059500  0.06101300  1
  O  O6  1  0.22329800  0.71726200  0.70547700  1
  O  O7  1  0.71726000  0.22330100  0.70547700  1
loop_
_geom_bond_atom_site_label_1
_geom_bond_atom_site_label_2
_geom_bond_distance
_geom_bond_site_symmetry_2
Mg0 O2 2.012074 1_554
Mg0 O3 2.020762 1_555
Mg0 O1 2.047525 1_555
Mg0 O0 2.047532 1_555
Cr0 O4 2.003561 1_555
Cr0 O7 2.018155 1_565
Cr0 O6 2.018165 1_655
Cr0 O3 2.029647 1_665
Cr0 O0 2.067475 1_565
Cr0 O1 2.067483 1_655
Cr1 O5 1.635495 1_555
Cr1 O4 1.679215 1_555
Cr1 O0 1.844926 1_555
Cr1 O1 1.844946 1_555
Cr2 O2 1.722400 1_555
Cr2 O7 1.733421 1_555
Cr2 O6 1.733448 1_555
Cr2 O3 1.820002 1_555
Ag0 O2 2.331299 1_555
Ag0 O5 2.364234 1_446
Ag0 O6 2.378840 1_545
Ag0 O7 2.378853 1_455
Ag0 O0 2.482172 1_456
Ag0 O1 2.482182 1_546
