# generated using pymatgen
data_Na2La3Ta5Si6(SO8)6
_symmetry_space_group_name_H-M   'P 1'
_cell_length_a   18.21122272
_cell_length_b   9.10663383
_cell_length_c   23.68843719
_cell_angle_alpha   89.73339262
_cell_angle_beta   90.03375812
_cell_angle_gamma   120.20521953
_symmetry_Int_Tables_number   1
_chemical_formula_structural   Na2La3Ta5Si6(SO8)6
_chemical_formula_sum   'Na6 La9 Ta15 Si18 S18 O144'
_cell_volume   3395.13164207
_cell_formula_units_Z   3
loop_
 _symmetry_equiv_pos_site_id
 _symmetry_equiv_pos_as_xyz
  1  'x, y, z'
loop_
 _atom_site_type_symbol
 _atom_site_label
 _atom_site_symmetry_multiplicity
 _atom_site_fract_x
 _atom_site_fract_y
 _atom_site_fract_z
 _atom_site_occupancy
  Na  Na0  1  0.98797844  0.95160242  0.50147566  1
  Na  Na1  1  0.50365768  0.99760634  0.99857730  1
  Na  Na2  1  0.33852603  0.29776237  0.83625549  1
  Na  Na3  1  0.83383981  0.34666825  0.83511603  1
  Na  Na4  1  0.31782591  0.30094657  0.33540303  1
  Na  Na5  1  0.83757533  0.34821606  0.34550044  1
  La  La0  1  0.00784297  0.00001689  0.35325229  1
  La  La1  1  0.50273792  0.02765337  0.85064948  1
  La  La2  1  0.99869886  0.00584268  0.65832566  1
  La  La3  1  0.48802466  0.96830249  0.14856571  1
  La  La4  1  0.33569890  0.33638794  0.97314889  1
  La  La5  1  0.84112012  0.33267174  0.97439520  1
  La  La6  1  0.33806080  0.34369802  0.47981310  1
  La  La7  1  0.82827724  0.34379414  0.48125043  1
  La  La8  1  0.67631467  0.66601083  0.30487599  1
  Ta  Ta0  1  0.49001728  0.99112681  0.36102865  1
  Ta  Ta1  1  0.00589418  0.00972645  0.86239564  1
  Ta  Ta2  1  0.49869218  0.00194668  0.64962906  1
  Ta  Ta3  1  0.00715874  0.02261422  0.15201653  1
  Ta  Ta4  1  0.32305525  0.33248260  0.68843419  1
  Ta  Ta5  1  0.82686861  0.32767971  0.67752584  1
  Ta  Ta6  1  0.33927165  0.35564939  0.18864524  1
  Ta  Ta7  1  0.83465774  0.31932921  0.18156919  1
  Ta  Ta8  1  0.15582706  0.66411810  0.01674536  1
  Ta  Ta9  1  0.67248480  0.66772894  0.02218893  1
  Ta  Ta10  1  0.17611847  0.68183011  0.51969044  1
  Ta  Ta11  1  0.66790594  0.65379207  0.52571168  1
  Ta  Ta12  1  0.16197703  0.67872883  0.30616965  1
  Ta  Ta13  1  0.16881533  0.67317178  0.80849334  1
  Ta  Ta14  1  0.66441320  0.64273024  0.81138098  1
  Si  Si0  1  0.15236300  0.01023206  0.24577406  1
  Si  Si1  1  0.35022308  0.70117464  0.25742900  1
  Si  Si2  1  0.99667120  0.29285983  0.25304310  1
  Si  Si3  1  0.14758233  0.29482570  0.75550628  1
  Si  Si4  1  0.65112213  0.29373922  0.74751458  1
  Si  Si5  1  0.35265429  0.00688164  0.74784084  1
  Si  Si6  1  0.67876810  0.02352157  0.58363540  1
  Si  Si7  1  0.33373927  0.63068144  0.58557595  1
  Si  Si8  1  0.83618195  0.63961022  0.58157171  1
  Si  Si9  1  0.48676581  0.62171958  0.08024718  1
  Si  Si10  1  0.83758293  0.03471806  0.08308262  1
  Si  Si11  1  0.81001042  0.67335857  0.91312109  1
  Si  Si12  1  0.02959714  0.38362588  0.91170897  1
  Si  Si13  1  0.52891231  0.38553525  0.91849306  1
  Si  Si14  1  0.16203277  0.94344266  0.91059699  1
  Si  Si15  1  0.30381104  0.94926111  0.41106356  1
  Si  Si16  1  0.65790380  0.36778938  0.41553126  1
  Si  Si17  1  0.02826367  0.66651263  0.41687085  1
  S  S0  1  0.65699895  0.03508226  0.25134667  1
  S  S1  1  0.85963533  0.69728747  0.23909075  1
  S  S2  1  0.48639230  0.27883213  0.25072645  1
  S  S3  1  0.99579433  0.68727627  0.75465593  1
  S  S4  1  0.49681031  0.69438784  0.74785713  1
  S  S5  1  0.84644518  0.00833041  0.75647325  1
  S  S6  1  0.48193748  0.32938590  0.58676235  1
  S  S7  1  0.98861126  0.35424636  0.58447961  1
  S  S8  1  0.18821837  0.02979169  0.58457766  1
  S  S9  1  0.98335483  0.63722961  0.08552136  1
  S  S10  1  0.32066111  0.02131716  0.08077761  1
  S  S11  1  0.18707658  0.34286715  0.08682418  1
  S  S12  1  0.69152044  0.34657950  0.08332345  1
  S  S13  1  0.30209348  0.67752598  0.91814217  1
  S  S14  1  0.66173399  0.92948892  0.91650931  1
  S  S15  1  0.81134479  0.93996447  0.42438328  1
  S  S16  1  0.16398649  0.39426956  0.41847766  1
  S  S17  1  0.52653236  0.68653989  0.41335888  1
  O  O0  1  0.12678260  0.06790862  0.30265237  1
  O  O1  1  0.61508031  0.05928447  0.30062731  1
  O  O2  1  0.42499224  0.80831964  0.30586080  1
  O  O3  1  0.89835345  0.74613700  0.29507338  1
  O  O4  1  0.47545111  0.16918900  0.30076609  1
  O  O5  1  0.96322302  0.16821842  0.30589514  1
  O  O6  1  0.09247657  0.15035305  0.80510953  1
  O  O7  1  0.62661107  0.19136798  0.80588299  1
  O  O8  1  0.47172359  0.74410407  0.79962452  1
  O  O9  1  0.98244755  0.77525924  0.80234290  1
  O  O10  1  0.40471953  0.06694808  0.80586775  1
  O  O11  1  0.90750591  0.03555845  0.80238550  1
  O  O12  1  0.40685117  0.97740344  0.69852898  1
  O  O13  1  0.86987369  0.95764125  0.70385848  1
  O  O14  1  0.10012456  0.24428912  0.69665512  1
  O  O15  1  0.58250101  0.18778418  0.69795763  1
  O  O16  1  0.01595986  0.78397806  0.70186175  1
  O  O17  1  0.51036853  0.81014770  0.70009968  1
  O  O18  1  0.37596816  0.79886791  0.19861519  1
  O  O19  1  0.91525337  0.81806555  0.19489770  1
  O  O20  1  0.01149132  0.18980347  0.19912929  1
  O  O21  1  0.50161405  0.21382815  0.19881876  1
  O  O22  1  0.08579370  0.98339567  0.19439370  1
  O  O23  1  0.61073947  0.01002820  0.19864982  1
  O  O24  1  0.43845744  0.35945846  0.63365420  1
  O  O25  1  0.94041923  0.36598839  0.63596414  1
  O  O26  1  0.24224518  0.12538123  0.63475438  1
  O  O27  1  0.75334276  0.13346850  0.63684140  1
  O  O28  1  0.31650478  0.49113825  0.63850463  1
  O  O29  1  0.82713146  0.50161647  0.63387939  1
  O  O30  1  0.43096892  0.49949983  0.13868518  1
  O  O31  1  0.93808809  0.51150906  0.13236721  1
  O  O32  1  0.31227580  0.10647256  0.13123038  1
  O  O33  1  0.81731250  0.13771038  0.13695622  1
  O  O34  1  0.24620524  0.37300191  0.13536278  1
  O  O35  1  0.74684591  0.36200370  0.13370796  1
  O  O36  1  0.21327339  0.29348599  0.03618634  1
  O  O37  1  0.72631094  0.31435352  0.03243226  1
  O  O38  1  0.42250029  0.53605147  0.02918074  1
  O  O39  1  0.93431073  0.58410380  0.03367838  1
  O  O40  1  0.32972811  0.11643158  0.02883881  1
  O  O41  1  0.86742803  0.16515710  0.03182338  1
  O  O42  1  0.22342603  0.12956531  0.53288669  1
  O  O43  1  0.71228659  0.14501879  0.53084256  1
  O  O44  1  0.35868092  0.56212091  0.53107320  1
  O  O45  1  0.85723990  0.58330974  0.52377915  1
  O  O46  1  0.43306601  0.28279281  0.53429309  1
  O  O47  1  0.93712209  0.32085998  0.53401655  1
  O  O48  1  0.25196396  0.67566843  0.97083515  1
  O  O49  1  0.76490211  0.69231456  0.97076868  1
  O  O50  1  0.07801280  0.47461613  0.97401865  1
  O  O51  1  0.58970919  0.50217789  0.97102058  1
  O  O52  1  0.15263611  0.82781498  0.97060653  1
  O  O53  1  0.66710258  0.84892929  0.97069961  1
  O  O54  1  0.26341794  0.84574736  0.47205515  1
  O  O55  1  0.75391780  0.83320265  0.47335683  1
  O  O56  1  0.17042880  0.48863544  0.47282054  1
  O  O57  1  0.64951586  0.47329290  0.47223676  1
  O  O58  1  0.08790408  0.67069669  0.47303920  1
  O  O59  1  0.56949459  0.69348981  0.46674219  1
  O  O60  1  0.08063238  0.67321242  0.35809157  1
  O  O61  1  0.57028373  0.67815005  0.36321345  1
  O  O62  1  0.24866115  0.84451505  0.35742419  1
  O  O63  1  0.77083920  0.85915358  0.37095255  1
  O  O64  1  0.16023799  0.48499286  0.36874033  1
  O  O65  1  0.66731695  0.47797083  0.36013505  1
  O  O66  1  0.09029782  0.50454209  0.86224841  1
  O  O67  1  0.57941409  0.48113173  0.85739262  1
  O  O68  1  0.16821139  0.84145131  0.85718525  1
  O  O69  1  0.65880919  0.83002462  0.86608814  1
  O  O70  1  0.26346814  0.69679329  0.86613090  1
  O  O71  1  0.75112818  0.66204507  0.85710517  1
  O  O72  1  0.02508501  0.84150685  0.42176493  1
  O  O73  1  0.52300501  0.85196492  0.40842886  1
  O  O74  1  0.39699609  0.95330747  0.40283521  1
  O  O75  1  0.89269703  0.94440039  0.43147566  1
  O  O76  1  0.08690937  0.22607328  0.42459817  1
  O  O77  1  0.56677152  0.18439141  0.40261199  1
  O  O78  1  0.02489042  0.19686893  0.90608640  1
  O  O79  1  0.52189505  0.20161212  0.92484283  1
  O  O80  1  0.07132957  0.94324569  0.90497533  1
  O  O81  1  0.58349498  0.93926124  0.91973751  1
  O  O82  1  0.38764735  0.82290791  0.92498588  1
  O  O83  1  0.90136164  0.84867248  0.89793603  1
  O  O84  1  0.49937782  0.18860215  0.60055816  1
  O  O85  1  0.00469675  0.21300294  0.59293491  1
  O  O86  1  0.10079115  0.99194214  0.59250137  1
  O  O87  1  0.58919018  0.99798310  0.60913356  1
  O  O88  1  0.41142191  0.81565148  0.60686294  1
  O  O89  1  0.90597768  0.83246210  0.59448995  1
  O  O90  1  0.50789235  0.81604538  0.08525199  1
  O  O91  1  0.00316329  0.80865031  0.10155531  1
  O  O92  1  0.39394274  0.99440061  0.08416829  1
  O  O93  1  0.91456492  0.00474734  0.10699281  1
  O  O94  1  0.09974366  0.19612954  0.10203431  1
  O  O95  1  0.60385866  0.21108555  0.09268322  1
  O  O96  1  0.33824321  0.16357033  0.72547703  1
  O  O97  1  0.84440362  0.17018022  0.74685033  1
  O  O98  1  0.24363306  0.30903609  0.74425702  1
  O  O99  1  0.74645155  0.32551014  0.72841327  1
  O  O100  1  0.42397860  0.51640464  0.73227674  1
  O  O101  1  0.91916380  0.51494202  0.74736386  1
  O  O102  1  0.34720567  0.51215449  0.24310972  1
  O  O103  1  0.84988536  0.52832581  0.22591385  1
  O  O104  1  0.40290701  0.28114151  0.24424940  1
  O  O105  1  0.91771479  0.32178191  0.22807988  1
  O  O106  1  0.24435372  0.16731839  0.22322331  1
  O  O107  1  0.74492932  0.20088351  0.24305645  1
  O  O108  1  0.29876468  0.51417681  0.91577026  1
  O  O109  1  0.81982032  0.50837655  0.91221250  1
  O  O110  1  0.43980017  0.38091441  0.91074894  1
  O  O111  1  0.93721255  0.36093492  0.90798417  1
  O  O112  1  0.24109108  0.13017227  0.91104635  1
  O  O113  1  0.73849786  0.09947373  0.91217483  1
  O  O114  1  0.32201525  0.14074576  0.41197945  1
  O  O115  1  0.82041025  0.10792700  0.42547036  1
  O  O116  1  0.24097807  0.37772188  0.41517686  1
  O  O117  1  0.73407986  0.32868545  0.41516825  1
  O  O118  1  0.43773689  0.54458996  0.41262925  1
  O  O119  1  0.93789770  0.49487143  0.41279450  1
  O  O120  1  0.17783209  0.49449377  0.07806952  1
  O  O121  1  0.69439467  0.51349072  0.07821147  1
  O  O122  1  0.06706858  0.64018288  0.07619594  1
  O  O123  1  0.57787680  0.62635490  0.07150345  1
  O  O124  1  0.24107111  0.84633145  0.07392153  1
  O  O125  1  0.75141759  0.85511341  0.07111394  1
  O  O126  1  0.18986325  0.86722432  0.57953467  1
  O  O127  1  0.66880703  0.83537382  0.56992195  1
  O  O128  1  0.24824681  0.64352761  0.57149508  1
  O  O129  1  0.74142365  0.62991722  0.57391216  1
  O  O130  1  0.07124662  0.51694040  0.57930206  1
  O  O131  1  0.56610783  0.48713642  0.57679730  1
  O  O132  1  0.16162420  0.84079189  0.25448032  1
  O  O133  1  0.67699091  0.90040786  0.25912430  1
  O  O134  1  0.25548787  0.64975900  0.27662264  1
  O  O135  1  0.77705385  0.68554284  0.23459068  1
  O  O136  1  0.07913862  0.47865957  0.26192769  1
  O  O137  1  0.55245341  0.45491641  0.25915672  1
  O  O138  1  0.17223309  0.48614647  0.77373533  1
  O  O139  1  0.66306483  0.48744415  0.75718413  1
  O  O140  1  0.07022660  0.66089516  0.76562205  1
  O  O141  1  0.57367081  0.67925434  0.75590903  1
  O  O142  1  0.25806065  0.83804935  0.75922767  1
  O  O143  1  0.75804074  0.87194674  0.77137564  1
loop_
_geom_bond_atom_site_label_1
_geom_bond_atom_site_label_2
_geom_bond_distance
_geom_bond_site_symmetry_2
Na0 O75 2.376530 1_555
Na0 O72 2.393339 1_655
Na0 O89 2.571649 1_555
Na0 O76 2.870587 1_665
Na0 O86 2.871923 1_655
Na1 O79 2.441759 1_565
Na1 O82 2.583210 1_555
Na1 O81 2.583384 1_555
Na1 O90 2.655524 1_556
Na1 O92 2.837144 1_556
Na1 O95 2.923138 1_566
Na2 O110 2.385840 1_555
Na2 O112 2.422868 1_555
Na2 O98 2.813943 1_555
Na2 O96 2.898820 1_555
Na2 O10 2.992339 1_555
Na2 O100 3.048635 1_555
Na2 O108 3.070561 1_555
Na3 O109 2.443978 1_555
Na3 O111 2.508494 1_555
Na3 O101 2.581094 1_555
Na3 O97 2.708277 1_555
Na3 O113 2.728917 1_555
Na3 O99 2.941080 1_555
Na4 O114 2.347742 1_555
Na4 O116 2.649226 1_555
Na4 O104 2.717450 1_555
Na4 O102 2.773503 1_555
Na4 O118 2.862873 1_555
Na4 O106 2.953015 1_555
Na5 O119 2.285592 1_555
Na5 O117 2.443608 1_555
Na5 O115 2.783613 1_555
Na5 O107 2.878122 1_555
La0 O0 2.271423 1_555
La0 O72 2.291270 1_545
La0 O5 2.345282 1_455
La0 O76 2.492887 1_555
La0 O3 2.570664 1_445
La0 O75 2.648487 1_445
La1 O7 2.245060 1_555
La1 O10 2.253147 1_555
La1 O79 2.278006 1_555
La1 O81 2.581736 1_545
La1 O8 2.647335 1_545
La1 O82 2.648000 1_545
La2 O14 2.220804 1_655
La2 O89 2.228781 1_545
La2 O85 2.394998 1_655
La2 O13 2.412977 1_545
La2 O16 2.421538 1_645
La2 O86 2.479142 1_645
La3 O18 2.183665 1_555
La3 O90 2.197184 1_555
La3 O23 2.385973 1_565
La3 O92 2.392151 1_555
La3 O21 2.438297 1_565
La3 O95 2.524625 1_565
La4 O38 2.166694 1_556
La4 O110 2.273258 1_555
La4 O112 2.329464 1_555
La4 O40 2.349641 1_556
La4 O108 2.448553 1_555
La4 O36 2.544652 1_556
La5 O41 2.263322 1_556
La5 O111 2.269308 1_555
La5 O109 2.341448 1_555
La5 O37 2.437158 1_556
La5 O113 2.491470 1_555
La5 O39 2.492430 1_556
La6 O44 2.200533 1_555
La6 O114 2.359447 1_555
La6 O42 2.371828 1_555
La6 O118 2.410311 1_555
La6 O46 2.433694 1_555
La6 O116 2.471794 1_555
La7 O45 2.216511 1_555
La7 O117 2.274527 1_555
La7 O43 2.292267 1_555
La7 O119 2.393169 1_555
La7 O47 2.438504 1_555
La7 O115 2.469157 1_555
La8 O65 2.090393 1_555
La8 O63 2.341547 1_555
La8 O137 2.368511 1_555
La8 O133 2.383938 1_555
La8 O135 2.417001 1_555
La8 O61 2.422780 1_555
O0 Si0 1.600560 1_555
O1 S0 1.472025 1_555
O1 Ta0 2.488551 1_545
O2 Si1 1.671555 1_555
O2 Ta0 1.978982 1_555
O3 S1 1.463726 1_555
O4 S2 1.493595 1_555
O4 Ta0 2.269016 1_545
O5 Si2 1.587090 1_555
O6 Si3 1.666505 1_555
O6 Ta1 1.980479 1_555
O7 Si4 1.596906 1_555
O8 S4 1.459944 1_555
O9 S3 1.477095 1_555
O9 Ta1 2.423898 1_665
O10 Si5 1.603518 1_555
O11 S5 1.484758 1_555
O11 Ta1 2.388425 1_655
O12 Si5 1.637558 1_565
O12 Ta2 1.952658 1_565
O13 S5 1.467205 1_565
O14 Si3 1.583219 1_555
O15 Si4 1.632895 1_555
O15 Ta2 1.980191 1_555
O16 S3 1.462630 1_455
O17 S4 1.476290 1_555
O17 Ta2 2.208923 1_565
O18 Si1 1.588040 1_555
O19 S1 1.483632 1_555
O19 Ta3 2.037237 1_665
O20 Si2 1.688524 1_455
O20 Ta3 1.861365 1_555
O21 S2 1.453102 1_555
O22 Si0 1.647337 1_565
O22 Ta3 1.922393 1_565
O23 S0 1.458781 1_555
O24 S6 1.468983 1_555
O24 Ta4 2.375248 1_555
O25 S7 1.538173 1_555
O25 Ta5 2.154187 1_555
O26 S8 1.511645 1_555
O26 Ta4 2.137069 1_555
O27 Si6 1.754125 1_555
O27 Ta5 1.865801 1_555
O28 Si7 1.694016 1_555
O28 Ta4 1.912588 1_555
O29 Si8 1.708519 1_555
O29 Ta5 1.885505 1_555
O30 Si9 1.742687 1_555
O30 Ta6 1.921481 1_555
O31 S9 1.503793 1_555
O31 Ta7 2.153119 1_555
O32 S10 1.476841 1_555
O32 Ta6 2.479116 1_555
O33 Si10 1.733396 1_555
O33 Ta7 1.855351 1_555
O34 S11 1.503666 1_555
O34 Ta6 2.180757 1_555
O35 S12 1.522214 1_555
O35 Ta7 2.147750 1_555
O36 S11 1.445775 1_555
O37 S12 1.460183 1_555
O38 Si9 1.590629 1_555
O39 S9 1.452382 1_555
O40 S10 1.462084 1_555
O41 Si10 1.586997 1_555
O42 S8 1.463010 1_555
O43 Si6 1.571369 1_555
O44 Si7 1.598930 1_555
O45 Si8 1.577696 1_555
O46 S6 1.463085 1_555
O47 S7 1.454596 1_555
O48 S13 1.541868 1_555
O48 Ta8 2.018636 1_556
O49 Si11 1.647920 1_555
O49 Ta9 1.996781 1_556
O50 Si12 1.708031 1_555
O50 Ta8 1.888010 1_556
O51 Si13 1.652197 1_555
O51 Ta9 1.934579 1_556
O52 Si14 1.721584 1_555
O52 Ta8 1.868723 1_556
O53 S14 1.502953 1_555
O53 Ta9 2.089034 1_556
O54 Si15 1.675713 1_555
O54 Ta10 1.904639 1_555
O55 S15 1.533844 1_555
O55 Ta11 2.017281 1_555
O56 S16 1.522519 1_555
O56 Ta10 2.042887 1_555
O57 Si16 1.706084 1_555
O57 Ta11 1.970694 1_555
O58 Si17 1.705457 1_555
O58 Ta10 1.909815 1_555
O59 S17 1.471405 1_555
O59 Ta11 2.436847 1_555
O60 Si17 1.671597 1_555
O60 Ta12 1.906959 1_555
O61 S17 1.454274 1_555
O62 Si15 1.605903 1_555
O62 Ta12 1.965259 1_555
O63 S15 1.465958 1_555
O64 S16 1.457048 1_555
O64 Ta12 2.286945 1_555
O65 Si16 1.604089 1_555
O66 Si12 1.603739 1_555
O66 Ta13 1.949058 1_555
O67 Si13 1.697893 1_555
O67 Ta14 1.855996 1_555
O68 Si14 1.610100 1_555
O68 Ta13 1.926757 1_555
O69 S14 1.487051 1_555
O69 Ta14 2.189717 1_555
O70 S13 1.471298 1_555
O70 Ta13 2.123344 1_555
O71 Si11 1.676202 1_555
O71 Ta14 1.848842 1_555
O72 Si17 1.628167 1_555
O73 S17 1.543673 1_555
O73 Ta0 1.994920 1_555
O74 Si15 1.690150 1_555
O74 Ta0 1.838712 1_555
O75 S15 1.471163 1_555
O76 S16 1.473860 1_555
O77 Si16 1.688953 1_555
O77 Ta0 1.887025 1_545
O78 Si12 1.665224 1_555
O78 Ta1 1.875640 1_555
O79 Si13 1.620686 1_555
O80 Si14 1.656199 1_555
O80 Ta1 1.876903 1_565
O81 S14 1.473662 1_555
O82 S13 1.460395 1_555
O83 Si11 1.663969 1_555
O83 Ta1 1.914389 1_665
O84 S6 1.502354 1_555
O84 Ta2 2.049625 1_555
O85 S7 1.468684 1_455
O86 S8 1.461698 1_565
O87 Si6 1.642632 1_565
O87 Ta2 1.923465 1_565
O88 Si7 1.643876 1_555
O88 Ta2 1.931699 1_565
O89 Si8 1.597506 1_555
O90 Si9 1.615728 1_555
O91 S9 1.466306 1_455
O91 Ta3 2.260461 1_565
O92 S10 1.475261 1_565
O93 Si10 1.656306 1_555
O93 Ta3 1.931539 1_655
O94 S11 1.517471 1_555
O94 Ta3 2.011408 1_555
O95 S12 1.461532 1_555
O96 Si5 1.659877 1_555
O96 Ta4 1.904695 1_555
O97 S5 1.509221 1_555
O97 Ta5 2.300927 1_555
O98 Si3 1.708779 1_555
O98 Ta4 1.890793 1_555
O99 Si4 1.672327 1_555
O99 Ta5 1.889701 1_555
O100 S4 1.537657 1_555
O100 Ta4 2.044121 1_555
O101 S3 1.496282 1_555
O101 Ta5 2.368340 1_555
O102 Si1 1.729542 1_555
O102 Ta6 1.877876 1_555
O103 S1 1.491971 1_555
O103 Ta7 2.071216 1_555
O104 S2 1.538627 1_555
O104 Ta6 2.078318 1_555
O105 Si2 1.692690 1_555
O105 Ta7 1.861861 1_555
O106 Si0 1.649502 1_555
O106 Ta6 1.898930 1_555
O107 S0 1.564407 1_555
O107 Ta7 2.042015 1_555
O108 S13 1.459351 1_555
O109 Si11 1.600018 1_555
O110 Si13 1.612465 1_555
O111 Si12 1.590994 1_655
O112 Si14 1.581560 1_545
O113 S14 1.477282 1_545
O114 Si15 1.603062 1_545
O115 S15 1.453887 1_545
O116 S16 1.485791 1_555
O117 Si16 1.596398 1_555
O118 S17 1.477537 1_555
O119 Si17 1.604286 1_655
O120 S11 1.486331 1_555
O120 Ta8 2.293090 1_555
O121 S12 1.498680 1_555
O121 Ta9 2.106936 1_555
O122 S9 1.527350 1_455
O122 Ta8 2.070957 1_555
O123 Si9 1.651550 1_555
O123 Ta9 1.954529 1_555
O124 S10 1.531232 1_565
O124 Ta8 2.103407 1_555
O125 Si10 1.624566 1_565
O125 Ta9 1.967160 1_555
O126 S8 1.501049 1_565
O126 Ta10 2.125874 1_555
O127 Si6 1.663285 1_565
O127 Ta11 1.954541 1_555
O128 Si7 1.652647 1_555
O128 Ta10 1.951447 1_555
O129 Si8 1.692673 1_555
O129 Ta11 1.852636 1_555
O130 S7 1.493296 1_455
O130 Ta10 2.234769 1_555
O131 S6 1.500221 1_555
O131 Ta11 2.087856 1_555
O132 Si0 1.646443 1_565
O132 Ta12 1.915761 1_555
O133 S0 1.455242 1_565
O134 Si1 1.608900 1_555
O134 Ta12 1.978558 1_555
O135 S1 1.456921 1_555
O136 Si2 1.615169 1_455
O136 Ta12 1.985953 1_555
O137 S2 1.456072 1_555
O138 Si3 1.625836 1_555
O138 Ta13 1.924154 1_555
O139 Si4 1.682003 1_555
O139 Ta14 1.905397 1_555
O140 S3 1.513029 1_455
O140 Ta13 2.016017 1_555
O141 S4 1.485981 1_555
O141 Ta14 2.261554 1_555
O142 Si5 1.654058 1_565
O142 Ta13 1.946377 1_555
O143 S5 1.497920 1_565
O143 Ta14 2.136545 1_555
