# generated using pymatgen
data_Cr2P
_symmetry_space_group_name_H-M   'P 1'
_cell_length_a   6.84341018
_cell_length_b   6.84341018
_cell_length_c   6.84341018
_cell_angle_alpha   124.86965099
_cell_angle_beta   122.80449580
_cell_angle_gamma   83.48371946
_symmetry_Int_Tables_number   1
_chemical_formula_structural   Cr2P
_chemical_formula_sum   'Cr12 P6'
_cell_volume   211.87663185
_cell_formula_units_Z   6
loop_
 _symmetry_equiv_pos_site_id
 _symmetry_equiv_pos_as_xyz
  1  'x, y, z'
loop_
 _atom_site_type_symbol
 _atom_site_label
 _atom_site_symmetry_multiplicity
 _atom_site_fract_x
 _atom_site_fract_y
 _atom_site_fract_z
 _atom_site_occupancy
  Cr  Cr0  1  0.79509100  0.25784000  0.05293100  1
  Cr  Cr1  1  0.20490900  0.25784000  0.46274900  1
  Cr  Cr2  1  0.83360500  0.99755200  0.58072600  1
  Cr  Cr3  1  0.16639500  0.74712100  0.16394700  1
  Cr  Cr4  1  0.41682600  0.99755200  0.16394700  1
  Cr  Cr5  1  0.58317400  0.74712100  0.58072600  1
  Cr  Cr6  1  0.71209400  0.44514600  0.73305100  1
  Cr  Cr7  1  0.28790600  0.02095700  0.73305100  1
  Cr  Cr8  1  0.21492300  0.36399100  0.14906800  1
  Cr  Cr9  1  0.78507700  0.93414500  0.14906800  1
  Cr  Cr10  1  0.50000000  0.54881500  0.04881500  1
  Cr  Cr11  1  0.00000000  0.62703400  0.62703400  1
  P  P0  1  0.39257700  0.66576700  0.72834200  1
  P  P1  1  0.60742300  0.33576500  0.27318900  1
  P  P2  1  0.93742500  0.66576700  0.27318900  1
  P  P3  1  0.06257500  0.33576500  0.72834200  1
  P  P4  1  0.50000000  0.07992300  0.57992300  1
  P  P5  1  0.00000000  0.97360100  0.97360100  1
loop_
_geom_bond_atom_site_label_1
_geom_bond_atom_site_label_2
_geom_bond_distance
_geom_bond_site_symmetry_2
Cr0 P4 2.237679 1_554
Cr0 P5 2.245683 1_644
Cr0 P1 2.286657 1_555
Cr0 P2 2.286665 1_555
Cr1 P4 2.237679 1_555
Cr1 P5 2.245683 1_544
Cr1 P0 2.286663 1_555
Cr1 P3 2.286663 1_555
Cr2 P4 2.286419 1_565
Cr2 P3 2.295073 1_665
Cr2 P5 2.386695 1_655
Cr2 P2 2.424792 1_555
Cr3 P4 2.286419 1_565
Cr3 P2 2.295067 1_455
Cr3 P5 2.386695 1_554
Cr3 P3 2.424788 1_554
Cr4 P4 2.286419 1_565
Cr4 P1 2.295077 1_565
Cr4 P5 2.386695 1_554
Cr4 P0 2.424788 1_554
Cr5 P4 2.286419 1_565
Cr5 P0 2.295073 1_555
Cr5 P5 2.386695 1_655
Cr5 P1 2.424790 1_555
Cr6 P4 2.373229 1_555
Cr6 P3 2.441875 1_655
Cr6 P1 2.441878 1_555
Cr6 P2 2.508320 1_556
Cr6 P0 2.508321 1_555
Cr7 P4 2.373223 1_555
Cr7 P0 2.441874 1_545
Cr7 P2 2.441875 1_445
Cr7 P1 2.508321 1_556
Cr7 P3 2.508324 1_555
Cr8 P3 2.360356 1_554
Cr8 P1 2.360357 1_555
Cr8 P5 2.460212 1_544
Cr8 P2 2.728496 1_455
Cr8 P0 2.728498 1_555
Cr9 P2 2.360352 1_555
Cr9 P0 2.360356 1_554
Cr9 P5 2.460212 1_654
Cr9 P3 2.728498 1_665
Cr9 P1 2.728498 1_565
Cr10 P1 2.473316 1_555
Cr10 P0 2.473322 1_554
Cr10 P3 2.473322 1_554
Cr10 P2 2.473323 1_555
Cr11 P5 2.195043 1_555
Cr11 P1 2.387857 1_455
Cr11 P0 2.387857 1_555
Cr11 P3 2.387857 1_555
Cr11 P2 2.387864 1_455
