# generated using pymatgen
data_P2Rh3
_symmetry_space_group_name_H-M   'P 1'
_cell_length_a   3.34750544
_cell_length_b   3.34750544
_cell_length_c   6.20315970
_cell_angle_alpha   90.00000000
_cell_angle_beta   90.00000000
_cell_angle_gamma   90.00000000
_symmetry_Int_Tables_number   1
_chemical_formula_structural   P2Rh3
_chemical_formula_sum   'P2 Rh3'
_cell_volume   69.51132150
_cell_formula_units_Z   1
loop_
 _symmetry_equiv_pos_site_id
 _symmetry_equiv_pos_as_xyz
  1  'x, y, z'
loop_
 _atom_site_type_symbol
 _atom_site_label
 _atom_site_symmetry_multiplicity
 _atom_site_fract_x
 _atom_site_fract_y
 _atom_site_fract_z
 _atom_site_occupancy
  P  P0  1  0.50000000  0.00000000  0.25600602  1
  P  P1  1  -0.00000000  0.50000000  0.74399398  1
  Rh  Rh0  1  -0.00000000  -0.00000000  0.00000000  1
  Rh  Rh1  1  0.50000000  -0.00000000  0.63161507  1
  Rh  Rh2  1  0.00000000  0.50000000  0.36838493  1
loop_
_geom_bond_atom_site_label_1
_geom_bond_atom_site_label_2
_geom_bond_distance
_geom_bond_site_symmetry_2
P0 Rh0 2.307236 1_555
P0 Rh0 2.307236 1_655
P0 Rh1 2.329963 1_555
P0 Rh2 2.467560 1_655
P0 Rh2 2.467560 1_555
P0 Rh2 2.467560 1_545
P0 Rh2 2.467560 1_645
P1 Rh0 2.307236 1_556
P1 Rh0 2.307236 1_566
P1 Rh2 2.329963 1_555
P1 Rh1 2.467560 1_565
P1 Rh1 2.467560 1_455
P1 Rh1 2.467560 1_465
P1 Rh1 2.467560 1_555
