# generated using pymatgen
data_MgNb4(IO2)4
_symmetry_space_group_name_H-M   'P 1'
_cell_length_a   3.96855700
_cell_length_b   3.89128940
_cell_length_c   21.80886023
_cell_angle_alpha   89.75199081
_cell_angle_beta   90.00000000
_cell_angle_gamma   90.00000000
_symmetry_Int_Tables_number   1
_chemical_formula_structural   MgNb4(IO2)4
_chemical_formula_sum   'Mg1 Nb4 I4 O8'
_cell_volume   336.78679438
_cell_formula_units_Z   1
loop_
 _symmetry_equiv_pos_site_id
 _symmetry_equiv_pos_as_xyz
  1  'x, y, z'
loop_
 _atom_site_type_symbol
 _atom_site_label
 _atom_site_symmetry_multiplicity
 _atom_site_fract_x
 _atom_site_fract_y
 _atom_site_fract_z
 _atom_site_occupancy
  Mg  Mg0  1  0.25000000  0.99573200  0.81762900  1
  Nb  Nb0  1  0.25000000  0.48473600  0.94525000  1
  Nb  Nb1  1  0.75000000  0.99431300  0.56133900  1
  Nb  Nb2  1  0.75000000  0.50358300  0.06867100  1
  Nb  Nb3  1  0.25000000  0.00487000  0.43600700  1
  I  I0  1  0.25000000  0.99760000  0.67451100  1
  I  I1  1  0.75000000  0.00890900  0.33233700  1
  I  I2  1  0.25000000  0.50275700  0.17117400  1
  I  I3  1  0.75000000  0.49641600  0.79778000  1
  O  O0  1  0.25000000  0.50355900  0.43059800  1
  O  O1  1  0.75000000  0.49772400  0.57707400  1
  O  O2  1  0.25000000  0.99969900  0.90990900  1
  O  O3  1  0.75000000  0.00076200  0.46950300  1
  O  O4  1  0.25000000  0.99873600  0.53171000  1
  O  O5  1  0.25000000  0.49663300  0.03486600  1
  O  O6  1  0.75000000  0.00255700  0.07110300  1
  O  O7  1  0.75000000  0.51141300  0.96992300  1
loop_
_geom_bond_atom_site_label_1
_geom_bond_atom_site_label_2
_geom_bond_distance
_geom_bond_site_symmetry_2
Mg0 O2 2.012648 1_555
Nb0 O5 1.955171 1_556
Nb0 O2 2.041812 1_545
Nb0 O7 2.058680 1_555
Nb0 O7 2.058680 1_455
Nb0 O2 2.143869 1_555
Nb1 O1 1.961142 1_555
Nb1 O1 1.990211 1_565
Nb1 O3 2.002887 1_565
Nb1 O4 2.086888 1_555
Nb1 O4 2.086888 1_655
Nb2 O6 1.942606 1_565
Nb2 O6 1.950129 1_555
Nb2 O5 2.117026 1_655
Nb2 O5 2.117026 1_555
Nb2 O7 2.153665 1_554
Nb3 O0 1.943616 1_555
Nb3 O0 1.954819 1_545
Nb3 O4 2.087207 1_545
Nb3 O3 2.114512 1_455
Nb3 O3 2.114512 1_555
I0 Mg0 3.121217 1_555
I0 Nb1 3.166950 1_455
I0 Nb1 3.166950 1_555
I1 Nb3 3.008169 1_655
I1 Nb3 3.008169 1_555
I2 Nb2 2.989089 1_555
I2 Nb2 2.989089 1_455
I3 Mg0 2.811977 1_655
I3 Mg0 2.811977 1_555
I3 Mg0 2.813067 1_645
I3 Mg0 2.813067 1_545
