# generated using pymatgen
data_Na10Ta7Al(SiO4)12
_symmetry_space_group_name_H-M   'P 1'
_cell_length_a   17.92225349
_cell_length_b   8.96526236
_cell_length_c   22.52606917
_cell_angle_alpha   90.02255083
_cell_angle_beta   89.97985888
_cell_angle_gamma   119.97802079
_symmetry_Int_Tables_number   1
_chemical_formula_structural   Na10Ta7Al(SiO4)12
_chemical_formula_sum   'Na30 Ta21 Al3 Si36 O144'
_cell_volume   3135.21816595
_cell_formula_units_Z   3
loop_
 _symmetry_equiv_pos_site_id
 _symmetry_equiv_pos_as_xyz
  1  'x, y, z'
loop_
 _atom_site_type_symbol
 _atom_site_label
 _atom_site_symmetry_multiplicity
 _atom_site_fract_x
 _atom_site_fract_y
 _atom_site_fract_z
 _atom_site_occupancy
  Na  Na0  1  0.81711411  0.01000270  0.24688895  1
  Na  Na1  1  0.18248289  0.36531930  0.24933560  1
  Na  Na2  1  0.68758707  0.36422336  0.24617607  1
  Na  Na3  1  0.99454353  0.62209970  0.24678018  1
  Na  Na4  1  0.31720521  0.62489425  0.74736370  1
  Na  Na5  1  0.81762765  0.62498284  0.74689915  1
  Na  Na6  1  0.99487123  0.36434070  0.74665869  1
  Na  Na7  1  0.49467649  0.36365871  0.74668204  1
  Na  Na8  1  0.18738334  0.01001780  0.74756820  1
  Na  Na9  1  0.68761184  0.01063119  0.74710356  1
  Na  Na10  1  0.15226858  0.33590945  0.58427352  1
  Na  Na11  1  0.65330723  0.33582390  0.58385390  1
  Na  Na12  1  0.33403077  0.97142790  0.58396192  1
  Na  Na13  1  0.83454594  0.97353053  0.58373222  1
  Na  Na14  1  0.65194556  0.97070257  0.08469763  1
  Na  Na15  1  0.83293280  0.69472667  0.08386907  1
  Na  Na16  1  0.01527576  0.33501463  0.08313761  1
  Na  Na17  1  0.48356295  0.29996222  0.41678441  1
  Na  Na18  1  0.99992317  0.99212297  0.49703799  1
  Na  Na19  1  0.50112094  0.98652036  0.49815324  1
  Na  Na20  1  0.00430012  0.99928981  0.99715536  1
  Na  Na21  1  0.49604398  0.00113172  0.99925667  1
  Na  Na22  1  0.33294632  0.33307439  0.83371064  1
  Na  Na23  1  0.83352242  0.33319097  0.83306735  1
  Na  Na24  1  0.33320867  0.33351458  0.33252226  1
  Na  Na25  1  0.83302409  0.33226344  0.33231909  1
  Na  Na26  1  0.17414724  0.68295960  0.16434260  1
  Na  Na27  1  0.65865052  0.65709854  0.16619547  1
  Na  Na28  1  0.16282194  0.66685553  0.66564188  1
  Na  Na29  1  0.66300644  0.66719050  0.66543180  1
  Ta  Ta0  1  0.99889553  0.99958432  0.35561940  1
  Ta  Ta1  1  0.50070761  0.99705834  0.35398415  1
  Ta  Ta2  1  0.00008618  0.00071905  0.85582815  1
  Ta  Ta3  1  0.49990591  0.99905673  0.85587404  1
  Ta  Ta4  1  -0.00003732  0.99620539  0.64531993  1
  Ta  Ta5  1  0.50045482  0.99709411  0.64530753  1
  Ta  Ta6  1  0.00288693  0.99964904  0.14501655  1
  Ta  Ta7  1  0.49724230  0.99957884  0.14435123  1
  Ta  Ta8  1  0.33632889  0.33373521  0.18729258  1
  Ta  Ta9  1  0.33291152  0.33254247  0.97731149  1
  Ta  Ta10  1  0.83355144  0.33393557  0.97773529  1
  Ta  Ta11  1  0.33043089  0.33477656  0.47881693  1
  Ta  Ta12  1  0.83437119  0.33409852  0.47763402  1
  Ta  Ta13  1  0.16890031  0.67246826  0.02155455  1
  Ta  Ta14  1  0.66425546  0.66018617  0.02076409  1
  Ta  Ta15  1  0.16407638  0.66633415  0.52085036  1
  Ta  Ta16  1  0.66542343  0.66855590  0.52137758  1
  Ta  Ta17  1  0.16892208  0.67103974  0.31297646  1
  Ta  Ta18  1  0.66477899  0.66676859  0.31230188  1
  Ta  Ta19  1  0.16677203  0.66633811  0.81469391  1
  Ta  Ta20  1  0.66680288  0.66667375  0.81446750  1
  Al  Al0  1  0.33348240  0.33290268  0.68628163  1
  Al  Al1  1  0.83338801  0.33313267  0.68611501  1
  Al  Al2  1  0.83280751  0.33337870  0.18597650  1
  Si  Si0  1  0.14548574  0.00043458  0.25099178  1
  Si  Si1  1  0.64644312  0.00372322  0.24765668  1
  Si  Si2  1  0.35626895  0.71116569  0.24982519  1
  Si  Si3  1  0.85554650  0.70583281  0.24884013  1
  Si  Si4  1  0.99713656  0.28930159  0.24903824  1
  Si  Si5  1  0.49848518  0.28681935  0.25076239  1
  Si  Si6  1  0.14703528  0.28906575  0.74895442  1
  Si  Si7  1  0.64707062  0.28893769  0.74912575  1
  Si  Si8  1  0.99734596  0.70516922  0.74987163  1
  Si  Si9  1  0.49732405  0.70506149  0.74966385  1
  Si  Si10  1  0.35528984  0.00501682  0.74925660  1
  Si  Si11  1  0.85529025  0.00528952  0.74930799  1
  Si  Si12  1  0.47508866  0.33733515  0.58605344  1
  Si  Si13  1  0.97501253  0.33722037  0.58698950  1
  Si  Si14  1  0.19136996  0.04826904  0.58686794  1
  Si  Si15  1  0.69241449  0.05083303  0.58614617  1
  Si  Si16  1  0.33440666  0.61730139  0.58661212  1
  Si  Si17  1  0.83469394  0.61560944  0.58595345  1
  Si  Si18  1  0.47677070  0.62160759  0.08239404  1
  Si  Si19  1  0.97528055  0.61524602  0.08640343  1
  Si  Si20  1  0.33311201  0.04612823  0.08272220  1
  Si  Si21  1  0.83290917  0.05000713  0.08634868  1
  Si  Si22  1  0.19076034  0.33549998  0.08377344  1
  Si  Si23  1  0.69158231  0.33305679  0.08641210  1
  Si  Si24  1  0.31191849  0.66612261  0.91695587  1
  Si  Si25  1  0.81214721  0.66711743  0.91736677  1
  Si  Si26  1  0.02197643  0.37739026  0.91801188  1
  Si  Si27  1  0.52054003  0.37468031  0.91611500  1
  Si  Si28  1  0.16656195  0.95691160  0.91679348  1
  Si  Si29  1  0.66681488  0.95711798  0.91755994  1
  Si  Si30  1  0.31169822  0.95625805  0.41788036  1
  Si  Si31  1  0.81089891  0.95540105  0.41678916  1
  Si  Si32  1  0.16594039  0.37656864  0.41653306  1
  Si  Si33  1  0.66865539  0.37848953  0.41635264  1
  Si  Si34  1  0.02151979  0.66645071  0.41553296  1
  Si  Si35  1  0.52156132  0.66922352  0.41718469  1
  O  O0  1  0.09871772  0.03492899  0.30708419  1
  O  O1  1  0.59749934  0.03308574  0.30516594  1
  O  O2  1  0.41642093  0.80600780  0.30783056  1
  O  O3  1  0.91941179  0.80397278  0.30522067  1
  O  O4  1  0.48582351  0.17289051  0.31059413  1
  O  O5  1  0.98286798  0.16199323  0.30545152  1
  O  O6  1  0.09816771  0.16159802  0.80500126  1
  O  O7  1  0.59806193  0.16117451  0.80503440  1
  O  O8  1  0.48241195  0.80160772  0.80599159  1
  O  O9  1  0.98243691  0.80241982  0.80607554  1
  O  O10  1  0.41919172  0.03449958  0.80513359  1
  O  O11  1  0.91893962  0.03406063  0.80526463  1
  O  O12  1  0.39893887  0.96493367  0.69092680  1
  O  O13  1  0.89873933  0.96472804  0.69103559  1
  O  O14  1  0.08337691  0.20253298  0.69073901  1
  O  O15  1  0.58335093  0.20293754  0.69078675  1
  O  O16  1  0.01780476  0.83795138  0.69313721  1
  O  O17  1  0.51776205  0.83802801  0.69310339  1
  O  O18  1  0.40220222  0.83339680  0.19242218  1
  O  O19  1  0.89952977  0.83442073  0.19107190  1
  O  O20  1  0.01747484  0.20089407  0.19131146  1
  O  O21  1  0.51726459  0.19604372  0.19419144  1
  O  O22  1  0.08194474  0.96502295  0.19331954  1
  O  O23  1  0.58519126  0.97038942  0.18980780  1
  O  O24  1  0.43122219  0.36153430  0.64478339  1
  O  O25  1  0.93218956  0.36233370  0.64601422  1
  O  O26  1  0.25109690  0.13228057  0.64466192  1
  O  O27  1  0.75099223  0.13197569  0.64472949  1
  O  O28  1  0.31480862  0.49583297  0.64409277  1
  O  O29  1  0.81459519  0.49636423  0.64417444  1
  O  O30  1  0.43151349  0.50137596  0.14088432  1
  O  O31  1  0.93294605  0.49681388  0.14454373  1
  O  O32  1  0.31915125  0.13854496  0.14124166  1
  O  O33  1  0.81477381  0.13311345  0.14428286  1
  O  O34  1  0.24732702  0.36132420  0.14382192  1
  O  O35  1  0.75150957  0.37134603  0.14448620  1
  O  O36  1  0.23627753  0.30444185  0.02633338  1
  O  O37  1  0.73580791  0.29864409  0.02786312  1
  O  O38  1  0.41651585  0.52826908  0.02504504  1
  O  O39  1  0.91336699  0.53002029  0.02788653  1
  O  O40  1  0.34785109  0.16730979  0.02508240  1
  O  O41  1  0.85144582  0.17331231  0.02804703  1
  O  O42  1  0.23540336  0.17053984  0.52801388  1
  O  O43  1  0.73524035  0.17219639  0.52768259  1
  O  O44  1  0.34809112  0.52765261  0.52721343  1
  O  O45  1  0.84798243  0.52645771  0.52687475  1
  O  O46  1  0.41632671  0.30003190  0.52580419  1
  O  O47  1  0.91388087  0.29818294  0.52836169  1
  O  O48  1  0.26320311  0.69355580  0.97344926  1
  O  O49  1  0.76570615  0.69442689  0.97574651  1
  O  O50  1  0.08122539  0.46770762  0.97630341  1
  O  O51  1  0.58326952  0.47268601  0.97300102  1
  O  O52  1  0.15250591  0.83247349  0.97336512  1
  O  O53  1  0.65351474  0.83700910  0.97586050  1
  O  O54  1  0.26630164  0.83834281  0.47685690  1
  O  O55  1  0.76505833  0.83587362  0.47578756  1
  O  O56  1  0.15410559  0.46968286  0.47590222  1
  O  O57  1  0.65088216  0.46822746  0.47467972  1
  O  O58  1  0.08381538  0.69324239  0.47316103  1
  O  O59  1  0.58289544  0.69432293  0.47472321  1
  O  O60  1  0.06748471  0.63849685  0.35677745  1
  O  O61  1  0.56780892  0.63355197  0.36015282  1
  O  O62  1  0.25001665  0.86097003  0.36034565  1
  O  O63  1  0.75111772  0.86237743  0.35801632  1
  O  O64  1  0.18027014  0.49567276  0.35759215  1
  O  O65  1  0.67998005  0.49623914  0.35755094  1
  O  O66  1  0.06821155  0.49663646  0.85821207  1
  O  O67  1  0.56744125  0.49525271  0.85698296  1
  O  O68  1  0.18014010  0.86493715  0.85699425  1
  O  O69  1  0.67999082  0.86365874  0.85806900  1
  O  O70  1  0.25257484  0.63935364  0.85700061  1
  O  O71  1  0.75197376  0.63988925  0.85800706  1
  O  O72  1  0.01339752  0.83839998  0.40936957  1
  O  O73  1  0.51291564  0.83965228  0.41093089  1
  O  O74  1  0.40831645  0.98242993  0.41099287  1
  O  O75  1  0.90532944  0.97244448  0.40973235  1
  O  O76  1  0.08055598  0.18773025  0.40989809  1
  O  O77  1  0.57956093  0.19225674  0.41032583  1
  O  O78  1  0.01342372  0.18877366  0.90913292  1
  O  O79  1  0.51346485  0.18787206  0.90914245  1
  O  O80  1  0.08073671  0.97369007  0.90914229  1
  O  O81  1  0.58084736  0.97289026  0.90925783  1
  O  O82  1  0.40574732  0.83846675  0.90902650  1
  O  O83  1  0.90593402  0.83915735  0.90949104  1
  O  O84  1  0.48674547  0.16358890  0.59046258  1
  O  O85  1  0.98707427  0.16384904  0.59102015  1
  O  O86  1  0.09613904  0.03375375  0.59036966  1
  O  O87  1  0.59623521  0.03341835  0.59065864  1
  O  O88  1  0.41737839  0.81486169  0.59008948  1
  O  O89  1  0.91696439  0.81463626  0.59032910  1
  O  O90  1  0.49118886  0.81617487  0.08922466  1
  O  O91  1  0.98341142  0.80766834  0.09098782  1
  O  O92  1  0.41875749  0.02673329  0.09040790  1
  O  O93  1  0.91899236  0.02669761  0.09063435  1
  O  O94  1  0.09286961  0.16553434  0.09022349  1
  O  O95  1  0.59588100  0.15979617  0.09049090  1
  O  O96  1  0.34493413  0.17363282  0.74304205  1
  O  O97  1  0.84475341  0.17347312  0.74332969  1
  O  O98  1  0.24160073  0.30919837  0.74236327  1
  O  O99  1  0.74157314  0.30924514  0.74252427  1
  O  O100  1  0.41289340  0.51676070  0.74244539  1
  O  O101  1  0.91292685  0.51716273  0.74263413  1
  O  O102  1  0.34183178  0.51698896  0.24447037  1
  O  O103  1  0.84571530  0.51721731  0.24278678  1
  O  O104  1  0.41435607  0.30918270  0.24451045  1
  O  O105  1  0.91238789  0.30797057  0.24283273  1
  O  O106  1  0.23826461  0.17447918  0.24423364  1
  O  O107  1  0.74106090  0.17444305  0.24284697  1
  O  O108  1  0.32009788  0.49438320  0.92236541  1
  O  O109  1  0.81972332  0.49473423  0.92334128  1
  O  O110  1  0.42688417  0.35917102  0.92203223  1
  O  O111  1  0.92755341  0.36066157  0.92355339  1
  O  O112  1  0.25238744  0.14523091  0.92239188  1
  O  O113  1  0.75270889  0.14501813  0.92348423  1
  O  O114  1  0.32410373  0.14934433  0.42337026  1
  O  O115  1  0.81980735  0.14396828  0.42374192  1
  O  O116  1  0.25238962  0.35953903  0.42303031  1
  O  O117  1  0.75283154  0.35809702  0.42264920  1
  O  O118  1  0.42909606  0.49194031  0.42359350  1
  O  O119  1  0.92787649  0.49455916  0.42344075  1
  O  O120  1  0.17530955  0.50013029  0.07786944  1
  O  O121  1  0.68251182  0.50669882  0.07698363  1
  O  O122  1  0.07060365  0.63490792  0.07726567  1
  O  O123  1  0.57453371  0.64830009  0.07736933  1
  O  O124  1  0.24788736  0.85493795  0.07722547  1
  O  O125  1  0.74846847  0.85487065  0.07775907  1
  O  O126  1  0.18254557  0.85787810  0.57748766  1
  O  O127  1  0.68279303  0.85860664  0.57733816  1
  O  O128  1  0.24876522  0.64139793  0.57764421  1
  O  O129  1  0.74888407  0.64101207  0.57696181  1
  O  O130  1  0.07444429  0.50020073  0.57805438  1
  O  O131  1  0.57456403  0.49996125  0.57782248  1
  O  O132  1  0.15036040  0.82374111  0.25597209  1
  O  O133  1  0.65705387  0.83237441  0.25647770  1
  O  O134  1  0.25892700  0.68542385  0.25635780  1
  O  O135  1  0.76042663  0.69169904  0.25582408  1
  O  O136  1  0.08538573  0.47860957  0.25601425  1
  O  O137  1  0.58741395  0.47529247  0.25652786  1
  O  O138  1  0.15385314  0.47937648  0.75551603  1
  O  O139  1  0.65396519  0.47943174  0.75565642  1
  O  O140  1  0.08565796  0.69148029  0.75554611  1
  O  O141  1  0.58573945  0.69180054  0.75554935  1
  O  O142  1  0.26011806  0.82825112  0.75547158  1
  O  O143  1  0.76012854  0.82817492  0.75568567  1
loop_
_geom_bond_atom_site_label_1
_geom_bond_atom_site_label_2
_geom_bond_distance
_geom_bond_site_symmetry_2
Na0 O105 2.345603 1_555
Na0 O107 2.459253 1_555
Na0 O133 2.499273 1_545
Na0 O135 2.513794 1_545
Na0 O33 2.571081 1_555
Na0 O63 2.802343 1_545
Na0 O5 2.894487 1_555
Na0 O19 2.925965 1_545
Na1 O106 2.376777 1_555
Na1 O136 2.418374 1_555
Na1 O102 2.477140 1_555
Na1 O134 2.491695 1_555
Na1 O34 2.653430 1_555
Na1 O64 2.712576 1_555
Na1 O20 2.876074 1_555
Na1 O0 2.877060 1_555
Na2 O107 2.334166 1_555
Na2 O103 2.456446 1_555
Na2 O137 2.460728 1_555
Na2 O35 2.547333 1_555
Na2 O135 2.557448 1_555
Na2 O65 2.805768 1_555
Na2 O21 2.892126 1_555
Na2 O1 2.897847 1_555
Na3 O103 2.345339 1_555
Na3 O105 2.441954 1_555
Na3 O132 2.462634 1_655
Na3 O136 2.538177 1_655
Na3 O31 2.558258 1_555
Na3 O60 2.771287 1_655
Na3 O3 2.897582 1_555
Na3 O22 2.923152 1_655
Na4 O100 2.356772 1_555
Na4 O98 2.454922 1_555
Na4 O142 2.503538 1_555
Na4 O138 2.547492 1_555
Na4 O28 2.588543 1_555
Na4 O70 2.757838 1_555
Na4 O8 2.886907 1_555
Na4 O12 2.931664 1_555
Na5 O101 2.347446 1_555
Na5 O99 2.454467 1_555
Na5 O143 2.509023 1_555
Na5 O139 2.553458 1_555
Na5 O29 2.573417 1_555
Na5 O71 2.796666 1_555
Na5 O9 2.887491 1_555
Na5 O13 2.924236 1_555
Na6 O97 2.360410 1_555
Na6 O101 2.460333 1_555
Na6 O138 2.507120 1_655
Na6 O25 2.526609 1_555
Na6 O140 2.553472 1_655
Na6 O66 2.809082 1_655
Na6 O11 2.887471 1_555
Na6 O14 2.916141 1_655
Na7 O96 2.354241 1_555
Na7 O100 2.460134 1_555
Na7 O139 2.511420 1_555
Na7 O24 2.557849 1_555
Na7 O141 2.561210 1_555
Na7 O67 2.780013 1_555
Na7 O10 2.878272 1_555
Na7 O15 2.910816 1_555
Na8 O98 2.355397 1_555
Na8 O96 2.448653 1_555
Na8 O140 2.511720 1_545
Na8 O142 2.551431 1_545
Na8 O26 2.574525 1_555
Na8 O68 2.760094 1_545
Na8 O6 2.871545 1_555
Na8 O16 2.904450 1_545
Na9 O99 2.350714 1_555
Na9 O97 2.441589 1_555
Na9 O141 2.514948 1_545
Na9 O143 2.554837 1_545
Na9 O27 2.560672 1_555
Na9 O69 2.797396 1_545
Na9 O7 2.874392 1_555
Na9 O17 2.904207 1_545
Na10 O86 2.376117 1_555
Na10 O128 2.404355 1_555
Na10 O130 2.487543 1_555
Na10 O85 2.569821 1_455
Na10 O14 2.688989 1_555
Na10 O56 2.713224 1_555
Na10 O28 2.860911 1_555
Na10 O42 2.868593 1_555
Na11 O87 2.376759 1_555
Na11 O129 2.400203 1_555
Na11 O131 2.500228 1_555
Na11 O84 2.590588 1_555
Na11 O15 2.702023 1_555
Na11 O57 2.740958 1_555
Na11 O43 2.838876 1_555
Na11 O29 2.849067 1_555
Na12 O126 2.380494 1_555
Na12 O84 2.401773 1_565
Na12 O88 2.513231 1_555
Na12 O128 2.567363 1_555
Na12 O12 2.689257 1_555
Na12 O54 2.696367 1_555
Na12 O46 2.868819 1_565
Na12 O26 2.880545 1_565
Na13 O127 2.383101 1_555
Na13 O85 2.397915 1_565
Na13 O89 2.517219 1_555
Na13 O129 2.587159 1_555
Na13 O13 2.695399 1_555
Na13 O55 2.729541 1_555
Na13 O47 2.813335 1_565
Na13 O27 2.875929 1_565
Na14 O95 2.366988 1_565
Na14 O125 2.427005 1_555
Na14 O90 2.498330 1_555
Na14 O123 2.509771 1_555
Na14 O23 2.651811 1_555
Na14 O53 2.734858 1_554
Na14 O37 2.850922 1_565
Na14 O33 2.862296 1_565
Na15 O121 2.364761 1_555
Na15 O91 2.365493 1_555
Na15 O125 2.558142 1_555
Na15 O93 2.583096 1_565
Na15 O19 2.707482 1_555
Na15 O49 2.717081 1_554
Na15 O39 2.823712 1_555
Na15 O35 2.858864 1_555
Na16 O122 2.359105 1_555
Na16 O93 2.424920 1_455
Na16 O120 2.487714 1_555
Na16 O94 2.525875 1_555
Na16 O50 2.683067 1_554
Na16 O20 2.726679 1_555
Na16 O41 2.830246 1_455
Na16 O31 2.886285 1_455
Na17 O77 2.360852 1_555
Na17 O118 2.370110 1_555
Na17 O74 2.470431 1_545
Na17 O114 2.481163 1_555
Na17 O4 2.658064 1_555
Na17 O46 2.735260 1_555
Na17 O61 2.887999 1_555
Na17 O57 2.906790 1_555
Na18 O72 2.487511 1_655
Na18 O75 2.544833 1_555
Na18 O76 2.546551 1_665
Na18 O89 2.606716 1_555
Na18 O86 2.625205 1_665
Na18 O85 2.693805 1_565
Na19 O73 2.431991 1_555
Na19 O74 2.562020 1_555
Na19 O88 2.569428 1_555
Na19 O77 2.588854 1_565
Na19 O87 2.590436 1_565
Na19 O84 2.704800 1_565
Na20 O80 2.484337 1_555
Na20 O83 2.557251 1_455
Na20 O78 2.562985 1_565
Na20 O94 2.602276 1_566
Na20 O91 2.630337 1_456
Na20 O93 2.684162 1_466
Na21 O79 2.549663 1_555
Na21 O92 2.550023 1_556
Na21 O82 2.553111 1_545
Na21 O90 2.592816 1_546
Na21 O81 2.620329 1_545
Na21 O95 2.627814 1_556
Na22 O110 2.540825 1_555
Na22 O108 2.542210 1_555
Na22 O112 2.545973 1_555
Na22 O96 2.562259 1_555
Na22 O98 2.571365 1_555
Na22 O100 2.575662 1_555
Na23 O97 2.542157 1_555
Na23 O101 2.559367 1_555
Na23 O99 2.563230 1_555
Na23 O111 2.577326 1_555
Na23 O109 2.578590 1_555
Na23 O113 2.578938 1_555
Na24 O104 2.531387 1_555
Na24 O102 2.532193 1_555
Na24 O106 2.541513 1_555
Na24 O116 2.577676 1_555
Na24 O114 2.583408 1_555
Na24 O118 2.596178 1_555
Na25 O105 2.537944 1_555
Na25 O107 2.539714 1_555
Na25 O103 2.548364 1_555
Na25 O117 2.567067 1_555
Na25 O119 2.597779 1_555
Na25 O115 2.598028 1_555
Na26 O124 2.437032 1_555
Na26 O120 2.552062 1_555
Na26 O132 2.563221 1_555
Na26 O134 2.563998 1_555
Na26 O122 2.584532 1_555
Na26 O136 2.690628 1_555
Na27 O123 2.483091 1_555
Na27 O137 2.519614 1_555
Na27 O121 2.571568 1_555
Na27 O133 2.578455 1_555
Na27 O125 2.617605 1_555
Na27 O135 2.633693 1_555
Na28 O130 2.503758 1_555
Na28 O140 2.522989 1_555
Na28 O126 2.529491 1_555
Na28 O138 2.584961 1_555
Na28 O128 2.588957 1_555
Na28 O142 2.589921 1_555
Na29 O131 2.505981 1_555
Na29 O141 2.527890 1_555
Na29 O127 2.530341 1_555
Na29 O139 2.592360 1_555
Na29 O143 2.595352 1_555
Na29 O129 2.598848 1_555
Al0 O24 1.886247 1_555
Al0 O28 1.907541 1_555
Al0 O26 1.907840 1_555
Al0 O100 1.999603 1_555
Al0 O98 2.000455 1_555
Al0 O96 2.002571 1_555
Al1 O25 1.885697 1_555
Al1 O27 1.907983 1_555
Al1 O29 1.908261 1_555
Al1 O99 2.003704 1_555
Al1 O101 2.006083 1_555
Al1 O97 2.011079 1_555
Al2 O35 1.899783 1_555
Al2 O31 1.900251 1_555
Al2 O33 1.905019 1_555
Al2 O103 2.006274 1_555
Al2 O107 2.008422 1_555
Al2 O105 2.013108 1_555
O0 Si0 1.628717 1_555
O0 Ta0 1.982111 1_445
O1 Si1 1.657301 1_555
O1 Ta1 1.939563 1_545
O2 Si2 1.636017 1_555
O2 Ta1 1.926291 1_555
O3 Si3 1.640419 1_555
O3 Ta0 1.973998 1_555
O4 Si5 1.637221 1_555
O4 Ta1 1.983202 1_545
O5 Si4 1.640784 1_555
O5 Ta0 1.974625 1_545
O6 Si6 1.633127 1_555
O6 Ta2 1.986797 1_555
O7 Si7 1.632341 1_555
O7 Ta3 1.990838 1_545
O8 Si9 1.631153 1_555
O8 Ta3 1.984563 1_555
O9 Si8 1.632840 1_555
O9 Ta2 1.988313 1_665
O10 Si10 1.632186 1_555
O10 Ta3 1.990169 1_545
O11 Si11 1.631976 1_555
O11 Ta2 1.984340 1_655
O12 Si10 1.657526 1_565
O12 Ta5 1.980915 1_555
O13 Si11 1.656368 1_565
O13 Ta4 1.979534 1_655
O14 Si6 1.654969 1_555
O14 Ta4 1.984803 1_545
O15 Si7 1.657093 1_555
O15 Ta5 1.980431 1_545
O16 Si8 1.658168 1_455
O16 Ta4 1.931389 1_555
O17 Si9 1.656207 1_555
O17 Ta5 1.931984 1_555
O18 Si2 1.627703 1_555
O18 Ta7 1.938434 1_555
O19 Si3 1.654105 1_555
O19 Ta6 1.989888 1_655
O20 Si4 1.655166 1_455
O20 Ta6 1.984535 1_545
O21 Si5 1.634655 1_555
O21 Ta7 1.964361 1_545
O22 Si0 1.650698 1_565
O22 Ta6 1.931003 1_555
O23 Si1 1.632591 1_565
O23 Ta7 2.003765 1_555
O24 Si12 1.607750 1_555
O25 Si13 1.606012 1_555
O26 Si14 1.613228 1_555
O27 Si15 1.615507 1_555
O28 Si16 1.613806 1_555
O29 Si17 1.615114 1_555
O30 Si18 1.637799 1_555
O30 Ta8 1.923446 1_555
O31 Si19 1.616666 1_555
O32 Si20 1.640990 1_555
O32 Ta8 1.921859 1_555
O33 Si21 1.613944 1_555
O34 Si22 1.636225 1_555
O34 Ta8 1.989978 1_555
O35 Si23 1.617069 1_555
O36 Si22 1.625779 1_555
O36 Ta9 1.960919 1_554
O37 Si23 1.645052 1_555
O37 Ta10 1.972032 1_554
O38 Si18 1.622456 1_555
O38 Ta9 1.962789 1_554
O39 Si19 1.644865 1_555
O39 Ta10 1.974698 1_554
O40 Si20 1.627884 1_555
O40 Ta9 1.954968 1_554
O41 Si21 1.640432 1_555
O41 Ta10 1.980916 1_554
O42 Si14 1.648619 1_555
O42 Ta11 1.946966 1_555
O43 Si15 1.634991 1_555
O43 Ta12 1.989256 1_555
O44 Si16 1.640832 1_555
O44 Ta11 1.931469 1_555
O45 Si17 1.629655 1_555
O45 Ta12 1.960148 1_555
O46 Si12 1.646685 1_555
O46 Ta11 2.016887 1_555
O47 Si13 1.638430 1_555
O47 Ta12 1.974842 1_555
O48 Si24 1.629657 1_555
O48 Ta13 1.935469 1_556
O49 Si25 1.638518 1_555
O49 Ta14 1.967150 1_556
O50 Si26 1.627358 1_555
O50 Ta13 1.998764 1_556
O51 Si27 1.640415 1_555
O51 Ta14 1.910876 1_556
O52 Si28 1.628509 1_555
O52 Ta13 1.935226 1_556
O53 Si29 1.638729 1_555
O53 Ta14 1.969672 1_556
O54 Si30 1.638677 1_555
O54 Ta15 1.973141 1_555
O55 Si31 1.646234 1_555
O55 Ta16 1.953600 1_555
O56 Si32 1.645069 1_555
O56 Ta15 1.961952 1_555
O57 Si33 1.652265 1_555
O57 Ta16 1.982679 1_555
O58 Si34 1.649893 1_555
O58 Ta15 1.905112 1_555
O59 Si35 1.640877 1_555
O59 Ta16 1.920489 1_555
O60 Si34 1.642702 1_555
O60 Ta17 1.957706 1_555
O61 Si35 1.644255 1_555
O61 Ta18 1.937174 1_555
O62 Si30 1.639494 1_555
O62 Ta17 1.917519 1_555
O63 Si31 1.644202 1_555
O63 Ta18 1.953997 1_555
O64 Si32 1.641884 1_555
O64 Ta17 1.960664 1_555
O65 Si33 1.642220 1_555
O65 Ta18 1.966768 1_555
O66 Si26 1.661077 1_555
O66 Ta19 1.926193 1_555
O67 Si27 1.655785 1_555
O67 Ta20 1.927501 1_555
O68 Si28 1.659243 1_555
O68 Ta19 1.925623 1_555
O69 Si29 1.658403 1_555
O69 Ta20 1.928995 1_555
O70 Si24 1.660861 1_555
O70 Ta19 1.924707 1_555
O71 Si25 1.657785 1_555
O71 Ta20 1.928001 1_555
O72 Si34 1.625221 1_555
O72 Ta0 1.999668 1_455
O73 Si35 1.617168 1_555
O73 Ta1 1.998759 1_555
O74 Si30 1.634450 1_555
O74 Ta1 2.046902 1_555
O75 Si31 1.629191 1_555
O75 Ta0 1.986992 1_555
O76 Si32 1.625189 1_555
O76 Ta0 2.003681 1_445
O77 Si33 1.640579 1_555
O77 Ta1 2.049022 1_545
O78 Si26 1.632083 1_555
O78 Ta2 1.984252 1_555
O79 Si27 1.622724 1_555
O79 Ta3 1.987939 1_545
O80 Si28 1.627810 1_555
O80 Ta2 1.985395 1_565
O81 Si29 1.626888 1_555
O81 Ta3 1.986713 1_555
O82 Si24 1.628056 1_555
O82 Ta3 1.981444 1_555
O83 Si25 1.626324 1_555
O83 Ta2 1.990989 1_665
O84 Si12 1.674881 1_555
O84 Ta5 2.045219 1_545
O85 Si13 1.675347 1_555
O85 Ta4 2.038867 1_645
O86 Si14 1.647458 1_555
O86 Ta4 2.008880 1_545
O87 Si15 1.654377 1_555
O87 Ta5 2.002092 1_545
O88 Si16 1.649973 1_555
O88 Ta5 2.000496 1_555
O89 Si17 1.654805 1_555
O89 Ta4 1.994203 1_655
O90 Si18 1.637853 1_555
O90 Ta7 2.019313 1_555
O91 Si19 1.660293 1_555
O91 Ta6 1.990911 1_655
O92 Si20 1.638061 1_555
O92 Ta7 1.964192 1_545
O93 Si21 1.659986 1_555
O93 Ta6 2.046002 1_645
O94 Si22 1.658144 1_555
O94 Ta6 1.984747 1_545
O95 Si23 1.643366 1_555
O95 Ta7 2.030442 1_545
O96 Si10 1.618581 1_555
O97 Si11 1.616174 1_555
O98 Si6 1.619012 1_555
O99 Si7 1.617271 1_555
O100 Si9 1.616547 1_555
O101 Si8 1.614984 1_555
O102 Si2 1.631490 1_555
O102 Ta8 2.050445 1_555
O103 Si3 1.615910 1_555
O104 Si5 1.623488 1_555
O104 Ta8 1.993588 1_555
O105 Si4 1.615175 1_555
O106 Si0 1.621719 1_555
O106 Ta8 2.065148 1_555
O107 Si1 1.623641 1_555
O108 Si24 1.622559 1_555
O108 Ta9 2.006123 1_555
O109 Si25 1.623231 1_555
O109 Ta10 1.999899 1_555
O110 Si27 1.619001 1_555
O110 Ta9 2.010240 1_555
O111 Si26 1.627297 1_655
O111 Ta10 1.995177 1_555
O112 Si28 1.623918 1_545
O112 Ta9 2.002742 1_555
O113 Si29 1.622907 1_545
O113 Ta10 2.002144 1_555
O114 Si30 1.636018 1_545
O114 Ta11 2.036334 1_555
O115 Si31 1.624214 1_545
O115 Ta12 2.000347 1_555
O116 Si32 1.637630 1_555
O116 Ta11 1.973959 1_555
O117 Si33 1.614093 1_555
O117 Ta12 2.007911 1_555
O118 Si35 1.631293 1_555
O118 Ta11 2.041958 1_555
O119 Si34 1.624389 1_655
O119 Ta12 1.989696 1_555
O120 Si22 1.637507 1_555
O120 Ta13 2.046612 1_555
O121 Si23 1.657764 1_555
O121 Ta14 2.013943 1_555
O122 Si19 1.640403 1_455
O122 Ta13 2.048858 1_555
O123 Si18 1.649520 1_555
O123 Ta14 2.012551 1_555
O124 Si20 1.634007 1_565
O124 Ta13 1.984472 1_555
O125 Si21 1.656029 1_565
O125 Ta14 2.083202 1_555
O126 Si14 1.647165 1_565
O126 Ta15 2.028970 1_555
O127 Si15 1.655853 1_565
O127 Ta16 2.014347 1_555
O128 Si16 1.665826 1_555
O128 Ta15 2.081140 1_555
O129 Si17 1.675802 1_555
O129 Ta16 2.058356 1_555
O130 Si13 1.658021 1_455
O130 Ta15 2.017029 1_555
O131 Si12 1.655577 1_555
O131 Ta16 2.023204 1_555
O132 Si0 1.633417 1_565
O132 Ta17 2.022505 1_555
O133 Si1 1.651582 1_565
O133 Ta18 2.002953 1_555
O134 Si2 1.648027 1_555
O134 Ta17 2.009012 1_555
O135 Si3 1.652567 1_555
O135 Ta18 2.054961 1_555
O136 Si4 1.650492 1_455
O136 Ta17 2.069453 1_555
O137 Si5 1.649514 1_555
O137 Ta18 2.017110 1_555
O138 Si6 1.655089 1_555
O138 Ta19 2.061736 1_555
O139 Si7 1.656054 1_555
O139 Ta20 2.058743 1_555
O140 Si8 1.652503 1_455
O140 Ta19 2.066024 1_555
O141 Si9 1.652605 1_555
O141 Ta20 2.061937 1_555
O142 Si10 1.655031 1_565
O142 Ta19 2.063669 1_555
O143 Si11 1.656632 1_565
O143 Ta20 2.055997 1_555
