# generated using pymatgen
data_Rb3Sb2Br9
_symmetry_space_group_name_H-M   'P 1'
_cell_length_a   7.85287050
_cell_length_b   7.85286158
_cell_length_c   9.70455118
_cell_angle_alpha   89.99967788
_cell_angle_beta   90.00036639
_cell_angle_gamma   119.99977394
_symmetry_Int_Tables_number   1
_chemical_formula_structural   Rb3Sb2Br9
_chemical_formula_sum   'Rb3 Sb2 Br9'
_cell_volume   518.27881063
_cell_formula_units_Z   1
loop_
 _symmetry_equiv_pos_site_id
 _symmetry_equiv_pos_as_xyz
  1  'x, y, z'
loop_
 _atom_site_type_symbol
 _atom_site_label
 _atom_site_symmetry_multiplicity
 _atom_site_fract_x
 _atom_site_fract_y
 _atom_site_fract_z
 _atom_site_occupancy
  Rb  Rb0  1  -0.00000007  -0.00000020  -0.00000019  1
  Rb  Rb1  1  0.66666668  0.33333294  0.66742620  1
  Rb  Rb2  1  0.33333376  0.66666667  0.33257444  1
  Sb  Sb0  1  0.66666911  0.33333167  0.19074610  1
  Sb  Sb1  1  0.33333142  0.66666915  0.80925437  1
  Br  Br0  1  0.83125492  0.16874075  0.34030010  1
  Br  Br1  1  0.83125439  0.66250529  0.34030053  1
  Br  Br2  1  0.33749353  0.16874485  0.34029732  1
  Br  Br3  1  0.66250636  0.83125525  0.65970240  1
  Br  Br4  1  0.16874478  0.33749307  0.65970180  1
  Br  Br5  1  0.50000034  0.50000041  -0.00000005  1
  Br  Br6  1  0.50000065  0.00000034  -0.00000041  1
  Br  Br7  1  -0.00000022  0.50000024  -0.00000036  1
  Br  Br8  1  0.16874535  0.83125957  0.65969975  1
loop_
_geom_bond_atom_site_label_1
_geom_bond_atom_site_label_2
_geom_bond_distance
_geom_bond_site_symmetry_2
Br0 Sb0 2.667952 1_555
Br0 Rb1 3.884579 1_555
Br0 Rb2 3.927245 1_545
Br0 Rb2 3.927283 1_655
Br0 Rb0 4.021709 1_655
Br1 Sb0 2.667954 1_555
Br1 Rb1 3.884530 1_555
Br1 Rb2 3.927243 1_655
Br1 Rb2 3.927263 1_555
Br1 Rb0 4.021731 1_665
Br2 Sb0 2.667952 1_555
Br2 Rb1 3.884558 1_555
Br2 Rb2 3.927235 1_545
Br2 Rb2 3.927261 1_555
Br2 Rb0 4.021701 1_555
Br3 Sb1 2.667952 1_555
Br3 Rb2 3.884548 1_555
Br3 Rb1 3.927229 1_565
Br3 Rb1 3.927267 1_555
Br3 Rb0 4.021700 1_666
Br4 Sb1 2.667958 1_555
Br4 Rb2 3.884548 1_555
Br4 Rb1 3.927238 1_455
Br4 Rb1 3.927267 1_555
Br4 Rb0 4.021705 1_556
Br5 Sb1 2.926704 1_554
Br5 Sb0 2.926706 1_555
Br5 Rb0 3.926442 1_665
Br5 Rb0 3.926450 1_555
Br5 Rb1 3.944069 1_554
Br5 Rb2 3.944072 1_555
Br6 Sb1 2.926686 1_544
Br6 Sb0 2.926695 1_555
Br6 Rb0 3.926432 1_655
Br6 Rb0 3.926439 1_555
Br6 Rb1 3.944048 1_554
Br6 Rb2 3.944063 1_545
Br7 Sb1 2.926693 1_554
Br7 Sb0 2.926695 1_455
Br7 Rb0 3.926427 1_565
Br7 Rb0 3.926435 1_555
Br7 Rb1 3.944049 1_454
Br7 Rb2 3.944063 1_555
Br8 Sb1 2.667954 1_555
Br8 Rb2 3.884576 1_555
Br8 Rb1 3.927243 1_565
Br8 Rb1 3.927285 1_455
Br8 Rb0 4.021706 1_566
