# generated using pymatgen
data_MgCu4Ag2(PS4)2
_symmetry_space_group_name_H-M   'P 1'
_cell_length_a   6.14411415
_cell_length_b   7.39593356
_cell_length_c   7.42837500
_cell_angle_alpha   90.00000000
_cell_angle_beta   90.00000000
_cell_angle_gamma   90.54965144
_symmetry_Int_Tables_number   1
_chemical_formula_structural   MgCu4Ag2(PS4)2
_chemical_formula_sum   'Mg1 Cu4 Ag2 P2 S8'
_cell_volume   337.54067329
_cell_formula_units_Z   1
loop_
 _symmetry_equiv_pos_site_id
 _symmetry_equiv_pos_as_xyz
  1  'x, y, z'
loop_
 _atom_site_type_symbol
 _atom_site_label
 _atom_site_symmetry_multiplicity
 _atom_site_fract_x
 _atom_site_fract_y
 _atom_site_fract_z
 _atom_site_occupancy
  Mg  Mg0  1  0.12639500  0.95179700  0.50000000  1
  Cu  Cu0  1  0.06113100  0.27643500  0.24077600  1
  Cu  Cu1  1  0.06113100  0.27643500  0.75922400  1
  Cu  Cu2  1  0.49765500  0.82867700  0.24047400  1
  Cu  Cu3  1  0.49765500  0.82867700  0.75952600  1
  Ag  Ag0  1  0.01626800  0.54575600  0.50000000  1
  Ag  Ag1  1  0.47271600  0.36867600  0.00000000  1
  P  P0  1  0.51147500  0.29390000  0.50000000  1
  P  P1  1  0.99386200  0.68588000  0.00000000  1
  S  S0  1  0.39257500  0.14232400  0.26833700  1
  S  S1  1  0.39257500  0.14232400  0.73166300  1
  S  S2  1  0.86583300  0.80529900  0.22843000  1
  S  S3  1  0.86583300  0.80529900  0.77157000  1
  S  S4  1  0.86245800  0.22308200  0.50000000  1
  S  S5  1  0.33486700  0.69456800  0.00000000  1
  S  S6  1  0.37204800  0.70472700  0.50000000  1
  S  S7  1  0.89932500  0.40531400  0.00000000  1
loop_
_geom_bond_atom_site_label_1
_geom_bond_atom_site_label_2
_geom_bond_distance
_geom_bond_site_symmetry_2
Mg0 S6 2.381184 1_555
Mg0 S4 2.591885 1_465
Mg0 S1 2.752728 1_565
Mg0 S0 2.752728 1_565
Mg0 S2 2.788049 1_455
Mg0 S3 2.788049 1_455
Cu0 S7 2.261432 1_455
Cu0 S0 2.282878 1_555
Cu0 S4 2.311814 1_455
Cu1 S7 2.261432 1_456
Cu1 S1 2.282878 1_555
Cu1 S4 2.311814 1_455
Cu2 S6 2.266943 1_555
Cu2 S5 2.270707 1_555
Cu2 S2 2.272141 1_555
Cu2 S0 2.422699 1_565
Cu3 S6 2.266943 1_555
Cu3 S5 2.270707 1_556
Cu3 S3 2.272141 1_555
Cu3 S1 2.422699 1_565
Ag0 S6 2.472133 1_555
Ag0 S4 2.558333 1_455
Ag0 Cu0 2.786052 1_555
Ag0 Cu1 2.786052 1_555
Ag0 S2 2.939842 1_455
Ag0 S3 2.939842 1_455
Ag0 Mg0 3.071998 1_555
Ag1 S5 2.562408 1_555
Ag1 S7 2.632517 1_555
Ag1 S1 2.646219 1_554
Ag1 S0 2.646219 1_555
P0 S1 2.176267 1_555
P0 S0 2.176267 1_555
P0 S4 2.224051 1_555
P1 S3 2.071599 1_554
P1 S2 2.071599 1_555
P1 S5 2.095543 1_655
P1 S7 2.149437 1_555
