# generated using pymatgen
data_WOF4
_symmetry_space_group_name_H-M   'P 1'
_cell_length_a   5.37295247
_cell_length_b   6.24716375
_cell_length_c   6.67176041
_cell_angle_alpha   101.63895155
_cell_angle_beta   95.82551640
_cell_angle_gamma   104.97781967
_symmetry_Int_Tables_number   1
_chemical_formula_structural   WOF4
_chemical_formula_sum   'W2 O2 F8'
_cell_volume   209.07384808
_cell_formula_units_Z   2
loop_
 _symmetry_equiv_pos_site_id
 _symmetry_equiv_pos_as_xyz
  1  'x, y, z'
loop_
 _atom_site_type_symbol
 _atom_site_label
 _atom_site_symmetry_multiplicity
 _atom_site_fract_x
 _atom_site_fract_y
 _atom_site_fract_z
 _atom_site_occupancy
  W  W0  1  0.85100644  0.25627674  0.78442916  1
  W  W1  1  0.14899356  0.74372326  0.21557084  1
  O  O0  1  0.61409045  0.00067092  0.73245290  1
  O  O1  1  0.38590955  0.99932908  0.26754710  1
  F  F0  1  0.14573516  0.17356512  0.88606426  1
  F  F1  1  0.16503639  0.62328012  0.92018779  1
  F  F2  1  0.65269456  0.45103138  0.72473995  1
  F  F3  1  0.97534377  0.25497010  0.53124350  1
  F  F4  1  0.02465623  0.74502990  0.46875650  1
  F  F5  1  0.34730544  0.54896862  0.27526005  1
  F  F6  1  0.83496461  0.37671988  0.07981221  1
  F  F7  1  0.85426484  0.82643488  0.11393574  1
loop_
_geom_bond_atom_site_label_1
_geom_bond_atom_site_label_2
_geom_bond_distance
_geom_bond_site_symmetry_2
O0 W0 1.710773 1_555
O1 W1 1.710773 1_555
F0 W0 1.892301 1_455
F1 W1 1.981676 1_556
F1 W0 2.403367 1_455
F2 W0 1.885110 1_555
F3 W0 1.877786 1_555
F4 W1 1.877786 1_555
F5 W1 1.885110 1_555
F6 W0 1.981675 1_554
F6 W1 2.403365 1_655
F7 W1 1.892301 1_655
