# generated using pymatgen
data_KAuO2
_symmetry_space_group_name_H-M   'P 1'
_cell_length_a   3.08163200
_cell_length_b   3.77401600
_cell_length_c   5.88121000
_cell_angle_alpha   90.00000000
_cell_angle_beta   90.00000000
_cell_angle_gamma   90.00000000
_symmetry_Int_Tables_number   1
_chemical_formula_structural   KAuO2
_chemical_formula_sum   'K1 Au1 O2'
_cell_volume   68.39922788
_cell_formula_units_Z   1
loop_
 _symmetry_equiv_pos_site_id
 _symmetry_equiv_pos_as_xyz
  1  'x, y, z'
loop_
 _atom_site_type_symbol
 _atom_site_label
 _atom_site_symmetry_multiplicity
 _atom_site_fract_x
 _atom_site_fract_y
 _atom_site_fract_z
 _atom_site_occupancy
  K  K0  1  0.00000000  0.50000000  0.50000000  1
  Au  Au0  1  0.00000000  0.00000000  0.00000000  1
  O  O0  1  0.50000000  0.00000000  0.77050700  1
  O  O1  1  0.50000000  0.00000000  0.22949300  1
loop_
_geom_bond_atom_site_label_1
_geom_bond_atom_site_label_2
_geom_bond_distance
_geom_bond_site_symmetry_2
K0 O0 2.909622 1_555
K0 O0 2.909622 1_565
K0 O0 2.909622 1_455
K0 O0 2.909622 1_465
K0 O1 2.909622 1_455
K0 O1 2.909622 1_555
K0 O1 2.909622 1_565
K0 O1 2.909622 1_465
Au0 O1 2.048364 1_455
Au0 O1 2.048364 1_555
Au0 O0 2.048364 1_454
Au0 O0 2.048364 1_554
