# generated using pymatgen
data_Na6Mg4SiS5O24
_symmetry_space_group_name_H-M   'P 1'
_cell_length_a   8.95678591
_cell_length_b   8.93515285
_cell_length_c   22.24363853
_cell_angle_alpha   89.67778448
_cell_angle_beta   90.06967469
_cell_angle_gamma   120.20647056
_symmetry_Int_Tables_number   1
_chemical_formula_structural   Na6Mg4SiS5O24
_chemical_formula_sum   'Na18 Mg12 Si3 S15 O72'
_cell_volume   1538.42272556
_cell_formula_units_Z   3
loop_
 _symmetry_equiv_pos_site_id
 _symmetry_equiv_pos_as_xyz
  1  'x, y, z'
loop_
 _atom_site_type_symbol
 _atom_site_label
 _atom_site_symmetry_multiplicity
 _atom_site_fract_x
 _atom_site_fract_y
 _atom_site_fract_z
 _atom_site_occupancy
  Na  Na0  1  0.62198446  0.00022544  0.24987706  1
  Na  Na1  1  0.35871234  0.34123795  0.25254917  1
  Na  Na2  1  0.01616829  0.65519676  0.24602427  1
  Na  Na3  1  0.63790534  0.65122227  0.74121119  1
  Na  Na4  1  0.98253611  0.34383504  0.75491004  1
  Na  Na5  1  0.37826015  0.00024541  0.75138309  1
  Na  Na6  1  0.32200299  0.34833774  0.58495622  1
  Na  Na7  1  0.01259240  0.69373371  0.57866945  1
  Na  Na8  1  0.67085099  0.95391167  0.58972959  1
  Na  Na9  1  0.29843291  0.96849680  0.09031341  1
  Na  Na10  1  0.70127002  0.03147358  0.91027152  1
  Na  Na11  1  0.69812013  0.66384952  0.42483409  1
  Na  Na12  1  0.99786011  0.99707726  0.49874010  1
  Na  Na13  1  0.00000351  0.99991016  0.00031918  1
  Na  Na14  1  0.66844639  0.33250995  0.83439355  1
  Na  Na15  1  0.64686856  0.30608665  0.33429050  1
  Na  Na16  1  0.33029870  0.66794170  0.16586546  1
  Na  Na17  1  0.36127137  0.67713441  0.66704736  1
  Mg  Mg0  1  0.01875081  0.01064594  0.34938251  1
  Mg  Mg1  1  0.99472414  0.00237357  0.85035457  1
  Mg  Mg2  1  0.98098554  0.98633515  0.65116704  1
  Mg  Mg3  1  0.00328485  0.99736700  0.15055975  1
  Mg  Mg4  1  0.66434923  0.33380316  0.68232950  1
  Mg  Mg5  1  0.66184100  0.32973705  0.18085382  1
  Mg  Mg6  1  0.66894781  0.34105604  0.98378911  1
  Mg  Mg7  1  0.66925360  0.33607684  0.48339595  1
  Mg  Mg8  1  0.33102159  0.65901288  0.01655725  1
  Mg  Mg9  1  0.33964088  0.66696697  0.51506966  1
  Mg  Mg10  1  0.33127331  0.67534915  0.31799246  1
  Mg  Mg11  1  0.33988031  0.67023816  0.81951219  1
  Si  Si0  1  0.30028315  0.00060384  0.24757293  1
  Si  Si1  1  0.69783582  0.00224664  0.75145206  1
  Si  Si2  1  0.66709670  0.63121466  0.58203562  1
  S  S0  1  0.70702126  0.70727250  0.25141724  1
  S  S1  1  0.99921622  0.29146171  0.24995517  1
  S  S2  1  0.29026443  0.28988461  0.74990072  1
  S  S3  1  0.00301953  0.70719983  0.75081788  1
  S  S4  1  0.96281566  0.33526587  0.58302148  1
  S  S5  1  0.37122907  0.03891831  0.58314075  1
  S  S6  1  0.96064023  0.62787881  0.08324986  1
  S  S7  1  0.66969005  0.03664319  0.08191493  1
  S  S8  1  0.37150595  0.33703842  0.08297866  1
  S  S9  1  0.62831672  0.66293555  0.91699105  1
  S  S10  1  0.03926272  0.37236140  0.91673008  1
  S  S11  1  0.33034501  0.96317605  0.91804656  1
  S  S12  1  0.63381195  0.96761230  0.41637759  1
  S  S13  1  0.32930023  0.36917451  0.41640848  1
  S  S14  1  0.03536004  0.66354140  0.41685357  1
  O  O0  1  0.21068053  0.04248837  0.30308893  1
  O  O1  1  0.80785672  0.78495177  0.30704478  1
  O  O2  1  0.95917511  0.17898990  0.30368875  1
  O  O3  1  0.20636712  0.17551442  0.80216839  1
  O  O4  1  0.98026872  0.79521336  0.80290857  1
  O  O5  1  0.81894635  0.03823553  0.81084865  1
  O  O6  1  0.78186117  0.96803997  0.69160365  1
  O  O7  1  0.19152989  0.21209508  0.69374285  1
  O  O8  1  0.03902565  0.81340510  0.69495967  1
  O  O9  1  0.78556754  0.82345798  0.19891867  1
  O  O10  1  0.02440547  0.21033518  0.19614000  1
  O  O11  1  0.18278387  0.96103151  0.18675674  1
  O  O12  1  0.88665536  0.35976962  0.63883536  1
  O  O13  1  0.47741435  0.10924978  0.63836046  1
  O  O14  1  0.63274191  0.51189038  0.64239780  1
  O  O15  1  0.88243868  0.53004462  0.13982633  1
  O  O16  1  0.64356314  0.11933003  0.13592778  1
  O  O17  1  0.47003990  0.35830334  0.13938426  1
  O  O18  1  0.46024414  0.30923550  0.03163087  1
  O  O19  1  0.85492447  0.53609742  0.03071909  1
  O  O20  1  0.68961933  0.14110491  0.02705276  1
  O  O21  1  0.45844434  0.14846629  0.53022672  1
  O  O22  1  0.69723290  0.54259219  0.52277880  1
  O  O23  1  0.84583763  0.29786206  0.53136067  1
  O  O24  1  0.54022586  0.69115415  0.96829953  1
  O  O25  1  0.14516606  0.46382373  0.96908460  1
  O  O26  1  0.31062575  0.85861577  0.97270959  1
  O  O27  1  0.54848083  0.85786792  0.47037657  1
  O  O28  1  0.31514633  0.45533972  0.47130716  1
  O  O29  1  0.13781473  0.68245767  0.47177038  1
  O  O30  1  0.12123358  0.64910736  0.36228289  1
  O  O31  1  0.53088789  0.88442481  0.36156920  1
  O  O32  1  0.35408656  0.47933430  0.36241237  1
  O  O33  1  0.11740921  0.46992479  0.86003361  1
  O  O34  1  0.35656800  0.88071759  0.86387680  1
  O  O35  1  0.52992155  0.64154321  0.86060027  1
  O  O36  1  0.00952530  0.81663752  0.41340761  1
  O  O37  1  0.80495479  0.97666841  0.41175833  1
  O  O38  1  0.17156104  0.19730457  0.41298767  1
  O  O39  1  0.02034375  0.19624959  0.91497823  1
  O  O40  1  0.17788026  0.98416341  0.91151187  1
  O  O41  1  0.80287417  0.82336503  0.91293377  1
  O  O42  1  0.99674564  0.18883081  0.58862329  1
  O  O43  1  0.20107657  0.02965170  0.58959308  1
  O  O44  1  0.84415203  0.82480491  0.58471819  1
  O  O45  1  0.97865937  0.80339062  0.08487439  1
  O  O46  1  0.82205532  0.01555820  0.08842598  1
  O  O47  1  0.19712706  0.17699887  0.08676679  1
  O  O48  1  0.67722535  0.17613696  0.74528787  1
  O  O49  1  0.46782528  0.31631924  0.74644798  1
  O  O50  1  0.84306972  0.53496144  0.74523222  1
  O  O51  1  0.69797308  0.53701571  0.24343738  1
  O  O52  1  0.85218492  0.32392172  0.24243153  1
  O  O53  1  0.49718874  0.17315205  0.24303903  1
  O  O54  1  0.64699544  0.50850199  0.92408640  1
  O  O55  1  0.86039517  0.34685457  0.92120859  1
  O  O56  1  0.49406048  0.13598593  0.92261637  1
  O  O57  1  0.65341112  0.14125707  0.42235243  1
  O  O58  1  0.48802877  0.35384116  0.41979769  1
  O  O59  1  0.86028288  0.50529244  0.41960067  1
  O  O60  1  0.35346873  0.49181074  0.07585968  1
  O  O61  1  0.13943194  0.65325857  0.07867148  1
  O  O62  1  0.50597980  0.86395614  0.07722900  1
  O  O63  1  0.34093267  0.85970015  0.57613322  1
  O  O64  1  0.49408786  0.65384800  0.57753673  1
  O  O65  1  0.13245987  0.49784324  0.57473193  1
  O  O66  1  0.32091152  0.82645413  0.25455492  1
  O  O67  1  0.52696071  0.67503970  0.25726178  1
  O  O68  1  0.16112703  0.46280583  0.25752349  1
  O  O69  1  0.30186011  0.46195283  0.75642881  1
  O  O70  1  0.15214864  0.67871251  0.75821683  1
  O  O71  1  0.50392565  0.82658736  0.75649358  1
loop_
_geom_bond_atom_site_label_1
_geom_bond_atom_site_label_2
_geom_bond_distance
_geom_bond_site_symmetry_2
Na0 O53 2.322662 1_555
Na0 O66 2.340784 1_545
Na0 O52 2.576576 1_555
Na0 O67 2.588508 1_545
Na0 O31 2.652413 1_545
Na0 O16 2.712606 1_555
Na0 O2 2.874705 1_555
Na0 O9 2.877323 1_545
Na1 O53 2.391094 1_555
Na1 O68 2.502043 1_555
Na1 O0 2.560439 1_555
Na1 O67 2.580336 1_555
Na1 O51 2.642638 1_555
Na1 O17 2.683770 1_555
Na1 O32 2.753508 1_555
Na1 O10 2.896831 1_555
Na2 O66 2.372141 1_555
Na2 O51 2.492573 1_455
Na2 O52 2.559873 1_455
Na2 O15 2.634456 1_455
Na2 O68 2.635600 1_555
Na2 O11 2.700621 1_555
Na2 O30 2.760439 1_555
Na3 O71 2.431026 1_555
Na3 O14 2.521053 1_555
Na3 O50 2.526526 1_555
Na3 O49 2.588104 1_555
Na3 O69 2.628329 1_555
Na3 O6 2.681267 1_555
Na3 O35 2.813342 1_555
Na4 O48 2.376589 1_555
Na4 O69 2.501611 1_655
Na4 O50 2.581653 1_555
Na4 O70 2.587405 1_655
Na4 O33 2.617192 1_655
Na4 O5 2.662994 1_555
Na4 O12 2.745472 1_555
Na5 O48 2.328652 1_555
Na5 O71 2.332925 1_545
Na5 O49 2.519630 1_555
Na5 O70 2.553363 1_545
Na5 O13 2.676794 1_555
Na5 O34 2.683664 1_545
Na5 O8 2.916256 1_545
Na5 O3 2.923920 1_555
Na6 O64 2.369908 1_555
Na6 O43 2.487095 1_555
Na6 O42 2.519194 1_455
Na6 O65 2.645008 1_555
Na6 O7 2.691719 1_555
Na6 O28 2.709244 1_555
Na6 O14 2.726563 1_555
Na6 O21 2.896382 1_555
Na7 O44 2.333660 1_455
Na7 O65 2.473214 1_555
Na7 O63 2.542078 1_555
Na7 O43 2.612748 1_565
Na7 O29 2.654252 1_555
Na7 O22 2.742219 1_455
Na7 O8 2.768647 1_555
Na7 O12 2.922265 1_455
Na8 O64 2.346145 1_555
Na8 O44 2.357167 1_555
Na8 O6 2.451729 1_555
Na8 O42 2.600252 1_565
Na8 O63 2.651382 1_555
Na8 O27 2.838672 1_555
Na8 O13 2.922258 1_565
Na8 O23 2.949628 1_565
Na9 O11 2.369344 1_555
Na9 O47 2.449380 1_565
Na9 O61 2.449482 1_555
Na9 O45 2.478671 1_455
Na9 O62 2.482852 1_555
Na9 O26 2.820720 1_554
Na9 O16 2.866587 1_565
Na9 O18 2.931473 1_565
Na10 O5 2.438341 1_555
Na10 O41 2.447603 1_545
Na10 O55 2.448882 1_555
Na10 O39 2.472489 1_655
Na10 O56 2.477900 1_555
Na10 O20 2.801843 1_556
Na10 O34 2.869629 1_545
Na10 O24 2.922334 1_545
Na11 O36 2.423681 1_655
Na11 O22 2.425956 1_555
Na11 O58 2.446294 1_555
Na11 O37 2.472447 1_555
Na11 O59 2.490612 1_555
Na11 O1 2.811736 1_555
Na11 O27 2.861635 1_555
Na12 O44 2.400667 1_555
Na12 O36 2.533278 1_655
Na12 O38 2.535284 1_665
Na12 O37 2.537873 1_555
Na12 O43 2.635594 1_665
Na12 O42 2.643627 1_565
Na13 O45 2.506643 1_455
Na13 O39 2.521139 1_564
Na13 O47 2.556060 1_565
Na13 O41 2.570537 1_454
Na13 O46 2.575982 1_465
Na13 O40 2.587785 1_554
Na14 O48 2.455389 1_555
Na14 O55 2.544462 1_555
Na14 O56 2.565729 1_555
Na14 O50 2.602340 1_555
Na14 O49 2.609549 1_555
Na14 O54 2.613495 1_555
Na15 O53 2.397143 1_555
Na15 O57 2.462436 1_555
Na15 O58 2.539733 1_555
Na15 O59 2.651139 1_555
Na15 O52 2.700518 1_555
Na15 O51 2.748839 1_555
Na16 O66 2.461010 1_555
Na16 O61 2.543737 1_555
Na16 O62 2.574157 1_555
Na16 O60 2.625470 1_555
Na16 O68 2.642562 1_555
Na16 O67 2.668356 1_555
Na17 O71 2.383524 1_555
Na17 O64 2.383735 1_555
Na17 O69 2.619686 1_555
Na17 O63 2.654191 1_555
Na17 O70 2.767176 1_555
Na17 O65 2.776006 1_555
Mg0 O0 1.898783 1_555
Mg0 O2 2.090330 1_455
Mg0 O38 2.093203 1_555
Mg0 O1 2.169266 1_445
Mg0 O36 2.206451 1_545
Mg0 O37 2.258519 1_445
Mg1 O5 1.963349 1_555
Mg1 O3 2.042301 1_655
Mg1 O4 2.082617 1_545
Mg1 O41 2.159599 1_545
Mg1 O39 2.178780 1_655
Mg1 O40 2.197484 1_645
Mg2 O6 1.930168 1_555
Mg2 O44 2.002378 1_555
Mg2 O8 2.096841 1_655
Mg2 O7 2.170625 1_665
Mg2 O42 2.223558 1_565
Mg2 O43 2.268174 1_665
Mg3 O11 1.964084 1_555
Mg3 O9 2.076441 1_455
Mg3 O10 2.084172 1_565
Mg3 O47 2.186413 1_565
Mg3 O46 2.197490 1_465
Mg3 O45 2.197828 1_455
Mg4 O14 1.959057 1_555
Mg4 O48 2.024852 1_555
Mg4 O13 2.103185 1_555
Mg4 O12 2.119387 1_555
Mg4 O50 2.208722 1_555
Mg4 O49 2.209936 1_555
Mg5 O53 1.988142 1_555
Mg5 O16 2.066626 1_555
Mg5 O17 2.074128 1_555
Mg5 O15 2.089917 1_555
Mg5 O52 2.206366 1_555
Mg5 O51 2.213047 1_555
Mg6 O19 1.999180 1_556
Mg6 O18 2.043105 1_556
Mg6 O54 2.076962 1_555
Mg6 O20 2.113144 1_556
Mg6 O55 2.190063 1_555
Mg6 O56 2.190297 1_555
Mg7 O22 1.946145 1_555
Mg7 O21 2.064121 1_555
Mg7 O23 2.071629 1_555
Mg7 O59 2.146141 1_555
Mg7 O57 2.161388 1_555
Mg7 O58 2.216380 1_555
Mg8 O25 2.005730 1_554
Mg8 O24 2.050800 1_554
Mg8 O60 2.071678 1_555
Mg8 O26 2.115017 1_554
Mg8 O62 2.182990 1_555
Mg8 O61 2.184612 1_555
Mg9 O64 2.003684 1_555
Mg9 O27 2.042462 1_555
Mg9 O28 2.043047 1_555
Mg9 O29 2.112025 1_555
Mg9 O65 2.156399 1_555
Mg9 O63 2.194743 1_555
Mg10 O66 1.981666 1_555
Mg10 O30 2.030474 1_555
Mg10 O31 2.069140 1_555
Mg10 O32 2.103722 1_555
Mg10 O68 2.202217 1_555
Mg10 O67 2.215311 1_555
Mg11 O71 1.998249 1_555
Mg11 O35 2.056966 1_555
Mg11 O34 2.066577 1_555
Mg11 O33 2.093799 1_555
Mg11 O70 2.193948 1_555
Mg11 O69 2.222384 1_555
O0 Si0 1.618302 1_555
O1 S0 1.484813 1_555
O2 S1 1.480540 1_555
O3 S2 1.475377 1_555
O4 S3 1.474652 1_655
O5 Si1 1.635838 1_555
O6 Si1 1.634169 1_565
O7 S2 1.487998 1_555
O8 S3 1.492675 1_555
O9 S0 1.479793 1_555
O10 S1 1.477920 1_455
O11 Si0 1.640145 1_565
O12 S4 1.486607 1_555
O13 S5 1.487478 1_555
O14 Si2 1.639813 1_555
O15 S6 1.487335 1_555
O16 S7 1.492890 1_555
O17 S8 1.490111 1_555
O18 S8 1.483930 1_555
O19 S6 1.470092 1_555
O20 S7 1.487397 1_555
O21 S5 1.474293 1_555
O22 Si2 1.632460 1_555
O23 S4 1.476143 1_555
O24 S9 1.481302 1_555
O25 S10 1.466903 1_555
O26 S11 1.484645 1_555
O27 S12 1.491063 1_555
O28 S13 1.486330 1_555
O29 S14 1.485391 1_555
O30 S14 1.478346 1_555
O31 S12 1.485460 1_555
O32 S13 1.492703 1_555
O33 S10 1.488666 1_555
O34 S11 1.494883 1_555
O35 S9 1.488991 1_555
O36 S14 1.499319 1_555
O37 S12 1.497443 1_555
O38 S13 1.475831 1_555
O39 S10 1.496251 1_555
O40 S11 1.475816 1_555
O41 S9 1.500381 1_555
O42 S4 1.489306 1_555
O43 S5 1.491146 1_555
O44 Si2 1.658683 1_555
O45 S6 1.494198 1_555
O46 S7 1.475400 1_555
O47 S8 1.497659 1_555
O48 Si1 1.659256 1_555
O49 S2 1.487645 1_555
O50 S3 1.489802 1_655
O51 S0 1.493748 1_555
O52 S1 1.493212 1_555
O53 Si0 1.661392 1_555
O54 S9 1.478773 1_555
O55 S10 1.503746 1_655
O56 S11 1.505937 1_545
O57 S12 1.477823 1_545
O58 S13 1.497096 1_555
O59 S14 1.493396 1_655
O60 S8 1.478483 1_555
O61 S6 1.503661 1_455
O62 S7 1.505516 1_565
O63 S5 1.492543 1_565
O64 Si2 1.663404 1_555
O65 S4 1.493194 1_455
O66 Si0 1.663151 1_565
O67 S0 1.494511 1_555
O68 S1 1.497854 1_455
O69 S2 1.495808 1_555
O70 S3 1.489001 1_555
O71 Si1 1.657725 1_565
