# generated using pymatgen
data_ZrNiH3
_symmetry_space_group_name_H-M   'P 1'
_cell_length_a   3.50849118
_cell_length_b   4.29288545
_cell_length_c   5.52038354
_cell_angle_alpha   90.00000000
_cell_angle_beta   108.52845585
_cell_angle_gamma   90.00000000
_symmetry_Int_Tables_number   1
_chemical_formula_structural   ZrNiH3
_chemical_formula_sum   'Zr2 Ni2 H6'
_cell_volume   78.83576680
_cell_formula_units_Z   2
loop_
 _symmetry_equiv_pos_site_id
 _symmetry_equiv_pos_as_xyz
  1  'x, y, z'
loop_
 _atom_site_type_symbol
 _atom_site_label
 _atom_site_symmetry_multiplicity
 _atom_site_fract_x
 _atom_site_fract_y
 _atom_site_fract_z
 _atom_site_occupancy
  Zr  Zr0  1  0.86160711  0.25000000  0.72321523  1
  Zr  Zr1  1  0.13839289  0.75000000  0.27678477  1
  Ni  Ni0  1  0.56918809  0.25000000  0.13837718  1
  Ni  Ni1  1  0.43081191  0.75000000  0.86162282  1
  H  H0  1  0.68684071  0.99850769  0.37368141  1
  H  H1  1  0.31315929  0.00149231  0.62631859  1
  H  H2  1  0.31315929  0.49850769  0.62631859  1
  H  H3  1  0.68684071  0.50149231  0.37368141  1
  H  H4  1  0.06912409  0.25000000  0.13824818  1
  H  H5  1  0.93087591  0.75000000  0.86175182  1
loop_
_geom_bond_atom_site_label_1
_geom_bond_atom_site_label_2
_geom_bond_distance
_geom_bond_site_symmetry_2
H0 Ni0 1.637843 1_565
H0 Zr1 2.114876 1_555
H0 Zr1 2.114878 1_655
H0 Zr0 2.124341 1_565
H1 Ni1 1.637843 1_545
H1 Zr0 2.114876 1_555
H1 Zr0 2.114878 1_455
H1 Zr1 2.124341 1_545
H2 Ni1 1.637843 1_555
H2 Zr0 2.114876 1_555
H2 Zr0 2.114878 1_455
H2 Zr1 2.124341 1_555
H3 Ni0 1.637843 1_555
H3 Zr1 2.114876 1_555
H3 Zr1 2.114878 1_655
H3 Zr0 2.124341 1_555
H4 Ni0 1.754244 1_555
H4 Ni0 1.754247 1_455
H4 Zr0 2.172382 1_454
H4 Zr1 2.265620 1_545
H4 Zr1 2.265620 1_555
H5 Ni1 1.754244 1_555
H5 Ni1 1.754247 1_655
H5 Zr1 2.172382 1_656
H5 Zr0 2.265620 1_565
H5 Zr0 2.265620 1_555
