# generated using pymatgen
data_Na15Ta5Zn7(PO4)18
_symmetry_space_group_name_H-M   'P 1'
_cell_length_a   8.91936039
_cell_length_b   8.89420796
_cell_length_c   22.27081108
_cell_angle_alpha   89.94607264
_cell_angle_beta   90.16707231
_cell_angle_gamma   119.87549306
_symmetry_Int_Tables_number   1
_chemical_formula_structural   Na15Ta5Zn7(PO4)18
_chemical_formula_sum   'Na15 Ta5 Zn7 P18 O72'
_cell_volume   1531.96640502
_cell_formula_units_Z   1
loop_
 _symmetry_equiv_pos_site_id
 _symmetry_equiv_pos_as_xyz
  1  'x, y, z'
loop_
 _atom_site_type_symbol
 _atom_site_label
 _atom_site_symmetry_multiplicity
 _atom_site_fract_x
 _atom_site_fract_y
 _atom_site_fract_z
 _atom_site_occupancy
  Na  Na0  1  0.98657284  0.63014218  0.24534189  1
  Na  Na1  1  0.64742138  0.63490324  0.74770848  1
  Na  Na2  1  0.98737269  0.35187339  0.74785206  1
  Na  Na3  1  0.36511755  0.01249656  0.74777189  1
  Na  Na4  1  0.29468357  0.33383081  0.58462885  1
  Na  Na5  1  0.03985152  0.70621068  0.58513827  1
  Na  Na6  1  0.66558382  0.96093741  0.58466769  1
  Na  Na7  1  0.65400250  0.69009131  0.07931219  1
  Na  Na8  1  0.31966390  0.02453487  0.41206063  1
  Na  Na9  1  0.99033109  0.99942972  0.49557742  1
  Na  Na10  1  0.00884183  0.00753779  0.98935930  1
  Na  Na11  1  0.66691665  0.33335072  0.83214828  1
  Na  Na12  1  0.66442279  0.33054812  0.32365236  1
  Na  Na13  1  0.33096319  0.66734285  0.15665216  1
  Na  Na14  1  0.33354692  0.66685011  0.66209452  1
  Ta  Ta0  1  0.00418450  0.00631659  0.14512111  1
  Ta  Ta1  1  0.66614513  0.33066586  0.97923449  1
  Ta  Ta2  1  0.67134447  0.33741681  0.47805023  1
  Ta  Ta3  1  0.33813266  0.66523341  0.31181407  1
  Ta  Ta4  1  0.33269577  0.66648387  0.81938030  1
  Zn  Zn0  1  0.99326883  0.00065427  0.35002711  1
  Zn  Zn1  1  0.99995882  0.00004112  0.85212654  1
  Zn  Zn2  1  0.99984571  0.00042252  0.65387117  1
  Zn  Zn3  1  0.66680105  0.33289221  0.68203056  1
  Zn  Zn4  1  0.66029373  0.32599615  0.18277202  1
  Zn  Zn5  1  0.32598899  0.66578808  0.01685204  1
  Zn  Zn6  1  0.33452359  0.66617367  0.51334318  1
  P  P0  1  0.29426102  0.00517374  0.25324227  1
  P  P1  1  0.71142681  0.70957731  0.25072391  1
  P  P2  1  0.99738242  0.28910387  0.25232295  1
  P  P3  1  0.29384800  0.29450310  0.75000297  1
  P  P4  1  0.00074936  0.70645221  0.75000630  1
  P  P5  1  0.70498471  0.99872918  0.75002031  1
  P  P6  1  0.96117405  0.33441427  0.58474429  1
  P  P7  1  0.37401050  0.03970430  0.58360945  1
  P  P8  1  0.66556964  0.62654683  0.58471203  1
  P  P9  1  0.96074073  0.62270606  0.08631394  1
  P  P10  1  0.66404135  0.04148271  0.08535016  1
  P  P11  1  0.37765110  0.33491152  0.08455887  1
  P  P12  1  0.63038901  0.66964633  0.92094086  1
  P  P13  1  0.04031090  0.37041636  0.92014078  1
  P  P14  1  0.33017578  0.96014517  0.91998434  1
  P  P15  1  0.62933040  0.95706023  0.41892530  1
  P  P16  1  0.33032635  0.37274782  0.41907477  1
  P  P17  1  0.04226171  0.66767586  0.41744675  1
  O  O0  1  0.21388715  0.02164079  0.31051503  1
  O  O1  1  0.82394728  0.79137563  0.30516454  1
  O  O2  1  0.97604904  0.18549571  0.30768865  1
  O  O3  1  0.20857336  0.17682659  0.80319513  1
  O  O4  1  0.96862853  0.79180351  0.80330503  1
  O  O5  1  0.82278699  0.03122342  0.80334639  1
  O  O6  1  0.76708043  0.95284689  0.69140601  1
  O  O7  1  0.18578435  0.23272237  0.69124356  1
  O  O8  1  0.04637288  0.81450589  0.69131909  1
  O  O9  1  0.79599781  0.82713870  0.19293183  1
  O  O10  1  0.02817111  0.20004988  0.19537395  1
  O  O11  1  0.16654256  0.96880141  0.19771698  1
  O  O12  1  0.88265462  0.36492421  0.64089871  1
  O  O13  1  0.48358072  0.11945639  0.63978325  1
  O  O14  1  0.63581100  0.51786319  0.64102807  1
  O  O15  1  0.88039725  0.52557592  0.14380213  1
  O  O16  1  0.64216266  0.12360560  0.14094748  1
  O  O17  1  0.48901296  0.36620130  0.13952883  1
  O  O18  1  0.46684714  0.30260576  0.02807935  1
  O  O19  1  0.83273123  0.53150455  0.03102212  1
  O  O20  1  0.69465466  0.16120722  0.02853237  1
  O  O21  1  0.47353941  0.15998234  0.52674762  1
  O  O22  1  0.68632499  0.52336281  0.52893873  1
  O  O23  1  0.83750256  0.31364147  0.52881540  1
  O  O24  1  0.54613125  0.68866025  0.97642082  1
  O  O25  1  0.14991594  0.45811469  0.97346460  1
  O  O26  1  0.31165728  0.85208023  0.97358450  1
  O  O27  1  0.54842858  0.85959249  0.47671715  1
  O  O28  1  0.30931611  0.45120572  0.47668695  1
  O  O29  1  0.14818495  0.69464135  0.47440408  1
  O  O30  1  0.13271114  0.63766965  0.36106232  1
  O  O31  1  0.50012393  0.86375918  0.36394809  1
  O  O32  1  0.35997250  0.49652050  0.36365446  1
  O  O33  1  0.12904132  0.49162504  0.86131183  1
  O  O34  1  0.36154480  0.87106405  0.86116101  1
  O  O35  1  0.50673225  0.63873346  0.86318580  1
  O  O36  1  0.02073841  0.82510123  0.40996023  1
  O  O37  1  0.80815230  0.98522149  0.41068433  1
  O  O38  1  0.18320569  0.18936026  0.41114979  1
  O  O39  1  0.01200557  0.19062423  0.90948158  1
  O  O40  1  0.17873390  0.98808174  0.90973066  1
  O  O41  1  0.80858569  0.82222720  0.91015385  1
  O  O42  1  0.96839797  0.16515840  0.58381419  1
  O  O43  1  0.19728554  0.03149657  0.58309799  1
  O  O44  1  0.83391705  0.80281704  0.58370433  1
  O  O45  1  0.96557087  0.80696268  0.09031505  1
  O  O46  1  0.83866685  0.02907463  0.09021005  1
  O  O47  1  0.19482254  0.16267294  0.09084668  1
  O  O48  1  0.67412068  0.15450862  0.74530913  1
  O  O49  1  0.47979961  0.32519831  0.74541475  1
  O  O50  1  0.84579263  0.52011072  0.74534866  1
  O  O51  1  0.68583722  0.52867585  0.24306372  1
  O  O52  1  0.85171696  0.32918561  0.24428706  1
  O  O53  1  0.47505256  0.15540531  0.24433924  1
  O  O54  1  0.63756354  0.49445019  0.92345846  1
  O  O55  1  0.85858395  0.36411558  0.92389492  1
  O  O56  1  0.50544471  0.14221123  0.92314211  1
  O  O57  1  0.63138763  0.13890556  0.42203031  1
  O  O58  1  0.50384013  0.36086112  0.42250667  1
  O  O59  1  0.85984975  0.49638437  0.42255755  1
  O  O60  1  0.35319300  0.49055109  0.07614380  1
  O  O61  1  0.14148548  0.65323193  0.07775575  1
  O  O62  1  0.51856096  0.85601600  0.07754267  1
  O  O63  1  0.35444009  0.85819506  0.57743869  1
  O  O64  1  0.50400475  0.64541939  0.57763007  1
  O  O65  1  0.14095755  0.49613570  0.57752930  1
  O  O66  1  0.29849663  0.82523126  0.25701178  1
  O  O67  1  0.52768345  0.69797821  0.25778151  1
  O  O68  1  0.17182718  0.47645906  0.25709050  1
  O  O69  1  0.31348881  0.48329124  0.75934066  1
  O  O70  1  0.16977424  0.68705690  0.75921410  1
  O  O71  1  0.51710704  0.82973299  0.75937799  1
loop_
_geom_bond_atom_site_label_1
_geom_bond_atom_site_label_2
_geom_bond_distance
_geom_bond_site_symmetry_2
Na0 O52 2.324829 1_555
Na0 O51 2.366388 1_555
Na0 O15 2.447374 1_555
Na0 O66 2.450728 1_655
Na0 O68 2.629447 1_655
Na0 O11 2.821615 1_655
Na0 O1 2.832426 1_555
Na0 O30 2.870398 1_655
Na1 O49 2.392195 1_555
Na1 O50 2.444602 1_555
Na1 O71 2.535839 1_555
Na1 O14 2.575829 1_555
Na1 O69 2.599872 1_555
Na1 O4 2.772740 1_555
Na1 O6 2.775340 1_555
Na1 O35 2.872528 1_555
Na2 O50 2.391381 1_555
Na2 O48 2.450358 1_555
Na2 O69 2.549827 1_655
Na2 O12 2.579536 1_555
Na2 O70 2.601062 1_655
Na2 O5 2.765693 1_555
Na2 O7 2.779974 1_655
Na2 O33 2.819429 1_655
Na3 O48 2.393156 1_555
Na3 O49 2.439299 1_555
Na3 O70 2.540850 1_545
Na3 O71 2.596053 1_545
Na3 O13 2.610473 1_555
Na3 O3 2.766929 1_555
Na3 O8 2.785691 1_545
Na3 O34 2.813349 1_545
Na4 O43 2.378963 1_555
Na4 O65 2.441129 1_555
Na4 O64 2.456944 1_555
Na4 O42 2.524035 1_455
Na4 O7 2.555219 1_555
Na4 O28 2.597545 1_555
Na5 O44 2.384338 1_455
Na5 O63 2.440001 1_555
Na5 O65 2.452179 1_555
Na5 O43 2.509396 1_565
Na5 O8 2.543771 1_555
Na5 O29 2.671990 1_555
Na6 O42 2.389005 1_565
Na6 O64 2.438683 1_555
Na6 O63 2.456406 1_555
Na6 O44 2.517221 1_555
Na6 O6 2.554913 1_555
Na6 O27 2.595266 1_555
Na7 O62 2.326916 1_555
Na7 O60 2.368274 1_555
Na7 O45 2.445820 1_555
Na7 O24 2.480268 1_554
Na7 O46 2.629402 1_565
Na7 O19 2.817866 1_555
Na7 O9 2.818139 1_555
Na7 O17 2.836137 1_555
Na8 O38 2.325573 1_555
Na8 O36 2.354825 1_545
Na8 O0 2.443082 1_555
Na8 O57 2.448211 1_555
Na8 O58 2.608542 1_555
Na8 O31 2.844233 1_545
Na8 O21 2.863029 1_555
Na8 O29 2.900029 1_545
Na9 O37 2.451286 1_555
Na9 O42 2.523416 1_565
Na9 O44 2.536811 1_555
Na9 O38 2.542895 1_665
Na9 O36 2.557522 1_655
Na9 O43 2.596820 1_665
Na10 O40 2.397619 1_545
Na10 O39 2.401293 1_555
Na10 O41 2.464292 1_445
Na10 O47 2.732741 1_556
Na10 O46 2.774086 1_456
Na10 O45 2.774562 1_446
Na11 O49 2.526417 1_555
Na11 O48 2.526447 1_555
Na11 O50 2.532447 1_555
Na11 O54 2.576676 1_555
Na11 O56 2.577289 1_555
Na11 O55 2.585934 1_555
Na12 O53 2.401277 1_555
Na12 O52 2.439765 1_555
Na12 O51 2.454330 1_555
Na12 O57 2.699787 1_555
Na12 O58 2.715743 1_555
Na12 O59 2.736455 1_555
Na13 O61 2.393964 1_555
Na13 O62 2.436013 1_555
Na13 O60 2.458578 1_555
Na13 O66 2.732459 1_555
Na13 O68 2.740654 1_555
Na13 O67 2.779802 1_555
Na14 O63 2.483078 1_555
Na14 O65 2.488227 1_555
Na14 O64 2.488461 1_555
Na14 O69 2.663179 1_555
Na14 O71 2.663769 1_555
Na14 O70 2.669280 1_555
O0 P0 1.507510 1_555
O0 Zn0 2.079709 1_455
O1 P1 1.507878 1_555
O1 Zn0 1.984425 1_565
O2 P2 1.493426 1_555
O2 Zn0 1.965517 1_555
O3 P3 1.512337 1_555
O3 Zn1 2.053293 1_455
O4 P4 1.512513 1_655
O4 Zn1 2.043773 1_565
O5 P5 1.512883 1_545
O5 Zn1 2.044600 1_555
O6 P5 1.551681 1_555
O6 Zn2 2.079028 1_565
O7 P3 1.552356 1_555
O7 Zn2 2.072101 1_455
O8 P4 1.551973 1_555
O8 Zn2 2.069088 1_465
O9 P1 1.592560 1_555
O9 Ta0 2.044938 1_665
O10 P2 1.591220 1_455
O10 Ta0 1.975444 1_555
O11 P0 1.599037 1_565
O11 Ta0 2.012766 1_565
O12 P6 1.524207 1_555
O12 Zn3 2.022457 1_555
O13 P7 1.525541 1_555
O13 Zn3 2.015786 1_555
O14 P8 1.523794 1_555
O14 Zn3 2.016328 1_555
O15 P9 1.511807 1_555
O15 Zn4 2.072106 1_555
O16 P10 1.499945 1_555
O16 Zn4 1.961230 1_555
O17 P11 1.510278 1_555
O17 Zn4 1.980981 1_555
O18 P11 1.591200 1_555
O18 Ta1 1.993570 1_554
O19 P9 1.596544 1_555
O19 Ta1 2.019539 1_554
O20 P10 1.587283 1_555
O20 Ta1 1.979591 1_554
O21 P7 1.610611 1_555
O21 Ta2 2.003394 1_555
O22 P8 1.610005 1_555
O22 Ta2 1.954476 1_555
O23 P6 1.609895 1_555
O23 Ta2 1.954819 1_555
O24 P12 1.500827 1_555
O24 Zn5 2.078375 1_556
O25 P13 1.486520 1_555
O25 Zn5 1.978996 1_556
O26 P14 1.488923 1_555
O26 Zn5 1.974219 1_556
O27 P15 1.519502 1_555
O27 Zn6 2.000376 1_555
O28 P16 1.517137 1_555
O28 Zn6 1.986514 1_555
O29 P17 1.525454 1_555
O29 Zn6 1.997219 1_555
O30 P17 1.587438 1_555
O30 Ta3 2.045446 1_555
O31 P15 1.599006 1_555
O31 Ta3 2.001486 1_555
O32 P16 1.585732 1_555
O32 Ta3 1.977174 1_555
O33 P13 1.630490 1_555
O33 Ta4 1.945030 1_555
O34 P14 1.627016 1_555
O34 Ta4 1.943769 1_555
O35 P12 1.623823 1_555
O35 Ta4 1.948001 1_555
O36 P17 1.514034 1_555
O36 Zn0 2.157519 1_465
O37 P15 1.497999 1_555
O37 Zn0 2.087297 1_565
O38 P16 1.510108 1_555
O38 Zn0 2.167533 1_455
O39 P13 1.508445 1_555
O39 Zn1 2.082857 1_455
O40 P14 1.506954 1_555
O40 Zn1 2.087230 1_465
O41 P12 1.509428 1_555
O41 Zn1 2.098694 1_565
O42 P6 1.538668 1_555
O42 Zn2 2.249967 1_555
O43 P7 1.541220 1_555
O43 Zn2 2.278696 1_455
O44 P8 1.538829 1_555
O44 Zn2 2.263094 1_565
O45 P9 1.620318 1_555
O45 Ta0 2.036060 1_665
O46 P10 1.618668 1_555
O46 Ta0 2.000673 1_655
O47 P11 1.593059 1_555
O47 Ta0 1.984775 1_555
O48 P5 1.544681 1_545
O48 Zn3 2.146154 1_555
O49 P3 1.544560 1_555
O49 Zn3 2.163143 1_555
O50 P4 1.544440 1_655
O50 Zn3 2.157068 1_555
O51 P1 1.518037 1_555
O51 Zn4 2.167515 1_555
O52 P2 1.518915 1_555
O52 Zn4 2.175081 1_555
O53 P0 1.509912 1_555
O53 Zn4 2.103305 1_555
O54 P12 1.592004 1_555
O54 Ta1 2.023555 1_555
O55 P13 1.596151 1_655
O55 Ta1 2.014079 1_555
O56 P14 1.596458 1_545
O56 Ta1 2.006133 1_555
O57 P15 1.609858 1_545
O57 Ta2 2.043421 1_555
O58 P16 1.604519 1_555
O58 Ta2 2.026049 1_555
O59 P17 1.585084 1_655
O59 Ta2 1.998480 1_555
O60 P11 1.516276 1_555
O60 Zn5 2.145405 1_555
O61 P9 1.508192 1_455
O61 Zn5 2.095243 1_555
O62 P10 1.517200 1_565
O62 Zn5 2.176088 1_555
O63 P7 1.541143 1_565
O63 Zn6 2.164926 1_555
O64 P8 1.539252 1_555
O64 Zn6 2.152649 1_555
O65 P6 1.539279 1_455
O65 Zn6 2.172664 1_555
O66 P0 1.621686 1_565
O66 Ta3 2.033488 1_555
O67 P1 1.598214 1_555
O67 Ta3 1.977855 1_555
O68 P2 1.620302 1_455
O68 Ta3 2.004200 1_555
O69 P3 1.612694 1_555
O69 Ta4 2.048596 1_555
O70 P4 1.613031 1_555
O70 Ta4 2.047850 1_555
O71 P5 1.613373 1_555
O71 Ta4 2.056526 1_555
