# generated using pymatgen
data_Na3Ga2(PO4)3
_symmetry_space_group_name_H-M   'P 1'
_cell_length_a   8.72820666
_cell_length_b   8.72820402
_cell_length_c   21.90140786
_cell_angle_alpha   89.98025934
_cell_angle_beta   90.01974747
_cell_angle_gamma   119.99790230
_symmetry_Int_Tables_number   1
_chemical_formula_structural   Na3Ga2(PO4)3
_chemical_formula_sum   'Na18 Ga12 P18 O72'
_cell_volume   1444.97961348
_cell_formula_units_Z   6
loop_
 _symmetry_equiv_pos_site_id
 _symmetry_equiv_pos_as_xyz
  1  'x, y, z'
loop_
 _atom_site_type_symbol
 _atom_site_label
 _atom_site_symmetry_multiplicity
 _atom_site_fract_x
 _atom_site_fract_y
 _atom_site_fract_z
 _atom_site_occupancy
  Na  Na0  1  0.00022519  0.99987411  0.50000891  1
  Na  Na1  1  0.00012596  0.99977519  0.00000890  1
  Na  Na2  1  0.65295501  0.32572007  0.83332661  1
  Na  Na3  1  0.67427978  0.34704486  0.33332665  1
  Na  Na4  1  0.33363741  0.66656831  0.16666287  1
  Na  Na5  1  0.33343146  0.66636207  0.66666295  1
  Na  Na6  1  0.63385109  0.99853443  0.24985427  1
  Na  Na7  1  0.36682075  0.36567724  0.24993718  1
  Na  Na8  1  0.63432243  0.63317909  0.74993719  1
  Na  Na9  1  0.00146549  0.36614886  0.74985430  1
  Na  Na10  1  0.03148044  0.69967288  0.58333535  1
  Na  Na11  1  0.66525108  0.96684685  0.58324463  1
  Na  Na12  1  0.30032762  0.96851998  0.08333533  1
  Na  Na13  1  0.03315281  0.33474911  0.08324459  1
  Na  Na14  1  0.96668513  0.66543689  0.91707531  1
  Na  Na15  1  0.69897792  0.03106209  0.91659974  1
  Na  Na16  1  0.96893770  0.30102215  0.41659983  1
  Na  Na17  1  0.33456286  0.03331453  0.41707509  1
  Ga  Ga0  1  0.99388972  0.99168236  0.35051480  1
  Ga  Ga1  1  0.00831772  0.00611033  0.85051480  1
  Ga  Ga2  1  0.00749357  0.00645070  0.64953120  1
  Ga  Ga3  1  0.99354921  0.99250645  0.14953125  1
  Ga  Ga4  1  0.65897286  0.32755490  0.68382855  1
  Ga  Ga5  1  0.67244501  0.34102720  0.18382850  1
  Ga  Ga6  1  0.66046503  0.33454386  0.98287811  1
  Ga  Ga7  1  0.66545605  0.33953488  0.48287813  1
  Ga  Ga8  1  0.33930147  0.66619715  0.01711449  1
  Ga  Ga9  1  0.33380294  0.66069868  0.51711453  1
  Ga  Ga10  1  0.32847538  0.66521094  0.31624561  1
  Ga  Ga11  1  0.33478911  0.67152468  0.81624567  1
  P  P0  1  0.28915208  0.99647369  0.24996210  1
  P  P1  1  0.71098400  0.70780898  0.25015318  1
  P  P2  1  -0.00007938  0.29341365  0.24990448  1
  P  P3  1  0.29219109  0.28901597  0.75015323  1
  P  P4  1  0.00352654  0.71084803  0.74996209  1
  P  P5  1  0.70658618  0.00007917  0.74990452  1
  P  P6  1  0.95986532  0.33332810  0.58335450  1
  P  P7  1  0.37423578  0.04402206  0.58258094  1
  P  P8  1  0.66343611  0.62285495  0.58402715  1
  P  P9  1  0.95597788  0.62576408  0.08258090  1
  P  P10  1  0.66667199  0.04013487  0.08335454  1
  P  P11  1  0.37714515  0.33656389  0.08402715  1
  P  P12  1  0.62252076  0.66343843  0.91594494  1
  P  P13  1  0.04395992  0.37381716  0.91681592  1
  P  P14  1  0.33358412  0.95992155  0.91720879  1
  P  P15  1  0.62618288  0.95604013  0.41681592  1
  P  P16  1  0.33656149  0.37747918  0.41594485  1
  P  P17  1  0.04007875  0.66641599  0.41720882  1
  O  O0  1  0.21104395  0.03758883  0.30722605  1
  O  O1  1  0.82493140  0.78951804  0.30711627  1
  O  O2  1  0.96216924  0.17493992  0.30733736  1
  O  O3  1  0.21048200  0.17506873  0.80711626  1
  O  O4  1  0.96241132  0.78895633  0.80722608  1
  O  O5  1  0.82505981  0.03783048  0.80733732  1
  O  O6  1  0.78751603  0.96187500  0.69260296  1
  O  O7  1  0.17083684  0.21150551  0.69383019  1
  O  O8  1  0.03298743  0.82225893  0.69194133  1
  O  O9  1  0.78849441  0.82916292  0.19383028  1
  O  O10  1  0.03812503  0.21248380  0.19260293  1
  O  O11  1  0.17774123  0.96701274  0.19194144  1
  O  O12  1  0.87906615  0.37157997  0.64074985  1
  O  O13  1  0.49692185  0.12381383  0.63844113  1
  O  O14  1  0.63311521  0.51226763  0.64239993  1
  O  O15  1  0.87618611  0.50307818  0.13844109  1
  O  O16  1  0.62841996  0.12093370  0.14074979  1
  O  O17  1  0.48773217  0.36688481  0.14239993  1
  O  O18  1  0.45686637  0.29363295  0.02821818  1
  O  O19  1  0.84536286  0.54549567  0.02419004  1
  O  O20  1  0.70500584  0.15916921  0.02596751  1
  O  O21  1  0.45450448  0.15463723  0.52419012  1
  O  O22  1  0.70636695  0.54313342  0.52821824  1
  O  O23  1  0.84083074  0.29499407  0.52596749  1
  O  O24  1  0.54295270  0.70636063  0.97180402  1
  O  O25  1  0.15561627  0.45608956  0.97476451  1
  O  O26  1  0.29433747  0.84185203  0.97502472  1
  O  O27  1  0.54391044  0.84438370  0.47476448  1
  O  O28  1  0.29363960  0.45704748  0.47180405  1
  O  O29  1  0.15814773  0.70566242  0.47502470  1
  O  O30  1  0.12285446  0.62682328  0.36135152  1
  O  O31  1  0.50725863  0.87771038  0.35946881  1
  O  O32  1  0.36761456  0.48848697  0.35757297  1
  O  O33  1  0.12228978  0.49274162  0.85946869  1
  O  O34  1  0.37317658  0.87714543  0.86135157  1
  O  O35  1  0.51151311  0.63238550  0.85757292  1
  O  O36  1  0.02901918  0.83700862  0.41043136  1
  O  O37  1  0.81418324  0.98213784  0.41070490  1
  O  O38  1  0.16705606  0.18983711  0.41028018  1
  O  O39  1  0.01786204  0.18581648  0.91070488  1
  O  O40  1  0.16299106  0.97098079  0.91043132  1
  O  O41  1  0.81016273  0.83294384  0.91028021  1
  O  O42  1  0.97121480  0.16282666  0.58978068  1
  O  O43  1  0.18657769  0.01860829  0.58922442  1
  O  O44  1  0.83282875  0.81058654  0.58955330  1
  O  O45  1  0.98139178  0.81342238  0.08922449  1
  O  O46  1  0.83717337  0.02878508  0.08978060  1
  O  O47  1  0.18941362  0.16717151  0.08955323  1
  O  O48  1  0.69532390  0.17072016  0.74339999  1
  O  O49  1  0.48032394  0.31490580  0.74377307  1
  O  O50  1  0.83421329  0.52355696  0.74425030  1
  O  O51  1  0.68509421  0.51967619  0.24377307  1
  O  O52  1  0.82927960  0.30467602  0.24340001  1
  O  O53  1  0.47644362  0.16578713  0.24425026  1
  O  O54  1  0.64776065  0.50113466  0.92254310  1
  O  O55  1  0.85678269  0.35600275  0.92246958  1
  O  O56  1  0.50407411  0.14232197  0.92350202  1
  O  O57  1  0.64399731  0.14321739  0.42246958  1
  O  O58  1  0.49886570  0.35223944  0.42254314  1
  O  O59  1  0.85767789  0.49592569  0.42350204  1
  O  O60  1  0.35207774  0.49900140  0.07732679  1
  O  O61  1  0.14363797  0.64418465  0.07716746  1
  O  O62  1  0.49624904  0.85818414  0.07689221  1
  O  O63  1  0.35581534  0.85636189  0.57716748  1
  O  O64  1  0.50099845  0.64792211  0.57732683  1
  O  O65  1  0.14181614  0.50375109  0.57689220  1
  O  O66  1  0.31472744  0.83418791  0.25626289  1
  O  O67  1  0.52335730  0.68970068  0.25612665  1
  O  O68  1  0.17023996  0.47555992  0.25619408  1
  O  O69  1  0.31029936  0.47664268  0.75612663  1
  O  O70  1  0.16581243  0.68527263  0.75626292  1
  O  O71  1  0.52444005  0.82975999  0.75619400  1
loop_
_geom_bond_atom_site_label_1
_geom_bond_atom_site_label_2
_geom_bond_distance
_geom_bond_site_symmetry_2
Na0 O43 2.494454 1_565
Na0 O37 2.496572 1_455
Na0 O36 2.508453 1_555
Na0 O44 2.509263 1_455
Na0 O42 2.512975 1_465
Na0 O38 2.513349 1_565
Na1 O45 2.494457 1_455
Na1 O39 2.496569 1_564
Na1 O40 2.508453 1_554
Na1 O47 2.509262 1_565
Na1 O46 2.512973 1_465
Na1 O41 2.513350 1_454
Na2 O49 2.445813 1_555
Na2 O56 2.463957 1_555
Na2 O54 2.497139 1_555
Na2 O48 2.519648 1_555
Na2 O50 2.561006 1_555
Na2 O55 2.564048 1_555
Na3 O51 2.445814 1_555
Na3 O59 2.463957 1_555
Na3 O58 2.497137 1_555
Na3 O52 2.519648 1_555
Na3 O53 2.561004 1_555
Na3 O57 2.564046 1_555
Na4 O60 2.496154 1_555
Na4 O66 2.502440 1_555
Na4 O68 2.506097 1_555
Na4 O67 2.507134 1_555
Na4 O62 2.510617 1_555
Na4 O61 2.510828 1_555
Na5 O64 2.496154 1_555
Na5 O70 2.502438 1_555
Na5 O71 2.506096 1_555
Na5 O69 2.507130 1_555
Na5 O65 2.510615 1_555
Na5 O63 2.510830 1_555
Na6 O52 2.347725 1_565
Na6 O67 2.369682 1_555
Na6 O66 2.416728 1_555
Na6 O53 2.457425 1_565
Na6 O16 2.627219 1_565
Na6 O31 2.632744 1_555
Na6 O9 2.740513 1_555
Na6 O2 2.784673 1_565
Na7 O68 2.351235 1_555
Na7 O53 2.375789 1_555
Na7 O51 2.410060 1_555
Na7 O67 2.453535 1_555
Na7 O17 2.579045 1_555
Na7 O32 2.588544 1_555
Na7 O0 2.780053 1_555
Na7 O10 2.785359 1_555
Na8 O71 2.351233 1_555
Na8 O50 2.375790 1_555
Na8 O49 2.410058 1_555
Na8 O69 2.453533 1_555
Na8 O14 2.579046 1_555
Na8 O35 2.588542 1_555
Na8 O4 2.780057 1_555
Na8 O6 2.785360 1_555
Na9 O48 2.347726 1_455
Na9 O69 2.369684 1_555
Na9 O70 2.416728 1_555
Na9 O50 2.457426 1_455
Na9 O12 2.627219 1_455
Na9 O33 2.632742 1_555
Na9 O7 2.740513 1_555
Na9 O5 2.784674 1_455
Na10 O65 2.349167 1_555
Na10 O44 2.375017 1_455
Na10 O43 2.414609 1_565
Na10 O63 2.455861 1_555
Na10 O8 2.605857 1_555
Na10 O29 2.606931 1_555
Na10 O22 2.738284 1_455
Na10 O12 2.782237 1_455
Na11 O42 2.347396 1_565
Na11 O63 2.374361 1_555
Na11 O64 2.414624 1_555
Na11 O44 2.452155 1_555
Na11 O27 2.603262 1_555
Na11 O6 2.630909 1_555
Na11 O13 2.740822 1_565
Na11 O23 2.781243 1_565
Na12 O62 2.349165 1_555
Na12 O47 2.375017 1_565
Na12 O45 2.414613 1_455
Na12 O61 2.455863 1_555
Na12 O11 2.605860 1_555
Na12 O26 2.606931 1_554
Na12 O18 2.738280 1_565
Na12 O16 2.782233 1_565
Na13 O46 2.347397 1_455
Na13 O61 2.374359 1_555
Na13 O60 2.414626 1_555
Na13 O47 2.452158 1_555
Na13 O25 2.603261 1_554
Na13 O10 2.630912 1_555
Na13 O15 2.740819 1_455
Na13 O20 2.781241 1_455
Na14 O40 2.345168 1_655
Na14 O55 2.374392 1_555
Na14 O54 2.414120 1_555
Na14 O41 2.454189 1_555
Na14 O19 2.571447 1_556
Na14 O4 2.643897 1_555
Na14 O26 2.784944 1_655
Na14 O33 2.785303 1_655
Na15 O56 2.347765 1_555
Na15 O41 2.372629 1_545
Na15 O39 2.414274 1_655
Na15 O55 2.459952 1_555
Na15 O5 2.622534 1_555
Na15 O20 2.633145 1_556
Na15 O24 2.736384 1_545
Na15 O34 2.744827 1_545
Na16 O59 2.347762 1_555
Na16 O38 2.372631 1_655
Na16 O37 2.414275 1_545
Na16 O57 2.459951 1_555
Na16 O2 2.622536 1_555
Na16 O23 2.633142 1_555
Na16 O28 2.736387 1_655
Na16 O30 2.744827 1_655
Na17 O36 2.345167 1_545
Na17 O57 2.374395 1_555
Na17 O58 2.414122 1_555
Na17 O38 2.454189 1_555
Na17 O21 2.571454 1_555
Na17 O0 2.643892 1_555
Na17 O29 2.784945 1_545
Na17 O31 2.785299 1_545
Ga0 O1 1.894715 1_555
Ga0 O0 1.973173 1_665
Ga0 O2 1.992718 1_565
Ga0 O36 2.012713 1_655
Ga0 O37 2.018823 1_555
Ga0 O38 2.091732 1_665
Ga1 O3 1.894715 1_555
Ga1 O4 1.973171 1_445
Ga1 O5 1.992720 1_455
Ga1 O40 2.012710 1_545
Ga1 O39 2.018821 1_555
Ga1 O41 2.091735 1_445
Ga2 O7 1.904182 1_555
Ga2 O8 1.963002 1_545
Ga2 O6 1.995424 1_445
Ga2 O43 2.008602 1_555
Ga2 O42 2.026400 1_455
Ga2 O44 2.089577 1_445
Ga3 O9 1.904183 1_555
Ga3 O11 1.963004 1_655
Ga3 O10 1.995421 1_665
Ga3 O45 2.008602 1_555
Ga3 O46 2.026401 1_565
Ga3 O47 2.089580 1_665
Ga4 O13 1.906880 1_555
Ga4 O14 1.958602 1_555
Ga4 O12 1.997751 1_555
Ga4 O49 1.999088 1_555
Ga4 O48 2.027197 1_555
Ga4 O50 2.097854 1_555
Ga5 O15 1.906881 1_555
Ga5 O17 1.958603 1_555
Ga5 O16 1.997752 1_555
Ga5 O51 1.999089 1_555
Ga5 O52 2.027198 1_555
Ga5 O53 2.097851 1_555
Ga6 O18 1.907342 1_556
Ga6 O19 1.960131 1_556
Ga6 O20 1.994641 1_556
Ga6 O54 2.008103 1_555
Ga6 O56 2.019771 1_555
Ga6 O55 2.098108 1_555
Ga7 O22 1.907341 1_555
Ga7 O21 1.960130 1_555
Ga7 O23 1.994641 1_555
Ga7 O58 2.008100 1_555
Ga7 O59 2.019771 1_555
Ga7 O57 2.098107 1_555
Ga8 O24 1.909219 1_554
Ga8 O25 1.963147 1_554
Ga8 O26 1.988660 1_554
Ga8 O60 2.010573 1_555
Ga8 O62 2.025709 1_555
Ga8 O61 2.087250 1_555
Ga9 O28 1.909218 1_555
Ga9 O27 1.963147 1_555
Ga9 O29 1.988662 1_555
Ga9 O64 2.010572 1_555
Ga9 O65 2.025708 1_555
Ga9 O63 2.087247 1_555
Ga10 O30 1.925834 1_555
Ga10 O32 1.959831 1_555
Ga10 O31 1.969102 1_555
Ga10 O66 2.022615 1_555
Ga10 O68 2.022755 1_555
Ga10 O67 2.076162 1_555
Ga11 O34 1.925833 1_555
Ga11 O35 1.959830 1_555
Ga11 O33 1.969099 1_555
Ga11 O70 2.022614 1_555
Ga11 O71 2.022756 1_555
Ga11 O69 2.076163 1_555
O0 P0 1.553065 1_545
O1 P1 1.531243 1_555
O2 P2 1.555235 1_655
O3 P3 1.531242 1_555
O4 P4 1.553067 1_655
O5 P5 1.555234 1_555
O6 P5 1.556139 1_565
O7 P3 1.544150 1_555
O8 P4 1.541372 1_555
O9 P1 1.544146 1_555
O10 P2 1.556139 1_555
O11 P0 1.541370 1_555
O12 P6 1.557340 1_555
O13 P7 1.543508 1_555
O14 P8 1.542752 1_555
O15 P9 1.543507 1_555
O16 P10 1.557338 1_555
O17 P11 1.542750 1_555
O18 P11 1.542790 1_555
O19 P9 1.543312 1_555
O20 P10 1.556553 1_555
O21 P7 1.543312 1_555
O22 P8 1.542790 1_555
O23 P6 1.556554 1_555
O24 P12 1.542859 1_555
O25 P13 1.541484 1_555
O26 P14 1.558571 1_555
O27 P15 1.541484 1_555
O28 P16 1.542861 1_555
O29 P17 1.558568 1_555
O30 P17 1.545494 1_555
O31 P15 1.553198 1_555
O32 P16 1.543824 1_555
O33 P13 1.553202 1_555
O34 P14 1.545494 1_555
O35 P12 1.543827 1_555
O36 P17 1.546588 1_555
O37 P15 1.545558 1_555
O38 P16 1.569610 1_555
O39 P13 1.545560 1_555
O40 P14 1.546590 1_555
O41 P12 1.569610 1_555
O42 P6 1.546458 1_555
O43 P7 1.545962 1_555
O44 P8 1.569407 1_555
O45 P9 1.545963 1_555
O46 P10 1.546459 1_555
O47 P11 1.569405 1_555
O48 P5 1.547410 1_555
O49 P3 1.547921 1_555
O50 P4 1.567233 1_655
O51 P1 1.547920 1_555
O52 P2 1.547411 1_655
O53 P0 1.567237 1_545
O54 P12 1.545356 1_555
O55 P13 1.566740 1_655
O56 P14 1.548876 1_545
O57 P15 1.566739 1_545
O58 P16 1.545360 1_555
O59 P17 1.548879 1_655
O60 P11 1.545815 1_555
O61 P9 1.568290 1_455
O62 P10 1.546802 1_565
O63 P7 1.568291 1_565
O64 P8 1.545816 1_555
O65 P6 1.546803 1_455
O66 P0 1.546370 1_555
O67 P1 1.570125 1_555
O68 P2 1.546989 1_555
O69 P3 1.570124 1_555
O70 P4 1.546371 1_555
O71 P5 1.546987 1_565
