# generated using pymatgen
data_Na6Ta4Zn4Si5S7O48
_symmetry_space_group_name_H-M   'P 1'
_cell_length_a   17.76927082
_cell_length_b   8.93759325
_cell_length_c   22.82059580
_cell_angle_alpha   90.14247197
_cell_angle_beta   89.66791342
_cell_angle_gamma   120.33688308
_symmetry_Int_Tables_number   1
_chemical_formula_structural   Na6Ta4Zn4Si5S7O48
_chemical_formula_sum   'Na18 Ta12 Zn12 Si15 S21 O144'
_cell_volume   3127.92361149
_cell_formula_units_Z   3
loop_
 _symmetry_equiv_pos_site_id
 _symmetry_equiv_pos_as_xyz
  1  'x, y, z'
loop_
 _atom_site_type_symbol
 _atom_site_label
 _atom_site_symmetry_multiplicity
 _atom_site_fract_x
 _atom_site_fract_y
 _atom_site_fract_z
 _atom_site_occupancy
  Na  Na0  1  0.00035489  0.61745222  0.24933290  1
  Na  Na1  1  0.50061546  0.62213727  0.25005492  1
  Na  Na2  1  0.00093242  0.37500737  0.74990265  1
  Na  Na3  1  0.50095071  0.38268718  0.74932193  1
  Na  Na4  1  0.32921459  0.96538826  0.57946109  1
  Na  Na5  1  0.82879024  0.69336301  0.08228265  1
  Na  Na6  1  0.99296528  0.98491019  0.49579613  1
  Na  Na7  1  0.50277669  0.99953412  0.49801198  1
  Na  Na8  1  0.00359639  0.00467314  0.00264814  1
  Na  Na9  1  0.49215262  0.99803909  0.00019654  1
  Na  Na10  1  0.32748797  0.34497159  0.82707672  1
  Na  Na11  1  0.81986839  0.31981085  0.82509548  1
  Na  Na12  1  0.32739489  0.32211606  0.31927263  1
  Na  Na13  1  0.82563228  0.30910026  0.32450569  1
  Na  Na14  1  0.17307166  0.67880003  0.17001492  1
  Na  Na15  1  0.66653101  0.68007428  0.17183611  1
  Na  Na16  1  0.17426161  0.65448428  0.66491196  1
  Na  Na17  1  0.66963435  0.66293342  0.66834883  1
  Ta  Ta0  1  0.00194089  0.99646368  0.35713123  1
  Ta  Ta1  1  0.50094100  0.00175696  0.34636773  1
  Ta  Ta2  1  0.00207079  0.01093217  0.84986778  1
  Ta  Ta3  1  0.50269589  0.00729352  0.85766657  1
  Ta  Ta4  1  0.99648079  0.00567705  0.64811913  1
  Ta  Ta5  1  0.50294826  0.00779067  0.64211072  1
  Ta  Ta6  1  0.00357760  0.99896565  0.14246434  1
  Ta  Ta7  1  0.49724210  0.00032098  0.15215303  1
  Ta  Ta8  1  0.33762107  0.33856293  0.97786295  1
  Ta  Ta9  1  0.83611073  0.33224524  0.98649366  1
  Ta  Ta10  1  0.33793511  0.34243912  0.48465000  1
  Ta  Ta11  1  0.83541219  0.33272339  0.47534205  1
  Zn  Zn0  1  0.33259277  0.35501921  0.68166810  1
  Zn  Zn1  1  0.82061855  0.31377212  0.69208215  1
  Zn  Zn2  1  0.33006999  0.32491242  0.19643030  1
  Zn  Zn3  1  0.83165083  0.30997783  0.18257873  1
  Zn  Zn4  1  0.17220529  0.67604118  0.02006976  1
  Zn  Zn5  1  0.66218751  0.66819592  0.01551660  1
  Zn  Zn6  1  0.16523408  0.66054026  0.51280222  1
  Zn  Zn7  1  0.66936007  0.66606333  0.51693483  1
  Zn  Zn8  1  0.16669620  0.68483527  0.31026721  1
  Zn  Zn9  1  0.67080870  0.68973341  0.30877937  1
  Zn  Zn10  1  0.17944209  0.65337609  0.81393353  1
  Zn  Zn11  1  0.66569328  0.64915038  0.81048467  1
  Si  Si0  1  0.14586071  0.00002639  0.24974118  1
  Si  Si1  1  0.65411091  0.01232558  0.24768117  1
  Si  Si2  1  0.34572765  0.70005371  0.25098606  1
  Si  Si3  1  0.50612041  0.30448875  0.25057934  1
  Si  Si4  1  0.15453447  0.30209049  0.74829778  1
  Si  Si5  1  0.64732093  0.29285668  0.74991574  1
  Si  Si6  1  0.84648589  0.99488839  0.75100519  1
  Si  Si7  1  0.48556668  0.35249049  0.58875136  1
  Si  Si8  1  0.32566534  0.62498560  0.58523597  1
  Si  Si9  1  0.98571291  0.61984943  0.08907671  1
  Si  Si10  1  0.82644143  0.02543451  0.08523514  1
  Si  Si11  1  0.30825334  0.66703656  0.91867026  1
  Si  Si12  1  0.52912291  0.39082974  0.91535326  1
  Si  Si13  1  0.80569525  0.93995990  0.41729363  1
  Si  Si14  1  0.02989122  0.66939316  0.41578725  1
  S  S0  1  0.85797665  0.71690433  0.24930157  1
  S  S1  1  -0.00005768  0.28065472  0.25024199  1
  S  S2  1  0.00295675  0.71973689  0.74967198  1
  S  S3  1  0.49997850  0.71888079  0.74995949  1
  S  S4  1  0.35617706  0.99727316  0.74980516  1
  S  S5  1  0.97642395  0.33190418  0.58568904  1
  S  S6  1  0.18528671  0.04245183  0.58428690  1
  S  S7  1  0.69040942  0.04405264  0.58405544  1
  S  S8  1  0.83581120  0.62004706  0.58643923  1
  S  S9  1  0.47735038  0.62588418  0.08461885  1
  S  S10  1  0.33553345  0.04872153  0.08491822  1
  S  S11  1  0.19191704  0.33610123  0.08491566  1
  S  S12  1  0.68472804  0.32719094  0.08352332  1
  S  S13  1  0.81775024  0.66462719  0.91690183  1
  S  S14  1  0.01647555  0.37003904  0.91557732  1
  S  S15  1  0.16483980  0.95859611  0.91606090  1
  S  S16  1  0.66997332  0.96595828  0.91594159  1
  S  S17  1  0.31769838  0.96914457  0.41874130  1
  S  S18  1  0.16954388  0.37305247  0.41681921  1
  S  S19  1  0.66390546  0.36773692  0.41800828  1
  S  S20  1  0.51748886  0.66856562  0.41730216  1
  O  O0  1  0.08965485  0.01485642  0.30602495  1
  O  O1  1  0.59721890  0.02228944  0.30635341  1
  O  O2  1  0.41383666  0.81092342  0.30713839  1
  O  O3  1  0.91269611  0.81374987  0.30137704  1
  O  O4  1  0.49139117  0.17155599  0.30691162  1
  O  O5  1  0.99126650  0.17543668  0.30336696  1
  O  O6  1  0.09591950  0.17466655  0.80624506  1
  O  O7  1  0.59159656  0.16387099  0.80573895  1
  O  O8  1  0.49142220  0.80692809  0.80319966  1
  O  O9  1  0.99222853  0.80799125  0.80303263  1
  O  O10  1  0.41058476  0.00855454  0.80155895  1
  O  O11  1  0.91559715  0.01432805  0.80558285  1
  O  O12  1  0.39819133  0.97551494  0.69448206  1
  O  O13  1  0.90239949  0.97339435  0.69284525  1
  O  O14  1  0.08366597  0.18247834  0.69314812  1
  O  O15  1  0.58368816  0.17740022  0.69299737  1
  O  O16  1  0.01149133  0.82717969  0.69636021  1
  O  O17  1  0.50210201  0.81991030  0.69634411  1
  O  O18  1  0.40071489  0.83362407  0.19296695  1
  O  O19  1  0.90076941  0.82194962  0.19390586  1
  O  O20  1  0.00208840  0.18391499  0.19632351  1
  O  O21  1  0.51410608  0.19580952  0.19235099  1
  O  O22  1  0.08152577  0.98488164  0.19294054  1
  O  O23  1  0.58465508  0.98497188  0.19173256  1
  O  O24  1  0.43702623  0.35301973  0.64808501  1
  O  O25  1  0.93642783  0.34863342  0.63940403  1
  O  O26  1  0.23853906  0.12221437  0.63642294  1
  O  O27  1  0.74118700  0.12427264  0.63661010  1
  O  O28  1  0.30618716  0.50999034  0.64188991  1
  O  O29  1  0.82984838  0.52118128  0.63850776  1
  O  O30  1  0.43638400  0.52695454  0.13725710  1
  O  O31  1  0.93623315  0.51983744  0.14755963  1
  O  O32  1  0.32893650  0.13578749  0.13680037  1
  O  O33  1  0.80828634  0.10715011  0.14058504  1
  O  O34  1  0.24267839  0.35422550  0.13653705  1
  O  O35  1  0.73850398  0.35491755  0.13523313  1
  O  O36  1  0.23006295  0.30143560  0.03086365  1
  O  O37  1  0.73094598  0.30465219  0.02887185  1
  O  O38  1  0.42042096  0.53123100  0.03107706  1
  O  O39  1  0.91507066  0.52460182  0.03027434  1
  O  O40  1  0.34462814  0.15525631  0.03040796  1
  O  O41  1  0.84376281  0.16174145  0.02674491  1
  O  O42  1  0.22761158  0.15435595  0.53026119  1
  O  O43  1  0.73046705  0.15845836  0.53163003  1
  O  O44  1  0.34296011  0.52456458  0.52751646  1
  O  O45  1  0.84731064  0.53754030  0.53208710  1
  O  O46  1  0.41475521  0.30541210  0.53084563  1
  O  O47  1  0.92027656  0.30430407  0.53314677  1
  O  O48  1  0.27225398  0.70965126  0.97641326  1
  O  O49  1  0.78702628  0.69922376  0.97164756  1
  O  O50  1  0.06823297  0.44287947  0.96757991  1
  O  O51  1  0.58462433  0.46278085  0.97353625  1
  O  O52  1  0.14645741  0.85609837  0.96909891  1
  O  O53  1  0.65413256  0.86677874  0.97008839  1
  O  O54  1  0.28374179  0.87350416  0.47375838  1
  O  O55  1  0.77338038  0.83690746  0.47784269  1
  O  O56  1  0.15310916  0.44010463  0.47106096  1
  O  O57  1  0.64849130  0.43772144  0.47128966  1
  O  O58  1  0.08303560  0.70472777  0.47500852  1
  O  O59  1  0.56808156  0.69227639  0.46984776  1
  O  O60  1  0.05759462  0.62010348  0.35514211  1
  O  O61  1  0.54909625  0.63543612  0.36288013  1
  O  O62  1  0.26493407  0.89015120  0.36690518  1
  O  O63  1  0.75005853  0.87541314  0.35886029  1
  O  O64  1  0.18666269  0.47579657  0.36487413  1
  O  O65  1  0.68206056  0.46756323  0.36490761  1
  O  O66  1  0.04960269  0.46517993  0.86046792  1
  O  O67  1  0.55614033  0.49310567  0.85413491  1
  O  O68  1  0.18003870  0.88850110  0.86263936  1
  O  O69  1  0.68653771  0.89688959  0.86375123  1
  O  O70  1  0.25526511  0.61362184  0.85853524  1
  O  O71  1  0.76488869  0.63948902  0.86513590  1
  O  O72  1  0.00910267  0.83343287  0.40713785  1
  O  O73  1  0.50300249  0.82107636  0.41259109  1
  O  O74  1  0.40877488  0.99611307  0.41198404  1
  O  O75  1  0.90897031  0.98866816  0.40534247  1
  O  O76  1  0.08864877  0.19220770  0.40998517  1
  O  O77  1  0.58755563  0.18392395  0.41210934  1
  O  O78  1  0.00331837  0.18543811  0.90903833  1
  O  O79  1  0.50908247  0.18493464  0.90620749  1
  O  O80  1  0.08679660  0.98659694  0.90796414  1
  O  O81  1  0.58920722  0.98503817  0.90929917  1
  O  O82  1  0.41042491  0.82934097  0.90567880  1
  O  O83  1  0.91035854  0.82023440  0.90742852  1
  O  O84  1  0.48604896  0.16005677  0.59102727  1
  O  O85  1  0.98163723  0.16264348  0.58866637  1
  O  O86  1  0.09672288  0.02863192  0.58853662  1
  O  O87  1  0.60051977  0.03097548  0.58867935  1
  O  O88  1  0.41954464  0.81722958  0.59036895  1
  O  O89  1  0.92079668  0.80052380  0.58981558  1
  O  O90  1  0.48194235  0.80013185  0.08463081  1
  O  O91  1  0.98614359  0.81203663  0.09014927  1
  O  O92  1  0.41899842  0.03844345  0.08547415  1
  O  O93  1  0.91983878  0.02086651  0.08939314  1
  O  O94  1  0.10067337  0.16923281  0.08872037  1
  O  O95  1  0.59838495  0.16283481  0.08471684  1
  O  O96  1  0.35534140  0.15898162  0.74829144  1
  O  O97  1  0.85996431  0.18641162  0.74712513  1
  O  O98  1  0.24289177  0.29904968  0.74805756  1
  O  O99  1  0.74065223  0.30874856  0.75003024  1
  O  O100  1  0.42255002  0.54345717  0.74946603  1
  O  O101  1  0.92486603  0.54893363  0.74612012  1
  O  O102  1  0.35697987  0.53494211  0.24633071  1
  O  O103  1  0.85741449  0.55367952  0.24799549  1
  O  O104  1  0.42013265  0.31685142  0.24723287  1
  O  O105  1  0.92268128  0.30065404  0.24966081  1
  O  O106  1  0.23563811  0.17519328  0.24928467  1
  O  O107  1  0.74316438  0.19314388  0.24740880  1
  O  O108  1  0.32361562  0.49616649  0.93254998  1
  O  O109  1  0.82808598  0.50644484  0.92304685  1
  O  O110  1  0.42527868  0.34676073  0.93030251  1
  O  O111  1  0.92501942  0.34256264  0.92338408  1
  O  O112  1  0.24283684  0.14099448  0.92518750  1
  O  O113  1  0.74545716  0.15143346  0.92444115  1
  O  O114  1  0.32708203  0.14803156  0.42579703  1
  O  O115  1  0.82233005  0.14656932  0.43158938  1
  O  O116  1  0.24457254  0.33852193  0.42619285  1
  O  O117  1  0.74411935  0.34385640  0.42823924  1
  O  O118  1  0.42500988  0.50544284  0.42609954  1
  O  O119  1  0.92574121  0.50266383  0.43103427  1
  O  O120  1  0.17635311  0.47949356  0.07733886  1
  O  O121  1  0.67652572  0.47891848  0.07455742  1
  O  O122  1  0.07936497  0.64826726  0.07401634  1
  O  O123  1  0.56443304  0.65003995  0.07639758  1
  O  O124  1  0.26028443  0.87489454  0.07942619  1
  O  O125  1  0.75095779  0.82882722  0.07153778  1
  O  O126  1  0.17502823  0.87164093  0.57648954  1
  O  O127  1  0.67573319  0.87060199  0.57677886  1
  O  O128  1  0.25038206  0.67190579  0.57248438  1
  O  O129  1  0.76232649  0.64855736  0.58134834  1
  O  O130  1  0.06480677  0.47684991  0.57826210  1
  O  O131  1  0.58033000  0.51069672  0.57497827  1
  O  O132  1  0.14030454  0.81571169  0.24835332  1
  O  O133  1  0.64665016  0.82642240  0.24804214  1
  O  O134  1  0.25465498  0.69101908  0.25561652  1
  O  O135  1  0.77263314  0.70131138  0.25175278  1
  O  O136  1  0.08079846  0.44765893  0.25025813  1
  O  O137  1  0.59456123  0.48690413  0.25614165  1
  O  O138  1  0.14376534  0.47182248  0.74932899  1
  O  O139  1  0.64208643  0.46641193  0.74835782  1
  O  O140  1  0.08280859  0.71096547  0.75448506  1
  O  O141  1  0.58068708  0.71365736  0.74992519  1
  O  O142  1  0.26876708  0.84238975  0.75232441  1
  O  O143  1  0.75529038  0.82326163  0.75546024  1
loop_
_geom_bond_atom_site_label_1
_geom_bond_atom_site_label_2
_geom_bond_distance
_geom_bond_site_symmetry_2
Na0 O132 2.207436 1_555
Na0 O103 2.305541 1_455
Na0 O105 2.444227 1_455
Na0 O31 2.543608 1_455
Na0 O136 2.557032 1_555
Na0 O60 2.620943 1_555
Na1 O102 2.263119 1_555
Na1 O133 2.298343 1_555
Na1 O104 2.356401 1_555
Na1 O137 2.511689 1_555
Na1 O61 2.703015 1_555
Na1 O30 2.773946 1_555
Na2 O97 2.203612 1_455
Na2 O138 2.229738 1_555
Na2 O101 2.524935 1_455
Na2 O140 2.594387 1_555
Na2 O66 2.659873 1_555
Na2 O25 2.735991 1_455
Na3 O139 2.225671 1_555
Na3 O96 2.338229 1_555
Na3 O100 2.455102 1_555
Na3 O24 2.533990 1_555
Na3 O141 2.554238 1_555
Na3 O67 2.587396 1_555
Na4 O128 2.270832 1_555
Na4 O126 2.428160 1_555
Na4 O84 2.443659 1_565
Na4 O54 2.547241 1_555
Na4 O88 2.558337 1_555
Na4 O46 2.847405 1_565
Na4 O12 2.885190 1_555
Na4 O26 2.915212 1_565
Na5 O125 2.266193 1_555
Na5 O121 2.406326 1_555
Na5 O91 2.446264 1_555
Na5 O93 2.535466 1_565
Na5 O49 2.643772 1_554
Na5 O19 2.825562 1_555
Na5 O35 2.877048 1_555
Na5 O39 2.887934 1_555
Na6 O72 2.525947 1_655
Na6 O75 2.564453 1_555
Na6 O89 2.610498 1_555
Na6 O76 2.637334 1_665
Na6 O86 2.710051 1_665
Na6 O85 2.712352 1_565
Na7 O77 2.510427 1_565
Na7 O73 2.516920 1_555
Na7 O74 2.575130 1_555
Na7 O88 2.613618 1_555
Na7 O87 2.631039 1_565
Na7 O84 2.657198 1_565
Na8 O93 2.517289 1_455
Na8 O94 2.541448 1_555
Na8 O91 2.553100 1_445
Na8 O80 2.661413 1_544
Na8 O78 2.683102 1_554
Na8 O83 2.729303 1_444
Na9 O92 2.459422 1_565
Na9 O90 2.561846 1_555
Na9 O95 2.583110 1_565
Na9 O82 2.615917 1_554
Na9 O79 2.642723 1_564
Na9 O81 2.729529 1_554
Na10 O98 2.254854 1_555
Na10 O100 2.468021 1_555
Na10 O96 2.654557 1_555
Na10 O108 2.774905 1_555
Na10 O112 2.794669 1_555
Na10 O110 2.930554 1_555
Na11 O99 2.193663 1_555
Na11 O97 2.434747 1_555
Na11 O101 2.653771 1_555
Na11 O113 2.669276 1_555
Na11 O109 2.745822 1_555
Na11 O111 2.868110 1_555
Na12 O106 2.188750 1_555
Na12 O104 2.338156 1_555
Na12 O102 2.379251 1_555
Na12 O116 2.883657 1_555
Na12 O114 2.887954 1_555
Na12 O118 2.965581 1_555
Na13 O107 2.191714 1_555
Na13 O105 2.448175 1_555
Na13 O103 2.627994 1_555
Na13 O115 2.831116 1_555
Na13 O117 2.865216 1_555
Na13 O119 2.997952 1_555
Na14 O132 2.393555 1_555
Na14 O134 2.408611 1_555
Na14 O136 2.621400 1_555
Na14 O124 2.642756 1_555
Na14 O122 2.688251 1_555
Na14 O120 2.781035 1_555
Na15 O133 2.303987 1_555
Na15 O137 2.464797 1_555
Na15 O135 2.567740 1_555
Na15 O125 2.686562 1_555
Na15 O123 2.767287 1_555
Na15 O121 2.913784 1_555
Na16 O138 2.404155 1_555
Na16 O128 2.461410 1_555
Na16 O142 2.606336 1_555
Na16 O130 2.668929 1_555
Na16 O126 2.798445 1_555
Na16 O140 2.803401 1_555
Na17 O139 2.407377 1_555
Na17 O143 2.477815 1_555
Na17 O131 2.598720 1_555
Na17 O129 2.616445 1_555
Na17 O141 2.618156 1_555
Na17 O127 2.763500 1_555
O0 Si0 1.668175 1_555
O0 Ta0 1.880840 1_545
O1 Si1 1.702150 1_555
O1 Ta1 1.860081 1_555
O2 Si2 1.699672 1_555
O2 Ta1 1.856843 1_565
O3 S0 1.504995 1_555
O3 Ta0 2.048776 1_655
O4 Si3 1.679958 1_555
O4 Ta1 1.846982 1_555
O5 S1 1.494973 1_655
O5 Ta0 2.102134 1_645
O6 Si4 1.709922 1_555
O6 Ta2 1.853726 1_555
O7 Si5 1.664902 1_555
O7 Ta3 1.900399 1_555
O8 S3 1.494155 1_555
O8 Ta3 2.102722 1_565
O9 S2 1.511884 1_655
O9 Ta2 2.033445 1_665
O10 S4 1.501299 1_545
O10 Ta3 2.088425 1_555
O11 Si6 1.700201 1_545
O11 Ta2 1.857033 1_655
O12 S4 1.524338 1_555
O12 Ta5 2.100023 1_565
O13 Si6 1.721006 1_555
O13 Ta4 1.847763 1_565
O14 Si4 1.721730 1_555
O14 Ta4 1.868268 1_455
O15 Si5 1.691807 1_555
O15 Ta5 1.875746 1_555
O16 S2 1.510572 1_555
O16 Ta4 2.066442 1_465
O17 S3 1.511404 1_555
O17 Ta5 2.082377 1_565
O18 Si2 1.716819 1_555
O18 Ta7 1.853682 1_565
O19 S0 1.526878 1_555
O19 Ta6 2.069591 1_655
O20 S1 1.513442 1_555
O20 Ta6 2.068213 1_545
O21 Si3 1.691145 1_555
O21 Ta7 1.857508 1_555
O22 Si0 1.692745 1_565
O22 Ta6 1.859167 1_555
O23 Si1 1.710279 1_565
O23 Ta7 1.865315 1_565
O24 Si7 1.602474 1_555
O24 Zn0 2.012029 1_555
O25 S5 1.458215 1_555
O25 Zn1 2.258862 1_555
O26 S6 1.465119 1_555
O26 Zn0 2.164519 1_555
O27 S7 1.456479 1_555
O27 Zn1 2.014554 1_555
O28 Si8 1.577889 1_555
O28 Zn0 1.905331 1_555
O29 S8 1.453652 1_555
O29 Zn1 2.158663 1_555
O30 S9 1.449009 1_555
O30 Zn2 2.278077 1_555
O31 Si9 1.597391 1_555
O31 Zn3 2.019740 1_555
O32 S10 1.451565 1_555
O32 Zn2 2.159590 1_555
O33 Si10 1.568958 1_555
O33 Zn3 1.900701 1_555
O34 S11 1.446153 1_555
O34 Zn2 2.187599 1_555
O35 S12 1.462679 1_555
O35 Zn3 2.182356 1_555
O36 S11 1.509142 1_555
O36 Ta8 2.135502 1_554
O37 S12 1.557080 1_555
O37 Ta9 2.000709 1_554
O38 S9 1.541632 1_555
O38 Ta8 2.013869 1_554
O39 Si9 1.742261 1_555
O39 Ta9 1.869086 1_554
O40 S10 1.525871 1_555
O40 Ta8 2.086868 1_554
O41 Si10 1.727736 1_555
O41 Ta9 1.844508 1_554
O42 S6 1.523651 1_555
O42 Ta10 2.099621 1_555
O43 S7 1.498165 1_555
O43 Ta11 2.145117 1_555
O44 Si8 1.703832 1_555
O44 Ta10 1.860325 1_555
O45 S8 1.506227 1_555
O45 Ta11 2.161716 1_555
O46 Si7 1.728637 1_555
O46 Ta10 1.886518 1_555
O47 S5 1.502580 1_555
O47 Ta11 2.119029 1_555
O48 Si11 1.588873 1_555
O48 Zn4 1.919589 1_556
O49 S13 1.454369 1_555
O49 Zn5 2.313912 1_556
O50 S14 1.442904 1_555
O50 Zn4 2.305398 1_556
O51 Si12 1.587268 1_555
O51 Zn5 1.907467 1_556
O52 S15 1.452422 1_555
O52 Zn4 2.216155 1_556
O53 S16 1.463288 1_555
O53 Zn5 2.124340 1_556
O54 S17 1.465137 1_555
O54 Zn6 2.188363 1_555
O55 Si13 1.596933 1_555
O55 Zn7 1.918455 1_555
O56 S18 1.464772 1_555
O56 Zn6 2.097521 1_555
O57 S19 1.452627 1_555
O57 Zn7 2.148708 1_555
O58 Si14 1.590401 1_555
O58 Zn6 1.905834 1_555
O59 S20 1.452507 1_555
O59 Zn7 2.213111 1_555
O60 Si14 1.599960 1_555
O60 Zn8 1.997186 1_555
O61 S20 1.450384 1_555
O61 Zn9 2.312796 1_555
O62 S17 1.454946 1_555
O62 Zn8 2.205364 1_555
O63 Si13 1.588612 1_555
O63 Zn9 1.921396 1_555
O64 S18 1.435289 1_555
O64 Zn8 2.419845 1_555
O65 S19 1.441745 1_555
O65 Zn9 2.457674 1_555
O66 S14 1.463660 1_555
O66 Zn10 2.310891 1_555
O67 Si12 1.604073 1_555
O67 Zn11 1.992177 1_555
O68 S15 1.454287 1_555
O68 Zn10 2.370158 1_555
O69 S16 1.435982 1_555
O69 Zn11 2.383451 1_555
O70 Si11 1.598547 1_555
O70 Zn10 1.865149 1_555
O71 S13 1.458314 1_555
O71 Zn11 2.202165 1_555
O72 Si14 1.695375 1_555
O72 Ta0 1.907592 1_555
O73 S20 1.513702 1_555
O73 Ta1 2.228343 1_565
O74 S17 1.517966 1_555
O74 Ta1 2.194402 1_565
O75 Si13 1.679091 1_555
O75 Ta0 1.951288 1_655
O76 S18 1.535386 1_555
O76 Ta0 2.043899 1_545
O77 S19 1.518943 1_555
O77 Ta1 2.180296 1_555
O78 S14 1.551961 1_555
O78 Ta2 2.052149 1_555
O79 Si12 1.701092 1_555
O79 Ta3 1.889813 1_555
O80 S15 1.540677 1_555
O80 Ta2 2.104034 1_565
O81 S16 1.536750 1_555
O81 Ta3 2.030292 1_565
O82 Si11 1.680411 1_555
O82 Ta3 1.942149 1_565
O83 S13 1.540902 1_555
O83 Ta2 2.113454 1_665
O84 Si7 1.725151 1_555
O84 Ta5 1.930271 1_555
O85 S5 1.563285 1_555
O85 Ta4 2.065399 1_555
O86 S6 1.517621 1_555
O86 Ta4 2.160517 1_455
O87 S7 1.544539 1_555
O87 Ta5 2.037038 1_555
O88 Si8 1.689553 1_555
O88 Ta5 1.987933 1_565
O89 S8 1.558324 1_555
O89 Ta4 2.111532 1_565
O90 S9 1.517776 1_555
O90 Ta7 2.269211 1_565
O91 Si9 1.713953 1_555
O91 Ta6 1.945261 1_655
O92 S10 1.531688 1_555
O92 Ta7 2.206848 1_555
O93 Si10 1.683818 1_555
O93 Ta6 2.008851 1_645
O94 S11 1.554641 1_555
O94 Ta6 2.032061 1_545
O95 S12 1.495175 1_555
O95 Ta7 2.247252 1_555
O96 S4 1.453339 1_545
O96 Zn0 2.506124 1_555
O97 Si6 1.606762 1_545
O97 Zn1 2.045376 1_555
O98 Si4 1.583923 1_555
O98 Zn0 2.063134 1_555
O99 Si5 1.591435 1_555
O99 Zn1 1.919357 1_555
O100 S3 1.473873 1_555
O100 Zn0 2.254241 1_555
O101 S2 1.457163 1_655
O101 Zn1 2.334580 1_555
O102 Si2 1.589335 1_555
O102 Zn2 2.034232 1_555
O103 S0 1.454049 1_555
O103 Zn3 2.483305 1_555
O104 Si3 1.588892 1_555
O104 Zn2 2.012157 1_555
O105 S1 1.471400 1_655
O105 Zn3 2.265482 1_555
O106 Si0 1.572581 1_555
O106 Zn2 1.943565 1_555
O107 Si1 1.591358 1_555
O107 Zn3 2.018318 1_555
O108 Si11 1.712194 1_555
O108 Ta8 1.865401 1_555
O109 S13 1.521747 1_555
O109 Ta9 2.186004 1_555
O110 Si12 1.713363 1_555
O110 Ta8 1.864145 1_555
O111 S14 1.525367 1_655
O111 Ta9 2.098976 1_555
O112 S15 1.530067 1_545
O112 Ta8 2.099608 1_555
O113 S16 1.529710 1_545
O113 Ta9 2.144075 1_555
O114 S17 1.529602 1_545
O114 Ta10 2.124367 1_555
O115 Si13 1.746552 1_545
O115 Ta11 1.850089 1_555
O116 S18 1.528957 1_555
O116 Ta10 2.121281 1_555
O117 S19 1.563036 1_555
O117 Ta11 1.995168 1_555
O118 S20 1.563241 1_555
O118 Ta10 2.002603 1_555
O119 Si14 1.725081 1_655
O119 Ta11 1.852498 1_555
O120 S11 1.452078 1_555
O120 Zn4 2.223206 1_555
O121 S12 1.450324 1_555
O121 Zn5 2.278762 1_555
O122 Si9 1.587071 1_455
O122 Zn4 1.965462 1_555
O123 S9 1.461372 1_555
O123 Zn5 2.159229 1_555
O124 S10 1.455942 1_565
O124 Zn4 2.155400 1_555
O125 Si10 1.614237 1_565
O125 Zn5 1.977446 1_555
O126 S6 1.453763 1_565
O126 Zn6 2.315160 1_555
O127 S7 1.445557 1_565
O127 Zn7 2.236076 1_555
O128 Si8 1.619216 1_555
O128 Zn6 2.005612 1_555
O129 S8 1.456529 1_555
O129 Zn7 2.281350 1_555
O130 S5 1.454723 1_455
O130 Zn6 2.265649 1_555
O131 Si7 1.588859 1_555
O131 Zn7 1.987768 1_555
O132 Si0 1.599978 1_565
O132 Zn8 2.038264 1_555
O133 Si1 1.598705 1_565
O133 Zn9 2.035439 1_555
O134 Si2 1.581968 1_555
O134 Zn8 1.972766 1_555
O135 S0 1.451848 1_555
O135 Zn9 2.182264 1_555
O136 S1 1.458027 1_555
O136 Zn8 2.332373 1_555
O137 Si3 1.599049 1_555
O137 Zn9 2.022825 1_555
O138 Si4 1.622178 1_555
O138 Zn10 2.041640 1_555
O139 Si5 1.600653 1_555
O139 Zn11 2.038829 1_555
O140 S2 1.464831 1_555
O140 Zn10 2.444822 1_555
O141 S3 1.458265 1_555
O141 Zn11 2.330624 1_555
O142 S4 1.469500 1_555
O142 Zn10 2.151090 1_555
O143 Si6 1.573887 1_555
O143 Zn11 2.004218 1_555
