# generated using pymatgen
data_CaTbF6
_symmetry_space_group_name_H-M   'P 1'
_cell_length_a   5.47283900
_cell_length_b   5.47283900
_cell_length_c   7.96146600
_cell_angle_alpha   90.00000000
_cell_angle_beta   90.00000000
_cell_angle_gamma   90.00000000
_symmetry_Int_Tables_number   1
_chemical_formula_structural   CaTbF6
_chemical_formula_sum   'Ca2 Tb2 F12'
_cell_volume   238.46156467
_cell_formula_units_Z   2
loop_
 _symmetry_equiv_pos_site_id
 _symmetry_equiv_pos_as_xyz
  1  'x, y, z'
loop_
 _atom_site_type_symbol
 _atom_site_label
 _atom_site_symmetry_multiplicity
 _atom_site_fract_x
 _atom_site_fract_y
 _atom_site_fract_z
 _atom_site_occupancy
  Ca  Ca0  1  0.00000000  0.00000000  0.00000000  1
  Ca  Ca1  1  0.00000000  0.00000000  0.50000000  1
  Tb  Tb0  1  0.50000000  0.50000000  0.75000000  1
  Tb  Tb1  1  0.50000000  0.50000000  0.25000000  1
  F  F0  1  0.75311500  0.20107600  0.17708900  1
  F  F1  1  0.24688500  0.79892400  0.17708900  1
  F  F2  1  0.20107600  0.24688500  0.67708900  1
  F  F3  1  0.79892400  0.75311500  0.67708900  1
  F  F4  1  0.24688500  0.79892400  0.82291100  1
  F  F5  1  0.75311500  0.20107600  0.82291100  1
  F  F6  1  0.79892400  0.75311500  0.32291100  1
  F  F7  1  0.20107600  0.24688500  0.32291100  1
  F  F8  1  0.31409800  0.33651600  0.00000000  1
  F  F9  1  0.68590200  0.66348400  0.00000000  1
  F  F10  1  0.33651600  0.68590200  0.50000000  1
  F  F11  1  0.66348400  0.31409800  0.50000000  1
loop_
_geom_bond_atom_site_label_1
_geom_bond_atom_site_label_2
_geom_bond_distance
_geom_bond_site_symmetry_2
Ca0 F1 2.241523 1_545
Ca0 F0 2.241523 1_455
Ca0 F4 2.241523 1_544
Ca0 F5 2.241523 1_454
Ca0 F8 2.519293 1_555
Ca0 F9 2.519293 1_445
Ca1 F7 2.241523 1_555
Ca1 F3 2.241523 1_445
Ca1 F6 2.241523 1_445
Ca1 F2 2.241523 1_555
Ca1 F10 2.519293 1_545
Ca1 F11 2.519293 1_455
F0 Tb1 2.220871 1_555
F1 Tb1 2.220871 1_555
F2 Tb0 2.220871 1_555
F3 Tb0 2.220871 1_555
F4 Tb0 2.220871 1_555
F5 Tb0 2.220871 1_555
F6 Tb1 2.220871 1_555
F7 Tb1 2.220871 1_555
F8 Tb0 2.407740 1_554
F8 Tb1 2.407740 1_555
F9 Tb0 2.407740 1_554
F9 Tb1 2.407740 1_555
F10 Tb0 2.407740 1_555
F10 Tb1 2.407740 1_555
F11 Tb0 2.407740 1_555
F11 Tb1 2.407740 1_555
