# generated using pymatgen
data_MgFe2P2(HO)18
_symmetry_space_group_name_H-M   'P 1'
_cell_length_a   5.39630700
_cell_length_b   7.27747535
_cell_length_c   10.33623625
_cell_angle_alpha   97.66260545
_cell_angle_beta   101.33520405
_cell_angle_gamma   111.05234603
_symmetry_Int_Tables_number   1
_chemical_formula_structural   MgFe2P2(HO)18
_chemical_formula_sum   'Mg1 Fe2 P2 H18 O18'
_cell_volume   362.09309197
_cell_formula_units_Z   1
loop_
 _symmetry_equiv_pos_site_id
 _symmetry_equiv_pos_as_xyz
  1  'x, y, z'
loop_
 _atom_site_type_symbol
 _atom_site_label
 _atom_site_symmetry_multiplicity
 _atom_site_fract_x
 _atom_site_fract_y
 _atom_site_fract_z
 _atom_site_occupancy
  Mg  Mg0  1  0.00000000  0.00000000  0.00000000  1
  Fe  Fe0  1  0.50000000  0.00000000  0.50000000  1
  Fe  Fe1  1  0.50000000  0.50000000  0.50000000  1
  P  P0  1  0.98073900  0.07289900  0.32679400  1
  P  P1  1  0.01926100  0.92710100  0.67320600  1
  H  H0  1  0.90408200  0.42577900  0.73351000  1
  H  H1  1  0.09591800  0.57422100  0.26649000  1
  H  H2  1  0.07744600  0.64860100  0.81730600  1
  H  H3  1  0.92255400  0.35139900  0.18269400  1
  H  H4  1  0.53799500  0.01275800  0.12106800  1
  H  H5  1  0.68597600  0.03867000  0.79617800  1
  H  H6  1  0.16517000  0.38613100  0.94540300  1
  H  H7  1  0.83483000  0.61386900  0.05459700  1
  H  H8  1  0.32246900  0.40169800  0.09480700  1
  H  H9  1  0.67753100  0.59830200  0.90519300  1
  H  H10  1  0.69210500  0.51260900  0.26826700  1
  H  H11  1  0.30789500  0.48739100  0.73173300  1
  H  H12  1  0.61002600  0.69618500  0.31595700  1
  H  H13  1  0.38997400  0.30381500  0.68404300  1
  H  H14  1  0.84361800  0.32449100  0.48230100  1
  H  H15  1  0.15638200  0.67550900  0.51769900  1
  H  H16  1  0.46200500  0.98724200  0.87893200  1
  H  H17  1  0.31402400  0.96133000  0.20382200  1
  O  O0  1  0.23357100  0.31021200  0.00546300  1
  O  O1  1  0.66178800  0.02965400  0.88827700  1
  O  O2  1  0.33821200  0.97034600  0.11172300  1
  O  O3  1  0.92654200  0.49081200  0.19540100  1
  O  O4  1  0.07345800  0.50918800  0.80459900  1
  O  O5  1  0.45488000  0.45536700  0.69780100  1
  O  O6  1  0.66800200  0.29833000  0.50766900  1
  O  O7  1  0.33199800  0.70167000  0.49233100  1
  O  O8  1  0.71225300  0.94799300  0.36414800  1
  O  O9  1  0.28774700  0.05200700  0.63585200  1
  O  O10  1  0.09504400  0.90516000  0.82124200  1
  O  O11  1  0.90495600  0.09484000  0.17875800  1
  O  O12  1  0.88360700  0.71396500  0.57604000  1
  O  O13  1  0.11639300  0.28603500  0.42396000  1
  O  O14  1  0.82096200  0.03841000  0.65883500  1
  O  O15  1  0.17903800  0.96159000  0.34116500  1
  O  O16  1  0.76642900  0.68978800  0.99453700  1
  O  O17  1  0.54512000  0.54463300  0.30219900  1
loop_
_geom_bond_atom_site_label_1
_geom_bond_atom_site_label_2
_geom_bond_distance
_geom_bond_site_symmetry_2
Mg0 O2 2.057190 1_545
Mg0 O1 2.057190 1_454
Mg0 O10 2.107159 1_544
Mg0 O11 2.107159 1_455
Mg0 O16 2.140595 1_444
Mg0 O0 2.140595 1_555
Fe0 O6 2.013349 1_555
Fe0 O7 2.013349 1_545
Fe0 O15 2.045814 1_545
Fe0 O14 2.045814 1_555
Fe0 O8 2.056423 1_545
Fe0 O9 2.056423 1_555
Fe1 O7 1.985166 1_555
Fe1 O6 1.985166 1_555
Fe1 O12 2.011419 1_555
Fe1 O13 2.011419 1_555
Fe1 O5 2.158890 1_555
Fe1 O17 2.158890 1_555
H0 O4 0.980936 1_655
H1 O3 0.980936 1_455
H2 O4 0.997367 1_555
H3 O3 0.997367 1_555
H4 O2 0.989406 1_545
H5 O1 0.993435 1_555
H5 O14 1.718333 1_555
H6 O0 0.987315 1_556
H7 O16 0.987315 1_554
H8 O0 0.979104 1_555
H9 O16 0.979104 1_555
H10 O17 1.013320 1_555
H10 O3 1.636991 1_555
H11 O5 1.013320 1_555
H11 O4 1.636991 1_555
H12 O17 1.010141 1_555
H12 O8 1.683111 1_555
H13 O5 1.010141 1_555
H13 O9 1.683111 1_555
H14 O6 0.992201 1_555
H15 O7 0.992201 1_555
H16 O1 0.989406 1_565
H17 O2 0.993435 1_555
H17 O15 1.718333 1_555
O8 P0 1.562620 1_565
O9 P1 1.562620 1_545
O10 P1 1.549238 1_555
O11 P0 1.549238 1_555
O12 P1 1.558924 1_655
O13 P0 1.558924 1_455
O14 P1 1.554247 1_645
O15 P0 1.554247 1_465
