# generated using pymatgen
data_SrCaB5H2ClO10
_symmetry_space_group_name_H-M   'P 1'
_cell_length_a   6.42453400
_cell_length_b   6.58036078
_cell_length_c   6.72956403
_cell_angle_alpha   74.47613917
_cell_angle_beta   61.56876704
_cell_angle_gamma   60.88488470
_symmetry_Int_Tables_number   1
_chemical_formula_structural   SrCaB5H2ClO10
_chemical_formula_sum   'Sr1 Ca1 B5 H2 Cl1 O10'
_cell_volume   218.33177081
_cell_formula_units_Z   1
loop_
 _symmetry_equiv_pos_site_id
 _symmetry_equiv_pos_as_xyz
  1  'x, y, z'
loop_
 _atom_site_type_symbol
 _atom_site_label
 _atom_site_symmetry_multiplicity
 _atom_site_fract_x
 _atom_site_fract_y
 _atom_site_fract_z
 _atom_site_occupancy
  Sr  Sr0  1  0.67552600  0.37656400  0.29274200  1
  Ca  Ca0  1  0.56460500  0.83171200  0.74470600  1
  B  B0  1  0.26737500  0.38984700  0.16810400  1
  B  B1  1  0.02922500  0.35488200  0.61967100  1
  B  B2  1  0.16733100  0.50249300  0.83193100  1
  B  B3  1  0.62888500  0.27659400  0.77904000  1
  B  B4  1  0.05044300  0.94751800  0.73897200  1
  H  H0  1  0.69780000  0.89888300  0.24707500  1
  H  H1  1  0.95673400  0.83355400  0.27234000  1
  Cl  Cl0  1  0.34280400  0.86451100  0.20374700  1
  O  O0  1  0.52649000  0.33582000  0.01672000  1
  O  O1  1  0.76602200  0.92670500  0.33584400  1
  O  O2  1  0.22030300  0.38680000  0.38969300  1
  O  O3  1  0.15085900  0.10541900  0.69808400  1
  O  O4  1  0.77854200  0.41048300  0.61681300  1
  O  O5  1  0.97020400  0.51594600  0.77462200  1
  O  O6  1  0.20886300  0.72149000  0.77321400  1
  O  O7  1  0.07772800  0.46275200  0.08923500  1
  O  O8  1  0.42292900  0.31354800  0.72079100  1
  O  O9  1  0.80231200  0.02014800  0.75675500  1
loop_
_geom_bond_atom_site_label_1
_geom_bond_atom_site_label_2
_geom_bond_distance
_geom_bond_site_symmetry_2
Ca0 O9 2.427100 1_565
Ca0 O1 2.472245 1_555
Ca0 O5 2.480881 1_555
Ca0 O3 2.498148 1_565
Ca0 O4 2.599255 1_555
Ca0 O6 2.628193 1_555
Ca0 Cl0 2.736053 1_556
Ca0 O8 2.822298 1_565
B0 O2 1.369677 1_555
B0 O7 1.380939 1_555
B0 O0 1.392313 1_555
B1 O5 1.475944 1_455
B1 O4 1.476592 1_455
B1 O2 1.487999 1_555
B1 O3 1.504816 1_555
B2 O5 1.448507 1_455
B2 O8 1.463976 1_555
B2 O6 1.507656 1_555
B2 O7 1.533945 1_556
B3 O8 1.446830 1_555
B3 O4 1.484082 1_555
B3 O0 1.491729 1_556
B3 O9 1.502751 1_555
B4 O6 1.366717 1_555
B4 O9 1.375328 1_465
B4 O3 1.379041 1_565
H0 O1 0.984084 1_555
H1 O1 0.985062 1_555
Cl0 Sr0 2.957736 1_555
O0 Sr0 2.578552 1_555
O1 Sr0 2.685384 1_565
O2 Sr0 2.645444 1_555
O4 Sr0 2.650029 1_555
O7 Sr0 2.552408 1_455
O8 Sr0 2.582144 1_555
