# generated using pymatgen
data_U2Ti3Si4
_symmetry_space_group_name_H-M   'P 1'
_cell_length_a   6.85224100
_cell_length_b   6.86643000
_cell_length_c   6.97095314
_cell_angle_alpha   69.34067199
_cell_angle_beta   90.00000000
_cell_angle_gamma   90.00000000
_symmetry_Int_Tables_number   1
_chemical_formula_structural   U2Ti3Si4
_chemical_formula_sum   'U4 Ti6 Si8'
_cell_volume   306.89510763
_cell_formula_units_Z   2
loop_
 _symmetry_equiv_pos_site_id
 _symmetry_equiv_pos_as_xyz
  1  'x, y, z'
loop_
 _atom_site_type_symbol
 _atom_site_label
 _atom_site_symmetry_multiplicity
 _atom_site_fract_x
 _atom_site_fract_y
 _atom_site_fract_z
 _atom_site_occupancy
  U  U0  1  0.63047000  0.15175600  0.44899100  1
  U  U1  1  0.13047000  0.84824400  0.05100900  1
  U  U2  1  0.36953000  0.84824400  0.55100900  1
  U  U3  1  0.86953000  0.15175600  0.94899100  1
  Ti  Ti0  1  0.68366400  0.74554700  0.25145100  1
  Ti  Ti1  1  0.18366400  0.25445300  0.24854900  1
  Ti  Ti2  1  0.50000000  0.50000000  0.00000000  1
  Ti  Ti3  1  0.00000000  0.50000000  0.50000000  1
  Ti  Ti4  1  0.31633600  0.25445300  0.74854900  1
  Ti  Ti5  1  0.81633600  0.74554700  0.75145100  1
  Si  Si0  1  0.86625000  0.47610100  0.13924000  1
  Si  Si1  1  0.36625000  0.52389900  0.36076000  1
  Si  Si2  1  0.13375000  0.52389900  0.86076000  1
  Si  Si3  1  0.63375000  0.47610100  0.63924000  1
  Si  Si4  1  0.53622100  0.91271300  0.88262400  1
  Si  Si5  1  0.03622100  0.08728700  0.61737600  1
  Si  Si6  1  0.96377900  0.91271300  0.38262400  1
  Si  Si7  1  0.46377900  0.08728700  0.11737600  1
loop_
_geom_bond_atom_site_label_1
_geom_bond_atom_site_label_2
_geom_bond_distance
_geom_bond_site_symmetry_2
U0 U2 2.645793 1_545
U1 U3 2.645793 1_464
Si0 Ti0 2.573197 1_555
Si0 Si2 2.605086 1_654
Si0 Ti1 2.609446 1_655
Si0 Ti2 2.674870 1_555
Si0 Ti5 2.705271 1_554
Si0 Ti3 2.735417 1_655
Si0 U3 2.967057 1_554
Si0 U0 2.973102 1_555
Si0 U1 3.012763 1_655
Si1 Ti1 2.573197 1_555
Si1 Si3 2.605086 1_555
Si1 Ti0 2.609446 1_555
Si1 Ti3 2.674870 1_555
Si1 Ti4 2.705271 1_555
Si1 Ti2 2.735417 1_555
Si1 U2 2.967057 1_555
Si1 U1 2.973102 1_555
Si1 U0 3.012763 1_555
Si2 Ti4 2.573197 1_555
Si2 Ti5 2.609446 1_455
Si2 Ti2 2.674870 1_556
Si2 Ti1 2.705271 1_556
Si2 Ti3 2.735417 1_555
Si2 U1 2.967057 1_556
Si2 U2 2.973102 1_555
Si2 U3 3.012763 1_455
Si3 Ti5 2.573197 1_555
Si3 Ti4 2.609446 1_555
Si3 Ti3 2.674870 1_655
Si3 Ti0 2.705271 1_555
Si3 Ti2 2.735417 1_556
Si3 U0 2.967057 1_555
Si3 U3 2.973102 1_555
Si3 U2 3.012763 1_555
Si4 Si7 2.396954 1_566
Si4 Ti5 2.564842 1_555
Si4 Ti0 2.620359 1_556
Si4 Ti4 2.665030 1_565
Si4 Ti2 2.669407 1_556
Si4 U2 2.750727 1_555
Si4 U3 2.942826 1_565
Si4 U0 2.957652 1_565
Si4 U1 2.989517 1_556
Si5 Si6 2.396954 1_445
Si5 Ti4 2.564842 1_555
Si5 Ti1 2.620359 1_555
Si5 Ti5 2.665030 1_445
Si5 Ti3 2.669407 1_555
Si5 U3 2.750727 1_455
Si5 U2 2.942826 1_545
Si5 U1 2.957652 1_546
Si5 U0 2.989517 1_455
Si6 Ti0 2.564842 1_555
Si6 Ti5 2.620359 1_555
Si6 Ti1 2.665030 1_665
Si6 Ti3 2.669407 1_655
Si6 U1 2.750727 1_655
Si6 U0 2.942826 1_565
Si6 U3 2.957652 1_564
Si6 U2 2.989517 1_655
Si7 Ti1 2.564842 1_555
Si7 Ti4 2.620359 1_554
Si7 Ti0 2.665030 1_545
Si7 Ti2 2.669407 1_555
Si7 U0 2.750727 1_555
Si7 U1 2.942826 1_545
Si7 U2 2.957652 1_545
Si7 U3 2.989517 1_554
