# generated using pymatgen
data_Y6MgMn6O18
_symmetry_space_group_name_H-M   'P 1'
_cell_length_a   6.23440008
_cell_length_b   6.25145423
_cell_length_c   11.90402984
_cell_angle_alpha   89.96599807
_cell_angle_beta   90.75900787
_cell_angle_gamma   119.49519132
_symmetry_Int_Tables_number   1
_chemical_formula_structural   Y6MgMn6O18
_chemical_formula_sum   'Y6 Mg1 Mn6 O18'
_cell_volume   403.77455115
_cell_formula_units_Z   1
loop_
 _symmetry_equiv_pos_site_id
 _symmetry_equiv_pos_as_xyz
  1  'x, y, z'
loop_
 _atom_site_type_symbol
 _atom_site_label
 _atom_site_symmetry_multiplicity
 _atom_site_fract_x
 _atom_site_fract_y
 _atom_site_fract_z
 _atom_site_occupancy
  Y  Y0  1  0.65428800  0.32529700  0.23696000  1
  Y  Y1  1  0.33710500  0.67060200  0.71853300  1
  Y  Y2  1  0.67946000  0.33433300  0.72277700  1
  Y  Y3  1  0.32259600  0.65008600  0.23589700  1
  Y  Y4  1  0.99233100  0.98775400  0.76745200  1
  Y  Y5  1  0.99187900  0.99569600  0.28038600  1
  Mg  Mg0  1  0.35422100  0.37738400  0.92379300  1
  Mn  Mn0  1  0.66298600  0.99582900  0.49875800  1
  Mn  Mn1  1  0.73530500  0.73903700  0.01701000  1
  Mn  Mn2  1  0.94520000  0.33841100  0.00292800  1
  Mn  Mn3  1  0.99906200  0.66447300  0.49849400  1
  Mn  Mn4  1  0.33053000  0.32302700  0.50061700  1
  Mn  Mn5  1  0.34024900  0.96720000  0.00354300  1
  O  O0  1  0.60843200  0.33255600  0.02156700  1
  O  O1  1  0.33292800  0.66309900  0.52044900  1
  O  O2  1  0.66892500  0.33245700  0.52092600  1
  O  O3  1  0.33585200  0.64821400  0.01993700  1
  O  O4  1  0.05052300  0.04610800  0.96616000  1
  O  O5  1  0.99662600  0.99687100  0.47667800  1
  O  O6  1  0.37452400  0.01263600  0.83702400  1
  O  O7  1  0.35220700  0.34623300  0.34053200  1
  O  O8  1  0.99909900  0.63656100  0.34112500  1
  O  O9  1  0.03267400  0.36832900  0.82765800  1
  O  O10  1  0.63484700  0.63140200  0.83135400  1
  O  O11  1  0.62982700  0.99397200  0.34114500  1
  O  O12  1  0.29802700  0.97535700  0.16411900  1
  O  O13  1  0.30949300  0.29906300  0.66170000  1
  O  O14  1  0.00056500  0.69299600  0.66073300  1
  O  O15  1  0.97870500  0.29926900  0.17356200  1
  O  O16  1  0.69038500  0.69058700  0.18283000  1
  O  O17  1  0.69448000  0.99849600  0.66090800  1
loop_
_geom_bond_atom_site_label_1
_geom_bond_atom_site_label_2
_geom_bond_distance
_geom_bond_site_symmetry_2
Mg0 O10 2.026484 1_555
Mg0 O4 2.071482 1_555
Mg0 O0 2.081599 1_556
Mg0 O3 2.094330 1_556
Mg0 O9 2.271350 1_555
Mg0 O6 2.563729 1_555
Mn0 O11 1.884276 1_555
Mn0 O17 1.936859 1_555
Mn0 O5 2.096868 1_555
Mn0 O2 2.103151 1_565
Mn0 O1 2.103861 1_555
Mn1 O16 1.999240 1_555
Mn1 O4 2.056406 1_664
Mn1 O0 2.259986 1_555
Mn1 O3 2.266136 1_555
Mn1 O10 2.297710 1_554
Mn2 O15 2.065893 1_555
Mn2 O0 2.096503 1_555
Mn2 O9 2.148203 1_654
Mn2 O3 2.250814 1_655
Mn2 O4 2.269778 1_654
Mn3 O8 1.881551 1_555
Mn3 O14 1.939092 1_655
Mn3 O1 2.098576 1_655
Mn3 O5 2.101420 1_555
Mn3 O2 2.103056 1_555
Mn4 O7 1.912597 1_555
Mn4 O13 1.924465 1_555
Mn4 O2 2.092069 1_555
Mn4 O5 2.092225 1_445
Mn4 O1 2.131854 1_555
Mn5 O12 1.937109 1_555
Mn5 O3 1.990284 1_555
Mn5 O6 2.001607 1_564
Mn5 O0 2.070967 1_565
Mn5 O4 2.135368 1_564
O0 Y0 2.579017 1_555
O1 Y1 2.358036 1_555
O2 Y2 2.402746 1_555
O3 Y3 2.573435 1_555
O4 Y4 2.389122 1_445
O5 Y5 2.336431 1_555
O6 Y2 2.410120 1_555
O6 Y4 2.443454 1_445
O6 Y1 2.473785 1_545
O7 Y0 2.321304 1_555
O7 Y5 2.339438 1_445
O7 Y3 2.351623 1_555
O8 Y3 2.354286 1_655
O8 Y5 2.379513 1_555
O8 Y0 2.399651 1_555
O9 Y1 2.321908 1_555
O9 Y4 2.375976 1_445
O9 Y2 2.433048 1_455
O10 Y4 2.379585 1_555
O10 Y1 2.385559 1_555
O10 Y2 2.391191 1_555
O11 Y0 2.354244 1_565
O11 Y5 2.374317 1_555
O11 Y3 2.396863 1_555
O12 Y3 2.278047 1_555
O12 Y0 2.374330 1_565
O12 Y5 2.425666 1_455
O13 Y2 2.313495 1_555
O13 Y1 2.342467 1_555
O13 Y4 2.357068 1_445
O14 Y4 2.260439 1_455
O14 Y1 2.268483 1_555
O14 Y2 2.279842 1_455
O15 Y0 2.247525 1_555
O15 Y3 2.299282 1_655
O15 Y5 2.318016 1_545
O16 Y5 2.221311 1_555
O16 Y0 2.275237 1_555
O16 Y3 2.277558 1_555
O17 Y4 2.263085 1_555
O17 Y2 2.270729 1_565
O17 Y1 2.275528 1_555
