# generated using pymatgen
data_Na10Zn2Si7Ge6S5O48
_symmetry_space_group_name_H-M   'P 1'
_cell_length_a   17.42562594
_cell_length_b   8.79895971
_cell_length_c   21.86691898
_cell_angle_alpha   90.25244552
_cell_angle_beta   89.33267059
_cell_angle_gamma   120.20708154
_symmetry_Int_Tables_number   1
_chemical_formula_structural   Na10Zn2Si7Ge6S5O48
_chemical_formula_sum   'Na30 Zn6 Si21 Ge18 S15 O144'
_cell_volume   2897.32921712
_cell_formula_units_Z   3
loop_
 _symmetry_equiv_pos_site_id
 _symmetry_equiv_pos_as_xyz
  1  'x, y, z'
loop_
 _atom_site_type_symbol
 _atom_site_label
 _atom_site_symmetry_multiplicity
 _atom_site_fract_x
 _atom_site_fract_y
 _atom_site_fract_z
 _atom_site_occupancy
  Na  Na0  1  0.81586717  0.01061701  0.24868898  1
  Na  Na1  1  0.18879638  0.37557612  0.24722626  1
  Na  Na2  1  0.68852535  0.36402942  0.25266612  1
  Na  Na3  1  0.99439543  0.61568319  0.25253904  1
  Na  Na4  1  0.49499007  0.62757050  0.24608609  1
  Na  Na5  1  0.31646993  0.62144332  0.74893854  1
  Na  Na6  1  0.99470408  0.36049390  0.74715902  1
  Na  Na7  1  0.49441534  0.37506952  0.75212174  1
  Na  Na8  1  0.19065523  0.01629316  0.74913745  1
  Na  Na9  1  0.68911390  0.00084270  0.74778629  1
  Na  Na10  1  0.15176131  0.33263387  0.58134931  1
  Na  Na11  1  0.01503732  0.69252943  0.58487562  1
  Na  Na12  1  0.48519792  0.66393587  0.91668481  1
  Na  Na13  1  0.99042777  0.67505095  0.92005447  1
  Na  Na14  1  0.84917012  0.02972423  0.91508510  1
  Na  Na15  1  0.49074356  0.30740585  0.42010794  1
  Na  Na16  1  0.16433856  0.02703670  0.41789331  1
  Na  Na17  1  0.34885748  0.66595001  0.41497819  1
  Na  Na18  1  0.99119862  0.99522684  0.49896204  1
  Na  Na19  1  0.51129742  0.00936963  0.49816716  1
  Na  Na20  1  0.01005234  0.01283708  0.99813725  1
  Na  Na21  1  0.50182039  0.01429310  0.00081330  1
  Na  Na22  1  0.32888856  0.32075819  0.83174010  1
  Na  Na23  1  0.82991902  0.33585647  0.83193262  1
  Na  Na24  1  0.33494415  0.33348091  0.33046165  1
  Na  Na25  1  0.83242306  0.33554051  0.33226918  1
  Na  Na26  1  0.17400659  0.67364832  0.16303203  1
  Na  Na27  1  0.66298381  0.66677884  0.16162448  1
  Na  Na28  1  0.17077305  0.67757908  0.66406527  1
  Na  Na29  1  0.67240154  0.67329304  0.66326371  1
  Zn  Zn0  1  0.32994077  0.32050039  0.69005109  1
  Zn  Zn1  1  0.83853335  0.32280221  0.68136450  1
  Zn  Zn2  1  0.34121582  0.35496764  0.17997202  1
  Zn  Zn3  1  0.83292352  0.33324060  0.19037409  1
  Zn  Zn4  1  0.16115897  0.67202982  0.01314718  1
  Zn  Zn5  1  0.66060437  0.65168427  0.51279361  1
  Si  Si0  1  0.64072584  0.99139716  0.25196722  1
  Si  Si1  1  0.35379683  0.71901804  0.25358577  1
  Si  Si2  1  0.85653793  0.72015664  0.25219711  1
  Si  Si3  1  0.00418631  0.28931339  0.25301197  1
  Si  Si4  1  0.14149153  0.29264720  0.75309282  1
  Si  Si5  1  0.50406453  0.71855592  0.75242296  1
  Si  Si6  1  0.35711940  0.99381929  0.75299346  1
  Si  Si7  1  0.85581976  0.98791971  0.75194211  1
  Si  Si8  1  0.97698142  0.33417659  0.57984299  1
  Si  Si9  1  0.18853975  0.03622240  0.58505495  1
  Si  Si10  1  0.48266108  0.62312086  0.08015088  1
  Si  Si11  1  0.80534445  0.66418159  0.91724664  1
  Si  Si12  1  0.02514147  0.37909723  0.91965980  1
  Si  Si13  1  0.52430948  0.37162575  0.91365343  1
  Si  Si14  1  0.16866770  0.96672007  0.91685556  1
  Si  Si15  1  0.66452189  0.96215529  0.91709517  1
  Si  Si16  1  0.30878749  0.94835587  0.41582785  1
  Si  Si17  1  0.16191407  0.37336634  0.41763815  1
  Si  Si18  1  0.66857518  0.37098255  0.41644368  1
  Si  Si19  1  0.01944852  0.66521520  0.41288071  1
  Si  Si20  1  0.52422447  0.67006171  0.41983592  1
  Ge  Ge0  1  0.99586571  0.99667202  0.35546725  1
  Ge  Ge1  1  0.50410235  0.98985475  0.35804855  1
  Ge  Ge2  1  0.00256852  0.01603629  0.85831421  1
  Ge  Ge3  1  0.49997654  0.00361754  0.85500972  1
  Ge  Ge4  1  0.00015980  0.02797240  0.64457083  1
  Ge  Ge5  1  0.49862018  0.98779367  0.65058842  1
  Ge  Ge6  1  0.99663664  0.01247478  0.14954890  1
  Ge  Ge7  1  0.49239382  0.95337141  0.14629684  1
  Ge  Ge8  1  0.33997361  0.31834386  0.98010177  1
  Ge  Ge9  1  0.83052703  0.33908038  0.97490808  1
  Ge  Ge10  1  0.32751000  0.32216007  0.47547598  1
  Ge  Ge11  1  0.83773892  0.34712272  0.47669143  1
  Ge  Ge12  1  0.65615465  0.65899517  0.01017504  1
  Ge  Ge13  1  0.16018291  0.66972318  0.51351894  1
  Ge  Ge14  1  0.16909667  0.65824093  0.31700421  1
  Ge  Ge15  1  0.66688714  0.66208031  0.31673839  1
  Ge  Ge16  1  0.16737052  0.67262517  0.81710693  1
  Ge  Ge17  1  0.67112158  0.68467544  0.81713645  1
  S  S0  1  0.14441795  0.99820063  0.24861266  1
  S  S1  1  0.49850523  0.27976528  0.25008038  1
  S  S2  1  0.64411227  0.28989547  0.74905220  1
  S  S3  1  0.99795000  0.71362367  0.75093623  1
  S  S4  1  0.48072917  0.32614015  0.58578836  1
  S  S5  1  0.68303007  0.03968818  0.58459977  1
  S  S6  1  0.33790315  0.63449323  0.58277686  1
  S  S7  1  0.83072620  0.62451479  0.58497917  1
  S  S8  1  0.97959910  0.63383830  0.08568956  1
  S  S9  1  0.33567678  0.03899016  0.08595573  1
  S  S10  1  0.83448342  0.03914950  0.08247467  1
  S  S11  1  0.18341824  0.32632310  0.08485873  1
  S  S12  1  0.68645477  0.33454905  0.08321409  1
  S  S13  1  0.31227421  0.66603777  0.91721071  1
  S  S14  1  0.81296677  0.96133350  0.41738048  1
  O  O0  1  0.10740801  0.03328360  0.30614377  1
  O  O1  1  0.59741530  0.04034460  0.30889632  1
  O  O2  1  0.41887932  0.80782396  0.31178789  1
  O  O3  1  0.92299602  0.80755307  0.30998310  1
  O  O4  1  0.48758366  0.18329462  0.30746803  1
  O  O5  1  0.98611824  0.15720916  0.31024535  1
  O  O6  1  0.09485409  0.15199495  0.80779631  1
  O  O7  1  0.60633236  0.17591986  0.80457361  1
  O  O8  1  0.48693218  0.81024009  0.81249198  1
  O  O9  1  0.98747831  0.79275695  0.80704659  1
  O  O10  1  0.42373243  0.03390938  0.80990973  1
  O  O11  1  0.91814975  0.02865473  0.81177708  1
  O  O12  1  0.39899868  0.94730512  0.69101990  1
  O  O13  1  0.90090595  0.95787425  0.68912306  1
  O  O14  1  0.08237415  0.21869365  0.68848648  1
  O  O15  1  0.58555871  0.20871403  0.69374956  1
  O  O16  1  0.01382348  0.82085281  0.69439863  1
  O  O17  1  0.53070673  0.85264792  0.69229555  1
  O  O18  1  0.39396743  0.83539521  0.19003298  1
  O  O19  1  0.89896039  0.85191719  0.19109344  1
  O  O20  1  0.03055906  0.21179577  0.19137480  1
  O  O21  1  0.51555111  0.20053509  0.19535501  1
  O  O22  1  0.08465441  0.96393274  0.19461185  1
  O  O23  1  0.57771842  0.94738151  0.19013588  1
  O  O24  1  0.43825178  0.34733079  0.64094289  1
  O  O25  1  0.95072243  0.39224450  0.64304738  1
  O  O26  1  0.24045321  0.11029413  0.64673073  1
  O  O27  1  0.73031533  0.12009248  0.64244275  1
  O  O28  1  0.32476969  0.53017857  0.63815159  1
  O  O29  1  0.81772129  0.51813916  0.63987110  1
  O  O30  1  0.45171630  0.52758669  0.14528300  1
  O  O31  1  0.93483327  0.52692006  0.14037938  1
  O  O32  1  0.32039990  0.12081472  0.14009027  1
  O  O33  1  0.82383522  0.11897734  0.13901307  1
  O  O34  1  0.23053633  0.34032209  0.14275874  1
  O  O35  1  0.73712291  0.35872903  0.13948298  1
  O  O36  1  0.22662033  0.29724125  0.03014894  1
  O  O37  1  0.72987687  0.29909107  0.02789704  1
  O  O38  1  0.41409479  0.52411588  0.02131680  1
  O  O39  1  0.92534820  0.55241243  0.02812425  1
  O  O40  1  0.35113660  0.14973475  0.02821538  1
  O  O41  1  0.84833746  0.14914150  0.02640249  1
  O  O42  1  0.23073592  0.17410482  0.52448128  1
  O  O43  1  0.72484751  0.15313525  0.52983949  1
  O  O44  1  0.35099973  0.55330457  0.52584790  1
  O  O45  1  0.84969466  0.54432981  0.52849498  1
  O  O46  1  0.42661682  0.29823967  0.52843774  1
  O  O47  1  0.90854443  0.29953380  0.52328834  1
  O  O48  1  0.27435843  0.69424990  0.97173464  1
  O  O49  1  0.76309757  0.71395924  0.97648301  1
  O  O50  1  0.08210335  0.45019196  0.97873356  1
  O  O51  1  0.58408637  0.45455028  0.97419428  1
  O  O52  1  0.14099016  0.84227363  0.97489142  1
  O  O53  1  0.63958132  0.82542416  0.97345082  1
  O  O54  1  0.26609270  0.81587823  0.47449867  1
  O  O55  1  0.77506135  0.85658638  0.47218956  1
  O  O56  1  0.14900150  0.46377476  0.47859207  1
  O  O57  1  0.64139105  0.44111015  0.47469167  1
  O  O58  1  0.08241604  0.71573832  0.47373380  1
  O  O59  1  0.58140953  0.71496018  0.47882994  1
  O  O60  1  0.06540696  0.63324000  0.35213125  1
  O  O61  1  0.56242342  0.61708401  0.35682578  1
  O  O62  1  0.24100503  0.86819121  0.35796637  1
  O  O63  1  0.76051226  0.88184616  0.35958848  1
  O  O64  1  0.18982866  0.50031078  0.35721525  1
  O  O65  1  0.68808847  0.49654101  0.35335266  1
  O  O66  1  0.06313813  0.50830867  0.85706668  1
  O  O67  1  0.56492674  0.50612123  0.85402704  1
  O  O68  1  0.18802087  0.88037427  0.85339733  1
  O  O69  1  0.69219198  0.88983427  0.85575118  1
  O  O70  1  0.25949662  0.63973023  0.85936452  1
  O  O71  1  0.74306859  0.62279191  0.85733700  1
  O  O72  1  0.01266676  0.84598297  0.40802200  1
  O  O73  1  0.50329003  0.82979412  0.41126189  1
  O  O74  1  0.40875327  0.97988193  0.40872210  1
  O  O75  1  0.90355906  0.97964824  0.41169939  1
  O  O76  1  0.07822472  0.17326406  0.41017713  1
  O  O77  1  0.57686645  0.17939598  0.40619265  1
  O  O78  1  0.00370904  0.17681977  0.91162791  1
  O  O79  1  0.51190473  0.17628207  0.90844756  1
  O  O80  1  0.07681524  0.97483066  0.90611980  1
  O  O81  1  0.57476231  0.97318825  0.90945445  1
  O  O82  1  0.40372458  0.82589582  0.91145296  1
  O  O83  1  0.90631570  0.83521676  0.90999730  1
  O  O84  1  0.48684530  0.15857788  0.58899219  1
  O  O85  1  0.98727885  0.15693651  0.58318809  1
  O  O86  1  0.08464834  0.01167317  0.59033913  1
  O  O87  1  0.59145990  0.03027910  0.58753466  1
  O  O88  1  0.42076132  0.81381056  0.58530735  1
  O  O89  1  0.91723299  0.79908717  0.58739887  1
  O  O90  1  0.48877590  0.82098014  0.08165599  1
  O  O91  1  0.98599774  0.81276988  0.08873455  1
  O  O92  1  0.42225493  0.03780188  0.08881248  1
  O  O93  1  0.92010796  0.02992064  0.08476274  1
  O  O94  1  0.09183186  0.15236211  0.08703767  1
  O  O95  1  0.59616535  0.17521781  0.08634736  1
  O  O96  1  0.34672892  0.16414397  0.75160338  1
  O  O97  1  0.84266503  0.16057482  0.74887191  1
  O  O98  1  0.23970497  0.32210322  0.74942070  1
  O  O99  1  0.73268229  0.30906878  0.74242383  1
  O  O100  1  0.41734058  0.52830147  0.74667094  1
  O  O101  1  0.91982456  0.53430685  0.74786583  1
  O  O102  1  0.34146690  0.52145745  0.25026776  1
  O  O103  1  0.84396204  0.52698818  0.24745598  1
  O  O104  1  0.42045560  0.30391541  0.24668501  1
  O  O105  1  0.91726071  0.30662540  0.24802207  1
  O  O106  1  0.23268280  0.15605393  0.24224129  1
  O  O107  1  0.73826002  0.16061019  0.24638958  1
  O  O108  1  0.32331460  0.50870779  0.91849809  1
  O  O109  1  0.82184486  0.49669704  0.92647255  1
  O  O110  1  0.42680073  0.36176733  0.92229022  1
  O  O111  1  0.92304297  0.36082164  0.92494931  1
  O  O112  1  0.25687577  0.16685643  0.92636706  1
  O  O113  1  0.75491357  0.15248440  0.92708414  1
  O  O114  1  0.32007248  0.14623318  0.42436088  1
  O  O115  1  0.82155721  0.13786111  0.41961780  1
  O  O116  1  0.25279334  0.35585292  0.42339613  1
  O  O117  1  0.75515827  0.34265582  0.42520042  1
  O  O118  1  0.42197889  0.48393503  0.42560839  1
  O  O119  1  0.92349913  0.48775935  0.42155652  1
  O  O120  1  0.17364063  0.48004224  0.08046197  1
  O  O121  1  0.68164585  0.49620381  0.07506775  1
  O  O122  1  0.06783616  0.65374716  0.08248647  1
  O  O123  1  0.58310344  0.64611459  0.07246182  1
  O  O124  1  0.26015441  0.86241176  0.07837529  1
  O  O125  1  0.75669201  0.86230464  0.07736737  1
  O  O126  1  0.17470490  0.83931600  0.57319945  1
  O  O127  1  0.67379882  0.86648453  0.58025215  1
  O  O128  1  0.25673923  0.64900137  0.57799781  1
  O  O129  1  0.75604521  0.65248768  0.57759067  1
  O  O130  1  0.07924522  0.50776409  0.57152232  1
  O  O131  1  0.56959435  0.48123452  0.58186646  1
  O  O132  1  0.14858131  0.83521219  0.25225300  1
  O  O133  1  0.64798309  0.81104841  0.26021716  1
  O  O134  1  0.25582465  0.70297848  0.25783870  1
  O  O135  1  0.75723157  0.70461979  0.25769688  1
  O  O136  1  0.09292955  0.48772325  0.25736104  1
  O  O137  1  0.58205025  0.46317547  0.25211894  1
  O  O138  1  0.14765067  0.48716661  0.76060570  1
  O  O139  1  0.64763042  0.46001597  0.75393746  1
  O  O140  1  0.08184561  0.69933554  0.75258200  1
  O  O141  1  0.59335556  0.69790992  0.75732326  1
  O  O142  1  0.25772397  0.81091241  0.75764529  1
  O  O143  1  0.75704099  0.80957846  0.75604038  1
loop_
_geom_bond_atom_site_label_1
_geom_bond_atom_site_label_2
_geom_bond_distance
_geom_bond_site_symmetry_2
Na0 O105 2.296696 1_555
Na0 O107 2.317620 1_555
Na0 O135 2.358782 1_545
Na0 O133 2.554014 1_545
Na0 O33 2.561105 1_555
Na0 O63 2.639123 1_545
Na0 O19 2.758485 1_545
Na0 O5 2.916197 1_555
Na1 O102 2.301482 1_555
Na1 O136 2.337040 1_555
Na1 O106 2.410451 1_555
Na1 O34 2.454739 1_555
Na1 O134 2.516284 1_555
Na1 O64 2.635791 1_555
Na1 O20 2.689968 1_555
Na1 O0 2.904431 1_555
Na2 O103 2.343414 1_555
Na2 O107 2.351504 1_555
Na2 O137 2.415167 1_555
Na2 O65 2.488564 1_555
Na2 O135 2.610809 1_555
Na2 O35 2.614322 1_555
Na2 O1 2.753081 1_555
Na2 O21 2.904172 1_555
Na3 O103 2.332501 1_555
Na3 O105 2.352481 1_555
Na3 O132 2.393205 1_655
Na3 O60 2.482988 1_655
Na3 O136 2.485462 1_655
Na3 O31 2.632327 1_555
Na3 O3 2.834532 1_555
Na3 O22 2.933592 1_655
Na4 O133 2.343762 1_555
Na4 O102 2.349176 1_555
Na4 O30 2.356991 1_555
Na4 O104 2.464796 1_555
Na4 O137 2.574070 1_555
Na4 O23 2.720459 1_555
Na4 O61 2.725892 1_555
Na4 O2 2.896698 1_555
Na5 O98 2.276274 1_555
Na5 O100 2.282745 1_555
Na5 O142 2.360817 1_555
Na5 O138 2.569598 1_555
Na5 O28 2.574138 1_555
Na5 O70 2.635085 1_555
Na5 O12 2.780945 1_555
Na5 O8 2.936794 1_555
Na6 O97 2.328866 1_555
Na6 O138 2.336280 1_655
Na6 O101 2.459501 1_555
Na6 O25 2.471850 1_555
Na6 O140 2.579613 1_655
Na6 O66 2.714452 1_655
Na6 O14 2.719366 1_655
Na6 O11 2.893891 1_555
Na7 O96 2.293902 1_555
Na7 O100 2.337357 1_555
Na7 O139 2.383821 1_555
Na7 O141 2.475543 1_555
Na7 O67 2.533850 1_555
Na7 O24 2.595701 1_555
Na7 O10 2.898566 1_555
Na7 O15 2.927445 1_555
Na8 O96 2.352563 1_555
Na8 O98 2.378392 1_555
Na8 O26 2.387574 1_555
Na8 O140 2.460939 1_545
Na8 O68 2.568349 1_545
Na8 O142 2.607587 1_545
Na8 O6 2.792900 1_555
Na8 O16 2.936102 1_545
Na9 O97 2.313532 1_555
Na9 O141 2.335367 1_545
Na9 O99 2.423694 1_555
Na9 O27 2.479407 1_555
Na9 O143 2.505602 1_545
Na9 O69 2.570327 1_545
Na9 O17 2.689678 1_545
Na9 O7 2.858931 1_555
Na10 O128 2.444448 1_555
Na10 O130 2.446665 1_555
Na10 O86 2.461323 1_555
Na10 O85 2.479087 1_455
Na10 O56 2.542430 1_555
Na10 O14 2.586606 1_555
Na10 O42 2.694892 1_555
Na10 O28 2.906572 1_555
Na11 O89 2.322084 1_455
Na11 O130 2.408053 1_555
Na11 O126 2.417627 1_555
Na11 O86 2.438052 1_565
Na11 O25 2.621453 1_455
Na11 O16 2.647652 1_555
Na11 O58 2.650167 1_555
Na11 O45 2.794583 1_455
Na12 O110 2.323158 1_555
Na12 O81 2.364283 1_555
Na12 O108 2.438345 1_555
Na12 O82 2.469949 1_555
Na12 O38 2.590075 1_556
Na12 O8 2.614233 1_555
Na12 O53 2.648188 1_555
Na12 O67 2.759690 1_555
Na13 O80 2.305966 1_655
Na13 O111 2.401595 1_555
Na13 O83 2.504302 1_555
Na13 O109 2.542774 1_555
Na13 O52 2.580613 1_655
Na13 O39 2.600702 1_556
Na13 O9 2.694601 1_555
Na13 O66 2.732597 1_655
Na14 O78 2.328453 1_655
Na14 O83 2.375661 1_545
Na14 O113 2.388731 1_555
Na14 O111 2.533424 1_555
Na14 O11 2.548740 1_555
Na14 O41 2.649799 1_556
Na14 O69 2.713232 1_545
Na14 O49 2.750332 1_545
Na15 O77 2.302343 1_555
Na15 O118 2.393918 1_555
Na15 O74 2.503444 1_545
Na15 O114 2.572055 1_555
Na15 O57 2.579326 1_555
Na15 O46 2.591511 1_555
Na15 O4 2.679805 1_555
Na15 O61 2.732761 1_555
Na16 O72 2.311553 1_545
Na16 O114 2.372366 1_555
Na16 O76 2.426172 1_555
Na16 O116 2.504986 1_555
Na16 O42 2.641076 1_555
Na16 O0 2.659131 1_555
Na16 O58 2.661912 1_545
Na16 O62 2.697680 1_545
Na17 O73 2.327868 1_555
Na17 O116 2.383727 1_555
Na17 O74 2.416021 1_555
Na17 O118 2.511200 1_555
Na17 O2 2.562565 1_555
Na17 O44 2.630955 1_555
Na17 O54 2.714769 1_555
Na17 O64 2.720331 1_555
Na18 O85 2.343739 1_565
Na18 O75 2.418072 1_555
Na18 O76 2.467943 1_665
Na18 O89 2.472347 1_555
Na18 O72 2.504566 1_655
Na18 O86 2.549776 1_665
Na19 O87 2.367658 1_555
Na19 O77 2.416925 1_555
Na19 O73 2.425966 1_545
Na19 O88 2.511559 1_545
Na19 O84 2.523860 1_555
Na19 O74 2.587706 1_545
Na20 O94 2.366449 1_556
Na20 O80 2.417650 1_545
Na20 O78 2.421162 1_555
Na20 O93 2.496530 1_456
Na20 O91 2.543270 1_446
Na20 O83 2.576183 1_445
Na21 O90 2.387056 1_545
Na21 O92 2.427110 1_555
Na21 O79 2.430418 1_554
Na21 O95 2.431438 1_555
Na21 O81 2.476778 1_544
Na21 O82 2.585751 1_544
Na22 O96 2.337406 1_555
Na22 O98 2.395709 1_555
Na22 O112 2.438102 1_555
Na22 O100 2.510328 1_555
Na22 O110 2.532737 1_555
Na22 O108 2.544240 1_555
Na23 O97 2.457133 1_555
Na23 O101 2.468041 1_555
Na23 O99 2.535517 1_555
Na23 O109 2.542478 1_555
Na23 O113 2.546568 1_555
Na23 O111 2.555956 1_555
Na24 O102 2.378121 1_555
Na24 O104 2.442605 1_555
Na24 O118 2.531873 1_555
Na24 O116 2.535763 1_555
Na24 O114 2.566215 1_555
Na24 O106 2.566769 1_555
Na25 O105 2.440276 1_555
Na25 O117 2.442572 1_555
Na25 O103 2.448605 1_555
Na25 O119 2.456596 1_555
Na25 O107 2.468408 1_555
Na25 O115 2.529623 1_555
Na26 O124 2.427448 1_555
Na26 O134 2.468009 1_555
Na26 O120 2.474736 1_555
Na26 O122 2.510536 1_555
Na26 O136 2.561865 1_555
Na26 O132 2.571533 1_555
Na27 O123 2.361657 1_555
Na27 O125 2.480294 1_555
Na27 O121 2.528357 1_555
Na27 O137 2.556971 1_555
Na27 O133 2.573791 1_555
Na27 O135 2.597199 1_555
Na28 O126 2.429317 1_555
Na28 O142 2.474241 1_555
Na28 O128 2.481634 1_555
Na28 O140 2.531764 1_555
Na28 O130 2.553819 1_555
Na28 O138 2.599611 1_555
Na29 O129 2.422697 1_555
Na29 O143 2.449012 1_555
Na29 O127 2.483886 1_555
Na29 O131 2.496932 1_555
Na29 O141 2.530793 1_555
Na29 O139 2.614780 1_555
Ge0 O3 1.805350 1_555
Ge0 O5 1.805459 1_565
Ge0 O72 1.891112 1_655
Ge0 O76 1.919624 1_665
Ge0 O75 1.958263 1_555
Ge0 O0 2.090255 1_665
Ge1 O1 1.798102 1_565
Ge1 O73 1.825291 1_555
Ge1 O77 1.839895 1_565
Ge1 O2 1.849684 1_555
Ge1 O74 1.951264 1_555
Ge1 O4 2.172609 1_565
Ge2 O6 1.808852 1_555
Ge2 O78 1.821721 1_555
Ge2 O80 1.845266 1_545
Ge2 O11 1.847184 1_455
Ge2 O83 1.976929 1_445
Ge2 O9 2.157152 1_445
Ge3 O10 1.788290 1_555
Ge3 O79 1.840943 1_555
Ge3 O8 1.847441 1_545
Ge3 O81 1.891408 1_545
Ge3 O7 2.022228 1_555
Ge3 O82 2.027668 1_545
Ge4 O13 1.792627 1_445
Ge4 O14 1.841043 1_555
Ge4 O85 1.848355 1_455
Ge4 O86 1.940295 1_555
Ge4 O89 2.190558 1_445
Ge4 O16 2.241724 1_545
Ge5 O17 1.802474 1_555
Ge5 O12 1.807446 1_555
Ge5 O87 2.000521 1_565
Ge5 O15 2.004577 1_565
Ge5 O88 2.039099 1_555
Ge5 O84 2.109267 1_565
Ge6 O20 1.793616 1_655
Ge6 O19 1.809373 1_545
Ge6 O94 2.010645 1_655
Ge6 O93 2.015148 1_555
Ge6 O22 2.050357 1_645
Ge6 O91 2.132576 1_545
Ge7 O18 1.764347 1_555
Ge7 O23 1.801365 1_555
Ge7 O90 1.809038 1_555
Ge7 O92 2.140899 1_565
Ge7 O21 2.269308 1_565
Ge7 O95 2.283463 1_565
Ge8 O112 1.826962 1_555
Ge8 O110 1.846970 1_555
Ge8 O38 1.848850 1_556
Ge8 O40 1.911723 1_556
Ge8 O36 2.171667 1_556
Ge8 O108 2.285349 1_555
Ge9 O109 1.815449 1_555
Ge9 O113 1.834532 1_555
Ge9 O111 1.865351 1_555
Ge9 O37 1.969215 1_556
Ge9 O39 2.124235 1_556
Ge9 O41 2.168879 1_556
Ge10 O114 1.857038 1_555
Ge10 O42 1.857097 1_555
Ge10 O116 1.872403 1_555
Ge10 O118 1.881265 1_555
Ge10 O44 2.161095 1_555
Ge10 O46 2.186902 1_555
Ge11 O47 1.813509 1_555
Ge11 O117 1.822230 1_555
Ge11 O119 1.824412 1_555
Ge11 O45 1.990475 1_555
Ge11 O115 2.119648 1_555
Ge11 O43 2.172432 1_555
Ge12 O51 1.780309 1_554
Ge12 O123 1.817740 1_555
Ge12 O49 1.820371 1_554
Ge12 O53 1.820465 1_554
Ge12 O121 2.221594 1_555
Ge12 O125 2.304652 1_555
Ge13 O58 1.827529 1_555
Ge13 O54 1.836479 1_555
Ge13 O56 1.881773 1_555
Ge13 O130 1.892230 1_555
Ge13 O126 1.898544 1_555
Ge13 O128 2.284388 1_555
Ge14 O64 1.832497 1_555
Ge14 O62 1.862094 1_555
Ge14 O60 1.863420 1_555
Ge14 O134 1.863625 1_555
Ge14 O136 1.932086 1_555
Ge14 O132 2.269082 1_555
Ge15 O65 1.859511 1_555
Ge15 O61 1.865338 1_555
Ge15 O135 1.910323 1_555
Ge15 O133 1.952543 1_555
Ge15 O63 2.030771 1_555
Ge15 O137 2.160680 1_555
Ge16 O68 1.852751 1_555
Ge16 O66 1.866705 1_555
Ge16 O142 1.920580 1_555
Ge16 O138 1.932702 1_555
Ge16 O70 2.004812 1_555
Ge16 O140 2.161359 1_555
Ge17 O71 1.832453 1_555
Ge17 O69 1.852925 1_555
Ge17 O143 1.882791 1_555
Ge17 O67 1.895877 1_555
Ge17 O141 1.939591 1_555
Ge17 O139 2.271536 1_555
O0 S0 1.507268 1_545
O1 Si0 1.614075 1_545
O2 Si1 1.627781 1_555
O3 Si2 1.630515 1_555
O4 S1 1.474032 1_555
O5 Si3 1.628475 1_655
O6 Si4 1.612861 1_555
O7 S2 1.496965 1_555
O8 Si5 1.639864 1_555
O9 S3 1.462415 1_555
O10 Si6 1.624369 1_545
O11 Si7 1.630132 1_545
O12 Si6 1.676063 1_555
O13 Si7 1.659743 1_555
O14 Si4 1.682784 1_555
O15 S2 1.517056 1_555
O16 S3 1.494945 1_455
O17 Si5 1.668710 1_555
O18 Si1 1.654825 1_555
O19 Si2 1.674549 1_555
O20 Si3 1.669106 1_555
O21 S1 1.482906 1_555
O22 S0 1.509755 1_555
O23 Si0 1.669019 1_555
O24 S4 1.467424 1_555
O24 Zn0 2.068277 1_555
O25 Si8 1.610869 1_555
O25 Zn1 1.913540 1_555
O26 Si9 1.577785 1_555
O26 Zn0 1.966398 1_555
O27 S5 1.486304 1_555
O27 Zn1 2.025165 1_555
O28 S6 1.467319 1_555
O28 Zn0 2.210890 1_555
O29 S7 1.469125 1_555
O29 Zn1 2.134844 1_555
O30 Si10 1.600745 1_555
O30 Zn2 1.903484 1_555
O31 S8 1.474265 1_555
O31 Zn3 2.044237 1_555
O32 S9 1.472587 1_555
O32 Zn2 2.092006 1_555
O33 S10 1.474597 1_555
O33 Zn3 2.127399 1_555
O34 S11 1.487745 1_555
O34 Zn2 2.045494 1_555
O35 S12 1.474024 1_555
O35 Zn3 2.120790 1_555
O36 S11 1.494526 1_555
O37 S12 1.531645 1_555
O38 Si10 1.679335 1_555
O39 S8 1.526354 1_555
O40 S9 1.534613 1_555
O41 S10 1.505585 1_555
O42 Si9 1.691403 1_555
O43 S5 1.489817 1_555
O44 S6 1.503892 1_555
O45 S7 1.532999 1_555
O46 S4 1.521192 1_555
O47 Si8 1.646122 1_555
O48 S13 1.436573 1_555
O48 Zn4 2.078746 1_556
O49 Si11 1.645869 1_555
O50 Si12 1.563059 1_555
O50 Zn4 1.891966 1_556
O51 Si13 1.621357 1_555
O52 Si14 1.583897 1_555
O52 Zn4 1.901282 1_556
O53 Si15 1.621538 1_555
O54 Si16 1.636012 1_555
O55 S14 1.449441 1_555
O55 Zn5 2.090768 1_555
O56 Si17 1.619811 1_555
O57 Si18 1.581332 1_555
O57 Zn5 1.899458 1_555
O58 Si19 1.646276 1_555
O59 Si20 1.562856 1_555
O59 Zn5 1.888565 1_555
O60 Si19 1.638241 1_555
O61 Si20 1.686420 1_555
O62 Si16 1.637717 1_555
O63 S14 1.515753 1_555
O64 Si17 1.637466 1_555
O65 Si18 1.692328 1_555
O66 Si12 1.685084 1_555
O67 Si13 1.658527 1_555
O68 Si14 1.689415 1_555
O69 Si15 1.650137 1_555
O70 S13 1.519775 1_555
O71 Si11 1.630249 1_555
O72 Si19 1.657132 1_555
O73 Si20 1.632003 1_555
O74 Si16 1.625846 1_555
O75 S14 1.507676 1_555
O76 Si17 1.634832 1_555
O77 Si18 1.655321 1_555
O78 Si12 1.633409 1_555
O79 Si13 1.624504 1_555
O80 Si14 1.657082 1_555
O81 Si15 1.625676 1_555
O82 S13 1.508375 1_555
O83 Si11 1.648297 1_555
O84 S4 1.532725 1_555
O85 Si8 1.659090 1_555
O86 Si9 1.714441 1_555
O87 S5 1.556232 1_555
O88 S6 1.511944 1_555
O89 S7 1.518481 1_555
O90 Si10 1.690052 1_555
O91 S8 1.522577 1_555
O92 S9 1.515980 1_555
O93 S10 1.535916 1_555
O94 S11 1.559810 1_555
O95 S12 1.491432 1_555
O96 Si6 1.597913 1_545
O96 Zn0 2.054367 1_555
O97 Si7 1.648228 1_545
O97 Zn1 2.084780 1_555
O98 Si4 1.597890 1_555
O98 Zn0 2.032903 1_555
O99 S2 1.471229 1_555
O99 Zn1 2.217957 1_555
O100 Si5 1.599664 1_555
O100 Zn0 2.101772 1_555
O101 S3 1.478885 1_555
O101 Zn1 2.226223 1_555
O102 Si1 1.642144 1_555
O102 Zn2 2.117252 1_555
O103 Si2 1.603703 1_555
O103 Zn3 2.039155 1_555
O104 S1 1.481130 1_555
O104 Zn2 2.216611 1_555
O105 Si3 1.601780 1_655
O105 Zn3 2.048364 1_555
O106 S0 1.470135 1_545
O106 Zn2 2.263713 1_555
O107 Si0 1.603352 1_545
O107 Zn3 1.994169 1_555
O108 S13 1.490860 1_555
O109 Si11 1.650905 1_555
O110 Si13 1.665732 1_555
O111 Si12 1.706466 1_655
O112 Si14 1.669573 1_545
O113 Si15 1.638227 1_545
O114 Si16 1.660852 1_545
O115 S14 1.484234 1_545
O116 Si17 1.672679 1_555
O117 Si18 1.661540 1_555
O118 Si20 1.712575 1_555
O119 Si19 1.624124 1_655
O120 S11 1.449529 1_555
O120 Zn4 2.338116 1_555
O121 S12 1.477998 1_555
O122 S8 1.458194 1_455
O122 Zn4 2.156589 1_555
O123 Si10 1.664261 1_555
O124 S9 1.455579 1_565
O124 Zn4 2.223706 1_555
O125 S10 1.466560 1_565
O126 Si9 1.644484 1_565
O127 S5 1.452556 1_565
O127 Zn5 2.312368 1_555
O128 S6 1.487545 1_555
O129 S7 1.451822 1_555
O129 Zn5 2.194680 1_555
O130 Si8 1.672614 1_455
O131 S4 1.462572 1_555
O131 Zn5 2.148618 1_555
O132 S0 1.474504 1_555
O133 Si0 1.664848 1_555
O134 Si1 1.642302 1_555
O135 Si2 1.668816 1_555
O136 Si3 1.653360 1_555
O137 S1 1.537066 1_555
O138 Si4 1.667652 1_555
O139 S2 1.470453 1_555
O140 S3 1.529889 1_455
O141 Si5 1.659504 1_555
O142 Si6 1.671168 1_555
O143 Si7 1.647111 1_555
