# generated using pymatgen
data_LaSi2Rh3
_symmetry_space_group_name_H-M   'P 1'
_cell_length_a   5.62010782
_cell_length_b   5.62010821
_cell_length_c   3.64530382
_cell_angle_alpha   90.00000000
_cell_angle_beta   90.00000000
_cell_angle_gamma   119.99999773
_symmetry_Int_Tables_number   1
_chemical_formula_structural   LaSi2Rh3
_chemical_formula_sum   'La1 Si2 Rh3'
_cell_volume   99.71343952
_cell_formula_units_Z   1
loop_
 _symmetry_equiv_pos_site_id
 _symmetry_equiv_pos_as_xyz
  1  'x, y, z'
loop_
 _atom_site_type_symbol
 _atom_site_label
 _atom_site_symmetry_multiplicity
 _atom_site_fract_x
 _atom_site_fract_y
 _atom_site_fract_z
 _atom_site_occupancy
  La  La0  1  -0.00000000  -0.00000000  0.00000000  1
  Si  Si0  1  0.66666700  0.33333300  0.00000000  1
  Si  Si1  1  0.33333300  0.66666700  -0.00000000  1
  Rh  Rh0  1  0.50000000  -0.00000000  0.50000000  1
  Rh  Rh1  1  -0.00000000  0.50000000  0.50000000  1
  Rh  Rh2  1  0.50000000  0.50000000  0.50000000  1
loop_
_geom_bond_atom_site_label_1
_geom_bond_atom_site_label_2
_geom_bond_distance
_geom_bond_site_symmetry_2
La0 Si1 3.244768 1_545
La0 Si0 3.244768 1_455
La0 Si1 3.244772 1_445
La0 Si0 3.244772 1_555
La0 Si0 3.244773 1_445
La0 Si1 3.244773 1_555
La0 Rh0 3.349397 1_455
La0 Rh0 3.349397 1_554
La0 Rh0 3.349397 1_555
La0 Rh0 3.349397 1_454
La0 Rh1 3.349398 1_544
La0 Rh1 3.349398 1_555
La0 Rh1 3.349398 1_545
La0 Rh2 3.349398 1_444
La0 Rh2 3.349398 1_445
La0 Rh2 3.349398 1_555
La0 Rh1 3.349398 1_554
La0 Rh2 3.349398 1_554
Rh0 Si0 2.440121 1_556
Rh0 Si0 2.440121 1_555
Rh0 Si1 2.440121 1_545
Rh0 Si1 2.440121 1_546
Rh1 Si1 2.440121 1_556
Rh1 Si0 2.440121 1_455
Rh1 Si0 2.440121 1_456
Rh1 Si1 2.440121 1_555
Rh2 Si0 2.440124 1_556
Rh2 Si0 2.440124 1_555
Rh2 Si1 2.440124 1_555
Rh2 Si1 2.440124 1_556
