# generated using pymatgen
data_Na6HfZn7(SO4)12
_symmetry_space_group_name_H-M   'P 1'
_cell_length_a   17.57344458
_cell_length_b   8.77937734
_cell_length_c   22.73988459
_cell_angle_alpha   89.96541666
_cell_angle_beta   90.06075008
_cell_angle_gamma   119.97296982
_symmetry_Int_Tables_number   1
_chemical_formula_structural   Na6HfZn7(SO4)12
_chemical_formula_sum   'Na18 Hf3 Zn21 S36 O144'
_cell_volume   3039.18740082
_cell_formula_units_Z   3
loop_
 _symmetry_equiv_pos_site_id
 _symmetry_equiv_pos_as_xyz
  1  'x, y, z'
loop_
 _atom_site_type_symbol
 _atom_site_label
 _atom_site_symmetry_multiplicity
 _atom_site_fract_x
 _atom_site_fract_y
 _atom_site_fract_z
 _atom_site_occupancy
  Na  Na0  1  0.31974473  0.63892214  0.74964659  1
  Na  Na1  1  0.64884221  0.33077611  0.58413460  1
  Na  Na2  1  0.98556225  0.66666525  0.91678584  1
  Na  Na3  1  0.66598116  0.30152459  0.91521120  1
  Na  Na4  1  0.16723240  0.03097990  0.41674663  1
  Na  Na5  1  0.66630477  0.03034943  0.41683001  1
  Na  Na6  1  0.99545527  0.00164725  0.49457634  1
  Na  Na7  1  0.48771243  0.98499576  0.50081552  1
  Na  Na8  1  0.00243011  0.01434981  0.99603153  1
  Na  Na9  1  0.49238313  0.98715390  0.99438585  1
  Na  Na10  1  0.33656486  0.32626395  0.83578558  1
  Na  Na11  1  0.83154162  0.32002987  0.82973538  1
  Na  Na12  1  0.33887564  0.34337571  0.33289625  1
  Na  Na13  1  0.83934004  0.34405850  0.33250694  1
  Na  Na14  1  0.16746845  0.66685239  0.16673557  1
  Na  Na15  1  0.66609777  0.66626104  0.16689199  1
  Na  Na16  1  0.16564636  0.67150455  0.66405177  1
  Na  Na17  1  0.66319786  0.67330561  0.66923850  1
  Hf  Hf0  1  0.00044155  0.00157574  0.64792387  1
  Hf  Hf1  1  0.00053038  0.00069379  0.14818469  1
  Hf  Hf2  1  0.49922478  0.99946833  0.14781763  1
  Zn  Zn0  1  0.99609762  0.99926257  0.34959110  1
  Zn  Zn1  1  0.49483571  0.99841787  0.34992574  1
  Zn  Zn2  1  0.00102502  0.00872093  0.84953386  1
  Zn  Zn3  1  0.49636852  0.99505359  0.84807955  1
  Zn  Zn4  1  0.49655027  0.99255871  0.65154581  1
  Zn  Zn5  1  0.33813714  0.33226813  0.68031025  1
  Zn  Zn6  1  0.83068148  0.32788191  0.68420843  1
  Zn  Zn7  1  0.33352738  0.33345502  0.18260049  1
  Zn  Zn8  1  0.83338682  0.33317149  0.18341741  1
  Zn  Zn9  1  0.33357554  0.33660555  0.98281173  1
  Zn  Zn10  1  0.83322792  0.32211901  0.98568499  1
  Zn  Zn11  1  0.33814356  0.34416341  0.48510396  1
  Zn  Zn12  1  0.83903333  0.33848631  0.48355812  1
  Zn  Zn13  1  0.17010757  0.66785942  0.01520733  1
  Zn  Zn14  1  0.66439788  0.66825332  0.01537751  1
  Zn  Zn15  1  0.16939333  0.66301391  0.51575779  1
  Zn  Zn16  1  0.66453804  0.67097572  0.51426144  1
  Zn  Zn17  1  0.16690705  0.66370615  0.31776139  1
  Zn  Zn18  1  0.66639911  0.66328074  0.31691890  1
  Zn  Zn19  1  0.16777989  0.67352895  0.81962533  1
  Zn  Zn20  1  0.66382057  0.66430888  0.81627178  1
  S  S0  1  0.14872124  0.00071260  0.25212591  1
  S  S1  1  0.64842243  0.00098698  0.25201652  1
  S  S2  1  0.35195948  0.70286266  0.25133553  1
  S  S3  1  0.85219789  0.70360245  0.25130445  1
  S  S4  1  0.99964324  0.29612587  0.25139068  1
  S  S5  1  0.49971475  0.29591204  0.25134150  1
  S  S6  1  0.14799613  0.29509778  0.75133997  1
  S  S7  1  0.64818397  0.29636045  0.74996228  1
  S  S8  1  0.99955441  0.70303491  0.75208292  1
  S  S9  1  0.50114613  0.70608908  0.74970551  1
  S  S10  1  0.35228302  0.00229284  0.75018927  1
  S  S11  1  0.85252413  0.00035049  0.75154361  1
  S  S12  1  0.48098396  0.33352263  0.58280559  1
  S  S13  1  0.98002104  0.33866289  0.58400928  1
  S  S14  1  0.18806345  0.03814961  0.58280754  1
  S  S15  1  0.68681612  0.03755054  0.58260952  1
  S  S16  1  0.33282053  0.62846120  0.58453295  1
  S  S17  1  0.83246716  0.62353799  0.58319433  1
  S  S18  1  0.48018815  0.62208788  0.08362019  1
  S  S19  1  0.98074566  0.62322620  0.08272728  1
  S  S20  1  0.33068369  0.04034448  0.08331218  1
  S  S21  1  0.83078139  0.03786114  0.08403993  1
  S  S22  1  0.18910706  0.33828788  0.08344979  1
  S  S23  1  0.68833692  0.33829318  0.08289162  1
  S  S24  1  0.31449737  0.66571247  0.91581680  1
  S  S25  1  0.81358240  0.66950742  0.91711022  1
  S  S26  1  0.02032954  0.37223785  0.91696569  1
  S  S27  1  0.51893900  0.37325998  0.91680009  1
  S  S28  1  0.16749038  0.96305484  0.91700866  1
  S  S29  1  0.66684501  0.95984536  0.91647362  1
  S  S30  1  0.31396365  0.96040517  0.41681527  1
  S  S31  1  0.81381017  0.95879070  0.41676289  1
  S  S32  1  0.16666032  0.37252800  0.41645895  1
  S  S33  1  0.66691698  0.37241737  0.41737534  1
  S  S34  1  0.01969941  0.66447194  0.41663758  1
  S  S35  1  0.51874286  0.66500296  0.41546678  1
  O  O0  1  0.10832116  0.02527199  0.30558583  1
  O  O1  1  0.60829486  0.02551385  0.30564403  1
  O  O2  1  0.40634922  0.78497488  0.30354974  1
  O  O3  1  0.90649502  0.78554842  0.30359345  1
  O  O4  1  0.48730824  0.18809692  0.30362395  1
  O  O5  1  0.98679365  0.18781027  0.30359036  1
  O  O6  1  0.10692526  0.18730169  0.80354384  1
  O  O7  1  0.60776302  0.19031357  0.80413091  1
  O  O8  1  0.48427571  0.78457688  0.80251741  1
  O  O9  1  0.98736875  0.78351503  0.80577384  1
  O  O10  1  0.40515739  0.02820098  0.80370805  1
  O  O11  1  0.90661278  0.02571943  0.80382996  1
  O  O12  1  0.39142075  0.96790226  0.69737821  1
  O  O13  1  0.89869927  0.97945220  0.69779022  1
  O  O14  1  0.09194099  0.20544361  0.69758047  1
  O  O15  1  0.59567698  0.21501265  0.69564558  1
  O  O16  1  0.01021897  0.81968918  0.69924045  1
  O  O17  1  0.51378082  0.81188403  0.69618386  1
  O  O18  1  0.39787024  0.81716160  0.19756239  1
  O  O19  1  0.89793164  0.81735747  0.19753883  1
  O  O20  1  0.01030768  0.20401627  0.19754608  1
  O  O21  1  0.51055134  0.20400994  0.19753208  1
  O  O22  1  0.09049391  0.97946654  0.19915060  1
  O  O23  1  0.59053339  0.98010382  0.19905794  1
  O  O24  1  0.44293461  0.36122096  0.63666526  1
  O  O25  1  0.93926874  0.36067233  0.63720388  1
  O  O26  1  0.24037524  0.12289232  0.63559626  1
  O  O27  1  0.74130075  0.12189620  0.63507193  1
  O  O28  1  0.31995794  0.52478732  0.63968667  1
  O  O29  1  0.81899850  0.51699685  0.63626866  1
  O  O30  1  0.44037602  0.51999069  0.13724499  1
  O  O31  1  0.93830898  0.51720470  0.13517899  1
  O  O32  1  0.31970691  0.11962358  0.13714346  1
  O  O33  1  0.81978318  0.11974924  0.13702861  1
  O  O34  1  0.23994550  0.36037242  0.13720835  1
  O  O35  1  0.74145463  0.35934037  0.13528063  1
  O  O36  1  0.22456361  0.30186683  0.03028081  1
  O  O37  1  0.72286305  0.30381687  0.02795218  1
  O  O38  1  0.42674964  0.55122839  0.03025819  1
  O  O39  1  0.92846937  0.55442554  0.02786441  1
  O  O40  1  0.34848960  0.14804863  0.03020427  1
  O  O41  1  0.84986110  0.14503368  0.03032283  1
  O  O42  1  0.22201801  0.14100136  0.52807103  1
  O  O43  1  0.72535100  0.14752527  0.52824491  1
  O  O44  1  0.34525495  0.54416347  0.53196583  1
  O  O45  1  0.84977325  0.55191067  0.52986135  1
  O  O46  1  0.42774367  0.30653938  0.52963426  1
  O  O47  1  0.92677600  0.30083680  0.53036198  1
  O  O48  1  0.27261444  0.69256058  0.96814990  1
  O  O49  1  0.77407570  0.69395266  0.97086358  1
  O  O50  1  0.07257841  0.45272301  0.97057024  1
  O  O51  1  0.57562704  0.45145968  0.96974478  1
  O  O52  1  0.14972308  0.84815312  0.96938737  1
  O  O53  1  0.65460807  0.85738752  0.97059251  1
  O  O54  1  0.27370016  0.85432692  0.47033758  1
  O  O55  1  0.77389376  0.85302695  0.47049225  1
  O  O56  1  0.15276300  0.45021789  0.46996468  1
  O  O57  1  0.65484258  0.44915125  0.47256339  1
  O  O58  1  0.07563462  0.69710826  0.46955766  1
  O  O59  1  0.57453765  0.69977842  0.46878260  1
  O  O60  1  0.05961347  0.63971099  0.36274118  1
  O  O61  1  0.55970109  0.64001716  0.36237487  1
  O  O62  1  0.25799283  0.88180682  0.36368128  1
  O  O63  1  0.75778263  0.88000418  0.36383239  1
  O  O64  1  0.17957217  0.47698973  0.36276711  1
  O  O65  1  0.67952725  0.48081536  0.36482202  1
  O  O66  1  0.05938064  0.48354437  0.86369337  1
  O  O67  1  0.55955104  0.47937594  0.86340620  1
  O  O68  1  0.17941662  0.88319549  0.86296200  1
  O  O69  1  0.68067003  0.88121117  0.86327446  1
  O  O70  1  0.26287949  0.63937939  0.86041687  1
  O  O71  1  0.75886422  0.63802912  0.86408463  1
  O  O72  1  0.01309135  0.82899691  0.41126097  1
  O  O73  1  0.51250209  0.82949151  0.41004559  1
  O  O74  1  0.40263979  0.98054871  0.41077287  1
  O  O75  1  0.90263124  0.97997488  0.41086463  1
  O  O76  1  0.08787430  0.19000803  0.41135755  1
  O  O77  1  0.58819362  0.19145811  0.41197226  1
  O  O78  1  0.00916232  0.19414945  0.91085579  1
  O  O79  1  0.51294634  0.19633362  0.91124607  1
  O  O80  1  0.08475258  0.97488860  0.91147579  1
  O  O81  1  0.58855332  0.98499099  0.91127050  1
  O  O82  1  0.40315438  0.82607107  0.91084829  1
  O  O83  1  0.90464290  0.82328522  0.91135687  1
  O  O84  1  0.49301903  0.17610989  0.58822212  1
  O  O85  1  0.98953705  0.17436617  0.59186953  1
  O  O86  1  0.09675000  0.02009240  0.59125451  1
  O  O87  1  0.59888210  0.02595273  0.58839233  1
  O  O88  1  0.41281621  0.80591095  0.58913140  1
  O  O89  1  0.91245300  0.80581392  0.59119505  1
  O  O90  1  0.49000652  0.80548099  0.09138616  1
  O  O91  1  0.98967921  0.80508631  0.09076380  1
  O  O92  1  0.41266978  0.02066514  0.09103533  1
  O  O93  1  0.91267380  0.01935929  0.09155871  1
  O  O94  1  0.09736716  0.17397257  0.09124771  1
  O  O95  1  0.59770917  0.17427629  0.09089396  1
  O  O96  1  0.34118226  0.15779600  0.74346832  1
  O  O97  1  0.84544619  0.15991977  0.74385090  1
  O  O98  1  0.23635594  0.31628180  0.74368217  1
  O  O99  1  0.73719327  0.31324145  0.74510957  1
  O  O100  1  0.41872539  0.52891850  0.74433289  1
  O  O101  1  0.92033936  0.52989207  0.74365445  1
  O  O102  1  0.34414281  0.52892240  0.24322502  1
  O  O103  1  0.84437191  0.52942146  0.24321514  1
  O  O104  1  0.42055377  0.31160698  0.24343604  1
  O  O105  1  0.92045142  0.31190828  0.24337925  1
  O  O106  1  0.23526725  0.15942316  0.24369119  1
  O  O107  1  0.73524522  0.15989268  0.24374375  1
  O  O108  1  0.32297785  0.50601779  0.92178599  1
  O  O109  1  0.82295656  0.50707448  0.92226955  1
  O  O110  1  0.43053319  0.35255848  0.92338253  1
  O  O111  1  0.93153264  0.35992166  0.92213046  1
  O  O112  1  0.24544152  0.13935495  0.92340230  1
  O  O113  1  0.74586545  0.14324568  0.92160446  1
  O  O114  1  0.32047092  0.13734778  0.42251001  1
  O  O115  1  0.82020605  0.13588467  0.42222934  1
  O  O116  1  0.24519221  0.34787543  0.42188750  1
  O  O117  1  0.74569302  0.34831437  0.42192677  1
  O  O118  1  0.43030388  0.50830421  0.42193195  1
  O  O119  1  0.93065111  0.50810924  0.42263389  1
  O  O120  1  0.17532794  0.49055658  0.07780656  1
  O  O121  1  0.67549952  0.49134660  0.07769750  1
  O  O122  1  0.07002541  0.64902653  0.07743190  1
  O  O123  1  0.56996593  0.64893359  0.07814557  1
  O  O124  1  0.25446269  0.86081782  0.07772632  1
  O  O125  1  0.75442026  0.85974874  0.07799447  1
  O  O126  1  0.17420830  0.85864674  0.57808856  1
  O  O127  1  0.67688964  0.86048544  0.57687170  1
  O  O128  1  0.25279068  0.64571686  0.57895074  1
  O  O129  1  0.75370894  0.64328706  0.57749461  1
  O  O130  1  0.06931719  0.49102650  0.57820816  1
  O  O131  1  0.57206013  0.49112527  0.57738148  1
  O  O132  1  0.15401787  0.83821519  0.25379558  1
  O  O133  1  0.65423844  0.83889204  0.25371570  1
  O  O134  1  0.26544788  0.69226878  0.25371630  1
  O  O135  1  0.76551830  0.69234538  0.25376045  1
  O  O136  1  0.08064329  0.46931374  0.25356274  1
  O  O137  1  0.58094928  0.46919578  0.25348833  1
  O  O138  1  0.15594538  0.47149274  0.75371408  1
  O  O139  1  0.65751461  0.47406118  0.75504120  1
  O  O140  1  0.08065283  0.69191720  0.75387347  1
  O  O141  1  0.57950032  0.68576573  0.75582731  1
  O  O142  1  0.26383880  0.83624500  0.75571906  1
  O  O143  1  0.76598510  0.83914712  0.75375183  1
loop_
_geom_bond_atom_site_label_1
_geom_bond_atom_site_label_2
_geom_bond_distance
_geom_bond_site_symmetry_2
Na0 O100 2.377396 1_555
Na0 O142 2.384655 1_555
Na0 O98 2.458024 1_555
Na0 O138 2.495547 1_555
Na0 O28 2.695043 1_555
Na0 O70 2.711620 1_555
Na0 O12 2.775828 1_555
Na0 O8 2.782244 1_555
Na1 O87 2.365213 1_555
Na1 O84 2.374050 1_555
Na1 O131 2.392352 1_555
Na1 O129 2.427884 1_555
Na1 O15 2.718269 1_555
Na1 O57 2.723238 1_555
Na1 O29 2.851305 1_555
Na1 O43 2.859852 1_555
Na2 O111 2.369303 1_555
Na2 O80 2.379609 1_655
Na2 O83 2.425132 1_555
Na2 O109 2.478768 1_555
Na2 O39 2.715217 1_556
Na2 O9 2.718550 1_555
Na2 O52 2.773835 1_655
Na2 O66 2.795467 1_655
Na3 O79 2.368876 1_555
Na3 O81 2.409147 1_545
Na3 O113 2.423090 1_555
Na3 O109 2.432596 1_555
Na3 O7 2.716587 1_555
Na3 O37 2.747144 1_556
Na3 O51 2.808262 1_555
Na3 O71 2.815221 1_555
Na4 O114 2.372295 1_555
Na4 O72 2.386977 1_545
Na4 O116 2.412991 1_555
Na4 O76 2.419530 1_555
Na4 O42 2.708695 1_555
Na4 O0 2.721536 1_555
Na4 O62 2.794347 1_545
Na4 O58 2.812571 1_545
Na5 O73 2.382413 1_545
Na5 O115 2.384087 1_555
Na5 O77 2.415896 1_555
Na5 O117 2.420983 1_555
Na5 O1 2.717546 1_555
Na5 O43 2.735858 1_555
Na5 O59 2.782558 1_545
Na5 O63 2.811612 1_545
Na6 O75 2.450417 1_545
Na6 O76 2.504541 1_655
Na6 O72 2.541089 1_645
Na6 O85 2.714253 1_555
Na6 O89 2.721634 1_545
Na6 O86 2.780694 1_655
Na7 O88 2.484285 1_555
Na7 O74 2.522774 1_555
Na7 O84 2.573292 1_565
Na7 O73 2.629393 1_555
Na7 O87 2.683786 1_565
Na7 O77 2.700040 1_565
Na8 O78 2.463224 1_555
Na8 O80 2.533286 1_545
Na8 O83 2.567300 1_445
Na8 O94 2.663708 1_556
Na8 O93 2.699144 1_456
Na8 O91 2.766047 1_446
Na9 O82 2.418383 1_555
Na9 O79 2.532131 1_565
Na9 O81 2.543169 1_555
Na9 O92 2.701543 1_566
Na9 O90 2.709340 1_556
Na9 O95 2.810426 1_566
Na10 O110 2.522055 1_555
Na10 O112 2.569805 1_555
Na10 O96 2.593294 1_555
Na10 O108 2.598700 1_555
Na10 O100 2.647668 1_555
Na10 O98 2.708072 1_555
Na11 O97 2.489448 1_555
Na11 O99 2.520016 1_555
Na11 O113 2.589969 1_555
Na11 O101 2.605916 1_555
Na11 O111 2.646307 1_555
Na11 O109 2.720200 1_555
Na12 O118 2.539579 1_555
Na12 O102 2.581835 1_555
Na12 O104 2.585225 1_555
Na12 O116 2.622843 1_555
Na12 O114 2.634656 1_555
Na12 O106 2.663875 1_555
Na13 O119 2.556751 1_555
Na13 O105 2.574491 1_555
Na13 O103 2.575196 1_555
Na13 O117 2.629269 1_555
Na13 O115 2.645555 1_555
Na13 O107 2.659998 1_555
Na14 O134 2.556587 1_555
Na14 O136 2.567578 1_555
Na14 O132 2.568760 1_555
Na14 O120 2.592695 1_555
Na14 O124 2.595193 1_555
Na14 O122 2.608839 1_555
Na15 O137 2.554498 1_555
Na15 O133 2.560986 1_555
Na15 O135 2.569160 1_555
Na15 O123 2.585754 1_555
Na15 O125 2.597940 1_555
Na15 O121 2.599492 1_555
Na16 O126 2.508589 1_555
Na16 O128 2.548474 1_555
Na16 O130 2.550200 1_555
Na16 O140 2.590243 1_555
Na16 O142 2.630006 1_555
Na16 O138 2.639504 1_555
Na17 O141 2.493910 1_555
Na17 O143 2.538561 1_555
Na17 O139 2.588149 1_555
Na17 O127 2.602297 1_555
Na17 O131 2.631321 1_555
Na17 O129 2.716322 1_555
Hf0 O13 2.043876 1_445
Hf0 O14 2.046230 1_555
Hf0 O16 2.052478 1_545
Hf0 O85 2.061645 1_455
Hf0 O86 2.069052 1_555
Hf0 O89 2.086137 1_445
Hf1 O22 2.041476 1_545
Hf1 O20 2.042402 1_555
Hf1 O19 2.050260 1_445
Hf1 O94 2.074170 1_555
Hf1 O93 2.077747 1_455
Hf1 O91 2.089368 1_445
Hf2 O18 2.041427 1_555
Hf2 O21 2.046263 1_565
Hf2 O23 2.056629 1_555
Hf2 O92 2.072177 1_565
Hf2 O90 2.073644 1_555
Hf2 O95 2.091564 1_565
O0 S0 1.477670 1_555
O0 Zn0 2.120572 1_445
O1 S1 1.478056 1_555
O1 Zn1 2.139185 1_545
O2 S2 1.467381 1_555
O2 Zn1 2.032008 1_555
O3 S3 1.467856 1_555
O3 Zn0 2.034895 1_555
O4 S5 1.466273 1_555
O4 Zn1 2.029012 1_545
O5 S4 1.465925 1_555
O5 Zn0 2.032008 1_545
O6 S6 1.464160 1_555
O6 Zn2 2.025338 1_555
O7 S7 1.492769 1_555
O7 Zn3 2.102050 1_545
O8 S9 1.486891 1_555
O8 Zn3 2.035352 1_555
O9 S8 1.479368 1_555
O9 Zn2 2.117727 1_665
O10 S10 1.477496 1_555
O10 Zn3 2.033308 1_545
O11 S11 1.467372 1_555
O11 Zn2 2.024537 1_655
O12 S10 1.488654 1_565
O12 Zn4 2.037281 1_555
O13 S11 1.528852 1_565
O14 S6 1.519299 1_555
O15 S7 1.492409 1_555
O15 Zn4 2.110392 1_545
O16 S8 1.528116 1_455
O17 S9 1.478654 1_555
O17 Zn4 2.028651 1_555
O18 S2 1.531270 1_555
O19 S3 1.528644 1_555
O20 S4 1.530156 1_455
O21 S5 1.529614 1_555
O22 S0 1.529699 1_565
O23 S1 1.526470 1_565
O24 S12 1.473379 1_555
O24 Zn5 1.994278 1_555
O25 S13 1.467595 1_555
O25 Zn6 2.078908 1_555
O26 S14 1.467978 1_555
O26 Zn5 2.051212 1_555
O27 S15 1.475990 1_555
O27 Zn6 2.036314 1_555
O28 S16 1.498728 1_555
O28 Zn5 2.085476 1_555
O29 S17 1.471591 1_555
O29 Zn6 2.079698 1_555
O30 S18 1.467585 1_555
O30 Zn7 2.049630 1_555
O31 S19 1.467021 1_555
O31 Zn8 2.058882 1_555
O32 S20 1.468264 1_555
O32 Zn7 2.048906 1_555
O33 S21 1.465097 1_555
O33 Zn8 2.057912 1_555
O34 S22 1.468017 1_555
O34 Zn7 2.051901 1_555
O35 S23 1.466390 1_555
O35 Zn8 2.056174 1_555
O36 S22 1.467462 1_555
O36 Zn9 2.085276 1_554
O37 S23 1.485297 1_555
O37 Zn10 2.098484 1_554
O38 S18 1.468375 1_555
O38 Zn9 2.076419 1_554
O39 S19 1.486366 1_555
O39 Zn10 2.114022 1_554
O40 S20 1.467744 1_555
O40 Zn9 2.097924 1_554
O41 S21 1.474483 1_555
O41 Zn10 1.996099 1_554
O42 S14 1.477345 1_555
O42 Zn11 2.160038 1_555
O43 S15 1.505368 1_555
O43 Zn12 2.118995 1_555
O44 S16 1.479050 1_555
O44 Zn11 2.004249 1_555
O45 S17 1.466827 1_555
O45 Zn12 2.074552 1_555
O46 S12 1.473067 1_555
O46 Zn11 2.032167 1_555
O47 S13 1.470252 1_555
O47 Zn12 2.030998 1_555
O48 S24 1.479545 1_555
O48 Zn13 2.012613 1_556
O49 S25 1.474174 1_555
O49 Zn14 2.088018 1_556
O50 S26 1.476020 1_555
O50 Zn13 2.073487 1_556
O51 S27 1.492766 1_555
O51 Zn14 2.040884 1_556
O52 S28 1.489432 1_555
O52 Zn13 2.069592 1_556
O53 S29 1.475072 1_555
O53 Zn14 2.026565 1_556
O54 S30 1.480312 1_555
O54 Zn15 2.042922 1_555
O55 S31 1.482119 1_555
O55 Zn16 2.042411 1_555
O56 S32 1.474222 1_555
O56 Zn15 2.028835 1_555
O57 S33 1.489371 1_555
O57 Zn16 2.095508 1_555
O58 S34 1.487612 1_555
O58 Zn15 2.096869 1_555
O59 S35 1.491081 1_555
O59 Zn16 2.007691 1_555
O60 S34 1.481839 1_555
O60 Zn17 2.062206 1_555
O61 S35 1.477736 1_555
O61 Zn18 2.060874 1_555
O62 S30 1.491254 1_555
O62 Zn17 2.062861 1_555
O63 S31 1.488158 1_555
O63 Zn18 2.069554 1_555
O64 S32 1.474650 1_555
O64 Zn17 2.036205 1_555
O65 S33 1.473569 1_555
O65 Zn18 2.042706 1_555
O66 S26 1.491191 1_555
O66 Zn19 2.059698 1_555
O67 S27 1.479062 1_555
O67 Zn20 2.042533 1_555
O68 S28 1.481343 1_555
O68 Zn19 2.006725 1_555
O69 S29 1.472521 1_555
O69 Zn20 2.072367 1_555
O70 S24 1.500580 1_555
O70 Zn19 2.059209 1_555
O71 S25 1.478981 1_555
O71 Zn20 2.099040 1_555
O72 S34 1.510681 1_555
O72 Zn0 2.175534 1_455
O73 S35 1.506876 1_555
O73 Zn1 2.149790 1_555
O74 S30 1.484471 1_555
O74 Zn1 2.077183 1_555
O75 S31 1.483009 1_555
O75 Zn0 2.096344 1_555
O76 S32 1.510373 1_555
O76 Zn0 2.162810 1_445
O77 S33 1.502261 1_555
O77 Zn1 2.185037 1_545
O78 S26 1.481887 1_555
O78 Zn2 2.094009 1_555
O79 S27 1.508825 1_555
O79 Zn3 2.181419 1_545
O80 S28 1.513683 1_555
O80 Zn2 2.160785 1_565
O81 S29 1.502939 1_555
O81 Zn3 2.198856 1_555
O82 S24 1.493562 1_555
O82 Zn3 2.120335 1_555
O83 S25 1.497381 1_555
O83 Zn2 2.177783 1_665
O84 S12 1.503853 1_555
O84 Zn4 2.184290 1_545
O85 S13 1.543095 1_555
O86 S14 1.543857 1_555
O87 S15 1.502938 1_555
O87 Zn4 2.204649 1_545
O88 S16 1.491924 1_555
O88 Zn4 2.110441 1_555
O89 S17 1.523816 1_555
O90 S18 1.541430 1_555
O91 S19 1.535276 1_555
O92 S20 1.544243 1_555
O93 S21 1.536143 1_555
O94 S22 1.545355 1_555
O95 S23 1.533606 1_555
O96 S10 1.480214 1_555
O96 Zn5 2.119178 1_555
O97 S11 1.477299 1_555
O97 Zn6 2.111957 1_555
O98 S6 1.479202 1_555
O98 Zn5 2.247227 1_555
O99 S7 1.499859 1_555
O99 Zn6 2.104089 1_555
O100 S9 1.510302 1_555
O100 Zn5 2.159054 1_555
O101 S8 1.473336 1_555
O101 Zn6 2.159062 1_555
O102 S2 1.474981 1_555
O102 Zn7 2.136048 1_555
O103 S3 1.476941 1_555
O103 Zn8 2.127159 1_555
O104 S5 1.475642 1_555
O104 Zn7 2.139578 1_555
O105 S4 1.476904 1_555
O105 Zn8 2.125014 1_555
O106 S0 1.474547 1_555
O106 Zn7 2.147653 1_555
O107 S1 1.477531 1_555
O107 Zn8 2.133453 1_555
O108 S24 1.488219 1_555
O108 Zn9 2.108635 1_555
O109 S25 1.519552 1_555
O109 Zn10 2.244617 1_555
O110 S27 1.478994 1_555
O110 Zn9 2.124935 1_555
O111 S26 1.514042 1_655
O111 Zn10 2.148276 1_555
O112 S28 1.474677 1_545
O112 Zn9 2.131030 1_555
O113 S29 1.516679 1_545
O113 Zn10 2.129689 1_555
O114 S30 1.505242 1_545
O114 Zn11 2.204090 1_555
O115 S31 1.506985 1_545
O115 Zn12 2.152261 1_555
O116 S32 1.504909 1_555
O116 Zn11 2.187228 1_555
O117 S33 1.504771 1_555
O117 Zn12 2.190579 1_555
O118 S35 1.481067 1_555
O118 Zn11 2.105637 1_555
O119 S34 1.485162 1_655
O119 Zn12 2.082261 1_555
O120 S22 1.478300 1_555
O120 Zn13 2.144185 1_555
O121 S23 1.474128 1_555
O121 Zn14 2.181308 1_555
O122 S19 1.474006 1_455
O122 Zn13 2.199380 1_555
O123 S18 1.479540 1_555
O123 Zn14 2.131542 1_555
O124 S20 1.478150 1_565
O124 Zn13 2.139562 1_555
O125 S21 1.472435 1_565
O125 Zn14 2.167327 1_555
O126 S14 1.473461 1_565
O126 Zn15 2.196261 1_555
O127 S15 1.480957 1_565
O127 Zn16 2.117474 1_555
O128 S16 1.493155 1_555
O128 Zn15 2.110355 1_555
O129 S17 1.483858 1_555
O129 Zn16 2.226595 1_555
O130 S13 1.473798 1_455
O130 Zn15 2.176921 1_555
O131 S12 1.509581 1_555
O131 Zn16 2.152377 1_555
O132 S0 1.475797 1_565
O132 Zn17 2.204024 1_555
O133 S1 1.477291 1_565
O133 Zn18 2.194131 1_555
O134 S2 1.477091 1_555
O134 Zn17 2.180304 1_555
O135 S3 1.477483 1_555
O135 Zn18 2.173172 1_555
O136 S4 1.475769 1_455
O136 Zn17 2.180643 1_555
O137 S5 1.478068 1_555
O137 Zn18 2.163479 1_555
O138 S6 1.484801 1_555
O138 Zn19 2.251633 1_555
O139 S7 1.489536 1_555
O139 Zn20 2.135014 1_555
O140 S8 1.476883 1_455
O140 Zn19 2.201777 1_555
O141 S9 1.480629 1_555
O141 Zn20 2.096363 1_555
O142 S10 1.514257 1_565
O142 Zn19 2.143686 1_555
O143 S11 1.472349 1_565
O143 Zn20 2.202255 1_555
