# generated using pymatgen
data_Na6Hf2Si5Sn2SO24
_symmetry_space_group_name_H-M   'P 1'
_cell_length_a   9.09464538
_cell_length_b   9.09513621
_cell_length_c   22.91075225
_cell_angle_alpha   90.16842235
_cell_angle_beta   89.76015542
_cell_angle_gamma   119.94711586
_symmetry_Int_Tables_number   1
_chemical_formula_structural   Na6Hf2Si5Sn2SO24
_chemical_formula_sum   'Na18 Hf6 Si15 Sn6 S3 O72'
_cell_volume   1642.07175530
_cell_formula_units_Z   3
loop_
 _symmetry_equiv_pos_site_id
 _symmetry_equiv_pos_as_xyz
  1  'x, y, z'
loop_
 _atom_site_type_symbol
 _atom_site_label
 _atom_site_symmetry_multiplicity
 _atom_site_fract_x
 _atom_site_fract_y
 _atom_site_fract_z
 _atom_site_occupancy
  Na  Na0  1  0.63612823  0.00040041  0.25178405  1
  Na  Na1  1  0.36395694  0.36429618  0.24762235  1
  Na  Na2  1  0.00133214  0.63550168  0.25011480  1
  Na  Na3  1  0.63521987  0.63440797  0.74830232  1
  Na  Na4  1  0.99750530  0.36288819  0.75034082  1
  Na  Na5  1  0.36722285  0.00393418  0.75066853  1
  Na  Na6  1  0.30199655  0.33256916  0.58503539  1
  Na  Na7  1  0.02943154  0.69837343  0.58298997  1
  Na  Na8  1  0.66934963  0.96912962  0.58322090  1
  Na  Na9  1  0.03879676  0.33710225  0.08472881  1
  Na  Na10  1  0.97526197  0.66768495  0.91742240  1
  Na  Na11  1  0.33394958  0.02549251  0.41641087  1
  Na  Na12  1  0.98788709  0.99188401  0.49882783  1
  Na  Na13  1  0.01411301  0.00548164  0.00010228  1
  Na  Na14  1  0.66143531  0.32084657  0.83451722  1
  Na  Na15  1  0.67906750  0.33765073  0.33458297  1
  Na  Na16  1  0.33334836  0.66637080  0.16549089  1
  Na  Na17  1  0.33458465  0.66612314  0.66674272  1
  Hf  Hf0  1  0.98687890  0.98988732  0.35163789  1
  Hf  Hf1  1  0.99953113  0.99974330  0.64846999  1
  Hf  Hf2  1  0.66735731  0.33360079  0.68507444  1
  Hf  Hf3  1  0.68176232  0.33660060  0.48102538  1
  Hf  Hf4  1  0.33659076  0.67757943  0.51907455  1
  Hf  Hf5  1  0.32516882  0.67040762  0.81494657  1
  Si  Si0  1  0.29485638  0.00308767  0.25135057  1
  Si  Si1  1  0.70762478  0.71032069  0.24850531  1
  Si  Si2  1  0.99914265  0.28922001  0.24879063  1
  Si  Si3  1  0.29428055  0.29454771  0.74942264  1
  Si  Si4  1  0.99773811  0.71058164  0.75163340  1
  Si  Si5  1  0.70942535  0.99890665  0.75127261  1
  Si  Si6  1  0.96159117  0.33312781  0.58405638  1
  Si  Si7  1  0.37591397  0.04528644  0.58212576  1
  Si  Si8  1  0.66573355  0.62399731  0.58304570  1
  Si  Si9  1  0.95453548  0.62809186  0.08239411  1
  Si  Si10  1  0.37489428  0.33515440  0.08267948  1
  Si  Si11  1  0.03449263  0.36608050  0.91710226  1
  Si  Si12  1  0.33656039  0.96379942  0.91783400  1
  Si  Si13  1  0.62906233  0.96082698  0.41631773  1
  Si  Si14  1  0.03848424  0.66606093  0.41593548  1
  Sn  Sn0  1  0.01251664  0.01377486  0.85167120  1
  Sn  Sn1  1  0.01080234  0.99571138  0.14883434  1
  Sn  Sn2  1  0.66725208  0.34345258  0.18508446  1
  Sn  Sn3  1  0.66063371  0.32869059  0.98139202  1
  Sn  Sn4  1  0.31595890  0.65690930  0.01843476  1
  Sn  Sn5  1  0.33031007  0.67253806  0.31427398  1
  S  S0  1  0.66482960  0.03788474  0.08350199  1
  S  S1  1  0.62391446  0.66825927  0.91697752  1
  S  S2  1  0.33350286  0.37533273  0.41650300  1
  O  O0  1  0.21366589  0.04219599  0.30887452  1
  O  O1  1  0.83118285  0.79339906  0.30485557  1
  O  O2  1  0.96464365  0.16642061  0.30458722  1
  O  O3  1  0.21615651  0.16934326  0.80523674  1
  O  O4  1  0.95812728  0.79038949  0.80983064  1
  O  O5  1  0.83403758  0.03813505  0.80690786  1
  O  O6  1  0.79048634  0.96346430  0.69236804  1
  O  O7  1  0.17369740  0.21217538  0.69187790  1
  O  O8  1  0.03650423  0.82894916  0.69364944  1
  O  O9  1  0.78875550  0.83618988  0.19255211  1
  O  O10  1  0.03656674  0.21099411  0.18946811  1
  O  O11  1  0.17151691  0.95555953  0.19500445  1
  O  O12  1  0.87914856  0.37157391  0.64155207  1
  O  O13  1  0.49471285  0.12571140  0.64012577  1
  O  O14  1  0.63113949  0.50740183  0.64160294  1
  O  O15  1  0.87898511  0.50255198  0.14041470  1
  O  O16  1  0.63495621  0.11258828  0.13740336  1
  O  O17  1  0.48426909  0.36497311  0.14305431  1
  O  O18  1  0.46063466  0.29780692  0.02645506  1
  O  O19  1  0.84196659  0.53862552  0.02351147  1
  O  O20  1  0.69860836  0.14942366  0.03167434  1
  O  O21  1  0.45977542  0.16352786  0.52480595  1
  O  O22  1  0.69983089  0.53285434  0.52791487  1
  O  O23  1  0.83568792  0.29575090  0.52879477  1
  O  O24  1  0.54494800  0.69444847  0.96960798  1
  O  O25  1  0.15141879  0.44854547  0.97528894  1
  O  O26  1  0.30022804  0.83600936  0.97355561  1
  O  O27  1  0.53861593  0.84251764  0.47395892  1
  O  O28  1  0.30882347  0.45656372  0.46905575  1
  O  O29  1  0.15992736  0.69647871  0.47317854  1
  O  O30  1  0.12143455  0.63115041  0.35715925  1
  O  O31  1  0.50755416  0.87645966  0.35825129  1
  O  O32  1  0.36107067  0.47880885  0.36296724  1
  O  O33  1  0.12451146  0.49137131  0.86034710  1
  O  O34  1  0.36401520  0.87525140  0.85914966  1
  O  O35  1  0.51996366  0.64256921  0.86383838  1
  O  O36  1  0.03875233  0.84672412  0.41072060  1
  O  O37  1  0.81715515  0.98245125  0.41131369  1
  O  O38  1  0.18128952  0.20437585  0.41137194  1
  O  O39  1  0.01414513  0.17793970  0.91216167  1
  O  O40  1  0.15368535  0.96218141  0.91191231  1
  O  O41  1  0.79679142  0.81796750  0.91181918  1
  O  O42  1  0.97805440  0.16307593  0.58900746  1
  O  O43  1  0.18636298  0.02172960  0.58886795  1
  O  O44  1  0.83471002  0.81230428  0.58907027  1
  O  O45  1  0.97037505  0.81449512  0.08805009  1
  O  O46  1  0.82267145  0.02850262  0.08879351  1
  O  O47  1  0.17797367  0.17230514  0.08825906  1
  O  O48  1  0.68887299  0.16732951  0.74443554  1
  O  O49  1  0.48196902  0.31299434  0.74344273  1
  O  O50  1  0.83172789  0.52148730  0.74497658  1
  O  O51  1  0.69064242  0.52136599  0.24531861  1
  O  O52  1  0.82755491  0.30767119  0.24256126  1
  O  O53  1  0.48573365  0.17093274  0.24292502  1
  O  O54  1  0.64367657  0.51453860  0.92102234  1
  O  O55  1  0.85235819  0.36693378  0.92342795  1
  O  O56  1  0.50645111  0.15156744  0.92262305  1
  O  O57  1  0.62944132  0.14127088  0.42215924  1
  O  O58  1  0.48439541  0.35449925  0.42216749  1
  O  O59  1  0.85063326  0.50011420  0.42165870  1
  O  O60  1  0.35572135  0.50804461  0.07643771  1
  O  O61  1  0.14249183  0.63834325  0.07918499  1
  O  O62  1  0.51338987  0.86810138  0.07621796  1
  O  O63  1  0.35641084  0.85495197  0.57747269  1
  O  O64  1  0.49476733  0.64037015  0.57650721  1
  O  O65  1  0.14926123  0.50038369  0.57564090  1
  O  O66  1  0.31401180  0.83204497  0.25469433  1
  O  O67  1  0.51606768  0.68466530  0.25739202  1
  O  O68  1  0.17161346  0.47838610  0.25615819  1
  O  O69  1  0.31457539  0.48292307  0.75771038  1
  O  O70  1  0.16858294  0.69133035  0.75657335  1
  O  O71  1  0.52151673  0.82788367  0.75745586  1
loop_
_geom_bond_atom_site_label_1
_geom_bond_atom_site_label_2
_geom_bond_distance
_geom_bond_site_symmetry_2
Na0 O52 2.455307 1_555
Na0 O67 2.515073 1_545
Na0 O53 2.537699 1_555
Na0 O66 2.540006 1_545
Na0 O31 2.695222 1_545
Na0 O16 2.816973 1_555
Na0 O9 2.835684 1_545
Na0 O2 2.861017 1_555
Na1 O68 2.446067 1_555
Na1 O53 2.504717 1_555
Na1 O67 2.535426 1_555
Na1 O51 2.575359 1_555
Na1 O17 2.628355 1_555
Na1 O32 2.842446 1_555
Na1 O0 2.903468 1_555
Na1 O10 2.908977 1_555
Na2 O51 2.479351 1_455
Na2 O66 2.493855 1_555
Na2 O68 2.583003 1_555
Na2 O52 2.590850 1_455
Na2 O30 2.697299 1_555
Na2 O15 2.771141 1_455
Na2 O11 2.823205 1_555
Na2 O1 2.867362 1_455
Na3 O71 2.454099 1_555
Na3 O50 2.466883 1_555
Na3 O49 2.536173 1_555
Na3 O69 2.536485 1_555
Na3 O14 2.693134 1_555
Na3 O35 2.857318 1_555
Na3 O6 2.895029 1_555
Na3 O4 2.913324 1_555
Na4 O48 2.465327 1_555
Na4 O69 2.528958 1_655
Na4 O50 2.557909 1_555
Na4 O70 2.593008 1_655
Na4 O12 2.735990 1_555
Na4 O33 2.776911 1_655
Na4 O5 2.869884 1_555
Na4 O7 2.899132 1_655
Na5 O49 2.467876 1_555
Na5 O70 2.497532 1_545
Na5 O48 2.538435 1_555
Na5 O71 2.608395 1_545
Na5 O34 2.744121 1_545
Na5 O13 2.773990 1_555
Na5 O3 2.784246 1_555
Na5 O8 2.920199 1_545
Na6 O64 2.459503 1_555
Na6 O43 2.477625 1_555
Na6 O65 2.535076 1_555
Na6 O42 2.555116 1_455
Na6 O7 2.696046 1_555
Na6 O28 2.877952 1_555
Na6 O14 2.904623 1_555
Na6 O21 2.915568 1_555
Na7 O44 2.461408 1_455
Na7 O65 2.532729 1_555
Na7 O43 2.552052 1_565
Na7 O63 2.580125 1_555
Na7 O29 2.780927 1_555
Na7 O8 2.783818 1_555
Na7 O22 2.891217 1_455
Na7 O12 2.907725 1_455
Na8 O42 2.463487 1_565
Na8 O63 2.499475 1_555
Na8 O44 2.541374 1_555
Na8 O64 2.597068 1_555
Na8 O6 2.747745 1_555
Na8 O27 2.765341 1_555
Na8 O23 2.861369 1_565
Na8 O13 2.912124 1_565
Na9 O47 2.398122 1_555
Na9 O61 2.415263 1_555
Na9 O46 2.498396 1_455
Na9 O60 2.506814 1_555
Na9 O10 2.658355 1_555
Na9 O25 2.705586 1_554
Na9 O15 2.856803 1_455
Na9 O20 2.951263 1_455
Na10 O40 2.341841 1_655
Na10 O55 2.387238 1_555
Na10 O41 2.595584 1_555
Na10 O54 2.616475 1_555
Na10 O19 2.706763 1_556
Na10 O4 2.745735 1_555
Na10 O26 2.869715 1_655
Na10 O33 2.875744 1_655
Na11 O36 2.347730 1_545
Na11 O57 2.350547 1_555
Na11 O58 2.599070 1_555
Na11 O38 2.616424 1_555
Na11 O0 2.735046 1_555
Na11 O21 2.761179 1_555
Na11 O31 2.866028 1_545
Na11 O29 2.903134 1_545
Na12 O37 2.516052 1_555
Na12 O44 2.570421 1_555
Na12 O36 2.572567 1_655
Na12 O42 2.611425 1_565
Na12 O43 2.669483 1_665
Na12 O38 2.728183 1_665
Na13 O40 2.514307 1_544
Na13 O47 2.520319 1_555
Na13 O39 2.556905 1_554
Na13 O45 2.561171 1_445
Na13 O46 2.745185 1_455
Na13 O41 2.748427 1_444
Na14 O56 2.501920 1_555
Na14 O48 2.568627 1_555
Na14 O55 2.576440 1_555
Na14 O49 2.633290 1_555
Na14 O50 2.666613 1_555
Na14 O54 2.705235 1_555
Na15 O59 2.510926 1_555
Na15 O57 2.574549 1_555
Na15 O52 2.585213 1_555
Na15 O51 2.613083 1_555
Na15 O53 2.674129 1_555
Na15 O58 2.724690 1_555
Na16 O60 2.559200 1_555
Na16 O61 2.563540 1_555
Na16 O66 2.592623 1_555
Na16 O68 2.624167 1_555
Na16 O67 2.640750 1_555
Na16 O62 2.688000 1_555
Na17 O64 2.600721 1_555
Na17 O63 2.617032 1_555
Na17 O69 2.620606 1_555
Na17 O70 2.623803 1_555
Na17 O71 2.624605 1_555
Na17 O65 2.635119 1_555
Hf0 O1 1.955124 1_555
Hf0 O2 2.029040 1_565
Hf0 O37 2.033503 1_555
Hf0 O36 2.092684 1_655
Hf0 O0 2.108663 1_665
Hf0 O38 2.316376 1_665
Hf1 O6 2.023493 1_555
Hf1 O8 2.032585 1_655
Hf1 O7 2.043875 1_665
Hf1 O42 2.098744 1_565
Hf1 O43 2.105890 1_665
Hf1 O44 2.111245 1_555
Hf2 O14 2.032497 1_555
Hf2 O13 2.034440 1_555
Hf2 O12 2.036034 1_555
Hf2 O49 2.081642 1_555
Hf2 O48 2.117688 1_555
Hf2 O50 2.119267 1_555
Hf3 O23 1.957047 1_555
Hf3 O22 2.016057 1_555
Hf3 O59 2.033330 1_555
Hf3 O57 2.085364 1_555
Hf3 O21 2.092681 1_555
Hf3 O58 2.319515 1_555
Hf4 O27 1.983936 1_555
Hf4 O29 2.001905 1_555
Hf4 O63 2.030786 1_555
Hf4 O64 2.102358 1_555
Hf4 O65 2.105215 1_555
Hf4 O28 2.213560 1_555
Hf5 O34 1.989031 1_555
Hf5 O33 2.022619 1_555
Hf5 O70 2.034903 1_555
Hf5 O71 2.100698 1_555
Hf5 O69 2.111976 1_555
Hf5 O35 2.218894 1_555
O0 Si0 1.630944 1_555
O1 Si1 1.630679 1_555
O2 Si2 1.623325 1_555
O3 Si3 1.621702 1_555
O3 Sn0 1.984908 1_555
O4 Si4 1.638846 1_555
O4 Sn0 2.068964 1_665
O5 Si5 1.625458 1_545
O5 Sn0 2.027311 1_655
O6 Si5 1.641665 1_555
O7 Si3 1.639547 1_555
O8 Si4 1.635124 1_455
O9 Si1 1.629632 1_555
O9 Sn1 2.062213 1_655
O10 Si2 1.643615 1_455
O10 Sn1 2.070865 1_545
O11 Si0 1.623689 1_565
O11 Sn1 1.984141 1_555
O12 Si6 1.634146 1_555
O13 Si7 1.638727 1_555
O14 Si8 1.641686 1_555
O15 Si9 1.661579 1_555
O15 Sn2 2.014837 1_555
O16 S0 1.495674 1_555
O16 Sn2 2.249889 1_555
O17 Si10 1.648130 1_555
O17 Sn2 2.018601 1_555
O18 Si10 1.623644 1_555
O18 Sn3 1.982211 1_554
O19 Si9 1.644247 1_555
O19 Sn3 2.038462 1_554
O20 S0 1.492089 1_555
O20 Sn3 2.163646 1_554
O21 Si7 1.625990 1_555
O22 Si8 1.620477 1_555
O23 Si6 1.628078 1_555
O24 S1 1.479298 1_555
O24 Sn4 2.231126 1_556
O25 Si11 1.637134 1_555
O25 Sn4 1.994459 1_556
O26 Si12 1.646687 1_555
O26 Sn4 1.993713 1_556
O27 Si13 1.641352 1_555
O28 S2 1.484572 1_555
O29 Si14 1.649644 1_555
O30 Si14 1.646641 1_555
O30 Sn5 1.997085 1_555
O31 Si13 1.655147 1_555
O31 Sn5 2.017718 1_555
O32 S2 1.490512 1_555
O32 Sn5 2.221206 1_555
O33 Si11 1.651651 1_555
O34 Si12 1.646276 1_555
O35 S1 1.489292 1_555
O36 Si14 1.646631 1_555
O37 Si13 1.625021 1_555
O38 S2 1.482934 1_555
O39 Si11 1.630348 1_555
O39 Sn0 2.028834 1_555
O40 Si12 1.662000 1_555
O40 Sn0 2.096079 1_565
O41 S1 1.483899 1_555
O41 Sn0 2.328767 1_665
O42 Si6 1.630881 1_555
O43 Si7 1.634258 1_555
O44 Si8 1.639084 1_555
O45 Si9 1.633043 1_555
O45 Sn1 2.043732 1_655
O46 S0 1.485430 1_555
O46 Sn1 2.332428 1_645
O47 Si10 1.663835 1_555
O47 Sn1 2.091575 1_545
O48 Si5 1.641187 1_545
O49 Si3 1.634895 1_555
O50 Si4 1.633564 1_555
O51 Si1 1.648337 1_555
O51 Sn2 2.052738 1_555
O52 Si2 1.657484 1_555
O52 Sn2 2.111331 1_555
O53 Si0 1.653585 1_555
O53 Sn2 2.085939 1_555
O54 S1 1.499128 1_555
O54 Sn3 2.251608 1_555
O55 Si11 1.666044 1_655
O55 Sn3 2.074306 1_555
O56 Si12 1.637595 1_545
O56 Sn3 2.030291 1_555
O57 Si13 1.644506 1_545
O58 S2 1.482310 1_555
O59 Si14 1.624444 1_655
O60 Si10 1.672952 1_555
O60 Sn4 2.057506 1_555
O61 Si9 1.666132 1_455
O61 Sn4 2.042457 1_555
O62 S0 1.478626 1_565
O62 Sn4 2.286419 1_555
O63 Si7 1.652908 1_565
O64 Si8 1.641801 1_555
O65 Si6 1.634360 1_455
O66 Si0 1.651569 1_565
O66 Sn5 2.053754 1_555
O67 Si1 1.649974 1_555
O67 Sn5 2.088291 1_555
O68 Si2 1.659848 1_455
O68 Sn5 2.105190 1_555
O69 Si3 1.639565 1_555
O70 Si4 1.652539 1_455
O71 Si5 1.644809 1_555
