# generated using pymatgen
data_Na7MgSc3(PO4)6
_symmetry_space_group_name_H-M   'P 1'
_cell_length_a   9.06216501
_cell_length_b   9.04144605
_cell_length_c   22.50602017
_cell_angle_alpha   89.99238929
_cell_angle_beta   90.00993467
_cell_angle_gamma   120.05865454
_symmetry_Int_Tables_number   1
_chemical_formula_structural   Na7MgSc3(PO4)6
_chemical_formula_sum   'Na21 Mg3 Sc9 P18 O72'
_cell_volume   1596.03422286
_cell_formula_units_Z   3
loop_
 _symmetry_equiv_pos_site_id
 _symmetry_equiv_pos_as_xyz
  1  'x, y, z'
loop_
 _atom_site_type_symbol
 _atom_site_label
 _atom_site_symmetry_multiplicity
 _atom_site_fract_x
 _atom_site_fract_y
 _atom_site_fract_z
 _atom_site_occupancy
  Na  Na0  1  0.63744834  0.00554529  0.24748696  1
  Na  Na1  1  0.36760872  0.36211348  0.24749518  1
  Na  Na2  1  0.99416098  0.63166150  0.24696670  1
  Na  Na3  1  0.63580126  0.63090876  0.74811638  1
  Na  Na4  1  0.99535987  0.36419412  0.74861122  1
  Na  Na5  1  0.36937970  0.00475697  0.74833344  1
  Na  Na6  1  0.02961181  0.69731478  0.58399431  1
  Na  Na7  1  0.66541437  0.96915123  0.58385082  1
  Na  Na8  1  0.30389682  0.96966978  0.08407125  1
  Na  Na9  1  0.66805514  0.69678707  0.08424247  1
  Na  Na10  1  0.69756844  0.03259584  0.91849069  1
  Na  Na11  1  0.33302264  0.30162833  0.91819975  1
  Na  Na12  1  0.96887972  0.29742383  0.41461661  1
  Na  Na13  1  0.32853755  0.03136561  0.41487295  1
  Na  Na14  1  0.70304099  0.67154521  0.41461229  1
  Na  Na15  1  0.00705471  0.00758252  0.49963219  1
  Na  Na16  1  0.99997467  0.99983379  0.00165604  1
  Na  Na17  1  0.67379962  0.34109331  0.83383945  1
  Na  Na18  1  0.66680238  0.33335298  0.32960574  1
  Na  Na19  1  0.32561958  0.65854533  0.16452496  1
  Na  Na20  1  0.33284024  0.65872767  0.66489650  1
  Mg  Mg0  1  0.00024736  0.00023224  0.34774866  1
  Mg  Mg1  1  0.66531318  0.33356938  0.68176181  1
  Mg  Mg2  1  0.66858092  0.33378915  0.18164174  1
  Sc  Sc0  1  0.99949342  0.99312045  0.85126540  1
  Sc  Sc1  1  0.00662646  0.00702139  0.64813771  1
  Sc  Sc2  1  0.00057528  0.00747263  0.14904913  1
  Sc  Sc3  1  0.67489458  0.33996894  0.98454221  1
  Sc  Sc4  1  0.66453416  0.33286348  0.48525034  1
  Sc  Sc5  1  0.32503815  0.66006054  0.01870038  1
  Sc  Sc6  1  0.33287782  0.65973002  0.51820532  1
  Sc  Sc7  1  0.33329646  0.66664143  0.31553733  1
  Sc  Sc8  1  0.33135799  0.66604627  0.81790579  1
  P  P0  1  0.29460168  0.00214725  0.25104934  1
  P  P1  1  0.70738739  0.70526128  0.25119331  1
  P  P2  1  0.99773438  0.29267566  0.25214066  1
  P  P3  1  0.29583101  0.29425684  0.75068979  1
  P  P4  1  0.99834205  0.70406817  0.74874424  1
  P  P5  1  0.70609794  0.00151480  0.74973993  1
  P  P6  1  0.95965555  0.33383177  0.58462965  1
  P  P7  1  0.37275732  0.03949862  0.58442942  1
  P  P8  1  0.66563731  0.62664388  0.58515660  1
  P  P9  1  0.96037901  0.62654907  0.08598966  1
  P  P10  1  0.66694016  0.04021275  0.08399672  1
  P  P11  1  0.37482557  0.33365821  0.08412864  1
  P  P12  1  0.62733703  0.66611700  0.91697787  1
  P  P13  1  0.03723132  0.37157776  0.91565029  1
  P  P14  1  0.33287990  0.96155734  0.91720617  1
  P  P15  1  0.62984160  0.96151109  0.41692880  1
  P  P16  1  0.33156882  0.36990784  0.41592842  1
  P  P17  1  0.03864806  0.66837671  0.41702650  1
  O  O0  1  0.21347141  0.03031288  0.30648982  1
  O  O1  1  0.81681501  0.78687541  0.30660561  1
  O  O2  1  0.96877405  0.18436740  0.30802521  1
  O  O3  1  0.21322820  0.18299111  0.80666714  1
  O  O4  1  0.96975846  0.79243709  0.80263703  1
  O  O5  1  0.81860318  0.02944931  0.80528502  1
  O  O6  1  0.78820243  0.96882311  0.69455853  1
  O  O7  1  0.17644311  0.20842520  0.69722234  1
  O  O8  1  0.03195642  0.81785584  0.69320055  1
  O  O9  1  0.78810314  0.81946256  0.19529057  1
  O  O10  1  0.03227089  0.20863640  0.19790944  1
  O  O11  1  0.18070743  0.96880531  0.19515571  1
  O  O12  1  0.87912938  0.36441438  0.63972811  1
  O  O13  1  0.48462707  0.11975170  0.63927220  1
  O  O14  1  0.64113824  0.51996936  0.64036980  1
  O  O15  1  0.88146394  0.52174126  0.14180695  1
  O  O16  1  0.63514873  0.11969313  0.13905945  1
  O  O17  1  0.48533223  0.36455197  0.13948354  1
  O  O18  1  0.45580361  0.30373457  0.02746446  1
  O  O19  1  0.84486572  0.54272510  0.03097351  1
  O  O20  1  0.69164948  0.14716732  0.02711257  1
  O  O21  1  0.45517296  0.14692969  0.52746958  1
  O  O22  1  0.69637728  0.54591424  0.52845499  1
  O  O23  1  0.84823864  0.30361475  0.52793963  1
  O  O24  1  0.54367300  0.69682959  0.97195461  1
  O  O25  1  0.15670088  0.45828822  0.96878957  1
  O  O26  1  0.30831759  0.85149154  0.97232909  1
  O  O27  1  0.54406113  0.84827282  0.47217950  1
  O  O28  1  0.30299005  0.45899092  0.46952315  1
  O  O29  1  0.15178144  0.69603363  0.47228452  1
  O  O30  1  0.12137023  0.63550564  0.36172551  1
  O  O31  1  0.51440875  0.87854395  0.36160291  1
  O  O32  1  0.36548904  0.48429258  0.36019214  1
  O  O33  1  0.11921025  0.47871954  0.85871799  1
  O  O34  1  0.36241419  0.87876019  0.86103191  1
  O  O35  1  0.51517128  0.63715496  0.86069082  1
  O  O36  1  0.02055661  0.82855953  0.41137452  1
  O  O37  1  0.80774698  0.97956298  0.41144694  1
  O  O38  1  0.17177953  0.19133004  0.41105517  1
  O  O39  1  0.02131333  0.19176858  0.91044969  1
  O  O40  1  0.17666513  0.98708047  0.91112966  1
  O  O41  1  0.80268586  0.83159247  0.91043457  1
  O  O42  1  0.97094810  0.16804985  0.58897253  1
  O  O43  1  0.18955170  0.01281634  0.58856677  1
  O  O44  1  0.83006174  0.80848582  0.58873854  1
  O  O45  1  0.97888409  0.80909214  0.08911919  1
  O  O46  1  0.82316890  0.01242375  0.08852834  1
  O  O47  1  0.19717831  0.16814534  0.08886181  1
  O  O48  1  0.68727849  0.16186165  0.74434165  1
  O  O49  1  0.47420904  0.31263193  0.74447051  1
  O  O50  1  0.83842979  0.52469814  0.74421588  1
  O  O51  1  0.68520972  0.52414450  0.24477726  1
  O  O52  1  0.83872795  0.31356206  0.24471629  1
  O  O53  1  0.47551576  0.16143477  0.24452372  1
  O  O54  1  0.63798363  0.50117636  0.92210782  1
  O  O55  1  0.85595036  0.34607180  0.92153363  1
  O  O56  1  0.49657487  0.14159030  0.92153839  1
  O  O57  1  0.64577548  0.14148701  0.42232938  1
  O  O58  1  0.49537963  0.35474474  0.42243958  1
  O  O59  1  0.85882377  0.50425183  0.42254919  1
  O  O60  1  0.36133048  0.49793548  0.07690223  1
  O  O61  1  0.14376344  0.65465186  0.07800218  1
  O  O62  1  0.50384177  0.85800516  0.07742220  1
  O  O63  1  0.35430475  0.85804128  0.57765127  1
  O  O64  1  0.51060474  0.65501547  0.57800923  1
  O  O65  1  0.13661196  0.49793964  0.57730706  1
  O  O66  1  0.31174789  0.83758984  0.25592752  1
  O  O67  1  0.52601188  0.68826954  0.25595248  1
  O  O68  1  0.16200240  0.47449422  0.25617438  1
  O  O69  1  0.31299512  0.47504556  0.75555111  1
  O  O70  1  0.16210045  0.68831344  0.75535630  1
  O  O71  1  0.52564110  0.83759107  0.75551884  1
loop_
_geom_bond_atom_site_label_1
_geom_bond_atom_site_label_2
_geom_bond_distance
_geom_bond_site_symmetry_2
Na0 O52 2.449072 1_555
Na0 O53 2.493276 1_555
Na0 O67 2.526468 1_545
Na0 O66 2.561997 1_545
Na0 O16 2.653558 1_555
Na0 O31 2.806336 1_545
Na0 O9 2.894258 1_545
Na0 O2 2.936262 1_555
Na1 O53 2.455671 1_555
Na1 O51 2.491947 1_555
Na1 O68 2.537515 1_555
Na1 O67 2.559767 1_555
Na1 O17 2.650522 1_555
Na1 O32 2.770527 1_555
Na1 O10 2.860185 1_555
Na1 O0 2.918131 1_555
Na2 O51 2.461622 1_555
Na2 O52 2.490008 1_555
Na2 O66 2.534200 1_655
Na2 O68 2.557484 1_655
Na2 O15 2.571989 1_555
Na2 O30 2.821287 1_655
Na2 O11 2.889106 1_655
Na2 O1 2.935053 1_555
Na3 O50 2.463383 1_555
Na3 O49 2.492134 1_555
Na3 O71 2.526927 1_555
Na3 O69 2.538067 1_555
Na3 O14 2.634028 1_555
Na3 O35 2.771316 1_555
Na3 O4 2.892919 1_555
Na3 O6 2.909873 1_555
Na4 O48 2.456413 1_555
Na4 O50 2.491088 1_555
Na4 O69 2.534615 1_655
Na4 O70 2.541306 1_655
Na4 O12 2.667532 1_555
Na4 O33 2.703365 1_655
Na4 O7 2.886243 1_655
Na4 O5 2.914782 1_555
Na5 O49 2.451433 1_555
Na5 O48 2.495145 1_555
Na5 O70 2.521003 1_545
Na5 O71 2.541597 1_545
Na5 O13 2.666256 1_555
Na5 O34 2.768084 1_545
Na5 O8 2.927144 1_545
Na5 O3 2.934036 1_555
Na6 O65 2.442037 1_555
Na6 O43 2.471189 1_565
Na6 O44 2.472418 1_455
Na6 O63 2.550803 1_555
Na6 O8 2.684497 1_555
Na6 O29 2.749652 1_555
Na6 O12 2.894871 1_455
Na6 O22 2.900628 1_455
Na7 O42 2.434219 1_565
Na7 O64 2.461866 1_555
Na7 O63 2.477878 1_555
Na7 O44 2.553373 1_555
Na7 O6 2.729200 1_555
Na7 O27 2.741560 1_555
Na7 O13 2.886159 1_565
Na7 O23 2.907540 1_565
Na8 O47 2.430184 1_565
Na8 O61 2.469080 1_555
Na8 O62 2.481438 1_555
Na8 O45 2.551864 1_455
Na8 O11 2.736584 1_555
Na8 O26 2.740713 1_554
Na8 O16 2.881451 1_565
Na8 O18 2.911249 1_565
Na9 O60 2.445301 1_555
Na9 O46 2.472014 1_565
Na9 O45 2.472254 1_555
Na9 O62 2.556499 1_555
Na9 O9 2.729655 1_555
Na9 O24 2.767031 1_554
Na9 O19 2.860396 1_555
Na9 O17 2.885790 1_555
Na10 O41 2.444898 1_545
Na10 O55 2.454112 1_555
Na10 O56 2.468136 1_555
Na10 O39 2.545912 1_655
Na10 O20 2.666200 1_556
Na10 O5 2.779827 1_555
Na10 O24 2.892621 1_545
Na10 O34 2.932365 1_545
Na11 O54 2.430107 1_555
Na11 O40 2.466649 1_545
Na11 O39 2.487050 1_555
Na11 O56 2.538595 1_555
Na11 O18 2.695080 1_556
Na11 O3 2.731890 1_555
Na11 O25 2.850282 1_555
Na11 O35 2.930221 1_555
Na12 O38 2.464629 1_655
Na12 O37 2.488529 1_545
Na12 O59 2.528256 1_555
Na12 O57 2.540836 1_555
Na12 O2 2.607586 1_555
Na12 O23 2.786660 1_555
Na12 O28 2.897705 1_655
Na12 O30 2.904881 1_655
Na13 O36 2.455858 1_545
Na13 O38 2.485026 1_555
Na13 O57 2.533132 1_555
Na13 O58 2.536776 1_555
Na13 O0 2.650783 1_555
Na13 O21 2.762042 1_555
Na13 O31 2.918280 1_545
Na13 O29 2.926128 1_545
Na14 O37 2.452346 1_555
Na14 O36 2.491578 1_655
Na14 O58 2.525271 1_555
Na14 O59 2.540027 1_555
Na14 O1 2.642411 1_555
Na14 O22 2.790885 1_555
Na14 O32 2.921438 1_555
Na14 O27 2.935091 1_555
Na15 O38 2.545246 1_555
Na15 O43 2.581489 1_555
Na15 O42 2.594516 1_455
Na15 O36 2.603798 1_545
Na15 O37 2.608819 1_445
Na15 O44 2.634874 1_445
Na16 O45 2.560180 1_555
Na16 O46 2.566438 1_565
Na16 O47 2.576183 1_665
Na16 O40 2.629494 1_654
Na16 O39 2.631627 1_664
Na16 O41 2.645830 1_554
Na17 O55 2.558616 1_555
Na17 O50 2.563055 1_555
Na17 O54 2.572609 1_555
Na17 O56 2.612814 1_555
Na17 O48 2.626288 1_555
Na17 O49 2.629789 1_555
Na18 O51 2.521783 1_555
Na18 O53 2.527469 1_555
Na18 O52 2.527834 1_555
Na18 O57 2.658682 1_555
Na18 O59 2.664059 1_555
Na18 O58 2.667983 1_555
Na19 O61 2.539661 1_555
Na19 O60 2.564010 1_555
Na19 O68 2.598198 1_555
Na19 O62 2.605000 1_555
Na19 O66 2.659494 1_555
Na19 O67 2.667205 1_555
Na20 O64 2.544686 1_555
Na20 O65 2.563472 1_555
Na20 O69 2.579377 1_555
Na20 O63 2.605548 1_555
Na20 O71 2.645151 1_555
Na20 O70 2.650720 1_555
Mg0 O2 2.031633 1_455
Mg0 O1 2.032114 1_445
Mg0 O0 2.035679 1_555
Mg0 O38 2.177372 1_555
Mg0 O36 2.186120 1_545
Mg0 O37 2.192603 1_445
Mg1 O14 2.031138 1_555
Mg1 O13 2.040041 1_555
Mg1 O12 2.046066 1_555
Mg1 O49 2.167767 1_555
Mg1 O50 2.169600 1_555
Mg1 O48 2.177703 1_555
Mg2 O15 2.032074 1_555
Mg2 O16 2.042108 1_555
Mg2 O17 2.048753 1_555
Mg2 O52 2.169724 1_555
Mg2 O51 2.178222 1_555
Mg2 O53 2.182044 1_555
O0 P0 1.533044 1_555
O1 P1 1.532950 1_555
O2 P2 1.533646 1_555
O3 P3 1.550855 1_555
O3 Sc0 2.091738 1_445
O4 P4 1.544124 1_555
O4 Sc0 2.018244 1_555
O5 P5 1.551671 1_555
O5 Sc0 2.098727 1_545
O6 P5 1.550501 1_565
O6 Sc1 2.108215 1_665
O7 P3 1.542563 1_555
O7 Sc1 2.024161 1_555
O8 P4 1.549110 1_455
O8 Sc1 2.097437 1_565
O9 P1 1.558040 1_555
O9 Sc2 2.097961 1_665
O10 P2 1.550357 1_455
O10 Sc2 2.019130 1_555
O11 P0 1.557736 1_565
O11 Sc2 2.105875 1_565
O12 P6 1.532724 1_555
O13 P7 1.529912 1_555
O14 P8 1.519516 1_555
O15 P9 1.519413 1_555
O16 P10 1.530652 1_555
O17 P11 1.533749 1_555
O18 P11 1.561210 1_555
O18 Sc3 2.081212 1_554
O19 P9 1.551885 1_555
O19 Sc3 1.999108 1_554
O20 P10 1.551493 1_555
O20 Sc3 2.060197 1_554
O21 P7 1.554967 1_555
O21 Sc4 2.033135 1_555
O22 P8 1.562990 1_555
O22 Sc4 2.045213 1_555
O23 P6 1.563725 1_555
O23 Sc4 2.050570 1_555
O24 P12 1.547320 1_555
O24 Sc5 2.117477 1_556
O25 P13 1.538372 1_555
O25 Sc5 2.032015 1_556
O26 P14 1.535195 1_555
O26 Sc5 2.090463 1_556
O27 P15 1.549662 1_555
O27 Sc6 2.091308 1_555
O28 P16 1.542747 1_555
O28 Sc6 2.018882 1_555
O29 P17 1.550189 1_555
O29 Sc6 2.099547 1_555
O30 P17 1.556582 1_555
O30 Sc7 2.075380 1_555
O31 P15 1.555995 1_555
O31 Sc7 2.071029 1_555
O32 P16 1.555285 1_555
O32 Sc7 2.072350 1_555
O33 P13 1.552791 1_555
O33 Sc8 2.036330 1_555
O34 P14 1.559320 1_555
O34 Sc8 2.044088 1_555
O35 P12 1.561905 1_555
O35 Sc8 2.050716 1_555
O36 P17 1.542204 1_555
O37 P15 1.541926 1_555
O38 P16 1.540657 1_555
O39 P13 1.562894 1_555
O39 Sc0 2.164244 1_445
O40 P14 1.550222 1_555
O40 Sc0 2.117334 1_455
O41 P12 1.550338 1_555
O41 Sc0 2.116150 1_555
O42 P6 1.555754 1_555
O42 Sc1 2.113826 1_655
O43 P7 1.556302 1_555
O43 Sc1 2.112331 1_555
O44 P8 1.573431 1_555
O44 Sc1 2.166136 1_665
O45 P9 1.574751 1_555
O45 Sc2 2.173103 1_665
O46 P10 1.560201 1_555
O46 Sc2 2.124440 1_655
O47 P11 1.558551 1_555
O47 Sc2 2.127682 1_555
O48 P5 1.547032 1_555
O49 P3 1.546374 1_555
O50 P4 1.544730 1_555
O51 P1 1.553446 1_555
O52 P2 1.553190 1_555
O53 P0 1.555081 1_555
O54 P12 1.546191 1_555
O54 Sc3 2.167597 1_555
O55 P13 1.545978 1_655
O55 Sc3 2.148523 1_555
O56 P14 1.562279 1_545
O56 Sc3 2.221570 1_555
O57 P15 1.564674 1_545
O57 Sc4 2.175810 1_555
O58 P16 1.564528 1_555
O58 Sc4 2.165697 1_555
O59 P17 1.565441 1_655
O59 Sc4 2.181676 1_555
O60 P11 1.558663 1_555
O60 Sc5 2.110682 1_555
O61 P9 1.560685 1_455
O61 Sc5 2.098223 1_555
O62 P10 1.575179 1_565
O62 Sc5 2.161015 1_555
O63 P7 1.571034 1_565
O63 Sc6 2.166645 1_555
O64 P8 1.557707 1_555
O64 Sc6 2.115515 1_555
O65 P6 1.554580 1_455
O65 Sc6 2.113398 1_555
O66 P0 1.575246 1_565
O66 Sc7 2.128058 1_555
O67 P1 1.575998 1_555
O67 Sc7 2.131941 1_555
O68 P2 1.573264 1_455
O68 Sc7 2.123931 1_555
O69 P3 1.566331 1_555
O69 Sc8 2.166112 1_555
O70 P4 1.567288 1_455
O70 Sc8 2.164130 1_555
O71 P5 1.568392 1_565
O71 Sc8 2.177516 1_555
