# generated using pymatgen
data_KMgNbO3
_symmetry_space_group_name_H-M   'P 1'
_cell_length_a   4.31948590
_cell_length_b   4.43559625
_cell_length_c   4.43559699
_cell_angle_alpha   102.26336568
_cell_angle_beta   90.00000000
_cell_angle_gamma   90.00000000
_symmetry_Int_Tables_number   1
_chemical_formula_structural   KMgNbO3
_chemical_formula_sum   'K1 Mg1 Nb1 O3'
_cell_volume   83.04460477
_cell_formula_units_Z   1
loop_
 _symmetry_equiv_pos_site_id
 _symmetry_equiv_pos_as_xyz
  1  'x, y, z'
loop_
 _atom_site_type_symbol
 _atom_site_label
 _atom_site_symmetry_multiplicity
 _atom_site_fract_x
 _atom_site_fract_y
 _atom_site_fract_z
 _atom_site_occupancy
  K  K0  1  0.50000000  0.37692240  0.62307760  1
  Mg  Mg0  1  0.00000000  0.60725013  0.39274987  1
  Nb  Nb0  1  0.00000000  0.03729560  0.96270440  1
  O  O0  1  0.00000000  0.53888852  0.94621714  1
  O  O1  1  0.00000000  0.05378286  0.46111148  1
  O  O2  1  0.50000000  0.02511048  0.97488952  1
loop_
_geom_bond_atom_site_label_1
_geom_bond_atom_site_label_2
_geom_bond_distance
_geom_bond_site_symmetry_2
K0 O2 2.429974 1_555
K0 O1 2.607215 1_555
K0 O1 2.607215 1_655
K0 O0 2.607216 1_555
K0 O0 2.607216 1_655
K0 Mg0 2.682422 1_655
K0 Mg0 2.682422 1_555
K0 O2 2.965704 1_565
K0 O2 2.965704 1_554
Mg0 O1 1.939006 1_565
Mg0 O0 1.939006 1_554
Mg0 O1 2.536729 1_555
Mg0 O0 2.536729 1_555
Nb0 O2 2.161382 1_455
Nb0 O2 2.161382 1_555
Nb0 O0 2.196362 1_545
Nb0 O1 2.196362 1_556
Nb0 O0 2.241537 1_555
Nb0 O1 2.241537 1_555
