# generated using pymatgen
data_Rb2Mg(FeO2)2
_symmetry_space_group_name_H-M   'P 1'
_cell_length_a   5.73226325
_cell_length_b   6.80173914
_cell_length_c   5.61913555
_cell_angle_alpha   69.74801964
_cell_angle_beta   110.98419651
_cell_angle_gamma   77.56474929
_symmetry_Int_Tables_number   1
_chemical_formula_structural   Rb2Mg(FeO2)2
_chemical_formula_sum   'Rb2 Mg1 Fe2 O4'
_cell_volume   176.92936881
_cell_formula_units_Z   1
loop_
 _symmetry_equiv_pos_site_id
 _symmetry_equiv_pos_as_xyz
  1  'x, y, z'
loop_
 _atom_site_type_symbol
 _atom_site_label
 _atom_site_symmetry_multiplicity
 _atom_site_fract_x
 _atom_site_fract_y
 _atom_site_fract_z
 _atom_site_occupancy
  Rb  Rb0  1  0.38312758  0.34742619  0.65235772  1
  Rb  Rb1  1  0.68127462  0.56544722  0.10353190  1
  Mg  Mg0  1  0.33981803  0.02800399  0.30108101  1
  Fe  Fe0  1  0.01228808  0.01382008  0.79463374  1
  Fe  Fe1  1  0.93191594  0.95804242  0.28861335  1
  O  O0  1  0.25278550  0.95808437  0.62198712  1
  O  O1  1  0.19448925  0.77679734  0.21267678  1
  O  O2  1  0.95790314  0.23548404  0.94829689  1
  O  O3  1  0.66306485  0.09258835  0.37682149  1
loop_
_geom_bond_atom_site_label_1
_geom_bond_atom_site_label_2
_geom_bond_distance
_geom_bond_site_symmetry_2
Mg0 O3 1.929416 1_555
Mg0 O0 1.969635 1_545
Mg0 O2 2.082891 1_454
Mg0 O1 2.182763 1_545
Fe0 O0 1.993186 1_545
Fe0 O2 2.001880 1_455
Fe0 O1 2.025783 1_546
Fe0 O3 2.259980 1_455
Fe1 O3 1.926642 1_565
Fe1 O1 1.998075 1_655
Fe1 O0 2.103579 1_655
Fe1 O2 2.250988 1_564
O0 Rb1 2.810503 1_556
O0 Rb0 2.945169 1_565
O1 Rb0 2.744763 1_555
O1 Rb1 3.215185 1_555
O2 Rb0 2.884343 1_555
O2 Rb1 3.020865 1_556
O3 Rb1 3.090883 1_555
