# generated using pymatgen
data_Ce3IrI3
_symmetry_space_group_name_H-M   'P 1'
_cell_length_a   11.00297921
_cell_length_b   10.86031347
_cell_length_c   10.85827673
_cell_angle_alpha   109.24200629
_cell_angle_beta   109.73032901
_cell_angle_gamma   109.70091108
_symmetry_Int_Tables_number   1
_chemical_formula_structural   Ce3IrI3
_chemical_formula_sum   'Ce12 Ir4 I12'
_cell_volume   995.60046320
_cell_formula_units_Z   4
loop_
 _symmetry_equiv_pos_site_id
 _symmetry_equiv_pos_as_xyz
  1  'x, y, z'
loop_
 _atom_site_type_symbol
 _atom_site_label
 _atom_site_symmetry_multiplicity
 _atom_site_fract_x
 _atom_site_fract_y
 _atom_site_fract_z
 _atom_site_occupancy
  Ce  Ce0  1  0.27294650  0.74958441  0.22836535  1
  Ce  Ce1  1  0.47659550  0.75007401  0.02114242  1
  Ce  Ce2  1  0.22687490  0.45405783  0.47738062  1
  Ce  Ce3  1  0.02297135  0.04515715  0.27267981  1
  Ce  Ce4  1  0.22657114  0.27175613  0.75046434  1
  Ce  Ce5  1  0.02304068  0.47869502  0.74965779  1
  Ce  Ce6  1  0.47710657  0.22698611  0.45469283  1
  Ce  Ce7  1  0.27269052  0.02239050  0.04556521  1
  Ce  Ce8  1  0.75007008  0.22774501  0.27283113  1
  Ce  Ce9  1  0.74984208  0.02251374  0.47690766  1
  Ce  Ce10  1  0.45584829  0.47923278  0.22878375  1
  Ce  Ce11  1  0.04469818  0.27138574  0.02121247  1
  Ir  Ir0  1  0.49816504  -0.00292305  0.24842497  1
  Ir  Ir1  1  0.24991879  0.50037906  0.99987867  1
  Ir  Ir2  1  0.00115486  0.25130466  0.50269218  1
  Ir  Ir3  1  0.25004403  0.25146267  0.24894541  1
  I  I0  1  0.25072513  0.99217889  0.50892900  1
  I  I1  1  0.51656162  0.50636571  0.75717169  1
  I  I2  1  0.24997154  0.75988489  0.74007275  1
  I  I3  1  0.98349115  0.74256223  0.99310661  1
  I  I4  1  0.99047675  0.50690729  0.24933738  1
  I  I5  1  0.74179709  0.99143658  0.98367172  1
  I  I6  1  0.75924070  0.74261685  0.24915651  1
  I  I7  1  0.50965932  0.75965592  0.51936245  1
  I  I8  1  0.50970542  0.25041366  0.99342410  1
  I  I9  1  0.75836889  0.51686056  0.50828308  1
  I  I10  1  0.74135455  0.25085192  0.75763534  1
  I  I11  1  0.99010936  0.98046073  0.74022777  1
loop_
_geom_bond_atom_site_label_1
_geom_bond_atom_site_label_2
_geom_bond_distance
_geom_bond_site_symmetry_2
Ce0 Ir0 2.858624 1_565
Ce0 Ir1 2.869108 1_554
Ce0 I7 3.286802 1_555
Ce0 I3 3.299906 1_454
Ce0 I0 3.453825 1_555
Ce0 I4 3.465313 1_455
Ce1 Ir0 2.855628 1_565
Ce1 Ir1 2.875073 1_554
Ce1 I2 3.286121 1_554
Ce1 I6 3.303224 1_555
Ce1 I5 3.449479 1_554
Ce1 I1 3.471258 1_554
Ce2 Ir2 2.874894 1_555
Ce2 Ir3 2.875151 1_555
Ce2 I1 3.288697 1_555
Ce2 I4 3.289538 1_455
Ce2 I2 3.453886 1_555
Ce2 I7 3.462197 1_555
Ce3 Ir3 2.893081 1_555
Ce3 Ir2 2.896429 1_555
Ce3 I5 3.283404 1_444
Ce3 I0 3.285727 1_545
Ce3 I3 3.431531 1_444
Ce3 I6 3.435054 1_445
Ce4 Ir2 2.858047 1_555
Ce4 Ir1 2.869390 1_555
Ce4 I11 3.288354 1_445
Ce4 I1 3.304194 1_555
Ce4 I0 3.454572 1_545
Ce4 I8 3.472670 1_555
Ce5 Ir2 2.854084 1_555
Ce5 Ir1 2.876029 1_555
Ce5 I2 3.288635 1_555
Ce5 I10 3.299752 1_455
Ce5 I9 3.449379 1_455
Ce5 I3 3.466082 1_455
Ce6 Ir0 2.891178 1_555
Ce6 Ir3 2.893813 1_555
Ce6 I0 3.279000 1_545
Ce6 I9 3.291604 1_555
Ce6 I1 3.429676 1_555
Ce6 I10 3.437093 1_555
Ce7 Ir0 2.872561 1_555
Ce7 Ir3 2.880347 1_555
Ce7 I3 3.286469 1_444
Ce7 I8 3.289514 1_554
Ce7 I2 3.452521 1_544
Ce7 I11 3.457887 1_444
Ce8 Ir2 2.893820 1_655
Ce8 Ir0 2.900568 1_555
Ce8 I9 3.280470 1_555
Ce8 I5 3.285000 1_544
Ce8 I8 3.431231 1_554
Ce8 I4 3.436891 1_555
Ce9 Ir2 2.878355 1_655
Ce9 Ir0 2.879862 1_555
Ce9 I6 3.285782 1_545
Ce9 I10 3.288758 1_555
Ce9 I11 3.455966 1_545
Ce9 I7 3.456789 1_545
Ce10 Ir3 2.865255 1_555
Ce10 Ir1 2.879082 1_554
Ce10 I7 3.281789 1_555
Ce10 I8 3.299573 1_554
Ce10 I9 3.449925 1_555
Ce10 I6 3.467146 1_555
Ce11 Ir3 2.859442 1_555
Ce11 Ir1 2.878193 1_554
Ce11 I11 3.283525 1_444
Ce11 I4 3.299207 1_455
Ce11 I5 3.457098 1_444
Ce11 I10 3.465355 1_454
