# generated using pymatgen
data_Sr5As3H
_symmetry_space_group_name_H-M   'P 1'
_cell_length_a   8.96990742
_cell_length_b   8.96990703
_cell_length_c   7.12433142
_cell_angle_alpha   90.00000000
_cell_angle_beta   90.00000000
_cell_angle_gamma   119.99999761
_symmetry_Int_Tables_number   1
_chemical_formula_structural   Sr5As3H
_chemical_formula_sum   'Sr10 As6 H2'
_cell_volume   496.42158739
_cell_formula_units_Z   2
loop_
 _symmetry_equiv_pos_site_id
 _symmetry_equiv_pos_as_xyz
  1  'x, y, z'
loop_
 _atom_site_type_symbol
 _atom_site_label
 _atom_site_symmetry_multiplicity
 _atom_site_fract_x
 _atom_site_fract_y
 _atom_site_fract_z
 _atom_site_occupancy
  Sr  Sr0  1  0.75093805  0.75093805  0.25000000  1
  Sr  Sr1  1  0.75093805  0.00000000  0.75000000  1
  Sr  Sr2  1  -0.00000000  0.24906195  0.25000000  1
  Sr  Sr3  1  0.00000000  0.75093805  0.75000000  1
  Sr  Sr4  1  0.24906195  0.24906195  0.75000000  1
  Sr  Sr5  1  0.24906195  -0.00000000  0.25000000  1
  Sr  Sr6  1  0.33333300  0.66666700  0.50000000  1
  Sr  Sr7  1  0.66666700  0.33333300  -0.00000000  1
  Sr  Sr8  1  0.66666700  0.33333300  0.50000000  1
  Sr  Sr9  1  0.33333300  0.66666700  -0.00000000  1
  As  As0  1  0.39144422  -0.00000000  0.75000000  1
  As  As1  1  0.39144422  0.39144422  0.25000000  1
  As  As2  1  0.00000000  0.60855578  0.25000000  1
  As  As3  1  -0.00000000  0.39144422  0.75000000  1
  As  As4  1  0.60855578  0.60855578  0.75000000  1
  As  As5  1  0.60855578  0.00000000  0.25000000  1
  H  H0  1  0.00000000  -0.00000000  0.50000000  1
  H  H1  1  0.00000000  -0.00000000  -0.00000000  1
loop_
_geom_bond_atom_site_label_1
_geom_bond_atom_site_label_2
_geom_bond_distance
_geom_bond_site_symmetry_2
As0 Sr4 3.078215 1_555
As0 Sr3 3.078215 1_545
As0 Sr1 3.224626 1_555
As0 Sr9 3.290187 1_546
As0 Sr6 3.290187 1_545
As0 Sr8 3.290190 1_555
As0 Sr7 3.290190 1_556
As1 Sr5 3.078215 1_555
As1 Sr2 3.078215 1_555
As1 Sr0 3.224626 1_555
As1 Sr9 3.290194 1_555
As1 Sr6 3.290194 1_555
As1 Sr7 3.290194 1_555
As1 Sr8 3.290194 1_555
As2 Sr0 3.078215 1_455
As2 Sr5 3.078215 1_565
As2 Sr2 3.224626 1_555
As2 Sr9 3.290187 1_555
As2 Sr6 3.290187 1_555
As2 Sr7 3.290190 1_455
As2 Sr8 3.290190 1_455
As3 Sr4 3.078215 1_555
As3 Sr1 3.078215 1_455
As3 Sr3 3.224626 1_555
As3 Sr7 3.290187 1_456
As3 Sr8 3.290187 1_455
As3 Sr9 3.290190 1_556
As3 Sr6 3.290190 1_555
As4 Sr1 3.078215 1_565
As4 Sr3 3.078215 1_655
As4 Sr4 3.224626 1_555
As4 Sr7 3.290194 1_556
As4 Sr8 3.290194 1_555
As4 Sr9 3.290194 1_556
As4 Sr6 3.290194 1_555
As5 Sr0 3.078215 1_545
As5 Sr2 3.078215 1_655
As5 Sr5 3.224626 1_555
As5 Sr7 3.290187 1_555
As5 Sr8 3.290187 1_555
As5 Sr6 3.290190 1_545
As5 Sr9 3.290190 1_545
H0 Sr3 2.857147 1_545
H0 Sr2 2.857147 1_555
H0 Sr5 2.857148 1_555
H0 Sr1 2.857148 1_455
H0 Sr4 2.857148 1_555
H0 Sr0 2.857148 1_445
H1 Sr3 2.857147 1_544
H1 Sr2 2.857147 1_555
H1 Sr5 2.857148 1_555
H1 Sr1 2.857148 1_454
H1 Sr0 2.857148 1_445
H1 Sr4 2.857148 1_554
