# generated using pymatgen
data_Na5Nb3Si6SnO24
_symmetry_space_group_name_H-M   'P 1'
_cell_length_a   9.05445201
_cell_length_b   9.04472657
_cell_length_c   22.63934135
_cell_angle_alpha   90.27983540
_cell_angle_beta   89.78263523
_cell_angle_gamma   120.15231772
_symmetry_Int_Tables_number   1
_chemical_formula_structural   Na5Nb3Si6SnO24
_chemical_formula_sum   'Na15 Nb9 Si18 Sn3 O72'
_cell_volume   1603.16308446
_cell_formula_units_Z   3
loop_
 _symmetry_equiv_pos_site_id
 _symmetry_equiv_pos_as_xyz
  1  'x, y, z'
loop_
 _atom_site_type_symbol
 _atom_site_label
 _atom_site_symmetry_multiplicity
 _atom_site_fract_x
 _atom_site_fract_y
 _atom_site_fract_z
 _atom_site_occupancy
  Na  Na0  1  0.36689287  0.36351011  0.24792126  1
  Na  Na1  1  0.99346733  0.63154699  0.24786265  1
  Na  Na2  1  0.63528302  0.63052555  0.74849971  1
  Na  Na3  1  0.99958477  0.36851025  0.74912585  1
  Na  Na4  1  0.03275226  0.69765053  0.58430746  1
  Na  Na5  1  0.30427197  0.96885544  0.08430965  1
  Na  Na6  1  0.70015165  0.03374225  0.91808004  1
  Na  Na7  1  0.96842707  0.29753373  0.41439953  1
  Na  Na8  1  0.33215496  0.03467278  0.41515598  1
  Na  Na9  1  0.99110126  0.99792182  0.49919238  1
  Na  Na10  1  0.00037815  0.00004531  0.00082928  1
  Na  Na11  1  0.65739765  0.33145243  0.83375584  1
  Na  Na12  1  0.66703316  0.33294820  0.32986971  1
  Na  Na13  1  0.34243171  0.66803947  0.16448345  1
  Na  Na14  1  0.34275820  0.67666249  0.66529719  1
  Nb  Nb0  1  0.00505055  0.00012893  0.85507852  1
  Nb  Nb1  1  0.00076602  0.00415399  0.64400029  1
  Nb  Nb2  1  0.99384853  0.99966655  0.14444232  1
  Nb  Nb3  1  0.66806618  0.33879459  0.97926027  1
  Nb  Nb4  1  0.66605042  0.33658665  0.48005895  1
  Nb  Nb5  1  0.33232314  0.66164439  0.02130801  1
  Nb  Nb6  1  0.33784815  0.66697667  0.52131748  1
  Nb  Nb7  1  0.33685200  0.67021168  0.31117543  1
  Nb  Nb8  1  0.33321016  0.67031143  0.81310397  1
  Si  Si0  1  0.29046819  0.00189701  0.24985354  1
  Si  Si1  1  0.71110057  0.71092492  0.24987716  1
  Si  Si2  1  0.99449815  0.28609907  0.25138520  1
  Si  Si3  1  0.29168115  0.28753191  0.74993930  1
  Si  Si4  1  0.00276660  0.71319511  0.74849560  1
  Si  Si5  1  0.71101109  0.00094712  0.75058404  1
  Si  Si6  1  0.95478539  0.33170168  0.58378659  1
  Si  Si7  1  0.37799919  0.04408055  0.58366869  1
  Si  Si8  1  0.66278398  0.62203055  0.58591750  1
  Si  Si9  1  0.95668368  0.62282362  0.08469381  1
  Si  Si10  1  0.66884931  0.04551413  0.08184488  1
  Si  Si11  1  0.37837695  0.33551782  0.08485315  1
  Si  Si12  1  0.62098110  0.66309959  0.91588598  1
  Si  Si13  1  0.04297535  0.37754708  0.91612579  1
  Si  Si14  1  0.33129089  0.95621380  0.91863432  1
  Si  Si15  1  0.62567155  0.95479462  0.41685965  1
  Si  Si16  1  0.33565004  0.37892086  0.41563135  1
  Si  Si17  1  0.04319271  0.66759155  0.41676999  1
  Sn  Sn0  1  0.99600589  0.99589085  0.35311553  1
  Sn  Sn1  1  0.66214013  0.32828821  0.68675042  1
  Sn  Sn2  1  0.66654889  0.32962302  0.18519557  1
  O  O0  1  0.21422599  0.03944788  0.31007736  1
  O  O1  1  0.83281539  0.78707621  0.30714689  1
  O  O2  1  0.96823535  0.18183276  0.31239507  1
  O  O3  1  0.19172932  0.16810516  0.80705430  1
  O  O4  1  0.97114741  0.80804824  0.80497504  1
  O  O5  1  0.82949959  0.02867214  0.80894246  1
  O  O6  1  0.80550773  0.96726343  0.69378673  1
  O  O7  1  0.16472370  0.19475972  0.69321260  1
  O  O8  1  0.02874013  0.82826108  0.68953091  1
  O  O9  1  0.80497356  0.83315953  0.19258818  1
  O  O10  1  0.03149825  0.19313123  0.19541709  1
  O  O11  1  0.16679363  0.96630140  0.19237014  1
  O  O12  1  0.88207741  0.37817782  0.64270095  1
  O  O13  1  0.49445812  0.12163864  0.64135815  1
  O  O14  1  0.63182409  0.51387910  0.64593088  1
  O  O15  1  0.88267507  0.51430003  0.14510039  1
  O  O16  1  0.61789866  0.11993412  0.13892421  1
  O  O17  1  0.48668596  0.36954129  0.14529471  1
  O  O18  1  0.47438787  0.30215904  0.02844690  1
  O  O19  1  0.83314714  0.52474253  0.02793089  1
  O  O20  1  0.69495814  0.16111908  0.02278587  1
  O  O21  1  0.46830237  0.16179032  0.52426095  1
  O  O22  1  0.69555511  0.52480208  0.52893494  1
  O  O23  1  0.83518792  0.30559208  0.52511120  1
  O  O24  1  0.52724563  0.69889997  0.97150737  1
  O  O25  1  0.16625957  0.47425454  0.97242621  1
  O  O26  1  0.30530560  0.83997113  0.97663627  1
  O  O27  1  0.52598834  0.83537439  0.47340794  1
  O  O28  1  0.30427057  0.47395156  0.47151669  1
  O  O29  1  0.16273317  0.69464915  0.47422726  1
  O  O30  1  0.13322281  0.63403322  0.35839164  1
  O  O31  1  0.49781615  0.86146053  0.36004928  1
  O  O32  1  0.36117605  0.49554779  0.35671738  1
  O  O33  1  0.13545932  0.49410657  0.85693484  1
  O  O34  1  0.36186131  0.85882901  0.86121999  1
  O  O35  1  0.50439742  0.63871796  0.85644065  1
  O  O36  1  0.03585991  0.84334112  0.41315896  1
  O  O37  1  0.81740866  0.98442806  0.41390448  1
  O  O38  1  0.16384596  0.18950098  0.41319181  1
  O  O39  1  0.01750146  0.18465915  0.91049327  1
  O  O40  1  0.16234155  0.97440716  0.90975421  1
  O  O41  1  0.80646288  0.83986655  0.90933948  1
  O  O42  1  0.97321100  0.16143297  0.58942486  1
  O  O43  1  0.18454553  0.01912931  0.58872085  1
  O  O44  1  0.84117110  0.80826750  0.58849207  1
  O  O45  1  0.98289349  0.81686107  0.08829679  1
  O  O46  1  0.83862725  0.02691473  0.08905148  1
  O  O47  1  0.19155029  0.15793033  0.08913172  1
  O  O48  1  0.70438654  0.17698240  0.74629299  1
  O  O49  1  0.48407077  0.31763852  0.74770701  1
  O  O50  1  0.83033883  0.52310147  0.74644715  1
  O  O51  1  0.68614487  0.51898121  0.24441471  1
  O  O52  1  0.83627454  0.32226470  0.24575291  1
  O  O53  1  0.47766328  0.17450705  0.24527859  1
  O  O54  1  0.64009331  0.49518732  0.92299525  1
  O  O55  1  0.85188993  0.35234991  0.92204594  1
  O  O56  1  0.50737583  0.14100221  0.92218349  1
  O  O57  1  0.63764127  0.14295763  0.42255196  1
  O  O58  1  0.50268368  0.35464083  0.42285132  1
  O  O59  1  0.85809155  0.49064681  0.42285227  1
  O  O60  1  0.35484536  0.50158276  0.07491214  1
  O  O61  1  0.15077155  0.65251949  0.07590823  1
  O  O62  1  0.49622595  0.85525721  0.07433249  1
  O  O63  1  0.34504771  0.84899291  0.57548943  1
  O  O64  1  0.49765896  0.64518935  0.57571266  1
  O  O65  1  0.14197015  0.50422252  0.57458623  1
  O  O66  1  0.29889096  0.82407312  0.25640931  1
  O  O67  1  0.51849469  0.68819267  0.25555207  1
  O  O68  1  0.17310428  0.47755647  0.25549880  1
  O  O69  1  0.30394356  0.47594144  0.75563557  1
  O  O70  1  0.16873620  0.68741283  0.75611974  1
  O  O71  1  0.52522438  0.82417122  0.75572119  1
loop_
_geom_bond_atom_site_label_1
_geom_bond_atom_site_label_2
_geom_bond_distance
_geom_bond_site_symmetry_2
Na0 O53 2.377568 1_555
Na0 O68 2.446737 1_555
Na0 O51 2.501076 1_555
Na0 O67 2.546624 1_555
Na0 O17 2.549572 1_555
Na0 O32 2.743725 1_555
Na0 O10 2.884106 1_555
Na0 O0 2.904696 1_555
Na1 O52 2.419246 1_555
Na1 O66 2.424958 1_655
Na1 O51 2.437314 1_555
Na1 O15 2.543282 1_555
Na1 O68 2.625958 1_655
Na1 O30 2.803244 1_655
Na1 O1 2.813990 1_555
Na1 O11 2.908134 1_655
Na2 O50 2.405875 1_555
Na2 O71 2.415950 1_555
Na2 O49 2.447625 1_555
Na2 O14 2.539609 1_555
Na2 O69 2.601181 1_555
Na2 O35 2.728763 1_555
Na2 O6 2.914211 1_555
Na2 O4 2.926606 1_555
Na3 O48 2.344756 1_555
Na3 O69 2.423206 1_655
Na3 O70 2.499975 1_655
Na3 O50 2.541883 1_555
Na3 O12 2.657028 1_555
Na3 O33 2.711616 1_655
Na3 O7 2.938473 1_655
Na3 O5 2.987117 1_555
Na4 O44 2.400078 1_455
Na4 O65 2.412423 1_555
Na4 O63 2.453409 1_555
Na4 O43 2.517359 1_565
Na4 O8 2.662080 1_555
Na4 O29 2.757862 1_555
Na4 O12 2.832265 1_455
Na4 O22 2.924384 1_455
Na5 O47 2.393519 1_565
Na5 O62 2.432329 1_555
Na5 O61 2.481120 1_555
Na5 O45 2.519139 1_455
Na5 O26 2.698923 1_554
Na5 O11 2.735610 1_555
Na5 O16 2.751710 1_565
Na5 O18 2.901324 1_565
Na6 O56 2.386531 1_555
Na6 O41 2.394069 1_545
Na6 O39 2.491503 1_655
Na6 O55 2.494186 1_555
Na6 O20 2.641128 1_556
Na6 O5 2.740349 1_555
Na6 O24 2.888664 1_545
Na6 O34 2.946861 1_545
Na7 O38 2.413007 1_655
Na7 O59 2.415316 1_555
Na7 O37 2.449378 1_545
Na7 O2 2.530348 1_555
Na7 O57 2.598251 1_555
Na7 O23 2.794025 1_555
Na7 O30 2.925488 1_655
Na7 O28 2.932629 1_655
Na8 O36 2.351658 1_545
Na8 O57 2.432794 1_555
Na8 O58 2.509552 1_555
Na8 O38 2.535841 1_555
Na8 O0 2.620658 1_555
Na8 O21 2.741219 1_555
Na8 O31 2.930571 1_545
Na8 O29 2.980778 1_545
Na9 O37 2.458535 1_555
Na9 O36 2.539559 1_655
Na9 O38 2.554776 1_665
Na9 O44 2.558569 1_555
Na9 O42 2.568096 1_565
Na9 O43 2.626492 1_665
Na10 O45 2.541181 1_445
Na10 O46 2.554177 1_455
Na10 O47 2.558722 1_555
Na10 O39 2.601098 1_554
Na10 O40 2.601870 1_544
Na10 O41 2.629591 1_444
Na11 O49 2.469301 1_555
Na11 O56 2.546093 1_555
Na11 O54 2.549686 1_555
Na11 O48 2.572462 1_555
Na11 O50 2.578155 1_555
Na11 O55 2.611680 1_555
Na12 O52 2.471621 1_555
Na12 O53 2.488137 1_555
Na12 O51 2.518084 1_555
Na12 O58 2.636216 1_555
Na12 O59 2.641567 1_555
Na12 O57 2.645382 1_555
Na13 O60 2.555366 1_555
Na13 O67 2.560204 1_555
Na13 O62 2.572032 1_555
Na13 O61 2.613683 1_555
Na13 O68 2.630923 1_555
Na13 O66 2.646188 1_555
Na14 O71 2.546557 1_555
Na14 O64 2.556435 1_555
Na14 O63 2.561630 1_555
Na14 O70 2.616751 1_555
Na14 O69 2.644263 1_555
Na14 O65 2.665275 1_555
Nb0 O3 1.941578 1_555
Nb0 O4 1.961324 1_445
Nb0 O40 1.990897 1_545
Nb0 O5 2.027721 1_455
Nb0 O39 2.040552 1_555
Nb0 O41 2.055625 1_445
Nb1 O7 1.959581 1_555
Nb1 O6 1.975694 1_445
Nb1 O42 1.997131 1_455
Nb1 O8 2.020014 1_545
Nb1 O43 2.028047 1_555
Nb1 O44 2.055831 1_445
Nb2 O9 1.948157 1_555
Nb2 O10 1.973305 1_665
Nb2 O46 1.993218 1_565
Nb2 O45 2.043284 1_555
Nb2 O11 2.052159 1_655
Nb2 O47 2.061004 1_665
Nb3 O19 1.935421 1_556
Nb3 O18 1.957068 1_556
Nb3 O20 2.005793 1_556
Nb3 O54 2.016826 1_555
Nb3 O55 2.059931 1_555
Nb3 O56 2.088995 1_555
Nb4 O22 1.928923 1_555
Nb4 O21 1.965933 1_555
Nb4 O23 1.977414 1_555
Nb4 O58 2.037484 1_555
Nb4 O59 2.051577 1_555
Nb4 O57 2.087102 1_555
Nb5 O25 1.947384 1_554
Nb5 O24 1.972508 1_554
Nb5 O60 1.981368 1_555
Nb5 O61 2.021463 1_555
Nb5 O62 2.022935 1_555
Nb5 O26 2.024436 1_554
Nb6 O27 1.947767 1_555
Nb6 O28 1.965136 1_555
Nb6 O64 1.987840 1_555
Nb6 O63 2.022791 1_555
Nb6 O29 2.031585 1_555
Nb6 O65 2.035970 1_555
Nb7 O31 1.949736 1_555
Nb7 O32 1.993601 1_555
Nb7 O30 2.007860 1_555
Nb7 O67 2.008671 1_555
Nb7 O66 2.023037 1_555
Nb7 O68 2.054438 1_555
Nb8 O34 1.923764 1_555
Nb8 O33 1.966173 1_555
Nb8 O35 1.976360 1_555
Nb8 O70 2.038127 1_555
Nb8 O71 2.053510 1_555
Nb8 O69 2.089463 1_555
O0 Si0 1.635458 1_555
O0 Sn0 2.053231 1_445
O1 Si1 1.615407 1_555
O1 Sn0 2.005583 1_555
O2 Si2 1.624386 1_555
O2 Sn0 2.045301 1_545
O3 Si3 1.637222 1_555
O4 Si4 1.638967 1_655
O5 Si5 1.642161 1_555
O6 Si5 1.651669 1_565
O7 Si3 1.645140 1_555
O8 Si4 1.638832 1_555
O9 Si1 1.639674 1_555
O10 Si2 1.641390 1_455
O11 Si0 1.641952 1_565
O12 Si6 1.629403 1_555
O12 Sn1 2.061659 1_555
O13 Si7 1.602550 1_555
O13 Sn1 1.999235 1_555
O14 Si8 1.617418 1_555
O14 Sn1 2.055989 1_555
O15 Si9 1.621150 1_555
O15 Sn2 2.039877 1_555
O16 Si10 1.623181 1_555
O16 Sn2 2.008289 1_555
O17 Si11 1.622259 1_555
O17 Sn2 2.050272 1_555
O18 Si11 1.651910 1_555
O19 Si9 1.640877 1_555
O20 Si10 1.643123 1_555
O21 Si7 1.655915 1_555
O22 Si8 1.665466 1_555
O23 Si6 1.656483 1_555
O24 Si12 1.635493 1_555
O25 Si13 1.629351 1_555
O26 Si14 1.627174 1_555
O27 Si15 1.626538 1_555
O28 Si16 1.628572 1_555
O29 Si17 1.632470 1_555
O30 Si17 1.655252 1_555
O31 Si15 1.651036 1_555
O32 Si16 1.646686 1_555
O33 Si13 1.651299 1_555
O34 Si14 1.665237 1_555
O35 Si12 1.657750 1_555
O36 Si17 1.626431 1_555
O36 Sn0 2.098579 1_455
O37 Si15 1.619292 1_555
O37 Sn0 2.082265 1_555
O38 Si16 1.637221 1_555
O38 Sn0 2.131855 1_445
O39 Si13 1.645282 1_555
O40 Si14 1.631916 1_555
O41 Si12 1.643665 1_555
O42 Si6 1.635856 1_555
O43 Si7 1.653417 1_555
O44 Si8 1.648081 1_555
O45 Si9 1.650270 1_555
O46 Si10 1.637074 1_555
O47 Si11 1.649718 1_555
O48 Si5 1.626531 1_555
O48 Sn1 2.093826 1_555
O49 Si3 1.623003 1_555
O49 Sn1 2.083675 1_555
O50 Si4 1.642826 1_655
O50 Sn1 2.132414 1_555
O51 Si1 1.638397 1_555
O51 Sn2 2.106258 1_555
O52 Si2 1.627346 1_555
O52 Sn2 2.089332 1_555
O53 Si0 1.631827 1_555
O53 Sn2 2.081845 1_555
O54 Si12 1.621415 1_555
O55 Si13 1.632734 1_655
O56 Si14 1.632337 1_545
O57 Si15 1.654517 1_545
O58 Si16 1.642613 1_555
O59 Si17 1.641650 1_655
O60 Si11 1.636231 1_555
O61 Si9 1.650364 1_455
O62 Si10 1.652354 1_565
O63 Si7 1.644739 1_565
O64 Si8 1.627984 1_555
O65 Si6 1.641478 1_455
O66 Si0 1.655396 1_565
O67 Si1 1.654827 1_555
O68 Si2 1.675979 1_455
O69 Si3 1.655549 1_555
O70 Si4 1.642218 1_555
O71 Si5 1.642580 1_565
