# generated using pymatgen
data_FeP2O7
_symmetry_space_group_name_H-M   'P 1'
_cell_length_a   8.25071500
_cell_length_b   6.98461400
_cell_length_c   9.53759683
_cell_angle_alpha   71.32651730
_cell_angle_beta   90.00000000
_cell_angle_gamma   90.00000000
_symmetry_Int_Tables_number   1
_chemical_formula_structural   FeP2O7
_chemical_formula_sum   'Fe4 P8 O28'
_cell_volume   520.69971468
_cell_formula_units_Z   4
loop_
 _symmetry_equiv_pos_site_id
 _symmetry_equiv_pos_as_xyz
  1  'x, y, z'
loop_
 _atom_site_type_symbol
 _atom_site_label
 _atom_site_symmetry_multiplicity
 _atom_site_fract_x
 _atom_site_fract_y
 _atom_site_fract_z
 _atom_site_occupancy
  Fe  Fe0  1  0.26907800  0.27683500  0.50688200  1
  Fe  Fe1  1  0.23092200  0.27683500  0.00688200  1
  Fe  Fe2  1  0.76907800  0.72316500  0.99311800  1
  Fe  Fe3  1  0.73092200  0.72316500  0.49311800  1
  P  P0  1  0.91668900  0.46436100  0.79422300  1
  P  P1  1  0.08331100  0.53563900  0.20577700  1
  P  P2  1  0.53284400  0.93179000  0.70460600  1
  P  P3  1  0.46715600  0.06821000  0.29539400  1
  P  P4  1  0.96715600  0.93179000  0.20460600  1
  P  P5  1  0.58331100  0.46436100  0.29422300  1
  P  P6  1  0.41668900  0.53563900  0.70577700  1
  P  P7  1  0.03284400  0.06821000  0.79539400  1
  O  O0  1  0.08471600  0.47524200  0.85964100  1
  O  O1  1  0.58471600  0.52475800  0.64035900  1
  O  O2  1  0.09903200  0.10787600  0.63908500  1
  O  O3  1  0.39486100  0.76482100  0.70698400  1
  O  O4  1  0.16980700  0.08021500  0.90130700  1
  O  O5  1  0.21920200  0.49372300  0.10919600  1
  O  O6  1  0.90786800  0.60238000  0.63364800  1
  O  O7  1  0.10513900  0.76482100  0.20698400  1
  O  O8  1  0.66980700  0.91978500  0.59869300  1
  O  O9  1  0.94377500  0.86662100  0.84773000  1
  O  O10  1  0.91528400  0.52475800  0.14035900  1
  O  O11  1  0.44377500  0.13337900  0.65227000  1
  O  O12  1  0.71920200  0.50627700  0.39080400  1
  O  O13  1  0.40096800  0.10787600  0.13908500  1
  O  O14  1  0.41528400  0.47524200  0.35964100  1
  O  O15  1  0.05622500  0.13337900  0.15227000  1
  O  O16  1  0.60513900  0.23517900  0.29301600  1
  O  O17  1  0.55622500  0.86662100  0.34773000  1
  O  O18  1  0.40786800  0.39762000  0.86635200  1
  O  O19  1  0.83019300  0.91978500  0.09869300  1
  O  O20  1  0.78079800  0.50627700  0.89080400  1
  O  O21  1  0.59903200  0.89212400  0.86091500  1
  O  O22  1  0.28079800  0.49372300  0.60919600  1
  O  O23  1  0.33019300  0.08021500  0.40130700  1
  O  O24  1  0.09213200  0.39762000  0.36635200  1
  O  O25  1  0.89486100  0.23517900  0.79301600  1
  O  O26  1  0.59213200  0.60238000  0.13364800  1
  O  O27  1  0.90096800  0.89212400  0.36091500  1
loop_
_geom_bond_atom_site_label_1
_geom_bond_atom_site_label_2
_geom_bond_distance
_geom_bond_site_symmetry_2
Fe0 O24 1.978764 1_555
Fe0 O2 1.999526 1_555
Fe0 O23 2.009891 1_555
Fe0 O14 2.025226 1_555
Fe0 O11 2.028457 1_555
Fe0 O22 2.050136 1_555
Fe1 O18 1.978764 1_554
Fe1 O13 1.999526 1_555
Fe1 O4 2.009891 1_554
Fe1 O0 2.025226 1_554
Fe1 O15 2.028457 1_555
Fe1 O5 2.050136 1_555
Fe2 O26 1.978764 1_556
Fe2 O21 1.999526 1_555
Fe2 O19 2.009891 1_556
Fe2 O10 2.025226 1_556
Fe2 O9 2.028457 1_555
Fe2 O20 2.050136 1_555
Fe3 O6 1.978764 1_555
Fe3 O27 1.999526 1_555
Fe3 O8 2.009891 1_555
Fe3 O1 2.025226 1_555
Fe3 O17 2.028457 1_555
Fe3 O12 2.050136 1_555
O0 P0 1.532115 1_455
O1 P6 1.532115 1_555
O2 P7 1.527422 1_555
O3 P6 1.614547 1_555
O3 P2 1.624721 1_555
O4 P7 1.535800 1_555
O5 P1 1.537533 1_555
O6 P0 1.527974 1_555
O7 P1 1.614547 1_555
O7 P4 1.624721 1_455
O8 P2 1.535800 1_555
O9 P7 1.523707 1_665
O10 P1 1.532115 1_655
O11 P2 1.523707 1_545
O12 P5 1.537533 1_555
O13 P3 1.527422 1_555
O14 P5 1.532115 1_555
O15 P4 1.523707 1_445
O16 P5 1.614547 1_555
O16 P3 1.624721 1_555
O17 P3 1.523707 1_565
O18 P6 1.527974 1_555
O19 P4 1.535800 1_555
O20 P0 1.537533 1_555
O21 P2 1.527422 1_555
O22 P6 1.537533 1_555
O23 P3 1.535800 1_555
O24 P1 1.527974 1_555
O25 P0 1.614547 1_555
O25 P7 1.624721 1_655
O26 P5 1.527974 1_555
O27 P4 1.527422 1_555
