# generated using pymatgen
data_Na5Zr2Ta2Si5PO24
_symmetry_space_group_name_H-M   'P 1'
_cell_length_a   9.05889032
_cell_length_b   9.05342234
_cell_length_c   22.86784791
_cell_angle_alpha   90.03739163
_cell_angle_beta   90.14920264
_cell_angle_gamma   119.97220230
_symmetry_Int_Tables_number   1
_chemical_formula_structural   Na5Zr2Ta2Si5PO24
_chemical_formula_sum   'Na15 Zr6 Ta6 Si15 P3 O72'
_cell_volume   1624.66084320
_cell_formula_units_Z   3
loop_
 _symmetry_equiv_pos_site_id
 _symmetry_equiv_pos_as_xyz
  1  'x, y, z'
loop_
 _atom_site_type_symbol
 _atom_site_label
 _atom_site_symmetry_multiplicity
 _atom_site_fract_x
 _atom_site_fract_y
 _atom_site_fract_z
 _atom_site_occupancy
  Na  Na0  1  0.64101485  0.00570671  0.25047076  1
  Na  Na1  1  0.36548647  0.36062910  0.24929983  1
  Na  Na2  1  0.99398915  0.63273034  0.24947161  1
  Na  Na3  1  0.99695133  0.36209813  0.74954514  1
  Na  Na4  1  0.03550018  0.69977677  0.58063485  1
  Na  Na5  1  0.66149761  0.96285031  0.58090211  1
  Na  Na6  1  0.97045857  0.66799246  0.91876557  1
  Na  Na7  1  0.70126591  0.03521824  0.91672381  1
  Na  Na8  1  0.32907897  0.29783805  0.91932432  1
  Na  Na9  1  0.00439073  0.00443673  0.49408478  1
  Na  Na10  1  0.00488170  0.00241423  0.00492939  1
  Na  Na11  1  0.65980429  0.33037292  0.83150870  1
  Na  Na12  1  0.66788902  0.33305589  0.33538372  1
  Na  Na13  1  0.33117005  0.66202609  0.16220748  1
  Na  Na14  1  0.34085629  0.66478377  0.66410116  1
  Zr  Zr0  1  0.99594755  0.99594948  0.35489348  1
  Zr  Zr1  1  0.00452828  0.00240219  0.84839049  1
  Zr  Zr2  1  0.66785974  0.33726700  0.18340757  1
  Zr  Zr3  1  0.66574942  0.33273100  0.98482916  1
  Zr  Zr4  1  0.32400842  0.66109565  0.02305686  1
  Zr  Zr5  1  0.33378414  0.66403405  0.51971550  1
  Ta  Ta0  1  0.00249571  0.00259494  0.64623297  1
  Ta  Ta1  1  0.00389062  0.00017062  0.14693460  1
  Ta  Ta2  1  0.66234633  0.33329315  0.68646015  1
  Ta  Ta3  1  0.66877648  0.33204485  0.47829754  1
  Ta  Ta4  1  0.33140082  0.66865014  0.31550741  1
  Ta  Ta5  1  0.33329155  0.67265914  0.81007807  1
  Si  Si0  1  0.28903694  0.99837292  0.25096743  1
  Si  Si1  1  0.70859616  0.71171112  0.24964481  1
  Si  Si2  1  0.00214005  0.28979101  0.25036841  1
  Si  Si3  1  0.29621284  0.29384926  0.74930360  1
  Si  Si4  1  0.99794279  0.70762717  0.74897888  1
  Si  Si5  1  0.70601296  0.99773007  0.74850683  1
  Si  Si6  1  0.95258618  0.33115235  0.58445826  1
  Si  Si7  1  0.37827062  0.05096167  0.58285888  1
  Si  Si8  1  0.66666971  0.61951303  0.58345826  1
  Si  Si9  1  0.96130621  0.63379233  0.08416898  1
  Si  Si10  1  0.36687394  0.33004870  0.08397658  1
  Si  Si11  1  0.04293208  0.37627621  0.91479180  1
  Si  Si12  1  0.33376696  0.95720335  0.91613613  1
  Si  Si13  1  0.62458884  0.96089860  0.41824591  1
  Si  Si14  1  0.03916596  0.66436860  0.41835089  1
  P  P0  1  0.67179307  0.03840637  0.08443838  1
  P  P1  1  0.61877254  0.66720153  0.91527731  1
  P  P2  1  0.33778961  0.37825060  0.41645399  1
  O  O0  1  0.20612662  0.03827532  0.30574774  1
  O  O1  1  0.83162485  0.79411574  0.30513101  1
  O  O2  1  0.96464136  0.16876071  0.30581316  1
  O  O3  1  0.21549585  0.18311036  0.80848443  1
  O  O4  1  0.96738039  0.78548214  0.80838241  1
  O  O5  1  0.82340535  0.03804155  0.80696771  1
  O  O6  1  0.80369926  0.97298786  0.69190526  1
  O  O7  1  0.16210322  0.19447260  0.69486982  1
  O  O8  1  0.02651327  0.83071530  0.69247365  1
  O  O9  1  0.80018359  0.83942898  0.19366692  1
  O  O10  1  0.03642755  0.19804165  0.19381349  1
  O  O11  1  0.16127259  0.96191173  0.19412624  1
  O  O12  1  0.86093242  0.35765771  0.64197408  1
  O  O13  1  0.50305631  0.14409033  0.63918019  1
  O  O14  1  0.64682194  0.50091826  0.64017311  1
  O  O15  1  0.87493639  0.51744088  0.14178219  1
  O  O16  1  0.64538896  0.12234342  0.13878625  1
  O  O17  1  0.48091803  0.35294367  0.14187173  1
  O  O18  1  0.45226485  0.29883614  0.02455043  1
  O  O19  1  0.84728740  0.54610584  0.02446101  1
  O  O20  1  0.69835440  0.14915427  0.02856603  1
  O  O21  1  0.47327712  0.17171030  0.52652635  1
  O  O22  1  0.70182244  0.52827372  0.52759795  1
  O  O23  1  0.82518912  0.29744469  0.52818371  1
  O  O24  1  0.54128844  0.69993913  0.96932298  1
  O  O25  1  0.16842560  0.46307412  0.96996167  1
  O  O26  1  0.30193645  0.83518545  0.97115892  1
  O  O27  1  0.53708787  0.84769340  0.47622503  1
  O  O28  1  0.31328253  0.46497855  0.47006680  1
  O  O29  1  0.15127448  0.68598889  0.47636189  1
  O  O30  1  0.13726449  0.63776621  0.35992612  1
  O  O31  1  0.50129442  0.85990504  0.35982147  1
  O  O32  1  0.36105221  0.49152495  0.36061152  1
  O  O33  1  0.13993465  0.49860403  0.85720713  1
  O  O34  1  0.36151033  0.85787158  0.85930804  1
  O  O35  1  0.50296558  0.64019751  0.86102331  1
  O  O36  1  0.02267190  0.83209814  0.41196180  1
  O  O37  1  0.81204889  0.98501821  0.41194964  1
  O  O38  1  0.18149141  0.20230092  0.41006980  1
  O  O39  1  0.01794160  0.18442121  0.91032165  1
  O  O40  1  0.16330338  0.97499984  0.91051055  1
  O  O41  1  0.79908972  0.82476304  0.90843472  1
  O  O42  1  0.96130367  0.15420543  0.59197330  1
  O  O43  1  0.18608198  0.02479405  0.59239967  1
  O  O44  1  0.84178066  0.80890515  0.59224196  1
  O  O45  1  0.97233019  0.81924920  0.09175952  1
  O  O46  1  0.83488196  0.02595103  0.09126254  1
  O  O47  1  0.17866321  0.15863395  0.09185629  1
  O  O48  1  0.69347507  0.17061949  0.73971230  1
  O  O49  1  0.48306885  0.31476341  0.74030900  1
  O  O50  1  0.83848789  0.51351745  0.74068607  1
  O  O51  1  0.68249449  0.52018294  0.24375355  1
  O  O52  1  0.83752879  0.31592389  0.24345811  1
  O  O53  1  0.48132945  0.15822240  0.24303078  1
  O  O54  1  0.63495863  0.50420033  0.91935419  1
  O  O55  1  0.85559217  0.36248233  0.91904483  1
  O  O56  1  0.50574759  0.14573054  0.91859058  1
  O  O57  1  0.63348710  0.14727216  0.42370048  1
  O  O58  1  0.50263611  0.36689234  0.42291194  1
  O  O59  1  0.85084408  0.49005164  0.42431531  1
  O  O60  1  0.35437753  0.50130867  0.07905454  1
  O  O61  1  0.14950362  0.65511292  0.07964390  1
  O  O62  1  0.51437079  0.86185484  0.07729974  1
  O  O63  1  0.35823081  0.86172711  0.57976159  1
  O  O64  1  0.50732940  0.65263285  0.58089470  1
  O  O65  1  0.13630957  0.50282314  0.58017044  1
  O  O66  1  0.30335334  0.82248146  0.25802349  1
  O  O67  1  0.51762692  0.69225299  0.25812218  1
  O  O68  1  0.17645962  0.47981638  0.25794913  1
  O  O69  1  0.30401794  0.47834690  0.75695317  1
  O  O70  1  0.16755648  0.68406302  0.75658225  1
  O  O71  1  0.51904628  0.82737881  0.75703121  1
loop_
_geom_bond_atom_site_label_1
_geom_bond_atom_site_label_2
_geom_bond_distance
_geom_bond_site_symmetry_2
Na0 O53 2.454150 1_555
Na0 O52 2.467628 1_555
Na0 O67 2.483062 1_545
Na0 O66 2.659198 1_545
Na0 O16 2.757118 1_555
Na0 O31 2.819391 1_545
Na0 O2 2.833684 1_555
Na0 O9 2.865058 1_545
Na1 O68 2.446093 1_555
Na1 O51 2.491376 1_555
Na1 O53 2.530140 1_555
Na1 O67 2.611044 1_555
Na1 O17 2.686870 1_555
Na1 O32 2.815935 1_555
Na1 O0 2.841214 1_555
Na1 O10 2.873368 1_555
Na2 O66 2.455556 1_655
Na2 O51 2.478498 1_555
Na2 O52 2.488158 1_555
Na2 O68 2.640380 1_655
Na2 O15 2.678651 1_555
Na2 O30 2.826706 1_655
Na2 O1 2.841259 1_555
Na2 O11 2.877923 1_655
Na3 O48 2.418283 1_555
Na3 O50 2.438452 1_555
Na3 O69 2.438504 1_655
Na3 O70 2.531391 1_655
Na3 O12 2.739649 1_555
Na3 O33 2.765228 1_655
Na3 O5 2.865401 1_555
Na3 O7 2.894897 1_655
Na4 O65 2.374989 1_555
Na4 O44 2.420870 1_455
Na4 O63 2.532757 1_555
Na4 O43 2.564781 1_565
Na4 O29 2.635301 1_555
Na4 O8 2.836605 1_555
Na4 O22 2.882333 1_455
Na5 O42 2.395046 1_565
Na5 O63 2.423395 1_555
Na5 O64 2.432947 1_555
Na5 O27 2.625983 1_555
Na5 O44 2.636191 1_555
Na5 O6 2.824160 1_555
Na5 O23 2.890394 1_565
Na5 O13 2.981403 1_565
Na6 O55 2.420218 1_555
Na6 O40 2.442091 1_655
Na6 O41 2.584621 1_555
Na6 O54 2.633130 1_555
Na6 O19 2.663081 1_556
Na6 O4 2.745303 1_555
Na6 O26 2.860257 1_655
Na7 O56 2.431227 1_555
Na7 O41 2.477702 1_545
Na7 O39 2.491251 1_655
Na7 O55 2.568378 1_555
Na7 O5 2.740565 1_555
Na7 O20 2.762259 1_556
Na7 O24 2.894716 1_545
Na7 O34 2.968735 1_545
Na8 O54 2.448672 1_555
Na8 O39 2.479114 1_555
Na8 O40 2.539808 1_545
Na8 O56 2.580737 1_555
Na8 O18 2.647931 1_556
Na8 O3 2.734458 1_555
Na8 O25 2.806882 1_555
Na9 O36 2.498916 1_545
Na9 O37 2.504231 1_445
Na9 O38 2.573524 1_555
Na9 O43 2.733998 1_555
Na9 O42 2.744292 1_455
Na9 O44 2.785497 1_445
Na10 O47 2.487063 1_555
Na10 O45 2.509634 1_445
Na10 O46 2.580287 1_455
Na10 O40 2.674783 1_544
Na10 O39 2.687196 1_554
Na10 O41 2.812384 1_444
Na11 O56 2.528930 1_555
Na11 O49 2.586290 1_555
Na11 O55 2.588993 1_555
Na11 O54 2.629612 1_555
Na11 O50 2.650151 1_555
Na11 O48 2.651717 1_555
Na12 O57 2.547350 1_555
Na12 O59 2.554973 1_555
Na12 O58 2.610405 1_555
Na12 O52 2.656916 1_555
Na12 O51 2.657136 1_555
Na12 O53 2.669457 1_555
Na13 O60 2.466024 1_555
Na13 O61 2.481476 1_555
Na13 O62 2.611267 1_555
Na13 O68 2.681352 1_555
Na13 O67 2.693852 1_555
Na13 O66 2.709089 1_555
Na14 O64 2.467235 1_555
Na14 O65 2.555459 1_555
Na14 O63 2.578627 1_555
Na14 O71 2.625362 1_555
Na14 O69 2.629529 1_555
Na14 O70 2.694109 1_555
O0 Si0 1.593520 1_545
O0 Zr0 2.077929 1_445
O1 Si1 1.602907 1_555
O1 Zr0 2.029899 1_555
O2 Si2 1.598675 1_655
O2 Zr0 2.057146 1_545
O3 Si3 1.626587 1_555
O3 Zr1 2.012159 1_555
O4 Si4 1.616941 1_555
O4 Zr1 2.035385 1_665
O5 Si5 1.629575 1_545
O5 Zr1 2.052996 1_655
O6 Si5 1.646900 1_555
O6 Ta0 1.983350 1_665
O7 Si3 1.653311 1_555
O7 Ta0 1.955704 1_555
O8 Si4 1.641313 1_455
O8 Ta0 1.981454 1_565
O9 Si1 1.647096 1_555
O9 Ta1 1.998566 1_665
O10 Si2 1.648491 1_555
O10 Ta1 1.978264 1_555
O11 Si0 1.657706 1_555
O11 Ta1 1.950156 1_565
O12 Si6 1.637441 1_555
O12 Ta2 1.983226 1_555
O13 Si7 1.638974 1_555
O13 Ta2 1.924870 1_555
O14 Si8 1.636261 1_555
O14 Ta2 1.912534 1_555
O15 Si9 1.625193 1_555
O15 Zr2 2.009920 1_555
O16 P0 1.536625 1_555
O16 Zr2 2.114078 1_555
O17 Si10 1.625316 1_555
O17 Zr2 2.005534 1_555
O18 Si10 1.657814 1_555
O18 Zr3 2.018886 1_554
O19 Si9 1.653277 1_555
O19 Zr3 2.018257 1_554
O20 P0 1.567765 1_555
O20 Zr3 2.083489 1_554
O21 Si7 1.631809 1_555
O21 Ta3 1.975747 1_555
O22 Si8 1.636783 1_555
O22 Ta3 1.995241 1_555
O23 Si6 1.649525 1_555
O23 Ta3 1.960288 1_555
O24 P1 1.523126 1_555
O24 Zr4 2.197586 1_556
O25 Si11 1.612519 1_555
O25 Zr4 2.034282 1_556
O26 Si12 1.603777 1_555
O26 Zr4 2.061227 1_556
O27 Si13 1.622392 1_555
O27 Zr5 2.024274 1_555
O28 P2 1.530762 1_555
O28 Zr5 2.057434 1_555
O29 Si14 1.619744 1_555
O29 Zr5 2.018905 1_555
O30 Si14 1.688895 1_555
O30 Ta4 1.929038 1_555
O31 Si13 1.684864 1_555
O31 Ta4 1.928901 1_555
O32 P2 1.585561 1_555
O32 Ta4 2.034354 1_555
O33 Si11 1.663828 1_555
O33 Ta5 1.991723 1_555
O34 Si12 1.669337 1_555
O34 Ta5 1.926699 1_555
O35 P1 1.560825 1_555
O35 Ta5 2.061220 1_555
O36 Si14 1.605140 1_555
O36 Zr0 2.078927 1_455
O37 Si13 1.607182 1_555
O37 Zr0 2.081877 1_555
O38 P2 1.519412 1_555
O38 Zr0 2.180770 1_445
O39 Si11 1.638729 1_555
O39 Zr1 2.128856 1_555
O40 Si12 1.635445 1_555
O40 Zr1 2.120057 1_565
O41 P1 1.549522 1_555
O41 Zr1 2.227326 1_665
O42 Si6 1.651904 1_555
O42 Ta0 2.018519 1_655
O43 Si7 1.650696 1_555
O43 Ta0 1.999691 1_555
O44 Si8 1.666420 1_555
O44 Ta0 2.038612 1_665
O45 Si9 1.640489 1_555
O45 Ta1 1.970823 1_665
O46 P0 1.544368 1_555
O46 Ta1 2.089640 1_655
O47 Si10 1.645004 1_555
O47 Ta1 1.973453 1_555
O48 Si5 1.637451 1_545
O48 Ta2 2.036412 1_555
O49 Si3 1.620200 1_555
O49 Ta2 1.980032 1_555
O50 Si4 1.634809 1_555
O50 Ta2 2.032669 1_555
O51 Si1 1.634207 1_555
O51 Zr2 2.107372 1_555
O52 Si2 1.629706 1_655
O52 Zr2 2.138129 1_555
O53 Si0 1.626306 1_545
O53 Zr2 2.149411 1_555
O54 P1 1.556999 1_555
O54 Zr3 2.272229 1_555
O55 Si11 1.641430 1_655
O55 Zr3 2.200993 1_555
O56 Si12 1.638934 1_545
O56 Zr3 2.189728 1_555
O57 Si13 1.653141 1_545
O57 Ta3 1.979952 1_555
O58 P2 1.553934 1_555
O58 Ta3 2.105675 1_555
O59 Si14 1.652582 1_655
O59 Ta3 1.986463 1_555
O60 Si10 1.614012 1_555
O60 Zr4 2.050956 1_555
O61 Si9 1.620696 1_455
O61 Zr4 2.025245 1_555
O62 P0 1.528441 1_565
O62 Zr4 2.161060 1_555
O63 Si7 1.631600 1_565
O63 Zr5 2.176481 1_555
O64 Si8 1.615214 1_555
O64 Zr5 2.142525 1_555
O65 Si6 1.616069 1_455
O65 Zr5 2.156006 1_555
O66 Si0 1.668901 1_555
O66 Ta4 2.021479 1_555
O67 Si1 1.660934 1_555
O67 Ta4 2.065288 1_555
O68 Si2 1.663488 1_555
O68 Ta4 2.053080 1_555
O69 Si3 1.645348 1_555
O69 Ta5 2.042144 1_555
O70 Si4 1.662164 1_455
O70 Ta5 1.976566 1_555
O71 Si5 1.636273 1_555
O71 Ta5 1.980645 1_555
