# generated using pymatgen
data_MgV2(Ag3O4)2
_symmetry_space_group_name_H-M   'P 1'
_cell_length_a   5.87822516
_cell_length_b   5.58673555
_cell_length_c   9.79430877
_cell_angle_alpha   83.19825130
_cell_angle_beta   87.22128952
_cell_angle_gamma   60.35882498
_symmetry_Int_Tables_number   1
_chemical_formula_structural   MgV2(Ag3O4)2
_chemical_formula_sum   'Mg1 V2 Ag6 O8'
_cell_volume   277.56876877
_cell_formula_units_Z   1
loop_
 _symmetry_equiv_pos_site_id
 _symmetry_equiv_pos_as_xyz
  1  'x, y, z'
loop_
 _atom_site_type_symbol
 _atom_site_label
 _atom_site_symmetry_multiplicity
 _atom_site_fract_x
 _atom_site_fract_y
 _atom_site_fract_z
 _atom_site_occupancy
  Mg  Mg0  1  0.50000000  0.50000000  0.50000000  1
  V  V0  1  0.53085349  0.70816729  0.22630484  1
  V  V1  1  0.46914651  0.29183271  0.77369516  1
  Ag  Ag0  1  0.29927523  0.39051350  0.10579933  1
  Ag  Ag1  1  0.03219960  0.95530745  0.63428599  1
  Ag  Ag2  1  0.70072477  0.60948650  0.89420067  1
  Ag  Ag3  1  0.96780040  0.04469255  0.36571401  1
  Ag  Ag4  1  0.00000000  -0.00000000  -0.00000000  1
  Ag  Ag5  1  0.00000000  0.50000000  0.50000000  1
  O  O0  1  0.77788006  0.00490880  0.83104648  1
  O  O1  1  0.50173656  0.58784781  0.71267220  1
  O  O2  1  0.22211994  0.99509120  0.16895352  1
  O  O3  1  0.49826344  0.41215219  0.28732780  1
  O  O4  1  0.77616805  0.64608802  0.10839892  1
  O  O5  1  0.22383195  0.35391198  0.89160108  1
  O  O6  1  0.61640228  0.75545529  0.38646509  1
  O  O7  1  0.38359772  0.24454471  0.61353491  1
loop_
_geom_bond_atom_site_label_1
_geom_bond_atom_site_label_2
_geom_bond_distance
_geom_bond_site_symmetry_2
Mg0 O6 2.063427 1_555
Mg0 O7 2.063427 1_555
Mg0 O1 2.197483 1_555
Mg0 O3 2.197483 1_555
Ag0 O5 2.218397 1_554
Ag0 O3 2.221782 1_555
Ag0 O2 2.471572 1_545
Ag0 O4 2.674481 1_455
Ag1 O0 2.337285 1_465
Ag1 O1 2.578617 1_555
Ag2 O4 2.218397 1_556
Ag2 O1 2.221782 1_555
Ag2 O0 2.471572 1_565
Ag2 O5 2.674481 1_655
Ag3 O2 2.337285 1_645
Ag3 O3 2.578617 1_555
Ag4 O2 2.146428 1_545
Ag4 O0 2.146428 1_454
Ag5 O7 2.245414 1_555
Ag5 O6 2.245414 1_455
O0 V1 1.785118 1_555
O1 V1 1.788010 1_555
O2 V0 1.785118 1_555
O3 V0 1.788010 1_555
O4 V0 1.723947 1_555
O5 V1 1.723947 1_555
O6 V0 1.757675 1_555
O7 V1 1.757675 1_555
