# generated using pymatgen
data_MgMn6(O5F)2
_symmetry_space_group_name_H-M   'P 1'
_cell_length_a   8.10224274
_cell_length_b   5.68035562
_cell_length_c   5.88212134
_cell_angle_alpha   69.70557232
_cell_angle_beta   64.14717851
_cell_angle_gamma   65.84729262
_symmetry_Int_Tables_number   1
_chemical_formula_structural   MgMn6(O5F)2
_chemical_formula_sum   'Mg1 Mn6 O10 F2'
_cell_volume   217.56915635
_cell_formula_units_Z   1
loop_
 _symmetry_equiv_pos_site_id
 _symmetry_equiv_pos_as_xyz
  1  'x, y, z'
loop_
 _atom_site_type_symbol
 _atom_site_label
 _atom_site_symmetry_multiplicity
 _atom_site_fract_x
 _atom_site_fract_y
 _atom_site_fract_z
 _atom_site_occupancy
  Mg  Mg0  1  0.49727272  0.99603959  0.52302726  1
  Mn  Mn0  1  0.86085069  0.67854118  0.69616998  1
  Mn  Mn1  1  0.66974536  0.36827909  0.32826995  1
  Mn  Mn2  1  0.31879756  0.62999044  0.67545372  1
  Mn  Mn3  1  0.12757686  0.30562246  0.31645636  1
  Mn  Mn4  1  0.52061039  0.02212584  0.01731150  1
  Mn  Mn5  1  0.97914978  0.02602078  0.98731541  1
  O  O0  1  0.67398443  0.03578803  0.65254524  1
  O  O1  1  0.32595587  0.35916640  0.98036990  1
  O  O2  1  0.59053311  0.59349940  0.55549508  1
  O  O3  1  0.94309097  0.24895875  0.20140250  1
  O  O4  1  0.69301479  0.10653982  0.15587121  1
  O  O5  1  0.04334087  0.76582956  0.79130465  1
  O  O6  1  0.39401603  0.40578376  0.46294394  1
  O  O7  1  0.32874313  0.96879070  0.36758025  1
  O  O8  1  0.66076198  0.64939317  0.03326177  1
  O  O9  1  0.98801511  0.31411634  0.67780486  1
  F  F0  1  0.28873601  0.90389789  0.86315750  1
  F  F1  1  0.00321134  0.70495279  0.30949692  1
loop_
_geom_bond_atom_site_label_1
_geom_bond_atom_site_label_2
_geom_bond_distance
_geom_bond_site_symmetry_2
Mg0 O0 2.004115 1_565
Mg0 O7 2.021017 1_555
Mg0 O2 2.060306 1_555
Mg0 O6 2.082263 1_565
Mg0 O4 2.111992 1_565
Mn0 O9 1.916002 1_555
Mn0 O8 1.943106 1_556
Mn0 O0 1.984815 1_565
Mn0 O5 2.063784 1_655
Mn1 O2 1.897662 1_555
Mn1 O3 1.897975 1_555
Mn1 O8 1.912905 1_555
Mn1 O6 1.961623 1_555
Mn1 O4 1.980939 1_555
Mn1 O0 2.170613 1_555
Mn2 O6 1.833224 1_555
Mn2 O5 1.915691 1_555
Mn2 O1 1.921070 1_555
Mn2 O2 1.939415 1_555
Mn2 O7 2.138168 1_555
Mn3 O9 1.931086 1_455
Mn3 O1 1.948306 1_554
Mn3 O7 1.970819 1_545
Mn3 O3 2.054977 1_455
Mn4 O1 1.933725 1_554
Mn4 O8 1.941304 1_545
Mn4 O0 1.947293 1_554
Mn4 O7 1.977996 1_545
Mn4 O4 2.158129 1_555
Mn5 O3 1.938415 1_556
Mn5 O5 1.953024 1_645
Mn5 O9 1.978169 1_555
Mn5 O4 2.002274 1_556
F0 Mg0 2.044669 1_555
F0 Mn2 2.084744 1_555
F0 Mn5 2.153192 1_465
F1 Mn0 2.035442 1_455
F1 Mn3 2.064819 1_555
F1 Mn5 2.142266 1_464
