# generated using pymatgen
data_YMo3O8
_symmetry_space_group_name_H-M   'P 1'
_cell_length_a   5.79254108
_cell_length_b   5.86005227
_cell_length_c   5.26243996
_cell_angle_alpha   90.03867556
_cell_angle_beta   89.69890985
_cell_angle_gamma   120.42548977
_symmetry_Int_Tables_number   1
_chemical_formula_structural   YMo3O8
_chemical_formula_sum   'Y1 Mo3 O8'
_cell_volume   154.02924661
_cell_formula_units_Z   1
loop_
 _symmetry_equiv_pos_site_id
 _symmetry_equiv_pos_as_xyz
  1  'x, y, z'
loop_
 _atom_site_type_symbol
 _atom_site_label
 _atom_site_symmetry_multiplicity
 _atom_site_fract_x
 _atom_site_fract_y
 _atom_site_fract_z
 _atom_site_occupancy
  Y  Y0  1  0.34799700  0.67393000  0.73614300  1
  Mo  Mo0  1  0.85356200  0.69483000  0.25828100  1
  Mo  Mo1  1  0.85327300  0.15882300  0.25825100  1
  Mo  Mo2  1  0.29682600  0.14847800  0.25360800  1
  O  O0  1  0.50227700  0.01231000  0.45313500  1
  O  O1  1  0.66926200  0.33444700  0.06483300  1
  O  O2  1  0.67582400  0.83770100  0.03804000  1
  O  O3  1  0.16512400  0.83775200  0.02169100  1
  O  O4  1  0.99429100  0.49746800  0.45445900  1
  O  O5  1  0.97573000  0.98852800  0.52497300  1
  O  O6  1  0.16529200  0.32764800  0.02213000  1
  O  O7  1  0.50262000  0.49016600  0.45356500  1
loop_
_geom_bond_atom_site_label_1
_geom_bond_atom_site_label_2
_geom_bond_distance
_geom_bond_site_symmetry_2
Mo0 O3 1.988850 1_655
Mo0 O2 1.997779 1_555
Mo0 O4 2.008303 1_555
Mo0 O7 2.034042 1_555
Mo0 O5 2.050900 1_555
Mo0 O1 2.088309 1_555
Mo1 O6 1.989070 1_655
Mo1 O2 1.997773 1_545
Mo1 O4 2.008928 1_555
Mo1 O0 2.033204 1_555
Mo1 O5 2.049017 1_545
Mo1 O1 2.086912 1_555
Mo2 O3 1.996722 1_545
Mo2 O6 1.997119 1_555
Mo2 O7 2.032324 1_555
Mo2 O0 2.032635 1_555
Mo2 O1 2.103897 1_555
Mo2 O5 2.141370 1_445
O0 Y0 2.268008 1_545
O2 Y0 2.287988 1_554
O3 Y0 2.305012 1_554
O4 Y0 2.312673 1_655
O6 Y0 2.305440 1_554
O7 Y0 2.265809 1_555
