# generated using pymatgen
data_MgVMoO5
_symmetry_space_group_name_H-M   'P 1'
_cell_length_a   3.99413644
_cell_length_b   5.32258697
_cell_length_c   5.32086247
_cell_angle_alpha   88.66396655
_cell_angle_beta   112.07459262
_cell_angle_gamma   68.02889161
_symmetry_Int_Tables_number   1
_chemical_formula_structural   MgVMoO5
_chemical_formula_sum   'Mg1 V1 Mo1 O5'
_cell_volume   95.42699913
_cell_formula_units_Z   1
loop_
 _symmetry_equiv_pos_site_id
 _symmetry_equiv_pos_as_xyz
  1  'x, y, z'
loop_
 _atom_site_type_symbol
 _atom_site_label
 _atom_site_symmetry_multiplicity
 _atom_site_fract_x
 _atom_site_fract_y
 _atom_site_fract_z
 _atom_site_occupancy
  Mg  Mg0  1  0.40939635  0.85996787  0.53471779  1
  V  V0  1  0.85648275  0.60904352  0.17896782  1
  Mo  Mo0  1  0.28348325  0.37442632  0.79941773  1
  O  O0  1  0.94918594  0.76278811  0.51724867  1
  O  O1  1  0.34258785  0.60252462  0.14451006  1
  O  O2  1  0.55395604  0.97677120  0.94024586  1
  O  O3  1  0.14173729  0.26545061  0.40606116  1
  O  O4  1  0.74888352  0.46152874  0.81633089  1
loop_
_geom_bond_atom_site_label_1
_geom_bond_atom_site_label_2
_geom_bond_distance
_geom_bond_site_symmetry_2
Mg0 O3 1.980903 1_565
Mg0 O0 2.059180 1_455
Mg0 O0 2.059829 1_555
Mg0 O4 2.180431 1_555
Mg0 O2 2.184156 1_555
Mg0 O1 2.499891 1_555
Mo0 O2 1.953201 1_545
Mo0 O4 2.046465 1_455
Mo0 O4 2.049270 1_555
Mo0 O3 2.109335 1_555
Mo0 O0 2.143145 1_455
Mo0 O1 2.212216 1_556
O0 V0 1.959855 1_555
O1 V0 2.004639 1_555
O1 V0 2.005483 1_455
O2 V0 1.965991 1_556
O3 V0 1.845464 1_455
O4 V0 2.055276 1_556
