# generated using pymatgen
data_MgFe8(OF)8
_symmetry_space_group_name_H-M   'P 1'
_cell_length_a   9.88174337
_cell_length_b   9.78424523
_cell_length_c   3.09565875
_cell_angle_alpha   90.08362178
_cell_angle_beta   89.91948633
_cell_angle_gamma   89.53012664
_symmetry_Int_Tables_number   1
_chemical_formula_structural   MgFe8(OF)8
_chemical_formula_sum   'Mg1 Fe8 O8 F8'
_cell_volume   299.29432179
_cell_formula_units_Z   1
loop_
 _symmetry_equiv_pos_site_id
 _symmetry_equiv_pos_as_xyz
  1  'x, y, z'
loop_
 _atom_site_type_symbol
 _atom_site_label
 _atom_site_symmetry_multiplicity
 _atom_site_fract_x
 _atom_site_fract_y
 _atom_site_fract_z
 _atom_site_occupancy
  Mg  Mg0  1  0.50146400  0.25365800  0.01525900  1
  Fe  Fe0  1  0.01767700  0.98882200  0.00482300  1
  Fe  Fe1  1  0.99625900  0.51225500  0.00698200  1
  Fe  Fe2  1  0.18127200  0.25118200  0.50671500  1
  Fe  Fe3  1  0.21769600  0.73624900  0.50418200  1
  Fe  Fe4  1  0.52680200  0.53492400  0.99836100  1
  Fe  Fe5  1  0.50958700  0.96082500  0.00732400  1
  Fe  Fe6  1  0.77040200  0.27990200  0.51220600  1
  Fe  Fe7  1  0.76649200  0.73148900  0.50548600  1
  O  O0  1  0.08136600  0.40713600  0.50676000  1
  O  O1  1  0.09594400  0.89835500  0.50401300  1
  O  O2  1  0.13723300  0.14326200  0.00616100  1
  O  O3  1  0.15322000  0.64566000  0.00394400  1
  O  O4  1  0.57720400  0.36542400  0.51431000  1
  O  O5  1  0.66680000  0.66745200  0.00542500  1
  O  O6  1  0.84278100  0.36091000  0.01183500  1
  O  O7  1  0.91184100  0.60915400  0.50726800  1
  F  F0  1  0.32084100  0.32625900  0.00991000  1
  F  F1  1  0.34391300  0.84764200  0.99794100  1
  F  F2  1  0.43697700  0.11014500  0.50853800  1
  F  F3  1  0.39809800  0.61227600  0.49867200  1
  F  F4  1  0.62274900  0.89701900  0.50643700  1
  F  F5  1  0.66437100  0.13981500  0.01089900  1
  F  F6  1  0.85189700  0.86162300  0.00512200  1
  F  F7  1  0.90017200  0.10161500  0.50809300  1
loop_
_geom_bond_atom_site_label_1
_geom_bond_atom_site_label_2
_geom_bond_distance
_geom_bond_site_symmetry_2
Mg0 O4 2.038245 1_555
Mg0 O4 2.043527 1_554
Fe0 O2 1.925723 1_565
Fe0 O1 1.940568 1_555
Fe0 O1 1.940774 1_554
Fe1 O7 1.993082 1_555
Fe1 O7 1.995675 1_554
Fe1 O0 2.034829 1_654
Fe1 O3 2.035378 1_655
Fe1 O0 2.037863 1_655
Fe1 O6 2.128377 1_555
Fe2 O0 1.810605 1_555
Fe2 O2 1.924895 1_556
Fe2 O2 1.926158 1_555
Fe3 O3 1.896191 1_556
Fe3 O3 1.896743 1_555
Fe3 O1 1.982895 1_555
Fe4 O5 1.903986 1_556
Fe4 O4 2.284934 1_555
Fe4 O4 2.354979 1_556
Fe6 O6 1.881708 1_556
Fe6 O6 1.883845 1_555
Fe6 O4 2.078163 1_555
Fe7 O7 1.862133 1_555
Fe7 O5 1.940854 1_556
Fe7 O5 1.941904 1_555
F0 Mg0 1.915711 1_555
F0 Fe2 2.195667 1_555
F0 Fe2 2.210781 1_554
F1 Fe5 1.984245 1_556
F1 Fe3 2.258899 1_555
F1 Fe3 2.285003 1_556
F2 Mg0 2.174342 1_555
F2 Mg0 2.202143 1_556
F2 Fe5 2.241865 1_546
F2 Fe5 2.242718 1_545
F3 Fe4 2.136430 1_554
F3 Fe4 2.139223 1_555
F3 Fe3 2.148017 1_555
F4 Fe5 2.005917 1_555
F4 Fe5 2.006323 1_556
F4 Fe7 2.145445 1_555
F5 Mg0 1.950088 1_555
F5 Fe6 2.320549 1_554
F5 Fe6 2.325237 1_555
F5 Fe5 2.334634 1_545
F6 Fe0 2.065434 1_655
F6 Fe7 2.177449 1_554
F6 Fe7 2.180005 1_555
F7 Fe6 2.156557 1_555
F7 Fe0 2.218039 1_646
F7 Fe0 2.227621 1_645
