# generated using pymatgen
data_Na6NbGa3Si4(SO12)2
_symmetry_space_group_name_H-M   'P 1'
_cell_length_a   8.90295652
_cell_length_b   8.94528039
_cell_length_c   22.18035284
_cell_angle_alpha   89.67470915
_cell_angle_beta   89.89295233
_cell_angle_gamma   120.07348885
_symmetry_Int_Tables_number   1
_chemical_formula_structural   Na6NbGa3Si4(SO12)2
_chemical_formula_sum   'Na18 Nb3 Ga9 Si12 S6 O72'
_cell_volume   1528.59266192
_cell_formula_units_Z   3
loop_
 _symmetry_equiv_pos_site_id
 _symmetry_equiv_pos_as_xyz
  1  'x, y, z'
loop_
 _atom_site_type_symbol
 _atom_site_label
 _atom_site_symmetry_multiplicity
 _atom_site_fract_x
 _atom_site_fract_y
 _atom_site_fract_z
 _atom_site_occupancy
  Na  Na0  1  0.62448456  0.99873018  0.25169280  1
  Na  Na1  1  0.63702540  0.62608220  0.75053067  1
  Na  Na2  1  0.00022336  0.36530508  0.74557564  1
  Na  Na3  1  0.29775700  0.33958719  0.58456686  1
  Na  Na4  1  0.02795071  0.69607067  0.58660304  1
  Na  Na5  1  0.67244884  0.96412240  0.57924834  1
  Na  Na6  1  0.29772130  0.95562077  0.08647614  1
  Na  Na7  1  0.66800084  0.70579207  0.07979922  1
  Na  Na8  1  0.03072815  0.33620616  0.08352685  1
  Na  Na9  1  0.97125294  0.67926921  0.91446316  1
  Na  Na10  1  0.32872601  0.29670739  0.91266258  1
  Na  Na11  1  0.69074936  0.67043192  0.41442071  1
  Na  Na12  1  0.00098646  0.01515332  0.49596741  1
  Na  Na13  1  0.98765479  0.99483480  0.99612854  1
  Na  Na14  1  0.65633881  0.32492395  0.82938002  1
  Na  Na15  1  0.64954888  0.32180985  0.32885037  1
  Na  Na16  1  0.32241738  0.67061708  0.16950082  1
  Na  Na17  1  0.32798541  0.66215698  0.66445685  1
  Nb  Nb0  1  0.68133364  0.33459666  0.97768755  1
  Nb  Nb1  1  0.67054381  0.33129344  0.47639926  1
  Nb  Nb2  1  0.32542420  0.66319189  0.81425649  1
  Ga  Ga0  1  0.02297943  0.02973035  0.35351710  1
  Ga  Ga1  1  0.01050787  0.99684564  0.85457211  1
  Ga  Ga2  1  0.00145897  0.00339758  0.64972054  1
  Ga  Ga3  1  0.99646310  0.97899605  0.15003129  1
  Ga  Ga4  1  0.67699341  0.36133368  0.68614020  1
  Ga  Ga5  1  0.66153234  0.31774568  0.18448474  1
  Ga  Ga6  1  0.33331572  0.67831279  0.01533294  1
  Ga  Ga7  1  0.34574792  0.64915792  0.51543282  1
  Ga  Ga8  1  0.34088790  0.68203296  0.31722069  1
  Si  Si0  1  0.28919394  0.99891854  0.25011971  1
  Si  Si1  1  0.29272097  0.28020103  0.74868911  1
  Si  Si2  1  0.00210649  0.71788366  0.74892742  1
  Si  Si3  1  0.96120674  0.33545361  0.58637624  1
  Si  Si4  1  0.66942896  0.63206372  0.58417386  1
  Si  Si5  1  0.95848630  0.62278731  0.08754340  1
  Si  Si6  1  0.66816394  0.03435727  0.08717475  1
  Si  Si7  1  0.62684761  0.67689964  0.91888034  1
  Si  Si8  1  0.04697159  0.36816381  0.91959974  1
  Si  Si9  1  0.33409334  0.95818161  0.91811350  1
  Si  Si10  1  0.62758770  0.95304834  0.41496918  1
  Si  Si11  1  0.32495026  0.37690859  0.41419831  1
  S  S0  1  0.70709476  0.70299916  0.25039858  1
  S  S1  1  0.00385479  0.29406260  0.24917110  1
  S  S2  1  0.70947846  0.00201635  0.74952835  1
  S  S3  1  0.37861108  0.04413054  0.58425894  1
  S  S4  1  0.37577703  0.33340779  0.08457803  1
  S  S5  1  0.04956047  0.67016563  0.41674052  1
  O  O0  1  0.19305551  0.02630939  0.30757173  1
  O  O1  1  0.81249088  0.78516815  0.30459110  1
  O  O2  1  0.96422019  0.17685524  0.30254718  1
  O  O3  1  0.20309746  0.17636687  0.81028591  1
  O  O4  1  0.95875878  0.79383283  0.80859016  1
  O  O5  1  0.81840107  0.03133928  0.80284395  1
  O  O6  1  0.78118832  0.96659474  0.69374081  1
  O  O7  1  0.16708732  0.20974261  0.68920267  1
  O  O8  1  0.03186572  0.82840257  0.68720997  1
  O  O9  1  0.78416174  0.81715768  0.19487873  1
  O  O10  1  0.02734932  0.21460059  0.19345662  1
  O  O11  1  0.17948139  0.97192680  0.18706192  1
  O  O12  1  0.86805889  0.36383718  0.64522340  1
  O  O13  1  0.48869304  0.12133253  0.63731566  1
  O  O14  1  0.62091987  0.50432685  0.64223941  1
  O  O15  1  0.85615510  0.49084323  0.14242979  1
  O  O16  1  0.62320772  0.11801484  0.14378452  1
  O  O17  1  0.48800313  0.36428488  0.13733162  1
  O  O18  1  0.45362510  0.30298222  0.02916561  1
  O  O19  1  0.83362776  0.53493550  0.02584273  1
  O  O20  1  0.70129711  0.16883700  0.02828827  1
  O  O21  1  0.45986468  0.15549503  0.52928480  1
  O  O22  1  0.70042975  0.53492475  0.52556868  1
  O  O23  1  0.82827569  0.30032675  0.52838456  1
  O  O24  1  0.53583004  0.69376528  0.97927659  1
  O  O25  1  0.16506956  0.45705393  0.97817394  1
  O  O26  1  0.29009721  0.83920784  0.97773531  1
  O  O27  1  0.54120245  0.84023180  0.47714680  1
  O  O28  1  0.29696006  0.44856057  0.47838941  1
  O  O29  1  0.14872092  0.69382128  0.47308234  1
  O  O30  1  0.12242954  0.63629539  0.36362212  1
  O  O31  1  0.51080381  0.88121251  0.35530528  1
  O  O32  1  0.37246094  0.51065067  0.35810662  1
  O  O33  1  0.12851649  0.49815150  0.85913570  1
  O  O34  1  0.36808151  0.86509883  0.85949300  1
  O  O35  1  0.50090016  0.63322070  0.85829585  1
  O  O36  1  0.01571608  0.81599091  0.41165718  1
  O  O37  1  0.81741579  0.96478448  0.40684263  1
  O  O38  1  0.16188858  0.18197597  0.41243581  1
  O  O39  1  0.02471922  0.18174591  0.90941987  1
  O  O40  1  0.16453985  0.97904514  0.91194244  1
  O  O41  1  0.82058355  0.83727304  0.91049903  1
  O  O42  1  0.97859867  0.16117656  0.58901106  1
  O  O43  1  0.20523025  0.03062953  0.58686375  1
  O  O44  1  0.84598892  0.82166609  0.58887350  1
  O  O45  1  0.97422751  0.81418507  0.08824119  1
  O  O46  1  0.84991395  0.02891777  0.09300969  1
  O  O47  1  0.20054698  0.17733006  0.08891039  1
  O  O48  1  0.68832583  0.15475718  0.74294044  1
  O  O49  1  0.48958162  0.30991821  0.74319457  1
  O  O50  1  0.83518637  0.51684289  0.74677245  1
  O  O51  1  0.69175961  0.53222903  0.24312726  1
  O  O52  1  0.84224587  0.30746094  0.24539459  1
  O  O53  1  0.49004503  0.17272828  0.24444696  1
  O  O54  1  0.63764580  0.49465060  0.92416736  1
  O  O55  1  0.85976356  0.36680934  0.92120174  1
  O  O56  1  0.50278466  0.15388321  0.92386808  1
  O  O57  1  0.64841265  0.14863886  0.42495013  1
  O  O58  1  0.50919495  0.36485998  0.42389982  1
  O  O59  1  0.86759642  0.50891900  0.42159599  1
  O  O60  1  0.35770396  0.48889301  0.07945265  1
  O  O61  1  0.14761934  0.63627542  0.07944581  1
  O  O62  1  0.49759458  0.84349086  0.07855908  1
  O  O63  1  0.35560742  0.86916837  0.57680581  1
  O  O64  1  0.49689061  0.65383950  0.57964198  1
  O  O65  1  0.14817323  0.51515753  0.57704822  1
  O  O66  1  0.31580407  0.82590983  0.25574593  1
  O  O67  1  0.53305992  0.69000257  0.25329300  1
  O  O68  1  0.15887099  0.46539463  0.25616740  1
  O  O69  1  0.31667939  0.48253238  0.75529570  1
  O  O70  1  0.17417870  0.68979586  0.75402295  1
  O  O71  1  0.53559592  0.84040816  0.75456497  1
loop_
_geom_bond_atom_site_label_1
_geom_bond_atom_site_label_2
_geom_bond_distance
_geom_bond_site_symmetry_2
Na0 O66 2.385372 1_555
Na0 O53 2.397072 1_565
Na0 O52 2.456345 1_565
Na0 O67 2.456919 1_555
Na0 O31 2.511680 1_555
Na0 O16 2.617351 1_565
Na0 O2 2.857048 1_565
Na0 O9 2.928767 1_555
Na1 O50 2.408827 1_555
Na1 O49 2.456312 1_555
Na1 O69 2.474076 1_555
Na1 O71 2.497179 1_555
Na1 O14 2.617358 1_555
Na1 O35 2.693451 1_555
Na1 O4 2.800488 1_555
Na1 O6 2.923049 1_555
Na2 O50 2.448168 1_455
Na2 O48 2.453914 1_455
Na2 O69 2.475417 1_555
Na2 O12 2.516689 1_455
Na2 O70 2.522092 1_555
Na2 O33 2.783080 1_555
Na2 O7 2.791320 1_555
Na2 O5 2.874215 1_455
Na3 O43 2.456794 1_555
Na3 O64 2.461341 1_555
Na3 O42 2.466354 1_455
Na3 O65 2.522284 1_555
Na3 O28 2.545090 1_555
Na3 O7 2.587260 1_555
Na3 O14 2.805641 1_555
Na3 O21 2.948983 1_555
Na4 O65 2.355531 1_555
Na4 O44 2.390309 1_455
Na4 O8 2.524080 1_555
Na4 O63 2.534016 1_555
Na4 O43 2.591097 1_565
Na4 O29 2.740182 1_555
Na4 O22 2.870087 1_455
Na4 O12 2.873765 1_455
Na5 O42 2.403018 1_565
Na5 O64 2.408037 1_555
Na5 O44 2.455175 1_555
Na5 O63 2.506241 1_555
Na5 O27 2.542189 1_555
Na5 O6 2.715705 1_555
Na5 O23 2.831294 1_565
Na5 O13 2.937910 1_565
Na6 O62 2.448072 1_555
Na6 O61 2.480000 1_555
Na6 O45 2.498809 1_455
Na6 O11 2.501143 1_555
Na6 O47 2.530871 1_565
Na6 O26 2.620040 1_554
Na6 O16 2.817630 1_565
Na6 O18 2.970439 1_565
Na7 O62 2.385847 1_555
Na7 O45 2.400557 1_555
Na7 O60 2.454511 1_555
Na7 O24 2.500623 1_554
Na7 O46 2.526514 1_565
Na7 O9 2.753799 1_555
Na7 O19 2.866245 1_555
Na7 O17 2.927536 1_555
Na8 O61 2.343811 1_555
Na8 O46 2.397674 1_455
Na8 O60 2.522036 1_555
Na8 O47 2.544024 1_555
Na8 O25 2.593190 1_554
Na8 O10 2.658239 1_555
Na8 O20 2.824546 1_455
Na8 O15 2.864184 1_455
Na9 O40 2.351254 1_655
Na9 O41 2.388289 1_555
Na9 O55 2.456429 1_555
Na9 O4 2.581668 1_555
Na9 O54 2.583173 1_555
Na9 O19 2.763750 1_556
Na9 O26 2.835807 1_655
Na9 O33 2.894952 1_655
Na10 O39 2.366480 1_555
Na10 O54 2.427260 1_555
Na10 O40 2.459519 1_545
Na10 O56 2.465251 1_555
Na10 O3 2.529160 1_555
Na10 O18 2.804803 1_556
Na10 O35 2.862260 1_555
Na10 O25 2.898610 1_555
Na11 O37 2.291584 1_555
Na11 O58 2.385926 1_555
Na11 O36 2.508487 1_655
Na11 O59 2.621024 1_555
Na11 O1 2.647524 1_555
Na11 O32 2.758124 1_555
Na11 O22 2.761523 1_555
Na11 O27 2.838884 1_555
Na12 O38 2.351154 1_555
Na12 O37 2.462928 1_445
Na12 O42 2.508977 1_455
Na12 O44 2.588727 1_445
Na12 O36 2.638037 1_545
Na12 O43 2.674871 1_555
Na13 O41 2.397107 1_555
Na13 O39 2.451807 1_665
Na13 O40 2.490301 1_655
Na13 O45 2.562780 1_556
Na13 O46 2.566448 1_566
Na13 O47 2.728405 1_666
Na14 O49 2.385424 1_555
Na14 O50 2.460400 1_555
Na14 O56 2.541402 1_555
Na14 O48 2.557263 1_555
Na14 O55 2.628814 1_555
Na14 O54 2.653510 1_555
Na15 O53 2.332393 1_555
Na15 O51 2.558729 1_555
Na15 O52 2.568595 1_555
Na15 O58 2.576042 1_555
Na15 O57 2.624848 1_555
Na15 O59 2.756690 1_555
Na16 O66 2.388359 1_555
Na16 O61 2.458752 1_555
Na16 O62 2.535386 1_555
Na16 O68 2.540850 1_555
Na16 O67 2.586872 1_555
Na16 O60 2.697541 1_555
Na17 O64 2.430837 1_555
Na17 O65 2.445697 1_555
Na17 O70 2.493497 1_555
Na17 O69 2.540054 1_555
Na17 O63 2.601948 1_555
Na17 O71 2.655109 1_555
Nb0 O55 1.925080 1_555
Nb0 O20 1.932824 1_556
Nb0 O19 1.944918 1_556
Nb0 O56 2.004666 1_555
Nb0 O54 2.037366 1_555
Nb0 O18 2.215095 1_556
Nb1 O57 1.926149 1_555
Nb1 O23 1.941789 1_555
Nb1 O58 1.985990 1_555
Nb1 O22 2.028817 1_555
Nb1 O59 2.063096 1_555
Nb1 O21 2.093260 1_555
Nb2 O33 1.904368 1_555
Nb2 O34 1.935865 1_555
Nb2 O35 1.972099 1_555
Nb2 O70 1.994731 1_555
Nb2 O69 2.055779 1_555
Nb2 O71 2.182022 1_555
Ga0 O0 1.836638 1_555
Ga0 O38 1.852091 1_555
Ga0 O2 1.989758 1_455
Ga0 O37 2.001088 1_445
Ga0 O36 2.273881 1_545
Ga0 O1 2.324039 1_445
Ga1 O3 1.923496 1_565
Ga1 O4 1.932508 1_455
Ga1 O40 1.936035 1_555
Ga1 O41 1.997125 1_455
Ga1 O39 2.011303 1_565
Ga1 O5 2.206585 1_465
Ga2 O8 1.904180 1_545
Ga2 O7 1.908835 1_555
Ga2 O42 2.028289 1_455
Ga2 O44 2.038818 1_445
Ga2 O6 2.061461 1_445
Ga2 O43 2.199564 1_555
Ga3 O11 1.855062 1_655
Ga3 O45 1.955119 1_555
Ga3 O9 1.972832 1_555
Ga3 O46 2.021143 1_565
Ga3 O10 2.210957 1_665
Ga3 O47 2.240443 1_665
Ga4 O14 1.860421 1_555
Ga4 O12 1.916646 1_555
Ga4 O50 1.947317 1_555
Ga4 O49 1.952779 1_555
Ga4 O13 2.240172 1_555
Ga4 O48 2.274416 1_555
Ga5 O16 1.879357 1_555
Ga5 O15 1.886433 1_555
Ga5 O53 1.941774 1_555
Ga5 O17 2.073555 1_555
Ga5 O52 2.139448 1_555
Ga5 O51 2.226550 1_555
Ga6 O26 1.859440 1_554
Ga6 O24 1.911283 1_554
Ga6 O25 1.972864 1_554
Ga6 O62 2.038215 1_555
Ga6 O61 2.063716 1_555
Ga6 O60 2.298551 1_555
Ga7 O28 1.822239 1_555
Ga7 O27 1.915129 1_555
Ga7 O64 1.947330 1_555
Ga7 O65 2.063467 1_555
Ga7 O29 2.196182 1_555
Ga7 O63 2.364687 1_555
Ga8 O31 1.870050 1_555
Ga8 O32 1.915399 1_555
Ga8 O66 1.958258 1_555
Ga8 O30 2.049296 1_555
Ga8 O67 2.193252 1_555
Ga8 O68 2.259626 1_555
O0 Si0 1.620535 1_545
O1 S0 1.479384 1_555
O2 S1 1.496311 1_655
O3 Si1 1.613921 1_555
O4 Si2 1.622592 1_655
O5 S2 1.469867 1_555
O6 S2 1.497784 1_565
O7 Si1 1.642447 1_555
O8 Si2 1.625504 1_555
O9 S0 1.519998 1_555
O10 S1 1.494705 1_555
O11 Si0 1.655642 1_555
O12 Si3 1.632976 1_555
O13 S3 1.468857 1_555
O14 Si4 1.624041 1_555
O15 Si5 1.614617 1_555
O16 Si6 1.614242 1_555
O17 S4 1.474840 1_555
O18 S4 1.501567 1_555
O19 Si5 1.693679 1_555
O20 Si6 1.692679 1_555
O21 S3 1.504383 1_555
O22 Si4 1.665162 1_555
O23 Si3 1.670761 1_555
O24 Si7 1.610809 1_555
O25 Si8 1.613877 1_555
O26 Si9 1.612199 1_555
O27 Si10 1.647504 1_555
O28 Si11 1.633761 1_555
O29 S5 1.485178 1_555
O30 S5 1.448787 1_555
O31 Si10 1.609485 1_555
O32 Si11 1.622353 1_555
O33 Si8 1.676399 1_555
O34 Si9 1.654930 1_555
O35 Si7 1.669805 1_555
O36 S5 1.482386 1_555
O37 Si10 1.649408 1_555
O38 Si11 1.616656 1_555
O39 Si8 1.595097 1_555
O40 Si9 1.617118 1_555
O41 Si7 1.607321 1_555
O42 Si3 1.642760 1_555
O43 S3 1.487744 1_555
O44 Si4 1.639817 1_555
O45 Si5 1.646519 1_555
O46 Si6 1.648340 1_555
O47 S4 1.485691 1_555
O48 S2 1.476255 1_555
O49 Si1 1.639868 1_555
O50 Si2 1.663620 1_655
O51 S0 1.473781 1_555
O52 S1 1.504885 1_655
O53 Si0 1.685607 1_545
O54 Si7 1.683959 1_555
O55 Si8 1.660979 1_655
O56 Si9 1.644608 1_545
O57 Si10 1.680468 1_545
O58 Si11 1.710794 1_555
O59 S5 1.540211 1_655
O60 S4 1.481846 1_555
O61 Si5 1.636201 1_455
O62 Si6 1.632154 1_565
O63 S3 1.483438 1_565
O64 Si4 1.645567 1_555
O65 Si3 1.646460 1_455
O66 Si0 1.682907 1_555
O67 S0 1.495782 1_555
O68 S1 1.470138 1_555
O69 Si1 1.720163 1_555
O70 Si2 1.675967 1_555
O71 S2 1.501153 1_565
