# generated using pymatgen
data_NaTaGa(PO4)3
_symmetry_space_group_name_H-M   'P 1'
_cell_length_a   8.62450329
_cell_length_b   8.62450303
_cell_length_c   22.46457606
_cell_angle_alpha   90.00000000
_cell_angle_beta   90.00000000
_cell_angle_gamma   120.00000104
_symmetry_Int_Tables_number   1
_chemical_formula_structural   NaTaGa(PO4)3
_chemical_formula_sum   'Na6 Ta6 Ga6 P18 O72'
_cell_volume   1447.09494226
_cell_formula_units_Z   6
loop_
 _symmetry_equiv_pos_site_id
 _symmetry_equiv_pos_as_xyz
  1  'x, y, z'
loop_
 _atom_site_type_symbol
 _atom_site_label
 _atom_site_symmetry_multiplicity
 _atom_site_fract_x
 _atom_site_fract_y
 _atom_site_fract_z
 _atom_site_occupancy
  Na  Na0  1  -0.00000000  -0.00000000  0.49609152  1
  Na  Na1  1  -0.00000000  -0.00000000  0.99609152  1
  Na  Na2  1  0.66666700  0.33333300  0.82942452  1
  Na  Na3  1  0.66666700  0.33333300  0.32942452  1
  Na  Na4  1  0.33333300  0.66666700  0.16275852  1
  Na  Na5  1  0.33333300  0.66666700  0.66275852  1
  Ta  Ta0  1  -0.00000000  -0.00000000  0.64504874  1
  Ta  Ta1  1  -0.00000000  -0.00000000  0.14504874  1
  Ta  Ta2  1  0.66666700  0.33333300  0.97838174  1
  Ta  Ta3  1  0.66666700  0.33333300  0.47838174  1
  Ta  Ta4  1  0.33333300  0.66666700  0.31171574  1
  Ta  Ta5  1  0.33333300  0.66666700  0.81171574  1
  Ga  Ga0  1  -0.00000000  -0.00000000  0.35222029  1
  Ga  Ga1  1  -0.00000000  -0.00000000  0.85222029  1
  Ga  Ga2  1  0.66666700  0.33333300  0.68555329  1
  Ga  Ga3  1  0.66666700  0.33333300  0.18555329  1
  Ga  Ga4  1  0.33333300  0.66666700  0.01888729  1
  Ga  Ga5  1  0.33333300  0.66666700  0.51888729  1
  P  P0  1  0.29212650  0.00796980  0.25125279  1
  P  P1  1  0.71584330  0.70787350  0.25125279  1
  P  P2  1  0.99203020  0.28415670  0.25125279  1
  P  P3  1  0.29212650  0.28415670  0.75125279  1
  P  P4  1  0.99203020  0.70787350  0.75125279  1
  P  P5  1  0.71584330  0.00796980  0.75125279  1
  P  P6  1  0.95879350  0.34130280  0.58458579  1
  P  P7  1  0.38251030  0.04120650  0.58458579  1
  P  P8  1  0.65869720  0.61748970  0.58458579  1
  P  P9  1  0.95879350  0.61748970  0.08458579  1
  P  P10  1  0.65869720  0.04120650  0.08458579  1
  P  P11  1  0.38251030  0.34130280  0.08458579  1
  P  P12  1  0.62545950  0.67463680  0.91791979  1
  P  P13  1  0.04917630  0.37454050  0.91791979  1
  P  P14  1  0.32536320  0.95082370  0.91791979  1
  P  P15  1  0.62545950  0.95082370  0.41791979  1
  P  P16  1  0.32536320  0.37454050  0.41791979  1
  P  P17  1  0.04917630  0.67463680  0.41791979  1
  O  O0  1  0.20640688  0.03306309  0.30644538  1
  O  O1  1  0.82665621  0.79359312  0.30644538  1
  O  O2  1  0.96693691  0.17334379  0.30644538  1
  O  O3  1  0.20640688  0.17334379  0.80644538  1
  O  O4  1  0.96693691  0.79359312  0.80644538  1
  O  O5  1  0.82665621  0.03306309  0.80644538  1
  O  O6  1  0.79804877  0.96882391  0.69476991  1
  O  O7  1  0.17077514  0.20195123  0.69476991  1
  O  O8  1  0.03117609  0.82922486  0.69476991  1
  O  O9  1  0.79804877  0.82922486  0.19476991  1
  O  O10  1  0.03117609  0.20195123  0.19476991  1
  O  O11  1  0.17077514  0.96882391  0.19476991  1
  O  O12  1  0.87307388  0.36639609  0.63977838  1
  O  O13  1  0.49332321  0.12692612  0.63977838  1
  O  O14  1  0.63360391  0.50667679  0.63977838  1
  O  O15  1  0.87307388  0.50667679  0.13977838  1
  O  O16  1  0.63360391  0.12692612  0.13977838  1
  O  O17  1  0.49332321  0.36639609  0.13977838  1
  O  O18  1  0.46471577  0.30215691  0.02810291  1
  O  O19  1  0.83744214  0.53528423  0.02810291  1
  O  O20  1  0.69784309  0.16255786  0.02810291  1
  O  O21  1  0.46471577  0.16255786  0.52810291  1
  O  O22  1  0.69784309  0.53528423  0.52810291  1
  O  O23  1  0.83744214  0.30215691  0.52810291  1
  O  O24  1  0.53973988  0.69973009  0.97311238  1
  O  O25  1  0.15998921  0.46026012  0.97311238  1
  O  O26  1  0.30026991  0.84001079  0.97311238  1
  O  O27  1  0.53973988  0.84001079  0.47311238  1
  O  O28  1  0.30026991  0.46026012  0.47311238  1
  O  O29  1  0.15998921  0.69973009  0.47311238  1
  O  O30  1  0.13138177  0.63549091  0.36143691  1
  O  O31  1  0.50410814  0.86861823  0.36143691  1
  O  O32  1  0.36450909  0.49589186  0.36143691  1
  O  O33  1  0.13138177  0.49589186  0.86143691  1
  O  O34  1  0.36450909  0.86861823  0.86143691  1
  O  O35  1  0.50410814  0.63549091  0.86143691  1
  O  O36  1  0.02271795  0.83435984  0.40908921  1
  O  O37  1  0.81164190  0.97728205  0.40908921  1
  O  O38  1  0.16564016  0.18835810  0.40908921  1
  O  O39  1  0.02271795  0.18835810  0.90908921  1
  O  O40  1  0.16564016  0.97728205  0.90908921  1
  O  O41  1  0.81164190  0.83435984  0.90908921  1
  O  O42  1  0.97290974  0.16683474  0.59065585  1
  O  O43  1  0.19392500  0.02709026  0.59065585  1
  O  O44  1  0.83316526  0.80607500  0.59065585  1
  O  O45  1  0.97290974  0.80607500  0.09065585  1
  O  O46  1  0.83316526  0.02709026  0.09065585  1
  O  O47  1  0.19392500  0.16683474  0.09065585  1
  O  O48  1  0.68938495  0.16769284  0.74242221  1
  O  O49  1  0.47830890  0.31061505  0.74242221  1
  O  O50  1  0.83230716  0.52169110  0.74242221  1
  O  O51  1  0.68938495  0.52169110  0.24242221  1
  O  O52  1  0.83230716  0.31061505  0.24242221  1
  O  O53  1  0.47830890  0.16769284  0.24242221  1
  O  O54  1  0.63957674  0.50016774  0.92398885  1
  O  O55  1  0.86059200  0.36042326  0.92398885  1
  O  O56  1  0.49983226  0.13940800  0.92398885  1
  O  O57  1  0.63957674  0.13940800  0.42398885  1
  O  O58  1  0.49983226  0.36042326  0.42398885  1
  O  O59  1  0.86059200  0.50016774  0.42398885  1
  O  O60  1  0.35605095  0.50102684  0.07575621  1
  O  O61  1  0.14497490  0.64394905  0.07575621  1
  O  O62  1  0.49897316  0.85502510  0.07575621  1
  O  O63  1  0.35605095  0.85502510  0.57575621  1
  O  O64  1  0.49897316  0.64394905  0.57575621  1
  O  O65  1  0.14497490  0.50102684  0.57575621  1
  O  O66  1  0.30624274  0.83350174  0.25732285  1
  O  O67  1  0.52725800  0.69375726  0.25732285  1
  O  O68  1  0.16649826  0.47274200  0.25732285  1
  O  O69  1  0.30624274  0.47274200  0.75732285  1
  O  O70  1  0.16649826  0.69375726  0.75732285  1
  O  O71  1  0.52725800  0.83350174  0.75732285  1
loop_
_geom_bond_atom_site_label_1
_geom_bond_atom_site_label_2
_geom_bond_distance
_geom_bond_site_symmetry_2
Na0 O38 2.485767 1_555
Na0 O37 2.485767 1_445
Na0 O36 2.485767 1_545
Na0 O44 2.640825 1_445
Na0 O42 2.640825 1_455
Na0 O43 2.640825 1_555
Na1 O39 2.485767 1_555
Na1 O41 2.485767 1_445
Na1 O40 2.485767 1_545
Na1 O45 2.640825 1_446
Na1 O47 2.640825 1_556
Na1 O46 2.640825 1_456
Na2 O50 2.485767 1_555
Na2 O49 2.485767 1_555
Na2 O48 2.485767 1_555
Na2 O56 2.640825 1_555
Na2 O54 2.640825 1_555
Na2 O55 2.640825 1_555
Na3 O51 2.485767 1_555
Na3 O53 2.485767 1_555
Na3 O52 2.485767 1_555
Na3 O57 2.640825 1_555
Na3 O59 2.640825 1_555
Na3 O58 2.640825 1_555
Na4 O62 2.485767 1_555
Na4 O61 2.485767 1_555
Na4 O60 2.485767 1_555
Na4 O68 2.640825 1_555
Na4 O66 2.640825 1_555
Na4 O67 2.640825 1_555
Na5 O63 2.485767 1_555
Na5 O65 2.485767 1_555
Na5 O64 2.485767 1_555
Na5 O69 2.640825 1_555
Na5 O71 2.640825 1_555
Na5 O70 2.640825 1_555
Ga0 O1 1.949380 1_445
Ga0 O2 1.949380 1_455
Ga0 O0 1.949380 1_555
Ga0 O38 1.997794 1_555
Ga0 O37 1.997794 1_445
Ga0 O36 1.997795 1_545
Ga1 O4 1.949380 1_445
Ga1 O3 1.949380 1_555
Ga1 O5 1.949380 1_455
Ga1 O39 1.997794 1_555
Ga1 O41 1.997794 1_445
Ga1 O40 1.997795 1_545
Ga2 O13 1.949380 1_555
Ga2 O14 1.949380 1_555
Ga2 O12 1.949380 1_555
Ga2 O50 1.997794 1_555
Ga2 O49 1.997794 1_555
Ga2 O48 1.997795 1_555
Ga3 O16 1.949380 1_555
Ga3 O15 1.949380 1_555
Ga3 O17 1.949380 1_555
Ga3 O51 1.997794 1_555
Ga3 O53 1.997794 1_555
Ga3 O52 1.997795 1_555
Ga4 O25 1.949380 1_554
Ga4 O26 1.949380 1_554
Ga4 O24 1.949380 1_554
Ga4 O62 1.997794 1_555
Ga4 O61 1.997794 1_555
Ga4 O60 1.997795 1_555
Ga5 O28 1.949380 1_555
Ga5 O27 1.949380 1_555
Ga5 O29 1.949380 1_555
Ga5 O63 1.997794 1_555
Ga5 O65 1.997794 1_555
Ga5 O64 1.997795 1_555
O0 P0 1.513498 1_555
O1 P1 1.513498 1_555
O2 P2 1.513498 1_555
O3 P3 1.513498 1_555
O4 P4 1.513498 1_555
O5 P5 1.513498 1_555
O6 P5 1.570355 1_565
O6 Ta0 1.971094 1_665
O7 P3 1.570355 1_555
O7 Ta0 1.971094 1_555
O8 P4 1.570355 1_455
O8 Ta0 1.971094 1_565
O9 P1 1.570355 1_555
O9 Ta1 1.971094 1_665
O10 P2 1.570355 1_455
O10 Ta1 1.971094 1_555
O11 P0 1.570355 1_565
O11 Ta1 1.971094 1_565
O12 P6 1.513498 1_555
O13 P7 1.513498 1_555
O14 P8 1.513498 1_555
O15 P9 1.513498 1_555
O16 P10 1.513498 1_555
O17 P11 1.513498 1_555
O18 P11 1.570355 1_555
O18 Ta2 1.971094 1_554
O19 P9 1.570355 1_555
O19 Ta2 1.971094 1_554
O20 P10 1.570355 1_555
O20 Ta2 1.971094 1_554
O21 P7 1.570355 1_555
O21 Ta3 1.971094 1_555
O22 P8 1.570355 1_555
O22 Ta3 1.971094 1_555
O23 P6 1.570355 1_555
O23 Ta3 1.971094 1_555
O24 P12 1.513498 1_555
O25 P13 1.513498 1_555
O26 P14 1.513498 1_555
O27 P15 1.513498 1_555
O28 P16 1.513498 1_555
O29 P17 1.513498 1_555
O30 P17 1.570355 1_555
O30 Ta4 1.971094 1_555
O31 P15 1.570355 1_555
O31 Ta4 1.971094 1_555
O32 P16 1.570355 1_555
O32 Ta4 1.971094 1_555
O33 P13 1.570355 1_555
O33 Ta5 1.971094 1_555
O34 P14 1.570355 1_555
O34 Ta5 1.971094 1_555
O35 P12 1.570355 1_555
O35 Ta5 1.971094 1_555
O36 P17 1.517681 1_555
O37 P15 1.517690 1_555
O38 P16 1.517687 1_555
O39 P13 1.517690 1_555
O40 P14 1.517681 1_555
O41 P12 1.517687 1_555
O42 P6 1.575033 1_555
O42 Ta0 1.988510 1_655
O43 P7 1.575042 1_555
O43 Ta0 1.988511 1_555
O44 P8 1.575038 1_555
O44 Ta0 1.988510 1_665
O45 P9 1.575042 1_555
O45 Ta1 1.988510 1_665
O46 P10 1.575033 1_555
O46 Ta1 1.988511 1_655
O47 P11 1.575038 1_555
O47 Ta1 1.988510 1_555
O48 P5 1.517681 1_555
O49 P3 1.517690 1_555
O50 P4 1.517687 1_555
O51 P1 1.517690 1_555
O52 P2 1.517681 1_555
O53 P0 1.517687 1_555
O54 P12 1.575045 1_555
O54 Ta2 1.988510 1_555
O55 P13 1.575028 1_655
O55 Ta2 1.988511 1_555
O56 P14 1.575035 1_545
O56 Ta2 1.988510 1_555
O57 P15 1.575028 1_545
O57 Ta3 1.988510 1_555
O58 P16 1.575045 1_555
O58 Ta3 1.988511 1_555
O59 P17 1.575035 1_655
O59 Ta3 1.988510 1_555
O60 P11 1.517692 1_555
O61 P9 1.517675 1_455
O62 P10 1.517682 1_565
O63 P7 1.517675 1_565
O64 P8 1.517692 1_555
O65 P6 1.517682 1_455
O66 P0 1.575033 1_565
O66 Ta4 1.988510 1_555
O67 P1 1.575042 1_555
O67 Ta4 1.988511 1_555
O68 P2 1.575038 1_455
O68 Ta4 1.988510 1_555
O69 P3 1.575042 1_555
O69 Ta5 1.988510 1_555
O70 P4 1.575033 1_455
O70 Ta5 1.988511 1_555
O71 P5 1.575038 1_565
O71 Ta5 1.988510 1_555
