# generated using pymatgen
data_Na2Zr8Si5S7O48
_symmetry_space_group_name_H-M   'P 1'
_cell_length_a   18.12638096
_cell_length_b   9.06819493
_cell_length_c   23.42919041
_cell_angle_alpha   89.98085288
_cell_angle_beta   90.05980941
_cell_angle_gamma   120.09129225
_symmetry_Int_Tables_number   1
_chemical_formula_structural   Na2Zr8Si5S7O48
_chemical_formula_sum   'Na6 Zr24 Si15 S21 O144'
_cell_volume   3332.11026676
_cell_formula_units_Z   3
loop_
 _symmetry_equiv_pos_site_id
 _symmetry_equiv_pos_as_xyz
  1  'x, y, z'
loop_
 _atom_site_type_symbol
 _atom_site_label
 _atom_site_symmetry_multiplicity
 _atom_site_fract_x
 _atom_site_fract_y
 _atom_site_fract_z
 _atom_site_occupancy
  Na  Na0  1  0.99739485  0.99946380  0.49942554  1
  Na  Na1  1  0.49683723  0.99610834  0.99607455  1
  Na  Na2  1  0.33760894  0.34131741  0.83457039  1
  Na  Na3  1  0.83334301  0.33778638  0.83098129  1
  Na  Na4  1  0.33462066  0.33084942  0.33193940  1
  Na  Na5  1  0.83481222  0.33293154  0.33713483  1
  Zr  Zr0  1  0.00149601  0.99127557  0.35603984  1
  Zr  Zr1  1  0.49846896  0.00494651  0.35702526  1
  Zr  Zr2  1  0.99760221  0.99178034  0.85623046  1
  Zr  Zr3  1  0.50017124  0.00096252  0.85194848  1
  Zr  Zr4  1  0.00000147  0.99733910  0.64747964  1
  Zr  Zr5  1  0.50307437  0.99383412  0.64788768  1
  Zr  Zr6  1  0.00296317  0.99969522  0.14343012  1
  Zr  Zr7  1  0.49880511  0.00219438  0.14661405  1
  Zr  Zr8  1  0.33792250  0.35171802  0.68637665  1
  Zr  Zr9  1  0.83750916  0.34367318  0.68955109  1
  Zr  Zr10  1  0.33892567  0.33194952  0.18859494  1
  Zr  Zr11  1  0.83238142  0.32350420  0.18329058  1
  Zr  Zr12  1  0.34238515  0.35539869  0.97667479  1
  Zr  Zr13  1  0.83838602  0.32488625  0.97853811  1
  Zr  Zr14  1  0.34040062  0.35267429  0.48195258  1
  Zr  Zr15  1  0.84097129  0.32730598  0.47864925  1
  Zr  Zr16  1  0.16915345  0.65681024  0.01644793  1
  Zr  Zr17  1  0.66044085  0.66274381  0.02386406  1
  Zr  Zr18  1  0.16153367  0.66098319  0.52672982  1
  Zr  Zr19  1  0.66804986  0.68209709  0.51881060  1
  Zr  Zr20  1  0.16065480  0.67469832  0.31132440  1
  Zr  Zr21  1  0.66073348  0.66483128  0.31429369  1
  Zr  Zr22  1  0.16217187  0.65722213  0.81295040  1
  Zr  Zr23  1  0.65507773  0.64488796  0.80770704  1
  Si  Si0  1  0.14511883  0.00501284  0.24939504  1
  Si  Si1  1  0.50212621  0.29169240  0.25038471  1
  Si  Si2  1  0.64467442  0.28487820  0.74915235  1
  Si  Si3  1  0.00211370  0.71211294  0.75044452  1
  Si  Si4  1  0.49990760  0.71277352  0.75106018  1
  Si  Si5  1  0.97726587  0.32759588  0.58538891  1
  Si  Si6  1  0.33471378  0.63208668  0.58390062  1
  Si  Si7  1  0.47807713  0.62675894  0.08463306  1
  Si  Si8  1  0.83365277  0.03665837  0.08263319  1
  Si  Si9  1  0.31331650  0.67055481  0.91459976  1
  Si  Si10  1  0.02228157  0.37370784  0.91588827  1
  Si  Si11  1  0.52284184  0.37266934  0.91732197  1
  Si  Si12  1  0.81170053  0.95535686  0.41518624  1
  Si  Si13  1  0.02219180  0.66538147  0.41822837  1
  Si  Si14  1  0.52099222  0.66874773  0.41661711  1
  S  S0  1  0.64456050  0.00074651  0.25016726  1
  S  S1  1  0.35463025  0.71047856  0.25067186  1
  S  S2  1  0.85485916  0.71006278  0.24953818  1
  S  S3  1  0.00008704  0.28887856  0.25000015  1
  S  S4  1  0.14454545  0.28783730  0.75032025  1
  S  S5  1  0.35408677  0.99927561  0.74953656  1
  S  S6  1  0.85500688  0.99876780  0.75056813  1
  S  S7  1  0.47943801  0.33324490  0.58347754  1
  S  S8  1  0.18911262  0.04545315  0.58353526  1
  S  S9  1  0.68903723  0.04591824  0.58339735  1
  S  S10  1  0.83217920  0.62199234  0.58290098  1
  S  S11  1  0.97874628  0.62295513  0.08301055  1
  S  S12  1  0.33192679  0.04197788  0.08288414  1
  S  S13  1  0.18934225  0.33393236  0.08349607  1
  S  S14  1  0.68886623  0.33315271  0.08273751  1
  S  S15  1  0.81046161  0.66569373  0.91681077  1
  S  S16  1  0.16680762  0.95586898  0.91666382  1
  S  S17  1  0.66672877  0.95544046  0.91636895  1
  S  S18  1  0.31050634  0.95562197  0.41691334  1
  S  S19  1  0.16729839  0.37825097  0.41643495  1
  S  S20  1  0.66718702  0.37851329  0.41705889  1
  O  O0  1  0.09910038  0.03125586  0.30526447  1
  O  O1  1  0.60627195  0.03018465  0.30112620  1
  O  O2  1  0.40961265  0.78940992  0.30158407  1
  O  O3  1  0.90883953  0.78707589  0.30086677  1
  O  O4  1  0.48580309  0.16627857  0.30536727  1
  O  O5  1  0.98354956  0.18371579  0.30126145  1
  O  O6  1  0.10483645  0.18143883  0.80131423  1
  O  O7  1  0.60124367  0.16991429  0.80601538  1
  O  O8  1  0.48142085  0.79410520  0.80660192  1
  O  O9  1  0.98591289  0.80514044  0.80535866  1
  O  O10  1  0.40774552  0.03212550  0.80115635  1
  O  O11  1  0.91045802  0.03109363  0.80150192  1
  O  O12  1  0.39337954  0.97294775  0.69828354  1
  O  O13  1  0.89625243  0.97505755  0.69881963  1
  O  O14  1  0.09156802  0.20981948  0.69836357  1
  O  O15  1  0.58454336  0.20134433  0.69315591  1
  O  O16  1  0.01322367  0.83169261  0.69449284  1
  O  O17  1  0.51339800  0.82533298  0.69400456  1
  O  O18  1  0.39509381  0.81683116  0.19897461  1
  O  O19  1  0.89508398  0.81599804  0.19824105  1
  O  O20  1  0.01221502  0.21040387  0.19845088  1
  O  O21  1  0.51327351  0.19461743  0.19457423  1
  O  O22  1  0.08325840  0.97009999  0.19413043  1
  O  O23  1  0.59269226  0.97505703  0.19828977  1
  O  O24  1  0.43792354  0.36088118  0.63402896  1
  O  O25  1  0.93148135  0.35955967  0.63917544  1
  O  O26  1  0.24091823  0.12224445  0.63489722  1
  O  O27  1  0.74227231  0.12166262  0.63432452  1
  O  O28  1  0.31748884  0.50014398  0.63755651  1
  O  O29  1  0.81924758  0.51833152  0.63457879  1
  O  O30  1  0.43179268  0.50443208  0.13934895  1
  O  O31  1  0.93647001  0.51452772  0.13496591  1
  O  O32  1  0.31934753  0.12035495  0.13486560  1
  O  O33  1  0.81966816  0.13738522  0.13836644  1
  O  O34  1  0.24161117  0.36139078  0.13496691  1
  O  O35  1  0.74220911  0.35877550  0.13530891  1
  O  O36  1  0.22565657  0.30109668  0.03229538  1
  O  O37  1  0.72815071  0.30504086  0.03239731  1
  O  O38  1  0.41809524  0.53794828  0.02871870  1
  O  O39  1  0.92343699  0.54419921  0.03260429  1
  O  O40  1  0.34747035  0.14870287  0.03202674  1
  O  O41  1  0.84872766  0.16724754  0.02941457  1
  O  O42  1  0.22774381  0.15026630  0.53147208  1
  O  O43  1  0.72799775  0.15125951  0.53165566  1
  O  O44  1  0.34776165  0.53179715  0.52874967  1
  O  O45  1  0.84729358  0.54573700  0.53170974  1
  O  O46  1  0.42373334  0.30533397  0.53194176  1
  O  O47  1  0.91883531  0.29927197  0.52820093  1
  O  O48  1  0.26750295  0.69686003  0.97260814  1
  O  O49  1  0.77365909  0.69530805  0.96852438  1
  O  O50  1  0.07946603  0.46641113  0.97303363  1
  O  O51  1  0.58275028  0.46791604  0.97290835  1
  O  O52  1  0.15174507  0.84914721  0.96858668  1
  O  O53  1  0.65487439  0.85316383  0.96850985  1
  O  O54  1  0.27310990  0.85043768  0.46785346  1
  O  O55  1  0.76785340  0.83676323  0.47254714  1
  O  O56  1  0.15386694  0.45548272  0.46775484  1
  O  O57  1  0.65177844  0.45404482  0.46828258  1
  O  O58  1  0.08380409  0.69978391  0.47221638  1
  O  O59  1  0.58018606  0.69319735  0.47256960  1
  O  O60  1  0.06577996  0.63422057  0.36099586  1
  O  O61  1  0.56422385  0.63375431  0.36100261  1
  O  O62  1  0.25860248  0.87581349  0.36459016  1
  O  O63  1  0.75225791  0.86513008  0.35953932  1
  O  O64  1  0.18178802  0.48272228  0.36461936  1
  O  O65  1  0.68133633  0.48349098  0.36510081  1
  O  O66  1  0.06469829  0.49645255  0.86093118  1
  O  O67  1  0.56505057  0.49712627  0.86216161  1
  O  O68  1  0.18133623  0.87926438  0.86543028  1
  O  O69  1  0.68375153  0.88422415  0.86555554  1
  O  O70  1  0.25119574  0.63827958  0.86038070  1
  O  O71  1  0.75975538  0.64016855  0.86510171  1
  O  O72  1  0.01178365  0.83371702  0.40927283  1
  O  O73  1  0.51080651  0.83386151  0.40443207  1
  O  O74  1  0.39633601  0.97450096  0.40792308  1
  O  O75  1  0.90734265  0.98192863  0.40791564  1
  O  O76  1  0.08995294  0.20644561  0.40973840  1
  O  O77  1  0.59055839  0.20623830  0.40812726  1
  O  O78  1  0.01058726  0.18705722  0.90513293  1
  O  O79  1  0.51137972  0.18468962  0.91048559  1
  O  O80  1  0.09041991  0.97456032  0.90850020  1
  O  O81  1  0.59102361  0.97585130  0.91154342  1
  O  O82  1  0.40736533  0.83637007  0.91119387  1
  O  O83  1  0.89736958  0.81845990  0.90881165  1
  O  O84  1  0.48629333  0.18043232  0.59057992  1
  O  O85  1  0.98923913  0.16040417  0.59193977  1
  O  O86  1  0.10225757  0.02606759  0.59000478  1
  O  O87  1  0.60337160  0.02456180  0.58992841  1
  O  O88  1  0.41778757  0.81458783  0.59317751  1
  O  O89  1  0.90970093  0.79629130  0.59053638  1
  O  O90  1  0.48943759  0.81748220  0.09303577  1
  O  O91  1  0.98568221  0.79137414  0.09175566  1
  O  O92  1  0.40949206  0.02299455  0.09110289  1
  O  O93  1  0.91837247  0.02623945  0.09626766  1
  O  O94  1  0.10218852  0.18272505  0.09230128  1
  O  O95  1  0.60319729  0.17880499  0.09099809  1
  O  O96  1  0.34421002  0.15319023  0.74167738  1
  O  O97  1  0.84652210  0.15261153  0.74317279  1
  O  O98  1  0.23005123  0.30329551  0.74311954  1
  O  O99  1  0.73970854  0.30661445  0.74071411  1
  O  O100  1  0.41583034  0.51762172  0.74241151  1
  O  O101  1  0.91647735  0.52360575  0.74331551  1
  O  O102  1  0.34547915  0.53926072  0.24311277  1
  O  O103  1  0.84616490  0.53615355  0.24179482  1
  O  O104  1  0.41647777  0.30916691  0.24334596  1
  O  O105  1  0.92321097  0.31276345  0.24194873  1
  O  O106  1  0.23948882  0.17123346  0.24118700  1
  O  O107  1  0.73187249  0.15849484  0.24260563  1
  O  O108  1  0.31715074  0.49392911  0.92346934  1
  O  O109  1  0.82151242  0.51331593  0.92516900  1
  O  O110  1  0.42670049  0.35065572  0.92426519  1
  O  O111  1  0.92752268  0.35849665  0.92398466  1
  O  O112  1  0.24232804  0.12732919  0.92476275  1
  O  O113  1  0.74343686  0.13265138  0.92481448  1
  O  O114  1  0.32050796  0.12795038  0.42332282  1
  O  O115  1  0.81834818  0.14230148  0.42297024  1
  O  O116  1  0.24278943  0.35369321  0.42361551  1
  O  O117  1  0.74235960  0.35727558  0.42403618  1
  O  O118  1  0.42637132  0.49486733  0.42344757  1
  O  O119  1  0.92547036  0.50107593  0.42302738  1
  O  O120  1  0.17848184  0.48539018  0.07605679  1
  O  O121  1  0.68062840  0.48546319  0.07697488  1
  O  O122  1  0.06331474  0.64247229  0.07612911  1
  O  O123  1  0.57081897  0.64564356  0.07429005  1
  O  O124  1  0.25641556  0.87125537  0.07595163  1
  O  O125  1  0.75060053  0.85560614  0.07234822  1
  O  O126  1  0.17954967  0.87522268  0.57570934  1
  O  O127  1  0.67960494  0.87297685  0.57536017  1
  O  O128  1  0.25035585  0.64364257  0.57104080  1
  O  O129  1  0.75657223  0.64138647  0.57521303  1
  O  O130  1  0.06989692  0.49490079  0.57384130  1
  O  O131  1  0.56354342  0.48601425  0.57441396  1
  O  O132  1  0.15610011  0.83660874  0.25958922  1
  O  O133  1  0.65564889  0.85182786  0.25667485  1
  O  O134  1  0.26999260  0.69172441  0.25897010  1
  O  O135  1  0.77002263  0.68964832  0.25766133  1
  O  O136  1  0.07629915  0.45948680  0.25734784  1
  O  O137  1  0.58577457  0.47673241  0.25969387  1
  O  O138  1  0.15452490  0.45838342  0.75665483  1
  O  O139  1  0.65863604  0.47556845  0.75911745  1
  O  O140  1  0.08560640  0.69493990  0.75984937  1
  O  O141  1  0.58375166  0.69465618  0.75800181  1
  O  O142  1  0.26925541  0.84849248  0.75836253  1
  O  O143  1  0.77122984  0.84847394  0.75864443  1
loop_
_geom_bond_atom_site_label_1
_geom_bond_atom_site_label_2
_geom_bond_distance
_geom_bond_site_symmetry_2
Na0 O75 2.649368 1_555
Na0 O85 2.658787 1_565
Na0 O72 2.680463 1_655
Na0 O89 2.746942 1_555
Na0 O76 2.756848 1_665
Na0 O86 2.776147 1_665
Na1 O82 2.514526 1_555
Na1 O79 2.561607 1_565
Na1 O81 2.681906 1_555
Na1 O90 2.753695 1_556
Na1 O92 2.813885 1_566
Na1 O95 2.863283 1_566
Na2 O110 2.624348 1_555
Na2 O108 2.628511 1_555
Na2 O100 2.638100 1_555
Na2 O98 2.797940 1_555
Na2 O112 2.803197 1_555
Na2 O96 2.805197 1_555
Na3 O101 2.605143 1_555
Na3 O99 2.635363 1_555
Na3 O111 2.714519 1_555
Na3 O97 2.741310 1_555
Na3 O109 2.791942 1_555
Na3 O113 2.813214 1_555
Na4 O104 2.616851 1_555
Na4 O106 2.661039 1_555
Na4 O118 2.662508 1_555
Na4 O114 2.749793 1_555
Na4 O102 2.750793 1_555
Na4 O116 2.789389 1_555
Na5 O119 2.560794 1_555
Na5 O115 2.569692 1_555
Na5 O117 2.716790 1_555
Na5 O105 2.806432 1_555
Na5 O107 2.814771 1_555
Na5 O103 2.836546 1_555
O0 Si0 1.633216 1_555
O0 Zr0 2.009398 1_545
O1 S0 1.471779 1_555
O1 Zr1 2.267758 1_555
O2 S1 1.487014 1_555
O2 Zr1 2.223106 1_565
O3 S2 1.484663 1_555
O3 Zr0 2.190691 1_655
O4 Si1 1.644015 1_555
O4 Zr1 1.998233 1_555
O5 S3 1.468005 1_655
O5 Zr0 2.316285 1_645
O6 S4 1.476842 1_555
O6 Zr2 2.245688 1_445
O7 Si2 1.630882 1_555
O7 Zr3 2.012541 1_555
O8 Si4 1.612141 1_555
O8 Zr3 2.030828 1_565
O9 Si3 1.644122 1_655
O9 Zr2 1.992791 1_555
O10 S5 1.484818 1_545
O10 Zr3 2.184751 1_555
O11 S6 1.490820 1_545
O11 Zr2 2.196943 1_545
O12 S5 1.476052 1_555
O12 Zr5 2.238467 1_555
O13 S6 1.496134 1_555
O13 Zr4 2.155888 1_655
O14 S4 1.490431 1_555
O14 Zr4 2.163153 1_545
O15 Si2 1.628739 1_555
O15 Zr5 2.014482 1_545
O16 Si3 1.647880 1_555
O16 Zr4 1.971395 1_555
O17 Si4 1.624216 1_555
O17 Zr5 1.955107 1_555
O18 S1 1.492280 1_555
O18 Zr7 2.167772 1_565
O19 S2 1.482430 1_555
O19 Zr6 2.232766 1_655
O20 S3 1.473573 1_555
O20 Zr6 2.240694 1_545
O21 Si1 1.644760 1_555
O21 Zr7 1.979393 1_555
O22 Si0 1.635647 1_565
O22 Zr6 1.997320 1_555
O23 S0 1.481116 1_565
O23 Zr7 2.199567 1_565
O24 S7 1.490970 1_555
O24 Zr8 2.156474 1_555
O25 Si5 1.613830 1_555
O25 Zr9 2.018235 1_555
O26 S8 1.468777 1_555
O26 Zr8 2.281421 1_555
O27 S9 1.469739 1_555
O27 Zr9 2.284619 1_555
O28 Si6 1.653663 1_555
O28 Zr8 1.937805 1_555
O29 S10 1.477640 1_555
O29 Zr9 2.190983 1_555
O30 Si7 1.626606 1_555
O30 Zr10 1.993482 1_555
O31 S11 1.510414 1_555
O31 Zr11 2.137335 1_555
O32 S12 1.484603 1_555
O32 Zr10 2.170297 1_555
O33 Si8 1.684434 1_555
O33 Zr11 1.902670 1_555
O34 S13 1.474839 1_555
O34 Zr10 2.286682 1_555
O35 S14 1.509446 1_555
O35 Zr11 2.134901 1_555
O36 S13 1.469488 1_555
O36 Zr12 2.319076 1_554
O37 S14 1.465295 1_555
O37 Zr13 2.293887 1_554
O38 Si7 1.632967 1_555
O38 Zr12 1.957113 1_554
O39 S11 1.479862 1_555
O39 Zr13 2.204467 1_554
O40 S12 1.470480 1_555
O40 Zr12 2.318386 1_554
O41 Si8 1.645279 1_555
O41 Zr13 1.940762 1_554
O42 S8 1.488371 1_555
O42 Zr14 2.264968 1_555
O43 S9 1.485051 1_555
O43 Zr15 2.238342 1_555
O44 Si6 1.664262 1_555
O44 Zr14 1.908379 1_555
O45 S10 1.477473 1_555
O45 Zr15 2.292550 1_555
O46 S7 1.510930 1_555
O46 Zr14 2.117522 1_555
O47 Si5 1.645437 1_555
O47 Zr15 1.939239 1_555
O48 Si9 1.671783 1_555
O48 Zr16 1.928556 1_556
O49 S15 1.471964 1_555
O49 Zr17 2.318957 1_556
O50 Si10 1.642490 1_555
O50 Zr16 1.960021 1_556
O51 Si11 1.636648 1_555
O51 Zr17 2.008192 1_556
O52 S16 1.491971 1_555
O52 Zr16 2.224611 1_556
O53 S17 1.482790 1_555
O53 Zr17 2.201546 1_556
O54 S18 1.465018 1_555
O54 Zr18 2.337691 1_555
O55 Si12 1.654849 1_555
O55 Zr19 1.968128 1_555
O56 S19 1.472294 1_555
O56 Zr18 2.267783 1_555
O57 S20 1.476664 1_555
O57 Zr19 2.270339 1_555
O58 Si13 1.610121 1_555
O58 Zr18 2.057490 1_555
O59 Si14 1.636351 1_555
O59 Zr19 1.969134 1_555
O60 Si13 1.651812 1_555
O60 Zr20 1.953836 1_555
O61 Si14 1.632285 1_555
O61 Zr21 1.961315 1_555
O62 S18 1.492362 1_555
O62 Zr20 2.187622 1_555
O63 Si12 1.626026 1_555
O63 Zr21 2.037434 1_555
O64 S19 1.480089 1_555
O64 Zr20 2.324393 1_555
O65 S20 1.486257 1_555
O65 Zr21 2.207753 1_555
O66 Si10 1.622018 1_555
O66 Zr22 1.982669 1_555
O67 Si11 1.632338 1_555
O67 Zr23 1.974012 1_555
O68 S16 1.475616 1_555
O68 Zr22 2.232967 1_555
O69 S17 1.459693 1_555
O69 Zr23 2.384711 1_555
O70 Si9 1.622981 1_555
O70 Zr22 2.035298 1_555
O71 S15 1.466501 1_555
O71 Zr23 2.342300 1_555
O72 Si13 1.642653 1_555
O72 Zr0 1.974127 1_555
O73 Si14 1.623040 1_555
O73 Zr1 2.009193 1_565
O74 S18 1.492551 1_555
O74 Zr1 2.101771 1_565
O75 Si12 1.635330 1_555
O75 Zr0 2.063079 1_655
O76 S19 1.492273 1_555
O76 Zr0 2.195719 1_545
O77 S20 1.495777 1_555
O77 Zr1 2.119834 1_555
O78 Si10 1.616685 1_555
O78 Zr2 2.021569 1_445
O79 Si11 1.618511 1_555
O79 Zr3 2.087952 1_555
O80 S16 1.489055 1_555
O80 Zr2 2.147970 1_455
O81 S17 1.478003 1_555
O81 Zr3 2.254874 1_565
O82 Si9 1.613478 1_555
O82 Zr3 2.114265 1_565
O83 S15 1.499324 1_555
O83 Zr2 2.104476 1_555
O84 S7 1.461459 1_555
O84 Zr5 2.296146 1_545
O85 Si5 1.642873 1_555
O85 Zr4 2.050692 1_645
O86 S8 1.501821 1_555
O86 Zr4 2.199438 1_545
O87 S9 1.473450 1_555
O87 Zr5 2.173426 1_545
O88 Si6 1.598199 1_555
O88 Zr5 2.037775 1_555
O89 S10 1.509076 1_555
O89 Zr4 2.188063 1_655
O90 Si7 1.647847 1_555
O90 Zr7 2.031257 1_565
O91 S11 1.482536 1_555
O91 Zr6 2.130713 1_655
O92 S12 1.511819 1_555
O92 Zr7 2.156303 1_555
O93 Si8 1.616686 1_555
O93 Zr6 1.999096 1_645
O94 S13 1.498917 1_555
O94 Zr6 2.105805 1_545
O95 S14 1.492937 1_555
O95 Zr7 2.192790 1_555
O96 S5 1.504772 1_545
O96 Zr8 2.266411 1_555
O97 S6 1.488245 1_545
O97 Zr9 2.211066 1_555
O98 S4 1.494323 1_555
O98 Zr8 2.219812 1_555
O99 Si2 1.644864 1_555
O99 Zr9 2.024679 1_555
O100 Si4 1.670502 1_555
O100 Zr8 1.961693 1_555
O101 Si3 1.642685 1_655
O101 Zr9 1.988361 1_555
O102 S1 1.487087 1_555
O102 Zr10 2.226466 1_555
O103 S2 1.515165 1_555
O103 Zr11 2.275459 1_555
O104 Si1 1.645810 1_555
O104 Zr10 1.987855 1_555
O105 S3 1.525245 1_655
O105 Zr11 2.182861 1_555
O106 Si0 1.627907 1_555
O106 Zr10 2.064072 1_555
O107 S0 1.520750 1_555
O107 Zr11 2.181683 1_555
O108 Si9 1.650683 1_555
O108 Zr12 1.978682 1_555
O109 S15 1.505028 1_555
O109 Zr13 2.258006 1_555
O110 Si11 1.659827 1_555
O110 Zr12 1.978709 1_555
O111 Si10 1.663840 1_655
O111 Zr13 1.961467 1_555
O112 S16 1.480807 1_545
O112 Zr12 2.298213 1_555
O113 S17 1.521162 1_545
O113 Zr13 2.138626 1_555
O114 S18 1.487778 1_545
O114 Zr14 2.331035 1_555
O115 Si12 1.648325 1_545
O115 Zr15 1.998733 1_555
O116 S19 1.501807 1_555
O116 Zr14 2.238324 1_555
O117 S20 1.477555 1_555
O117 Zr15 2.321262 1_555
O118 Si14 1.655925 1_555
O118 Zr14 1.989549 1_555
O119 Si13 1.639281 1_655
O119 Zr15 2.027292 1_555
O120 S13 1.492108 1_555
O120 Zr16 2.158021 1_555
O121 S14 1.467934 1_555
O121 Zr17 2.203253 1_555
O122 S11 1.461371 1_455
O122 Zr16 2.325508 1_555
O123 Si7 1.620557 1_555
O123 Zr17 1.951971 1_555
O124 S12 1.473581 1_565
O124 Zr16 2.267135 1_555
O125 Si8 1.594053 1_565
O125 Zr17 2.037468 1_555
O126 S8 1.475948 1_565
O126 Zr18 2.135971 1_555
O127 S9 1.501802 1_565
O127 Zr19 2.105422 1_555
O128 Si6 1.612332 1_555
O128 Zr18 1.986197 1_555
O129 S10 1.477412 1_555
O129 Zr19 2.246445 1_555
O130 Si5 1.624950 1_455
O130 Zr18 1.933860 1_555
O131 S7 1.473469 1_555
O131 Zr19 2.252395 1_555
O132 Si0 1.653250 1_565
O132 Zr20 1.936983 1_555
O133 S0 1.469442 1_565
O133 Zr21 2.204834 1_555
O134 S1 1.469484 1_555
O134 Zr20 2.270344 1_555
O135 S2 1.466418 1_555
O135 Zr21 2.300835 1_555
O136 S3 1.479229 1_555
O136 Zr20 2.179741 1_555
O137 Si1 1.615700 1_555
O137 Zr21 2.016402 1_555
O138 S4 1.471775 1_555
O138 Zr22 2.181892 1_555
O139 Si2 1.634034 1_555
O139 Zr23 1.938633 1_555
O140 Si3 1.612098 1_555
O140 Zr22 2.015703 1_555
O141 Si4 1.616492 1_555
O141 Zr23 1.952694 1_555
O142 S5 1.472746 1_555
O142 Zr22 2.244878 1_555
O143 S6 1.457538 1_555
O143 Zr23 2.295300 1_555
