# generated using pymatgen
data_Li2MnF6
_symmetry_space_group_name_H-M   'P 1'
_cell_length_a   4.87609924
_cell_length_b   4.87593832
_cell_length_c   8.74220808
_cell_angle_alpha   89.99996509
_cell_angle_beta   89.99939187
_cell_angle_gamma   119.99951903
_symmetry_Int_Tables_number   1
_chemical_formula_structural   Li2MnF6
_chemical_formula_sum   'Li4 Mn2 F12'
_cell_volume   180.00501923
_cell_formula_units_Z   2
loop_
 _symmetry_equiv_pos_site_id
 _symmetry_equiv_pos_as_xyz
  1  'x, y, z'
loop_
 _atom_site_type_symbol
 _atom_site_label
 _atom_site_symmetry_multiplicity
 _atom_site_fract_x
 _atom_site_fract_y
 _atom_site_fract_z
 _atom_site_occupancy
  Li  Li0  1  0.33321194  0.66654758  0.25415026  1
  Li  Li1  1  -0.00000002  -0.00000000  0.00000010  1
  Li  Li2  1  -0.00000002  -0.00000013  0.49999994  1
  Li  Li3  1  0.66678788  0.33345040  0.74584974  1
  Mn  Mn0  1  0.33334176  0.66667524  0.74968050  1
  Mn  Mn1  1  0.66665940  0.33332654  0.25031875  1
  F  F0  1  0.33410415  0.97467207  0.63256245  1
  F  F1  1  0.36006256  0.02389751  0.13412691  1
  F  F2  1  0.97609686  0.33616315  0.13412317  1
  F  F3  1  0.02534786  0.35944029  0.63256054  1
  F  F4  1  0.33616566  0.36005700  0.86587591  1
  F  F5  1  0.35943120  0.33408950  0.36744245  1
  F  F6  1  0.64056928  0.66590950  0.63255719  1
  F  F7  1  0.66383392  0.63993822  0.13412524  1
  F  F8  1  0.97464806  0.64055713  0.36743775  1
  F  F9  1  0.02390559  0.66384364  0.86587798  1
  F  F10  1  0.63993851  0.97610316  0.86587347  1
  F  F11  1  0.66589541  0.02532821  0.36743765  1
loop_
_geom_bond_atom_site_label_1
_geom_bond_atom_site_label_2
_geom_bond_distance
_geom_bond_site_symmetry_2
F0 Mn0 1.816057 1_555
F0 Li3 1.958303 1_565
F0 Li2 2.052694 1_565
F1 Mn1 1.813184 1_555
F1 Li0 1.981412 1_545
F1 Li1 2.065536 1_555
F2 Mn1 1.813222 1_555
F2 Li0 1.980728 1_655
F2 Li1 2.065464 1_655
F3 Mn0 1.816101 1_555
F3 Li3 1.957591 1_455
F3 Li2 2.052630 1_555
F4 Mn0 1.813232 1_555
F4 Li3 1.981407 1_555
F4 Li1 2.065472 1_556
F5 Mn1 1.816093 1_555
F5 Li0 1.957630 1_555
F5 Li2 2.052614 1_555
F6 Mn0 1.816094 1_555
F6 Li3 1.957635 1_555
F6 Li2 2.052613 1_665
F7 Mn1 1.813200 1_555
F7 Li0 1.981407 1_555
F7 Li1 2.065488 1_665
F8 Mn1 1.816077 1_555
F8 Li0 1.957599 1_655
F8 Li2 2.052640 1_665
F9 Mn0 1.813236 1_555
F9 Li3 1.980756 1_455
F9 Li1 2.065438 1_566
F10 Mn0 1.813188 1_555
F10 Li3 1.981404 1_565
F10 Li1 2.065532 1_666
F11 Mn1 1.816064 1_555
F11 Li0 1.958309 1_545
F11 Li2 2.052696 1_655
