# generated using pymatgen
data_MgMn6(OF)6
_symmetry_space_group_name_H-M   'P 1'
_cell_length_a   5.26046207
_cell_length_b   14.57156349
_cell_length_c   3.04264728
_cell_angle_alpha   89.54137088
_cell_angle_beta   89.79957795
_cell_angle_gamma   94.82550380
_symmetry_Int_Tables_number   1
_chemical_formula_structural   MgMn6(OF)6
_chemical_formula_sum   'Mg1 Mn6 O6 F6'
_cell_volume   232.39236276
_cell_formula_units_Z   1
loop_
 _symmetry_equiv_pos_site_id
 _symmetry_equiv_pos_as_xyz
  1  'x, y, z'
loop_
 _atom_site_type_symbol
 _atom_site_label
 _atom_site_symmetry_multiplicity
 _atom_site_fract_x
 _atom_site_fract_y
 _atom_site_fract_z
 _atom_site_occupancy
  Mg  Mg0  1  0.52579700  0.33055900  0.54952500  1
  Mn  Mn0  1  0.04278000  0.99021500  0.99755500  1
  Mn  Mn1  1  0.01989300  0.34158900  0.04272600  1
  Mn  Mn2  1  0.95132000  0.67335600  0.00323500  1
  Mn  Mn3  1  0.63436900  0.14219100  0.50393200  1
  Mn  Mn4  1  0.48122500  0.52164900  0.51966500  1
  Mn  Mn5  1  0.41798900  0.82797300  0.49796300  1
  O  O0  1  0.17596500  0.92468100  0.49911000  1
  O  O1  1  0.25645100  0.76178200  0.99881900  1
  O  O2  1  0.37083400  0.42576600  0.03003000  1
  O  O3  1  0.67515300  0.25750200  0.04681000  1
  O  O4  1  0.64485100  0.58450700  0.01505500  1
  O  O5  1  0.90219800  0.05472500  0.49711500  1
  F  F0  1  0.18689400  0.26513800  0.54468700  1
  F  F1  1  0.12871900  0.59945100  0.50758600  1
  F  F2  1  0.39837800  0.08579900  0.00022400  1
  F  F3  1  0.62854700  0.88805100  0.99812900  1
  F  F4  1  0.83957900  0.41783200  0.53878100  1
  F  F5  1  0.77461600  0.74056700  0.50071900  1
loop_
_geom_bond_atom_site_label_1
_geom_bond_atom_site_label_2
_geom_bond_distance
_geom_bond_site_symmetry_2
Mg0 O3 2.040387 1_556
Mg0 O3 2.061208 1_555
Mg0 O2 2.222841 1_556
Mg0 O2 2.291671 1_555
Mn0 O0 1.956607 1_556
Mn0 O0 1.957325 1_555
Mn0 O5 1.962382 1_465
Mn0 O5 1.967953 1_466
Mn1 O3 2.101422 1_455
Mn1 O2 2.128829 1_555
Mn2 O1 1.971922 1_654
Mn2 O4 1.980969 1_555
Mn3 O5 1.977918 1_555
Mn3 O3 2.168790 1_555
Mn3 O3 2.363042 1_556
Mn4 O4 1.936573 1_556
Mn4 O4 1.942352 1_555
Mn4 O2 2.100388 1_555
Mn4 O2 2.126764 1_556
Mn5 O1 1.950448 1_555
Mn5 O1 1.963025 1_554
Mn5 O0 1.977030 1_555
F0 Mg0 1.949815 1_555
F0 Mn1 2.119306 1_556
F0 Mn1 2.119482 1_555
F1 Mn2 2.118999 1_456
F1 Mn2 2.130288 1_455
F1 Mn4 2.253600 1_555
F2 Mn3 2.071708 1_554
F2 Mn3 2.104062 1_555
F2 Mn0 2.236316 1_544
F3 Mn5 2.027284 1_556
F3 Mn5 2.044303 1_555
F3 Mn0 2.533506 1_655
F4 Mg0 1.997173 1_555
F4 Mn1 2.146198 1_655
F4 Mn1 2.155292 1_656
F4 Mn4 2.514886 1_555
F5 Mn2 2.069169 1_555
F5 Mn2 2.073675 1_556
F5 Mn5 2.354492 1_555
