# generated using pymatgen
data_La4CoO8
_symmetry_space_group_name_H-M   'P 1'
_cell_length_a   6.91961077
_cell_length_b   6.91961077
_cell_length_c   5.34915400
_cell_angle_alpha   90.00000000
_cell_angle_beta   90.00000000
_cell_angle_gamma   134.87873690
_symmetry_Int_Tables_number   1
_chemical_formula_structural   La4CoO8
_chemical_formula_sum   'La4 Co1 O8'
_cell_volume   181.48914376
_cell_formula_units_Z   1
loop_
 _symmetry_equiv_pos_site_id
 _symmetry_equiv_pos_as_xyz
  1  'x, y, z'
loop_
 _atom_site_type_symbol
 _atom_site_label
 _atom_site_symmetry_multiplicity
 _atom_site_fract_x
 _atom_site_fract_y
 _atom_site_fract_z
 _atom_site_occupancy
  La  La0  1  0.63369000  0.36631000  0.50000000  1
  La  La1  1  0.86543500  0.13456500  0.00000000  1
  La  La2  1  0.13456500  0.86543500  0.00000000  1
  La  La3  1  0.36631000  0.63369000  0.50000000  1
  Co  Co0  1  0.00000000  0.00000000  0.50000000  1
  O  O0  1  0.24809600  0.24809600  0.73835400  1
  O  O1  1  0.75190400  0.75190400  0.73835400  1
  O  O2  1  0.83842100  0.16157900  0.50000000  1
  O  O3  1  0.16157900  0.83842100  0.50000000  1
  O  O4  1  0.75190400  0.75190400  0.26164600  1
  O  O5  1  0.31175400  0.68824600  0.00000000  1
  O  O6  1  0.68824600  0.31175400  0.00000000  1
  O  O7  1  0.24809600  0.24809600  0.26164600  1
loop_
_geom_bond_atom_site_label_1
_geom_bond_atom_site_label_2
_geom_bond_distance
_geom_bond_site_symmetry_2
La0 O4 2.516696 1_555
La0 O1 2.516696 1_555
La0 O0 2.516696 1_555
La0 O7 2.516696 1_555
La0 O2 2.616495 1_555
La0 O3 2.678604 1_655
La0 O3 2.678604 1_545
La0 O6 2.763964 1_555
La0 O6 2.763964 1_556
La1 O6 2.264504 1_555
La1 O7 2.579080 1_655
La1 O0 2.579080 1_654
La1 O4 2.579080 1_545
La1 O1 2.579080 1_544
La1 O2 2.696768 1_555
La1 O2 2.696768 1_554
La1 O5 2.741997 1_655
La1 O5 2.741997 1_545
La2 O5 2.264504 1_555
La2 O7 2.579080 1_565
La2 O0 2.579080 1_564
La2 O4 2.579080 1_455
La2 O1 2.579080 1_454
La2 O3 2.696768 1_554
La2 O3 2.696768 1_555
La2 O6 2.741997 1_565
La2 O6 2.741997 1_455
La3 O1 2.516696 1_555
La3 O4 2.516696 1_555
La3 O7 2.516696 1_555
La3 O0 2.516696 1_555
La3 O3 2.616495 1_555
La3 O2 2.678604 1_565
La3 O2 2.678604 1_455
La3 O5 2.763964 1_556
La3 O5 2.763964 1_555
Co0 O0 1.833259 1_555
Co0 O7 1.833259 1_555
Co0 O1 1.833259 1_445
Co0 O4 1.833259 1_445
Co0 O2 2.065006 1_455
Co0 O3 2.065006 1_545
