# generated using pymatgen
data_NaCaZr3P3(SO8)3
_symmetry_space_group_name_H-M   'P 1'
_cell_length_a   9.01551206
_cell_length_b   9.01888330
_cell_length_c   23.57276096
_cell_angle_alpha   89.96906933
_cell_angle_beta   90.15393207
_cell_angle_gamma   120.10739273
_symmetry_Int_Tables_number   1
_chemical_formula_structural   NaCaZr3P3(SO8)3
_chemical_formula_sum   'Na3 Ca3 Zr9 P9 S9 O72'
_cell_volume   1658.10297776
_cell_formula_units_Z   3
loop_
 _symmetry_equiv_pos_site_id
 _symmetry_equiv_pos_as_xyz
  1  'x, y, z'
loop_
 _atom_site_type_symbol
 _atom_site_label
 _atom_site_symmetry_multiplicity
 _atom_site_fract_x
 _atom_site_fract_y
 _atom_site_fract_z
 _atom_site_occupancy
  Na  Na0  1  0.65729324  0.33220037  0.83158279  1
  Na  Na1  1  0.67166476  0.32972456  0.33045181  1
  Na  Na2  1  0.33058986  0.67191026  0.16719525  1
  Ca  Ca0  1  0.66041878  0.33735955  0.68666091  1
  Ca  Ca1  1  0.67051849  0.33072987  0.18450415  1
  Ca  Ca2  1  0.33100279  0.67124900  0.31506716  1
  Zr  Zr0  1  0.99373853  0.99340659  0.35879135  1
  Zr  Zr1  1  0.00671537  0.00495898  0.86002599  1
  Zr  Zr2  1  0.99965730  0.00117523  0.64578825  1
  Zr  Zr3  1  0.99504393  0.99532736  0.13991503  1
  Zr  Zr4  1  0.67637515  0.33571837  0.98063440  1
  Zr  Zr5  1  0.67515258  0.34365528  0.48280042  1
  Zr  Zr6  1  0.33475473  0.67314953  0.01606951  1
  Zr  Zr7  1  0.34222241  0.67670864  0.51765919  1
  Zr  Zr8  1  0.33385809  0.65939065  0.81267960  1
  P  P0  1  0.28294115  0.28387316  0.75246778  1
  P  P1  1  0.66602158  0.62817262  0.58377334  1
  P  P2  1  0.96369331  0.62431455  0.08358165  1
  P  P3  1  0.66152176  0.03756150  0.08341079  1
  P  P4  1  0.62086996  0.66288480  0.91595146  1
  P  P5  1  0.04477081  0.38156637  0.91592132  1
  P  P6  1  0.33995911  0.95769758  0.91483018  1
  P  P7  1  0.62610007  0.96618420  0.41651445  1
  P  P8  1  0.04059802  0.66398816  0.41659109  1
  S  S0  1  0.28223408  0.00175506  0.24992535  1
  S  S1  1  0.71529130  0.71523612  0.24970814  1
  S  S2  1  0.00123964  0.28188176  0.25017913  1
  S  S3  1  0.00458012  0.71733135  0.75238096  1
  S  S4  1  0.71370076  0.99712073  0.75214525  1
  S  S5  1  0.96358319  0.33565360  0.58318749  1
  S  S6  1  0.37246879  0.03969258  0.58287484  1
  S  S7  1  0.37411261  0.33697357  0.08289201  1
  S  S8  1  0.33559299  0.37289819  0.41699153  1
  O  O0  1  0.19026797  0.01008447  0.30169578  1
  O  O1  1  0.81802034  0.80699372  0.30164523  1
  O  O2  1  0.99182505  0.18038520  0.30198643  1
  O  O3  1  0.18286524  0.17050422  0.80364900  1
  O  O4  1  0.98258219  0.80410596  0.80203415  1
  O  O5  1  0.82024248  0.01436630  0.80199995  1
  O  O6  1  0.79469049  0.97495494  0.69942361  1
  O  O7  1  0.17345279  0.19482256  0.69783351  1
  O  O8  1  0.02307437  0.81920443  0.69970511  1
  O  O9  1  0.80680488  0.81798424  0.19854684  1
  O  O10  1  0.00971768  0.19027329  0.19869913  1
  O  O11  1  0.18072765  0.99184338  0.19838445  1
  O  O12  1  0.89328728  0.36729806  0.63357617  1
  O  O13  1  0.47591230  0.10626004  0.63344641  1
  O  O14  1  0.62849002  0.52007020  0.63568908  1
  O  O15  1  0.89356904  0.52155042  0.13682948  1
  O  O16  1  0.62350069  0.10365204  0.13654975  1
  O  O17  1  0.47471575  0.36921025  0.13416980  1
  O  O18  1  0.45552921  0.30926299  0.03221989  1
  O  O19  1  0.84660980  0.53717655  0.03057183  1
  O  O20  1  0.68878513  0.15371285  0.03059194  1
  O  O21  1  0.45454216  0.14983106  0.53241640  1
  O  O22  1  0.69566587  0.53905279  0.53129552  1
  O  O23  1  0.84926422  0.30405300  0.53270432  1
  O  O24  1  0.53675944  0.69036478  0.96836376  1
  O  O25  1  0.15434189  0.46372638  0.96883040  1
  O  O26  1  0.31097919  0.84719356  0.96812513  1
  O  O27  1  0.53850623  0.84848845  0.46903527  1
  O  O28  1  0.30879635  0.45509260  0.46767988  1
  O  O29  1  0.15378866  0.68896411  0.46948621  1
  O  O30  1  0.10371845  0.62250842  0.36355870  1
  O  O31  1  0.52131232  0.89653543  0.36347598  1
  O  O32  1  0.37131294  0.47495606  0.36619548  1
  O  O33  1  0.12989560  0.49485829  0.86319480  1
  O  O34  1  0.36495366  0.86955881  0.86264661  1
  O  O35  1  0.50541448  0.63532468  0.86318591  1
  O  O36  1  0.02115012  0.82514983  0.40854834  1
  O  O37  1  0.80653866  0.98445750  0.40864443  1
  O  O38  1  0.18133503  0.20056893  0.40986479  1
  O  O39  1  0.02246610  0.20259366  0.90646963  1
  O  O40  1  0.17869325  0.97390790  0.90619705  1
  O  O41  1  0.79747441  0.82085623  0.90452303  1
  O  O42  1  0.97928465  0.17899090  0.59033722  1
  O  O43  1  0.19925003  0.02067106  0.59065561  1
  O  O44  1  0.82708509  0.80904893  0.59326329  1
  O  O45  1  0.98270163  0.80572122  0.09146443  1
  O  O46  1  0.82558204  0.02176046  0.09151816  1
  O  O47  1  0.20092081  0.18116207  0.09026940  1
  O  O48  1  0.69641345  0.14948709  0.74729685  1
  O  O49  1  0.46015991  0.30361347  0.75071307  1
  O  O50  1  0.85467082  0.54483893  0.74817376  1
  O  O51  1  0.70248580  0.54657048  0.24895999  1
  O  O52  1  0.84511035  0.29538867  0.25006804  1
  O  O53  1  0.45162249  0.15845673  0.24948930  1
  O  O54  1  0.63980102  0.50270379  0.92456955  1
  O  O55  1  0.86367786  0.36042729  0.92335996  1
  O  O56  1  0.49680441  0.13870592  0.92418524  1
  O  O57  1  0.65285474  0.14637240  0.43102083  1
  O  O58  1  0.48455658  0.34585436  0.42805840  1
  O  O59  1  0.85571956  0.51053121  0.42912727  1
  O  O60  1  0.34707428  0.48517778  0.07299043  1
  O  O61  1  0.14540014  0.65252883  0.07146946  1
  O  O62  1  0.51098733  0.85340864  0.07142688  1
  O  O63  1  0.34592394  0.86529978  0.57085854  1
  O  O64  1  0.51301005  0.65302973  0.56690974  1
  O  O65  1  0.13540543  0.48227155  0.56956422  1
  O  O66  1  0.29588545  0.84570346  0.25050972  1
  O  O67  1  0.54635855  0.70229158  0.25141064  1
  O  O68  1  0.15796471  0.45133862  0.25128499  1
  O  O69  1  0.29398077  0.46069443  0.76027405  1
  O  O70  1  0.16312077  0.70759291  0.75884564  1
  O  O71  1  0.54298969  0.84048199  0.75841656  1
loop_
_geom_bond_atom_site_label_1
_geom_bond_atom_site_label_2
_geom_bond_distance
_geom_bond_site_symmetry_2
Na0 O49 2.526224 1_555
Na0 O50 2.702079 1_555
Na0 O48 2.716214 1_555
Na0 O56 2.717278 1_555
Na0 O54 2.728186 1_555
Na0 O55 2.776887 1_555
Na1 O52 2.575643 1_555
Na1 O53 2.621529 1_555
Na1 O51 2.654396 1_555
Na1 O59 2.844605 1_555
Na1 O57 2.846053 1_555
Na1 O58 2.903113 1_555
Na2 O66 2.628771 1_555
Na2 O68 2.686068 1_555
Na2 O67 2.691692 1_555
Na2 O61 2.756326 1_555
Na2 O62 2.786730 1_555
Na2 O60 2.836656 1_555
Ca0 O14 2.171141 1_555
Ca0 O49 2.257181 1_555
Ca0 O13 2.279916 1_555
Ca0 O50 2.317903 1_555
Ca0 O12 2.343381 1_555
Ca0 O48 2.359213 1_555
Ca1 O16 2.186497 1_555
Ca1 O15 2.192401 1_555
Ca1 O17 2.290709 1_555
Ca1 O52 2.336140 1_555
Ca1 O53 2.364901 1_555
Ca1 O51 2.370454 1_555
Ca2 O30 2.192484 1_555
Ca2 O31 2.206548 1_555
Ca2 O32 2.315077 1_555
Ca2 O66 2.320823 1_555
Ca2 O68 2.348282 1_555
Ca2 O67 2.359982 1_555
O0 S0 1.500139 1_555
O0 Zr0 2.172238 1_445
O1 S1 1.505852 1_555
O1 Zr0 2.114192 1_555
O2 S2 1.502653 1_655
O2 Zr0 2.159562 1_545
O3 P0 1.547281 1_555
O3 Zr1 2.036599 1_555
O4 S3 1.476395 1_655
O4 Zr1 2.191620 1_665
O5 S4 1.473832 1_545
O5 Zr1 2.198874 1_655
O6 S4 1.506395 1_555
O6 Zr2 2.154752 1_565
O7 P0 1.573837 1_555
O7 Zr2 2.063254 1_455
O8 S3 1.503332 1_555
O8 Zr2 2.167324 1_465
O9 S1 1.493653 1_555
O9 Zr3 2.153030 1_555
O10 S2 1.491992 1_555
O10 Zr3 2.190256 1_445
O11 S0 1.494544 1_565
O11 Zr3 2.177929 1_455
O12 S5 1.442163 1_555
O13 S6 1.443741 1_555
O14 P1 1.494221 1_555
O15 P2 1.499788 1_555
O16 P3 1.499990 1_555
O17 S7 1.448514 1_555
O18 S7 1.488990 1_555
O18 Zr4 2.244092 1_554
O19 P2 1.566855 1_555
O19 Zr4 2.058500 1_554
O20 P3 1.565230 1_555
O20 Zr4 2.067675 1_554
O21 S6 1.488305 1_555
O21 Zr5 2.213984 1_555
O22 P1 1.570383 1_555
O22 Zr5 2.029946 1_555
O23 S5 1.502899 1_555
O23 Zr5 2.127790 1_555
O24 P4 1.535194 1_555
O24 Zr6 2.081479 1_556
O25 P5 1.529855 1_555
O25 Zr6 2.088888 1_556
O26 P6 1.542404 1_555
O26 Zr6 2.030146 1_556
O27 P7 1.563979 1_555
O27 Zr7 2.025829 1_555
O28 S8 1.489218 1_555
O28 Zr7 2.206837 1_555
O29 P8 1.552313 1_555
O29 Zr7 2.089409 1_555
O30 P8 1.498162 1_555
O31 P7 1.499791 1_555
O32 S8 1.445064 1_555
O33 P5 1.547534 1_555
O33 Zr8 2.067262 1_555
O34 P6 1.542105 1_555
O34 Zr8 2.127517 1_555
O35 P4 1.557614 1_555
O35 Zr8 2.045330 1_555
O36 P8 1.560301 1_555
O36 Zr0 2.027884 1_455
O37 P7 1.562211 1_555
O37 Zr0 2.027261 1_555
O38 S8 1.486083 1_555
O38 Zr0 2.149887 1_445
O39 P5 1.539486 1_555
O39 Zr1 2.035488 1_555
O40 P6 1.545388 1_555
O40 Zr1 2.023157 1_565
O41 P4 1.537389 1_555
O41 Zr1 2.069325 1_665
O42 S5 1.498355 1_555
O42 Zr2 2.146191 1_555
O43 S6 1.494848 1_555
O43 Zr2 2.157035 1_455
O44 P1 1.562657 1_555
O44 Zr2 2.059962 1_565
O45 P2 1.568293 1_555
O45 Zr3 2.012848 1_555
O46 P3 1.566668 1_555
O46 Zr3 2.012023 1_545
O47 S7 1.497623 1_555
O47 Zr3 2.124215 1_445
O48 S4 1.462979 1_545
O49 P0 1.516932 1_555
O50 S3 1.465154 1_655
O51 S1 1.466781 1_555
O52 S2 1.472463 1_655
O53 S0 1.471182 1_555
O54 P4 1.550576 1_555
O54 Zr4 2.148760 1_555
O55 P5 1.556231 1_655
O55 Zr4 2.087665 1_555
O56 P6 1.547898 1_545
O56 Zr4 2.157266 1_555
O57 P7 1.556584 1_545
O57 Zr5 2.082844 1_555
O58 S8 1.502605 1_555
O58 Zr5 2.154171 1_555
O59 P8 1.571253 1_655
O59 Zr5 2.016681 1_555
O60 S7 1.492225 1_555
O60 Zr6 2.207349 1_555
O61 P2 1.553748 1_455
O61 Zr6 2.085073 1_555
O62 P3 1.554732 1_565
O62 Zr6 2.066392 1_555
O63 S6 1.494587 1_565
O63 Zr7 2.100452 1_555
O64 P1 1.555139 1_555
O64 Zr7 2.020958 1_555
O65 S5 1.482728 1_455
O65 Zr7 2.185957 1_555
O66 S0 1.473055 1_565
O67 S1 1.468590 1_555
O68 S2 1.471823 1_555
O69 P0 1.558177 1_555
O69 Zr8 2.054339 1_555
O70 S3 1.482790 1_555
O70 Zr8 2.197508 1_555
O71 S4 1.485255 1_555
O71 Zr8 2.186285 1_555
