# generated using pymatgen
data_MgCrSbO4
_symmetry_space_group_name_H-M   'P 1'
_cell_length_a   5.74574361
_cell_length_b   11.62410475
_cell_length_c   11.19166228
_cell_angle_alpha   15.89524013
_cell_angle_beta   29.37880441
_cell_angle_gamma   33.07906251
_symmetry_Int_Tables_number   1
_chemical_formula_structural   MgCrSbO4
_chemical_formula_sum   'Mg1 Cr1 Sb1 O4'
_cell_volume   100.43160387
_cell_formula_units_Z   1
loop_
 _symmetry_equiv_pos_site_id
 _symmetry_equiv_pos_as_xyz
  1  'x, y, z'
loop_
 _atom_site_type_symbol
 _atom_site_label
 _atom_site_symmetry_multiplicity
 _atom_site_fract_x
 _atom_site_fract_y
 _atom_site_fract_z
 _atom_site_occupancy
  Mg  Mg0  1  0.65806100  0.00183700  0.63538500  1
  Cr  Cr0  1  0.49058800  0.00111200  0.48458800  1
  Sb  Sb0  1  0.45881600  0.50051800  0.53124600  1
  O  O0  1  0.12619300  0.00233800  0.28532000  1
  O  O1  1  0.36523500  0.50054800  0.17621500  1
  O  O2  1  0.80187200  0.00040400  0.74005800  1
  O  O3  1  0.74923500  0.49949200  0.77843800  1
loop_
_geom_bond_atom_site_label_1
_geom_bond_atom_site_label_2
_geom_bond_distance
_geom_bond_site_symmetry_2
Mg0 O2 1.918794 1_555
Mg0 O0 2.049623 1_655
Mg0 O1 2.064110 1_546
Mg0 O1 2.065241 1_555
Cr0 O3 2.029808 1_554
Cr0 O2 2.031059 1_455
Cr0 O3 2.033145 1_545
Cr0 O0 2.035409 1_655
Cr0 O1 2.217744 1_555
Cr0 O1 2.227885 1_546
O0 Sb0 2.200398 1_554
O0 Sb0 2.203834 1_545
O1 Sb0 2.616746 1_455
O2 Sb0 2.415492 1_555
O2 Sb0 2.421177 1_546
O3 Sb0 2.153345 1_655
