# generated using pymatgen
data_Ce2MgCu2
_symmetry_space_group_name_H-M   'P 1'
_cell_length_a   7.72835200
_cell_length_b   7.72835200
_cell_length_c   3.75176100
_cell_angle_alpha   90.00000000
_cell_angle_beta   90.00000000
_cell_angle_gamma   90.00000000
_symmetry_Int_Tables_number   1
_chemical_formula_structural   Ce2MgCu2
_chemical_formula_sum   'Ce4 Mg2 Cu4'
_cell_volume   224.08302238
_cell_formula_units_Z   2
loop_
 _symmetry_equiv_pos_site_id
 _symmetry_equiv_pos_as_xyz
  1  'x, y, z'
loop_
 _atom_site_type_symbol
 _atom_site_label
 _atom_site_symmetry_multiplicity
 _atom_site_fract_x
 _atom_site_fract_y
 _atom_site_fract_z
 _atom_site_occupancy
  Ce  Ce0  1  0.32623700  0.82623700  0.50000000  1
  Ce  Ce1  1  0.82623700  0.67376300  0.50000000  1
  Ce  Ce2  1  0.17376300  0.32623700  0.50000000  1
  Ce  Ce3  1  0.67376300  0.17376300  0.50000000  1
  Mg  Mg0  1  0.50000000  0.50000000  0.00000000  1
  Mg  Mg1  1  0.00000000  0.00000000  0.00000000  1
  Cu  Cu0  1  0.12134700  0.62134700  0.00000000  1
  Cu  Cu1  1  0.62134700  0.87865300  0.00000000  1
  Cu  Cu2  1  0.87865300  0.37865300  0.00000000  1
  Cu  Cu3  1  0.37865300  0.12134700  0.00000000  1
loop_
_geom_bond_atom_site_label_1
_geom_bond_atom_site_label_2
_geom_bond_distance
_geom_bond_site_symmetry_2
Ce0 Cu0 2.921238 1_556
Ce0 Cu0 2.921238 1_555
Ce0 Cu1 2.980718 1_555
Ce0 Cu1 2.980718 1_556
Ce0 Cu3 2.980718 1_565
Ce0 Cu3 2.980718 1_566
Ce0 Mg0 3.417475 1_555
Ce0 Mg1 3.417475 1_565
Ce0 Mg0 3.417475 1_556
Ce0 Mg1 3.417475 1_566
Ce1 Cu1 2.921238 1_555
Ce1 Cu1 2.921238 1_556
Ce1 Cu0 2.980718 1_655
Ce1 Cu0 2.980718 1_656
Ce1 Cu2 2.980718 1_556
Ce1 Cu2 2.980718 1_555
Ce1 Mg1 3.417475 1_666
Ce1 Mg0 3.417475 1_555
Ce1 Mg1 3.417475 1_665
Ce1 Mg0 3.417475 1_556
Ce2 Cu3 2.921238 1_556
Ce2 Cu3 2.921238 1_555
Ce2 Cu0 2.980718 1_556
Ce2 Cu0 2.980718 1_555
Ce2 Cu2 2.980718 1_456
Ce2 Cu2 2.980718 1_455
Ce2 Mg0 3.417475 1_555
Ce2 Mg0 3.417475 1_556
Ce2 Mg1 3.417475 1_556
Ce2 Mg1 3.417475 1_555
Ce3 Cu2 2.921238 1_556
Ce3 Cu2 2.921238 1_555
Ce3 Cu1 2.980718 1_545
Ce3 Cu1 2.980718 1_546
Ce3 Cu3 2.980718 1_556
Ce3 Cu3 2.980718 1_555
Ce3 Mg0 3.417475 1_555
Ce3 Mg1 3.417475 1_656
Ce3 Mg0 3.417475 1_556
Ce3 Mg1 3.417475 1_655
Cu0 Cu2 2.652534 1_455
Cu0 Mg0 3.072962 1_555
Cu0 Mg1 3.072962 1_565
Cu1 Cu3 2.652534 1_565
Cu1 Mg0 3.072962 1_555
Cu1 Mg1 3.072962 1_665
Cu2 Mg0 3.072962 1_555
Cu2 Mg1 3.072962 1_655
Cu3 Mg1 3.072962 1_555
Cu3 Mg0 3.072962 1_555
