# generated using pymatgen
data_Na7Y2Zr2Si3(PO8)3
_symmetry_space_group_name_H-M   'P 1'
_cell_length_a   9.37876032
_cell_length_b   9.36455897
_cell_length_c   23.46056514
_cell_angle_alpha   90.03111836
_cell_angle_beta   90.02410857
_cell_angle_gamma   120.03378494
_symmetry_Int_Tables_number   1
_chemical_formula_structural   Na7Y2Zr2Si3(PO8)3
_chemical_formula_sum   'Na21 Y6 Zr6 Si9 P9 O72'
_cell_volume   1783.83102306
_cell_formula_units_Z   3
loop_
 _symmetry_equiv_pos_site_id
 _symmetry_equiv_pos_as_xyz
  1  'x, y, z'
loop_
 _atom_site_type_symbol
 _atom_site_label
 _atom_site_symmetry_multiplicity
 _atom_site_fract_x
 _atom_site_fract_y
 _atom_site_fract_z
 _atom_site_occupancy
  Na  Na0  1  0.63563515  0.00370640  0.25242595  1
  Na  Na1  1  0.36417400  0.36805435  0.24802090  1
  Na  Na2  1  0.00020008  0.62535774  0.25005068  1
  Na  Na3  1  0.63461313  0.63718026  0.74955065  1
  Na  Na4  1  0.99252597  0.36108354  0.74837510  1
  Na  Na5  1  0.37309861  0.00154513  0.74721129  1
  Na  Na6  1  0.03330474  0.69593284  0.58285232  1
  Na  Na7  1  0.66247122  0.97048791  0.58278398  1
  Na  Na8  1  0.66783385  0.69105430  0.08251756  1
  Na  Na9  1  0.03135478  0.33762499  0.08548615  1
  Na  Na10  1  0.96026445  0.66437803  0.91964871  1
  Na  Na11  1  0.69902869  0.02939315  0.91635694  1
  Na  Na12  1  0.34039949  0.30582292  0.91864451  1
  Na  Na13  1  0.96694285  0.30551664  0.41630659  1
  Na  Na14  1  0.33549243  0.02863298  0.41799576  1
  Na  Na15  1  0.00066646  0.99914023  0.50000410  1
  Na  Na16  1  0.00568336  0.99454935  0.00158304  1
  Na  Na17  1  0.66672557  0.33335384  0.83332205  1
  Na  Na18  1  0.67387754  0.33968068  0.33543451  1
  Na  Na19  1  0.32538138  0.66489942  0.16569859  1
  Na  Na20  1  0.33436217  0.66352168  0.66414326  1
  Y  Y0  1  0.99447759  0.99830196  0.85081101  1
  Y  Y1  1  0.66644991  0.32918820  0.67923670  1
  Y  Y2  1  0.66928980  0.33521928  0.18105336  1
  Y  Y3  1  0.66339986  0.33663044  0.98716916  1
  Y  Y4  1  0.33059208  0.66488843  0.31922109  1
  Y  Y5  1  0.33869712  0.66834511  0.81570848  1
  Zr  Zr0  1  0.98883201  0.99439206  0.35442776  1
  Zr  Zr1  1  0.00284497  0.00812332  0.64586744  1
  Zr  Zr2  1  0.01078568  0.00500380  0.14732938  1
  Zr  Zr3  1  0.66725799  0.33212440  0.48367409  1
  Zr  Zr4  1  0.33530276  0.66949900  0.01932589  1
  Zr  Zr5  1  0.33239565  0.66801055  0.51619886  1
  Si  Si0  1  0.99972314  0.29049998  0.25033930  1
  Si  Si1  1  0.70536214  0.00191178  0.74870749  1
  Si  Si2  1  0.96696647  0.33604063  0.58261859  1
  Si  Si3  1  0.36751996  0.03472127  0.58216679  1
  Si  Si4  1  0.96987852  0.63654842  0.08343956  1
  Si  Si5  1  0.36504422  0.33347491  0.08326780  1
  Si  Si6  1  0.62878338  0.66470668  0.91750982  1
  Si  Si7  1  0.62904593  0.96370196  0.41736550  1
  Si  Si8  1  0.03385069  0.66581548  0.41709374  1
  P  P0  1  0.28786947  0.00014615  0.25149043  1
  P  P1  1  0.71219583  0.71240692  0.24915509  1
  P  P2  1  0.29218166  0.29179820  0.74976306  1
  P  P3  1  0.99860433  0.70700856  0.74861052  1
  P  P4  1  0.66527533  0.62913953  0.58352413  1
  P  P5  1  0.66702511  0.03170160  0.08377209  1
  P  P6  1  0.04061857  0.37438490  0.91750515  1
  P  P7  1  0.33464603  0.95989708  0.91697353  1
  P  P8  1  0.33511977  0.37071317  0.41657455  1
  O  O0  1  0.20282667  0.02182517  0.30509428  1
  O  O1  1  0.82425802  0.80065293  0.30197827  1
  O  O2  1  0.97881825  0.17267845  0.30642270  1
  O  O3  1  0.21925406  0.18987668  0.80469053  1
  O  O4  1  0.97656236  0.78605592  0.80351521  1
  O  O5  1  0.81573919  0.03163548  0.80622387  1
  O  O6  1  0.80391800  0.97662724  0.69374382  1
  O  O7  1  0.17705087  0.19703331  0.69821336  1
  O  O8  1  0.02327628  0.81953125  0.69599689  1
  O  O9  1  0.79632862  0.81838137  0.19550273  1
  O  O10  1  0.02055356  0.19501203  0.19431955  1
  O  O11  1  0.17665561  0.97629920  0.19866934  1
  O  O12  1  0.89447721  0.37520519  0.63997271  1
  O  O13  1  0.47867472  0.10676875  0.63958152  1
  O  O14  1  0.63818334  0.53206011  0.63919447  1
  O  O15  1  0.89255726  0.51840561  0.13987601  1
  O  O16  1  0.63786338  0.10879024  0.13741447  1
  O  O17  1  0.48026028  0.37337433  0.14008642  1
  O  O18  1  0.44035694  0.30064494  0.02576087  1
  O  O19  1  0.85470921  0.55860091  0.02675362  1
  O  O20  1  0.70200122  0.14052694  0.03030000  1
  O  O21  1  0.46022313  0.15371077  0.52675946  1
  O  O22  1  0.69545406  0.53998825  0.53295188  1
  O  O23  1  0.84089665  0.30301925  0.52807850  1
  O  O24  1  0.53168449  0.69074106  0.97235536  1
  O  O25  1  0.15212740  0.46565202  0.97004839  1
  O  O26  1  0.30975535  0.84392278  0.96811023  1
  O  O27  1  0.53837328  0.84581117  0.47293686  1
  O  O28  1  0.30371557  0.45864414  0.46713142  1
  O  O29  1  0.15883919  0.69653205  0.47188165  1
  O  O30  1  0.10775219  0.62617272  0.35990690  1
  O  O31  1  0.51953691  0.89131413  0.35953154  1
  O  O32  1  0.36295510  0.46960849  0.36109027  1
  O  O33  1  0.11537368  0.47795779  0.86291846  1
  O  O34  1  0.35746964  0.88303755  0.86166588  1
  O  O35  1  0.51780478  0.63531708  0.86017699  1
  O  O36  1  0.03165601  0.84114901  0.41022115  1
  O  O37  1  0.81905112  0.99271104  0.41141602  1
  O  O38  1  0.17485631  0.19509921  0.41072221  1
  O  O39  1  0.03191851  0.20367344  0.91481657  1
  O  O40  1  0.17867542  0.97828368  0.91424315  1
  O  O41  1  0.81193607  0.83384787  0.91632764  1
  O  O42  1  0.97084563  0.16079323  0.58929302  1
  O  O43  1  0.17776956  0.00327936  0.58953932  1
  O  O44  1  0.82722592  0.80401256  0.58883020  1
  O  O45  1  0.97546164  0.81456693  0.09251576  1
  O  O46  1  0.82290029  0.01203389  0.09166652  1
  O  O47  1  0.17495771  0.17523737  0.09070839  1
  O  O48  1  0.68646917  0.16767772  0.74570848  1
  O  O49  1  0.46751430  0.31585764  0.74346366  1
  O  O50  1  0.84054091  0.53454048  0.74429304  1
  O  O51  1  0.69468273  0.53802135  0.24669095  1
  O  O52  1  0.83070654  0.30388230  0.24842728  1
  O  O53  1  0.46035231  0.15772072  0.24615146  1
  O  O54  1  0.64775337  0.49898503  0.92037135  1
  O  O55  1  0.86452451  0.34941677  0.92324984  1
  O  O56  1  0.49307221  0.13142531  0.92241289  1
  O  O57  1  0.64826690  0.15004251  0.42575278  1
  O  O58  1  0.48386234  0.34313433  0.42565014  1
  O  O59  1  0.85279361  0.49938918  0.42735139  1
  O  O60  1  0.34658082  0.50145332  0.07504980  1
  O  O61  1  0.15036267  0.64833741  0.07434134  1
  O  O62  1  0.51491848  0.85507948  0.07604149  1
  O  O63  1  0.35164031  0.84952994  0.57387177  1
  O  O64  1  0.51726944  0.65778931  0.57418812  1
  O  O65  1  0.14815437  0.50113122  0.57251792  1
  O  O66  1  0.30568269  0.84350124  0.25366514  1
  O  O67  1  0.53976589  0.69711253  0.25414993  1
  O  O68  1  0.16858086  0.47332848  0.25182145  1
  O  O69  1  0.30052134  0.46220611  0.75179077  1
  O  O70  1  0.15460704  0.68840491  0.75216574  1
  O  O71  1  0.52239761  0.83263666  0.75007288  1
loop_
_geom_bond_atom_site_label_1
_geom_bond_atom_site_label_2
_geom_bond_distance
_geom_bond_site_symmetry_2
Na0 O52 2.471867 1_555
Na0 O67 2.543499 1_545
Na0 O53 2.679144 1_555
Na0 O66 2.679663 1_545
Na0 O31 2.732271 1_545
Na0 O16 2.869082 1_555
Na1 O68 2.480985 1_555
Na1 O53 2.544348 1_555
Na1 O67 2.673524 1_555
Na1 O51 2.684066 1_555
Na1 O17 2.747374 1_555
Na1 O32 2.819465 1_555
Na2 O66 2.555319 1_555
Na2 O51 2.557213 1_455
Na2 O68 2.602516 1_555
Na2 O52 2.607822 1_455
Na2 O30 2.765872 1_555
Na2 O15 2.772389 1_455
Na3 O71 2.527117 1_555
Na3 O50 2.554899 1_555
Na3 O49 2.609523 1_555
Na3 O69 2.714113 1_555
Na3 O14 2.775516 1_555
Na3 O35 2.814187 1_555
Na4 O48 2.513803 1_555
Na4 O69 2.551229 1_655
Na4 O50 2.645250 1_555
Na4 O70 2.655104 1_655
Na4 O12 2.729653 1_555
Na4 O33 2.911799 1_655
Na5 O48 2.546089 1_555
Na5 O71 2.585392 1_545
Na5 O70 2.607128 1_545
Na5 O49 2.616627 1_555
Na5 O13 2.712089 1_555
Na5 O34 2.881656 1_545
Na6 O43 2.497983 1_565
Na6 O65 2.552168 1_555
Na6 O63 2.594060 1_555
Na6 O44 2.595744 1_455
Na6 O29 2.856581 1_555
Na6 O8 2.915544 1_555
Na6 O12 2.933117 1_455
Na6 O22 2.984342 1_455
Na7 O42 2.530572 1_565
Na7 O64 2.545060 1_555
Na7 O63 2.553225 1_555
Na7 O44 2.692500 1_555
Na7 O27 2.827196 1_555
Na7 O6 2.908659 1_555
Na7 O13 2.928813 1_565
Na7 O23 2.989036 1_565
Na8 O45 2.525006 1_555
Na8 O62 2.577688 1_555
Na8 O46 2.611374 1_565
Na8 O60 2.627787 1_555
Na8 O24 2.881571 1_554
Na8 O9 2.907869 1_555
Na8 O19 2.915164 1_555
Na8 O17 2.921754 1_555
Na9 O47 2.488306 1_555
Na9 O61 2.555491 1_555
Na9 O60 2.571930 1_555
Na9 O46 2.678320 1_455
Na9 O10 2.860357 1_555
Na9 O15 2.897215 1_455
Na9 O25 2.949857 1_554
Na9 O20 2.985186 1_455
Na10 O54 2.538817 1_555
Na10 O41 2.582630 1_555
Na10 O40 2.612710 1_655
Na10 O55 2.619547 1_555
Na10 O19 2.701536 1_556
Na10 O4 2.928194 1_555
Na11 O41 2.532923 1_545
Na11 O56 2.551839 1_555
Na11 O55 2.599907 1_555
Na11 O39 2.704054 1_655
Na11 O5 2.802492 1_555
Na11 O20 2.863141 1_556
Na12 O54 2.522555 1_555
Na12 O39 2.553987 1_555
Na12 O40 2.657402 1_545
Na12 O56 2.658237 1_555
Na12 O18 2.690741 1_556
Na12 O3 2.894207 1_555
Na13 O37 2.539700 1_545
Na13 O59 2.540631 1_555
Na13 O57 2.597438 1_555
Na13 O38 2.628145 1_655
Na13 O23 2.872132 1_555
Na13 O2 2.888093 1_555
Na13 O30 2.923664 1_655
Na13 O28 2.985861 1_655
Na14 O36 2.495410 1_545
Na14 O58 2.557216 1_555
Na14 O57 2.567407 1_555
Na14 O38 2.660830 1_555
Na14 O21 2.806067 1_555
Na14 O0 2.913009 1_555
Na14 O31 2.955734 1_545
Na14 O29 2.977129 1_545
Na15 O43 2.665572 1_565
Na15 O37 2.668074 1_455
Na15 O36 2.671662 1_555
Na15 O42 2.679321 1_465
Na15 O44 2.712794 1_455
Na15 O38 2.725773 1_565
Na16 O41 2.612179 1_454
Na16 O45 2.645451 1_455
Na16 O47 2.657032 1_565
Na16 O40 2.665328 1_554
Na16 O39 2.749859 1_564
Na16 O46 2.777716 1_465
Na17 O54 2.623219 1_555
Na17 O48 2.636429 1_555
Na17 O50 2.739028 1_555
Na17 O56 2.742475 1_555
Na17 O55 2.762636 1_555
Na17 O49 2.766167 1_555
Na18 O52 2.633979 1_555
Na18 O59 2.680289 1_555
Na18 O57 2.697919 1_555
Na18 O51 2.732082 1_555
Na18 O58 2.778014 1_555
Na18 O53 2.806804 1_555
Na19 O68 2.613220 1_555
Na19 O61 2.655933 1_555
Na19 O60 2.684484 1_555
Na19 O66 2.719634 1_555
Na19 O62 2.755753 1_555
Na19 O67 2.797950 1_555
Na20 O71 2.622978 1_555
Na20 O63 2.695798 1_555
Na20 O69 2.699785 1_555
Na20 O65 2.705178 1_555
Na20 O64 2.737611 1_555
Na20 O70 2.748928 1_555
O0 P0 1.556126 1_555
O0 Zr0 2.218056 1_445
O1 P1 1.565778 1_555
O1 Zr0 2.093060 1_555
O2 Si0 1.665009 1_555
O2 Zr0 2.055139 1_545
O3 P2 1.545300 1_555
O3 Y0 2.247573 1_445
O4 P3 1.549922 1_555
O4 Y0 2.207504 1_555
O5 Si1 1.637035 1_555
O5 Y0 2.127078 1_545
O6 Si1 1.671217 1_565
O6 Zr1 2.068976 1_665
O7 P2 1.566717 1_555
O7 Zr1 2.099948 1_555
O8 P3 1.563672 1_455
O8 Zr1 2.209009 1_565
O9 P1 1.552473 1_555
O9 Zr2 2.205084 1_665
O10 Si0 1.654945 1_455
O10 Zr2 2.055331 1_555
O11 P0 1.561702 1_565
O11 Zr2 2.088162 1_565
O12 Si2 1.630057 1_555
O12 Y1 2.165052 1_555
O13 Si3 1.627917 1_555
O13 Y1 2.151730 1_555
O14 P4 1.538558 1_555
O14 Y1 2.251207 1_555
O15 Si4 1.643849 1_555
O15 Y2 2.160664 1_555
O16 P5 1.541643 1_555
O16 Y2 2.236724 1_555
O17 Si5 1.636531 1_555
O17 Y2 2.197152 1_555
O18 Si5 1.622145 1_555
O18 Y3 2.146032 1_554
O19 Si4 1.636035 1_555
O19 Y3 2.160008 1_554
O20 P5 1.544992 1_555
O20 Y3 2.279175 1_554
O21 Si3 1.649241 1_555
O21 Zr3 2.083147 1_555
O22 P4 1.555804 1_555
O22 Zr3 2.162765 1_555
O23 Si2 1.662277 1_555
O23 Zr3 2.062715 1_555
O24 Si6 1.663509 1_555
O24 Zr4 2.069145 1_556
O25 P6 1.564212 1_555
O25 Zr4 2.155237 1_556
O26 P7 1.555997 1_555
O26 Zr4 2.136068 1_556
O27 Si7 1.644509 1_555
O27 Zr5 2.077985 1_555
O28 P8 1.553583 1_555
O28 Zr5 2.170465 1_555
O29 Si8 1.664276 1_555
O29 Zr5 2.058144 1_555
O30 Si8 1.635851 1_555
O30 Y4 2.157321 1_555
O31 Si7 1.629791 1_555
O31 Y4 2.183050 1_555
O32 P8 1.542665 1_555
O32 Y4 2.226769 1_555
O33 P6 1.547161 1_555
O33 Y5 2.249080 1_555
O34 P7 1.549499 1_555
O34 Y5 2.208788 1_555
O35 Si6 1.637056 1_555
O35 Y5 2.127148 1_555
O36 Si8 1.660253 1_555
O36 Zr0 2.124284 1_455
O37 Si7 1.668685 1_555
O37 Zr0 2.073645 1_555
O38 P8 1.583603 1_555
O38 Zr0 2.243575 1_445
O39 P6 1.560637 1_555
O39 Y0 2.323203 1_445
O40 P7 1.557442 1_555
O40 Y0 2.357220 1_455
O41 Si6 1.654321 1_555
O41 Y0 2.242940 1_555
O42 Si2 1.667076 1_555
O42 Zr1 2.080131 1_655
O43 Si3 1.661162 1_555
O43 Zr1 2.125120 1_555
O44 P4 1.585568 1_555
O44 Zr1 2.236259 1_665
O45 Si4 1.655117 1_555
O45 Zr2 2.085555 1_665
O46 P5 1.573137 1_555
O46 Zr2 2.220147 1_655
O47 Si5 1.661520 1_555
O47 Zr2 2.055140 1_555
O48 Si1 1.649700 1_555
O48 Y1 2.245294 1_555
O49 P2 1.551139 1_555
O49 Y1 2.352987 1_555
O50 P3 1.555434 1_555
O50 Y1 2.354800 1_555
O51 P1 1.558377 1_555
O51 Y2 2.361892 1_555
O52 Si0 1.652050 1_555
O52 Y2 2.306420 1_555
O53 P0 1.555915 1_555
O53 Y2 2.383283 1_555
O54 Si6 1.649569 1_555
O54 Y3 2.239345 1_555
O55 P6 1.553738 1_655
O55 Y3 2.365945 1_555
O56 P7 1.553917 1_545
O56 Y3 2.339776 1_555
O57 Si7 1.673600 1_545
O57 Zr3 2.116349 1_555
O58 P8 1.555178 1_555
O58 Zr3 2.235595 1_555
O59 Si8 1.649829 1_655
O59 Zr3 2.122074 1_555
O60 Si5 1.677676 1_555
O60 Zr4 2.089366 1_555
O61 Si4 1.654178 1_455
O61 Zr4 2.090877 1_555
O62 P5 1.562431 1_565
O62 Zr4 2.166444 1_555
O63 Si3 1.675914 1_565
O63 Zr5 2.107832 1_555
O64 P4 1.555447 1_555
O64 Zr5 2.242915 1_555
O65 Si2 1.644646 1_455
O65 Zr5 2.115381 1_555
O66 P0 1.558119 1_565
O66 Y4 2.368818 1_555
O67 P1 1.554938 1_555
O67 Y4 2.383407 1_555
O68 Si0 1.651136 1_455
O68 Y4 2.300748 1_555
O69 P2 1.558818 1_555
O69 Y5 2.325470 1_555
O70 P3 1.559831 1_455
O70 Y5 2.358251 1_555
O71 Si1 1.653967 1_565
O71 Y5 2.248979 1_555
