# generated using pymatgen
data_Sr3MgCo2Cl2O5
_symmetry_space_group_name_H-M   'P 1'
_cell_length_a   3.88205293
_cell_length_b   4.11442923
_cell_length_c   14.51556543
_cell_angle_alpha   98.14765091
_cell_angle_beta   97.68463190
_cell_angle_gamma   89.99999415
_symmetry_Int_Tables_number   1
_chemical_formula_structural   Sr3MgCo2Cl2O5
_chemical_formula_sum   'Sr3 Mg1 Co2 Cl2 O5'
_cell_volume   227.40499277
_cell_formula_units_Z   1
loop_
 _symmetry_equiv_pos_site_id
 _symmetry_equiv_pos_as_xyz
  1  'x, y, z'
loop_
 _atom_site_type_symbol
 _atom_site_label
 _atom_site_symmetry_multiplicity
 _atom_site_fract_x
 _atom_site_fract_y
 _atom_site_fract_z
 _atom_site_occupancy
  Sr  Sr0  1  0.94585021  0.94585021  0.89170042  1
  Sr  Sr1  1  0.16477986  0.16478086  0.32956173  1
  Sr  Sr2  1  0.82803710  0.82803610  0.65607320  1
  Mg  Mg0  1  0.03855577  0.53855577  0.07711153  1
  Co  Co0  1  0.38715516  0.38715616  0.77431231  1
  Co  Co1  1  0.60882825  0.60883025  0.21765850  1
  Cl  Cl0  1  0.29629982  0.29629882  0.59259764  1
  Cl  Cl1  1  0.71803687  0.71803487  0.43607273  1
  O  O0  1  0.50496007  0.50496107  0.00992114  1
  O  O1  1  0.38903017  0.88903117  0.77805934  1
  O  O2  1  0.89590528  0.39590528  0.79181056  1
  O  O3  1  0.10665470  0.60665470  0.21331141  1
  O  O4  1  0.61590374  0.11590574  0.23180948  1
loop_
_geom_bond_atom_site_label_1
_geom_bond_atom_site_label_2
_geom_bond_distance
_geom_bond_site_symmetry_2
Mg0 O3 1.939124 1_555
Mg0 O0 2.163951 1_555
Mg0 O0 2.163954 1_455
Co0 O2 1.956945 1_455
Co0 O2 1.956953 1_555
Co0 O1 2.057900 1_545
Co0 O1 2.057912 1_555
Co1 O3 1.942013 1_655
Co1 O3 1.942013 1_555
Co1 O4 2.067057 1_555
Co1 O4 2.067057 1_565
Cl0 Co0 2.587134 1_555
Cl0 Sr2 2.969245 1_555
Cl0 Sr2 2.969247 1_455
Cl0 Sr2 2.969248 1_545
Cl0 Sr2 2.969250 1_445
Cl1 Co1 3.109638 1_555
Cl1 Sr2 3.132222 1_555
Cl1 Sr1 3.209243 1_655
Cl1 Sr1 3.209250 1_555
Cl1 Sr1 3.209251 1_665
Cl1 Sr1 3.209257 1_565
O1 Sr0 2.526921 1_555
O1 Sr0 2.526924 1_455
O1 Sr2 2.604595 1_455
O1 Sr2 2.604595 1_555
O2 Sr0 2.500937 1_545
O2 Sr0 2.500938 1_555
O2 Sr2 2.822557 1_555
O2 Sr2 2.822561 1_545
O3 Sr1 2.640351 1_555
O3 Sr1 2.640358 1_565
O4 Sr1 2.388410 1_655
O4 Sr1 2.388410 1_555
