# generated using pymatgen
data_Na5HfSc3Si3(SO8)3
_symmetry_space_group_name_H-M   'P 1'
_cell_length_a   9.06777479
_cell_length_b   9.09197928
_cell_length_c   22.87418161
_cell_angle_alpha   90.17995460
_cell_angle_beta   90.12480660
_cell_angle_gamma   120.07859587
_symmetry_Int_Tables_number   1
_chemical_formula_structural   Na5HfSc3Si3(SO8)3
_chemical_formula_sum   'Na15 Hf3 Sc9 Si9 S9 O72'
_cell_volume   1631.86652631
_cell_formula_units_Z   3
loop_
 _symmetry_equiv_pos_site_id
 _symmetry_equiv_pos_as_xyz
  1  'x, y, z'
loop_
 _atom_site_type_symbol
 _atom_site_label
 _atom_site_symmetry_multiplicity
 _atom_site_fract_x
 _atom_site_fract_y
 _atom_site_fract_z
 _atom_site_occupancy
  Na  Na0  1  0.64498613  0.00646833  0.25535689  1
  Na  Na1  1  0.00191263  0.62393714  0.24807635  1
  Na  Na2  1  0.63035641  0.63568108  0.74499220  1
  Na  Na3  1  0.37083821  0.01317970  0.75563482  1
  Na  Na4  1  0.66704224  0.95341404  0.58540793  1
  Na  Na5  1  0.97345914  0.68381045  0.92172730  1
  Na  Na6  1  0.69035448  0.01401899  0.91175854  1
  Na  Na7  1  0.96320185  0.30200952  0.40965950  1
  Na  Na8  1  0.70782176  0.68443380  0.42269466  1
  Na  Na9  1  0.00111246  0.97592270  0.50190226  1
  Na  Na10  1  0.00734570  0.98555565  0.99925645  1
  Na  Na11  1  0.64666572  0.31931637  0.83100869  1
  Na  Na12  1  0.66384063  0.31971885  0.33284480  1
  Na  Na13  1  0.30919764  0.63940707  0.16084496  1
  Na  Na14  1  0.33063423  0.63957639  0.66549887  1
  Hf  Hf0  1  0.66126414  0.34309917  0.98107471  1
  Hf  Hf1  1  0.67220115  0.34104400  0.48157066  1
  Hf  Hf2  1  0.34775385  0.66863058  0.81451595  1
  Sc  Sc0  1  0.99413385  0.00134710  0.35293437  1
  Sc  Sc1  1  0.00833847  0.01140018  0.85115686  1
  Sc  Sc2  1  0.99218111  0.99991104  0.65082679  1
  Sc  Sc3  1  0.00421791  0.00551422  0.14454441  1
  Sc  Sc4  1  0.65888708  0.33751735  0.68668299  1
  Sc  Sc5  1  0.68453897  0.34226208  0.18179822  1
  Sc  Sc6  1  0.33298774  0.67981784  0.01842981  1
  Sc  Sc7  1  0.34085549  0.67614774  0.51698028  1
  Sc  Sc8  1  0.32035449  0.66253517  0.31749441  1
  Si  Si0  1  0.00427609  0.29473451  0.24977517  1
  Si  Si1  1  0.28745649  0.29220387  0.74866314  1
  Si  Si2  1  0.70812730  0.00648365  0.75069474  1
  Si  Si3  1  0.66672766  0.63246530  0.58434548  1
  Si  Si4  1  0.96910843  0.63422561  0.08403494  1
  Si  Si5  1  0.62856107  0.66917901  0.91861902  1
  Si  Si6  1  0.33241659  0.96151950  0.91619087  1
  Si  Si7  1  0.62435884  0.96198739  0.41536217  1
  Si  Si8  1  0.04230370  0.67182480  0.41715755  1
  S  S0  1  0.29227601  0.00243551  0.24975873  1
  S  S1  1  0.70564951  0.70610052  0.24947093  1
  S  S2  1  0.00089626  0.70686939  0.75062997  1
  S  S3  1  0.96020332  0.33546230  0.58368129  1
  S  S4  1  0.37351725  0.04229188  0.58321652  1
  S  S5  1  0.66746852  0.04143948  0.08354355  1
  S  S6  1  0.37541121  0.33457592  0.08465108  1
  S  S7  1  0.04353615  0.37702297  0.91835367  1
  S  S8  1  0.33426874  0.37450306  0.41714101  1
  O  O0  1  0.21194078  0.02194726  0.30279737  1
  O  O1  1  0.81096692  0.78039605  0.30361603  1
  O  O2  1  0.97259290  0.18157586  0.30965778  1
  O  O3  1  0.20764913  0.16831626  0.80465959  1
  O  O4  1  0.97108227  0.78110716  0.80386502  1
  O  O5  1  0.81492506  0.02368992  0.80972393  1
  O  O6  1  0.78599484  0.96263231  0.69261601  1
  O  O7  1  0.17630696  0.19804486  0.69070013  1
  O  O8  1  0.03115645  0.81556223  0.69911741  1
  O  O9  1  0.79185678  0.81449154  0.19888145  1
  O  O10  1  0.01759353  0.18945527  0.19461601  1
  O  O11  1  0.18459811  0.97280030  0.19778373  1
  O  O12  1  0.87374769  0.35327273  0.63456152  1
  O  O13  1  0.47806147  0.11970531  0.63639494  1
  O  O14  1  0.65096902  0.52049061  0.64199793  1
  O  O15  1  0.87387271  0.52048641  0.14313529  1
  O  O16  1  0.64560442  0.12268429  0.13703306  1
  O  O17  1  0.47883152  0.35065907  0.13660732  1
  O  O18  1  0.45885791  0.31048351  0.03121099  1
  O  O19  1  0.84580148  0.53141193  0.02688662  1
  O  O20  1  0.68484519  0.14570172  0.03117002  1
  O  O21  1  0.46459318  0.14875988  0.53133663  1
  O  O22  1  0.68091551  0.53180090  0.52565374  1
  O  O23  1  0.85194389  0.31030174  0.52926038  1
  O  O24  1  0.53060498  0.69442850  0.97253737  1
  O  O25  1  0.14508220  0.45534788  0.97051612  1
  O  O26  1  0.29569906  0.83382693  0.97083480  1
  O  O27  1  0.54318969  0.84048878  0.47251559  1
  O  O28  1  0.30598159  0.45143313  0.46922326  1
  O  O29  1  0.15710157  0.68551247  0.47280513  1
  O  O30  1  0.11390493  0.62527145  0.35792584  1
  O  O31  1  0.51612299  0.87285633  0.35563242  1
  O  O32  1  0.36787001  0.48229698  0.36503830  1
  O  O33  1  0.11879861  0.48368082  0.86557820  1
  O  O34  1  0.36174262  0.87250159  0.85715951  1
  O  O35  1  0.51618684  0.63740366  0.85828152  1
  O  O36  1  0.00962645  0.83127023  0.41004571  1
  O  O37  1  0.81967116  0.98784811  0.41099465  1
  O  O38  1  0.18290030  0.20434355  0.40997749  1
  O  O39  1  0.01658845  0.20391151  0.91209416  1
  O  O40  1  0.16315062  0.97862458  0.91071726  1
  O  O41  1  0.81730874  0.83667905  0.91265104  1
  O  O42  1  0.96872583  0.17641048  0.58578887  1
  O  O43  1  0.20410011  0.02442190  0.58619396  1
  O  O44  1  0.83737853  0.82470331  0.58492923  1
  O  O45  1  0.98127799  0.82020832  0.08944171  1
  O  O46  1  0.82330228  0.02834148  0.08759483  1
  O  O47  1  0.20524732  0.17912503  0.08737451  1
  O  O48  1  0.67517867  0.16585841  0.74283721  1
  O  O49  1  0.48529243  0.32364379  0.74439447  1
  O  O50  1  0.84817974  0.53672783  0.74363756  1
  O  O51  1  0.68656319  0.53375191  0.24392162  1
  O  O52  1  0.82569892  0.30990090  0.24552284  1
  O  O53  1  0.46623860  0.15234552  0.24400301  1
  O  O54  1  0.65574998  0.50172451  0.92273043  1
  O  O55  1  0.86778965  0.35858409  0.92370899  1
  O  O56  1  0.51490604  0.14211571  0.92492987  1
  O  O57  1  0.65058029  0.15376200  0.42401890  1
  O  O58  1  0.48920574  0.35690660  0.42378766  1
  O  O59  1  0.84639773  0.49816884  0.42396324  1
  O  O60  1  0.36057001  0.48690691  0.07886578  1
  O  O61  1  0.15348624  0.64471623  0.07985849  1
  O  O62  1  0.51539839  0.87106064  0.07975295  1
  O  O63  1  0.36261692  0.87367448  0.57758369  1
  O  O64  1  0.49681226  0.65542413  0.57986519  1
  O  O65  1  0.12960395  0.48526517  0.57719309  1
  O  O66  1  0.31160807  0.84689017  0.25429707  1
  O  O67  1  0.53715053  0.69384692  0.25512239  1
  O  O68  1  0.16827468  0.49065565  0.25333813  1
  O  O69  1  0.30987494  0.48293218  0.75519354  1
  O  O70  1  0.15531669  0.69024314  0.75706635  1
  O  O71  1  0.51288815  0.83128083  0.75531067  1
loop_
_geom_bond_atom_site_label_1
_geom_bond_atom_site_label_2
_geom_bond_distance
_geom_bond_site_symmetry_2
Na0 O52 2.412639 1_555
Na0 O67 2.499814 1_545
Na0 O53 2.570771 1_555
Na0 O31 2.590096 1_545
Na0 O66 2.616713 1_545
Na0 O2 2.851856 1_555
Na0 O16 2.907588 1_555
Na0 O9 2.968586 1_545
Na1 O68 2.364550 1_555
Na1 O52 2.476749 1_455
Na1 O66 2.511165 1_555
Na1 O51 2.550740 1_455
Na1 O15 2.621801 1_455
Na1 O30 2.705831 1_555
Na2 O49 2.457278 1_555
Na2 O71 2.500046 1_555
Na2 O69 2.527418 1_555
Na2 O50 2.548143 1_555
Na2 O14 2.620065 1_555
Na2 O35 2.795543 1_555
Na2 O6 2.843971 1_555
Na2 O4 2.997230 1_555
Na3 O48 2.407209 1_555
Na3 O49 2.486012 1_555
Na3 O71 2.555307 1_545
Na3 O70 2.586582 1_545
Na3 O34 2.636201 1_545
Na3 O3 2.743391 1_555
Na3 O13 2.899472 1_555
Na3 O8 2.967764 1_545
Na4 O64 2.354599 1_555
Na4 O44 2.359464 1_555
Na4 O42 2.456520 1_565
Na4 O63 2.483698 1_555
Na4 O6 2.660979 1_555
Na4 O27 2.792615 1_555
Na5 O40 2.364631 1_655
Na5 O41 2.439862 1_555
Na5 O54 2.502146 1_555
Na5 O55 2.612418 1_555
Na5 O19 2.733368 1_556
Na5 O26 2.764304 1_655
Na5 O4 2.843464 1_555
Na6 O41 2.405424 1_545
Na6 O56 2.415657 1_555
Na6 O39 2.571426 1_655
Na6 O5 2.577645 1_555
Na6 O55 2.723600 1_555
Na6 O34 2.867920 1_545
Na6 O24 2.879127 1_545
Na6 O20 2.989429 1_556
Na7 O37 2.475463 1_545
Na7 O57 2.477393 1_555
Na7 O59 2.510170 1_555
Na7 O2 2.552896 1_555
Na7 O38 2.555486 1_655
Na7 O30 2.812296 1_655
Na7 O23 2.931707 1_555
Na7 O28 3.016684 1_655
Na8 O36 2.387290 1_655
Na8 O37 2.431388 1_555
Na8 O59 2.565358 1_555
Na8 O58 2.623269 1_555
Na8 O22 2.686169 1_555
Na8 O27 2.767824 1_555
Na8 O1 2.874595 1_555
Na8 O32 2.984581 1_555
Na9 O44 2.384125 1_455
Na9 O36 2.497114 1_555
Na9 O43 2.542761 1_565
Na9 O37 2.684781 1_455
Na9 O42 2.758255 1_465
Na9 O38 2.839489 1_565
Na10 O40 2.490497 1_555
Na10 O45 2.497381 1_456
Na10 O41 2.521181 1_455
Na10 O47 2.678928 1_566
Na10 O46 2.771287 1_466
Na10 O39 2.789677 1_565
Na11 O49 2.472574 1_555
Na11 O48 2.535233 1_555
Na11 O56 2.596551 1_555
Na11 O54 2.645667 1_555
Na11 O50 2.767786 1_555
Na11 O55 2.811287 1_555
Na12 O52 2.508934 1_555
Na12 O57 2.545508 1_555
Na12 O53 2.624430 1_555
Na12 O59 2.643553 1_555
Na12 O58 2.737879 1_555
Na12 O51 2.755255 1_555
Na13 O61 2.342048 1_555
Na13 O68 2.497129 1_555
Na13 O60 2.508139 1_555
Na13 O62 2.732216 1_555
Na13 O66 2.839321 1_555
Na13 O67 2.848947 1_555
Na14 O64 2.434194 1_555
Na14 O69 2.454495 1_555
Na14 O65 2.602691 1_555
Na14 O71 2.658003 1_555
Na14 O70 2.805184 1_555
Na14 O63 2.840603 1_555
Hf0 O19 1.984665 1_556
Hf0 O54 1.986876 1_555
Hf0 O18 2.058518 1_556
Hf0 O56 2.072860 1_555
Hf0 O20 2.230780 1_556
Hf0 O55 2.235254 1_555
Hf1 O22 1.970364 1_555
Hf1 O59 2.007802 1_555
Hf1 O57 2.078714 1_555
Hf1 O23 2.091742 1_555
Hf1 O21 2.149198 1_555
Hf1 O58 2.180092 1_555
Hf2 O35 1.960937 1_555
Hf2 O71 2.016167 1_555
Hf2 O34 2.038575 1_555
Hf2 O69 2.052355 1_555
Hf2 O33 2.241793 1_555
Hf2 O70 2.268432 1_555
O0 S0 1.471752 1_555
O0 Sc0 2.211667 1_455
O1 S1 1.498405 1_555
O1 Sc0 2.167946 1_565
O2 Si0 1.652751 1_655
O2 Sc0 2.008332 1_555
O3 Si1 1.621453 1_555
O3 Sc1 1.966295 1_555
O4 S2 1.480089 1_655
O4 Sc1 2.223412 1_665
O5 Si2 1.620674 1_555
O5 Sc1 2.043644 1_655
O6 Si2 1.644803 1_565
O6 Sc2 1.974545 1_555
O7 Si1 1.621348 1_555
O7 Sc2 1.957763 1_445
O8 S2 1.475541 1_555
O8 Sc2 2.181298 1_455
O9 S1 1.469783 1_555
O9 Sc3 2.222827 1_665
O10 Si0 1.622248 1_555
O10 Sc3 1.976728 1_555
O11 S0 1.472625 1_565
O11 Sc3 2.174422 1_565
O12 S3 1.457871 1_555
O12 Sc4 2.229190 1_555
O13 S4 1.481388 1_555
O13 Sc4 2.157808 1_555
O14 Si3 1.630775 1_555
O14 Sc4 1.986840 1_555
O15 Si4 1.661754 1_555
O15 Sc5 1.892728 1_555
O16 S5 1.491358 1_555
O16 Sc5 2.106617 1_555
O17 S6 1.473045 1_555
O17 Sc5 2.165316 1_555
O18 S6 1.511055 1_555
O19 Si4 1.664665 1_555
O20 S5 1.488919 1_555
O21 S4 1.495830 1_555
O22 Si3 1.663625 1_555
O23 S3 1.527550 1_555
O24 Si5 1.603182 1_555
O24 Sc6 2.025134 1_556
O25 S7 1.453014 1_555
O25 Sc6 2.182137 1_556
O26 Si6 1.626201 1_555
O26 Sc6 1.934642 1_556
O27 Si7 1.633835 1_555
O27 Sc7 1.975607 1_555
O28 S8 1.466369 1_555
O28 Sc7 2.191907 1_555
O29 Si8 1.607085 1_555
O29 Sc7 1.984960 1_555
O30 Si8 1.646839 1_555
O30 Sc8 1.961731 1_555
O31 Si7 1.636040 1_555
O31 Sc8 2.036935 1_555
O32 S8 1.477617 1_555
O32 Sc8 2.184183 1_555
O33 S7 1.486950 1_555
O34 Si6 1.661171 1_555
O35 Si5 1.650136 1_555
O36 Si8 1.627165 1_555
O36 Sc0 2.084981 1_465
O37 Si7 1.668948 1_555
O37 Sc0 2.024131 1_565
O38 S8 1.474171 1_555
O38 Sc0 2.201656 1_455
O39 S7 1.473219 1_555
O39 Sc1 2.205693 1_555
O40 Si6 1.623030 1_555
O40 Sc1 2.080654 1_565
O41 Si5 1.629979 1_555
O41 Sc1 2.183824 1_665
O42 S3 1.487256 1_555
O42 Sc2 2.278013 1_545
O43 S4 1.463350 1_555
O43 Sc2 2.348034 1_445
O44 Si3 1.654782 1_555
O44 Sc2 2.124717 1_555
O45 Si4 1.642673 1_555
O45 Sc3 2.026010 1_665
O46 S5 1.479087 1_555
O46 Sc3 2.182879 1_655
O47 S6 1.482330 1_555
O47 Sc3 2.159571 1_555
O48 Si2 1.629914 1_555
O48 Sc4 2.085771 1_555
O49 Si1 1.672232 1_555
O49 Sc4 2.011840 1_555
O50 S2 1.478661 1_655
O50 Sc4 2.187048 1_555
O51 S1 1.492761 1_555
O51 Sc5 2.236763 1_555
O52 Si0 1.695234 1_655
O52 Sc5 2.054702 1_555
O53 S0 1.486706 1_555
O53 Sc5 2.350769 1_555
O54 Si5 1.662727 1_555
O55 S7 1.521823 1_655
O56 Si6 1.657488 1_545
O57 Si7 1.648632 1_545
O58 S8 1.499025 1_555
O59 Si8 1.692370 1_655
O60 S6 1.463463 1_555
O60 Sc6 2.345934 1_555
O61 Si4 1.629224 1_455
O61 Sc6 2.053696 1_555
O62 S5 1.471773 1_565
O62 Sc6 2.195124 1_555
O63 S4 1.491132 1_565
O63 Sc7 2.194054 1_555
O64 Si3 1.658261 1_555
O64 Sc7 2.089127 1_555
O65 S3 1.463483 1_455
O65 Sc7 2.296202 1_555
O66 S0 1.513556 1_565
O66 Sc8 2.247993 1_555
O67 S1 1.481201 1_555
O67 Sc8 2.331294 1_555
O68 Si0 1.653621 1_555
O68 Sc8 2.077033 1_555
O69 Si1 1.647914 1_555
O70 S2 1.488838 1_555
O71 Si2 1.690540 1_565
