# generated using pymatgen
data_KAs4IO6
_symmetry_space_group_name_H-M   'P 1'
_cell_length_a   5.36329636
_cell_length_b   5.36329636
_cell_length_c   9.56356300
_cell_angle_alpha   90.00000000
_cell_angle_beta   90.00000000
_cell_angle_gamma   120.00000444
_symmetry_Int_Tables_number   1
_chemical_formula_structural   KAs4IO6
_chemical_formula_sum   'K1 As4 I1 O6'
_cell_volume   238.23958635
_cell_formula_units_Z   1
loop_
 _symmetry_equiv_pos_site_id
 _symmetry_equiv_pos_as_xyz
  1  'x, y, z'
loop_
 _atom_site_type_symbol
 _atom_site_label
 _atom_site_symmetry_multiplicity
 _atom_site_fract_x
 _atom_site_fract_y
 _atom_site_fract_z
 _atom_site_occupancy
  K  K0  1  0.00000000  0.00000000  0.50000000  1
  As  As0  1  0.33333300  0.66666700  0.78527900  1
  As  As1  1  0.66666700  0.33333300  0.78527900  1
  As  As2  1  0.66666700  0.33333300  0.21472100  1
  As  As3  1  0.33333300  0.66666700  0.21472100  1
  I  I0  1  0.00000000  0.00000000  0.00000000  1
  O  O0  1  0.50000000  0.50000000  0.31908300  1
  O  O1  1  0.00000000  0.50000000  0.68091700  1
  O  O2  1  0.50000000  0.50000000  0.68091700  1
  O  O3  1  0.50000000  0.00000000  0.68091700  1
  O  O4  1  0.00000000  0.50000000  0.31908300  1
  O  O5  1  0.50000000  0.00000000  0.31908300  1
loop_
_geom_bond_atom_site_label_1
_geom_bond_atom_site_label_2
_geom_bond_distance
_geom_bond_site_symmetry_2
K0 O0 3.191374 1_555
K0 O0 3.191374 1_445
K0 O2 3.191374 1_555
K0 O2 3.191374 1_445
K0 O3 3.191374 1_555
K0 O3 3.191374 1_455
K0 O1 3.191374 1_555
K0 O4 3.191374 1_555
K0 O5 3.191374 1_455
K0 O5 3.191374 1_555
K0 O4 3.191374 1_545
K0 O1 3.191374 1_545
As0 O1 1.842070 1_555
As0 O3 1.842070 1_565
As0 O2 1.842074 1_555
As1 O3 1.842070 1_555
As1 O1 1.842070 1_655
As1 O2 1.842074 1_555
As2 O5 1.842070 1_555
As2 O4 1.842070 1_655
As2 O0 1.842074 1_555
As3 O4 1.842070 1_555
As3 O5 1.842070 1_565
As3 O0 1.842074 1_555
