# generated using pymatgen
data_HgHClO4
_symmetry_space_group_name_H-M   'P 1'
_cell_length_a   4.77626900
_cell_length_b   7.38510100
_cell_length_c   11.69828700
_cell_angle_alpha   90.00000000
_cell_angle_beta   90.00000000
_cell_angle_gamma   90.00000000
_symmetry_Int_Tables_number   1
_chemical_formula_structural   HgHClO4
_chemical_formula_sum   'Hg4 H4 Cl4 O16'
_cell_volume   412.63635589
_cell_formula_units_Z   4
loop_
 _symmetry_equiv_pos_site_id
 _symmetry_equiv_pos_as_xyz
  1  'x, y, z'
loop_
 _atom_site_type_symbol
 _atom_site_label
 _atom_site_symmetry_multiplicity
 _atom_site_fract_x
 _atom_site_fract_y
 _atom_site_fract_z
 _atom_site_occupancy
  Hg  Hg0  1  0.43809600  0.50000000  0.25000000  1
  Hg  Hg1  1  0.56190400  0.00000000  0.75000000  1
  Hg  Hg2  1  0.56190400  0.50000000  0.75000000  1
  Hg  Hg3  1  0.43809600  0.00000000  0.25000000  1
  H  H0  1  0.44961900  0.75000000  0.59417200  1
  H  H1  1  0.44961900  0.25000000  0.90582800  1
  H  H2  1  0.55038100  0.25000000  0.40582800  1
  H  H3  1  0.55038100  0.75000000  0.09417200  1
  Cl  Cl0  1  0.99380700  0.75000000  0.93818200  1
  Cl  Cl1  1  0.99380700  0.25000000  0.56181800  1
  Cl  Cl2  1  0.00619300  0.25000000  0.06181800  1
  Cl  Cl3  1  0.00619300  0.75000000  0.43818200  1
  O  O0  1  0.42546700  0.75000000  0.16282100  1
  O  O1  1  0.42546700  0.25000000  0.33717900  1
  O  O2  1  0.57453300  0.25000000  0.83717900  1
  O  O3  1  0.57453300  0.75000000  0.66282100  1
  O  O4  1  0.94496700  0.41494100  0.13305300  1
  O  O5  1  0.94496700  0.58505900  0.36694700  1
  O  O6  1  0.05503300  0.91494100  0.86694700  1
  O  O7  1  0.05503300  0.08505900  0.63305300  1
  O  O8  1  0.32268400  0.75000000  0.45526100  1
  O  O9  1  0.32268400  0.25000000  0.04473900  1
  O  O10  1  0.67731600  0.25000000  0.54473900  1
  O  O11  1  0.67731600  0.75000000  0.95526100  1
  O  O12  1  0.94496700  0.91494100  0.36694700  1
  O  O13  1  0.94496700  0.08505900  0.13305300  1
  O  O14  1  0.05503300  0.41494100  0.63305300  1
  O  O15  1  0.05503300  0.58505900  0.86694700  1
loop_
_geom_bond_atom_site_label_1
_geom_bond_atom_site_label_2
_geom_bond_distance
_geom_bond_site_symmetry_2
Hg0 O0 2.110084 1_555
Hg0 O1 2.110084 1_555
Hg1 O2 2.110084 1_555
Hg1 O3 2.110084 1_545
Hg2 O2 2.110084 1_555
Hg2 O3 2.110084 1_555
Hg3 O1 2.110084 1_555
Hg3 O0 2.110084 1_545
H0 O3 1.000445 1_555
H0 O8 1.734434 1_555
H1 O2 1.000445 1_555
H1 O9 1.734434 1_556
H2 O1 1.000445 1_555
H2 O10 1.734434 1_555
H3 O0 1.000445 1_555
H3 O11 1.734434 1_554
Cl0 O15 1.504571 1_655
Cl0 O6 1.504571 1_655
Cl0 O11 1.524792 1_555
Cl1 O7 1.504571 1_655
Cl1 O14 1.504571 1_655
Cl1 O10 1.524792 1_555
Cl2 O13 1.504571 1_455
Cl2 O4 1.504571 1_455
Cl2 O9 1.524792 1_555
Cl3 O5 1.504571 1_455
Cl3 O12 1.504571 1_455
Cl3 O8 1.524792 1_555
