# generated using pymatgen
data_TlF3
_symmetry_space_group_name_H-M   'P 1'
_cell_length_a   4.80009224
_cell_length_b   5.93318984
_cell_length_c   7.00645621
_cell_angle_alpha   90.00000000
_cell_angle_beta   90.00000000
_cell_angle_gamma   90.00000000
_symmetry_Int_Tables_number   1
_chemical_formula_structural   TlF3
_chemical_formula_sum   'Tl4 F12'
_cell_volume   199.54288151
_cell_formula_units_Z   4
loop_
 _symmetry_equiv_pos_site_id
 _symmetry_equiv_pos_as_xyz
  1  'x, y, z'
loop_
 _atom_site_type_symbol
 _atom_site_label
 _atom_site_symmetry_multiplicity
 _atom_site_fract_x
 _atom_site_fract_y
 _atom_site_fract_z
 _atom_site_occupancy
  Tl  Tl0  1  0.95978001  0.62979863  0.75000000  1
  Tl  Tl1  1  0.45978001  0.87020137  0.25000000  1
  Tl  Tl2  1  0.54021999  0.12979863  0.75000000  1
  Tl  Tl3  1  0.04021999  0.37020137  0.25000000  1
  F  F0  1  0.34243532  0.16358579  0.43325360  1
  F  F1  1  0.84243532  0.33641421  0.56674640  1
  F  F2  1  0.15756468  0.66358579  0.06674640  1
  F  F3  1  0.65756468  0.83641421  0.93325360  1
  F  F4  1  0.62788619  0.53374192  0.25000000  1
  F  F5  1  0.12788619  0.96625808  0.75000000  1
  F  F6  1  0.87211381  0.03374192  0.25000000  1
  F  F7  1  0.37211381  0.46625808  0.75000000  1
  F  F8  1  0.34243532  0.16358579  0.06674640  1
  F  F9  1  0.84243532  0.33641421  0.93325360  1
  F  F10  1  0.15756468  0.66358579  0.43325360  1
  F  F11  1  0.65756468  0.83641421  0.56674640  1
loop_
_geom_bond_atom_site_label_1
_geom_bond_atom_site_label_2
_geom_bond_distance
_geom_bond_site_symmetry_2
F0 Tl1 2.235145 1_545
F0 Tl3 2.292547 1_555
F0 Tl2 2.422122 1_555
F1 Tl0 2.235145 1_555
F1 Tl2 2.292547 1_555
F1 Tl3 2.422122 1_655
F2 Tl3 2.235145 1_555
F2 Tl1 2.292547 1_555
F2 Tl0 2.422122 1_454
F3 Tl2 2.235145 1_565
F3 Tl0 2.292547 1_555
F3 Tl1 2.422122 1_556
F4 Tl1 2.153196 1_555
F4 Tl3 2.204293 1_655
F5 Tl0 2.153196 1_455
F5 Tl2 2.204293 1_565
F6 Tl3 2.153196 1_655
F6 Tl1 2.204293 1_545
F7 Tl2 2.153196 1_555
F7 Tl0 2.204293 1_455
F8 Tl1 2.235145 1_545
F8 Tl3 2.292547 1_555
F8 Tl2 2.422122 1_554
F9 Tl0 2.235145 1_555
F9 Tl2 2.292547 1_555
F9 Tl3 2.422122 1_656
F10 Tl3 2.235145 1_555
F10 Tl1 2.292547 1_555
F10 Tl0 2.422122 1_455
F11 Tl2 2.235145 1_565
F11 Tl0 2.292547 1_555
F11 Tl1 2.422122 1_555
