# generated using pymatgen
data_Ba2Mg(WO4)2
_symmetry_space_group_name_H-M   'P 1'
_cell_length_a   4.10822690
_cell_length_b   6.03246909
_cell_length_c   8.78188790
_cell_angle_alpha   92.52760170
_cell_angle_beta   103.52150347
_cell_angle_gamma   90.00349207
_symmetry_Int_Tables_number   1
_chemical_formula_structural   Ba2Mg(WO4)2
_chemical_formula_sum   'Ba2 Mg1 W2 O8'
_cell_volume   211.38894529
_cell_formula_units_Z   1
loop_
 _symmetry_equiv_pos_site_id
 _symmetry_equiv_pos_as_xyz
  1  'x, y, z'
loop_
 _atom_site_type_symbol
 _atom_site_label
 _atom_site_symmetry_multiplicity
 _atom_site_fract_x
 _atom_site_fract_y
 _atom_site_fract_z
 _atom_site_occupancy
  Ba  Ba0  1  0.19674400  0.49264300  0.39407400  1
  Ba  Ba1  1  0.80608100  0.99550400  0.61257300  1
  Mg  Mg0  1  0.00111400  0.24197600  0.00311600  1
  W  W0  1  0.41388100  0.51267400  0.82817000  1
  W  W1  1  0.58862200  0.97270400  0.17822200  1
  O  O0  1  0.50181100  0.74085800  0.00422700  1
  O  O1  1  0.66804100  0.20541800  0.33676900  1
  O  O2  1  0.07643700  0.00396200  0.15371700  1
  O  O3  1  0.92597800  0.48012700  0.85242700  1
  O  O4  1  0.67061600  0.75550300  0.34205600  1
  O  O5  1  0.33377900  0.28215000  0.66795900  1
  O  O6  1  0.33286000  0.73238700  0.66615700  1
  O  O7  1  0.50070300  0.24074300  0.00219800  1
loop_
_geom_bond_atom_site_label_1
_geom_bond_atom_site_label_2
_geom_bond_distance
_geom_bond_site_symmetry_2
Ba0 O4 2.644317 1_555
Ba0 O4 2.645293 1_455
Ba0 O6 2.680275 1_555
Ba0 O5 2.711218 1_555
Ba0 O1 2.717244 1_555
Ba0 O1 2.717469 1_455
Ba1 O6 2.648320 1_555
Ba1 O6 2.648455 1_655
Ba1 O4 2.669802 1_555
Ba1 O5 2.712698 1_665
Ba1 O5 2.712758 1_565
Ba1 O1 2.723948 1_565
Mg0 O2 1.970443 1_555
Mg0 O3 1.971585 1_454
Mg0 O7 2.053944 1_455
Mg0 O7 2.054337 1_555
O0 W0 1.991682 1_554
O0 W1 1.993665 1_555
O1 W1 1.905505 1_545
O2 W1 2.073955 1_545
O2 W1 2.074441 1_445
O3 W0 2.074637 1_555
O3 W0 2.074830 1_655
O4 W1 1.959593 1_555
O5 W0 1.905920 1_555
O6 W0 1.958759 1_555
O7 W1 2.256979 1_545
O7 W0 2.262776 1_554
