# generated using pymatgen
data_Sr2MgTiFeO6
_symmetry_space_group_name_H-M   'P 1'
_cell_length_a   5.66911690
_cell_length_b   6.14832484
_cell_length_c   6.14832420
_cell_angle_alpha   54.68179210
_cell_angle_beta   62.54645213
_cell_angle_gamma   62.54644057
_symmetry_Int_Tables_number   1
_chemical_formula_structural   Sr2MgTiFeO6
_chemical_formula_sum   'Sr2 Mg1 Ti1 Fe1 O6'
_cell_volume   149.46639768
_cell_formula_units_Z   1
loop_
 _symmetry_equiv_pos_site_id
 _symmetry_equiv_pos_as_xyz
  1  'x, y, z'
loop_
 _atom_site_type_symbol
 _atom_site_label
 _atom_site_symmetry_multiplicity
 _atom_site_fract_x
 _atom_site_fract_y
 _atom_site_fract_z
 _atom_site_occupancy
  Sr  Sr0  1  0.31757800  0.18242200  0.18242200  1
  Sr  Sr1  1  0.68242200  0.81757800  0.81757800  1
  Mg  Mg0  1  0.00000000  0.50000000  0.50000000  1
  Ti  Ti0  1  0.50000000  0.50000000  0.50000000  1
  Fe  Fe0  1  0.00000000  0.00000000  0.00000000  1
  O  O0  1  0.71756800  0.28243200  0.28243200  1
  O  O1  1  0.74730500  0.25561500  0.74438500  1
  O  O2  1  0.74730300  0.74438600  0.25561400  1
  O  O3  1  0.28243200  0.71756800  0.71756800  1
  O  O4  1  0.25269500  0.74438500  0.25561500  1
  O  O5  1  0.25269700  0.25561400  0.74438600  1
loop_
_geom_bond_atom_site_label_1
_geom_bond_atom_site_label_2
_geom_bond_distance
_geom_bond_site_symmetry_2
Mg0 O4 1.989265 1_555
Mg0 O1 1.989265 1_455
Mg0 O2 1.989277 1_455
Mg0 O5 1.989277 1_555
Mg0 Sr0 2.965110 1_555
Mg0 Sr1 2.965110 1_455
Fe0 O4 2.033782 1_545
Fe0 O1 2.033782 1_454
Fe0 O2 2.033787 1_445
Fe0 O5 2.033787 1_554
Fe0 O0 2.636964 1_455
Fe0 O3 2.636964 1_544
O0 Ti0 2.031353 1_555
O0 Sr1 2.842828 1_545
O0 Sr1 2.842828 1_554
O0 Sr0 2.984397 1_555
O0 Sr0 2.984397 1_655
O1 Ti0 1.967374 1_555
O1 Sr1 2.636394 1_545
O1 Sr0 2.636394 1_556
O2 Ti0 1.967370 1_555
O2 Sr1 2.636385 1_554
O2 Sr0 2.636385 1_565
O3 Ti0 2.031353 1_555
O3 Sr0 2.842828 1_556
O3 Sr0 2.842828 1_565
O3 Sr1 2.984397 1_455
O3 Sr1 2.984397 1_555
O4 Ti0 1.967374 1_555
O4 Sr1 2.636394 1_554
O4 Sr0 2.636394 1_565
O5 Ti0 1.967370 1_555
O5 Sr1 2.636385 1_545
O5 Sr0 2.636385 1_556
