# generated using pymatgen
data_Ti4Cu2O
_symmetry_space_group_name_H-M   'P 1'
_cell_length_a   8.05892305
_cell_length_b   8.05966958
_cell_length_c   8.05871996
_cell_angle_alpha   60.01332611
_cell_angle_beta   60.01043205
_cell_angle_gamma   60.01411995
_symmetry_Int_Tables_number   1
_chemical_formula_structural   Ti4Cu2O
_chemical_formula_sum   'Ti16 Cu8 O4'
_cell_volume   370.22829524
_cell_formula_units_Z   4
loop_
 _symmetry_equiv_pos_site_id
 _symmetry_equiv_pos_as_xyz
  1  'x, y, z'
loop_
 _atom_site_type_symbol
 _atom_site_label
 _atom_site_symmetry_multiplicity
 _atom_site_fract_x
 _atom_site_fract_y
 _atom_site_fract_z
 _atom_site_occupancy
  Ti  Ti0  1  0.81634199  0.18368277  0.81633047  1
  Ti  Ti1  1  0.18364710  0.81633440  0.18364856  1
  Ti  Ti2  1  0.43364032  0.06633640  0.43365218  1
  Ti  Ti3  1  0.43365294  0.06635090  0.06636656  1
  Ti  Ti4  1  0.06633414  0.43366288  0.43365449  1
  Ti  Ti5  1  0.06634930  0.43367478  0.06634436  1
  Ti  Ti6  1  0.18364930  0.18365373  0.81632627  1
  Ti  Ti7  1  0.43364606  0.43366605  0.06633422  1
  Ti  Ti8  1  0.12500967  0.62499222  0.62500172  1
  Ti  Ti9  1  0.62500174  0.62499233  0.12501058  1
  Ti  Ti10  1  0.62500245  0.62499121  0.62499985  1
  Ti  Ti11  1  0.62500447  0.12499584  0.62500326  1
  Ti  Ti12  1  0.18367685  0.81634475  0.81633402  1
  Ti  Ti13  1  0.81633258  0.18365210  0.18364818  1
  Ti  Ti14  1  0.06636615  0.06634484  0.43366222  1
  Ti  Ti15  1  0.81633997  0.81633934  0.18367696  1
  Cu  Cu0  1  0.41577408  0.75260303  0.41587003  1
  Cu  Cu1  1  0.83415925  0.83417675  0.49746131  1
  Cu  Cu2  1  0.83420876  0.83422843  0.83411990  1
  Cu  Cu3  1  0.49743287  0.83421873  0.83410765  1
  Cu  Cu4  1  0.41578403  0.41578294  0.41587901  1
  Cu  Cu5  1  0.41582216  0.41580992  0.75256798  1
  Cu  Cu6  1  0.83422597  0.49738110  0.83413160  1
  Cu  Cu7  1  0.75260730  0.41576400  0.41587244  1
  O  O0  1  0.12500465  0.12500770  0.62498751  1
  O  O1  1  0.62498352  0.12500888  0.12500686  1
  O  O2  1  0.12500140  0.12500605  0.12499969  1
  O  O3  1  0.12500099  0.62499793  0.12500215  1
loop_
_geom_bond_atom_site_label_1
_geom_bond_atom_site_label_2
_geom_bond_distance
_geom_bond_site_symmetry_2
Cu0 Ti10 2.473036 1_555
Cu0 Ti8 2.473338 1_555
Cu0 Ti9 2.473934 1_555
Cu0 Ti2 2.679882 1_565
Cu0 Ti14 2.680522 1_565
Cu0 Ti3 2.680897 1_565
Cu0 Cu5 2.714445 1_555
Cu0 Cu4 2.714582 1_555
Cu0 Cu7 2.715242 1_555
Cu0 Ti12 2.973182 1_555
Cu0 Ti1 2.973866 1_555
Cu0 Ti15 2.973928 1_555
Cu1 Ti10 2.473180 1_555
Cu1 Ti11 2.473573 1_565
Cu1 Ti8 2.473668 1_655
Cu1 Ti15 2.680048 1_555
Cu1 Ti1 2.680860 1_655
Cu1 Ti13 2.681072 1_565
Cu1 Cu2 2.713445 1_555
Cu1 Cu3 2.713723 1_555
Cu1 Cu6 2.714343 1_555
Cu1 Ti14 2.973934 1_665
Cu1 Ti2 2.973959 1_565
Cu1 Ti4 2.974134 1_655
Cu2 Ti11 2.473383 1_565
Cu2 Ti8 2.473511 1_655
Cu2 Ti9 2.474070 1_556
Cu2 Ti12 2.680376 1_655
Cu2 Ti0 2.680586 1_565
Cu2 Ti15 2.680700 1_556
Cu2 Cu3 2.714139 1_555
Cu2 Cu6 2.714762 1_555
Cu2 Ti14 2.973663 1_665
Cu2 Ti3 2.974389 1_566
Cu2 Ti5 2.974575 1_656
Cu3 Ti10 2.473048 1_555
Cu3 Ti11 2.473412 1_565
Cu3 Ti9 2.474094 1_556
Cu3 Ti12 2.679840 1_555
Cu3 Ti6 2.680845 1_565
Cu3 Ti1 2.680985 1_556
Cu3 Cu6 2.715074 1_555
Cu3 Ti2 2.973381 1_565
Cu3 Ti3 2.974087 1_566
Cu3 Ti7 2.974312 1_556
Cu4 Ti8 2.473355 1_555
Cu4 Ti11 2.473530 1_555
Cu4 Ti9 2.473951 1_555
Cu4 Ti4 2.680280 1_555
Cu4 Ti2 2.680619 1_555
Cu4 Ti7 2.680647 1_555
Cu4 Cu5 2.713544 1_555
Cu4 Cu7 2.714330 1_555
Cu4 Ti6 2.973593 1_555
Cu4 Ti13 2.974338 1_555
Cu4 Ti1 2.974574 1_555
Cu5 Ti10 2.473243 1_555
Cu5 Ti8 2.473534 1_555
Cu5 Ti11 2.473641 1_555
Cu5 Ti7 2.680006 1_556
Cu5 Ti5 2.680663 1_556
Cu5 Ti3 2.680947 1_556
Cu5 Cu7 2.714158 1_555
Cu5 Ti6 2.973766 1_555
Cu5 Ti0 2.973814 1_555
Cu5 Ti12 2.974147 1_555
Cu6 Ti10 2.473021 1_555
Cu6 Ti8 2.473466 1_655
Cu6 Ti9 2.474064 1_556
Cu6 Ti0 2.679764 1_555
Cu6 Ti6 2.680539 1_655
Cu6 Ti13 2.680887 1_556
Cu6 Ti4 2.973197 1_655
Cu6 Ti5 2.973873 1_656
Cu6 Ti7 2.973956 1_556
Cu7 Ti10 2.473100 1_555
Cu7 Ti11 2.473491 1_555
Cu7 Ti9 2.473987 1_555
Cu7 Ti4 2.679754 1_655
Cu7 Ti14 2.680686 1_655
Cu7 Ti5 2.680771 1_655
Cu7 Ti0 2.973212 1_555
Cu7 Ti13 2.973908 1_555
Cu7 Ti15 2.974293 1_555
O0 Ti14 2.122388 1_555
O0 Ti6 2.122431 1_555
O0 Ti2 2.122936 1_555
O0 Ti0 2.123103 1_455
O0 Ti4 2.123295 1_555
O0 Ti12 2.123366 1_545
O1 Ti3 2.122437 1_555
O1 Ti13 2.122501 1_555
O1 Ti2 2.122961 1_555
O1 Ti0 2.123167 1_554
O1 Ti7 2.123340 1_555
O1 Ti15 2.123448 1_545
O2 Ti14 2.122931 1_555
O2 Ti3 2.122934 1_555
O2 Ti6 2.123016 1_554
O2 Ti13 2.123053 1_455
O2 Ti5 2.123285 1_555
O2 Ti1 2.123333 1_545
O3 Ti5 2.122538 1_555
O3 Ti1 2.122544 1_555
O3 Ti4 2.123075 1_555
O3 Ti7 2.123097 1_555
O3 Ti12 2.123187 1_554
O3 Ti15 2.123206 1_455
