# generated using pymatgen
data_CeSnIr
_symmetry_space_group_name_H-M   'P 1'
_cell_length_a   7.46741274
_cell_length_b   7.46744905
_cell_length_c   4.07541885
_cell_angle_alpha   90.00000000
_cell_angle_beta   90.00000000
_cell_angle_gamma   119.99963847
_symmetry_Int_Tables_number   1
_chemical_formula_structural   CeSnIr
_chemical_formula_sum   'Ce3 Sn3 Ir3'
_cell_volume   196.80987615
_cell_formula_units_Z   3
loop_
 _symmetry_equiv_pos_site_id
 _symmetry_equiv_pos_as_xyz
  1  'x, y, z'
loop_
 _atom_site_type_symbol
 _atom_site_label
 _atom_site_symmetry_multiplicity
 _atom_site_fract_x
 _atom_site_fract_y
 _atom_site_fract_z
 _atom_site_occupancy
  Ce  Ce0  1  0.41252384  0.41251380  -0.00000000  1
  Ce  Ce1  1  0.58747917  0.00000801  -0.00000000  1
  Ce  Ce2  1  0.99999602  0.58747852  -0.00000000  1
  Sn  Sn0  1  0.00000216  0.25254088  0.50000000  1
  Sn  Sn1  1  0.74746030  0.74746188  0.50000000  1
  Sn  Sn2  1  0.25254175  -0.00000428  0.50000000  1
  Ir  Ir0  1  -0.00000263  0.00000207  0.00000000  1
  Ir  Ir1  1  0.66666011  0.33332244  0.50000000  1
  Ir  Ir2  1  0.33334029  0.66667567  0.50000000  1
loop_
_geom_bond_atom_site_label_1
_geom_bond_atom_site_label_2
_geom_bond_distance
_geom_bond_site_symmetry_2
Ce0 Ir1 3.037369 1_555
Ce0 Ir1 3.037369 1_554
Ce0 Ir2 3.037483 1_554
Ce0 Ir2 3.037483 1_555
Ce0 Ir0 3.080475 1_555
Ce0 Sn1 3.226162 1_555
Ce0 Sn1 3.226162 1_554
Ce0 Sn2 3.374706 1_555
Ce0 Sn2 3.374706 1_554
Ce0 Sn0 3.374721 1_555
Ce0 Sn0 3.374721 1_554
Ce1 Ir1 3.037327 1_555
Ce1 Ir1 3.037327 1_554
Ce1 Ir2 3.037407 1_545
Ce1 Ir2 3.037407 1_544
Ce1 Ir0 3.080466 1_655
Ce1 Sn2 3.226083 1_555
Ce1 Sn2 3.226083 1_554
Ce1 Sn0 3.374720 1_655
Ce1 Sn0 3.374720 1_654
Ce1 Sn1 3.374743 1_544
Ce1 Sn1 3.374743 1_545
Ce2 Ir1 3.037444 1_555
Ce2 Ir1 3.037444 1_554
Ce2 Ir2 3.037452 1_654
Ce2 Ir2 3.037452 1_655
Ce2 Ir0 3.080494 1_665
Ce2 Sn0 3.226147 1_655
Ce2 Sn0 3.226147 1_654
Ce2 Sn1 3.374693 1_554
Ce2 Sn1 3.374693 1_555
Ce2 Sn2 3.374711 1_665
Ce2 Sn2 3.374711 1_664
Sn0 Sn1 3.266358 1_445
Sn0 Sn2 3.266369 1_555
Sn1 Sn2 3.266358 1_665
Ir0 Sn0 2.776421 1_554
Ir0 Sn0 2.776421 1_555
Ir0 Sn1 2.776436 1_444
Ir0 Sn1 2.776436 1_445
Ir0 Sn2 2.776471 1_555
Ir0 Sn2 2.776471 1_554
Ir1 Sn2 2.839247 1_555
Ir1 Sn0 2.839290 1_655
Ir1 Sn1 2.839380 1_555
Ir2 Sn2 2.839221 1_565
Ir2 Sn1 2.839256 1_555
Ir2 Sn0 2.839361 1_555
