# generated using pymatgen
data_MgCr2(CoO3)4
_symmetry_space_group_name_H-M   'P 1'
_cell_length_a   5.01263351
_cell_length_b   5.01506042
_cell_length_c   9.99889718
_cell_angle_alpha   93.43546770
_cell_angle_beta   94.10171896
_cell_angle_gamma   120.03931355
_symmetry_Int_Tables_number   1
_chemical_formula_structural   MgCr2(CoO3)4
_chemical_formula_sum   'Mg1 Cr2 Co4 O12'
_cell_volume   215.70152684
_cell_formula_units_Z   1
loop_
 _symmetry_equiv_pos_site_id
 _symmetry_equiv_pos_as_xyz
  1  'x, y, z'
loop_
 _atom_site_type_symbol
 _atom_site_label
 _atom_site_symmetry_multiplicity
 _atom_site_fract_x
 _atom_site_fract_y
 _atom_site_fract_z
 _atom_site_occupancy
  Mg  Mg0  1  0.74637123  0.42359922  0.25022928  1
  Cr  Cr0  1  0.01689483  0.01804253  0.00734958  1
  Cr  Cr1  1  0.47894324  0.49298081  0.50376128  1
  Co  Co0  1  0.14792204  0.82644563  0.50021842  1
  Co  Co1  1  0.34747878  0.68124541  0.00831988  1
  Co  Co2  1  0.67991418  0.33800458  0.97696334  1
  Co  Co3  1  0.81367546  0.15727384  0.50067115  1
  O  O0  1  0.02495582  0.68348705  0.10323707  1
  O  O1  1  0.01343880  0.34116747  0.90308750  1
  O  O2  1  0.09873937  0.46467775  0.39608579  1
  O  O3  1  0.50348519  0.86448327  0.59428691  1
  O  O4  1  0.15483848  0.16658324  0.59428641  1
  O  O5  1  0.39015301  0.38886852  0.11074622  1
  O  O6  1  0.63067302  0.65591652  0.90629111  1
  O  O7  1  0.31621122  0.97760988  0.90506125  1
  O  O8  1  0.79803746  0.79406562  0.39606418  1
  O  O9  1  0.46958526  0.13755037  0.39625288  1
  O  O10  1  0.85626521  0.51637923  0.59567230  1
  O  O11  1  0.69297339  0.05773007  0.10141545  1
loop_
_geom_bond_atom_site_label_1
_geom_bond_atom_site_label_2
_geom_bond_distance
_geom_bond_site_symmetry_2
Mg0 O5 2.113541 1_555
Mg0 O0 2.123664 1_655
Mg0 O2 2.126112 1_655
Mg0 O9 2.159359 1_555
Mg0 O11 2.185523 1_555
Mg0 O8 2.187410 1_555
Cr0 O7 1.958960 1_544
Cr0 O1 1.985221 1_554
Cr0 O0 1.997765 1_545
Cr0 O5 2.009287 1_555
Cr0 O6 2.011811 1_444
Cr0 O11 2.019963 1_455
Cr1 O3 1.964204 1_555
Cr1 O4 1.965597 1_555
Cr1 O10 1.987930 1_555
Cr1 O9 2.003623 1_555
Cr1 O8 2.005297 1_555
Cr1 O2 2.056397 1_555
Co0 O3 1.869755 1_555
Co0 O4 1.881359 1_565
Co0 O10 1.888848 1_455
Co0 O8 1.902684 1_455
Co0 O2 1.930182 1_555
Co0 O9 2.007533 1_565
Co1 O6 1.855852 1_554
Co1 O1 1.869049 1_554
Co1 O7 1.921874 1_554
Co1 O5 1.925436 1_555
Co1 O11 1.927598 1_565
Co1 O0 1.936738 1_555
Co2 O7 1.861468 1_545
Co2 O1 1.868810 1_655
Co2 O6 1.899022 1_555
Co2 O11 1.954115 1_556
Co2 O0 2.003173 1_656
Co2 O5 2.138250 1_556
Co3 O4 1.867813 1_655
Co3 O3 1.880696 1_545
Co3 O10 1.890052 1_555
Co3 O9 1.906302 1_555
Co3 O2 1.927053 1_655
Co3 O8 2.008743 1_545
