# generated using pymatgen
data_Na2Nb2Ga2Si3(SO8)3
_symmetry_space_group_name_H-M   'P 1'
_cell_length_a   8.72838328
_cell_length_b   8.74707548
_cell_length_c   22.68763092
_cell_angle_alpha   89.47580435
_cell_angle_beta   90.72635476
_cell_angle_gamma   119.60798848
_symmetry_Int_Tables_number   1
_chemical_formula_structural   Na2Nb2Ga2Si3(SO8)3
_chemical_formula_sum   'Na6 Nb6 Ga6 Si9 S9 O72'
_cell_volume   1505.84818459
_cell_formula_units_Z   3
loop_
 _symmetry_equiv_pos_site_id
 _symmetry_equiv_pos_as_xyz
  1  'x, y, z'
loop_
 _atom_site_type_symbol
 _atom_site_label
 _atom_site_symmetry_multiplicity
 _atom_site_fract_x
 _atom_site_fract_y
 _atom_site_fract_z
 _atom_site_occupancy
  Na  Na0  1  0.98783631  0.98610184  0.49111131  1
  Na  Na1  1  0.00593000  0.99156486  0.99665474  1
  Na  Na2  1  0.65385212  0.32024323  0.82494245  1
  Na  Na3  1  0.66985986  0.32165420  0.32767876  1
  Na  Na4  1  0.31938054  0.66143099  0.16758435  1
  Na  Na5  1  0.34244994  0.66237649  0.65866561  1
  Nb  Nb0  1  0.98872484  0.00190306  0.64421490  1
  Nb  Nb1  1  0.00678123  0.99587746  0.14946465  1
  Nb  Nb2  1  0.66568807  0.33484851  0.97848907  1
  Nb  Nb3  1  0.67776869  0.34580473  0.47380830  1
  Nb  Nb4  1  0.31950670  0.67623158  0.31144516  1
  Nb  Nb5  1  0.34783477  0.68305266  0.80708192  1
  Ga  Ga0  1  0.00376610  0.00432445  0.35435328  1
  Ga  Ga1  1  0.02004993  0.01567757  0.84780739  1
  Ga  Ga2  1  0.64111852  0.32570556  0.68729213  1
  Ga  Ga3  1  0.68797321  0.33546170  0.19202158  1
  Ga  Ga4  1  0.30727914  0.67445588  0.02019843  1
  Ga  Ga5  1  0.35788255  0.68445429  0.51457196  1
  Si  Si0  1  0.30263459  0.02028003  0.25335327  1
  Si  Si1  1  0.00134553  0.28518081  0.25331338  1
  Si  Si2  1  0.29210419  0.28615013  0.75087794  1
  Si  Si3  1  0.72857116  0.02191031  0.75262027  1
  Si  Si4  1  0.65253125  0.61314676  0.58468264  1
  Si  Si5  1  0.95561190  0.61893430  0.08648152  1
  Si  Si6  1  0.31825976  0.95329129  0.91650041  1
  Si  Si7  1  0.63239780  0.95338221  0.41690675  1
  Si  Si8  1  0.05904682  0.68487908  0.42081742  1
  S  S0  1  0.71035636  0.70718530  0.25088419  1
  S  S1  1  0.99378526  0.70932377  0.75089862  1
  S  S2  1  0.95663611  0.34114316  0.58449905  1
  S  S3  1  0.37818781  0.04145231  0.58413118  1
  S  S4  1  0.66107134  0.03809998  0.08332657  1
  S  S5  1  0.37910760  0.34099920  0.08285904  1
  S  S6  1  0.62046285  0.67193324  0.91904910  1
  S  S7  1  0.04798766  0.37740005  0.91809868  1
  S  S8  1  0.32824578  0.37800902  0.41778173  1
  O  O0  1  0.20347481  0.03400249  0.30909705  1
  O  O1  1  0.81723298  0.78394169  0.30314323  1
  O  O2  1  0.96882976  0.16207200  0.30866322  1
  O  O3  1  0.21432178  0.17384637  0.80973506  1
  O  O4  1  0.96920031  0.78690101  0.80457427  1
  O  O5  1  0.83253722  0.02711324  0.81203433  1
  O  O6  1  0.80356454  0.96962318  0.69345296  1
  O  O7  1  0.16538343  0.19248170  0.69244984  1
  O  O8  1  0.02995341  0.82110336  0.69754836  1
  O  O9  1  0.79438591  0.82040554  0.19561746  1
  O  O10  1  0.02325991  0.18867111  0.19160517  1
  O  O11  1  0.17058357  0.96861684  0.19227592  1
  O  O12  1  0.87215499  0.35601298  0.63759665  1
  O  O13  1  0.48425294  0.11786875  0.63840339  1
  O  O14  1  0.64067812  0.50172914  0.64270781  1
  O  O15  1  0.85180870  0.49552874  0.14061695  1
  O  O16  1  0.63059260  0.11523934  0.13528654  1
  O  O17  1  0.48189073  0.36173975  0.13541978  1
  O  O18  1  0.46111149  0.30781452  0.02854348  1
  O  O19  1  0.83227143  0.52144623  0.02591122  1
  O  O20  1  0.68467293  0.15142252  0.02907411  1
  O  O21  1  0.45847963  0.15057394  0.53140912  1
  O  O22  1  0.68811323  0.52184985  0.52652663  1
  O  O23  1  0.84576886  0.30574483  0.53026665  1
  O  O24  1  0.53356139  0.68670401  0.97182985  1
  O  O25  1  0.15411628  0.45606885  0.97220361  1
  O  O26  1  0.30169056  0.84090745  0.97471633  1
  O  O27  1  0.55168454  0.84141643  0.47581048  1
  O  O28  1  0.30652491  0.45718669  0.47166094  1
  O  O29  1  0.16734312  0.69098677  0.47904245  1
  O  O30  1  0.13150420  0.63429405  0.36002019  1
  O  O31  1  0.49951230  0.85802708  0.35918877  1
  O  O32  1  0.36275536  0.48655913  0.36414749  1
  O  O33  1  0.12393995  0.48521698  0.86517326  1
  O  O34  1  0.35670402  0.85960548  0.85948166  1
  O  O35  1  0.51054310  0.63756862  0.86425308  1
  O  O36  1  0.02811826  0.84710465  0.40990066  1
  O  O37  1  0.82745479  0.98663236  0.40856014  1
  O  O38  1  0.17779822  0.20150372  0.41308849  1
  O  O39  1  0.01873459  0.19763389  0.91396245  1
  O  O40  1  0.14393672  0.97229514  0.90891782  1
  O  O41  1  0.79617511  0.82237562  0.91239152  1
  O  O42  1  0.97185054  0.17330586  0.58779724  1
  O  O43  1  0.19985850  0.02811672  0.59012996  1
  O  O44  1  0.83752062  0.81092692  0.59181907  1
  O  O45  1  0.97075994  0.81550519  0.08815176  1
  O  O46  1  0.82670846  0.02931743  0.08589337  1
  O  O47  1  0.19989136  0.17863872  0.08536675  1
  O  O48  1  0.70029266  0.18594633  0.73970101  1
  O  O49  1  0.48886918  0.31951223  0.74503575  1
  O  O50  1  0.84585206  0.53207306  0.74399929  1
  O  O51  1  0.68969137  0.53217261  0.24177502  1
  O  O52  1  0.83466526  0.31559522  0.24615160  1
  O  O53  1  0.48825524  0.18780625  0.23727189  1
  O  O54  1  0.63554294  0.50512733  0.92333500  1
  O  O55  1  0.86613574  0.36216968  0.92422984  1
  O  O56  1  0.50084114  0.14976765  0.92536565  1
  O  O57  1  0.63647537  0.14578487  0.42633204  1
  O  O58  1  0.49241687  0.35898671  0.42317480  1
  O  O59  1  0.86002989  0.50039747  0.42487199  1
  O  O60  1  0.36277341  0.49903374  0.07192049  1
  O  O61  1  0.14925695  0.63627639  0.07983997  1
  O  O62  1  0.51000498  0.85935298  0.07463831  1
  O  O63  1  0.35282249  0.86265148  0.57974001  1
  O  O64  1  0.48146351  0.63836428  0.57663188  1
  O  O65  1  0.13298282  0.49065248  0.57813652  1
  O  O66  1  0.31510128  0.83586719  0.25406250  1
  O  O67  1  0.53510347  0.69467764  0.25293120  1
  O  O68  1  0.18545199  0.47758219  0.25615379  1
  O  O69  1  0.30221301  0.48101761  0.76030844  1
  O  O70  1  0.15980354  0.69408393  0.75665247  1
  O  O71  1  0.52871844  0.83758382  0.75780626  1
loop_
_geom_bond_atom_site_label_1
_geom_bond_atom_site_label_2
_geom_bond_distance
_geom_bond_site_symmetry_2
Na0 O37 2.325332 1_555
Na0 O36 2.340165 1_655
Na0 O38 2.521715 1_665
Na0 O44 2.704642 1_555
Na0 O42 2.794969 1_565
Na0 O43 2.800757 1_665
Na1 O40 2.389399 1_555
Na1 O45 2.503106 1_456
Na1 O41 2.546078 1_455
Na1 O39 2.554526 1_565
Na1 O47 2.613634 1_566
Na1 O46 2.694097 1_466
Na2 O49 2.298967 1_555
Na2 O48 2.411694 1_555
Na2 O50 2.561551 1_555
Na2 O56 2.691709 1_555
Na2 O55 2.807087 1_555
Na2 O54 2.820367 1_555
Na3 O52 2.374419 1_555
Na3 O53 2.493616 1_555
Na3 O51 2.616703 1_555
Na3 O57 2.640375 1_555
Na3 O59 2.732759 1_555
Na3 O58 2.792351 1_555
Na4 O61 2.413817 1_555
Na4 O68 2.476551 1_555
Na4 O66 2.508348 1_555
Na4 O67 2.599241 1_555
Na4 O62 2.718112 1_555
Na4 O60 2.735093 1_555
Na5 O64 2.301409 1_555
Na5 O63 2.464435 1_555
Na5 O65 2.487732 1_555
Na5 O69 2.713071 1_555
Na5 O71 2.749454 1_555
Na5 O70 2.845801 1_555
Nb0 O6 1.878473 1_545
Nb0 O44 1.939970 1_545
Nb0 O7 1.950580 1_655
Nb0 O42 2.021429 1_555
Nb0 O43 2.142198 1_655
Nb0 O8 2.147314 1_645
Nb1 O11 1.828061 1_555
Nb1 O10 1.888114 1_565
Nb1 O45 2.015440 1_455
Nb1 O9 2.024157 1_455
Nb1 O47 2.206465 1_565
Nb1 O46 2.241696 1_465
Nb2 O19 1.892921 1_556
Nb2 O56 1.958011 1_555
Nb2 O20 2.035435 1_556
Nb2 O18 2.040406 1_556
Nb2 O54 2.048964 1_555
Nb2 O55 2.066306 1_555
Nb3 O59 1.866450 1_555
Nb3 O22 1.924449 1_555
Nb3 O57 1.937188 1_555
Nb3 O58 2.021153 1_555
Nb3 O23 2.089411 1_555
Nb3 O21 2.253967 1_555
Nb4 O30 1.866942 1_555
Nb4 O66 1.914331 1_555
Nb4 O31 1.920968 1_555
Nb4 O68 1.988874 1_555
Nb4 O32 2.212652 1_555
Nb4 O67 2.255884 1_555
Nb5 O71 1.864919 1_555
Nb5 O34 1.928044 1_555
Nb5 O69 1.932864 1_555
Nb5 O70 2.029471 1_555
Nb5 O35 2.088008 1_555
Nb5 O33 2.287483 1_555
Ga0 O2 1.858234 1_455
Ga0 O37 1.927135 1_445
Ga0 O0 1.937395 1_555
Ga0 O36 1.942917 1_545
Ga0 O38 2.111824 1_555
Ga0 O1 2.146730 1_445
Ga1 O3 1.797962 1_555
Ga1 O5 1.863880 1_455
Ga1 O40 1.895612 1_545
Ga1 O4 2.076253 1_445
Ga1 O39 2.201859 1_555
Ga1 O41 2.363633 1_445
Ga2 O14 1.836049 1_555
Ga2 O49 1.859264 1_555
Ga2 O48 1.938241 1_555
Ga2 O13 1.987142 1_555
Ga2 O50 2.214446 1_555
Ga2 O12 2.220805 1_555
Ga3 O52 1.831352 1_555
Ga3 O15 1.843748 1_555
Ga3 O53 1.886068 1_555
Ga3 O51 2.060247 1_555
Ga3 O16 2.166571 1_555
Ga3 O17 2.298270 1_555
Ga4 O26 1.796775 1_554
Ga4 O61 1.851697 1_555
Ga4 O25 2.024763 1_554
Ga4 O62 2.103700 1_555
Ga4 O60 2.157114 1_555
Ga4 O24 2.227183 1_554
Ga5 O27 1.800150 1_555
Ga5 O29 1.864941 1_555
Ga5 O64 1.920754 1_555
Ga5 O28 2.060194 1_555
Ga5 O63 2.174706 1_555
Ga5 O65 2.354933 1_555
O0 Si0 1.579918 1_555
O1 S0 1.447193 1_555
O2 Si1 1.580938 1_655
O3 Si2 1.596554 1_555
O4 S1 1.468030 1_555
O5 Si3 1.603701 1_555
O6 Si3 1.664007 1_565
O7 Si2 1.655026 1_555
O8 S1 1.484495 1_455
O9 S0 1.540706 1_555
O10 Si1 1.702125 1_555
O11 Si0 1.705620 1_565
O12 S2 1.460142 1_555
O13 S3 1.481440 1_555
O14 Si4 1.604339 1_555
O15 Si5 1.591267 1_555
O16 S4 1.454514 1_555
O17 S5 1.440754 1_555
O18 S5 1.532748 1_555
O19 Si5 1.688601 1_555
O20 S4 1.523923 1_555
O21 S3 1.473884 1_555
O22 Si4 1.658253 1_555
O23 S2 1.492283 1_555
O24 S6 1.465831 1_555
O25 S7 1.481605 1_555
O26 Si6 1.603849 1_555
O27 Si7 1.599864 1_555
O28 S8 1.470018 1_555
O29 Si8 1.600343 1_555
O30 Si8 1.675752 1_555
O31 Si7 1.667718 1_555
O32 S8 1.475976 1_555
O33 S7 1.467099 1_555
O34 Si6 1.661238 1_555
O35 S6 1.499333 1_555
O36 Si8 1.586875 1_555
O37 Si7 1.592778 1_555
O38 S8 1.454481 1_555
O39 S7 1.466935 1_555
O40 Si6 1.617136 1_555
O41 S6 1.454185 1_555
O42 S2 1.539120 1_555
O43 S3 1.510158 1_555
O44 Si4 1.692495 1_555
O45 Si5 1.658840 1_555
O46 S4 1.485597 1_555
O47 S5 1.507546 1_555
O48 Si3 1.595621 1_555
O49 Si2 1.600674 1_555
O50 S1 1.454893 1_555
O51 S0 1.466542 1_555
O52 Si1 1.609170 1_655
O53 Si0 1.601440 1_555
O54 S6 1.530521 1_555
O55 S7 1.533899 1_655
O56 Si6 1.680954 1_545
O57 Si7 1.681236 1_545
O58 S8 1.525377 1_555
O59 Si8 1.691574 1_655
O60 S5 1.476600 1_555
O61 Si5 1.629482 1_455
O62 S4 1.477829 1_565
O63 S3 1.471438 1_565
O64 Si4 1.621510 1_555
O65 S2 1.453766 1_455
O66 Si0 1.669439 1_565
O67 S0 1.479990 1_555
O68 Si1 1.657051 1_555
O69 Si2 1.678254 1_555
O70 S1 1.523278 1_455
O71 Si3 1.696740 1_565
