# generated using pymatgen
data_Na18Ta4Zn8Si9(SO8)9
_symmetry_space_group_name_H-M   'P 1'
_cell_length_a   9.04813279
_cell_length_b   9.09880374
_cell_length_c   22.43802458
_cell_angle_alpha   90.53675676
_cell_angle_beta   89.36689713
_cell_angle_gamma   119.89818427
_symmetry_Int_Tables_number   1
_chemical_formula_structural   Na18Ta4Zn8Si9(SO8)9
_chemical_formula_sum   'Na18 Ta4 Zn8 Si9 S9 O72'
_cell_volume   1601.29869971
_cell_formula_units_Z   1
loop_
 _symmetry_equiv_pos_site_id
 _symmetry_equiv_pos_as_xyz
  1  'x, y, z'
loop_
 _atom_site_type_symbol
 _atom_site_label
 _atom_site_symmetry_multiplicity
 _atom_site_fract_x
 _atom_site_fract_y
 _atom_site_fract_z
 _atom_site_occupancy
  Na  Na0  1  0.65411938  0.02762839  0.25572678  1
  Na  Na1  1  0.35047984  0.33935317  0.25226519  1
  Na  Na2  1  0.99116012  0.63177334  0.24179669  1
  Na  Na3  1  0.64209177  0.63088331  0.73483644  1
  Na  Na4  1  0.98723323  0.34298580  0.73885332  1
  Na  Na5  1  0.37797828  0.03230406  0.74908248  1
  Na  Na6  1  0.29630988  0.34008709  0.59006572  1
  Na  Na7  1  0.02855980  0.69358809  0.58606837  1
  Na  Na8  1  0.67561258  0.95331180  0.58185069  1
  Na  Na9  1  0.27875044  0.94843341  0.08358477  1
  Na  Na10  1  0.67828929  0.70740310  0.08415706  1
  Na  Na11  1  0.03297331  0.33877237  0.09246910  1
  Na  Na12  1  0.97792294  0.99673767  0.49771941  1
  Na  Na13  1  0.00952718  0.98687170  0.99273820  1
  Na  Na14  1  0.64866676  0.31570700  0.82391729  1
  Na  Na15  1  0.66279612  0.31415121  0.33176389  1
  Na  Na16  1  0.31093871  0.66244282  0.16490608  1
  Na  Na17  1  0.33631663  0.65291849  0.65591402  1
  Ta  Ta0  1  0.66780786  0.33795639  0.97594733  1
  Ta  Ta1  1  0.67608727  0.33056102  0.48142069  1
  Ta  Ta2  1  0.33145218  0.67491029  0.31730086  1
  Ta  Ta3  1  0.34184711  0.67777749  0.81390489  1
  Zn  Zn0  1  0.00209395  0.02337032  0.35083673  1
  Zn  Zn1  1  0.02004555  0.01937365  0.84618879  1
  Zn  Zn2  1  0.98085044  0.02122963  0.64761516  1
  Zn  Zn3  1  0.01899804  0.00168379  0.16070225  1
  Zn  Zn4  1  0.66760896  0.33517820  0.68099855  1
  Zn  Zn5  1  0.68040927  0.32862124  0.18714120  1
  Zn  Zn6  1  0.30592748  0.67525328  0.01155440  1
  Zn  Zn7  1  0.35447449  0.66431808  0.51858150  1
  Si  Si0  1  0.29307117  0.00200892  0.25016500  1
  Si  Si1  1  0.00216249  0.29470620  0.24817710  1
  Si  Si2  1  0.29786382  0.29395879  0.74904635  1
  Si  Si3  1  0.71666233  0.00498705  0.75228145  1
  Si  Si4  1  0.96964151  0.34127311  0.58548582  1
  Si  Si5  1  0.67148696  0.62834768  0.58567776  1
  Si  Si6  1  0.95880363  0.62832201  0.08549892  1
  Si  Si7  1  0.32065739  0.96340797  0.92013899  1
  Si  Si8  1  0.63667250  0.96221111  0.42121736  1
  S  S0  1  0.69965870  0.70489836  0.25059714  1
  S  S1  1  0.00522080  0.70706934  0.75289626  1
  S  S2  1  0.37516310  0.04213875  0.58302276  1
  S  S3  1  0.66593967  0.04173595  0.08097053  1
  S  S4  1  0.37868595  0.33792639  0.08181480  1
  S  S5  1  0.62201957  0.66480629  0.91978731  1
  S  S6  1  0.03860763  0.37216715  0.91950760  1
  S  S7  1  0.33817321  0.37413654  0.41741961  1
  S  S8  1  0.03673847  0.66495407  0.41946283  1
  O  O0  1  0.19739790  0.02895058  0.30572387  1
  O  O1  1  0.80891509  0.78391030  0.30144091  1
  O  O2  1  0.95331678  0.16441462  0.30143144  1
  O  O3  1  0.22383496  0.17279660  0.80588876  1
  O  O4  1  0.98030108  0.78838568  0.80576743  1
  O  O5  1  0.82859647  0.02755354  0.81000395  1
  O  O6  1  0.76464258  0.93911848  0.69135285  1
  O  O7  1  0.18008694  0.22935957  0.68915327  1
  O  O8  1  0.04696256  0.80650271  0.69797708  1
  O  O9  1  0.76316307  0.80580960  0.19450485  1
  O  O10  1  0.04657719  0.22592898  0.18534400  1
  O  O11  1  0.18391474  0.94001554  0.18784430  1
  O  O12  1  0.88499092  0.36934230  0.64505403  1
  O  O13  1  0.47510802  0.11422649  0.63785046  1
  O  O14  1  0.63497176  0.51166706  0.64379902  1
  O  O15  1  0.86823031  0.51245240  0.14333748  1
  O  O16  1  0.63362324  0.11176234  0.13609289  1
  O  O17  1  0.47452249  0.35727839  0.13658708  1
  O  O18  1  0.47535679  0.31816485  0.02865531  1
  O  O19  1  0.82926853  0.51425546  0.02718876  1
  O  O20  1  0.68057172  0.15512210  0.02885854  1
  O  O21  1  0.47181315  0.15562559  0.52985339  1
  O  O22  1  0.68008166  0.51053363  0.52650852  1
  O  O23  1  0.83362001  0.31349232  0.52746245  1
  O  O24  1  0.53558551  0.67427219  0.97476498  1
  O  O25  1  0.13536287  0.45039652  0.97466277  1
  O  O26  1  0.31591053  0.87224129  0.98189066  1
  O  O27  1  0.53786783  0.85911494  0.47940315  1
  O  O28  1  0.31564442  0.45263345  0.47147642  1
  O  O29  1  0.13444300  0.68006900  0.47183687  1
  O  O30  1  0.12627618  0.63843315  0.36346689  1
  O  O31  1  0.50317674  0.85491951  0.36177685  1
  O  O32  1  0.35561469  0.48360977  0.36285246  1
  O  O33  1  0.12094862  0.48160954  0.86672295  1
  O  O34  1  0.35224498  0.85736064  0.86364746  1
  O  O35  1  0.51029502  0.63622910  0.86621729  1
  O  O36  1  0.01425752  0.81019060  0.40898360  1
  O  O37  1  0.82084193  0.98092562  0.41142443  1
  O  O38  1  0.19226811  0.20424021  0.41095574  1
  O  O39  1  0.00729880  0.20095191  0.91451576  1
  O  O40  1  0.15775403  0.98470809  0.91183000  1
  O  O41  1  0.79069996  0.80719947  0.91264659  1
  O  O42  1  0.97854006  0.16754149  0.57994923  1
  O  O43  1  0.20958098  0.03547859  0.58355185  1
  O  O44  1  0.85182267  0.80750871  0.58320149  1
  O  O45  1  0.96867579  0.81340313  0.08343454  1
  O  O46  1  0.82696787  0.03794374  0.08137088  1
  O  O47  1  0.20976394  0.18344899  0.07986753  1
  O  O48  1  0.67852493  0.16126667  0.74691489  1
  O  O49  1  0.49516617  0.33499835  0.74481449  1
  O  O50  1  0.85979503  0.53310894  0.74907424  1
  O  O51  1  0.66677033  0.52887411  0.24390365  1
  O  O52  1  0.84496029  0.33553032  0.24686674  1
  O  O53  1  0.48570761  0.16631127  0.24299252  1
  O  O54  1  0.63345107  0.49998566  0.92233103  1
  O  O55  1  0.86309422  0.36348664  0.92403768  1
  O  O56  1  0.50757108  0.15546462  0.92566329  1
  O  O57  1  0.64105309  0.15168087  0.42216995  1
  O  O58  1  0.50120681  0.36782545  0.41847218  1
  O  O59  1  0.86529026  0.50143571  0.41958779  1
  O  O60  1  0.36632949  0.49327117  0.07407501  1
  O  O61  1  0.14677896  0.63956279  0.08073550  1
  O  O62  1  0.52013163  0.86637035  0.07480592  1
  O  O63  1  0.35269021  0.87104712  0.57587565  1
  O  O64  1  0.50417553  0.65101967  0.58089804  1
  O  O65  1  0.15121987  0.51406675  0.57465658  1
  O  O66  1  0.31782728  0.82728541  0.26162331  1
  O  O67  1  0.52209282  0.68736191  0.25878226  1
  O  O68  1  0.18180380  0.48650502  0.26022169  1
  O  O69  1  0.30884812  0.48608521  0.76522011  1
  O  O70  1  0.16479396  0.68446660  0.76174280  1
  O  O71  1  0.51445166  0.82724670  0.76332626  1
loop_
_geom_bond_atom_site_label_1
_geom_bond_atom_site_label_2
_geom_bond_distance
_geom_bond_site_symmetry_2
Na0 O53 2.434991 1_555
Na0 O52 2.459675 1_555
Na0 O2 2.570603 1_555
Na0 O66 2.658033 1_545
Na0 O67 2.707795 1_545
Na0 O31 2.802791 1_545
Na0 O16 2.831460 1_555
Na0 O9 2.972757 1_545
Na1 O53 2.434773 1_555
Na1 O68 2.486059 1_555
Na1 O51 2.504660 1_555
Na1 O0 2.731451 1_555
Na1 O67 2.748393 1_555
Na1 O32 2.786190 1_555
Na1 O17 2.790058 1_555
Na1 O10 2.848524 1_555
Na2 O52 2.340102 1_555
Na2 O15 2.470237 1_555
Na2 O51 2.598451 1_555
Na2 O66 2.621300 1_655
Na2 O68 2.681882 1_655
Na2 O11 2.741134 1_655
Na2 O1 2.935723 1_555
Na2 O30 2.991356 1_655
Na3 O14 2.290225 1_555
Na3 O49 2.345654 1_555
Na3 O50 2.557319 1_555
Na3 O71 2.637047 1_555
Na3 O6 2.640874 1_555
Na3 O69 2.702459 1_555
Na4 O12 2.369940 1_555
Na4 O48 2.441095 1_555
Na4 O50 2.519920 1_555
Na4 O69 2.599968 1_655
Na4 O7 2.662946 1_655
Na4 O70 2.740566 1_655
Na5 O48 2.364601 1_555
Na5 O49 2.410440 1_555
Na5 O13 2.624966 1_555
Na5 O3 2.628979 1_555
Na5 O71 2.724846 1_545
Na5 O70 2.781499 1_545
Na5 O8 2.898917 1_545
Na5 O34 2.981604 1_545
Na6 O7 2.449117 1_555
Na6 O43 2.479008 1_555
Na6 O64 2.506262 1_555
Na6 O42 2.508161 1_455
Na6 O65 2.537898 1_555
Na6 O28 2.832290 1_555
Na6 O14 2.925380 1_555
Na7 O44 2.300392 1_455
Na7 O65 2.399701 1_555
Na7 O63 2.555748 1_555
Na7 O8 2.679326 1_555
Na7 O43 2.699021 1_565
Na7 O29 2.749531 1_555
Na7 O12 2.890962 1_455
Na8 O64 2.391256 1_555
Na8 O42 2.446781 1_565
Na8 O44 2.532460 1_555
Na8 O27 2.556077 1_555
Na8 O6 2.618378 1_555
Na8 O63 2.634748 1_555
Na9 O45 2.438161 1_455
Na9 O61 2.445580 1_555
Na9 O26 2.446654 1_554
Na9 O11 2.471506 1_555
Na9 O47 2.510839 1_565
Na9 O62 2.641948 1_555
Na10 O45 2.303701 1_555
Na10 O62 2.501958 1_555
Na10 O60 2.517515 1_555
Na10 O46 2.612864 1_565
Na10 O9 2.614757 1_555
Na10 O24 2.729651 1_554
Na11 O10 2.363018 1_555
Na11 O61 2.412033 1_555
Na11 O46 2.437155 1_455
Na11 O47 2.621504 1_555
Na11 O60 2.645859 1_555
Na11 O25 2.816953 1_554
Na11 O15 2.880787 1_455
Na12 O37 2.375231 1_555
Na12 O42 2.399467 1_565
Na12 O44 2.449543 1_555
Na12 O36 2.726155 1_655
Na12 O38 2.729666 1_665
Na12 O43 2.750784 1_665
Na13 O40 2.250941 1_555
Na13 O45 2.496237 1_456
Na13 O41 2.572768 1_455
Na13 O39 2.641815 1_565
Na13 O47 2.661936 1_566
Na13 O46 2.752247 1_466
Na14 O48 2.314201 1_555
Na14 O49 2.326692 1_555
Na14 O50 2.570315 1_555
Na14 O56 2.666449 1_555
Na14 O54 2.803669 1_555
Na14 O55 2.870049 1_555
Na15 O52 2.449737 1_555
Na15 O57 2.469092 1_555
Na15 O53 2.493184 1_555
Na15 O58 2.606258 1_555
Na15 O59 2.654868 1_555
Na15 O51 2.775849 1_555
Na16 O61 2.358564 1_555
Na16 O68 2.578005 1_555
Na16 O66 2.609948 1_555
Na16 O60 2.731659 1_555
Na16 O62 2.756296 1_555
Na16 O67 2.790457 1_555
Na17 O64 2.260398 1_555
Na17 O65 2.374919 1_555
Na17 O63 2.637055 1_555
Na17 O69 2.839282 1_555
Na17 O71 2.896205 1_555
Na17 O70 2.911968 1_555
O0 Si0 1.595473 1_555
O0 Zn0 2.005485 1_555
O1 S0 1.447982 1_555
O1 Zn0 2.287298 1_665
O2 Si1 1.587801 1_655
O2 Zn0 1.916440 1_655
O3 Si2 1.600640 1_555
O3 Zn1 1.893964 1_555
O4 S1 1.466147 1_655
O4 Zn1 2.141762 1_665
O5 Si3 1.600654 1_555
O5 Zn1 1.956069 1_655
O6 Si3 1.627141 1_565
O6 Zn2 1.965342 1_565
O7 Si2 1.636930 1_555
O7 Zn2 2.074949 1_455
O8 S1 1.466164 1_555
O8 Zn2 2.583288 1_465
O9 S0 1.495657 1_555
O9 Zn3 2.232421 1_665
O10 Si1 1.662063 1_555
O10 Zn3 2.001347 1_555
O11 Si0 1.646023 1_565
O11 Zn3 1.942563 1_565
O12 Si4 1.613800 1_555
O12 Zn4 1.993970 1_555
O13 S2 1.476348 1_555
O13 Zn4 2.126670 1_555
O14 Si5 1.613614 1_555
O14 Zn4 1.966197 1_555
O15 Si6 1.614974 1_555
O15 Zn5 1.952417 1_555
O16 S3 1.477907 1_555
O16 Zn5 2.126076 1_555
O17 S4 1.469903 1_555
O17 Zn5 2.315502 1_555
O18 S4 1.532934 1_555
O18 Ta0 2.027115 1_554
O19 Si6 1.720015 1_555
O19 Ta0 1.922420 1_554
O20 S3 1.527135 1_555
O20 Ta0 2.102827 1_554
O21 S2 1.534305 1_555
O21 Ta1 2.045937 1_555
O22 Si5 1.723935 1_555
O22 Ta1 1.901867 1_555
O23 Si4 1.729955 1_555
O23 Ta1 1.838293 1_555
O24 S5 1.478050 1_555
O24 Zn6 2.231576 1_556
O25 S6 1.480159 1_555
O25 Zn6 2.025226 1_556
O26 Si7 1.610738 1_555
O26 Zn6 1.877055 1_556
O27 Si8 1.595248 1_555
O27 Zn7 1.932014 1_555
O28 S7 1.465031 1_555
O28 Zn7 2.060530 1_555
O29 S8 1.442288 1_555
O29 Zn7 2.327579 1_555
O30 S8 1.568416 1_555
O30 Ta2 1.994823 1_555
O31 Si8 1.739685 1_555
O31 Ta2 1.886626 1_555
O32 S7 1.542091 1_555
O32 Ta2 2.130683 1_555
O33 S6 1.487423 1_555
O33 Ta3 2.239650 1_555
O34 Si7 1.692169 1_555
O34 Ta3 1.933756 1_555
O35 S5 1.514363 1_555
O35 Ta3 2.113280 1_555
O36 S8 1.455274 1_555
O36 Zn0 2.395856 1_565
O37 Si8 1.601207 1_555
O37 Zn0 2.004005 1_665
O38 S7 1.455703 1_555
O38 Zn0 2.162293 1_555
O39 S6 1.441242 1_555
O39 Zn1 2.287345 1_555
O40 Si7 1.592622 1_555
O40 Zn1 2.064555 1_565
O41 S5 1.435566 1_555
O41 Zn1 2.499714 1_665
O42 Si4 1.625936 1_555
O42 Zn2 2.035735 1_555
O43 S2 1.468861 1_555
O43 Zn2 2.456933 1_455
O44 Si5 1.634287 1_555
O44 Zn2 2.225929 1_565
O45 Si6 1.642390 1_555
O45 Zn3 2.309142 1_665
O46 S3 1.474635 1_555
O47 S4 1.473854 1_555
O47 Zn3 2.479003 1_555
O48 Si3 1.627523 1_555
O48 Zn4 2.214527 1_555
O49 Si2 1.633342 1_555
O49 Zn4 2.105461 1_555
O50 S1 1.472327 1_655
O50 Zn4 2.342123 1_555
O51 S0 1.482433 1_555
O51 Zn5 2.265943 1_555
O52 Si1 1.640083 1_655
O52 Zn5 1.991444 1_555
O53 Si0 1.643005 1_555
O53 Zn5 2.060884 1_555
O54 S5 1.555423 1_555
O54 Ta0 2.053245 1_555
O55 S6 1.552441 1_655
O55 Ta0 2.020694 1_555
O56 Si7 1.727307 1_545
O56 Ta0 1.932156 1_555
O57 Si8 1.704474 1_545
O57 Ta1 1.992853 1_555
O58 S7 1.505046 1_555
O58 Ta1 2.281880 1_555
O59 S8 1.522880 1_655
O59 Ta1 2.146478 1_555
O60 S4 1.484276 1_555
O60 Zn6 2.443565 1_555
O61 Si6 1.654527 1_455
O61 Zn6 2.020521 1_555
O62 S3 1.485581 1_565
O62 Zn6 2.334345 1_555
O63 S2 1.473413 1_565
O63 Zn7 2.274987 1_555
O64 Si5 1.631303 1_555
O64 Zn7 2.003222 1_555
O65 Si4 1.628926 1_455
O65 Zn7 2.075790 1_555
O66 Si0 1.734243 1_565
O66 Ta2 1.924675 1_555
O67 S0 1.542382 1_555
O67 Ta2 2.114296 1_555
O68 Si1 1.712764 1_555
O68 Ta2 2.023754 1_555
O69 Si2 1.735860 1_555
O69 Ta3 1.943434 1_555
O70 S1 1.571461 1_555
O70 Ta3 2.019889 1_555
O71 Si3 1.752728 1_565
O71 Ta3 1.857128 1_555
