# generated using pymatgen
data_MgCo4(AsS)4
_symmetry_space_group_name_H-M   'P 1'
_cell_length_a   5.83814062
_cell_length_b   5.83753715
_cell_length_c   5.84006577
_cell_angle_alpha   91.22265639
_cell_angle_beta   88.97692220
_cell_angle_gamma   91.05021589
_symmetry_Int_Tables_number   1
_chemical_formula_structural   MgCo4(AsS)4
_chemical_formula_sum   'Mg1 Co4 As4 S4'
_cell_volume   198.92245283
_cell_formula_units_Z   1
loop_
 _symmetry_equiv_pos_site_id
 _symmetry_equiv_pos_as_xyz
  1  'x, y, z'
loop_
 _atom_site_type_symbol
 _atom_site_label
 _atom_site_symmetry_multiplicity
 _atom_site_fract_x
 _atom_site_fract_y
 _atom_site_fract_z
 _atom_site_occupancy
  Mg  Mg0  1  0.20705800  0.29235700  0.70177800  1
  Co  Co0  1  0.52127900  0.49359800  0.98450500  1
  Co  Co1  1  0.48608200  0.97781800  0.50560600  1
  Co  Co2  1  0.00689200  0.01399300  0.02073600  1
  Co  Co3  1  0.97440500  0.52616400  0.47385400  1
  As  As0  1  0.64267700  0.85799500  0.14094700  1
  As  As1  1  0.11033500  0.65840200  0.88776200  1
  As  As2  1  0.38935800  0.39125600  0.33844800  1
  As  As3  1  0.83939100  0.11137600  0.61044200  1
  S  S0  1  0.41700300  0.08184300  0.92043700  1
  S  S1  1  0.88864300  0.39116800  0.10975300  1
  S  S2  1  0.10868600  0.88981200  0.38816500  1
  S  S3  1  0.61057300  0.61183900  0.60804300  1
loop_
_geom_bond_atom_site_label_1
_geom_bond_atom_site_label_2
_geom_bond_distance
_geom_bond_site_symmetry_2
Mg0 S0 2.195730 1_555
Co0 S3 2.364849 1_555
Co0 S1 2.369407 1_556
Co0 S0 2.490820 1_555
Co0 Mg0 2.723596 1_555
Co1 S3 2.361649 1_555
Co1 S2 2.363527 1_555
Co1 S0 2.512347 1_565
Co1 Mg0 2.700134 1_565
Co2 S1 2.364045 1_455
Co2 S2 2.368731 1_545
Co2 S0 2.481460 1_554
Co2 Mg0 2.730884 1_554
Co3 S3 2.310597 1_555
Co3 S2 2.311200 1_655
Co3 S1 2.311972 1_555
Co3 Mg0 2.385280 1_655
As0 S0 2.301585 1_564
As0 Co2 2.397174 1_665
As0 Co0 2.397259 1_554
As0 Co1 2.398071 1_555
As1 Co2 2.288458 1_566
As1 S1 2.396212 1_456
As1 Mg0 2.447000 1_555
As1 Co3 2.652391 1_455
As1 Co0 2.675233 1_555
As2 Co0 2.280738 1_554
As2 S3 2.393750 1_555
As2 Mg0 2.432586 1_555
As2 Co3 2.662565 1_455
As2 Co1 2.695708 1_545
As3 Co1 2.281025 1_545
As3 S2 2.399941 1_645
As3 Mg0 2.437584 1_655
As3 Co3 2.666553 1_555
As3 Co2 2.680137 1_656
