# generated using pymatgen
data_LiNi2(PO4)3
_symmetry_space_group_name_H-M   'P 1'
_cell_length_a   8.85891200
_cell_length_b   8.56439400
_cell_length_c   14.89999369
_cell_angle_alpha   55.38643360
_cell_angle_beta   90.00000000
_cell_angle_gamma   90.00000000
_symmetry_Int_Tables_number   1
_chemical_formula_structural   LiNi2(PO4)3
_chemical_formula_sum   'Li4 Ni8 P12 O48'
_cell_volume   930.38766599
_cell_formula_units_Z   4
loop_
 _symmetry_equiv_pos_site_id
 _symmetry_equiv_pos_as_xyz
  1  'x, y, z'
loop_
 _atom_site_type_symbol
 _atom_site_label
 _atom_site_symmetry_multiplicity
 _atom_site_fract_x
 _atom_site_fract_y
 _atom_site_fract_z
 _atom_site_occupancy
  Li  Li0  1  0.28052900  0.36922900  0.31369700  1
  Li  Li1  1  0.71947100  0.63077100  0.68630300  1
  Li  Li2  1  0.78052900  0.63077100  0.18630300  1
  Li  Li3  1  0.21947100  0.36922900  0.81369700  1
  Ni  Ni0  1  0.46662100  0.63735600  0.11533700  1
  Ni  Ni1  1  0.03337900  0.63735600  0.61533700  1
  Ni  Ni2  1  0.53337900  0.36264400  0.88466300  1
  Ni  Ni3  1  0.97661800  0.13235500  0.11761200  1
  Ni  Ni4  1  0.47661800  0.86764500  0.38238800  1
  Ni  Ni5  1  0.52338200  0.13235500  0.61761200  1
  Ni  Ni6  1  0.96662100  0.36264400  0.38466300  1
  Ni  Ni7  1  0.02338200  0.86764500  0.88238800  1
  P  P0  1  0.74931800  0.53313100  0.50825600  1
  P  P1  1  0.10876100  0.73425800  0.14948200  1
  P  P2  1  0.24931800  0.46686900  0.99174400  1
  P  P3  1  0.88507400  0.95915500  0.64798900  1
  P  P4  1  0.75068200  0.53313100  0.00825600  1
  P  P5  1  0.25068200  0.46686900  0.49174400  1
  P  P6  1  0.38507400  0.04084500  0.85201100  1
  P  P7  1  0.39123900  0.73425800  0.64948200  1
  P  P8  1  0.60876100  0.26574200  0.35051800  1
  P  P9  1  0.61492600  0.95915500  0.14798900  1
  P  P10  1  0.89123900  0.26574200  0.85051800  1
  P  P11  1  0.11492600  0.04084500  0.35201100  1
  O  O0  1  0.96482500  0.00364300  0.72314100  1
  O  O1  1  0.18316500  0.38386800  0.43178700  1
  O  O2  1  0.45026500  0.76021800  0.54360100  1
  O  O3  1  0.46482500  0.99635700  0.77685900  1
  O  O4  1  0.13708300  0.32654600  0.07951200  1
  O  O5  1  0.67106700  0.34386500  0.59596400  1
  O  O6  1  0.12933400  0.51495100  0.54627900  1
  O  O7  1  0.73704700  0.36460400  0.81593900  1
  O  O8  1  0.95026500  0.23978200  0.95639900  1
  O  O9  1  0.56808700  0.10659200  0.02810800  1
  O  O10  1  0.82893300  0.34386500  0.09596400  1
  O  O11  1  0.63708300  0.67345400  0.42048800  1
  O  O12  1  0.76295300  0.36460400  0.31593900  1
  O  O13  1  0.86291700  0.67345400  0.92048800  1
  O  O14  1  0.62066100  0.05631000  0.38601200  1
  O  O15  1  0.68316500  0.61613200  0.06821300  1
  O  O16  1  0.81683500  0.61613200  0.56821300  1
  O  O17  1  0.03517500  0.99635700  0.27685900  1
  O  O18  1  0.17106700  0.65613500  0.90403600  1
  O  O19  1  0.12066100  0.94369000  0.11398800  1
  O  O20  1  0.43191300  0.89340800  0.97189200  1
  O  O21  1  0.98877300  0.62291200  0.23869100  1
  O  O22  1  0.87066600  0.48504900  0.45372100  1
  O  O23  1  0.28792300  0.02873100  0.34103700  1
  O  O24  1  0.78792300  0.97126900  0.15896300  1
  O  O25  1  0.01122700  0.37708800  0.76130900  1
  O  O26  1  0.48877300  0.37708800  0.26130900  1
  O  O27  1  0.91870500  0.75846400  0.67870500  1
  O  O28  1  0.23704700  0.63539600  0.68406100  1
  O  O29  1  0.87933900  0.05631000  0.88601200  1
  O  O30  1  0.51122700  0.62291200  0.73869100  1
  O  O31  1  0.31683500  0.38386800  0.93178700  1
  O  O32  1  0.04973500  0.76021800  0.04360100  1
  O  O33  1  0.54973500  0.23978200  0.45639900  1
  O  O34  1  0.37066600  0.51495100  0.04627900  1
  O  O35  1  0.26295300  0.63539600  0.18406100  1
  O  O36  1  0.36291700  0.32654600  0.57951200  1
  O  O37  1  0.62933400  0.48504900  0.95372100  1
  O  O38  1  0.21207700  0.02873100  0.84103700  1
  O  O39  1  0.32893300  0.65613500  0.40403600  1
  O  O40  1  0.53517500  0.00364300  0.22314100  1
  O  O41  1  0.93191300  0.10659200  0.52810800  1
  O  O42  1  0.37933900  0.94369000  0.61398800  1
  O  O43  1  0.71207700  0.97126900  0.65896300  1
  O  O44  1  0.08129500  0.24153600  0.32129500  1
  O  O45  1  0.58129500  0.75846400  0.17870500  1
  O  O46  1  0.06808700  0.89340800  0.47189200  1
  O  O47  1  0.41870500  0.24153600  0.82129500  1
loop_
_geom_bond_atom_site_label_1
_geom_bond_atom_site_label_2
_geom_bond_distance
_geom_bond_site_symmetry_2
Li0 O35 1.987287 1_555
Li0 O26 1.989345 1_555
Li0 O1 2.026399 1_555
Li0 O44 2.045327 1_555
Li1 O7 1.987287 1_555
Li1 O30 1.989345 1_555
Li1 O16 2.026399 1_555
Li1 O27 2.045327 1_555
Li2 O12 1.987287 1_555
Li2 O21 1.989345 1_555
Li2 O15 2.026399 1_555
Li2 O45 2.045327 1_555
Li3 O28 1.987287 1_555
Li3 O25 1.989345 1_555
Li3 O31 2.026399 1_555
Li3 O47 2.045327 1_555
Ni0 O34 2.026282 1_555
Ni0 O45 2.027785 1_555
Ni0 O20 2.036382 1_554
Ni0 O26 2.056655 1_555
Ni0 O35 2.069956 1_555
Ni0 O15 2.085927 1_555
Ni1 O6 2.026282 1_555
Ni1 O27 2.027785 1_455
Ni1 O46 2.036382 1_555
Ni1 O25 2.056655 1_555
Ni1 O28 2.069956 1_555
Ni1 O16 2.085927 1_455
Ni2 O37 2.026282 1_555
Ni2 O47 2.027785 1_555
Ni2 O9 2.036382 1_556
Ni2 O30 2.056655 1_555
Ni2 O7 2.069956 1_555
Ni2 O31 2.085927 1_555
Ni3 O4 2.009090 1_655
Ni3 O24 2.027707 1_545
Ni3 O17 2.028808 1_645
Ni3 O8 2.039654 1_554
Ni3 O19 2.083553 1_645
Ni3 O10 2.105548 1_555
Ni4 O11 2.009090 1_555
Ni4 O23 2.027707 1_565
Ni4 O40 2.028808 1_565
Ni4 O2 2.039654 1_555
Ni4 O14 2.083553 1_565
Ni4 O39 2.105548 1_555
Ni5 O36 2.009090 1_555
Ni5 O43 2.027707 1_545
Ni5 O3 2.028808 1_545
Ni5 O33 2.039654 1_555
Ni5 O42 2.083553 1_545
Ni5 O5 2.105548 1_555
Ni6 O22 2.026282 1_555
Ni6 O44 2.027785 1_655
Ni6 O41 2.036382 1_555
Ni6 O21 2.056655 1_555
Ni6 O12 2.069956 1_555
Ni6 O1 2.085927 1_655
Ni7 O13 2.009090 1_455
Ni7 O38 2.027707 1_565
Ni7 O0 2.028808 1_465
Ni7 O32 2.039654 1_556
Ni7 O29 2.083553 1_465
Ni7 O18 2.105548 1_555
O0 P3 1.543663 1_545
O1 P5 1.543574 1_555
O2 P7 1.553474 1_555
O3 P6 1.543663 1_565
O4 P2 1.535441 1_554
O5 P0 1.552188 1_555
O6 P5 1.538063 1_555
O7 P10 1.533829 1_555
O8 P10 1.553474 1_555
O9 P9 1.547518 1_545
O10 P4 1.552188 1_555
O11 P0 1.535441 1_555
O12 P8 1.533829 1_555
O13 P4 1.535441 1_556
O14 P8 1.558955 1_555
O15 P4 1.543574 1_555
O16 P0 1.543574 1_555
O17 P11 1.543663 1_565
O18 P2 1.552188 1_555
O19 P1 1.558955 1_555
O20 P6 1.547518 1_565
O21 P1 1.538192 1_655
O22 P0 1.538063 1_555
O23 P11 1.550977 1_555
O24 P9 1.550977 1_555
O25 P10 1.538192 1_455
O26 P8 1.538192 1_555
O27 P3 1.535840 1_555
O28 P7 1.533829 1_555
O29 P10 1.558955 1_555
O30 P7 1.538192 1_555
O31 P2 1.543574 1_555
O32 P1 1.553474 1_555
O33 P8 1.553474 1_555
O34 P2 1.538063 1_554
O35 P1 1.533829 1_555
O36 P5 1.535441 1_555
O37 P4 1.538063 1_556
O38 P6 1.550977 1_555
O39 P5 1.552188 1_555
O40 P9 1.543663 1_545
O41 P3 1.547518 1_545
O42 P7 1.558955 1_555
O43 P3 1.550977 1_555
O44 P11 1.535840 1_555
O45 P9 1.535840 1_555
O46 P11 1.547518 1_565
O47 P6 1.535840 1_555
