# generated using pymatgen
data_Yb3GaC
_symmetry_space_group_name_H-M   'P 1'
_cell_length_a   4.71494726
_cell_length_b   4.71494726
_cell_length_c   4.71494726
_cell_angle_alpha   90.00000000
_cell_angle_beta   90.00000000
_cell_angle_gamma   90.00000000
_symmetry_Int_Tables_number   1
_chemical_formula_structural   Yb3GaC
_chemical_formula_sum   'Yb3 Ga1 C1'
_cell_volume   104.81670862
_cell_formula_units_Z   1
loop_
 _symmetry_equiv_pos_site_id
 _symmetry_equiv_pos_as_xyz
  1  'x, y, z'
loop_
 _atom_site_type_symbol
 _atom_site_label
 _atom_site_symmetry_multiplicity
 _atom_site_fract_x
 _atom_site_fract_y
 _atom_site_fract_z
 _atom_site_occupancy
  Yb  Yb0  1  0.50000000  0.00000000  0.50000000  1
  Yb  Yb1  1  0.50000000  0.50000000  0.00000000  1
  Yb  Yb2  1  0.00000000  0.50000000  0.50000000  1
  Ga  Ga0  1  0.00000000  0.00000000  0.00000000  1
  C  C0  1  0.50000000  0.50000000  0.50000000  1
loop_
_geom_bond_atom_site_label_1
_geom_bond_atom_site_label_2
_geom_bond_distance
_geom_bond_site_symmetry_2
Ga0 Yb0 3.333971 1_455
Ga0 Yb2 3.333971 1_555
Ga0 Yb0 3.333971 1_454
Ga0 Yb1 3.333971 1_455
Ga0 Yb0 3.333971 1_555
Ga0 Yb2 3.333971 1_544
Ga0 Yb1 3.333971 1_445
Ga0 Yb2 3.333971 1_545
Ga0 Yb0 3.333971 1_554
Ga0 Yb2 3.333971 1_554
Ga0 Yb1 3.333971 1_545
Ga0 Yb1 3.333971 1_555
C0 Yb2 2.357474 1_555
C0 Yb0 2.357474 1_555
C0 Yb2 2.357474 1_655
C0 Yb1 2.357474 1_556
C0 Yb1 2.357474 1_555
C0 Yb0 2.357474 1_565
