# generated using pymatgen
data_NaMgFeO2
_symmetry_space_group_name_H-M   'P 1'
_cell_length_a   3.20425266
_cell_length_b   3.20425266
_cell_length_c   8.35646321
_cell_angle_alpha   78.94663463
_cell_angle_beta   78.94663463
_cell_angle_gamma   59.99998339
_symmetry_Int_Tables_number   1
_chemical_formula_structural   NaMgFeO2
_chemical_formula_sum   'Na1 Mg1 Fe1 O2'
_cell_volume   72.45935484
_cell_formula_units_Z   1
loop_
 _symmetry_equiv_pos_site_id
 _symmetry_equiv_pos_as_xyz
  1  'x, y, z'
loop_
 _atom_site_type_symbol
 _atom_site_label
 _atom_site_symmetry_multiplicity
 _atom_site_fract_x
 _atom_site_fract_y
 _atom_site_fract_z
 _atom_site_occupancy
  Na  Na0  1  0.45388305  0.45388305  0.63835086  1
  Mg  Mg0  1  0.58968241  0.58968241  0.23095177  1
  Fe  Fe0  1  0.02230933  0.02230933  0.93307202  1
  O  O0  1  0.29076367  0.29076367  0.12770799  1
  O  O1  1  0.72669455  0.72669455  0.81991735  1
loop_
_geom_bond_atom_site_label_1
_geom_bond_atom_site_label_2
_geom_bond_distance
_geom_bond_site_symmetry_2
Na0 O1 2.368890 1_545
Na0 O1 2.368890 1_455
Na0 O1 2.368893 1_555
Mg0 O0 2.032307 1_655
Mg0 O0 2.032307 1_565
Mg0 O0 2.032308 1_555
Fe0 O1 2.067049 1_445
Fe0 O1 2.067051 1_545
Fe0 O1 2.067051 1_455
Fe0 O0 2.436833 1_556
Fe0 O0 2.436834 1_546
Fe0 O0 2.436834 1_456
