# generated using pymatgen
data_Ti2(InBr3)3
_symmetry_space_group_name_H-M   'P 1'
_cell_length_a   7.48066975
_cell_length_b   7.48103003
_cell_length_c   18.54129418
_cell_angle_alpha   89.61896119
_cell_angle_beta   89.62593070
_cell_angle_gamma   119.79290296
_symmetry_Int_Tables_number   1
_chemical_formula_structural   Ti2(InBr3)3
_chemical_formula_sum   'Ti4 In6 Br18'
_cell_volume   900.40438339
_cell_formula_units_Z   2
loop_
 _symmetry_equiv_pos_site_id
 _symmetry_equiv_pos_as_xyz
  1  'x, y, z'
loop_
 _atom_site_type_symbol
 _atom_site_label
 _atom_site_symmetry_multiplicity
 _atom_site_fract_x
 _atom_site_fract_y
 _atom_site_fract_z
 _atom_site_occupancy
  Ti  Ti0  1  0.67880939  0.34711480  0.15991644  1
  Ti  Ti1  1  0.34314527  0.68116947  0.83212789  1
  Ti  Ti2  1  0.34769941  0.67957755  0.65992709  1
  Ti  Ti3  1  0.68034398  0.34151693  0.33234167  1
  In  In0  1  0.64425934  0.29923826  0.95121279  1
  In  In1  1  0.29080493  0.57760783  0.05698624  1
  In  In2  1  0.29969115  0.64699616  0.45105379  1
  In  In3  1  0.57853653  0.29154671  0.55691544  1
  In  In4  1  0.00334242  0.00314618  0.79140117  1
  In  In5  1  0.00136667  0.00127148  0.29142398  1
  Br  Br0  1  0.49887741  0.00097423  0.74282937  1
  Br  Br1  1  0.50250612  0.51548869  0.74745512  1
  Br  Br2  1  0.02384709  0.51532569  0.74735454  1
  Br  Br3  1  0.51625289  0.02309645  0.24724603  1
  Br  Br4  1  0.51479864  0.50098912  0.24781938  1
  Br  Br5  1  0.00026382  0.49926308  0.24296068  1
  Br  Br6  1  0.82976903  0.66046829  0.08336288  1
  Br  Br7  1  0.83074589  0.17690866  0.08262051  1
  Br  Br8  1  0.34930325  0.18057165  0.08597938  1
  Br  Br9  1  0.17787041  0.34931459  0.91270075  1
  Br  Br10  1  0.18061485  0.84015308  0.91151365  1
  Br  Br11  1  0.66154290  0.84027530  0.91115838  1
  Br  Br12  1  0.18255407  0.35093193  0.58548846  1
  Br  Br13  1  0.17633362  0.83079051  0.58266159  1
  Br  Br14  1  0.66126248  0.83222844  0.58345448  1
  Br  Br15  1  0.83690632  0.65940979  0.41174449  1
  Br  Br16  1  0.84050691  0.18064630  0.41174698  1
  Br  Br17  1  0.34804819  0.17397883  0.41249084  1
loop_
_geom_bond_atom_site_label_1
_geom_bond_atom_site_label_2
_geom_bond_distance
_geom_bond_site_symmetry_2
Br0 Ti2 2.606238 1_545
Br0 Ti1 2.640999 1_545
Br1 Ti1 2.625249 1_555
Br1 Ti2 2.625347 1_555
Br2 Ti1 2.616332 1_555
Br2 Ti2 2.640218 1_555
Br3 Ti3 2.615374 1_555
Br3 Ti0 2.639923 1_555
Br4 Ti3 2.623261 1_555
Br4 Ti0 2.624714 1_555
Br5 Ti0 2.607808 1_455
Br5 Ti3 2.642389 1_455
Br6 Ti0 2.467675 1_555
Br7 Ti0 2.531462 1_555
Br7 In0 3.162820 1_554
Br7 In1 3.280829 1_655
Br8 Ti0 2.553919 1_555
Br8 In0 3.138842 1_554
Br8 In1 3.252121 1_555
Br9 Ti1 2.607712 1_555
Br9 In1 3.073097 1_556
Br9 In4 3.197693 1_555
Br10 Ti1 2.548783 1_555
Br10 In4 3.132801 1_565
Br11 Ti1 2.547263 1_555
Br11 In4 3.121968 1_665
Br12 Ti2 2.554399 1_555
Br12 In2 3.139410 1_555
Br12 In3 3.247020 1_555
Br13 Ti2 2.533549 1_555
Br13 In2 3.157952 1_555
Br13 In3 3.288645 1_565
Br14 Ti2 2.467755 1_555
Br15 Ti3 2.548740 1_555
Br15 In5 3.129340 1_665
Br16 Ti3 2.546333 1_555
Br16 In5 3.136123 1_655
Br17 Ti3 2.605650 1_555
Br17 In3 3.082500 1_555
Br17 In5 3.196683 1_555
