# generated using pymatgen
data_B2Pd5
_symmetry_space_group_name_H-M   'P 1'
_cell_length_a   4.97209224
_cell_length_b   5.49813961
_cell_length_c   6.89567451
_cell_angle_alpha   96.59729754
_cell_angle_beta   111.13227853
_cell_angle_gamma   89.99999707
_symmetry_Int_Tables_number   1
_chemical_formula_structural   B2Pd5
_chemical_formula_sum   'B4 Pd10'
_cell_volume   174.49278323
_cell_formula_units_Z   2
loop_
 _symmetry_equiv_pos_site_id
 _symmetry_equiv_pos_as_xyz
  1  'x, y, z'
loop_
 _atom_site_type_symbol
 _atom_site_label
 _atom_site_symmetry_multiplicity
 _atom_site_fract_x
 _atom_site_fract_y
 _atom_site_fract_z
 _atom_site_occupancy
  B  B0  1  0.58806133  0.42149725  0.77128724  1
  B  B1  1  0.81677310  0.07850275  0.22871276  1
  B  B2  1  0.41193867  0.57850275  0.22871276  1
  B  B3  1  0.18322690  0.92149725  0.77128724  1
  Pd  Pd0  1  0.00362892  0.41967212  0.19191215  1
  Pd  Pd1  1  0.81171677  0.08032788  0.80808785  1
  Pd  Pd2  1  0.35940462  0.68538983  0.57557878  1
  Pd  Pd3  1  0.78382483  0.81461017  0.42442122  1
  Pd  Pd4  1  0.64059538  0.31461017  0.42442122  1
  Pd  Pd5  1  0.21617517  0.18538983  0.57557878  1
  Pd  Pd6  1  0.18828323  0.91967212  0.19191215  1
  Pd  Pd7  1  0.99637108  0.58032788  0.80808785  1
  Pd  Pd8  1  0.42982885  0.25000000  -0.00000000  1
  Pd  Pd9  1  0.57017115  0.75000000  0.00000000  1
loop_
_geom_bond_atom_site_label_1
_geom_bond_atom_site_label_2
_geom_bond_distance
_geom_bond_site_symmetry_2
B0 Pd7 2.127472 1_555
B0 Pd2 2.136025 1_555
B0 Pd5 2.173390 1_555
B0 Pd1 2.173830 1_555
B0 Pd9 2.281240 1_556
B0 Pd8 2.287307 1_556
B0 Pd4 2.502430 1_555
B1 Pd6 2.127476 1_645
B1 Pd3 2.136025 1_545
B1 Pd4 2.173390 1_555
B1 Pd0 2.173832 1_655
B1 Pd9 2.281239 1_545
B1 Pd8 2.287305 1_555
B1 Pd5 2.502435 1_655
B2 Pd0 2.127472 1_555
B2 Pd4 2.136025 1_555
B2 Pd3 2.173390 1_555
B2 Pd6 2.173830 1_555
B2 Pd8 2.281240 1_555
B2 Pd9 2.287307 1_555
B2 Pd2 2.502430 1_555
B3 Pd1 2.127476 1_465
B3 Pd5 2.136025 1_565
B3 Pd2 2.173390 1_555
B3 Pd7 2.173832 1_455
B3 Pd8 2.281239 1_566
B3 Pd9 2.287305 1_556
B3 Pd3 2.502435 1_455
