# generated using pymatgen
data_Y2Co3Si5
_symmetry_space_group_name_H-M   'P 1'
_cell_length_a   7.88136180
_cell_length_b   7.88136180
_cell_length_c   7.88136180
_cell_angle_alpha   138.84843232
_cell_angle_beta   105.63026825
_cell_angle_gamma   88.71646514
_symmetry_Int_Tables_number   1
_chemical_formula_structural   Y2Co3Si5
_chemical_formula_sum   'Y4 Co6 Si10'
_cell_volume   297.39532864
_cell_formula_units_Z   2
loop_
 _symmetry_equiv_pos_site_id
 _symmetry_equiv_pos_as_xyz
  1  'x, y, z'
loop_
 _atom_site_type_symbol
 _atom_site_label
 _atom_site_symmetry_multiplicity
 _atom_site_fract_x
 _atom_site_fract_y
 _atom_site_fract_z
 _atom_site_occupancy
  Y  Y0  1  0.86757700  0.63382400  0.23375300  1
  Y  Y1  1  0.13242300  0.36617600  0.76624700  1
  Y  Y2  1  0.59992800  0.86617600  0.73375300  1
  Y  Y3  1  0.40007200  0.13382400  0.26624700  1
  Co  Co0  1  0.00000000  0.25000000  0.25000000  1
  Co  Co1  1  0.74592000  0.13786400  0.60805700  1
  Co  Co2  1  0.52980700  0.63786400  0.89194300  1
  Co  Co3  1  0.47019300  0.36213600  0.10805700  1
  Co  Co4  1  0.00000000  0.75000000  0.75000000  1
  Co  Co5  1  0.25408000  0.86213600  0.39194300  1
  Si  Si0  1  0.05746000  0.89931000  0.15815000  1
  Si  Si1  1  0.94254000  0.10069000  0.84185000  1
  Si  Si2  1  0.25884000  0.60069000  0.65815000  1
  Si  Si3  1  0.74116000  0.39931000  0.34185000  1
  Si  Si4  1  0.22644500  0.97644500  0.75000000  1
  Si  Si5  1  0.77355500  0.52355500  0.75000000  1
  Si  Si6  1  0.77355500  0.02355500  0.25000000  1
  Si  Si7  1  0.50000000  0.25000000  0.75000000  1
  Si  Si8  1  0.50000000  0.75000000  0.25000000  1
  Si  Si9  1  0.22644500  0.47644500  0.25000000  1
loop_
_geom_bond_atom_site_label_1
_geom_bond_atom_site_label_2
_geom_bond_distance
_geom_bond_site_symmetry_2
Co0 Si1 2.340048 1_454
Co0 Si3 2.340048 1_455
Co0 Si0 2.340048 1_545
Co0 Si2 2.340048 1_555
Co0 Si9 2.552051 1_555
Co0 Si6 2.552051 1_455
Co0 Co4 2.769873 1_555
Co0 Co4 2.769873 1_544
Co0 Y0 3.259830 1_455
Co0 Y1 3.259830 1_555
Co0 Y2 3.259835 1_444
Co0 Y3 3.259837 1_555
Co1 Si1 2.266366 1_555
Co1 Si5 2.305730 1_555
Co1 Si6 2.305733 1_555
Co1 Si7 2.322037 1_555
Co1 Si8 2.322041 1_545
Co1 Y1 2.981952 1_655
Co1 Y0 3.017984 1_556
Co1 Y0 3.017989 1_545
Co2 Si2 2.266362 1_555
Co2 Si5 2.305730 1_555
Co2 Si6 2.305730 1_566
Co2 Si7 2.322045 1_555
Co2 Si8 2.322045 1_556
Co2 Y2 2.981942 1_555
Co2 Y3 3.017980 1_566
Co2 Y3 3.017985 1_555
Co3 Si3 2.266362 1_555
Co3 Si4 2.305730 1_544
Co3 Si9 2.305730 1_555
Co3 Si8 2.322045 1_555
Co3 Si7 2.322045 1_554
Co3 Y3 2.981942 1_555
Co3 Y2 3.017980 1_544
Co3 Y2 3.017985 1_555
Co4 Si1 2.340048 1_465
Co4 Si3 2.340048 1_455
Co4 Si2 2.340048 1_555
Co4 Si0 2.340048 1_556
Co4 Si4 2.552051 1_555
Co4 Si5 2.552051 1_455
Co4 Y0 3.259830 1_455
Co4 Y1 3.259830 1_555
Co4 Y3 3.259835 1_566
Co4 Y2 3.259837 1_455
Co5 Si0 2.266366 1_555
Co5 Si9 2.305730 1_555
Co5 Si4 2.305733 1_555
Co5 Si8 2.322037 1_555
Co5 Si7 2.322041 1_565
Co5 Y0 2.981952 1_455
Co5 Y1 3.017984 1_554
Co5 Y1 3.017989 1_565
Si0 Si6 2.489325 1_465
Si0 Si5 2.489325 1_454
Si0 Y3 2.836541 1_565
Si0 Y1 2.978619 1_554
Si0 Y1 2.978619 1_565
Si0 Y0 3.077517 1_455
Si1 Si4 2.489325 1_645
Si1 Si9 2.489325 1_656
Si1 Y2 2.836541 1_545
Si1 Y0 2.978619 1_545
Si1 Y0 2.978619 1_556
Si1 Y1 3.077517 1_655
Si2 Si9 2.489325 1_555
Si2 Si4 2.489325 1_555
Si2 Y1 2.836534 1_555
Si2 Y3 2.978619 1_566
Si2 Y3 2.978624 1_555
Si2 Y2 3.077510 1_555
Si3 Si5 2.489325 1_555
Si3 Si6 2.489325 1_555
Si3 Y0 2.836534 1_555
Si3 Y2 2.978619 1_544
Si3 Y2 2.978624 1_555
Si3 Y3 3.077510 1_555
Si4 Si9 2.769873 1_566
Si4 Si9 2.769873 1_555
Si4 Y2 3.058939 1_555
Si4 Y1 3.058946 1_565
Si4 Y0 3.072689 1_455
Si4 Y3 3.072690 1_566
Si5 Si6 2.769873 1_566
Si5 Si6 2.769873 1_555
Si5 Y3 3.058941 1_555
Si5 Y0 3.058946 1_556
Si5 Y1 3.072689 1_655
Si5 Y2 3.072692 1_555
Si6 Y3 3.058939 1_555
Si6 Y0 3.058946 1_545
Si6 Y1 3.072689 1_655
Si6 Y2 3.072690 1_544
Si7 Y2 3.025211 1_545
Si7 Y0 3.025213 1_556
Si7 Y1 3.025213 1_555
Si7 Y3 3.025213 1_555
Si8 Y3 3.025211 1_565
Si8 Y0 3.025213 1_555
Si8 Y1 3.025213 1_554
Si8 Y2 3.025213 1_555
Si9 Y2 3.058941 1_555
Si9 Y1 3.058946 1_554
Si9 Y0 3.072689 1_455
Si9 Y3 3.072692 1_555
