# generated using pymatgen
data_Ti3ZnSiS5O24
_symmetry_space_group_name_H-M   'P 1'
_cell_length_a   8.64950986
_cell_length_b   8.64108357
_cell_length_c   22.36052337
_cell_angle_alpha   89.71528132
_cell_angle_beta   89.85621541
_cell_angle_gamma   120.00341790
_symmetry_Int_Tables_number   1
_chemical_formula_structural   Ti3ZnSiS5O24
_chemical_formula_sum   'Ti9 Zn3 Si3 S15 O72'
_cell_volume   1447.25399139
_cell_formula_units_Z   3
loop_
 _symmetry_equiv_pos_site_id
 _symmetry_equiv_pos_as_xyz
  1  'x, y, z'
loop_
 _atom_site_type_symbol
 _atom_site_label
 _atom_site_symmetry_multiplicity
 _atom_site_fract_x
 _atom_site_fract_y
 _atom_site_fract_z
 _atom_site_occupancy
  Ti  Ti0  1  0.00985058  0.01044024  0.85914568  1
  Ti  Ti1  1  0.99034274  0.99183991  0.64366829  1
  Ti  Ti2  1  0.00057126  0.00269760  0.14344488  1
  Ti  Ti3  1  0.66490382  0.32803675  0.97184047  1
  Ti  Ti4  1  0.67194715  0.34966258  0.47925904  1
  Ti  Ti5  1  0.32051508  0.66221143  0.01807497  1
  Ti  Ti6  1  0.34118153  0.66929238  0.52448200  1
  Ti  Ti7  1  0.33487241  0.66856944  0.30826486  1
  Ti  Ti8  1  0.32323663  0.67146887  0.81089339  1
  Zn  Zn0  1  0.99884476  0.99970303  0.35555024  1
  Zn  Zn1  1  0.66148961  0.33638401  0.68893087  1
  Zn  Zn2  1  0.66649862  0.33322860  0.18663542  1
  Si  Si0  1  0.66673995  0.61905900  0.58639850  1
  Si  Si1  1  0.04865367  0.38268552  0.91596157  1
  Si  Si2  1  0.33166663  0.94962423  0.91520468  1
  S  S0  1  0.28816168  0.00129952  0.25069116  1
  S  S1  1  0.71265279  0.71161590  0.25073863  1
  S  S2  1  0.99969324  0.28831852  0.25086362  1
  S  S3  1  0.28606039  0.28729334  0.75015518  1
  S  S4  1  0.99915489  0.71407843  0.75069804  1
  S  S5  1  0.71301599  0.99945301  0.75037706  1
  S  S6  1  0.95588906  0.33379315  0.58297999  1
  S  S7  1  0.37851738  0.04564777  0.58317501  1
  S  S8  1  0.95605268  0.62359718  0.08451599  1
  S  S9  1  0.66500762  0.04140536  0.08390904  1
  S  S10  1  0.37891078  0.33647670  0.08442930  1
  S  S11  1  0.61791432  0.66750517  0.91613349  1
  S  S12  1  0.61769217  0.95396986  0.41641785  1
  S  S13  1  0.33295792  0.38105315  0.41684511  1
  S  S14  1  0.04861613  0.66583987  0.41652458  1
  O  O0  1  0.21056689  0.02830276  0.30466282  1
  O  O1  1  0.81703889  0.78867407  0.30443078  1
  O  O2  1  0.97089821  0.18174895  0.30469424  1
  O  O3  1  0.19195139  0.17336485  0.80414501  1
  O  O4  1  0.97705619  0.80212669  0.80352107  1
  O  O5  1  0.82360290  0.02189094  0.80325008  1
  O  O6  1  0.80191677  0.97293329  0.69554382  1
  O  O7  1  0.17277416  0.20377617  0.69673182  1
  O  O8  1  0.02989989  0.82870743  0.69593657  1
  O  O9  1  0.79511616  0.82995728  0.19676167  1
  O  O10  1  0.03491228  0.20561821  0.19702762  1
  O  O11  1  0.17107734  0.96602310  0.19708404  1
  O  O12  1  0.88687192  0.37027484  0.63649742  1
  O  O13  1  0.48615358  0.10633358  0.63633497  1
  O  O14  1  0.61919873  0.49736874  0.64279659  1
  O  O15  1  0.88369982  0.51720252  0.13875398  1
  O  O16  1  0.63214664  0.11399139  0.13797575  1
  O  O17  1  0.48220635  0.36499525  0.13863035  1
  O  O18  1  0.45537797  0.29927550  0.03125650  1
  O  O19  1  0.84446021  0.54788903  0.03144169  1
  O  O20  1  0.70349335  0.15886324  0.03092526  1
  O  O21  1  0.46497590  0.16014700  0.52908417  1
  O  O22  1  0.70028633  0.52751935  0.52487966  1
  O  O23  1  0.84034264  0.29983759  0.52902862  1
  O  O24  1  0.54026057  0.69925199  0.97077525  1
  O  O25  1  0.17256647  0.46856633  0.97522077  1
  O  O26  1  0.30399660  0.82820482  0.97473002  1
  O  O27  1  0.52796138  0.83920639  0.46977082  1
  O  O28  1  0.30900544  0.46887835  0.46992381  1
  O  O29  1  0.15660376  0.68807811  0.46983000  1
  O  O30  1  0.13312767  0.63625868  0.36229545  1
  O  O31  1  0.50227305  0.86601631  0.36258136  1
  O  O32  1  0.36625860  0.49662960  0.36261415  1
  O  O33  1  0.14219861  0.50870669  0.85762953  1
  O  O34  1  0.37383843  0.86382152  0.85714267  1
  O  O35  1  0.50655498  0.63071115  0.86288549  1
  O  O36  1  0.02440196  0.81880289  0.40965788  1
  O  O37  1  0.79127045  0.96843518  0.41004841  1
  O  O38  1  0.17708174  0.20591248  0.41051172  1
  O  O39  1  0.01736436  0.18425552  0.90516944  1
  O  O40  1  0.15619992  0.96687008  0.90477931  1
  O  O41  1  0.79651176  0.82405599  0.90724221  1
  O  O42  1  0.98060333  0.17611819  0.58979895  1
  O  O43  1  0.20054266  0.02992383  0.59047601  1
  O  O44  1  0.84254648  0.82049260  0.59409886  1
  O  O45  1  0.97780047  0.80755040  0.09375110  1
  O  O46  1  0.83207707  0.02634274  0.09357922  1
  O  O47  1  0.19464206  0.17154788  0.09400042  1
  O  O48  1  0.69559694  0.15625449  0.74197619  1
  O  O49  1  0.45735450  0.29570411  0.74737466  1
  O  O50  1  0.84800357  0.53630651  0.74549932  1
  O  O51  1  0.68199561  0.53293177  0.24074602  1
  O  O52  1  0.85087420  0.31763646  0.24051969  1
  O  O53  1  0.46732592  0.14939695  0.24061675  1
  O  O54  1  0.63695797  0.50781604  0.92727229  1
  O  O55  1  0.85647205  0.36776726  0.92971722  1
  O  O56  1  0.50153358  0.14691862  0.92941973  1
  O  O57  1  0.62929677  0.12842604  0.42480424  1
  O  O58  1  0.49713810  0.36571438  0.42469841  1
  O  O59  1  0.87109271  0.49598914  0.42367114  1
  O  O60  1  0.35299214  0.49052391  0.07495515  1
  O  O61  1  0.13853093  0.65000649  0.07575267  1
  O  O62  1  0.51633108  0.85968799  0.07365057  1
  O  O63  1  0.34738012  0.86223640  0.56943857  1
  O  O64  1  0.50149057  0.65267614  0.56773899  1
  O  O65  1  0.13540416  0.49205920  0.56978696  1
  O  O66  1  0.30011590  0.83172747  0.25886676  1
  O  O67  1  0.53140945  0.69977106  0.25885400  1
  O  O68  1  0.16858798  0.46877516  0.25890241  1
  O  O69  1  0.30238956  0.46481027  0.75807735  1
  O  O70  1  0.16930193  0.70711510  0.75534758  1
  O  O71  1  0.53910046  0.83203903  0.75619710  1
loop_
_geom_bond_atom_site_label_1
_geom_bond_atom_site_label_2
_geom_bond_distance
_geom_bond_site_symmetry_2
O0 S0 1.454889 1_555
O0 Zn0 2.059996 1_445
O1 S1 1.453310 1_555
O1 Zn0 2.065565 1_555
O2 S2 1.454989 1_555
O2 Zn0 2.046956 1_545
O3 S3 1.506989 1_555
O3 Ti0 1.931527 1_555
O4 S4 1.470972 1_555
O4 Ti0 2.093098 1_665
O5 S5 1.474030 1_545
O5 Ti0 2.082158 1_655
O6 S5 1.523616 1_555
O6 Ti1 1.936689 1_555
O7 S3 1.488352 1_555
O7 Ti1 2.095839 1_445
O8 S4 1.508015 1_455
O8 Ti1 1.984468 1_455
O9 S1 1.505040 1_555
O9 Ti2 2.031308 1_665
O10 S2 1.508987 1_455
O10 Ti2 2.024881 1_555
O11 S0 1.502117 1_565
O11 Ti2 2.046101 1_565
O12 S6 1.440886 1_555
O12 Zn1 2.162146 1_555
O13 S7 1.441600 1_555
O13 Zn1 2.156832 1_555
O14 Si0 1.554652 1_555
O14 Zn1 1.905157 1_555
O15 S8 1.455140 1_555
O15 Zn2 2.046724 1_555
O16 S9 1.455983 1_555
O16 Zn2 2.078518 1_555
O17 S10 1.454666 1_555
O17 Zn2 2.052267 1_555
O18 S10 1.472050 1_555
O18 Ti3 2.155335 1_554
O19 S8 1.466288 1_555
O19 Ti3 2.209534 1_554
O20 S9 1.480795 1_555
O20 Ti3 2.113026 1_554
O21 S7 1.498210 1_555
O21 Ti4 2.041508 1_555
O22 Si0 1.685374 1_555
O22 Ti4 1.761463 1_555
O23 S6 1.502193 1_555
O23 Ti4 2.043501 1_555
O24 S11 1.484156 1_555
O24 Ti5 2.052271 1_556
O25 Si1 1.636058 1_555
O25 Ti5 1.798981 1_556
O26 Si2 1.631897 1_555
O26 Ti5 1.791376 1_556
O27 S12 1.490939 1_555
O27 Ti6 1.965285 1_555
O28 S13 1.480701 1_555
O28 Ti6 2.026209 1_555
O29 S14 1.469159 1_555
O29 Ti6 2.082209 1_555
O30 S14 1.501850 1_555
O30 Ti7 2.020247 1_555
O31 S12 1.509879 1_555
O31 Ti7 2.010314 1_555
O32 S13 1.499791 1_555
O32 Ti7 2.035962 1_555
O33 Si1 1.625175 1_555
O33 Ti8 1.815717 1_555
O34 Si2 1.626656 1_555
O34 Ti8 1.820862 1_555
O35 S11 1.466202 1_555
O35 Ti8 2.133884 1_555
O36 S14 1.445514 1_555
O36 Zn0 2.069857 1_455
O37 S12 1.449509 1_555
O37 Zn0 2.069329 1_555
O38 S13 1.445912 1_555
O38 Zn0 2.084730 1_445
O39 Si1 1.616121 1_555
O39 Ti0 1.799233 1_555
O40 Si2 1.614805 1_555
O40 Ti0 1.806826 1_565
O41 S11 1.470271 1_555
O41 Ti0 2.038667 1_665
O42 S6 1.488182 1_555
O42 Ti1 2.027130 1_545
O43 S7 1.484649 1_555
O43 Ti1 2.053155 1_445
O44 Si0 1.651934 1_555
O44 Ti1 1.784787 1_555
O45 S8 1.519583 1_555
O45 Ti2 1.950545 1_665
O46 S9 1.530136 1_555
O46 Ti2 1.926839 1_655
O47 S10 1.529951 1_555
O47 Ti2 1.922019 1_555
O48 S5 1.447623 1_545
O48 Zn1 2.087893 1_555
O49 S3 1.447797 1_555
O49 Zn1 2.076557 1_555
O50 S4 1.441007 1_555
O50 Zn1 2.105155 1_555
O51 S1 1.448623 1_555
O51 Zn2 2.061560 1_555
O52 S2 1.449703 1_555
O52 Zn2 2.058170 1_555
O53 S0 1.449816 1_555
O53 Zn2 2.044947 1_555
O54 S11 1.489081 1_555
O54 Ti3 1.956085 1_555
O55 Si1 1.630068 1_655
O55 Ti3 1.780624 1_555
O56 Si2 1.633663 1_545
O56 Ti3 1.776412 1_555
O57 S12 1.472869 1_545
O57 Ti4 2.143243 1_555
O58 S13 1.501429 1_555
O58 Ti4 2.002786 1_555
O59 S14 1.509956 1_655
O59 Ti4 1.976416 1_555
O60 S10 1.470695 1_555
O60 Ti5 2.073009 1_555
O61 S8 1.489777 1_455
O61 Ti5 1.993640 1_555
O62 S9 1.468863 1_565
O62 Ti5 2.113285 1_555
O63 S7 1.502354 1_565
O63 Ti6 1.928897 1_555
O64 Si0 1.648781 1_555
O64 Ti6 1.755931 1_555
O65 S6 1.496079 1_455
O65 Ti6 1.946549 1_555
O66 S0 1.529749 1_565
O66 Ti7 1.925677 1_555
O67 S1 1.529346 1_555
O67 Ti7 1.926772 1_555
O68 S2 1.524418 1_455
O68 Ti7 1.952203 1_555
O69 S3 1.480016 1_555
O69 Ti8 2.077540 1_555
O70 S4 1.506507 1_455
O70 Ti8 1.955753 1_555
O71 S5 1.480991 1_555
O71 Ti8 2.070720 1_555
