# generated using pymatgen
data_MgCr2(FeO4)2
_symmetry_space_group_name_H-M   'P 1'
_cell_length_a   5.12388912
_cell_length_b   5.10525175
_cell_length_c   6.14731600
_cell_angle_alpha   90.00000000
_cell_angle_beta   90.00000000
_cell_angle_gamma   65.45066465
_symmetry_Int_Tables_number   1
_chemical_formula_structural   MgCr2(FeO4)2
_chemical_formula_sum   'Mg1 Cr2 Fe2 O8'
_cell_volume   146.26981687
_cell_formula_units_Z   1
loop_
 _symmetry_equiv_pos_site_id
 _symmetry_equiv_pos_as_xyz
  1  'x, y, z'
loop_
 _atom_site_type_symbol
 _atom_site_label
 _atom_site_symmetry_multiplicity
 _atom_site_fract_x
 _atom_site_fract_y
 _atom_site_fract_z
 _atom_site_occupancy
  Mg  Mg0  1  0.66064300  0.66856100  0.25000000  1
  Cr  Cr0  1  0.33509200  0.33981200  0.25000000  1
  Cr  Cr1  1  0.64717200  0.64308200  0.75000000  1
  Fe  Fe0  1  0.00265300  0.00232700  0.99618200  1
  Fe  Fe1  1  0.00265300  0.00232700  0.50381800  1
  O  O0  1  0.23074800  0.74665900  0.25000000  1
  O  O1  1  0.26237100  0.78428000  0.75000000  1
  O  O2  1  0.21980600  0.21947300  0.02389500  1
  O  O3  1  0.21980600  0.21947300  0.47610500  1
  O  O4  1  0.78074400  0.77877200  0.52283400  1
  O  O5  1  0.78074400  0.77877200  0.97716600  1
  O  O6  1  0.73669600  0.23984000  0.25000000  1
  O  O7  1  0.79587000  0.25162300  0.75000000  1
loop_
_geom_bond_atom_site_label_1
_geom_bond_atom_site_label_2
_geom_bond_distance
_geom_bond_site_symmetry_2
Mg0 O5 1.948329 1_554
Mg0 O4 1.948329 1_555
Mg0 O6 2.057584 1_555
Mg0 O0 2.069111 1_555
Cr0 O3 1.720428 1_555
Cr0 O2 1.720428 1_555
Cr0 O6 1.903212 1_555
Cr0 O0 1.917614 1_555
Cr1 O1 1.796139 1_555
Cr1 O4 1.814486 1_555
Cr1 O5 1.814486 1_555
Cr1 O7 1.819127 1_555
Fe0 O2 1.876428 1_556
Fe0 O5 1.920267 1_445
Fe0 O7 1.977915 1_455
Fe0 O1 2.017277 1_545
Fe0 O0 2.058285 1_546
Fe0 O6 2.094951 1_456
Fe1 O3 1.876428 1_555
Fe1 O4 1.920267 1_445
Fe1 O7 1.977915 1_455
Fe1 O1 2.017277 1_545
Fe1 O0 2.058285 1_545
Fe1 O6 2.094951 1_455
