# generated using pymatgen
data_ErFeCo
_symmetry_space_group_name_H-M   'P 1'
_cell_length_a   5.05221957
_cell_length_b   5.05199209
_cell_length_c   5.05365685
_cell_angle_alpha   118.37992837
_cell_angle_beta   118.04027498
_cell_angle_gamma   93.13172813
_symmetry_Int_Tables_number   1
_chemical_formula_structural   ErFeCo
_chemical_formula_sum   'Er2 Fe2 Co2'
_cell_volume   93.52231062
_cell_formula_units_Z   2
loop_
 _symmetry_equiv_pos_site_id
 _symmetry_equiv_pos_as_xyz
  1  'x, y, z'
loop_
 _atom_site_type_symbol
 _atom_site_label
 _atom_site_symmetry_multiplicity
 _atom_site_fract_x
 _atom_site_fract_y
 _atom_site_fract_z
 _atom_site_occupancy
  Er  Er0  1  0.12071304  0.87075821  0.24998737  1
  Er  Er1  1  0.87928696  0.12924179  0.75001263  1
  Fe  Fe0  1  0.50000000  -0.00000000  -0.00000000  1
  Fe  Fe1  1  0.50000000  0.50000000  0.50000000  1
  Co  Co0  1  -0.00000000  0.50000000  0.50000000  1
  Co  Co1  1  0.50000000  0.50000000  -0.00000000  1
loop_
_geom_bond_atom_site_label_1
_geom_bond_atom_site_label_2
_geom_bond_distance
_geom_bond_site_symmetry_2
Er0 Fe1 2.934929 1_565
Er0 Fe0 2.935622 1_565
Er0 Fe0 3.023202 1_465
Er0 Fe1 3.023632 1_555
Er0 Fe1 3.023683 1_454
Er0 Fe0 3.024351 1_566
Er0 Er1 3.083927 1_454
Er0 Er1 3.084394 1_465
Er0 Er1 3.160648 1_565
Er0 Er1 3.160748 1_464
Er1 Fe1 2.934929 1_545
Er1 Fe0 2.935622 1_556
Er1 Fe0 3.023202 1_656
Er1 Fe1 3.023632 1_555
Er1 Fe1 3.023683 1_656
Er1 Fe0 3.024351 1_555
Fe0 Fe1 2.588023 1_555
Fe0 Fe1 2.588023 1_544
Co0 Fe0 2.525995 1_566
Co0 Fe0 2.525995 1_455
Co0 Fe1 2.526110 1_455
Co0 Fe1 2.526110 1_555
Co0 Co1 2.600933 1_455
Co0 Co1 2.600933 1_556
Co0 Er0 2.885497 1_555
Co0 Er1 2.885497 1_455
Co0 Er1 3.031824 1_465
Co0 Er0 3.031824 1_545
Co0 Er1 3.032974 1_454
Co0 Er0 3.032974 1_556
Co1 Fe0 2.525996 1_565
Co1 Fe0 2.525996 1_555
Co1 Fe1 2.526828 1_555
Co1 Fe1 2.526828 1_554
Co1 Er1 2.884895 1_454
Co1 Er0 2.884895 1_655
Co1 Er0 3.032350 1_555
Co1 Er1 3.032350 1_554
Co1 Er0 3.032396 1_544
Co1 Er1 3.032396 1_565
