# generated using pymatgen
data_MgW2(OF)4
_symmetry_space_group_name_H-M   'P 1'
_cell_length_a   7.78115199
_cell_length_b   3.85521624
_cell_length_c   6.71110228
_cell_angle_alpha   90.00000000
_cell_angle_beta   90.00000000
_cell_angle_gamma   89.95749218
_symmetry_Int_Tables_number   1
_chemical_formula_structural   MgW2(OF)4
_chemical_formula_sum   'Mg1 W2 O4 F4'
_cell_volume   201.31974843
_cell_formula_units_Z   1
loop_
 _symmetry_equiv_pos_site_id
 _symmetry_equiv_pos_as_xyz
  1  'x, y, z'
loop_
 _atom_site_type_symbol
 _atom_site_label
 _atom_site_symmetry_multiplicity
 _atom_site_fract_x
 _atom_site_fract_y
 _atom_site_fract_z
 _atom_site_occupancy
  Mg  Mg0  1  0.50987383  0.56402230  0.50000000  1
  W  W0  1  0.01309614  0.99303995  0.00000000  1
  W  W1  1  0.51302247  0.99303520  0.00000000  1
  O  O0  1  0.01264467  0.49540645  0.00000000  1
  O  O1  1  0.25608495  0.99368535  0.00000000  1
  O  O2  1  0.51200426  0.49306015  0.00000000  1
  O  O3  1  0.76965114  0.99321275  0.00000000  1
  F  F0  1  0.01371006  0.99889230  0.28776789  1
  F  F1  1  0.01371006  0.99889230  0.71223211  1
  F  F2  1  0.51181471  0.98837663  0.32183186  1
  F  F3  1  0.51181471  0.98837663  0.67816814  1
loop_
_geom_bond_atom_site_label_1
_geom_bond_atom_site_label_2
_geom_bond_distance
_geom_bond_site_symmetry_2
O0 W0 1.918491 1_555
O0 W0 1.936732 1_545
O1 W0 1.890736 1_555
O1 W1 1.999270 1_555
O2 W1 1.927534 1_555
O2 W1 1.927715 1_545
O3 W0 1.894282 1_655
O3 W1 1.996867 1_555
F0 W0 1.931377 1_555
F1 W0 1.931377 1_556
F2 Mg0 2.026425 1_555
F2 W1 2.159942 1_555
F2 Mg0 2.520894 1_565
F3 Mg0 2.026425 1_555
F3 W1 2.159942 1_556
F3 Mg0 2.520894 1_565
