# generated using pymatgen
data_MgMn6(O2F)4
_symmetry_space_group_name_H-M   'P 1'
_cell_length_a   5.20257473
_cell_length_b   7.61390570
_cell_length_c   5.73722587
_cell_angle_alpha   97.31531617
_cell_angle_beta   95.34453581
_cell_angle_gamma   86.96438084
_symmetry_Int_Tables_number   1
_chemical_formula_structural   MgMn6(O2F)4
_chemical_formula_sum   'Mg1 Mn6 O8 F4'
_cell_volume   224.23829830
_cell_formula_units_Z   1
loop_
 _symmetry_equiv_pos_site_id
 _symmetry_equiv_pos_as_xyz
  1  'x, y, z'
loop_
 _atom_site_type_symbol
 _atom_site_label
 _atom_site_symmetry_multiplicity
 _atom_site_fract_x
 _atom_site_fract_y
 _atom_site_fract_z
 _atom_site_occupancy
  Mg  Mg0  1  0.99699800  0.16017200  0.66024200  1
  Mn  Mn0  1  0.49148900  0.96490100  0.55020300  1
  Mn  Mn1  1  0.49565100  0.67605300  0.16387700  1
  Mn  Mn2  1  0.52864600  0.36193800  0.81426200  1
  Mn  Mn3  1  0.00689300  0.66921200  0.67186100  1
  Mn  Mn4  1  0.96767200  0.35464400  0.29571900  1
  Mn  Mn5  1  0.00811800  0.98861100  0.05177700  1
  O  O0  1  0.86861300  0.42243500  0.61314700  1
  O  O1  1  0.86618400  0.12179100  0.31738300  1
  O  O2  1  0.68997300  0.10711700  0.81162300  1
  O  O3  1  0.69413400  0.75530300  0.47794000  1
  O  O4  1  0.66600000  0.44668200  0.11585200  1
  O  O5  1  0.32200600  0.58173900  0.85174800  1
  O  O6  1  0.31625800  0.90102400  0.24044300  1
  O  O7  1  0.14874500  0.91407900  0.74192600  1
  F  F0  1  0.80707500  0.76221300  0.98352400  1
  F  F1  1  0.32674400  0.22513300  0.53608000  1
  F  F2  1  0.17455000  0.56272600  0.33864000  1
  F  F3  1  0.15203000  0.24922800  0.00185000  1
loop_
_geom_bond_atom_site_label_1
_geom_bond_atom_site_label_2
_geom_bond_distance
_geom_bond_site_symmetry_2
Mg0 O2 1.971050 1_555
Mg0 O1 2.010767 1_555
Mg0 O7 2.086091 1_645
Mg0 O0 2.114012 1_555
Mn0 O3 1.888091 1_555
Mn0 O6 1.936748 1_555
Mn0 O2 1.976013 1_565
Mn0 O7 2.255244 1_555
Mn1 O4 1.915810 1_555
Mn1 O6 1.927048 1_555
Mn1 O5 1.994608 1_554
Mn1 O3 2.029672 1_555
Mn2 O4 1.858779 1_556
Mn2 O5 1.940004 1_555
Mn2 O2 2.071571 1_555
Mn2 O0 2.296442 1_555
Mn3 O5 1.985080 1_555
Mn3 O3 2.012612 1_455
Mn3 O7 2.020347 1_555
Mn3 O0 2.024418 1_455
Mn4 O1 1.898675 1_555
Mn4 O0 1.938018 1_555
Mn4 O4 1.945551 1_555
Mn5 O1 1.905888 1_465
Mn5 O6 1.983354 1_555
Mn5 O7 1.989694 1_554
Mn5 O2 2.277211 1_464
F0 Mn5 2.039973 1_656
F0 Mn1 2.173436 1_556
F0 Mn3 2.173758 1_655
F1 Mg0 2.025428 1_455
F1 Mn2 2.028733 1_555
F1 Mn0 2.124885 1_545
F1 Mn4 2.456643 1_455
F2 Mn4 1.939328 1_455
F2 Mn3 2.216761 1_555
F2 Mn1 2.285959 1_555
F3 Mn4 2.069257 1_455
F3 Mg0 2.092003 1_454
F3 Mn5 2.218597 1_545
F3 Mn2 2.557341 1_554
