# generated using pymatgen
data_Na2CaZr3P4(SO12)2
_symmetry_space_group_name_H-M   'P 1'
_cell_length_a   8.96375403
_cell_length_b   8.96992025
_cell_length_c   23.66917892
_cell_angle_alpha   89.81817505
_cell_angle_beta   90.13594640
_cell_angle_gamma   120.01918305
_symmetry_Int_Tables_number   1
_chemical_formula_structural   Na2CaZr3P4(SO12)2
_chemical_formula_sum   'Na6 Ca3 Zr9 P12 S6 O72'
_cell_volume   1647.80565876
_cell_formula_units_Z   3
loop_
 _symmetry_equiv_pos_site_id
 _symmetry_equiv_pos_as_xyz
  1  'x, y, z'
loop_
 _atom_site_type_symbol
 _atom_site_label
 _atom_site_symmetry_multiplicity
 _atom_site_fract_x
 _atom_site_fract_y
 _atom_site_fract_z
 _atom_site_occupancy
  Na  Na0  1  0.00057202  0.99115507  0.50797863  1
  Na  Na1  1  0.00855924  0.99747272  0.00348786  1
  Na  Na2  1  0.66246904  0.32573779  0.83058623  1
  Na  Na3  1  0.66778596  0.33202254  0.33895296  1
  Na  Na4  1  0.32768873  0.66088137  0.17007195  1
  Na  Na5  1  0.34586300  0.66968462  0.66341700  1
  Ca  Ca0  1  0.99817669  0.99964520  0.64753148  1
  Ca  Ca1  1  0.00462018  0.99981335  0.14380961  1
  Ca  Ca2  1  0.33265817  0.66761924  0.31979066  1
  Zr  Zr0  1  0.00159152  0.00046423  0.35788747  1
  Zr  Zr1  1  0.00181341  0.00846344  0.85200123  1
  Zr  Zr2  1  0.65060981  0.32379127  0.68482110  1
  Zr  Zr3  1  0.66859107  0.34202456  0.18441602  1
  Zr  Zr4  1  0.66470010  0.33805269  0.97715508  1
  Zr  Zr5  1  0.66149561  0.33435593  0.48090859  1
  Zr  Zr6  1  0.32815653  0.66088354  0.01838493  1
  Zr  Zr7  1  0.34071862  0.67171184  0.51636381  1
  Zr  Zr8  1  0.33884035  0.66858315  0.81614106  1
  P  P0  1  0.29555554  0.29728104  0.75061285  1
  P  P1  1  0.70470958  0.00279934  0.75044854  1
  P  P2  1  0.37537574  0.03631760  0.58124823  1
  P  P3  1  0.66126102  0.62140850  0.58217537  1
  P  P4  1  0.95743322  0.61892413  0.08065463  1
  P  P5  1  0.38085706  0.33952153  0.08089054  1
  P  P6  1  0.62684363  0.67182012  0.91743002  1
  P  P7  1  0.04225253  0.37564860  0.91652583  1
  P  P8  1  0.33048496  0.95529475  0.91720090  1
  P  P9  1  0.63081612  0.96609993  0.41633264  1
  P  P10  1  0.33344740  0.37207626  0.41663851  1
  P  P11  1  0.03715630  0.66445523  0.41714921  1
  S  S0  1  0.29880744  0.00538390  0.24934632  1
  S  S1  1  0.70774602  0.70490619  0.24924384  1
  S  S2  1  0.99420720  0.29130852  0.24896057  1
  S  S3  1  0.99904100  0.70208999  0.75186953  1
  S  S4  1  0.95861603  0.34115232  0.58252386  1
  S  S5  1  0.65975952  0.04364262  0.08167368  1
  O  O0  1  0.21208686  0.02530990  0.30075854  1
  O  O1  1  0.81424811  0.79042089  0.30066577  1
  O  O2  1  0.97535638  0.18508242  0.30054367  1
  O  O3  1  0.20487452  0.18013658  0.80345180  1
  O  O4  1  0.97582221  0.78887942  0.80217535  1
  O  O5  1  0.82122522  0.02407904  0.80323874  1
  O  O6  1  0.77102188  0.96513975  0.69746159  1
  O  O7  1  0.19436840  0.22724748  0.69723592  1
  O  O8  1  0.03052102  0.80168664  0.70046802  1
  O  O9  1  0.78998183  0.80218570  0.19811585  1
  O  O10  1  0.00953212  0.20842026  0.19801389  1
  O  O11  1  0.19959202  0.98863095  0.19843830  1
  O  O12  1  0.87317179  0.35778470  0.63429472  1
  O  O13  1  0.48500737  0.12561770  0.63628216  1
  O  O14  1  0.64439432  0.51095775  0.63632907  1
  O  O15  1  0.86901919  0.50992340  0.13529467  1
  O  O16  1  0.64110600  0.12744205  0.13357980  1
  O  O17  1  0.48952760  0.35629364  0.13523171  1
  O  O18  1  0.47925970  0.32634029  0.02921859  1
  O  O19  1  0.84823255  0.51662577  0.02907357  1
  O  O20  1  0.67359684  0.14659834  0.03091635  1
  O  O21  1  0.47922771  0.14670293  0.53054942  1
  O  O22  1  0.67217275  0.52224396  0.53073109  1
  O  O23  1  0.85574443  0.32865550  0.53189383  1
  O  O24  1  0.53866206  0.69388726  0.97004047  1
  O  O25  1  0.15385932  0.46130367  0.96972974  1
  O  O26  1  0.30757097  0.84404812  0.97020817  1
  O  O27  1  0.54210287  0.84714435  0.46848425  1
  O  O28  1  0.30630614  0.46096121  0.46866756  1
  O  O29  1  0.15576557  0.69341939  0.46897302  1
  O  O30  1  0.10145365  0.63035280  0.36297998  1
  O  O31  1  0.52891903  0.90067113  0.36276841  1
  O  O32  1  0.36779065  0.47151641  0.36262742  1
  O  O33  1  0.12780203  0.48798825  0.86444675  1
  O  O34  1  0.35702279  0.87001535  0.86502587  1
  O  O35  1  0.51426429  0.64382276  0.86496702  1
  O  O36  1  0.02017328  0.83074379  0.41088642  1
  O  O37  1  0.81221672  0.98028722  0.41024633  1
  O  O38  1  0.16774684  0.18901316  0.41091548  1
  O  O39  1  0.02533802  0.19623169  0.91002677  1
  O  O40  1  0.16961862  0.97389065  0.90958517  1
  O  O41  1  0.80668101  0.83068562  0.90965822  1
  O  O42  1  0.97616028  0.18813969  0.58424951  1
  O  O43  1  0.20083643  0.02247364  0.58281279  1
  O  O44  1  0.81904360  0.79848679  0.58326409  1
  O  O45  1  0.97155651  0.79371929  0.08172298  1
  O  O46  1  0.81193352  0.02528629  0.08440407  1
  O  O47  1  0.20297845  0.18289748  0.08206819  1
  O  O48  1  0.69062685  0.16898972  0.74606322  1
  O  O49  1  0.47913076  0.31617570  0.74670979  1
  O  O50  1  0.84254909  0.52763600  0.74737620  1
  O  O51  1  0.69743498  0.52952814  0.24564725  1
  O  O52  1  0.83022807  0.30147912  0.24506600  1
  O  O53  1  0.47305661  0.16833534  0.24509935  1
  O  O54  1  0.64450182  0.50893789  0.92327252  1
  O  O55  1  0.86155254  0.35387290  0.92371304  1
  O  O56  1  0.49244449  0.13529513  0.92428570  1
  O  O57  1  0.66437719  0.14909584  0.42836896  1
  O  O58  1  0.48480920  0.33876814  0.42720242  1
  O  O59  1  0.85431036  0.51324836  0.42873507  1
  O  O60  1  0.37506171  0.50979742  0.07660334  1
  O  O61  1  0.13684681  0.63117873  0.07662664  1
  O  O62  1  0.49956977  0.87192876  0.07773697  1
  O  O63  1  0.36602543  0.85885865  0.57677015  1
  O  O64  1  0.49070162  0.62709521  0.57710569  1
  O  O65  1  0.12989273  0.50118589  0.57797083  1
  O  O66  1  0.32487068  0.85727395  0.25384390  1
  O  O67  1  0.53293197  0.67647897  0.25364136  1
  O  O68  1  0.14209054  0.46606883  0.25331944  1
  O  O69  1  0.32207823  0.47937973  0.76280438  1
  O  O70  1  0.15044549  0.67824945  0.76159977  1
  O  O71  1  0.52028928  0.84925795  0.76308615  1
loop_
_geom_bond_atom_site_label_1
_geom_bond_atom_site_label_2
_geom_bond_distance
_geom_bond_site_symmetry_2
Na0 O43 2.433564 1_565
Na0 O44 2.447496 1_455
Na0 O42 2.614944 1_465
Na0 O36 2.767369 1_555
Na0 O38 2.828926 1_565
Na0 O37 2.833621 1_455
Na1 O45 2.500845 1_455
Na1 O47 2.523255 1_565
Na1 O46 2.701066 1_465
Na1 O40 2.718957 1_554
Na1 O41 2.781775 1_454
Na1 O39 2.793390 1_564
Na2 O48 2.533434 1_555
Na2 O49 2.548341 1_555
Na2 O50 2.613770 1_555
Na2 O56 2.747087 1_555
Na2 O55 2.764263 1_555
Na2 O54 2.797947 1_555
Na3 O57 2.664685 1_555
Na3 O58 2.678282 1_555
Na3 O59 2.690625 1_555
Na3 O52 2.748078 1_555
Na3 O53 2.752331 1_555
Na3 O51 2.755615 1_555
Na4 O68 2.605509 1_555
Na4 O67 2.654007 1_555
Na4 O66 2.665041 1_555
Na4 O61 2.723791 1_555
Na4 O60 2.740547 1_555
Na4 O62 2.793787 1_555
Na5 O64 2.553202 1_555
Na5 O63 2.605934 1_555
Na5 O65 2.682451 1_555
Na5 O71 2.844490 1_555
Na5 O69 2.847101 1_555
Na5 O70 2.937670 1_555
Ca0 O6 2.239849 1_555
Ca0 O7 2.248959 1_665
Ca0 O44 2.292342 1_555
Ca0 O8 2.303532 1_655
Ca0 O43 2.308134 1_665
Ca0 O42 2.336146 1_565
Ca1 O11 2.213638 1_555
Ca1 O47 2.251537 1_565
Ca1 O9 2.254110 1_455
Ca1 O10 2.254291 1_565
Ca1 O45 2.265358 1_455
Ca1 O46 2.322453 1_465
Ca2 O32 2.182384 1_555
Ca2 O30 2.183242 1_555
Ca2 O31 2.196583 1_555
Ca2 O66 2.331692 1_555
Ca2 O67 2.355906 1_555
Ca2 O68 2.361572 1_555
O0 S0 1.503963 1_555
O0 Zr0 2.242246 1_555
O1 S1 1.499610 1_555
O1 Zr0 2.245840 1_665
O2 S2 1.503204 1_555
O2 Zr0 2.239144 1_655
O3 P0 1.571895 1_555
O3 Zr1 2.049152 1_555
O4 S3 1.495430 1_555
O4 Zr1 2.208830 1_665
O5 P1 1.576180 1_555
O5 Zr1 2.046716 1_655
O6 P1 1.499159 1_565
O7 P0 1.497646 1_555
O8 S3 1.449285 1_455
O9 S1 1.457123 1_555
O10 S2 1.460975 1_455
O11 S0 1.458685 1_565
O12 S4 1.493435 1_555
O12 Zr2 2.214391 1_555
O13 P2 1.586524 1_555
O13 Zr2 2.011944 1_555
O14 P3 1.578081 1_555
O14 Zr2 2.054295 1_555
O15 P4 1.574213 1_555
O15 Zr3 2.034494 1_555
O16 S5 1.494979 1_555
O16 Zr3 2.179938 1_555
O17 P5 1.573050 1_555
O17 Zr3 2.035599 1_555
O18 P5 1.548612 1_555
O18 Zr4 2.031456 1_554
O19 P4 1.547068 1_555
O19 Zr4 2.036794 1_554
O20 S5 1.480075 1_555
O20 Zr4 2.167368 1_554
O21 P2 1.537031 1_555
O21 Zr5 2.031749 1_555
O22 P3 1.542051 1_555
O22 Zr5 2.022589 1_555
O23 S4 1.480250 1_555
O23 Zr5 2.137621 1_555
O24 P6 1.541881 1_555
O24 Zr6 2.099199 1_556
O25 P7 1.551787 1_555
O25 Zr6 2.044028 1_556
O26 P8 1.549276 1_555
O26 Zr6 2.079460 1_556
O27 P9 1.562658 1_555
O27 Zr7 2.043350 1_555
O28 P10 1.553433 1_555
O28 Zr7 2.090870 1_555
O29 P11 1.556254 1_555
O29 Zr7 2.087453 1_555
O30 P11 1.500677 1_555
O31 P9 1.499646 1_555
O32 P10 1.498187 1_555
O33 P7 1.531783 1_555
O33 Zr8 2.107666 1_555
O34 P8 1.535015 1_555
O34 Zr8 2.085118 1_555
O35 P6 1.538127 1_555
O35 Zr8 2.048588 1_555
O36 P11 1.579776 1_555
O36 Zr0 2.039512 1_565
O37 P9 1.573172 1_555
O37 Zr0 2.037472 1_665
O38 P10 1.575093 1_555
O38 Zr0 2.034253 1_555
O39 P7 1.547252 1_555
O39 Zr1 2.103672 1_555
O40 P8 1.542344 1_555
O40 Zr1 2.161175 1_565
O41 P6 1.537649 1_555
O41 Zr1 2.161338 1_665
O42 S4 1.458002 1_555
O43 P2 1.506781 1_555
O44 P3 1.508716 1_555
O45 P4 1.508841 1_555
O46 S5 1.454704 1_555
O47 P5 1.508455 1_555
O48 P1 1.560827 1_555
O48 Zr2 2.154317 1_555
O49 P0 1.570534 1_555
O49 Zr2 2.101932 1_555
O50 S3 1.493902 1_555
O50 Zr2 2.313669 1_555
O51 S1 1.531617 1_555
O51 Zr3 2.138842 1_555
O52 S2 1.520135 1_555
O52 Zr3 2.192334 1_555
O53 S0 1.517120 1_555
O53 Zr3 2.197230 1_555
O54 P6 1.552038 1_555
O54 Zr4 2.067136 1_555
O55 P7 1.541174 1_655
O55 Zr4 2.119595 1_555
O56 P8 1.548496 1_545
O56 Zr4 2.110268 1_555
O57 P9 1.540948 1_545
O57 Zr5 2.089216 1_555
O58 P10 1.547942 1_555
O58 Zr5 2.044175 1_555
O59 P11 1.541612 1_655
O59 Zr5 2.075963 1_555
O60 P5 1.556987 1_555
O60 Zr6 2.113715 1_555
O61 P4 1.559269 1_455
O61 Zr6 2.112764 1_555
O62 S5 1.493395 1_565
O62 Zr6 2.239258 1_555
O63 P2 1.555506 1_565
O63 Zr7 2.132223 1_555
O64 P3 1.559331 1_555
O64 Zr7 2.135450 1_555
O65 S4 1.491301 1_455
O65 Zr7 2.268022 1_555
O66 S0 1.463031 1_565
O67 S1 1.460178 1_555
O68 S2 1.465044 1_455
O69 P0 1.556255 1_555
O69 Zr8 2.062560 1_555
O70 S3 1.493061 1_455
O70 Zr8 2.159006 1_555
O71 P1 1.562278 1_565
O71 Zr8 2.051375 1_555
