# generated using pymatgen
data_Ni(PO3)4
_symmetry_space_group_name_H-M   'P 1'
_cell_length_a   8.21207404
_cell_length_b   8.21207404
_cell_length_c   7.55901357
_cell_angle_alpha   78.18610627
_cell_angle_beta   78.18610627
_cell_angle_gamma   108.96305306
_symmetry_Int_Tables_number   1
_chemical_formula_structural   Ni(PO3)4
_chemical_formula_sum   'Ni2 P8 O24'
_cell_volume   451.17276071
_cell_formula_units_Z   2
loop_
 _symmetry_equiv_pos_site_id
 _symmetry_equiv_pos_as_xyz
  1  'x, y, z'
loop_
 _atom_site_type_symbol
 _atom_site_label
 _atom_site_symmetry_multiplicity
 _atom_site_fract_x
 _atom_site_fract_y
 _atom_site_fract_z
 _atom_site_occupancy
  Ni  Ni0  1  0.87031000  0.12837000  0.74360400  1
  Ni  Ni1  1  0.12837000  0.87031000  0.24360400  1
  P  P0  1  0.60155400  0.27119300  0.61594600  1
  P  P1  1  0.73603000  0.39286800  0.90042900  1
  P  P2  1  0.04633100  0.20876600  0.30979900  1
  P  P3  1  0.27119300  0.60155400  0.11594600  1
  P  P4  1  0.39286800  0.73603000  0.40042900  1
  P  P5  1  0.95224500  0.78915800  0.67888600  1
  P  P6  1  0.78915800  0.95224500  0.17888600  1
  P  P7  1  0.20876600  0.04633100  0.80979900  1
  O  O0  1  0.64879200  0.31866400  0.10413600  1
  O  O1  1  0.87101800  0.12767700  0.24459300  1
  O  O2  1  0.12767700  0.87101800  0.74459300  1
  O  O3  1  0.10829300  0.65559400  0.18369800  1
  O  O4  1  0.00387200  0.26672700  0.48734400  1
  O  O5  1  0.16262000  0.38819900  0.14373800  1
  O  O6  1  0.34668900  0.89288200  0.29658700  1
  O  O7  1  0.08390400  0.14812400  0.81780800  1
  O  O8  1  0.14812400  0.08390400  0.31780800  1
  O  O9  1  0.36664200  0.59069600  0.28325900  1
  O  O10  1  0.31866400  0.64879200  0.60413600  1
  O  O11  1  0.40223400  0.68936400  0.92866600  1
  O  O12  1  0.61141000  0.83594800  0.34527200  1
  O  O13  1  0.26672700  0.00387200  0.98734400  1
  O  O14  1  0.38819900  0.16262000  0.64373800  1
  O  O15  1  0.99582700  0.73176200  0.50091800  1
  O  O16  1  0.59069600  0.36664200  0.78325900  1
  O  O17  1  0.73176200  0.99582700  0.00091800  1
  O  O18  1  0.85154500  0.91505500  0.66933400  1
  O  O19  1  0.68936400  0.40223400  0.42866600  1
  O  O20  1  0.91505500  0.85154500  0.16933400  1
  O  O21  1  0.65559400  0.10829300  0.68369800  1
  O  O22  1  0.83594800  0.61141000  0.84527200  1
  O  O23  1  0.89288200  0.34668900  0.79658700  1
loop_
_geom_bond_atom_site_label_1
_geom_bond_atom_site_label_2
_geom_bond_distance
_geom_bond_site_symmetry_2
Ni0 O21 1.873475 1_555
Ni0 O23 1.875500 1_555
Ni0 O4 1.914452 1_655
Ni0 O18 1.915791 1_545
Ni0 O7 1.916458 1_655
Ni0 O17 1.919515 1_546
Ni1 O3 1.873475 1_555
Ni1 O6 1.875500 1_555
Ni1 O13 1.914452 1_564
Ni1 O20 1.915791 1_455
Ni1 O8 1.916458 1_565
Ni1 O15 1.919515 1_455
O0 P1 1.461503 1_554
O1 P2 1.600297 1_655
O1 P6 1.604489 1_545
O2 P7 1.600297 1_565
O2 P5 1.604489 1_455
O3 P3 1.564340 1_555
O4 P2 1.525480 1_555
O5 P2 1.579919 1_555
O5 P3 1.632854 1_555
O6 P4 1.563474 1_555
O7 P7 1.518624 1_555
O8 P2 1.518624 1_555
O9 P4 1.612185 1_555
O9 P3 1.620812 1_555
O10 P4 1.461503 1_555
O11 P3 1.461499 1_556
O12 P6 1.573223 1_555
O12 P4 1.632317 1_555
O13 P7 1.525480 1_555
O14 P7 1.579919 1_555
O14 P0 1.632854 1_555
O15 P5 1.527124 1_555
O16 P1 1.612185 1_555
O16 P0 1.620812 1_555
O17 P6 1.527124 1_555
O18 P5 1.519049 1_555
O19 P0 1.461499 1_555
O20 P6 1.519049 1_555
O21 P0 1.564340 1_555
O22 P5 1.573223 1_555
O22 P1 1.632317 1_555
O23 P1 1.563474 1_555
