# generated using pymatgen
data_MgMn8(OF)8
_symmetry_space_group_name_H-M   'P 1'
_cell_length_a   4.77905233
_cell_length_b   4.93676156
_cell_length_c   12.50900282
_cell_angle_alpha   89.91460672
_cell_angle_beta   89.83339833
_cell_angle_gamma   90.48909299
_symmetry_Int_Tables_number   1
_chemical_formula_structural   MgMn8(OF)8
_chemical_formula_sum   'Mg1 Mn8 O8 F8'
_cell_volume   295.11308784
_cell_formula_units_Z   1
loop_
 _symmetry_equiv_pos_site_id
 _symmetry_equiv_pos_as_xyz
  1  'x, y, z'
loop_
 _atom_site_type_symbol
 _atom_site_label
 _atom_site_symmetry_multiplicity
 _atom_site_fract_x
 _atom_site_fract_y
 _atom_site_fract_z
 _atom_site_occupancy
  Mg  Mg0  1  0.98471900  0.50374000  0.49943600  1
  Mn  Mn0  1  0.98619000  0.94277400  0.00132800  1
  Mn  Mn1  1  0.03954200  0.00410300  0.24373100  1
  Mn  Mn2  1  0.94619100  0.98440700  0.49930500  1
  Mn  Mn3  1  0.05802500  0.00731100  0.75616500  1
  Mn  Mn4  1  0.46975500  0.54751200  0.63530500  1
  Mn  Mn5  1  0.54090800  0.44168700  0.12237900  1
  Mn  Mn6  1  0.46637800  0.53666700  0.36256400  1
  Mn  Mn7  1  0.48470900  0.50911600  0.88017100  1
  O  O0  1  0.14838500  0.77777200  0.37589600  1
  O  O1  1  0.13937700  0.76462800  0.61438400  1
  O  O2  1  0.18758000  0.78651400  0.88452900  1
  O  O3  1  0.34372800  0.28738300  0.24932400  1
  O  O4  1  0.32529700  0.33698000  0.75217000  1
  O  O5  1  0.68841000  0.65406800  0.00416000  1
  O  O6  1  0.63145500  0.70072500  0.49586700  1
  O  O7  1  0.83389800  0.15590600  0.12416200  1
  F  F0  1  0.22852800  0.74357700  0.12838400  1
  F  F1  1  0.29392000  0.24424600  0.00241800  1
  F  F2  1  0.29756500  0.26651500  0.49742800  1
  F  F3  1  0.71915000  0.71946100  0.24572600  1
  F  F4  1  0.68551300  0.75890300  0.75216200  1
  F  F5  1  0.81535500  0.26546000  0.38324600  1
  F  F6  1  0.80873600  0.26560500  0.61397500  1
  F  F7  1  0.79335100  0.21161200  0.87578700  1
loop_
_geom_bond_atom_site_label_1
_geom_bond_atom_site_label_2
_geom_bond_distance
_geom_bond_site_symmetry_2
Mg0 O6 1.956086 1_555
Mg0 O1 2.065926 1_655
Mg0 O0 2.190606 1_655
Mn0 O2 1.914130 1_654
Mn0 O7 2.002277 1_565
Mn0 O5 2.005696 1_555
Mn1 O7 1.944827 1_455
Mn1 O3 2.010009 1_555
Mn1 O0 2.064385 1_545
Mn2 O1 2.030272 1_655
Mn2 O6 2.046997 1_555
Mn2 O0 2.090521 1_655
Mn3 O2 2.040067 1_545
Mn3 O4 2.060741 1_555
Mn3 O1 2.177668 1_545
Mn4 O4 1.916052 1_555
Mn4 O1 1.934093 1_555
Mn4 O6 2.046918 1_555
Mn5 O5 1.939011 1_555
Mn5 O3 1.991309 1_555
Mn5 O7 1.996337 1_555
Mn6 O0 1.945270 1_555
Mn6 O3 1.965279 1_555
Mn6 O6 2.014852 1_555
Mn7 O5 1.966088 1_556
Mn7 O4 1.966310 1_555
Mn7 O2 1.981847 1_555
F0 Mn5 2.119710 1_555
F0 Mn1 2.137661 1_565
F0 Mn0 2.204508 1_455
F1 Mn0 2.083471 1_445
F1 Mn5 2.142462 1_555
F1 Mn7 2.201175 1_554
F2 Mg0 1.907163 1_455
F2 Mn2 2.172496 1_445
F2 Mn6 2.289670 1_555
F2 Mn4 2.360517 1_555
F3 Mn1 2.069459 1_665
F3 Mn6 2.092101 1_555
F3 Mn5 2.231766 1_555
F4 Mn4 2.069777 1_555
F4 Mn3 2.153864 1_665
F4 Mn7 2.229482 1_555
F5 Mg0 2.036418 1_555
F5 Mn2 2.106622 1_545
F5 Mn6 2.163476 1_555
F5 Mn1 2.424418 1_655
F6 Mg0 2.028133 1_555
F6 Mn2 2.105277 1_545
F6 Mn4 2.160914 1_555
F6 Mn3 2.498086 1_655
F7 Mn7 2.091060 1_555
F7 Mn3 2.207155 1_655
F7 Mn0 2.258312 1_546
