# generated using pymatgen
data_LuGeRh
_symmetry_space_group_name_H-M   'P 1'
_cell_length_a   4.22364722
_cell_length_b   6.74326859
_cell_length_c   7.48031730
_cell_angle_alpha   90.00000000
_cell_angle_beta   90.00000000
_cell_angle_gamma   90.00000000
_symmetry_Int_Tables_number   1
_chemical_formula_structural   LuGeRh
_chemical_formula_sum   'Lu4 Ge4 Rh4'
_cell_volume   213.04832058
_cell_formula_units_Z   4
loop_
 _symmetry_equiv_pos_site_id
 _symmetry_equiv_pos_as_xyz
  1  'x, y, z'
loop_
 _atom_site_type_symbol
 _atom_site_label
 _atom_site_symmetry_multiplicity
 _atom_site_fract_x
 _atom_site_fract_y
 _atom_site_fract_z
 _atom_site_occupancy
  Lu  Lu0  1  0.25000000  0.00574478  0.19615887  1
  Lu  Lu1  1  0.75000000  0.99425522  0.80384113  1
  Lu  Lu2  1  0.25000000  0.50574478  0.30384113  1
  Lu  Lu3  1  0.75000000  0.49425522  0.69615887  1
  Ge  Ge0  1  0.25000000  0.28506888  0.89052448  1
  Ge  Ge1  1  0.75000000  0.71493112  0.10947552  1
  Ge  Ge2  1  0.25000000  0.78506888  0.60947552  1
  Ge  Ge3  1  0.75000000  0.21493112  0.39052448  1
  Rh  Rh0  1  0.75000000  0.84383383  0.43565641  1
  Rh  Rh1  1  0.25000000  0.15616617  0.56434359  1
  Rh  Rh2  1  0.75000000  0.34383383  0.06434359  1
  Rh  Rh3  1  0.25000000  0.65616617  0.93565641  1
loop_
_geom_bond_atom_site_label_1
_geom_bond_atom_site_label_2
_geom_bond_distance
_geom_bond_site_symmetry_2
Lu0 Rh1 2.934987 1_555
Lu0 Rh0 2.976807 1_445
Lu0 Rh0 2.976807 1_545
Lu0 Rh3 3.058444 1_544
Lu0 Rh2 3.260313 1_555
Lu0 Rh2 3.260313 1_455
Lu1 Rh0 2.934987 1_555
Lu1 Rh1 2.976807 1_665
Lu1 Rh1 2.976807 1_565
Lu1 Rh2 3.058444 1_566
Lu1 Rh3 3.260313 1_655
Lu1 Rh3 3.260313 1_555
Lu2 Rh3 2.934987 1_554
Lu2 Rh2 2.976807 1_555
Lu2 Rh2 2.976807 1_455
Lu2 Rh1 3.058444 1_555
Lu2 Rh0 3.260313 1_555
Lu2 Rh0 3.260313 1_455
Lu3 Rh2 2.934987 1_556
Lu3 Rh3 2.976807 1_655
Lu3 Rh3 2.976807 1_555
Lu3 Rh0 3.058444 1_555
Lu3 Rh1 3.260313 1_555
Lu3 Rh1 3.260313 1_655
Ge0 Rh2 2.511455 1_456
Ge0 Rh2 2.511455 1_556
Ge0 Rh3 2.525079 1_555
Ge0 Rh1 2.590144 1_555
Ge0 Lu3 2.926340 1_555
Ge0 Lu3 2.926340 1_455
Ge0 Lu1 2.953964 1_445
Ge0 Lu1 2.953964 1_545
Ge0 Lu0 2.962211 1_556
Ge1 Rh3 2.511455 1_654
Ge1 Rh3 2.511455 1_554
Ge1 Rh2 2.525079 1_555
Ge1 Rh0 2.590144 1_555
Ge1 Lu2 2.926340 1_555
Ge1 Lu2 2.926340 1_655
Ge1 Lu0 2.953964 1_565
Ge1 Lu0 2.953964 1_665
Ge1 Lu1 2.962211 1_554
Ge2 Rh0 2.511455 1_555
Ge2 Rh0 2.511455 1_455
Ge2 Rh1 2.525079 1_565
Ge2 Rh3 2.590144 1_555
Ge2 Lu1 2.926340 1_455
Ge2 Lu1 2.926340 1_555
Ge2 Lu3 2.953964 1_455
Ge2 Lu3 2.953964 1_555
Ge2 Lu2 2.962211 1_555
Ge3 Rh1 2.511455 1_655
Ge3 Rh1 2.511455 1_555
Ge3 Rh0 2.525079 1_545
Ge3 Rh2 2.590144 1_555
Ge3 Lu0 2.926340 1_555
Ge3 Lu0 2.926340 1_655
Ge3 Lu2 2.953964 1_555
Ge3 Lu2 2.953964 1_655
Ge3 Lu3 2.962211 1_555
