# generated using pymatgen
data_Y(MnSn)6
_symmetry_space_group_name_H-M   'P 1'
_cell_length_a   5.68765030
_cell_length_b   5.68762822
_cell_length_c   9.17309658
_cell_angle_alpha   90.00000000
_cell_angle_beta   90.00000000
_cell_angle_gamma   120.00009094
_symmetry_Int_Tables_number   1
_chemical_formula_structural   Y(MnSn)6
_chemical_formula_sum   'Y1 Mn6 Sn6'
_cell_volume   256.98648647
_cell_formula_units_Z   1
loop_
 _symmetry_equiv_pos_site_id
 _symmetry_equiv_pos_as_xyz
  1  'x, y, z'
loop_
 _atom_site_type_symbol
 _atom_site_label
 _atom_site_symmetry_multiplicity
 _atom_site_fract_x
 _atom_site_fract_y
 _atom_site_fract_z
 _atom_site_occupancy
  Y  Y0  1  -0.00000000  0.00000000  0.00000000  1
  Mn  Mn0  1  0.50000000  0.00000000  0.75310948  1
  Mn  Mn1  1  -0.00000000  0.50000000  0.24689052  1
  Mn  Mn2  1  0.50000000  0.00000000  0.24689052  1
  Mn  Mn3  1  0.50000000  0.50000000  0.24689052  1
  Mn  Mn4  1  0.50000000  0.50000000  0.75310948  1
  Mn  Mn5  1  -0.00000000  0.50000000  0.75310948  1
  Sn  Sn0  1  0.33333500  0.66666700  0.50000000  1
  Sn  Sn1  1  0.66666500  0.33333300  0.50000000  1
  Sn  Sn2  1  0.33333200  0.66666500  0.00000000  1
  Sn  Sn3  1  0.66666800  0.33333500  0.00000000  1
  Sn  Sn4  1  -0.00000000  -0.00000000  0.33572338  1
  Sn  Sn5  1  0.00000000  0.00000000  0.66427662  1
loop_
_geom_bond_atom_site_label_1
_geom_bond_atom_site_label_2
_geom_bond_distance
_geom_bond_site_symmetry_2
Mn0 Sn3 2.797298 1_556
Mn0 Sn2 2.797298 1_546
Mn0 Sn1 2.843676 1_555
Mn0 Sn0 2.843676 1_545
Mn0 Mn4 2.843814 1_555
Mn0 Mn4 2.843814 1_545
Mn0 Mn5 2.843816 1_655
Mn0 Mn5 2.843816 1_545
Mn0 Sn5 2.958270 1_655
Mn0 Sn5 2.958270 1_555
Mn1 Sn2 2.797293 1_555
Mn1 Sn3 2.797293 1_455
Mn1 Sn0 2.843685 1_555
Mn1 Sn1 2.843685 1_455
Mn1 Mn2 2.843816 1_565
Mn1 Mn2 2.843816 1_455
Mn1 Mn3 2.843825 1_455
Mn1 Mn3 2.843825 1_555
Mn1 Sn4 2.958259 1_565
Mn1 Sn4 2.958259 1_555
Mn2 Sn3 2.797298 1_555
Mn2 Sn2 2.797298 1_545
Mn2 Sn1 2.843676 1_555
Mn2 Sn0 2.843676 1_545
Mn2 Mn3 2.843814 1_545
Mn2 Mn3 2.843814 1_555
Mn2 Sn4 2.958270 1_655
Mn2 Sn4 2.958270 1_555
Mn3 Sn3 2.797296 1_555
Mn3 Sn2 2.797296 1_555
Mn3 Sn0 2.843676 1_555
Mn3 Sn1 2.843676 1_555
Mn3 Sn4 2.958260 1_665
Mn3 Sn4 2.958260 1_555
Mn4 Sn3 2.797296 1_556
Mn4 Sn2 2.797296 1_556
Mn4 Sn0 2.843676 1_555
Mn4 Sn1 2.843676 1_555
Mn4 Mn5 2.843825 1_655
Mn4 Mn5 2.843825 1_555
Mn4 Sn5 2.958260 1_555
Mn4 Sn5 2.958260 1_665
Mn5 Sn2 2.797293 1_556
Mn5 Sn3 2.797293 1_456
Mn5 Sn0 2.843685 1_555
Mn5 Sn1 2.843685 1_455
Mn5 Sn5 2.958259 1_565
Mn5 Sn5 2.958259 1_555
Sn0 Sn1 3.283747 1_565
Sn0 Sn1 3.283748 1_555
Sn0 Sn1 3.283780 1_455
Sn2 Y0 3.283742 1_555
Sn2 Sn3 3.283750 1_455
Sn2 Sn3 3.283758 1_555
Sn2 Y0 3.283763 1_565
Sn2 Sn3 3.283767 1_565
Sn2 Y0 3.283770 1_665
Sn3 Y0 3.283742 1_665
Sn3 Y0 3.283763 1_655
Sn3 Y0 3.283770 1_555
Sn4 Sn5 3.013851 1_555
Sn4 Y0 3.079623 1_555
Sn5 Y0 3.079623 1_556
