# generated using pymatgen
data_Na3MgNbSi(PO6)2
_symmetry_space_group_name_H-M   'P 1'
_cell_length_a   15.64199141
_cell_length_b   9.00865163
_cell_length_c   8.92435934
_cell_angle_alpha   90.00000000
_cell_angle_beta   124.41998812
_cell_angle_gamma   90.00000000
_symmetry_Int_Tables_number   1
_chemical_formula_structural   Na3MgNbSi(PO6)2
_chemical_formula_sum   'Na12 Mg4 Nb4 Si4 P8 O48'
_cell_volume   1037.38221612
_cell_formula_units_Z   4
loop_
 _symmetry_equiv_pos_site_id
 _symmetry_equiv_pos_as_xyz
  1  'x, y, z'
loop_
 _atom_site_type_symbol
 _atom_site_label
 _atom_site_symmetry_multiplicity
 _atom_site_fract_x
 _atom_site_fract_y
 _atom_site_fract_z
 _atom_site_occupancy
  Na  Na0  1  0.25059213  0.72629298  0.98218726  1
  Na  Na1  1  0.75059213  0.77370702  0.48218726  1
  Na  Na2  1  0.75059213  0.22629298  0.98218726  1
  Na  Na3  1  0.25059213  0.27370702  0.48218726  1
  Na  Na4  1  0.50799317  0.09800430  0.75476390  1
  Na  Na5  1  0.50799317  0.90199570  0.25476390  1
  Na  Na6  1  0.00799317  0.59800430  0.75476390  1
  Na  Na7  1  0.00799317  0.40199570  0.25476390  1
  Na  Na8  1  0.18212686  0.92791344  0.30006177  1
  Na  Na9  1  0.18212686  0.07208656  0.80006177  1
  Na  Na10  1  0.68212686  0.42791344  0.30006177  1
  Na  Na11  1  0.68212686  0.57208656  0.80006177  1
  Mg  Mg0  1  0.10328000  0.74692358  0.56221135  1
  Mg  Mg1  1  0.10328000  0.25307642  0.06221135  1
  Mg  Mg2  1  0.60328000  0.24692358  0.56221135  1
  Mg  Mg3  1  0.60328000  0.75307642  0.06221135  1
  Nb  Nb0  1  0.89568955  0.75570589  0.93720131  1
  Nb  Nb1  1  0.89568955  0.24429411  0.43720131  1
  Nb  Nb2  1  0.39568955  0.25570589  0.93720131  1
  Nb  Nb3  1  0.39568955  0.74429411  0.43720131  1
  Si  Si0  1  0.64815416  0.89472579  0.75008916  1
  Si  Si1  1  0.64815416  0.10527421  0.25008916  1
  Si  Si2  1  0.14815416  0.39472579  0.75008916  1
  Si  Si3  1  0.14815416  0.60527421  0.25008916  1
  P  P0  1  0.00023771  0.95766362  0.75978408  1
  P  P1  1  0.00023771  0.04233638  0.25978408  1
  P  P2  1  0.50023771  0.45766362  0.75978408  1
  P  P3  1  0.50023771  0.54233638  0.25978408  1
  P  P4  1  0.35406372  0.89729611  0.76138796  1
  P  P5  1  0.35406372  0.10270389  0.26138796  1
  P  P6  1  0.85406372  0.39729611  0.76138796  1
  P  P7  1  0.85406372  0.60270389  0.26138796  1
  O  O0  1  0.14991905  0.57180556  0.73765326  1
  O  O1  1  0.85268034  0.57440399  0.75508235  1
  O  O2  1  0.85268034  0.42559601  0.25508235  1
  O  O3  1  0.14991905  0.42819444  0.23765326  1
  O  O4  1  0.64991905  0.07180556  0.73765326  1
  O  O5  1  0.35268034  0.07440399  0.75508235  1
  O  O6  1  0.35268034  0.92559601  0.25508235  1
  O  O7  1  0.64991905  0.92819444  0.23765326  1
  O  O8  1  0.43752201  0.56713547  0.58932860  1
  O  O9  1  0.56133839  0.54921906  0.93120913  1
  O  O10  1  0.56133839  0.45078094  0.43120913  1
  O  O11  1  0.43752201  0.43286453  0.08932860  1
  O  O12  1  0.93752201  0.06713547  0.58932860  1
  O  O13  1  0.06133839  0.04921906  0.93120913  1
  O  O14  1  0.06133839  0.95078094  0.43120913  1
  O  O15  1  0.93752201  0.93286453  0.08932860  1
  O  O16  1  0.25570438  0.84941980  0.74459802  1
  O  O17  1  0.74591233  0.80890833  0.75691271  1
  O  O18  1  0.74591233  0.19109167  0.25691271  1
  O  O19  1  0.25570438  0.15058020  0.24459802  1
  O  O20  1  0.75570438  0.34941980  0.74459802  1
  O  O21  1  0.24591233  0.30890833  0.75691271  1
  O  O22  1  0.24591233  0.69109167  0.25691271  1
  O  O23  1  0.75570438  0.65058020  0.24459802  1
  O  O24  1  0.35474769  0.85674385  0.58606065  1
  O  O25  1  0.64520409  0.83106689  0.91185554  1
  O  O26  1  0.64520409  0.16893311  0.41185554  1
  O  O27  1  0.35474769  0.14325615  0.08606065  1
  O  O28  1  0.85474769  0.35674385  0.58606065  1
  O  O29  1  0.14520409  0.33106689  0.91185554  1
  O  O30  1  0.14520409  0.66893311  0.41185554  1
  O  O31  1  0.85474769  0.64325615  0.08606065  1
  O  O32  1  0.45327170  0.84218528  0.93020606  1
  O  O33  1  0.53552037  0.82417439  0.55886370  1
  O  O34  1  0.53552037  0.17582561  0.05886370  1
  O  O35  1  0.45327170  0.15781472  0.43020606  1
  O  O36  1  0.95327170  0.34218528  0.93020606  1
  O  O37  1  0.03552037  0.32417439  0.55886370  1
  O  O38  1  0.03552037  0.67582561  0.05886370  1
  O  O39  1  0.95327170  0.65781472  0.43020606  1
  O  O40  1  0.07181387  0.85735478  0.73971346  1
  O  O41  1  0.91422845  0.85995962  0.75082972  1
  O  O42  1  0.91422845  0.14004038  0.25082972  1
  O  O43  1  0.07181387  0.14264522  0.23971346  1
  O  O44  1  0.57181387  0.35735478  0.73971346  1
  O  O45  1  0.41422845  0.35995962  0.75082972  1
  O  O46  1  0.41422845  0.64004038  0.25082972  1
  O  O47  1  0.57181387  0.64264522  0.23971346  1
loop_
_geom_bond_atom_site_label_1
_geom_bond_atom_site_label_2
_geom_bond_distance
_geom_bond_site_symmetry_2
Na0 O0 2.300889 1_555
Na0 O16 2.433973 1_555
Na0 O46 2.442480 1_556
Na0 O22 2.513938 1_556
Na0 O40 2.656250 1_555
Na0 O6 2.703383 1_556
Na1 O7 2.300889 1_555
Na1 O23 2.433973 1_555
Na1 O41 2.442480 1_555
Na1 O17 2.513938 1_555
Na1 O47 2.656250 1_555
Na1 O1 2.703383 1_555
Na2 O4 2.300889 1_555
Na2 O20 2.433973 1_555
Na2 O42 2.442480 1_556
Na2 O18 2.513938 1_556
Na2 O44 2.656250 1_555
Na2 O2 2.703383 1_556
Na3 O3 2.300889 1_555
Na3 O19 2.433973 1_555
Na3 O45 2.442480 1_555
Na3 O21 2.513938 1_555
Na3 O43 2.656250 1_555
Na3 O5 2.703383 1_555
Na4 O4 2.321783 1_555
Na4 O5 2.440289 1_555
Na4 O35 2.570935 1_555
Na4 O44 2.573898 1_555
Na4 O34 2.592502 1_556
Na4 O45 2.768228 1_555
Na5 O7 2.321783 1_555
Na5 O6 2.440289 1_555
Na5 O32 2.570935 1_554
Na5 O47 2.573898 1_555
Na5 O33 2.592502 1_555
Na5 O46 2.768228 1_555
Na6 O0 2.321783 1_555
Na6 O1 2.440289 1_455
Na6 O39 2.570935 1_455
Na6 O40 2.573898 1_555
Na6 O38 2.592502 1_556
Na6 O41 2.768228 1_455
Na7 O3 2.321783 1_555
Na7 O2 2.440289 1_455
Na7 O36 2.570935 1_454
Na7 O43 2.573898 1_555
Na7 O37 2.592502 1_555
Na7 O42 2.768228 1_455
Na8 O43 2.441093 1_565
Na8 O22 2.475820 1_555
Na8 O19 2.497465 1_565
Na8 O24 2.534792 1_555
Na8 O30 2.724617 1_555
Na8 O14 2.735315 1_555
Na8 O6 2.913649 1_555
Na8 O13 2.927223 1_564
Na9 O40 2.441093 1_545
Na9 O21 2.475820 1_555
Na9 O16 2.497465 1_545
Na9 O27 2.534792 1_556
Na9 O29 2.724617 1_555
Na9 O13 2.735315 1_555
Na9 O5 2.913649 1_555
Na9 O14 2.927223 1_545
Na10 O47 2.441093 1_555
Na10 O18 2.475820 1_555
Na10 O23 2.497465 1_555
Na10 O28 2.534792 1_555
Na10 O26 2.724617 1_555
Na10 O10 2.735315 1_555
Na10 O2 2.913649 1_555
Na10 O9 2.927223 1_554
Na11 O44 2.441093 1_555
Na11 O17 2.475820 1_555
Na11 O20 2.497465 1_555
Na11 O31 2.534792 1_556
Na11 O25 2.724617 1_555
Na11 O9 2.735315 1_555
Na11 O1 2.913649 1_555
Na11 O10 2.927223 1_555
Mg0 O30 1.928461 1_555
Mg0 O0 2.044774 1_555
Mg0 O14 2.074316 1_555
Mg0 O39 2.100706 1_455
Mg0 O40 2.150055 1_555
Mg0 O16 2.190710 1_555
Mg1 O29 1.928461 1_554
Mg1 O3 2.044774 1_555
Mg1 O13 2.074316 1_554
Mg1 O36 2.100706 1_454
Mg1 O43 2.150055 1_555
Mg1 O19 2.190710 1_555
Mg2 O26 1.928461 1_555
Mg2 O4 2.044774 1_555
Mg2 O10 2.074316 1_555
Mg2 O35 2.100706 1_555
Mg2 O44 2.150055 1_555
Mg2 O20 2.190710 1_555
Mg3 O25 1.928461 1_554
Mg3 O7 2.044774 1_555
Mg3 O9 2.074316 1_554
Mg3 O32 2.100706 1_554
Mg3 O47 2.150055 1_555
Mg3 O23 2.190710 1_555
Nb0 O38 1.948322 1_656
Nb0 O15 1.952981 1_556
Nb0 O17 2.011415 1_555
Nb0 O31 2.040340 1_556
Nb0 O41 2.068288 1_555
Nb0 O1 2.127365 1_555
Nb1 O37 1.948322 1_655
Nb1 O12 1.952981 1_555
Nb1 O18 2.011415 1_555
Nb1 O28 2.040340 1_555
Nb1 O42 2.068288 1_555
Nb1 O2 2.127365 1_555
Nb2 O34 1.948322 1_556
Nb2 O11 1.952981 1_556
Nb2 O21 2.011415 1_555
Nb2 O27 2.040340 1_556
Nb2 O45 2.068288 1_555
Nb2 O5 2.127365 1_555
Nb3 O33 1.948322 1_555
Nb3 O8 1.952981 1_555
Nb3 O22 2.011415 1_555
Nb3 O24 2.040340 1_555
Nb3 O46 2.068288 1_555
Nb3 O6 2.127365 1_555
O0 Si2 1.600427 1_555
O1 P6 1.596211 1_555
O2 P7 1.596211 1_555
O3 Si3 1.600427 1_555
O4 Si0 1.600427 1_545
O5 P4 1.596211 1_545
O6 P5 1.596211 1_565
O7 Si1 1.600427 1_565
O8 P2 1.600607 1_555
O9 P2 1.510369 1_555
O10 P3 1.510369 1_555
O11 P3 1.600607 1_555
O12 P0 1.600607 1_645
O13 P0 1.510369 1_545
O14 P1 1.510369 1_565
O15 P1 1.600607 1_665
O16 P4 1.521494 1_555
O17 Si0 1.683558 1_555
O18 Si1 1.683558 1_555
O19 P5 1.521494 1_555
O20 P6 1.521494 1_555
O21 Si2 1.683558 1_555
O22 Si3 1.683558 1_555
O23 P7 1.521494 1_555
O24 P4 1.612679 1_555
O25 Si0 1.578125 1_555
O26 Si1 1.578125 1_555
O27 P5 1.612679 1_555
O28 P6 1.612679 1_555
O29 Si2 1.578125 1_555
O30 Si3 1.578125 1_555
O31 P7 1.612679 1_555
O32 P4 1.510415 1_555
O33 Si0 1.738178 1_555
O34 Si1 1.738178 1_555
O35 P5 1.510415 1_555
O36 P6 1.510415 1_555
O37 Si2 1.738178 1_555
O38 Si3 1.738178 1_555
O39 P7 1.510415 1_555
O40 P0 1.526061 1_555
O41 P0 1.571479 1_655
O42 P1 1.571479 1_655
O43 P1 1.526061 1_555
O44 P2 1.526061 1_555
O45 P2 1.571479 1_555
O46 P3 1.571479 1_555
O47 P3 1.526061 1_555
