# generated using pymatgen
data_Na4Mg(CoO3)2
_symmetry_space_group_name_H-M   'P 1'
_cell_length_a   6.11102640
_cell_length_b   6.05236752
_cell_length_c   6.42567543
_cell_angle_alpha   86.51171893
_cell_angle_beta   116.62685475
_cell_angle_gamma   62.37895598
_symmetry_Int_Tables_number   1
_chemical_formula_structural   Na4Mg(CoO3)2
_chemical_formula_sum   'Na4 Mg1 Co2 O6'
_cell_volume   177.08617551
_cell_formula_units_Z   1
loop_
 _symmetry_equiv_pos_site_id
 _symmetry_equiv_pos_as_xyz
  1  'x, y, z'
loop_
 _atom_site_type_symbol
 _atom_site_label
 _atom_site_symmetry_multiplicity
 _atom_site_fract_x
 _atom_site_fract_y
 _atom_site_fract_z
 _atom_site_occupancy
  Na  Na0  1  0.10619687  0.18378458  0.50218977  1
  Na  Na1  1  0.90460226  0.80410973  0.45096169  1
  Na  Na2  1  0.41883931  0.43810660  0.44792867  1
  Na  Na3  1  -0.07128585  0.19845973  0.98855261  1
  Mg  Mg0  1  0.75428084  0.72767741  0.83441334  1
  Co  Co0  1  0.54271445  0.64870224  0.07207368  1
  Co  Co1  1  0.39382012  0.23408460  -0.04777888  1
  O  O0  1  0.39237760  0.71325198  0.72940601  1
  O  O1  1  -0.06016976  0.54239429  0.18877223  1
  O  O2  1  0.41136268  0.94998645  0.15157769  1
  O  O3  1  0.00087220  0.46272031  0.74263673  1
  O  O4  1  0.58755451  0.10388332  0.78424387  1
  O  O5  1  0.63133477  0.30533877  0.21454658  1
loop_
_geom_bond_atom_site_label_1
_geom_bond_atom_site_label_2
_geom_bond_distance
_geom_bond_site_symmetry_2
Na0 O1 2.320996 1_555
Na0 O5 2.329322 1_455
Na0 O3 2.419242 1_555
Na0 O0 2.426425 1_545
Na0 O4 2.442771 1_555
Na1 O3 2.353997 1_655
Na1 O2 2.386177 1_555
Na1 O1 2.393201 1_655
Na1 O0 2.443095 1_655
Na1 O5 2.601385 1_565
Na2 O4 2.315613 1_555
Na2 O5 2.346385 1_555
Na2 O1 2.351532 1_555
Na2 O0 2.539612 1_555
Na3 O2 2.232554 1_546
Na3 O4 2.267676 1_455
Na3 O3 2.494088 1_555
Na3 O1 2.524208 1_556
Na3 O5 2.686923 1_456
Na3 O0 2.868892 1_455
Mg0 O4 1.947206 1_565
Mg0 O3 1.964976 1_655
Mg0 O1 1.980890 1_656
Mg0 O0 2.050046 1_555
Co0 O2 1.831425 1_555
Co0 O0 1.895834 1_554
Co0 O1 1.930770 1_655
Co0 O5 1.931494 1_555
Co1 O3 1.813337 1_554
Co1 O4 1.889852 1_554
Co1 O5 1.899963 1_555
Co1 O2 2.011708 1_545
