# generated using pymatgen
data_MgNb2(PS)2
_symmetry_space_group_name_H-M   'P 1'
_cell_length_a   3.34000536
_cell_length_b   6.85613858
_cell_length_c   6.93271282
_cell_angle_alpha   119.63529821
_cell_angle_beta   103.93891907
_cell_angle_gamma   89.99999894
_symmetry_Int_Tables_number   1
_chemical_formula_structural   MgNb2(PS)2
_chemical_formula_sum   'Mg1 Nb2 P2 S2'
_cell_volume   132.58404865
_cell_formula_units_Z   1
loop_
 _symmetry_equiv_pos_site_id
 _symmetry_equiv_pos_as_xyz
  1  'x, y, z'
loop_
 _atom_site_type_symbol
 _atom_site_label
 _atom_site_symmetry_multiplicity
 _atom_site_fract_x
 _atom_site_fract_y
 _atom_site_fract_z
 _atom_site_occupancy
  Mg  Mg0  1  0.00000000  0.00000000  -0.00000000  1
  Nb  Nb0  1  0.87476181  0.37476181  0.74952562  1
  Nb  Nb1  1  0.12523819  0.62523819  0.25047438  1
  P  P0  1  0.50000000  0.70071454  0.00000000  1
  P  P1  1  0.50000000  0.29928546  1.00000000  1
  S  S0  1  0.21689833  0.21689833  0.43379466  1
  S  S1  1  0.78310167  0.78310167  0.56620534  1
loop_
_geom_bond_atom_site_label_1
_geom_bond_atom_site_label_2
_geom_bond_distance
_geom_bond_site_symmetry_2
Mg0 S1 2.511590 1_444
Mg0 S0 2.511590 1_555
Mg0 P0 2.645634 1_545
Mg0 P1 2.645634 1_454
Mg0 P0 2.645634 1_445
Mg0 P1 2.645634 1_554
Nb0 S0 2.475996 1_555
Nb0 S0 2.476005 1_655
Nb0 P1 2.604935 1_555
Nb0 P1 2.604939 1_655
Nb0 P0 2.604942 1_556
Nb0 P0 2.604946 1_656
Nb1 S1 2.475996 1_555
Nb1 S1 2.476005 1_455
Nb1 P0 2.604935 1_555
Nb1 P0 2.604939 1_455
Nb1 P1 2.604942 1_554
Nb1 P1 2.604946 1_454
