# generated using pymatgen
data_BiPt
_symmetry_space_group_name_H-M   'P 1'
_cell_length_a   3.84262760
_cell_length_b   3.84262760
_cell_length_c   7.48304400
_cell_angle_alpha   90.00000000
_cell_angle_beta   90.00000000
_cell_angle_gamma   119.99999306
_symmetry_Int_Tables_number   1
_chemical_formula_structural   BiPt
_chemical_formula_sum   'Bi2 Pt2'
_cell_volume   95.68977994
_cell_formula_units_Z   2
loop_
 _symmetry_equiv_pos_site_id
 _symmetry_equiv_pos_as_xyz
  1  'x, y, z'
loop_
 _atom_site_type_symbol
 _atom_site_label
 _atom_site_symmetry_multiplicity
 _atom_site_fract_x
 _atom_site_fract_y
 _atom_site_fract_z
 _atom_site_occupancy
  Bi  Bi0  1  0.00000000  0.00000000  0.50000000  1
  Bi  Bi1  1  0.00000000  0.00000000  0.00000000  1
  Pt  Pt0  1  0.66666700  0.33333300  0.75000000  1
  Pt  Pt1  1  0.33333300  0.66666700  0.25000000  1
loop_
_geom_bond_atom_site_label_1
_geom_bond_atom_site_label_2
_geom_bond_distance
_geom_bond_site_symmetry_2
Bi0 Pt0 2.902011 1_455
Bi0 Pt1 2.902011 1_545
Bi0 Pt0 2.902013 1_555
Bi0 Pt0 2.902013 1_445
Bi0 Pt1 2.902013 1_555
Bi0 Pt1 2.902013 1_445
Bi1 Pt0 2.902011 1_454
Bi1 Pt1 2.902011 1_545
Bi1 Pt1 2.902013 1_555
Bi1 Pt0 2.902013 1_444
Bi1 Pt1 2.902013 1_445
Bi1 Pt0 2.902013 1_554
