# generated using pymatgen
data_Ba2Tb2MgTi2Cu2O11
_symmetry_space_group_name_H-M   'P 1'
_cell_length_a   3.95848031
_cell_length_b   3.95848031
_cell_length_c   17.49930227
_cell_angle_alpha   90.00000000
_cell_angle_beta   90.00000000
_cell_angle_gamma   90.00000000
_symmetry_Int_Tables_number   1
_chemical_formula_structural   Ba2Tb2MgTi2Cu2O11
_chemical_formula_sum   'Ba2 Tb2 Mg1 Ti2 Cu2 O11'
_cell_volume   274.20647825
_cell_formula_units_Z   1
loop_
 _symmetry_equiv_pos_site_id
 _symmetry_equiv_pos_as_xyz
  1  'x, y, z'
loop_
 _atom_site_type_symbol
 _atom_site_label
 _atom_site_symmetry_multiplicity
 _atom_site_fract_x
 _atom_site_fract_y
 _atom_site_fract_z
 _atom_site_occupancy
  Ba  Ba0  1  0.50000000  0.50000000  0.21667838  1
  Ba  Ba1  1  0.50000000  0.50000000  0.82323407  1
  Tb  Tb0  1  0.50000000  0.50000000  0.01833424  1
  Tb  Tb1  1  0.50000000  0.50000000  0.45538121  1
  Mg  Mg0  1  0.50000000  0.50000000  0.63981404  1
  Ti  Ti0  1  0.00000000  -0.00000000  0.36475048  1
  Ti  Ti1  1  0.00000000  0.00000000  0.60750951  1
  Cu  Cu0  1  -0.00000000  0.00000000  0.09483266  1
  Cu  Cu1  1  0.00000000  0.00000000  0.93332240  1
  O  O0  1  -0.00000000  0.00000000  0.48860017  1
  O  O1  1  -0.00000000  0.50000000  0.38218836  1
  O  O2  1  0.50000000  -0.00000000  0.38218836  1
  O  O3  1  -0.00000000  0.50000000  0.60255103  1
  O  O4  1  0.50000000  0.00000000  0.60255103  1
  O  O5  1  0.00000000  -0.00000000  0.26092354  1
  O  O6  1  -0.00000000  0.00000000  0.71678587  1
  O  O7  1  0.00000000  0.50000000  0.09698463  1
  O  O8  1  0.50000000  -0.00000000  0.09698463  1
  O  O9  1  0.00000000  0.50000000  0.92694269  1
  O  O10  1  0.50000000  0.00000000  0.92694269  1
loop_
_geom_bond_atom_site_label_1
_geom_bond_atom_site_label_2
_geom_bond_distance
_geom_bond_site_symmetry_2
Ba0 O7 2.881764 1_555
Ba0 O7 2.881764 1_655
Ba0 O8 2.881764 1_555
Ba0 O8 2.881764 1_565
Ba0 O5 2.904180 1_555
Ba0 O5 2.904180 1_565
Ba0 O5 2.904180 1_665
Ba0 O5 2.904180 1_655
Ba1 O9 2.685329 1_655
Ba1 O9 2.685329 1_555
Ba1 O10 2.685329 1_555
Ba1 O10 2.685329 1_565
Ba1 Mg0 3.209723 1_555
Ba1 O6 3.362245 1_655
Ba1 O6 3.362245 1_665
Ba1 O6 3.362245 1_565
Ba1 O6 3.362245 1_555
Mg0 O3 2.083890 1_555
Mg0 O3 2.083890 1_655
Mg0 O4 2.083890 1_555
Mg0 O4 2.083890 1_565
Cu0 O8 1.979598 1_555
Cu0 O7 1.979598 1_555
Cu0 O7 1.979598 1_545
Cu0 O8 1.979598 1_455
Cu1 O9 1.982386 1_545
Cu1 O10 1.982386 1_455
Cu1 O9 1.982386 1_555
Cu1 O10 1.982386 1_555
O0 Ti1 2.080830 1_555
O0 Ti0 2.167283 1_555
O1 Ti0 2.002625 1_565
O1 Ti0 2.002625 1_555
O1 Tb1 2.357520 1_455
O1 Tb1 2.357520 1_555
O2 Ti0 2.002625 1_555
O2 Ti0 2.002625 1_655
O2 Tb1 2.357520 1_555
O2 Tb1 2.357520 1_545
O3 Ti1 1.981141 1_555
O3 Ti1 1.981141 1_565
O4 Ti1 1.981141 1_555
O4 Ti1 1.981141 1_655
O5 Ti0 1.816899 1_555
O6 Ti1 1.912260 1_555
O7 Tb0 2.410740 1_455
O7 Tb0 2.410740 1_555
O8 Tb0 2.410740 1_555
O8 Tb0 2.410740 1_545
O9 Tb0 2.544625 1_456
O9 Tb0 2.544625 1_556
O10 Tb0 2.544625 1_546
O10 Tb0 2.544625 1_556
