# generated using pymatgen
data_Na3GaSi3Sn3(SO8)3
_symmetry_space_group_name_H-M   'P 1'
_cell_length_a   8.81739304
_cell_length_b   8.87225946
_cell_length_c   22.80419530
_cell_angle_alpha   89.71773286
_cell_angle_beta   90.16904715
_cell_angle_gamma   119.89620917
_symmetry_Int_Tables_number   1
_chemical_formula_structural   Na3GaSi3Sn3(SO8)3
_chemical_formula_sum   'Na9 Ga3 Si9 Sn9 S9 O72'
_cell_volume   1546.56344349
_cell_formula_units_Z   3
loop_
 _symmetry_equiv_pos_site_id
 _symmetry_equiv_pos_as_xyz
  1  'x, y, z'
loop_
 _atom_site_type_symbol
 _atom_site_label
 _atom_site_symmetry_multiplicity
 _atom_site_fract_x
 _atom_site_fract_y
 _atom_site_fract_z
 _atom_site_occupancy
  Na  Na0  1  0.36038541  0.36102855  0.24484154  1
  Na  Na1  1  0.63708652  0.62598602  0.75323832  1
  Na  Na2  1  0.96898486  0.29197188  0.41715656  1
  Na  Na3  1  0.99683715  0.00565807  0.49656074  1
  Na  Na4  1  0.00031351  0.99051156  0.00407018  1
  Na  Na5  1  0.66401584  0.34012625  0.83081774  1
  Na  Na6  1  0.66443922  0.32088101  0.33038388  1
  Na  Na7  1  0.31442255  0.65707139  0.16378361  1
  Na  Na8  1  0.30499932  0.64951459  0.66703993  1
  Ga  Ga0  1  0.98993876  0.02143504  0.35394313  1
  Ga  Ga1  1  0.68485021  0.34763633  0.68891074  1
  Ga  Ga2  1  0.69487815  0.35044966  0.17940209  1
  Si  Si0  1  0.98777263  0.29251324  0.25010519  1
  Si  Si1  1  0.29876758  0.28881417  0.74934937  1
  Si  Si2  1  0.00226118  0.70882048  0.74785471  1
  Si  Si3  1  0.95439556  0.33328770  0.58491402  1
  Si  Si4  1  0.96399230  0.63163632  0.08400012  1
  Si  Si5  1  0.38321119  0.33074327  0.08866211  1
  Si  Si6  1  0.62899988  0.67335671  0.91546302  1
  Si  Si7  1  0.62139553  0.94943986  0.41641922  1
  Si  Si8  1  0.33438753  0.36613125  0.41516624  1
  Sn  Sn0  1  0.00368179  0.99131791  0.85071317  1
  Sn  Sn1  1  0.01143262  0.01352667  0.64781724  1
  Sn  Sn2  1  0.00970402  0.00810382  0.14653525  1
  Sn  Sn3  1  0.66441214  0.35603470  0.98389072  1
  Sn  Sn4  1  0.66014899  0.31806625  0.48038811  1
  Sn  Sn5  1  0.34017031  0.65752800  0.02414399  1
  Sn  Sn6  1  0.32889398  0.65222482  0.51782266  1
  Sn  Sn7  1  0.33548255  0.66273731  0.31567478  1
  Sn  Sn8  1  0.32383853  0.65382314  0.81340789  1
  S  S0  1  0.28823716  0.99608465  0.25291760  1
  S  S1  1  0.71632428  0.71430645  0.25166054  1
  S  S2  1  0.70799824  0.00456610  0.74983531  1
  S  S3  1  0.37480277  0.03819403  0.58474572  1
  S  S4  1  0.66897516  0.62529565  0.58477547  1
  S  S5  1  0.66653453  0.04872134  0.08319888  1
  S  S6  1  0.03363843  0.36764699  0.91758340  1
  S  S7  1  0.33903894  0.95888137  0.91789571  1
  S  S8  1  0.04037173  0.67423832  0.41619677  1
  O  O0  1  0.19929612  0.01797095  0.30417290  1
  O  O1  1  0.82231700  0.79752401  0.30396987  1
  O  O2  1  0.96513283  0.18505704  0.31070237  1
  O  O3  1  0.21134122  0.17683427  0.80967274  1
  O  O4  1  0.94838419  0.78212260  0.80540033  1
  O  O5  1  0.81570020  0.03542831  0.80330657  1
  O  O6  1  0.78222521  0.96413532  0.69771398  1
  O  O7  1  0.17283314  0.21774424  0.69258452  1
  O  O8  1  0.03045720  0.82682167  0.68952381  1
  O  O9  1  0.79274032  0.81656215  0.19707337  1
  O  O10  1  0.04180058  0.20721588  0.19552079  1
  O  O11  1  0.18359022  0.96263607  0.19778448  1
  O  O12  1  0.85492592  0.35551563  0.64046241  1
  O  O13  1  0.47938013  0.12363834  0.63713912  1
  O  O14  1  0.64062436  0.52120051  0.63864660  1
  O  O15  1  0.88711222  0.50977064  0.14076133  1
  O  O16  1  0.64018743  0.12632817  0.13576700  1
  O  O17  1  0.49667521  0.35192598  0.14814800  1
  O  O18  1  0.45090078  0.28768171  0.02740688  1
  O  O19  1  0.85634502  0.55458946  0.02274843  1
  O  O20  1  0.69565214  0.15163478  0.02825907  1
  O  O21  1  0.44700589  0.14408070  0.53019286  1
  O  O22  1  0.69131263  0.54401249  0.53136695  1
  O  O23  1  0.85150002  0.30893687  0.52199309  1
  O  O24  1  0.53614683  0.70327274  0.97224801  1
  O  O25  1  0.14246755  0.44988942  0.96963721  1
  O  O26  1  0.30770323  0.84921858  0.97015582  1
  O  O27  1  0.53321910  0.83855438  0.47657764  1
  O  O28  1  0.27726111  0.44473030  0.47069893  1
  O  O29  1  0.14752511  0.70455993  0.47009052  1
  O  O30  1  0.11507422  0.63020858  0.36439729  1
  O  O31  1  0.49704412  0.87300574  0.35863130  1
  O  O32  1  0.37144515  0.48125049  0.35489825  1
  O  O33  1  0.10578225  0.47748743  0.86365143  1
  O  O34  1  0.35830418  0.87820478  0.86324307  1
  O  O35  1  0.51540508  0.64448927  0.85502678  1
  O  O36  1  0.02143094  0.82537776  0.40680577  1
  O  O37  1  0.81475893  0.96854087  0.41105365  1
  O  O38  1  0.16224851  0.17406702  0.40842004  1
  O  O39  1  0.02430894  0.19764389  0.91046839  1
  O  O40  1  0.18246017  0.98215058  0.91357115  1
  O  O41  1  0.82277928  0.85123451  0.91166423  1
  O  O42  1  0.97145809  0.15520374  0.58765415  1
  O  O43  1  0.19527882  0.01570012  0.58664608  1
  O  O44  1  0.82678738  0.80091106  0.58867119  1
  O  O45  1  0.96999425  0.81810316  0.09131448  1
  O  O46  1  0.82152850  0.02458355  0.08827260  1
  O  O47  1  0.18414423  0.16516999  0.08872592  1
  O  O48  1  0.68604477  0.15657044  0.74261719  1
  O  O49  1  0.49275013  0.31118652  0.73949174  1
  O  O50  1  0.82903337  0.51738540  0.74347338  1
  O  O51  1  0.68784100  0.53564981  0.24763283  1
  O  O52  1  0.81160811  0.30647788  0.24126882  1
  O  O53  1  0.45974960  0.15526838  0.24725577  1
  O  O54  1  0.64375146  0.49516385  0.91759377  1
  O  O55  1  0.85464235  0.34178795  0.92336667  1
  O  O56  1  0.50045353  0.13118772  0.92219043  1
  O  O57  1  0.65859259  0.15187736  0.42002537  1
  O  O58  1  0.51604265  0.36355122  0.42509390  1
  O  O59  1  0.86704311  0.51160709  0.42298389  1
  O  O60  1  0.37179721  0.51010289  0.08344557  1
  O  O61  1  0.16227507  0.65951828  0.07587469  1
  O  O62  1  0.50717850  0.87400144  0.07823291  1
  O  O63  1  0.36101173  0.86537098  0.57894879  1
  O  O64  1  0.51023738  0.64519504  0.58026701  1
  O  O65  1  0.15024073  0.51248445  0.57987207  1
  O  O66  1  0.30943100  0.83891940  0.25673575  1
  O  O67  1  0.53580129  0.69655092  0.25370435  1
  O  O68  1  0.17396434  0.48754508  0.25517837  1
  O  O69  1  0.33076425  0.48947768  0.75457364  1
  O  O70  1  0.18172307  0.69942424  0.75647262  1
  O  O71  1  0.53403878  0.84382643  0.75624042  1
loop_
_geom_bond_atom_site_label_1
_geom_bond_atom_site_label_2
_geom_bond_distance
_geom_bond_site_symmetry_2
Na0 O53 2.386721 1_555
Na0 O68 2.421082 1_555
Na0 O51 2.506299 1_555
Na0 O17 2.535133 1_555
Na0 O67 2.590168 1_555
Na0 O10 2.682038 1_555
Na0 O32 2.714285 1_555
Na1 O50 2.339318 1_555
Na1 O69 2.345664 1_555
Na1 O49 2.445730 1_555
Na1 O71 2.513563 1_555
Na1 O35 2.600022 1_555
Na1 O4 2.659811 1_555
Na1 O14 2.783394 1_555
Na1 O6 2.895968 1_555
Na2 O57 2.376704 1_555
Na2 O38 2.412249 1_655
Na2 O37 2.493160 1_545
Na2 O59 2.524325 1_555
Na2 O2 2.604667 1_555
Na2 O23 2.642890 1_555
Na2 O28 2.653403 1_655
Na2 O30 2.869229 1_655
Na3 O37 2.439045 1_545
Na3 O38 2.493004 1_655
Na3 O42 2.539999 1_555
Na3 O43 2.667387 1_655
Na3 O36 2.678693 1_645
Na3 O44 2.688124 1_545
Na4 O45 2.436198 1_455
Na4 O47 2.502522 1_565
Na4 O41 2.548683 1_454
Na4 O46 2.600414 1_465
Na4 O40 2.642698 1_554
Na4 O39 2.748560 1_564
Na5 O54 2.472612 1_555
Na5 O50 2.502580 1_555
Na5 O49 2.506762 1_555
Na5 O48 2.661829 1_555
Na5 O56 2.678181 1_555
Na5 O55 2.689666 1_555
Na6 O52 2.452236 1_555
Na6 O57 2.514581 1_555
Na6 O53 2.524604 1_555
Na6 O51 2.609484 1_555
Na6 O58 2.653042 1_555
Na6 O59 2.741063 1_555
Na7 O61 2.414899 1_555
Na7 O60 2.449322 1_555
Na7 O68 2.503463 1_555
Na7 O62 2.668467 1_555
Na7 O66 2.683871 1_555
Na7 O67 2.727571 1_555
Na8 O65 2.376020 1_555
Na8 O70 2.457378 1_555
Na8 O69 2.518573 1_555
Na8 O63 2.640491 1_555
Na8 O64 2.698697 1_555
Na8 O71 2.779924 1_555
Ga0 O2 1.851687 1_555
Ga0 O37 1.893541 1_545
Ga0 O38 1.907861 1_655
Ga0 O1 2.124881 1_545
Ga0 O0 2.183124 1_655
Ga0 O36 2.239405 1_645
Ga1 O12 1.838181 1_555
Ga1 O50 1.879654 1_555
Ga1 O49 1.940589 1_555
Ga1 O48 2.090694 1_555
Ga1 O14 2.101383 1_555
Ga1 O13 2.246560 1_555
Ga2 O15 1.804356 1_555
Ga2 O17 1.891493 1_555
Ga2 O52 1.894273 1_555
Ga2 O16 2.058510 1_555
Ga2 O51 2.291755 1_555
Ga2 O53 2.470813 1_555
O0 S0 1.475922 1_545
O1 S1 1.468247 1_555
O2 Si0 1.630115 1_555
O3 Si1 1.644076 1_555
O3 Sn0 1.981994 1_545
O4 Si2 1.640364 1_655
O4 Sn0 1.965745 1_655
O5 S2 1.483548 1_555
O5 Sn0 2.168203 1_645
O6 S2 1.487478 1_565
O6 Sn1 2.167265 1_665
O7 Si1 1.614890 1_555
O7 Sn1 1.946689 1_555
O8 Si2 1.629740 1_555
O8 Sn1 1.984241 1_565
O9 S1 1.486976 1_555
O9 Sn2 2.151473 1_665
O10 Si0 1.649618 1_455
O10 Sn2 1.991966 1_555
O11 S0 1.498015 1_555
O11 Sn2 2.116767 1_565
O12 Si3 1.610650 1_555
O13 S3 1.469037 1_555
O14 S4 1.478215 1_555
O15 Si4 1.601490 1_555
O16 S5 1.460944 1_555
O17 Si5 1.638131 1_555
O18 Si5 1.640409 1_555
O18 Sn3 1.940038 1_554
O19 Si4 1.635246 1_555
O19 Sn3 1.946069 1_554
O20 S5 1.492050 1_555
O20 Sn3 2.206030 1_554
O21 S3 1.494138 1_555
O21 Sn4 2.075610 1_555
O22 S4 1.481185 1_555
O22 Sn4 2.217563 1_555
O23 Si3 1.651853 1_555
O23 Sn4 1.969633 1_555
O24 Si6 1.626002 1_555
O24 Sn5 1.964553 1_556
O25 S6 1.471780 1_555
O25 Sn5 2.187709 1_556
O26 S7 1.471662 1_555
O26 Sn5 2.225492 1_556
O27 Si7 1.638558 1_555
O27 Sn6 1.972076 1_555
O28 Si8 1.645100 1_555
O28 Sn6 1.982995 1_555
O29 S8 1.489471 1_555
O29 Sn6 2.163987 1_555
O30 S8 1.499148 1_555
O30 Sn7 2.131937 1_555
O31 Si7 1.630266 1_555
O31 Sn7 1.956981 1_555
O32 Si8 1.641635 1_555
O32 Sn7 1.996614 1_555
O33 S6 1.497261 1_555
O33 Sn8 2.110425 1_555
O34 S7 1.491890 1_555
O34 Sn8 2.182707 1_555
O35 Si6 1.645558 1_555
O35 Sn8 1.972295 1_555
O36 S8 1.446410 1_555
O37 Si7 1.632047 1_555
O38 Si8 1.629141 1_555
O39 S6 1.478764 1_555
O39 Sn0 2.220852 1_545
O40 S7 1.497191 1_555
O40 Sn0 2.158602 1_555
O41 Si6 1.651979 1_555
O41 Sn0 2.010162 1_655
O42 Si3 1.660992 1_555
O42 Sn1 2.002098 1_655
O43 S3 1.494251 1_555
O43 Sn1 2.134475 1_555
O44 S4 1.487005 1_555
O44 Sn1 2.231337 1_665
O45 Si4 1.637984 1_555
O45 Sn2 1.994988 1_665
O46 S5 1.489141 1_555
O46 Sn2 2.183245 1_655
O47 Si5 1.633556 1_555
O47 Sn2 1.975551 1_555
O48 S2 1.463286 1_555
O49 Si1 1.636722 1_555
O50 Si2 1.625551 1_655
O51 S1 1.479348 1_555
O52 Si0 1.630487 1_555
O53 S0 1.472605 1_545
O54 Si6 1.650138 1_555
O54 Sn3 2.011653 1_555
O55 S6 1.483563 1_655
O55 Sn3 2.227357 1_555
O56 S7 1.484588 1_545
O56 Sn3 2.278172 1_555
O57 Si7 1.659607 1_545
O57 Sn4 2.017123 1_555
O58 Si8 1.628391 1_555
O58 Sn4 1.965719 1_555
O59 S8 1.497521 1_655
O59 Sn4 2.204408 1_555
O60 Si5 1.647516 1_555
O60 Sn5 1.990315 1_555
O61 Si4 1.650010 1_455
O61 Sn5 1.972588 1_555
O62 S5 1.489843 1_565
O62 Sn5 2.138197 1_555
O63 S3 1.483037 1_565
O63 Sn6 2.255934 1_555
O64 S4 1.498693 1_555
O64 Sn6 2.161822 1_555
O65 Si3 1.668965 1_455
O65 Sn6 2.017357 1_555
O66 S0 1.498451 1_555
O66 Sn7 2.153614 1_555
O67 S1 1.520209 1_555
O67 Sn7 2.165455 1_555
O68 Si0 1.694641 1_455
O68 Sn7 2.037231 1_555
O69 Si1 1.662703 1_555
O69 Sn8 2.009583 1_555
O70 Si2 1.636772 1_555
O70 Sn8 1.977442 1_555
O71 S2 1.492169 1_565
O71 Sn8 2.203284 1_555
