# generated using pymatgen
data_Ba2TmMgNbO6
_symmetry_space_group_name_H-M   'P 1'
_cell_length_a   6.75880253
_cell_length_b   6.75552657
_cell_length_c   6.75552659
_cell_angle_alpha   52.21155876
_cell_angle_beta   52.20916348
_cell_angle_gamma   52.20915989
_symmetry_Int_Tables_number   1
_chemical_formula_structural   Ba2TmMgNbO6
_chemical_formula_sum   'Ba2 Tm1 Mg1 Nb1 O6'
_cell_volume   178.18665205
_cell_formula_units_Z   1
loop_
 _symmetry_equiv_pos_site_id
 _symmetry_equiv_pos_as_xyz
  1  'x, y, z'
loop_
 _atom_site_type_symbol
 _atom_site_label
 _atom_site_symmetry_multiplicity
 _atom_site_fract_x
 _atom_site_fract_y
 _atom_site_fract_z
 _atom_site_occupancy
  Ba  Ba0  1  0.72853825  0.72709876  0.72709876  1
  Ba  Ba1  1  0.30412451  0.30242806  0.30242806  1
  Tm  Tm0  1  0.50774911  0.50615662  0.50615662  1
  Mg  Mg0  1  0.13483648  0.13366110  0.13366110  1
  Nb  Nb0  1  0.98087619  0.97947543  0.97947543  1
  O  O0  1  0.25074908  0.75562616  0.75562616  1
  O  O1  1  0.23022068  0.75401839  0.23015319  1
  O  O2  1  0.75674312  0.25024211  0.75546298  1
  O  O3  1  0.23022068  0.23015319  0.75401839  1
  O  O4  1  0.75461578  0.23067721  0.23067721  1
  O  O5  1  0.75674312  0.75546298  0.25024211  1
loop_
_geom_bond_atom_site_label_1
_geom_bond_atom_site_label_2
_geom_bond_distance
_geom_bond_site_symmetry_2
Ba0 O3 2.976135 1_655
Ba0 O1 2.976135 1_655
Ba0 O4 2.979923 1_556
Ba0 O4 2.979923 1_565
Ba0 O3 2.984103 1_565
Ba0 O1 2.984103 1_556
Ba0 O2 2.997711 1_555
Ba0 O5 2.997711 1_555
Ba0 O0 3.003769 1_555
Ba1 O1 2.529973 1_555
Ba1 O3 2.529973 1_555
Ba1 O4 2.532001 1_555
Ba1 Mg0 2.949457 1_555
Ba1 O5 3.091490 1_545
Ba1 O2 3.091490 1_554
Ba1 O0 3.093331 1_554
Ba1 O0 3.093331 1_545
Ba1 O5 3.094799 1_455
Ba1 O2 3.094799 1_455
Mg0 O1 1.964188 1_545
Mg0 O3 1.964188 1_554
Mg0 O4 1.965000 1_455
Nb0 O0 1.985487 1_655
Nb0 O2 1.987995 1_565
Nb0 O5 1.987996 1_556
Nb0 O1 2.284454 1_656
Nb0 O3 2.284454 1_665
Nb0 O4 2.294868 1_566
O0 Tm0 2.236735 1_555
O1 Tm0 2.531741 1_555
O2 Tm0 2.235442 1_555
O3 Tm0 2.531741 1_555
O4 Tm0 2.518716 1_555
O5 Tm0 2.235442 1_555
