# generated using pymatgen
data_YTiP(SO6)2
_symmetry_space_group_name_H-M   'P 1'
_cell_length_a   8.95962439
_cell_length_b   8.99265640
_cell_length_c   22.54152054
_cell_angle_alpha   89.50328942
_cell_angle_beta   90.00000000
_cell_angle_gamma   119.87856510
_symmetry_Int_Tables_number   1
_chemical_formula_structural   YTiP(SO6)2
_chemical_formula_sum   'Y6 Ti6 P6 S12 O72'
_cell_volume   1574.70810959
_cell_formula_units_Z   6
loop_
 _symmetry_equiv_pos_site_id
 _symmetry_equiv_pos_as_xyz
  1  'x, y, z'
loop_
 _atom_site_type_symbol
 _atom_site_label
 _atom_site_symmetry_multiplicity
 _atom_site_fract_x
 _atom_site_fract_y
 _atom_site_fract_z
 _atom_site_occupancy
  Y  Y0  1  0.00376692  0.00074645  0.36339273  1
  Y  Y1  1  0.99697953  0.00074645  0.86339273  1
  Y  Y2  1  0.67209523  0.33494963  0.69672632  1
  Y  Y3  1  0.66285540  0.33494963  0.19672632  1
  Y  Y4  1  0.33053432  0.65891541  0.02986327  1
  Y  Y5  1  0.32838009  0.65891541  0.52986327  1
  Ti  Ti0  1  0.99642283  0.99566655  0.64373230  1
  Ti  Ti1  1  0.99924372  0.99566655  0.14373230  1
  Ti  Ti2  1  0.65813326  0.32693966  0.97730593  1
  Ti  Ti3  1  0.66880740  0.32693966  0.47730593  1
  Ti  Ti4  1  0.34989156  0.65847464  0.31031707  1
  Ti  Ti5  1  0.30858208  0.65847464  0.81031707  1
  P  P0  1  0.71321836  0.73421520  0.24968481  1
  P  P1  1  0.02099684  0.73421520  0.74968481  1
  P  P2  1  0.93227242  0.30095187  0.58266331  1
  P  P3  1  0.36868045  0.30095187  0.08266331  1
  P  P4  1  0.03166429  0.39668848  0.91702544  1
  P  P5  1  0.36502319  0.39668848  0.41702544  1
  S  S0  1  0.26966647  0.96635301  0.24956601  1
  S  S1  1  0.03020625  0.29911974  0.24879133  1
  S  S2  1  0.26891349  0.29911974  0.74879133  1
  S  S3  1  0.69668655  0.96635301  0.74956601  1
  S  S4  1  0.36799477  0.06232647  0.58333270  1
  S  S5  1  0.69438025  0.63143568  0.58291347  1
  S  S6  1  0.93705643  0.63143568  0.08291347  1
  S  S7  1  0.69433269  0.06232647  0.08333270  1
  S  S8  1  0.60234792  0.63885224  0.91653100  1
  S  S9  1  0.36022838  0.96442385  0.91619068  1
  S  S10  1  0.60419446  0.96442385  0.41619068  1
  S  S11  1  0.03650332  0.63885224  0.41653100  1
  O  O0  1  0.20089894  0.00604179  0.30211396  1
  O  O1  1  0.81794492  0.80832968  0.30475961  1
  O  O2  1  0.99390925  0.19379157  0.30227569  1
  O  O3  1  0.19988232  0.19379157  0.80227569  1
  O  O4  1  0.99038476  0.80832968  0.80475961  1
  O  O5  1  0.80514285  0.00604179  0.80211396  1
  O  O6  1  0.78612399  0.94557174  0.69652253  1
  O  O7  1  0.15831758  0.21706334  0.69616573  1
  O  O8  1  0.04974071  0.85404275  0.69473493  1
  O  O9  1  0.80430205  0.85404275  0.19473493  1
  O  O10  1  0.05874575  0.21706334  0.19616573  1
  O  O11  1  0.15944775  0.94557174  0.19652253  1
  O  O12  1  0.85676302  0.33766821  0.63667097  1
  O  O13  1  0.47145592  0.13266130  0.63651201  1
  O  O14  1  0.65286133  0.52461397  0.63626811  1
  O  O15  1  0.87175365  0.52461397  0.13626811  1
  O  O16  1  0.66120638  0.13266130  0.13651201  1
  O  O17  1  0.48090618  0.33766821  0.13667097  1
  O  O18  1  0.46449566  0.27586975  0.02771094  1
  O  O19  1  0.82681681  0.54840141  0.03060173  1
  O  O20  1  0.71969742  0.17388024  0.03001839  1
  O  O21  1  0.45418382  0.17388024  0.53001839  1
  O  O22  1  0.72158560  0.54840141  0.53060173  1
  O  O23  1  0.81137509  0.27586975  0.52771094  1
  O  O24  1  0.53648044  0.67801946  0.97006226  1
  O  O25  1  0.14838798  0.47572200  0.96930005  1
  O  O26  1  0.32899078  0.86181752  0.96995616  1
  O  O27  1  0.53282574  0.86181752  0.46995616  1
  O  O28  1  0.32733302  0.47572200  0.46930005  1
  O  O29  1  0.14153802  0.67801946  0.47006226  1
  O  O30  1  0.12152491  0.61495026  0.36438113  1
  O  O31  1  0.49616744  0.88044158  0.36319294  1
  O  O32  1  0.39187850  0.51871695  0.36037114  1
  O  O33  1  0.12683745  0.51871695  0.86037114  1
  O  O34  1  0.38427314  0.88044158  0.86319294  1
  O  O35  1  0.49342435  0.61495026  0.86438113  1
  O  O36  1  0.99725093  0.77798991  0.40773845  1
  O  O37  1  0.78162293  0.00052167  0.40796087  1
  O  O38  1  0.22003922  0.21778379  0.40460278  1
  O  O39  1  0.99774457  0.21778379  0.90460278  1
  O  O40  1  0.21889873  0.00052167  0.90796087  1
  O  O41  1  0.78073898  0.77798991  0.90773845  1
  O  O42  1  0.94064390  0.13214780  0.59421461  1
  O  O43  1  0.19858533  0.05715916  0.59110155  1
  O  O44  1  0.85862831  0.79885472  0.59233945  1
  O  O45  1  0.94022640  0.79885472  0.09233945  1
  O  O46  1  0.85857383  0.05715916  0.09110155  1
  O  O47  1  0.19150390  0.13214780  0.09421461  1
  O  O48  1  0.66002577  0.10661863  0.73976301  1
  O  O49  1  0.44537507  0.33473996  0.73911673  1
  O  O50  1  0.87736405  0.55294229  0.73926701  1
  O  O51  1  0.67557924  0.55294229  0.23926701  1
  O  O52  1  0.88936589  0.33473996  0.23911673  1
  O  O53  1  0.44659386  0.10661863  0.23976301  1
  O  O54  1  0.60782042  0.47538688  0.92669220  1
  O  O55  1  0.85609626  0.38973895  0.92891742  1
  O  O56  1  0.52485991  0.13389073  0.92342726  1
  O  O57  1  0.60903182  0.13389073  0.42342726  1
  O  O58  1  0.53364369  0.38973895  0.42891742  1
  O  O59  1  0.86756746  0.47538688  0.42669220  1
  O  O60  1  0.33269419  0.44638941  0.07146978  1
  O  O61  1  0.11599922  0.67302692  0.07342133  1
  O  O62  1  0.55199743  0.88780019  0.07376274  1
  O  O63  1  0.33580177  0.88780019  0.57376274  1
  O  O64  1  0.55702669  0.67302692  0.57342133  1
  O  O65  1  0.11369422  0.44638941  0.57146978  1
  O  O66  1  0.27225458  0.80312662  0.25873787  1
  O  O67  1  0.53145931  0.72542970  0.25963616  1
  O  O68  1  0.19310692  0.46879029  0.25817612  1
  O  O69  1  0.27568237  0.46879029  0.75817612  1
  O  O70  1  0.19396939  0.72542970  0.75963616  1
  O  O71  1  0.53087104  0.80312662  0.75873787  1
loop_
_geom_bond_atom_site_label_1
_geom_bond_atom_site_label_2
_geom_bond_distance
_geom_bond_site_symmetry_2
O0 S0 1.461674 1_545
O0 Y0 2.223720 1_555
O1 P0 1.502381 1_555
O1 Y0 2.163836 1_665
O2 S1 1.459359 1_655
O2 Y0 2.242929 1_655
O3 S2 1.459359 1_555
O3 Y1 2.242929 1_455
O4 P1 1.502381 1_655
O4 Y1 2.163836 1_565
O5 S3 1.461674 1_545
O5 Y1 2.223720 1_555
O6 S3 1.503255 1_555
O6 Ti0 2.077064 1_555
O7 S2 1.490058 1_555
O7 Ti0 2.151354 1_445
O8 P1 1.569110 1_555
O8 Ti0 1.937196 1_455
O9 P0 1.569110 1_555
O9 Ti1 1.937196 1_555
O10 S1 1.490058 1_555
O10 Ti1 2.151355 1_445
O11 S0 1.503255 1_555
O11 Ti1 2.077064 1_455
O12 P2 1.509418 1_555
O12 Y2 2.128352 1_555
O13 S4 1.457843 1_555
O13 Y2 2.273265 1_555
O14 S5 1.459989 1_555
O14 Y2 2.246896 1_555
O15 S6 1.459989 1_555
O15 Y3 2.246896 1_555
O16 S7 1.457843 1_555
O16 Y3 2.273265 1_555
O17 P3 1.509418 1_555
O17 Y3 2.128352 1_555
O18 P3 1.587454 1_555
O18 Ti2 1.925860 1_554
O19 S6 1.484607 1_555
O19 Ti2 2.176301 1_554
O20 S7 1.501410 1_555
O20 Ti2 2.082954 1_554
O21 S4 1.501410 1_555
O21 Ti3 2.082954 1_555
O22 S5 1.484607 1_555
O22 Ti3 2.176301 1_555
O23 P2 1.587454 1_555
O23 Ti3 1.925860 1_555
O24 S8 1.463853 1_555
O24 Y4 2.220709 1_556
O25 P4 1.503765 1_555
O25 Y4 2.145071 1_556
O26 S9 1.456662 1_555
O26 Y4 2.266154 1_556
O27 S10 1.456662 1_555
O27 Y5 2.266154 1_555
O28 P5 1.503765 1_555
O28 Y5 2.145071 1_555
O29 S11 1.463853 1_555
O29 Y5 2.220709 1_555
O30 S11 1.475087 1_555
O30 Ti4 2.240238 1_555
O31 S10 1.490539 1_555
O31 Ti4 2.134807 1_555
O32 P5 1.614201 1_555
O32 Ti4 1.854875 1_555
O33 P4 1.614201 1_555
O33 Ti5 1.854875 1_555
O34 S9 1.490539 1_555
O34 Ti5 2.134807 1_555
O35 S8 1.475087 1_555
O35 Ti5 2.240238 1_555
O36 S11 1.470589 1_655
O36 Y0 2.205474 1_665
O37 S10 1.466876 1_545
O37 Y0 2.228598 1_655
O38 P5 1.509889 1_555
O38 Y0 2.165727 1_555
O39 P4 1.509892 1_655
O39 Y1 2.165727 1_555
O40 S9 1.466867 1_545
O40 Y1 2.228598 1_455
O41 S8 1.470595 1_555
O41 Y1 2.205474 1_565
O42 P2 1.576175 1_555
O42 Ti0 1.894563 1_545
O43 S4 1.505413 1_555
O43 Ti0 1.996190 1_445
O44 S5 1.508489 1_555
O44 Ti0 1.963976 1_555
O45 S6 1.508493 1_555
O45 Ti1 1.963976 1_555
O46 S7 1.505404 1_555
O46 Ti1 1.996190 1_545
O47 P3 1.576179 1_555
O47 Ti1 1.894563 1_445
O48 S3 1.468234 1_545
O48 Y2 2.216552 1_555
O49 S2 1.464251 1_555
O49 Y2 2.243995 1_555
O50 P1 1.511654 1_655
O50 Y2 2.141352 1_555
O51 P0 1.511656 1_555
O51 Y3 2.141352 1_555
O52 S1 1.464242 1_655
O52 Y3 2.243995 1_555
O53 S0 1.468240 1_545
O53 Y3 2.216552 1_555
O54 S8 1.510531 1_555
O54 Ti2 1.964710 1_555
O55 P4 1.565865 1_655
O55 Ti2 1.909431 1_555
O56 S9 1.513097 1_545
O56 Ti2 1.971256 1_555
O57 S10 1.513089 1_545
O57 Ti3 1.971256 1_555
O58 P5 1.565882 1_555
O58 Ti3 1.909431 1_555
O59 S11 1.510522 1_655
O59 Ti3 1.964710 1_555
O60 P3 1.514121 1_555
O60 Y4 2.130337 1_555
O61 S6 1.468769 1_455
O61 Y4 2.218113 1_555
O62 S7 1.465531 1_565
O62 Y4 2.262549 1_555
O63 S4 1.465525 1_565
O63 Y5 2.262549 1_555
O64 S5 1.468787 1_555
O64 Y5 2.218113 1_555
O65 P2 1.514110 1_455
O65 Y5 2.130337 1_555
O66 S0 1.492141 1_555
O66 Ti4 2.098345 1_555
O67 P0 1.606255 1_555
O67 Ti4 1.823802 1_555
O68 S1 1.513226 1_555
O68 Ti4 1.977813 1_555
O69 S2 1.513230 1_555
O69 Ti5 1.977813 1_555
O70 P1 1.606246 1_555
O70 Ti5 1.823802 1_555
O71 S3 1.492145 1_555
O71 Ti5 2.098345 1_555
