# generated using pymatgen
data_Na2Ca3Hf(SO4)6
_symmetry_space_group_name_H-M   'P 1'
_cell_length_a   9.08669752
_cell_length_b   9.08669720
_cell_length_c   24.06888614
_cell_angle_alpha   90.00000000
_cell_angle_beta   90.00000000
_cell_angle_gamma   120.00000116
_symmetry_Int_Tables_number   1
_chemical_formula_structural   Na2Ca3Hf(SO4)6
_chemical_formula_sum   'Na6 Ca9 Hf3 S18 O72'
_cell_volume   1721.07084065
_cell_formula_units_Z   3
loop_
 _symmetry_equiv_pos_site_id
 _symmetry_equiv_pos_as_xyz
  1  'x, y, z'
loop_
 _atom_site_type_symbol
 _atom_site_label
 _atom_site_symmetry_multiplicity
 _atom_site_fract_x
 _atom_site_fract_y
 _atom_site_fract_z
 _atom_site_occupancy
  Na  Na0  1  -0.00000000  0.00000000  0.50897323  1
  Na  Na1  1  -0.00000000  0.00000000  0.00487612  1
  Na  Na2  1  0.66666700  0.33333300  0.82577277  1
  Na  Na3  1  0.66666700  0.33333300  0.33812400  1
  Na  Na4  1  0.33333300  0.66666700  0.17796245  1
  Na  Na5  1  0.33333300  0.66666700  0.65350420  1
  Ca  Ca0  1  -0.00000000  0.00000000  0.64571041  1
  Ca  Ca1  1  -0.00000000  0.00000000  0.14902745  1
  Ca  Ca2  1  0.66666700  0.33333300  0.68183197  1
  Ca  Ca3  1  0.66666700  0.33333300  0.18665083  1
  Ca  Ca4  1  0.66666700  0.33333300  0.98269597  1
  Ca  Ca5  1  0.66666700  0.33333300  0.48414897  1
  Ca  Ca6  1  0.33333300  0.66666700  0.51407775  1
  Ca  Ca7  1  0.33333300  0.66666700  0.31869393  1
  Ca  Ca8  1  0.33333300  0.66666700  0.81282050  1
  Hf  Hf0  1  -0.00000000  0.00000000  0.35121105  1
  Hf  Hf1  1  -0.00000000  0.00000000  0.85012601  1
  Hf  Hf2  1  0.33333300  0.66666700  0.01630071  1
  S  S0  1  0.29128973  0.00036049  0.25138007  1
  S  S1  1  0.70907076  0.70871027  0.25138007  1
  S  S2  1  -0.00036049  0.29092924  0.25138007  1
  S  S3  1  0.29110236  0.28691995  0.75287063  1
  S  S4  1  0.99581759  0.70889764  0.75287063  1
  S  S5  1  0.71308005  0.00418241  0.75287063  1
  S  S6  1  0.96925822  0.33648205  0.58336223  1
  S  S7  1  0.36722483  0.03074178  0.58336223  1
  S  S8  1  0.66351795  0.63277517  0.58336223  1
  S  S9  1  0.97348881  0.63299651  0.07986396  1
  S  S10  1  0.65950871  0.02651119  0.07986396  1
  S  S11  1  0.36700349  0.34049129  0.07986396  1
  S  S12  1  0.63109135  0.67568676  0.91659106  1
  S  S13  1  0.04459441  0.36890865  0.91659106  1
  S  S14  1  0.32431324  0.95540559  0.91659106  1
  S  S15  1  0.64095415  0.96903030  0.41335823  1
  S  S16  1  0.32807515  0.35904585  0.41335823  1
  S  S17  1  0.03096970  0.67192485  0.41335823  1
  O  O0  1  0.19277090  0.00981457  0.30084085  1
  O  O1  1  0.81704367  0.80722910  0.30084085  1
  O  O2  1  0.99018543  0.18295633  0.30084085  1
  O  O3  1  0.19106409  0.17824961  0.80480227  1
  O  O4  1  0.98718552  0.80893591  0.80480227  1
  O  O5  1  0.82175039  0.01281448  0.80480227  1
  O  O6  1  0.79315131  0.98887363  0.70312723  1
  O  O7  1  0.19572232  0.20684869  0.70312723  1
  O  O8  1  0.01112637  0.80427768  0.70312723  1
  O  O9  1  0.78746313  0.80204561  0.19998612  1
  O  O10  1  0.01458248  0.21253687  0.19998612  1
  O  O11  1  0.19795439  0.98541752  0.19998612  1
  O  O12  1  0.88599807  0.34942382  0.63482195  1
  O  O13  1  0.46342675  0.11400193  0.63482195  1
  O  O14  1  0.65057618  0.53657325  0.63482195  1
  O  O15  1  0.90663807  0.53259904  0.13069599  1
  O  O16  1  0.62596197  0.09336193  0.13069599  1
  O  O17  1  0.46740096  0.37403803  0.13069599  1
  O  O18  1  0.44885820  0.31754066  0.03091660  1
  O  O19  1  0.86868346  0.55114180  0.03091660  1
  O  O20  1  0.68245934  0.13131654  0.03091660  1
  O  O21  1  0.45266270  0.12991469  0.53332463  1
  O  O22  1  0.67725299  0.54733730  0.53332463  1
  O  O23  1  0.87008531  0.32274701  0.53332463  1
  O  O24  1  0.54314570  0.69863210  0.96682275  1
  O  O25  1  0.15548540  0.45685430  0.96682275  1
  O  O26  1  0.30136790  0.84451460  0.96682275  1
  O  O27  1  0.57356461  0.86744871  0.46381815  1
  O  O28  1  0.29388311  0.42643539  0.46381815  1
  O  O29  1  0.13255129  0.70611689  0.46381815  1
  O  O30  1  0.11290492  0.64984125  0.36426315  1
  O  O31  1  0.53693533  0.88709508  0.36426315  1
  O  O32  1  0.35015875  0.46306467  0.36426315  1
  O  O33  1  0.12200680  0.46908938  0.86690197  1
  O  O34  1  0.34708157  0.87799320  0.86690197  1
  O  O35  1  0.53091062  0.65291843  0.86690197  1
  O  O36  1  0.01437422  0.83042864  0.40391219  1
  O  O37  1  0.81605442  0.98562578  0.40391219  1
  O  O38  1  0.16957136  0.18394558  0.40391219  1
  O  O39  1  0.03433622  0.19727683  0.91254114  1
  O  O40  1  0.16294061  0.96566378  0.91254114  1
  O  O41  1  0.80272317  0.83705939  0.91254114  1
  O  O42  1  0.98657988  0.18204803  0.58525893  1
  O  O43  1  0.19546815  0.01342012  0.58525893  1
  O  O44  1  0.81795197  0.80453185  0.58525893  1
  O  O45  1  0.00208298  0.80689413  0.08428346  1
  O  O46  1  0.80481115  -0.00208298  0.08428346  1
  O  O47  1  0.19310587  0.19518885  0.08428346  1
  O  O48  1  0.70479666  0.16172553  0.75549145  1
  O  O49  1  0.45692988  0.29520334  0.75549145  1
  O  O50  1  0.83827447  0.54307012  0.75549145  1
  O  O51  1  0.70000295  0.54153298  0.25205527  1
  O  O52  1  0.84153103  0.29999705  0.25205527  1
  O  O53  1  0.45846702  0.15846897  0.25205527  1
  O  O54  1  0.65625433  0.53031223  0.92418794  1
  O  O55  1  0.87405890  0.34374567  0.92418794  1
  O  O56  1  0.46968777  0.12594110  0.92418794  1
  O  O57  1  0.66836105  0.14214423  0.41784530  1
  O  O58  1  0.47378419  0.33163895  0.41784530  1
  O  O59  1  0.85785577  0.52621581  0.41784530  1
  O  O60  1  0.35073777  0.49952764  0.06955653  1
  O  O61  1  0.14878887  0.64926223  0.06955653  1
  O  O62  1  0.50047236  0.85121113  0.06955653  1
  O  O63  1  0.34979264  0.85908573  0.58090216  1
  O  O64  1  0.50929209  0.65020736  0.58090216  1
  O  O65  1  0.14091427  0.49070791  0.58090216  1
  O  O66  1  0.30924959  0.84844658  0.25611470  1
  O  O67  1  0.53919599  0.69075041  0.25611470  1
  O  O68  1  0.15155342  0.46080401  0.25611470  1
  O  O69  1  0.30707521  0.45466533  0.75926700  1
  O  O70  1  0.14758913  0.69292479  0.75926700  1
  O  O71  1  0.54533467  0.85241087  0.75926700  1
loop_
_geom_bond_atom_site_label_1
_geom_bond_atom_site_label_2
_geom_bond_distance
_geom_bond_site_symmetry_2
Na0 O44 2.514822 1_445
Na0 O42 2.514822 1_455
Na0 O43 2.514822 1_555
Na0 O38 2.997808 1_555
Na0 O36 2.997808 1_545
Na0 O37 2.997808 1_445
Na1 O47 2.601035 1_555
Na1 O45 2.601035 1_545
Na1 O46 2.601035 1_455
Na1 O39 2.773177 1_554
Na1 O41 2.773177 1_444
Na1 O40 2.773177 1_544
Na2 O50 2.439950 1_555
Na2 O49 2.439950 1_555
Na2 O48 2.439950 1_555
Na2 O56 2.998826 1_555
Na2 O54 2.998826 1_555
Na2 O55 2.998827 1_555
Na3 O59 2.593628 1_555
Na3 O58 2.593628 1_555
Na3 O57 2.593628 1_555
Na3 O51 2.718313 1_555
Na3 O53 2.718313 1_555
Na3 O52 2.718313 1_555
Na4 O68 2.583801 1_555
Na4 O66 2.583801 1_555
Na4 O67 2.583801 1_555
Na5 O63 2.423123 1_555
Na5 O65 2.423123 1_555
Na5 O64 2.423123 1_555
Ca0 O44 2.251676 1_445
Ca0 O42 2.251676 1_455
Ca0 O43 2.251676 1_555
Ca0 O7 2.294078 1_555
Ca0 O8 2.294078 1_545
Ca0 O6 2.294078 1_445
Ca1 O10 2.235119 1_555
Ca1 O9 2.235120 1_445
Ca1 O11 2.235120 1_545
Ca1 O47 2.353905 1_555
Ca1 O45 2.353905 1_545
Ca1 O46 2.353906 1_455
Ca2 O13 2.232096 1_555
Ca2 O14 2.232096 1_555
Ca2 O12 2.232096 1_555
Ca2 O50 2.497008 1_555
Ca2 O49 2.497008 1_555
Ca2 O48 2.497008 1_555
Ca3 O51 2.361341 1_555
Ca3 O53 2.361341 1_555
Ca3 O52 2.361341 1_555
Ca3 O16 2.428754 1_555
Ca3 O15 2.428754 1_555
Ca3 O17 2.428754 1_555
Ca4 O19 2.236224 1_556
Ca4 O20 2.236224 1_556
Ca4 O18 2.236224 1_556
Ca4 O56 2.316270 1_555
Ca4 O54 2.316270 1_555
Ca4 O55 2.316270 1_555
Ca5 O22 2.237086 1_555
Ca5 O21 2.237086 1_555
Ca5 O23 2.237086 1_555
Ca5 O59 2.364711 1_555
Ca5 O58 2.364711 1_555
Ca5 O57 2.364711 1_555
Ca6 O63 2.324835 1_555
Ca6 O65 2.324835 1_555
Ca6 O64 2.324836 1_555
Ca6 O29 2.361028 1_555
Ca6 O27 2.361028 1_555
Ca6 O28 2.361028 1_555
Ca7 O31 2.220805 1_555
Ca7 O32 2.220805 1_555
Ca7 O30 2.220805 1_555
Ca7 O68 2.325167 1_555
Ca7 O66 2.325167 1_555
Ca7 O67 2.325167 1_555
Ca8 O70 2.229293 1_555
Ca8 O71 2.229293 1_555
Ca8 O69 2.229293 1_555
Ca8 O33 2.271007 1_555
Ca8 O35 2.271007 1_555
Ca8 O34 2.271007 1_555
Hf0 O38 2.049756 1_555
Hf0 O36 2.049756 1_545
Hf0 O37 2.049756 1_445
Hf0 O1 2.095190 1_445
Hf0 O2 2.095190 1_455
Hf0 O0 2.095190 1_555
Hf1 O4 2.003904 1_445
Hf1 O3 2.003904 1_555
Hf1 O5 2.003904 1_455
Hf1 O39 2.237910 1_555
Hf1 O41 2.237910 1_445
Hf1 O40 2.237910 1_545
Hf2 O62 2.053003 1_555
Hf2 O60 2.053003 1_555
Hf2 O61 2.053003 1_555
Hf2 O25 2.140925 1_554
Hf2 O26 2.140925 1_554
Hf2 O24 2.140925 1_554
O0 S0 1.517529 1_555
O1 S1 1.517529 1_555
O2 S2 1.517529 1_655
O3 S3 1.570385 1_555
O4 S4 1.570385 1_555
O5 S5 1.570385 1_555
O6 S5 1.443396 1_565
O7 S3 1.443396 1_555
O8 S4 1.443396 1_455
O9 S1 1.467217 1_555
O10 S2 1.467217 1_555
O11 S0 1.467217 1_565
O12 S6 1.486357 1_555
O13 S7 1.486357 1_555
O14 S8 1.486357 1_555
O15 S9 1.464229 1_555
O16 S10 1.464230 1_555
O17 S11 1.464229 1_555
O18 S11 1.462794 1_555
O19 S9 1.462794 1_555
O20 S10 1.462794 1_555
O21 S7 1.471612 1_555
O22 S8 1.471612 1_555
O23 S6 1.471612 1_555
O24 S12 1.520012 1_555
O25 S13 1.520012 1_555
O26 S14 1.520012 1_555
O27 S15 1.461779 1_555
O28 S16 1.461779 1_555
O29 S17 1.461779 1_555
O30 S17 1.462979 1_555
O31 S15 1.462979 1_555
O32 S16 1.462979 1_555
O33 S13 1.453774 1_555
O34 S14 1.453774 1_555
O35 S12 1.453775 1_555
O36 S17 1.538186 1_555
O37 S15 1.538195 1_555
O38 S16 1.538191 1_555
O39 S13 1.518244 1_555
O40 S14 1.518235 1_555
O41 S12 1.518240 1_555
O42 S6 1.488949 1_555
O43 S7 1.488958 1_555
O44 S8 1.488954 1_555
O45 S9 1.471444 1_455
O46 S10 1.471435 1_555
O47 S11 1.471441 1_555
O48 S5 1.471979 1_555
O49 S3 1.471988 1_555
O50 S4 1.471983 1_555
O51 S1 1.479702 1_555
O52 S2 1.479693 1_655
O53 S0 1.479698 1_555
O54 S12 1.460385 1_555
O55 S13 1.460368 1_655
O56 S14 1.460374 1_545
O57 S15 1.468460 1_545
O58 S16 1.468478 1_555
O59 S17 1.468466 1_655
O60 S11 1.544455 1_555
O61 S9 1.544437 1_455
O62 S10 1.544445 1_565
O63 S7 1.488106 1_565
O64 S8 1.488124 1_555
O65 S6 1.488113 1_455
O66 S0 1.473223 1_565
O67 S1 1.473232 1_555
O68 S2 1.473228 1_555
O69 S3 1.465223 1_555
O70 S4 1.465214 1_455
O71 S5 1.465220 1_565
