# generated using pymatgen
data_Na5Ta3Ti(SiO4)6
_symmetry_space_group_name_H-M   'P 1'
_cell_length_a   8.98352575
_cell_length_b   8.97925442
_cell_length_c   22.53026860
_cell_angle_alpha   90.25367198
_cell_angle_beta   89.83333098
_cell_angle_gamma   120.18205252
_symmetry_Int_Tables_number   1
_chemical_formula_structural   Na5Ta3Ti(SiO4)6
_chemical_formula_sum   'Na15 Ta9 Ti3 Si18 O72'
_cell_volume   1571.01405723
_cell_formula_units_Z   3
loop_
 _symmetry_equiv_pos_site_id
 _symmetry_equiv_pos_as_xyz
  1  'x, y, z'
loop_
 _atom_site_type_symbol
 _atom_site_label
 _atom_site_symmetry_multiplicity
 _atom_site_fract_x
 _atom_site_fract_y
 _atom_site_fract_z
 _atom_site_occupancy
  Na  Na0  1  0.36886455  0.36375360  0.24821553  1
  Na  Na1  1  0.99245910  0.62924195  0.24789705  1
  Na  Na2  1  0.63696958  0.62923180  0.74824222  1
  Na  Na3  1  0.99524157  0.36650391  0.74836386  1
  Na  Na4  1  0.03090429  0.69722234  0.58426609  1
  Na  Na5  1  0.30272369  0.96958212  0.08405847  1
  Na  Na6  1  0.69871681  0.03247857  0.91754811  1
  Na  Na7  1  0.96965120  0.29558275  0.41466397  1
  Na  Na8  1  0.32845697  0.03327830  0.41484506  1
  Na  Na9  1  0.99314641  0.99873292  0.49738988  1
  Na  Na10  1  0.00008221  0.00000119  0.00077769  1
  Na  Na11  1  0.65992676  0.33222436  0.83159833  1
  Na  Na12  1  0.66653446  0.33266609  0.32908412  1
  Na  Na13  1  0.34023413  0.66757020  0.16530513  1
  Na  Na14  1  0.34000106  0.67325074  0.66555156  1
  Ta  Ta0  1  0.00494877  0.00063339  0.85448553  1
  Ta  Ta1  1  0.99984712  0.00372688  0.64486881  1
  Ta  Ta2  1  0.99495051  0.99979815  0.14538518  1
  Ta  Ta3  1  0.66758546  0.33844736  0.97925045  1
  Ta  Ta4  1  0.66707885  0.33672414  0.47976552  1
  Ta  Ta5  1  0.33236330  0.66196180  0.02205391  1
  Ta  Ta6  1  0.33802946  0.66699720  0.52151077  1
  Ta  Ta7  1  0.33630966  0.66985462  0.31226831  1
  Ta  Ta8  1  0.33335579  0.66980422  0.81293352  1
  Ti  Ti0  1  0.99558894  0.99579069  0.35136800  1
  Ti  Ti1  1  0.66075618  0.32731592  0.68574769  1
  Ti  Ti2  1  0.66600887  0.32786098  0.18559143  1
  Si  Si0  1  0.29119176  0.00318206  0.25033704  1
  Si  Si1  1  0.71130322  0.71115012  0.25037259  1
  Si  Si2  1  0.99236126  0.28402387  0.25123891  1
  Si  Si3  1  0.29451566  0.28784993  0.74963295  1
  Si  Si4  1  0.00077200  0.71057292  0.74871250  1
  Si  Si5  1  0.70940846  0.00322458  0.75004309  1
  Si  Si6  1  0.95210385  0.33061011  0.58443409  1
  Si  Si7  1  0.38022893  0.04688250  0.58402811  1
  Si  Si8  1  0.66297767  0.61934163  0.58588212  1
  Si  Si9  1  0.95277335  0.61935697  0.08533010  1
  Si  Si10  1  0.67010302  0.04814012  0.08303348  1
  Si  Si11  1  0.38170391  0.33637488  0.08542035  1
  Si  Si12  1  0.62116665  0.66326119  0.91624773  1
  Si  Si13  1  0.04397582  0.37811754  0.91642995  1
  Si  Si14  1  0.33055346  0.95562269  0.91832368  1
  Si  Si15  1  0.62831077  0.95491583  0.41670169  1
  Si  Si16  1  0.33418742  0.37675199  0.41592334  1
  Si  Si17  1  0.04248795  0.67011640  0.41668049  1
  O  O0  1  0.20012195  0.03337590  0.30894983  1
  O  O1  1  0.83893625  0.80655588  0.30702758  1
  O  O2  1  0.97198520  0.16985082  0.31018805  1
  O  O3  1  0.19483667  0.16687935  0.80726882  1
  O  O4  1  0.96781525  0.80608647  0.80571790  1
  O  O5  1  0.83128128  0.03282318  0.80867360  1
  O  O6  1  0.80323741  0.96437865  0.69373142  1
  O  O7  1  0.16219946  0.19720612  0.69335863  1
  O  O8  1  0.03139893  0.83125614  0.69030820  1
  O  O9  1  0.80417545  0.83501758  0.19271450  1
  O  O10  1  0.03591909  0.19645783  0.19425129  1
  O  O11  1  0.16616318  0.96443691  0.19188228  1
  O  O12  1  0.86763803  0.36928800  0.64226347  1
  O  O13  1  0.50355817  0.14113323  0.64072065  1
  O  O14  1  0.63793421  0.50379251  0.64408104  1
  O  O15  1  0.86505711  0.50280718  0.14397484  1
  O  O16  1  0.63218999  0.13891820  0.13971671  1
  O  O17  1  0.49745134  0.36328619  0.14425024  1
  O  O18  1  0.47091061  0.29940085  0.02749270  1
  O  O19  1  0.83282966  0.52756992  0.02682448  1
  O  O20  1  0.69573319  0.16217828  0.02332882  1
  O  O21  1  0.46763693  0.16290512  0.52417137  1
  O  O22  1  0.69947533  0.52899921  0.52769475  1
  O  O23  1  0.83589256  0.30434486  0.52453736  1
  O  O24  1  0.52889881  0.70131167  0.97263663  1
  O  O25  1  0.16819588  0.47323310  0.97340331  1
  O  O26  1  0.30422675  0.83749583  0.97664364  1
  O  O27  1  0.52781081  0.83335154  0.47401432  1
  O  O28  1  0.30148087  0.47289190  0.47256840  1
  O  O29  1  0.16541378  0.69864962  0.47484413  1
  O  O30  1  0.13219771  0.63137186  0.35878298  1
  O  O31  1  0.49541995  0.86388910  0.36033267  1
  O  O32  1  0.36412575  0.49827895  0.35755881  1
  O  O33  1  0.13422478  0.49577612  0.85727716  1
  O  O34  1  0.36568294  0.86205316  0.86090789  1
  O  O35  1  0.50356108  0.63743753  0.85701156  1
  O  O36  1  0.03231061  0.84356745  0.41012793  1
  O  O37  1  0.81944101  0.98373071  0.41048980  1
  O  O38  1  0.16348468  0.18767070  0.41108224  1
  O  O39  1  0.01759286  0.18433812  0.91008228  1
  O  O40  1  0.16095977  0.97450039  0.90983983  1
  O  O41  1  0.80787861  0.84065364  0.90921570  1
  O  O42  1  0.97384171  0.16119456  0.59020958  1
  O  O43  1  0.18552482  0.01935952  0.59036485  1
  O  O44  1  0.84050371  0.80806812  0.59019863  1
  O  O45  1  0.98237532  0.81554335  0.09000788  1
  O  O46  1  0.83891494  0.02629996  0.09014239  1
  O  O47  1  0.19252759  0.15945285  0.09067714  1
  O  O48  1  0.69904617  0.17650028  0.74314055  1
  O  O49  1  0.48598297  0.31713957  0.74399246  1
  O  O50  1  0.83032688  0.52097881  0.74433393  1
  O  O51  1  0.69108100  0.52132784  0.24481897  1
  O  O52  1  0.83125269  0.31621540  0.24392802  1
  O  O53  1  0.47813552  0.17603569  0.24382093  1
  O  O54  1  0.64078488  0.49441237  0.92326367  1
  O  O55  1  0.85084496  0.35128493  0.92287532  1
  O  O56  1  0.50743618  0.14203206  0.92316123  1
  O  O57  1  0.64044537  0.14419679  0.42340138  1
  O  O58  1  0.50305387  0.35360312  0.42336637  1
  O  O59  1  0.85688755  0.49063235  0.42324850  1
  O  O60  1  0.35942335  0.50483418  0.07641855  1
  O  O61  1  0.14827072  0.64827967  0.07697713  1
  O  O62  1  0.49347499  0.85882936  0.07654085  1
  O  O63  1  0.35096111  0.85142538  0.57703303  1
  O  O64  1  0.49484194  0.64134372  0.57672197  1
  O  O65  1  0.14099474  0.50678633  0.57590398  1
  O  O66  1  0.29983336  0.82434262  0.25726856  1
  O  O67  1  0.51785760  0.68733383  0.25675149  1
  O  O68  1  0.17027142  0.47708988  0.25705376  1
  O  O69  1  0.30737082  0.47770570  0.75644546  1
  O  O70  1  0.16965403  0.68673207  0.75654169  1
  O  O71  1  0.52326801  0.82410539  0.75630253  1
loop_
_geom_bond_atom_site_label_1
_geom_bond_atom_site_label_2
_geom_bond_distance
_geom_bond_site_symmetry_2
Na0 O53 2.340134 1_555
Na0 O68 2.465751 1_555
Na0 O51 2.503650 1_555
Na0 O67 2.521249 1_555
Na0 O17 2.609625 1_555
Na0 O32 2.748576 1_555
Na0 O10 2.858012 1_555
Na0 O0 2.910828 1_555
Na1 O51 2.374145 1_555
Na1 O66 2.423736 1_655
Na1 O52 2.431295 1_555
Na1 O68 2.580601 1_655
Na1 O15 2.601247 1_555
Na1 O30 2.794887 1_655
Na1 O11 2.895916 1_655
Na1 O1 2.896609 1_555
Na2 O50 2.380327 1_555
Na2 O49 2.424572 1_555
Na2 O71 2.435459 1_555
Na2 O69 2.569218 1_555
Na2 O14 2.600463 1_555
Na2 O35 2.741776 1_555
Na2 O4 2.879376 1_555
Na2 O6 2.880629 1_555
Na3 O48 2.332435 1_555
Na3 O69 2.465529 1_655
Na3 O50 2.489027 1_555
Na3 O70 2.494760 1_655
Na3 O12 2.659761 1_555
Na3 O33 2.731847 1_655
Na3 O7 2.891615 1_655
Na3 O5 2.929168 1_555
Na4 O65 2.373637 1_555
Na4 O44 2.375609 1_455
Na4 O63 2.491384 1_555
Na4 O43 2.504555 1_565
Na4 O8 2.669416 1_555
Na4 O29 2.739604 1_555
Na4 O12 2.865255 1_455
Na4 O22 2.872975 1_455
Na5 O47 2.367033 1_565
Na5 O62 2.380023 1_555
Na5 O45 2.492015 1_455
Na5 O61 2.499269 1_555
Na5 O26 2.693357 1_554
Na5 O11 2.708380 1_555
Na5 O16 2.850315 1_565
Na5 O18 2.863687 1_565
Na6 O56 2.373562 1_555
Na6 O41 2.378704 1_545
Na6 O55 2.478111 1_555
Na6 O39 2.483013 1_655
Na6 O20 2.653946 1_556
Na6 O5 2.722991 1_555
Na6 O24 2.858420 1_545
Na6 O34 2.884899 1_545
Na7 O38 2.381724 1_655
Na7 O37 2.422783 1_545
Na7 O59 2.431218 1_555
Na7 O57 2.567036 1_555
Na7 O2 2.610694 1_555
Na7 O23 2.766606 1_555
Na7 O28 2.890540 1_655
Na7 O30 2.899025 1_655
Na8 O36 2.331132 1_545
Na8 O57 2.465603 1_555
Na8 O38 2.488608 1_555
Na8 O58 2.496125 1_555
Na8 O0 2.653015 1_555
Na8 O21 2.741245 1_555
Na8 O31 2.887598 1_545
Na8 O29 2.932619 1_545
Na9 O37 2.467922 1_555
Na9 O36 2.528813 1_655
Na9 O38 2.530330 1_665
Na9 O42 2.599370 1_565
Na9 O44 2.614992 1_555
Na9 O43 2.665495 1_665
Na10 O46 2.555087 1_455
Na10 O45 2.563776 1_445
Na10 O47 2.578197 1_555
Na10 O40 2.578826 1_544
Na10 O39 2.589630 1_554
Na10 O41 2.606665 1_444
Na11 O49 2.481679 1_555
Na11 O50 2.546501 1_555
Na11 O48 2.552649 1_555
Na11 O54 2.576588 1_555
Na11 O56 2.590611 1_555
Na11 O55 2.631035 1_555
Na12 O52 2.468446 1_555
Na12 O53 2.476760 1_555
Na12 O51 2.484592 1_555
Na12 O58 2.638257 1_555
Na12 O59 2.644370 1_555
Na12 O57 2.657929 1_555
Na13 O60 2.529998 1_555
Na13 O62 2.545824 1_555
Na13 O67 2.560028 1_555
Na13 O61 2.584726 1_555
Na13 O66 2.624859 1_555
Na13 O68 2.629972 1_555
Na14 O64 2.530193 1_555
Na14 O63 2.532871 1_555
Na14 O71 2.545320 1_555
Na14 O70 2.593255 1_555
Na14 O65 2.610982 1_555
Na14 O69 2.621735 1_555
O0 Si0 1.643258 1_555
O0 Ti0 1.942295 1_445
O1 Si1 1.639839 1_555
O1 Ti0 1.858618 1_555
O2 Si2 1.634144 1_555
O2 Ti0 1.922430 1_545
O3 Si3 1.641853 1_555
O3 Ta0 1.926927 1_555
O4 Si4 1.648060 1_655
O4 Ta0 1.941476 1_665
O5 Si5 1.651360 1_555
O5 Ta0 2.012059 1_655
O6 Si5 1.651456 1_565
O6 Ta1 1.954757 1_565
O7 Si3 1.646126 1_555
O7 Ta1 1.945158 1_455
O8 Si4 1.640797 1_555
O8 Ta1 1.995965 1_465
O9 Si1 1.641378 1_555
O9 Ta2 1.927989 1_555
O10 Si2 1.648445 1_455
O10 Ta2 1.948716 1_445
O11 Si0 1.651889 1_565
O11 Ta2 2.016773 1_455
O12 Si6 1.627635 1_555
O12 Ti1 1.960710 1_555
O13 Si7 1.622064 1_555
O13 Ti1 1.854118 1_555
O14 Si8 1.619284 1_555
O14 Ti1 1.943017 1_555
O15 Si9 1.624482 1_555
O15 Ti2 1.929558 1_555
O16 Si10 1.636698 1_555
O16 Ti2 1.872680 1_555
O17 Si11 1.627568 1_555
O17 Ti2 1.938250 1_555
O18 Si11 1.647242 1_555
O18 Ta3 1.948161 1_554
O19 Si9 1.638145 1_555
O19 Ta3 1.922168 1_554
O20 Si10 1.638394 1_555
O20 Ta3 1.993273 1_554
O21 Si7 1.644491 1_555
O21 Ta4 1.959263 1_555
O22 Si8 1.655217 1_555
O22 Ta4 1.926562 1_555
O23 Si6 1.650594 1_555
O23 Ta4 1.963872 1_555
O24 Si12 1.640928 1_555
O24 Ta5 1.961257 1_556
O25 Si13 1.631789 1_555
O25 Ta5 1.930872 1_556
O26 Si14 1.632727 1_555
O26 Ta5 2.002824 1_556
O27 Si15 1.639748 1_555
O27 Ta6 1.930270 1_555
O28 Si16 1.644207 1_555
O28 Ta6 1.941950 1_555
O29 Si17 1.650259 1_555
O29 Ta6 2.011515 1_555
O30 Si17 1.656467 1_555
O30 Ta7 1.983650 1_555
O31 Si15 1.650666 1_555
O31 Ta7 1.933797 1_555
O32 Si16 1.645537 1_555
O32 Ta7 1.969693 1_555
O33 Si13 1.641515 1_555
O33 Ta8 1.957755 1_555
O34 Si14 1.653329 1_555
O34 Ta8 1.927122 1_555
O35 Si12 1.646298 1_555
O35 Ta8 1.966440 1_555
O36 Si17 1.612803 1_555
O36 Ti0 2.049808 1_455
O37 Si15 1.608392 1_555
O37 Ti0 2.026530 1_555
O38 Si16 1.620962 1_555
O38 Ti0 2.105186 1_445
O39 Si13 1.639371 1_555
O39 Ta0 2.024110 1_555
O40 Si14 1.627306 1_555
O40 Ta0 1.979436 1_565
O41 Si12 1.640115 1_555
O41 Ta0 2.040622 1_665
O42 Si6 1.633951 1_555
O42 Ta1 1.979800 1_555
O43 Si7 1.644726 1_555
O43 Ta1 2.015986 1_455
O44 Si8 1.645176 1_555
O44 Ta1 2.028601 1_565
O45 Si9 1.646987 1_555
O45 Ta2 2.025170 1_555
O46 Si10 1.632389 1_555
O46 Ta2 1.979602 1_545
O47 Si11 1.646751 1_555
O47 Ta2 2.041872 1_445
O48 Si5 1.612915 1_555
O48 Ti1 2.027495 1_555
O49 Si3 1.608745 1_555
O49 Ti1 2.010068 1_555
O50 Si4 1.621986 1_655
O50 Ti1 2.101098 1_555
O51 Si1 1.625038 1_555
O51 Ti2 2.106420 1_555
O52 Si2 1.621078 1_555
O52 Ti2 2.027494 1_555
O53 Si0 1.621921 1_555
O53 Ti2 2.029197 1_555
O54 Si12 1.620394 1_555
O54 Ta3 1.991680 1_555
O55 Si13 1.633362 1_655
O55 Ta3 2.033527 1_555
O56 Si14 1.632048 1_545
O56 Ta3 2.053492 1_555
O57 Si15 1.653736 1_545
O57 Ta4 2.055457 1_555
O58 Si16 1.640583 1_555
O58 Ta4 2.011478 1_555
O59 Si17 1.642575 1_655
O59 Ta4 2.018000 1_555
O60 Si11 1.636049 1_555
O60 Ta5 1.977842 1_555
O61 Si9 1.651421 1_455
O61 Ta5 2.016566 1_555
O62 Si10 1.647959 1_565
O62 Ta5 2.035982 1_555
O63 Si7 1.645601 1_565
O63 Ta6 2.027267 1_555
O64 Si8 1.632578 1_555
O64 Ta6 1.980893 1_555
O65 Si6 1.649418 1_455
O65 Ta6 2.036439 1_555
O66 Si0 1.654326 1_565
O66 Ta7 2.010429 1_555
O67 Si1 1.646681 1_555
O67 Ta7 1.995397 1_555
O68 Si2 1.670382 1_455
O68 Ta7 2.040617 1_555
O69 Si3 1.656183 1_555
O69 Ta8 2.055953 1_555
O70 Si4 1.645346 1_555
O70 Ta8 2.009327 1_555
O71 Si5 1.642956 1_565
O71 Ta8 2.021015 1_555
