# generated using pymatgen
data_MgFe4(OF)4
_symmetry_space_group_name_H-M   'P 1'
_cell_length_a   5.30578523
_cell_length_b   5.37376631
_cell_length_c   5.94816719
_cell_angle_alpha   91.03717206
_cell_angle_beta   91.94499938
_cell_angle_gamma   86.67204198
_symmetry_Int_Tables_number   1
_chemical_formula_structural   MgFe4(OF)4
_chemical_formula_sum   'Mg1 Fe4 O4 F4'
_cell_volume   169.18877721
_cell_formula_units_Z   1
loop_
 _symmetry_equiv_pos_site_id
 _symmetry_equiv_pos_as_xyz
  1  'x, y, z'
loop_
 _atom_site_type_symbol
 _atom_site_label
 _atom_site_symmetry_multiplicity
 _atom_site_fract_x
 _atom_site_fract_y
 _atom_site_fract_z
 _atom_site_occupancy
  Mg  Mg0  1  0.46484800  0.00686100  0.04768800  1
  Fe  Fe0  1  0.96621100  0.84976700  0.99271200  1
  Fe  Fe1  1  0.10499200  0.06492100  0.51595200  1
  Fe  Fe2  1  0.48768500  0.51571200  0.27116100  1
  Fe  Fe3  1  0.45987700  0.55381600  0.74738100  1
  O  O0  1  0.21800300  0.87781100  0.25850000  1
  O  O1  1  0.25354700  0.86288600  0.76774100  1
  O  O2  1  0.29844100  0.35396400  0.51505200  1
  O  O3  1  0.65752500  0.67064000  0.01139700  1
  F  F0  1  0.30693400  0.33710200  0.98220900  1
  F  F1  1  0.71214200  0.64536100  0.54111700  1
  F  F2  1  0.74507000  0.14701200  0.23285000  1
  F  F3  1  0.82471800  0.12804200  0.73082400  1
loop_
_geom_bond_atom_site_label_1
_geom_bond_atom_site_label_2
_geom_bond_distance
_geom_bond_site_symmetry_2
Mg0 O0 2.004256 1_545
Mg0 O3 2.035323 1_545
Mg0 O1 2.134394 1_544
Fe0 O3 1.954650 1_556
Fe0 O0 2.044083 1_656
Fe0 O1 2.067429 1_655
Fe1 O2 1.910989 1_555
Fe1 O0 1.911076 1_545
Fe1 O1 1.980509 1_545
Fe2 O2 2.028322 1_555
Fe2 O3 2.029966 1_555
Fe2 O0 2.348208 1_555
Fe3 O1 1.939648 1_555
Fe3 O2 1.941524 1_555
Fe3 O3 1.972051 1_556
F0 Mg0 1.957876 1_556
F0 Fe3 2.052150 1_555
F0 Fe2 2.174919 1_556
F1 Fe3 1.936111 1_555
F1 Fe2 2.099553 1_555
F2 Mg0 1.994902 1_555
F2 Fe2 2.352252 1_555
F2 Fe0 2.404576 1_544
F2 Fe1 2.527426 1_655
F3 Fe1 2.003678 1_655
F3 Fe0 2.258534 1_545
