# generated using pymatgen
data_MgTi2Zn4O8
_symmetry_space_group_name_H-M   'P 1'
_cell_length_a   6.54519684
_cell_length_b   5.72767110
_cell_length_c   6.54519600
_cell_angle_alpha   64.05248527
_cell_angle_beta   55.84175461
_cell_angle_gamma   64.05248694
_symmetry_Int_Tables_number   1
_chemical_formula_structural   MgTi2Zn4O8
_chemical_formula_sum   'Mg1 Ti2 Zn4 O8'
_cell_volume   176.39988239
_cell_formula_units_Z   1
loop_
 _symmetry_equiv_pos_site_id
 _symmetry_equiv_pos_as_xyz
  1  'x, y, z'
loop_
 _atom_site_type_symbol
 _atom_site_label
 _atom_site_symmetry_multiplicity
 _atom_site_fract_x
 _atom_site_fract_y
 _atom_site_fract_z
 _atom_site_occupancy
  Mg  Mg0  1  0.33395500  0.91604500  0.33395500  1
  Ti  Ti0  1  0.56227500  0.95910900  0.56227500  1
  Ti  Ti1  1  0.56227500  0.41634000  0.56227500  1
  Zn  Zn0  1  0.07443900  0.17556100  0.07443900  1
  Zn  Zn1  1  0.50211600  0.48064200  0.03660000  1
  Zn  Zn2  1  0.03660000  0.48064200  0.50211600  1
  Zn  Zn3  1  0.90196600  0.84803400  0.90196600  1
  O  O0  1  0.21709500  0.29335500  0.21709500  1
  O  O1  1  0.21709500  0.77245500  0.21709500  1
  O  O2  1  0.26854600  0.26511800  0.70121800  1
  O  O3  1  0.70121800  0.26511800  0.26854600  1
  O  O4  1  0.28066000  0.76281300  0.69371500  1
  O  O5  1  0.69371500  0.76281300  0.28066000  1
  O  O6  1  0.74763400  0.26102500  0.74763400  1
  O  O7  1  0.74763400  0.74370800  0.74763400  1
loop_
_geom_bond_atom_site_label_1
_geom_bond_atom_site_label_2
_geom_bond_distance
_geom_bond_site_symmetry_2
Mg0 O1 1.898524 1_555
Mg0 O0 1.898525 1_565
Mg0 O4 1.993393 1_555
Mg0 O5 1.993393 1_555
O0 Zn2 2.047899 1_555
O0 Zn1 2.047899 1_555
O0 Zn0 2.068914 1_555
O1 Zn2 2.047899 1_555
O1 Zn1 2.047899 1_555
O1 Zn0 2.068914 1_565
O2 Zn0 1.957843 1_556
O2 Ti1 2.019373 1_555
O2 Ti0 2.019377 1_545
O2 Zn2 2.168115 1_555
O3 Zn0 1.957843 1_655
O3 Ti1 2.019373 1_555
O3 Ti0 2.019377 1_545
O3 Zn1 2.168115 1_555
O4 Zn3 1.992315 1_455
O4 Ti0 2.141977 1_555
O4 Ti1 2.141986 1_555
O5 Zn3 1.992315 1_554
O5 Ti0 2.141977 1_555
O5 Ti1 2.141985 1_555
O6 Ti1 1.870584 1_555
O6 Zn3 2.144776 1_545
O6 Zn1 2.154483 1_556
O6 Zn2 2.154483 1_655
O7 Ti0 1.870583 1_555
O7 Zn3 2.144772 1_555
O7 Zn2 2.154487 1_655
O7 Zn1 2.154487 1_556
