# generated using pymatgen
data_SrV2P2O9
_symmetry_space_group_name_H-M   'P 1'
_cell_length_a   6.64177000
_cell_length_b   7.67148900
_cell_length_c   14.42507000
_cell_angle_alpha   90.00000000
_cell_angle_beta   90.00000000
_cell_angle_gamma   90.00000000
_symmetry_Int_Tables_number   1
_chemical_formula_structural   SrV2P2O9
_chemical_formula_sum   'Sr4 V8 P8 O36'
_cell_volume   734.98999643
_cell_formula_units_Z   4
loop_
 _symmetry_equiv_pos_site_id
 _symmetry_equiv_pos_as_xyz
  1  'x, y, z'
loop_
 _atom_site_type_symbol
 _atom_site_label
 _atom_site_symmetry_multiplicity
 _atom_site_fract_x
 _atom_site_fract_y
 _atom_site_fract_z
 _atom_site_occupancy
  Sr  Sr0  1  0.25000000  0.87784100  0.72072000  1
  Sr  Sr1  1  0.75000000  0.12215900  0.27928000  1
  Sr  Sr2  1  0.75000000  0.37784100  0.77928000  1
  Sr  Sr3  1  0.25000000  0.62215900  0.22072000  1
  V  V0  1  0.00000000  0.00000000  0.50000000  1
  V  V1  1  0.50000000  0.00000000  0.50000000  1
  V  V2  1  0.75000000  0.65335900  0.38294900  1
  V  V3  1  0.50000000  0.50000000  0.00000000  1
  V  V4  1  0.75000000  0.84664100  0.88294900  1
  V  V5  1  0.25000000  0.15335900  0.11705100  1
  V  V6  1  0.25000000  0.34664100  0.61705100  1
  V  V7  1  0.00000000  0.50000000  0.00000000  1
  P  P0  1  0.25000000  0.85279400  0.93925000  1
  P  P1  1  0.75000000  0.14720600  0.06075000  1
  P  P2  1  0.75000000  0.35279400  0.56075000  1
  P  P3  1  0.25000000  0.64720600  0.43925000  1
  P  P4  1  0.75000000  0.89041200  0.69066400  1
  P  P5  1  0.25000000  0.10958800  0.30933600  1
  P  P6  1  0.25000000  0.39041200  0.80933600  1
  P  P7  1  0.75000000  0.60958800  0.19066400  1
  O  O0  1  0.06062700  0.10003000  0.37217700  1
  O  O1  1  0.56062700  0.89997000  0.62782300  1
  O  O2  1  0.93937300  0.60003000  0.12782300  1
  O  O3  1  0.43937300  0.39997000  0.87217700  1
  O  O4  1  0.93937300  0.89997000  0.62782300  1
  O  O5  1  0.43937300  0.10003000  0.37217700  1
  O  O6  1  0.06062700  0.39997000  0.87217700  1
  O  O7  1  0.56062700  0.60003000  0.12782300  1
  O  O8  1  0.25000000  0.82924400  0.48928100  1
  O  O9  1  0.75000000  0.17075600  0.51071900  1
  O  O10  1  0.75000000  0.32924400  0.01071900  1
  O  O11  1  0.25000000  0.67075600  0.98928100  1
  O  O12  1  0.75000000  0.62492300  0.94584700  1
  O  O13  1  0.25000000  0.37507700  0.05415300  1
  O  O14  1  0.25000000  0.12492300  0.55415300  1
  O  O15  1  0.75000000  0.87507700  0.44584700  1
  O  O16  1  0.75000000  0.72057000  0.74951100  1
  O  O17  1  0.25000000  0.27943000  0.25048900  1
  O  O18  1  0.25000000  0.22057000  0.75048900  1
  O  O19  1  0.75000000  0.77943000  0.24951100  1
  O  O20  1  0.43511500  0.63864600  0.37450200  1
  O  O21  1  0.93511500  0.36135400  0.62549800  1
  O  O22  1  0.56488500  0.13864600  0.12549800  1
  O  O23  1  0.06488500  0.86135400  0.87450200  1
  O  O24  1  0.56488500  0.36135400  0.62549800  1
  O  O25  1  0.06488500  0.63864600  0.37450200  1
  O  O26  1  0.43511500  0.86135400  0.87450200  1
  O  O27  1  0.93511500  0.13864600  0.12549800  1
  O  O28  1  0.75000000  0.00772300  0.98600500  1
  O  O29  1  0.25000000  0.53462500  0.73354200  1
  O  O30  1  0.25000000  0.96537500  0.23354200  1
  O  O31  1  0.75000000  0.03462500  0.76645800  1
  O  O32  1  0.75000000  0.49227700  0.48600500  1
  O  O33  1  0.25000000  0.50772300  0.51399500  1
  O  O34  1  0.25000000  0.99227700  0.01399500  1
  O  O35  1  0.75000000  0.46537500  0.26645800  1
loop_
_geom_bond_atom_site_label_1
_geom_bond_atom_site_label_2
_geom_bond_distance
_geom_bond_site_symmetry_2
O0 P5 1.552122 1_555
O0 V0 2.037356 1_555
O0 Sr1 2.465964 1_455
O1 P4 1.552122 1_555
O1 V1 2.037356 1_565
O1 Sr0 2.465964 1_555
O2 P7 1.552122 1_555
O2 V7 2.037356 1_655
O2 Sr3 2.465964 1_655
O3 P6 1.552122 1_555
O3 V3 2.037356 1_556
O3 Sr2 2.465964 1_555
O4 P4 1.552122 1_555
O4 V0 2.037356 1_665
O4 Sr0 2.465964 1_655
O5 P5 1.552122 1_555
O5 V1 2.037356 1_555
O5 Sr1 2.465964 1_555
O6 P6 1.552122 1_555
O6 V7 2.037356 1_556
O6 Sr2 2.465964 1_455
O7 P7 1.552122 1_555
O7 V3 2.037356 1_555
O7 Sr3 2.465964 1_555
O8 P3 1.571964 1_555
O8 V1 2.120602 1_565
O8 V0 2.120602 1_565
O9 P2 1.571964 1_555
O9 V0 2.120602 1_655
O9 V1 2.120602 1_555
O10 P1 1.571964 1_555
O10 V3 2.120602 1_555
O10 V7 2.120602 1_655
O11 P0 1.571964 1_555
O11 V7 2.120602 1_556
O11 V3 2.120602 1_556
O12 V4 1.927769 1_555
O12 V3 2.070195 1_556
O12 V7 2.070195 1_656
O13 V5 1.927769 1_555
O13 V7 2.070195 1_555
O13 V3 2.070195 1_555
O14 V6 1.927769 1_555
O14 V1 2.070195 1_555
O14 V0 2.070195 1_555
O15 V2 1.927769 1_555
O15 V1 2.070195 1_565
O15 V0 2.070195 1_665
O16 P4 1.555069 1_555
O16 V4 2.154168 1_555
O16 Sr2 2.664078 1_555
O17 P5 1.555069 1_555
O17 V5 2.154168 1_555
O17 Sr3 2.664078 1_555
O18 P6 1.555069 1_555
O18 V6 2.154168 1_555
O18 Sr0 2.664078 1_545
O19 P7 1.555069 1_555
O19 V2 2.154168 1_555
O19 Sr1 2.664078 1_565
O20 P3 1.545415 1_555
O20 V2 2.097979 1_555
O20 Sr3 2.539404 1_555
O21 P2 1.545415 1_555
O21 V6 2.097979 1_655
O21 Sr2 2.539404 1_555
O22 P1 1.545415 1_555
O22 V5 2.097979 1_555
O22 Sr1 2.539404 1_555
O23 P0 1.545415 1_555
O23 V4 2.097979 1_455
O23 Sr0 2.539404 1_555
O24 P2 1.545415 1_555
O24 V6 2.097979 1_555
O24 Sr2 2.539404 1_555
O25 P3 1.545415 1_555
O25 V2 2.097979 1_455
O25 Sr3 2.539404 1_555
O26 P0 1.545415 1_555
O26 V4 2.097979 1_555
O26 Sr0 2.539404 1_555
O27 P1 1.545415 1_555
O27 V5 2.097979 1_655
O27 Sr1 2.539404 1_555
O28 P1 1.519049 1_556
O28 V4 1.933132 1_545
O29 P6 1.555423 1_555
O29 V6 2.214366 1_555
O29 Sr0 2.639466 1_555
O30 P5 1.555423 1_565
O30 V5 2.214366 1_565
O30 Sr3 2.639466 1_555
O31 P4 1.555423 1_545
O31 V4 2.214366 1_545
O31 Sr2 2.639466 1_555
O32 P2 1.519049 1_555
O32 V2 1.933132 1_555
O33 P3 1.519049 1_555
O33 V6 1.933132 1_555
O34 P0 1.519049 1_554
O34 V5 1.933132 1_565
O35 P7 1.555423 1_555
O35 V2 2.214366 1_555
O35 Sr1 2.639466 1_555
