# generated using pymatgen
data_Na6YNb3(SiO4)6
_symmetry_space_group_name_H-M   'P 1'
_cell_length_a   9.18990011
_cell_length_b   9.18973889
_cell_length_c   22.49982606
_cell_angle_alpha   90.01248876
_cell_angle_beta   90.02280525
_cell_angle_gamma   119.91576768
_symmetry_Int_Tables_number   1
_chemical_formula_structural   Na6YNb3(SiO4)6
_chemical_formula_sum   'Na18 Y3 Nb9 Si18 O72'
_cell_volume   1646.99266771
_cell_formula_units_Z   3
loop_
 _symmetry_equiv_pos_site_id
 _symmetry_equiv_pos_as_xyz
  1  'x, y, z'
loop_
 _atom_site_type_symbol
 _atom_site_label
 _atom_site_symmetry_multiplicity
 _atom_site_fract_x
 _atom_site_fract_y
 _atom_site_fract_z
 _atom_site_occupancy
  Na  Na0  1  0.00938958  0.00089743  0.50230889  1
  Na  Na1  1  0.98786519  0.98878392  0.99764594  1
  Na  Na2  1  0.66658321  0.33196693  0.83551062  1
  Na  Na3  1  0.66664084  0.33259868  0.32554157  1
  Na  Na4  1  0.34913780  0.66681663  0.16168927  1
  Na  Na5  1  0.31877558  0.65185328  0.66509939  1
  Na  Na6  1  0.64250402  0.01539030  0.24452909  1
  Na  Na7  1  0.37055057  0.35696219  0.24405260  1
  Na  Na8  1  0.98710304  0.62744885  0.24409789  1
  Na  Na9  1  0.62988270  0.62235519  0.74685529  1
  Na  Na10  1  0.98936410  0.36815249  0.74740142  1
  Na  Na11  1  0.38092468  0.00920933  0.74794547  1
  Na  Na12  1  0.66337934  0.97033898  0.58628128  1
  Na  Na13  1  0.31005382  0.97369020  0.08142675  1
  Na  Na14  1  0.02667186  0.33938004  0.08167302  1
  Na  Na15  1  0.96292203  0.28801871  0.41320175  1
  Na  Na16  1  0.32587766  0.03555063  0.41322716  1
  Na  Na17  1  0.71093971  0.67628234  0.41393008  1
  Y  Y0  1  0.99990916  0.00015202  0.35338288  1
  Y  Y1  1  0.66774042  0.33613332  0.68457559  1
  Y  Y2  1  0.66490424  0.33515483  0.17564527  1
  Nb  Nb0  1  0.00037139  0.00085921  0.85856607  1
  Nb  Nb1  1  0.00363727  0.99938107  0.64447631  1
  Nb  Nb2  1  0.99721291  0.99691783  0.14608384  1
  Nb  Nb3  1  0.66748504  0.33468507  0.97877878  1
  Nb  Nb4  1  0.66625180  0.33470416  0.48331639  1
  Nb  Nb5  1  0.33640167  0.66656772  0.01526297  1
  Nb  Nb6  1  0.33006376  0.66285023  0.52209718  1
  Nb  Nb7  1  0.33288205  0.66668998  0.31113970  1
  Nb  Nb8  1  0.33405635  0.66718066  0.81413930  1
  Si  Si0  1  0.29687901  0.99749334  0.25135370  1
  Si  Si1  1  0.70116508  0.70475505  0.25247815  1
  Si  Si2  1  0.00362908  0.29954222  0.25094126  1
  Si  Si3  1  0.28085165  0.28909807  0.75210365  1
  Si  Si4  1  0.00714109  0.71779616  0.75272604  1
  Si  Si5  1  0.71044858  0.99254193  0.75114195  1
  Si  Si6  1  0.96650837  0.33219983  0.58580160  1
  Si  Si7  1  0.36661662  0.03531422  0.58456963  1
  Si  Si8  1  0.66868689  0.63419589  0.58554096  1
  Si  Si9  1  0.96720690  0.63421513  0.08194173  1
  Si  Si10  1  0.66601468  0.03143801  0.08240936  1
  Si  Si11  1  0.36559847  0.33465673  0.08316822  1
  Si  Si12  1  0.62629184  0.66279570  0.91480934  1
  Si  Si13  1  0.03641655  0.37460312  0.91577882  1
  Si  Si14  1  0.33664401  0.96273777  0.91622865  1
  Si  Si15  1  0.61730530  0.96119467  0.41860545  1
  Si  Si16  1  0.34495817  0.38326586  0.41715824  1
  Si  Si17  1  0.03933177  0.65661500  0.41756923  1
  O  O0  1  0.22326975  0.02485283  0.31259053  1
  O  O1  1  0.79908182  0.77398337  0.31444767  1
  O  O2  1  0.97500256  0.19815401  0.31217638  1
  O  O3  1  0.18022099  0.17300283  0.80932040  1
  O  O4  1  0.99362460  0.81992198  0.80975948  1
  O  O5  1  0.82918965  0.00627916  0.80754067  1
  O  O6  1  0.79988714  0.97051022  0.69011844  1
  O  O7  1  0.16153954  0.19181542  0.69314963  1
  O  O8  1  0.02608584  0.83571185  0.69360103  1
  O  O9  1  0.81450220  0.83576603  0.19701379  1
  O  O10  1  0.02415803  0.19389329  0.19358455  1
  O  O11  1  0.17160804  0.97858380  0.19389616  1
  O  O12  1  0.90054598  0.36467391  0.64734159  1
  O  O13  1  0.47874978  0.09916242  0.64380541  1
  O  O14  1  0.63406417  0.53528705  0.64691957  1
  O  O15  1  0.91209991  0.52887650  0.14296197  1
  O  O16  1  0.61826676  0.08778639  0.14382082  1
  O  O17  1  0.45522162  0.36761110  0.14674623  1
  O  O18  1  0.47697926  0.30544034  0.03146252  1
  O  O19  1  0.83455543  0.52345582  0.02856581  1
  O  O20  1  0.69626894  0.17084759  0.03014484  1
  O  O21  1  0.47315919  0.16341578  0.52741801  1
  O  O22  1  0.68752599  0.52516683  0.52858434  1
  O  O23  1  0.83282712  0.30888705  0.52977573  1
  O  O24  1  0.51930949  0.68132833  0.96960544  1
  O  O25  1  0.15380684  0.47311854  0.97307301  1
  O  O26  1  0.31438004  0.84300216  0.97314324  1
  O  O27  1  0.51601247  0.84706879  0.47535542  1
  O  O28  1  0.33620186  0.49348958  0.47202053  1
  O  O29  1  0.16107863  0.66979899  0.47207875  1
  O  O30  1  0.13299097  0.63646001  0.35654308  1
  O  O31  1  0.50054588  0.86271178  0.35840575  1
  O  O32  1  0.36262185  0.49591603  0.35621054  1
  O  O33  1  0.13710800  0.49520015  0.85712919  1
  O  O34  1  0.35901079  0.86346230  0.85742280  1
  O  O35  1  0.50819472  0.64040531  0.85518765  1
  O  O36  1  0.01895879  0.82074796  0.41997614  1
  O  O37  1  0.80283015  0.98330142  0.41987888  1
  O  O38  1  0.18072978  0.19918390  0.41991065  1
  O  O39  1  0.01824647  0.18848607  0.91161067  1
  O  O40  1  0.16913125  0.98141094  0.91175056  1
  O  O41  1  0.81099201  0.83119431  0.91196513  1
  O  O42  1  0.96536189  0.15286138  0.58579909  1
  O  O43  1  0.18457451  0.02558869  0.58771846  1
  O  O44  1  0.83944301  0.81993044  0.58595017  1
  O  O45  1  0.98514140  0.82158093  0.08765873  1
  O  O46  1  0.84332390  0.02817207  0.08788874  1
  O  O47  1  0.18039262  0.15824222  0.08609858  1
  O  O48  1  0.68954647  0.15696403  0.75218752  1
  O  O49  1  0.46461285  0.30728889  0.75112474  1
  O  O50  1  0.84274046  0.53359746  0.75235000  1
  O  O51  1  0.67124527  0.51815636  0.24441372  1
  O  O52  1  0.84702166  0.33052684  0.24421554  1
  O  O53  1  0.48475992  0.15311294  0.24523489  1
  O  O54  1  0.63937491  0.49312140  0.92344058  1
  O  O55  1  0.85164656  0.35881129  0.92227405  1
  O  O56  1  0.50611423  0.14629890  0.92363274  1
  O  O57  1  0.62745975  0.14589296  0.42132144  1
  O  O58  1  0.51941813  0.37393145  0.42108504  1
  O  O59  1  0.85640855  0.48212834  0.42241133  1
  O  O60  1  0.32698886  0.48911069  0.07166573  1
  O  O61  1  0.15849322  0.66632689  0.07079943  1
  O  O62  1  0.50412108  0.84513002  0.06967988  1
  O  O63  1  0.34284072  0.84824433  0.57310009  1
  O  O64  1  0.51196016  0.67021680  0.57490786  1
  O  O65  1  0.15510865  0.48981366  0.57371907  1
  O  O66  1  0.29467964  0.81482698  0.25276800  1
  O  O67  1  0.52174670  0.70808912  0.25248358  1
  O  O68  1  0.18583396  0.48001794  0.25255758  1
  O  O69  1  0.29238347  0.47526254  0.75425127  1
  O  O70  1  0.18219760  0.70688967  0.75439840  1
  O  O71  1  0.52329972  0.81846171  0.75464304  1
loop_
_geom_bond_atom_site_label_1
_geom_bond_atom_site_label_2
_geom_bond_distance
_geom_bond_site_symmetry_2
Na0 O43 2.443210 1_555
Na0 O44 2.481833 1_445
Na0 O42 2.491150 1_455
Na0 O36 2.514789 1_545
Na0 O38 2.525622 1_555
Na0 O37 2.600039 1_445
Na1 O41 2.470649 1_555
Na1 O45 2.535030 1_556
Na1 O46 2.549427 1_566
Na1 O40 2.574818 1_655
Na1 O39 2.585359 1_665
Na1 O47 2.600749 1_666
Na2 O55 2.518508 1_555
Na2 O48 2.546207 1_555
Na2 O56 2.551712 1_555
Na2 O54 2.557022 1_555
Na2 O50 2.562619 1_555
Na2 O49 2.584294 1_555
Na3 O53 2.454711 1_555
Na3 O52 2.475964 1_555
Na3 O51 2.484146 1_555
Na3 O57 2.665277 1_555
Na3 O58 2.666570 1_555
Na3 O59 2.699149 1_555
Na4 O67 2.496058 1_555
Na4 O60 2.545139 1_555
Na4 O62 2.583668 1_555
Na4 O68 2.610256 1_555
Na4 O66 2.641701 1_555
Na4 O61 2.690886 1_555
Na5 O69 2.515001 1_555
Na5 O65 2.543457 1_555
Na5 O70 2.550072 1_555
Na5 O64 2.646233 1_555
Na5 O71 2.657301 1_555
Na5 O63 2.682310 1_555
Na6 O53 2.352370 1_555
Na6 O16 2.403059 1_555
Na6 O67 2.472461 1_545
Na6 O52 2.547612 1_555
Na6 O66 2.788016 1_545
Na7 O17 2.309526 1_555
Na7 O51 2.397394 1_555
Na7 O68 2.472238 1_555
Na7 O53 2.563751 1_555
Na7 O67 2.811774 1_555
Na7 O32 2.845291 1_555
Na8 O52 2.366216 1_555
Na8 O15 2.418433 1_555
Na8 O66 2.477374 1_655
Na8 O51 2.554710 1_555
Na8 O68 2.770417 1_655
Na8 O30 2.844587 1_655
Na9 O14 2.393232 1_555
Na9 O71 2.449206 1_555
Na9 O50 2.469496 1_555
Na9 O49 2.512595 1_555
Na9 O69 2.700624 1_555
Na9 O35 2.721459 1_555
Na10 O12 2.389187 1_555
Na10 O69 2.452105 1_655
Na10 O48 2.456905 1_555
Na10 O50 2.486591 1_555
Na10 O70 2.711559 1_655
Na10 O33 2.777907 1_655
Na11 O49 2.449230 1_555
Na11 O70 2.452440 1_545
Na11 O48 2.460756 1_555
Na11 O13 2.498616 1_555
Na11 O71 2.663652 1_545
Na11 O34 2.763102 1_545
Na12 O64 2.404149 1_555
Na12 O42 2.423265 1_565
Na12 O63 2.593562 1_555
Na12 O44 2.599859 1_555
Na12 O6 2.651006 1_555
Na12 O27 2.795045 1_555
Na12 O13 2.821383 1_565
Na12 O23 2.981869 1_565
Na13 O61 2.459826 1_555
Na13 O47 2.514563 1_565
Na13 O45 2.593553 1_455
Na13 O62 2.597745 1_555
Na13 O26 2.725112 1_554
Na13 O11 2.843238 1_555
Na13 O16 2.850762 1_565
Na13 O18 2.872209 1_565
Na14 O60 2.402860 1_555
Na14 O46 2.496312 1_455
Na14 O61 2.631501 1_555
Na14 O47 2.668713 1_555
Na14 O25 2.723501 1_554
Na14 O15 2.805667 1_455
Na14 O10 2.845882 1_555
Na14 O20 2.875437 1_455
Na15 O37 2.433027 1_545
Na15 O59 2.434075 1_555
Na15 O2 2.439657 1_555
Na15 O38 2.515053 1_655
Na15 O57 2.688421 1_555
Na15 O23 2.928598 1_555
Na16 O0 2.435499 1_555
Na16 O57 2.437002 1_555
Na16 O38 2.462506 1_555
Na16 O36 2.514382 1_545
Na16 O58 2.710590 1_555
Na16 O21 2.867649 1_555
Na17 O1 2.397772 1_555
Na17 O58 2.442630 1_555
Na17 O36 2.458635 1_655
Na17 O37 2.512906 1_555
Na17 O59 2.717742 1_555
Na17 O22 2.886803 1_555
Nb0 O3 1.963737 1_555
Nb0 O4 1.967451 1_445
Nb0 O5 1.967753 1_455
Nb0 O39 2.034908 1_555
Nb0 O40 2.035739 1_545
Nb0 O41 2.049222 1_445
Nb1 O8 1.958708 1_555
Nb1 O7 1.967389 1_565
Nb1 O43 2.013977 1_565
Nb1 O6 2.034003 1_455
Nb1 O44 2.060553 1_455
Nb1 O42 2.085995 1_465
Nb2 O9 1.961538 1_555
Nb2 O11 2.005561 1_655
Nb2 O10 2.008001 1_665
Nb2 O45 2.038949 1_555
Nb2 O46 2.049597 1_565
Nb2 O47 2.089655 1_665
Nb3 O19 1.990639 1_556
Nb3 O20 2.017511 1_556
Nb3 O18 2.018631 1_556
Nb3 O54 2.027957 1_555
Nb3 O55 2.038956 1_555
Nb3 O56 2.042708 1_555
Nb4 O22 1.948565 1_555
Nb4 O21 1.956326 1_555
Nb4 O23 1.963027 1_555
Nb4 O58 2.096487 1_555
Nb4 O59 2.099614 1_555
Nb4 O57 2.113052 1_555
Nb5 O24 1.916550 1_554
Nb5 O26 1.973771 1_554
Nb5 O25 1.974780 1_554
Nb5 O62 2.010546 1_555
Nb5 O60 2.034137 1_555
Nb5 O61 2.057309 1_555
Nb6 O29 1.944182 1_555
Nb6 O28 1.944697 1_555
Nb6 O65 1.978599 1_555
Nb6 O27 2.002202 1_555
Nb6 O63 2.008195 1_555
Nb6 O64 2.023923 1_555
Nb7 O31 1.994849 1_555
Nb7 O30 1.996964 1_555
Nb7 O32 1.998570 1_555
Nb7 O66 2.044145 1_555
Nb7 O68 2.047350 1_555
Nb7 O67 2.059699 1_555
Nb8 O34 1.959867 1_555
Nb8 O33 1.964213 1_555
Nb8 O35 1.966276 1_555
Nb8 O71 2.083349 1_555
Nb8 O70 2.096240 1_555
Nb8 O69 2.097079 1_555
O0 Si0 1.609173 1_545
O0 Y0 2.155035 1_455
O1 Si1 1.608148 1_555
O1 Y0 2.159922 1_565
O2 Si2 1.609958 1_655
O2 Y0 2.153802 1_555
O3 Si3 1.633464 1_555
O4 Si4 1.630590 1_655
O5 Si5 1.636576 1_545
O6 Si5 1.663884 1_555
O7 Si3 1.667795 1_555
O8 Si4 1.669393 1_555
O9 Si1 1.686000 1_555
O10 Si2 1.681068 1_555
O11 Si0 1.681068 1_555
O12 Si6 1.598336 1_555
O12 Y1 2.188546 1_555
O13 Si7 1.605614 1_555
O13 Y1 2.196726 1_555
O14 Si8 1.595942 1_555
O14 Y1 2.174528 1_555
O15 Si9 1.609559 1_555
O15 Y2 2.199704 1_555
O16 Si10 1.611437 1_555
O16 Y2 2.211631 1_555
O17 Si11 1.602020 1_555
O17 Y2 2.190275 1_555
O18 Si11 1.657758 1_555
O19 Si9 1.650769 1_555
O20 Si10 1.657432 1_555
O21 Si7 1.688200 1_555
O22 Si8 1.687837 1_555
O23 Si6 1.697151 1_555
O24 Si12 1.638152 1_555
O25 Si13 1.633843 1_555
O26 Si14 1.633624 1_555
O27 Si15 1.620058 1_555
O28 Si16 1.623902 1_555
O29 Si17 1.623055 1_555
O30 Si17 1.679384 1_555
O31 Si15 1.683665 1_555
O32 Si16 1.676818 1_555
O33 Si13 1.674681 1_555
O34 Si14 1.676889 1_555
O35 Si12 1.672051 1_555
O36 Si17 1.610815 1_555
O36 Y0 2.298380 1_465
O37 Si15 1.613516 1_555
O37 Y0 2.294595 1_565
O38 Si16 1.611481 1_555
O38 Y0 2.304896 1_455
O39 Si13 1.636178 1_555
O40 Si14 1.634873 1_555
O41 Si12 1.630989 1_555
O42 Si6 1.642844 1_555
O43 Si7 1.631785 1_555
O44 Si8 1.644468 1_555
O45 Si9 1.650841 1_555
O46 Si10 1.649195 1_555
O47 Si11 1.666544 1_555
O48 Si5 1.615566 1_545
O48 Y1 2.322793 1_555
O49 Si3 1.612061 1_555
O49 Y1 2.303431 1_555
O50 Si4 1.611550 1_655
O50 Y1 2.300132 1_555
O51 Si1 1.605792 1_555
O51 Y2 2.264232 1_555
O52 Si2 1.607450 1_655
O52 Y2 2.291756 1_555
O53 Si0 1.607065 1_545
O53 Y2 2.287286 1_555
O54 Si12 1.634191 1_555
O55 Si13 1.637100 1_655
O56 Si14 1.636474 1_545
O57 Si15 1.653883 1_545
O58 Si16 1.650063 1_555
O59 Si17 1.649396 1_655
O60 Si11 1.646201 1_555
O61 Si9 1.650183 1_455
O62 Si10 1.638769 1_565
O63 Si7 1.641590 1_565
O64 Si8 1.648213 1_555
O65 Si6 1.634746 1_455
O66 Si0 1.668978 1_555
O67 Si1 1.664330 1_555
O68 Si2 1.669037 1_555
O69 Si3 1.661183 1_555
O70 Si4 1.661424 1_555
O71 Si5 1.667090 1_555
