# generated using pymatgen
data_Na2Sc4Nb4Si5S7O48
_symmetry_space_group_name_H-M   'P 1'
_cell_length_a   17.81813189
_cell_length_b   8.90927398
_cell_length_c   23.17578076
_cell_angle_alpha   90.00212137
_cell_angle_beta   89.92352539
_cell_angle_gamma   120.06845319
_symmetry_Int_Tables_number   1
_chemical_formula_structural   Na2Sc4Nb4Si5S7O48
_chemical_formula_sum   'Na6 Sc12 Nb12 Si15 S21 O144'
_cell_volume   3183.97028529
_cell_formula_units_Z   3
loop_
 _symmetry_equiv_pos_site_id
 _symmetry_equiv_pos_as_xyz
  1  'x, y, z'
loop_
 _atom_site_type_symbol
 _atom_site_label
 _atom_site_symmetry_multiplicity
 _atom_site_fract_x
 _atom_site_fract_y
 _atom_site_fract_z
 _atom_site_occupancy
  Na  Na0  1  0.00049561  0.99178345  0.49599612  1
  Na  Na1  1  0.49686206  0.00423600  0.99450285  1
  Na  Na2  1  0.33251856  0.32040635  0.84328526  1
  Na  Na3  1  0.83333867  0.33728525  0.83782394  1
  Na  Na4  1  0.33062606  0.32641161  0.33405421  1
  Na  Na5  1  0.84085231  0.34526933  0.33650958  1
  Sc  Sc0  1  0.00699116  0.99274953  0.35545586  1
  Sc  Sc1  1  0.50487772  0.01959157  0.85617860  1
  Sc  Sc2  1  0.00514147  0.00639086  0.65183876  1
  Sc  Sc3  1  0.50471902  0.00540268  0.15023165  1
  Sc  Sc4  1  0.32826374  0.32472661  0.97568631  1
  Sc  Sc5  1  0.83896798  0.33272693  0.98304672  1
  Sc  Sc6  1  0.33832519  0.34498912  0.48349036  1
  Sc  Sc7  1  0.83295977  0.33253954  0.47920595  1
  Sc  Sc8  1  0.15717911  0.67106990  0.30959012  1
  Sc  Sc9  1  0.66732378  0.67059122  0.30554633  1
  Sc  Sc10  1  0.16705367  0.67269377  0.80658457  1
  Sc  Sc11  1  0.65830775  0.64435777  0.80940147  1
  Nb  Nb0  1  0.50317633  0.01331029  0.35172886  1
  Nb  Nb1  1  0.00868001  0.99261357  0.85529044  1
  Nb  Nb2  1  0.50401155  0.01084856  0.64036779  1
  Nb  Nb3  1  0.00554793  0.00087446  0.13952985  1
  Nb  Nb4  1  0.33409494  0.34660784  0.68792625  1
  Nb  Nb5  1  0.82989312  0.32716245  0.69184181  1
  Nb  Nb6  1  0.32998607  0.32881910  0.18822712  1
  Nb  Nb7  1  0.83308787  0.32142321  0.18604420  1
  Nb  Nb8  1  0.16192319  0.66689514  0.02364174  1
  Nb  Nb9  1  0.66552838  0.66235799  0.02122757  1
  Nb  Nb10  1  0.16540110  0.66902291  0.52182582  1
  Nb  Nb11  1  0.66439100  0.66916222  0.52589927  1
  Si  Si0  1  0.14094102  0.99803287  0.25053736  1
  Si  Si1  1  0.64736090  0.00755545  0.24886995  1
  Si  Si2  1  0.49944601  0.29151940  0.24755289  1
  Si  Si3  1  0.14640490  0.28979403  0.74995232  1
  Si  Si4  1  0.63995484  0.28330131  0.75107939  1
  Si  Si5  1  0.00015442  0.71186208  0.74817389  1
  Si  Si6  1  0.47300607  0.33127948  0.58205033  1
  Si  Si7  1  0.69358112  0.05450610  0.58205464  1
  Si  Si8  1  0.33175381  0.62183973  0.58314110  1
  Si  Si9  1  0.97391504  0.61598290  0.08217276  1
  Si  Si10  1  0.83190903  0.04003232  0.08256208  1
  Si  Si11  1  0.19447799  0.34209892  0.08122964  1
  Si  Si12  1  0.51976278  0.37430903  0.91623115  1
  Si  Si13  1  0.17099558  0.95317860  0.91440161  1
  Si  Si14  1  0.01834216  0.66404324  0.41641313  1
  S  S0  1  0.35639202  0.70940360  0.25153298  1
  S  S1  1  0.85922620  0.71107927  0.24911907  1
  S  S2  1  0.99783852  0.28166670  0.25014129  1
  S  S3  1  0.49864053  0.71547606  0.75013656  1
  S  S4  1  0.35961993  0.00722270  0.74782558  1
  S  S5  1  0.85552740  0.00093138  0.75150385  1
  S  S6  1  0.97837736  0.33251831  0.58204042  1
  S  S7  1  0.18819818  0.04433485  0.58146668  1
  S  S8  1  0.83418213  0.62413043  0.58162215  1
  S  S9  1  0.47814099  0.62357378  0.08176574  1
  S  S10  1  0.33474377  0.04463088  0.08239437  1
  S  S11  1  0.68856496  0.33247082  0.08151203  1
  S  S12  1  0.31078074  0.67079217  0.91731027  1
  S  S13  1  0.80993178  0.66779675  0.91564294  1
  S  S14  1  0.02198536  0.37592059  0.91531217  1
  S  S15  1  0.66731574  0.95297524  0.91659758  1
  S  S16  1  0.31072248  0.95318211  0.41553039  1
  S  S17  1  0.80978254  0.95080159  0.41744203  1
  S  S18  1  0.16744568  0.38201334  0.41675427  1
  S  S19  1  0.66576186  0.37987551  0.41581936  1
  S  S20  1  0.52388346  0.66860468  0.41561182  1
  O  O0  1  0.10626390  0.04716860  0.30784830  1
  O  O1  1  0.59410482  0.03410009  0.30675073  1
  O  O2  1  0.41428076  0.79488449  0.30355033  1
  O  O3  1  0.91294035  0.78660248  0.30140006  1
  O  O4  1  0.47998443  0.15749182  0.30687592  1
  O  O5  1  0.97974397  0.17651674  0.30248321  1
  O  O6  1  0.09535495  0.15561094  0.80681919  1
  O  O7  1  0.60447703  0.16324125  0.80751193  1
  O  O8  1  0.48065865  0.78445292  0.80212961  1
  O  O9  1  0.97905470  0.79984082  0.80646809  1
  O  O10  1  0.41280311  0.04043238  0.80011106  1
  O  O11  1  0.91103068  0.03416904  0.80245599  1
  O  O12  1  0.40270683  0.98710970  0.69626473  1
  O  O13  1  0.89336270  0.97915880  0.69817360  1
  O  O14  1  0.09017469  0.20446798  0.69278142  1
  O  O15  1  0.58141327  0.17986064  0.69471438  1
  O  O16  1  0.00607717  0.82084716  0.69185120  1
  O  O17  1  0.50474274  0.81355739  0.69781515  1
  O  O18  1  0.39469036  0.81038966  0.19921504  1
  O  O19  1  0.89915499  0.81681106  0.19752816  1
  O  O20  1  0.00427658  0.19568883  0.19830647  1
  O  O21  1  0.50740153  0.19331453  0.19275422  1
  O  O22  1  0.08059629  0.98165752  0.19540665  1
  O  O23  1  0.58947670  0.97733765  0.19302033  1
  O  O24  1  0.42820040  0.36346940  0.63862772  1
  O  O25  1  0.94144058  0.36375765  0.63469057  1
  O  O26  1  0.24016113  0.12184001  0.63402610  1
  O  O27  1  0.75765935  0.14497255  0.63758467  1
  O  O28  1  0.31281716  0.49175808  0.64017587  1
  O  O29  1  0.81956978  0.51707592  0.63390159  1
  O  O30  1  0.44127901  0.51814325  0.13529626  1
  O  O31  1  0.92576570  0.49331266  0.13950517  1
  O  O32  1  0.32298617  0.13046460  0.13553364  1
  O  O33  1  0.81263613  0.13248749  0.14052924  1
  O  O34  1  0.25727063  0.37164887  0.13907447  1
  O  O35  1  0.74074244  0.35672363  0.13450996  1
  O  O36  1  0.23488159  0.29664311  0.02844701  1
  O  O37  1  0.72882049  0.30879299  0.03010736  1
  O  O38  1  0.42569133  0.54014421  0.03134373  1
  O  O39  1  0.91689483  0.53812192  0.02587322  1
  O  O40  1  0.35022932  0.15219038  0.03162430  1
  O  O41  1  0.84982037  0.16192617  0.02806888  1
  O  O42  1  0.22863249  0.14799597  0.52965557  1
  O  O43  1  0.73286571  0.16826786  0.52588977  1
  O  O44  1  0.34991981  0.53847074  0.52769431  1
  O  O45  1  0.84828663  0.54528592  0.53033365  1
  O  O46  1  0.41803422  0.29775859  0.52479253  1
  O  O47  1  0.92580445  0.31230234  0.53079708  1
  O  O48  1  0.26576943  0.68881711  0.96994542  1
  O  O49  1  0.76773092  0.68757906  0.96988131  1
  O  O50  1  0.07312465  0.45455534  0.96982953  1
  O  O51  1  0.58449662  0.48382916  0.97378881  1
  O  O52  1  0.15752000  0.83252394  0.97339103  1
  O  O53  1  0.66216270  0.84683119  0.96974920  1
  O  O54  1  0.26981793  0.84962682  0.46951862  1
  O  O55  1  0.76399195  0.84044073  0.46998836  1
  O  O56  1  0.16218289  0.47751080  0.46962452  1
  O  O57  1  0.65352086  0.45950021  0.46882369  1
  O  O58  1  0.08234913  0.68130135  0.47374453  1
  O  O59  1  0.57605405  0.68951721  0.46958661  1
  O  O60  1  0.06543055  0.64111464  0.36048360  1
  O  O61  1  0.56685494  0.64525704  0.36595479  1
  O  O62  1  0.25836153  0.86667932  0.36490944  1
  O  O63  1  0.75912481  0.86662657  0.36615938  1
  O  O64  1  0.18015181  0.48417788  0.36483046  1
  O  O65  1  0.67754888  0.48428089  0.36500441  1
  O  O66  1  0.06433867  0.48282855  0.86525702  1
  O  O67  1  0.56813129  0.48995795  0.86020173  1
  O  O68  1  0.18030778  0.85946578  0.85943587  1
  O  O69  1  0.68017587  0.87649152  0.86470888  1
  O  O70  1  0.26104636  0.64893732  0.86536100  1
  O  O71  1  0.75707307  0.64738567  0.86495952  1
  O  O72  1  0.01394736  0.84294523  0.41659951  1
  O  O73  1  0.51585919  0.82676741  0.40969579  1
  O  O74  1  0.39763849  0.96521699  0.40974793  1
  O  O75  1  0.89688472  0.96973203  0.41584468  1
  O  O76  1  0.08476798  0.21384925  0.41658836  1
  O  O77  1  0.58330827  0.20310411  0.40932971  1
  O  O78  1  0.01118512  0.19949396  0.90914764  1
  O  O79  1  0.51572629  0.18679709  0.91660201  1
  O  O80  1  0.07749805  0.96011637  0.90796628  1
  O  O81  1  0.58479888  0.95537160  0.91659904  1
  O  O82  1  0.39813986  0.82978901  0.91494568  1
  O  O83  1  0.89535100  0.82918656  0.91086180  1
  O  O84  1  0.49068797  0.17199725  0.59495381  1
  O  O85  1  0.98887299  0.17950705  0.58678586  1
  O  O86  1  0.09928291  0.01452928  0.58644701  1
  O  O87  1  0.59577522  0.01224127  0.59732612  1
  O  O88  1  0.41157400  0.80814906  0.60218984  1
  O  O89  1  0.90623904  0.80226395  0.58788695  1
  O  O90  1  0.48970871  0.79876678  0.08843512  1
  O  O91  1  0.99016896  0.80989569  0.09558896  1
  O  O92  1  0.40825010  0.01498718  0.09047645  1
  O  O93  1  0.91211695  0.01639191  0.10265986  1
  O  O94  1  0.09668642  0.18195555  0.09811655  1
  O  O95  1  0.59986995  0.18326772  0.08723024  1
  O  O96  1  0.34987259  0.16475506  0.73920912  1
  O  O97  1  0.85038611  0.16919369  0.74501945  1
  O  O98  1  0.24117751  0.29234547  0.74149842  1
  O  O99  1  0.73844380  0.30195053  0.73703613  1
  O  O100  1  0.41906167  0.53112352  0.74267386  1
  O  O101  1  0.91051815  0.51686107  0.73865600  1
  O  O102  1  0.35307217  0.53632488  0.24664697  1
  O  O103  1  0.84924524  0.53395061  0.24139103  1
  O  O104  1  0.41201551  0.30937350  0.24066451  1
  O  O105  1  0.91860715  0.30717831  0.24281416  1
  O  O106  1  0.23957248  0.17515137  0.23633506  1
  O  O107  1  0.74119958  0.19209629  0.24388477  1
  O  O108  1  0.32154728  0.51744997  0.92427212  1
  O  O109  1  0.81980371  0.51346559  0.92177380  1
  O  O110  1  0.42751644  0.36099446  0.92475595  1
  O  O111  1  0.93389819  0.35661010  0.92091558  1
  O  O112  1  0.24845267  0.14896948  0.92034560  1
  O  O113  1  0.74222394  0.13078966  0.92379505  1
  O  O114  1  0.32173652  0.12808651  0.42114188  1
  O  O115  1  0.81654250  0.12279799  0.42372399  1
  O  O116  1  0.24224745  0.35378637  0.42372570  1
  O  O117  1  0.73955761  0.35035442  0.42167717  1
  O  O118  1  0.43610620  0.51413860  0.42105471  1
  O  O119  1  0.92272320  0.49401474  0.42360276  1
  O  O120  1  0.18484425  0.51270235  0.07003767  1
  O  O121  1  0.68310569  0.49517700  0.07505859  1
  O  O122  1  0.06980457  0.63319799  0.07286622  1
  O  O123  1  0.56784548  0.64425803  0.07429676  1
  O  O124  1  0.25351296  0.87294381  0.07683600  1
  O  O125  1  0.74713732  0.84909424  0.07046678  1
  O  O126  1  0.18228468  0.86915159  0.57380605  1
  O  O127  1  0.68307047  0.85802835  0.57011550  1
  O  O128  1  0.24691729  0.64421156  0.56955206  1
  O  O129  1  0.75170781  0.63304407  0.57204452  1
  O  O130  1  0.06787586  0.49096837  0.57371879  1
  O  O131  1  0.57163546  0.50381854  0.56917020  1
  O  O132  1  0.15798558  0.83866342  0.25574951  1
  O  O133  1  0.66444292  0.85444213  0.26475783  1
  O  O134  1  0.27036610  0.68116536  0.26272291  1
  O  O135  1  0.77229857  0.68849700  0.25679995  1
  O  O136  1  0.07533499  0.45390521  0.25493475  1
  O  O137  1  0.58103677  0.47088511  0.26459455  1
  O  O138  1  0.16710121  0.47844292  0.76489858  1
  O  O139  1  0.65747209  0.47685763  0.75476527  1
  O  O140  1  0.07833982  0.68086214  0.75966184  1
  O  O141  1  0.57568854  0.69756416  0.75441546  1
  O  O142  1  0.27389926  0.85401023  0.75249364  1
  O  O143  1  0.76771817  0.85879798  0.75999021  1
loop_
_geom_bond_atom_site_label_1
_geom_bond_atom_site_label_2
_geom_bond_distance
_geom_bond_site_symmetry_2
Na0 O72 2.349224 1_555
Na0 O75 2.557954 1_455
Na0 O76 2.563548 1_565
Na0 O86 2.680693 1_565
Na0 O89 2.712208 1_455
Na0 O85 2.759179 1_465
Na1 O79 2.338529 1_555
Na1 O82 2.485609 1_545
Na1 O81 2.565210 1_545
Na1 O92 2.755286 1_556
Na1 O95 2.758238 1_556
Na1 O90 2.805735 1_546
Na2 O112 2.338078 1_555
Na2 O110 2.440525 1_555
Na2 O108 2.643028 1_555
Na2 O98 2.806894 1_555
Na2 O96 2.874731 1_555
Na2 O100 2.903297 1_555
Na3 O111 2.578480 1_555
Na3 O109 2.585566 1_555
Na3 O113 2.643643 1_555
Na3 O97 2.723023 1_555
Na3 O101 2.742278 1_555
Na3 O99 2.809146 1_555
Na4 O114 2.634337 1_555
Na4 O102 2.647583 1_555
Na4 O104 2.650070 1_555
Na4 O116 2.689669 1_555
Na4 O118 2.693528 1_555
Na4 O106 2.719540 1_555
Na5 O119 2.455373 1_555
Na5 O107 2.684228 1_555
Na5 O105 2.685692 1_555
Na5 O117 2.688505 1_555
Na5 O115 2.709118 1_555
Na5 O103 2.730428 1_555
Nb0 O4 1.853260 1_555
Nb0 O1 1.854905 1_555
Nb0 O77 2.065319 1_555
Nb0 O2 2.111495 1_545
Nb0 O74 2.171118 1_545
Nb0 O73 2.235021 1_545
Nb1 O80 1.854064 1_555
Nb1 O6 1.871904 1_565
Nb1 O9 1.897787 1_455
Nb1 O78 2.207874 1_565
Nb1 O83 2.214334 1_455
Nb1 O11 2.305428 1_465
Nb2 O84 1.888845 1_555
Nb2 O87 1.908910 1_555
Nb2 O15 1.918158 1_555
Nb2 O88 1.944266 1_545
Nb2 O12 2.142990 1_545
Nb2 O17 2.210320 1_545
Nb3 O94 1.879283 1_555
Nb3 O91 1.881649 1_445
Nb3 O22 1.930939 1_545
Nb3 O93 1.937820 1_455
Nb3 O20 2.215338 1_555
Nb3 O19 2.228876 1_445
Nb4 O28 1.879699 1_555
Nb4 O98 1.925825 1_555
Nb4 O24 1.970288 1_555
Nb4 O100 2.028643 1_555
Nb4 O96 2.138700 1_555
Nb4 O26 2.240241 1_555
Nb5 O99 1.852391 1_555
Nb5 O101 1.915289 1_555
Nb5 O27 1.945032 1_555
Nb5 O97 2.036973 1_555
Nb5 O29 2.238863 1_555
Nb5 O25 2.270404 1_555
Nb6 O106 1.870280 1_555
Nb6 O34 1.902993 1_555
Nb6 O104 1.975277 1_555
Nb6 O32 2.099826 1_555
Nb6 O102 2.158556 1_555
Nb6 O30 2.219058 1_555
Nb7 O33 1.861490 1_555
Nb7 O31 1.922691 1_555
Nb7 O107 1.977137 1_555
Nb7 O105 2.065972 1_555
Nb7 O35 2.180968 1_555
Nb7 O103 2.183572 1_555
Nb8 O122 1.893927 1_555
Nb8 O52 1.912151 1_554
Nb8 O120 1.942591 1_555
Nb8 O124 2.134534 1_555
Nb8 O48 2.154606 1_554
Nb8 O50 2.154840 1_554
Nb9 O51 1.877802 1_554
Nb9 O125 1.940267 1_555
Nb9 O53 2.056024 1_554
Nb9 O123 2.069103 1_555
Nb9 O121 2.083667 1_555
Nb9 O49 2.089740 1_554
Nb10 O58 1.900054 1_555
Nb10 O128 1.925618 1_555
Nb10 O126 2.045523 1_555
Nb10 O130 2.052991 1_555
Nb10 O56 2.068851 1_555
Nb10 O54 2.124711 1_555
Nb11 O127 1.852513 1_555
Nb11 O131 1.860974 1_555
Nb11 O129 2.043038 1_555
Nb11 O55 2.106527 1_555
Nb11 O59 2.122535 1_555
Nb11 O57 2.216841 1_555
O0 Si0 1.614438 1_545
O0 Sc0 1.927882 1_545
O1 Si1 1.725481 1_555
O2 S0 1.520968 1_555
O3 S1 1.481409 1_555
O3 Sc0 2.161533 1_655
O4 Si2 1.737886 1_555
O5 S2 1.466105 1_555
O5 Sc0 2.285102 1_645
O6 Si3 1.703160 1_555
O7 Si4 1.604556 1_555
O7 Sc1 1.943794 1_555
O8 S3 1.458940 1_555
O8 Sc1 2.288954 1_565
O9 Si5 1.695531 1_655
O10 S4 1.475117 1_555
O10 Sc1 2.173812 1_555
O11 S5 1.473021 1_555
O12 S4 1.478122 1_565
O13 S5 1.465788 1_565
O13 Sc2 2.165392 1_665
O14 Si3 1.605474 1_555
O14 Sc2 1.906473 1_555
O15 Si4 1.638309 1_555
O16 Si5 1.598389 1_555
O16 Sc2 1.902782 1_565
O17 S3 1.466390 1_555
O18 S0 1.458757 1_555
O18 Sc3 2.175292 1_565
O19 S1 1.466071 1_555
O20 S2 1.459686 1_455
O21 Si2 1.588152 1_555
O21 Sc3 1.922526 1_555
O22 Si0 1.629839 1_555
O23 Si1 1.592765 1_565
O23 Sc3 1.925902 1_565
O24 Si6 1.632647 1_555
O25 S6 1.476790 1_555
O26 S7 1.476530 1_555
O27 Si7 1.640478 1_555
O28 Si8 1.676684 1_555
O29 S8 1.481856 1_555
O30 S9 1.494157 1_555
O31 Si9 1.659361 1_555
O32 S10 1.518276 1_555
O33 Si10 1.698051 1_555
O34 Si11 1.681412 1_555
O35 S11 1.490440 1_555
O36 Si11 1.571135 1_555
O36 Sc4 1.975787 1_554
O37 S11 1.458634 1_555
O37 Sc5 2.159132 1_554
O38 S9 1.448516 1_555
O38 Sc4 2.242330 1_554
O39 Si9 1.585289 1_555
O39 Sc5 1.928503 1_554
O40 S10 1.453671 1_555
O40 Sc4 2.191147 1_554
O41 Si10 1.589941 1_555
O41 Sc5 1.933196 1_554
O42 S7 1.464531 1_555
O42 Sc6 2.145290 1_555
O43 Si7 1.580601 1_555
O43 Sc7 1.967924 1_555
O44 Si8 1.596082 1_555
O44 Sc6 1.925408 1_555
O45 S8 1.464761 1_555
O45 Sc7 2.133829 1_555
O46 Si6 1.587396 1_555
O46 Sc6 1.926914 1_555
O47 S6 1.467731 1_555
O47 Sc7 2.122046 1_555
O48 S12 1.511131 1_555
O49 S13 1.518825 1_555
O50 S14 1.510235 1_555
O51 Si12 1.714095 1_555
O52 Si13 1.680115 1_555
O53 S15 1.527382 1_555
O54 S16 1.507244 1_555
O55 S17 1.519554 1_555
O56 S18 1.521060 1_555
O57 S19 1.487983 1_555
O58 Si14 1.708245 1_555
O59 S20 1.514312 1_555
O60 Si14 1.610802 1_555
O60 Sc8 1.921627 1_555
O61 S20 1.452991 1_555
O61 Sc9 2.191830 1_555
O62 S16 1.457080 1_555
O62 Sc8 2.188326 1_555
O63 S17 1.454027 1_555
O63 Sc9 2.200568 1_555
O64 S18 1.456266 1_555
O64 Sc8 2.294245 1_555
O65 S19 1.449109 1_555
O65 Sc9 2.234091 1_555
O66 S14 1.449115 1_555
O66 Sc10 2.225134 1_555
O67 Si12 1.611779 1_555
O67 Sc11 1.907965 1_555
O68 Si13 1.576561 1_555
O68 Sc10 1.982881 1_555
O69 S15 1.455560 1_555
O69 Sc11 2.294701 1_555
O70 S12 1.450060 1_555
O70 Sc10 2.250898 1_555
O71 S13 1.459863 1_555
O71 Sc11 2.171189 1_555
O72 Si14 1.634532 1_555
O72 Sc0 1.992752 1_555
O73 S20 1.492247 1_555
O74 S16 1.503635 1_555
O75 S17 1.475149 1_555
O75 Sc0 2.332245 1_655
O76 S18 1.484322 1_555
O76 Sc0 2.253358 1_545
O77 S19 1.530813 1_555
O78 S14 1.491661 1_555
O79 Si12 1.635767 1_555
O79 Sc1 1.982305 1_555
O80 Si13 1.704497 1_555
O81 S15 1.481108 1_555
O81 Sc1 2.266698 1_565
O82 S12 1.490903 1_555
O82 Sc1 2.258784 1_565
O83 S13 1.484197 1_555
O84 Si6 1.628131 1_555
O85 S6 1.470023 1_555
O85 Sc2 2.277103 1_655
O86 S7 1.473701 1_555
O86 Sc2 2.233184 1_555
O87 Si7 1.626318 1_555
O88 Si8 1.615198 1_555
O89 S8 1.465217 1_555
O89 Sc2 2.324848 1_665
O90 S9 1.476581 1_555
O90 Sc3 2.240380 1_565
O91 Si9 1.632193 1_555
O92 S10 1.472261 1_555
O92 Sc3 2.243483 1_555
O93 Si10 1.614686 1_555
O94 Si11 1.652874 1_555
O95 S11 1.475297 1_555
O95 Sc3 2.195181 1_555
O96 S4 1.511366 1_555
O97 S5 1.554326 1_555
O98 Si3 1.688539 1_555
O99 Si4 1.708645 1_555
O100 S3 1.550817 1_555
O101 Si5 1.684706 1_655
O102 S0 1.517467 1_555
O103 S1 1.507614 1_555
O104 Si2 1.651260 1_555
O105 S2 1.547816 1_555
O106 Si0 1.704849 1_545
O107 Si1 1.660411 1_555
O108 S12 1.480532 1_555
O108 Sc4 2.142140 1_555
O109 S13 1.477882 1_555
O109 Sc5 2.297499 1_555
O110 Si12 1.599522 1_555
O110 Sc4 2.011729 1_555
O111 S14 1.496268 1_655
O111 Sc5 2.147710 1_555
O112 Si13 1.598309 1_545
O112 Sc4 1.972956 1_555
O113 S15 1.483485 1_545
O113 Sc5 2.234366 1_555
O114 S16 1.475550 1_545
O114 Sc6 2.310460 1_555
O115 S17 1.482874 1_545
O115 Sc7 2.164221 1_555
O116 S18 1.483991 1_555
O116 Sc6 2.235197 1_555
O117 S19 1.470919 1_555
O117 Sc7 2.200722 1_555
O118 S20 1.482773 1_555
O118 Sc6 2.182374 1_555
O119 Si14 1.624276 1_655
O119 Sc7 1.994318 1_555
O120 Si11 1.633584 1_555
O121 S11 1.508147 1_555
O122 Si9 1.650966 1_455
O123 S9 1.524075 1_555
O124 S10 1.494384 1_565
O125 Si10 1.637132 1_565
O126 S7 1.521124 1_565
O127 Si7 1.687421 1_565
O128 Si8 1.651401 1_555
O129 S8 1.527395 1_555
O130 S6 1.521981 1_455
O131 Si6 1.682883 1_555
O132 Si0 1.598457 1_555
O132 Sc8 1.940426 1_555
O133 Si1 1.582866 1_565
O133 Sc9 1.914081 1_555
O134 S0 1.446584 1_555
O134 Sc8 2.251151 1_555
O135 S1 1.469088 1_555
O135 Sc9 2.120311 1_555
O136 S2 1.466595 1_455
O136 Sc8 2.156832 1_555
O137 Si2 1.580082 1_555
O137 Sc9 1.921682 1_555
O138 Si3 1.568448 1_555
O138 Sc10 1.982372 1_555
O139 Si4 1.593467 1_555
O139 Sc11 1.951459 1_555
O140 Si5 1.573052 1_555
O140 Sc10 1.951004 1_555
O141 S3 1.462847 1_555
O141 Sc11 2.172584 1_555
O142 S4 1.455411 1_565
O142 Sc10 2.171975 1_555
O143 S5 1.450522 1_565
O143 Sc11 2.241403 1_555
