# generated using pymatgen
data_UFe5Sn
_symmetry_space_group_name_H-M   'P 1'
_cell_length_a   4.70047000
_cell_length_b   8.08879300
_cell_length_c   10.44209700
_cell_angle_alpha   90.00000000
_cell_angle_beta   90.00000000
_cell_angle_gamma   90.00000000
_symmetry_Int_Tables_number   1
_chemical_formula_structural   UFe5Sn
_chemical_formula_sum   'U4 Fe20 Sn4'
_cell_volume   397.02031532
_cell_formula_units_Z   4
loop_
 _symmetry_equiv_pos_site_id
 _symmetry_equiv_pos_as_xyz
  1  'x, y, z'
loop_
 _atom_site_type_symbol
 _atom_site_label
 _atom_site_symmetry_multiplicity
 _atom_site_fract_x
 _atom_site_fract_y
 _atom_site_fract_z
 _atom_site_occupancy
  U  U0  1  0.25000000  0.23949900  0.43950400  1
  U  U1  1  0.75000000  0.76050100  0.56049600  1
  U  U2  1  0.25000000  0.73949900  0.06049600  1
  U  U3  1  0.75000000  0.26050100  0.93950400  1
  Fe  Fe0  1  0.75000000  0.93035300  0.10666800  1
  Fe  Fe1  1  0.75000000  0.60672800  0.02378000  1
  Fe  Fe2  1  0.25000000  0.89327200  0.52378000  1
  Fe  Fe3  1  0.75000000  0.10672800  0.47622000  1
  Fe  Fe4  1  0.00078300  0.42741900  0.18452600  1
  Fe  Fe5  1  0.50078300  0.57258100  0.81547400  1
  Fe  Fe6  1  0.49921700  0.92741900  0.31547400  1
  Fe  Fe7  1  0.99921700  0.07258100  0.68452600  1
  Fe  Fe8  1  0.99921700  0.57258100  0.81547400  1
  Fe  Fe9  1  0.49921700  0.42741900  0.18452600  1
  Fe  Fe10  1  0.50078300  0.07258100  0.68452600  1
  Fe  Fe11  1  0.25000000  0.31862800  0.75124100  1
  Fe  Fe12  1  0.75000000  0.43035300  0.39333200  1
  Fe  Fe13  1  0.25000000  0.56964700  0.60666800  1
  Fe  Fe14  1  0.00078300  0.92741900  0.31547400  1
  Fe  Fe15  1  0.25000000  0.06964700  0.89333200  1
  Fe  Fe16  1  0.75000000  0.18137200  0.25124100  1
  Fe  Fe17  1  0.25000000  0.81862800  0.74875900  1
  Fe  Fe18  1  0.75000000  0.68137200  0.24875900  1
  Fe  Fe19  1  0.25000000  0.39327200  0.97622000  1
  Sn  Sn0  1  0.75000000  0.37249100  0.63960800  1
  Sn  Sn1  1  0.25000000  0.62750900  0.36039200  1
  Sn  Sn2  1  0.75000000  0.87249100  0.86039200  1
  Sn  Sn3  1  0.25000000  0.12750900  0.13960800  1
loop_
_geom_bond_atom_site_label_1
_geom_bond_atom_site_label_2
_geom_bond_distance
_geom_bond_site_symmetry_2
Fe0 Fe14 2.478740 1_655
Fe0 Fe6 2.478740 1_555
Fe0 Fe18 2.501493 1_555
Fe0 Fe16 2.530162 1_565
Fe0 Sn2 2.613882 1_554
Fe0 Fe1 2.757113 1_555
Fe0 U2 2.852947 1_555
Fe0 U2 2.852947 1_655
Fe0 Sn3 2.860971 1_665
Fe0 Sn3 2.860971 1_565
Fe0 U3 3.190374 1_564
Fe1 Fe18 2.425600 1_555
Fe1 Fe8 2.485928 1_554
Fe1 Fe5 2.485928 1_554
Fe1 Fe4 2.512101 1_655
Fe1 Fe9 2.512101 1_555
Fe1 U2 2.612274 1_555
Fe1 U2 2.612274 1_655
Fe1 Sn2 2.744456 1_554
Fe1 U3 2.935568 1_554
Fe2 Fe6 2.485928 1_555
Fe2 Fe7 2.512101 1_465
Fe2 U1 2.612274 1_455
Fe2 U1 2.612274 1_555
Fe2 Sn1 2.744456 1_555
Fe2 U0 2.935568 1_565
Fe3 Fe7 2.485928 1_555
Fe3 Fe6 2.512101 1_545
Fe3 U0 2.612274 1_555
Fe3 U0 2.612274 1_655
Fe3 Sn0 2.744456 1_555
Fe3 U1 2.935568 1_545
Fe4 Fe9 2.342874 1_555
Fe4 Fe9 2.357596 1_455
Fe4 Sn1 2.713699 1_555
Fe4 Sn3 2.734465 1_555
Fe4 U2 3.069524 1_555
Fe4 U3 3.123885 1_454
Fe4 U0 3.282033 1_555
Fe5 Fe8 2.342874 1_555
Fe5 Fe8 2.357596 1_455
Fe5 Sn0 2.713699 1_555
Fe5 Sn2 2.734465 1_555
Fe5 U3 3.069524 1_555
Fe5 U2 3.123885 1_556
Fe5 U1 3.282033 1_555
Fe6 Sn3 2.713699 1_565
Fe6 Sn1 2.734465 1_555
Fe6 U0 3.069524 1_565
Fe6 U1 3.123885 1_555
Fe6 U2 3.282033 1_555
Fe7 Sn2 2.713699 1_545
Fe7 Sn0 2.734465 1_555
Fe7 U1 3.069524 1_545
Fe7 U0 3.123885 1_655
Fe7 U3 3.282033 1_555
Fe8 Sn0 2.713699 1_555
Fe8 Sn2 2.734465 1_555
Fe8 U3 3.069524 1_555
Fe8 U2 3.123885 1_656
Fe8 U1 3.282033 1_555
Fe9 Sn1 2.713699 1_555
Fe9 Sn3 2.734465 1_555
Fe9 U2 3.069524 1_555
Fe9 U3 3.123885 1_554
Fe9 U0 3.282033 1_555
Fe10 Fe7 2.342874 1_555
Fe10 Fe7 2.357596 1_455
Fe10 Fe11 2.415754 1_555
Fe10 Fe17 2.461517 1_545
Fe10 Fe15 2.478740 1_555
Fe10 Fe3 2.485928 1_555
Fe10 Fe2 2.512101 1_545
Fe10 Sn2 2.713699 1_545
Fe10 Sn0 2.734465 1_555
Fe10 U1 3.069524 1_545
Fe10 U0 3.123885 1_555
Fe10 U3 3.282033 1_555
Fe11 Fe7 2.415754 1_455
Fe11 Fe19 2.425600 1_555
Fe11 Fe5 2.461517 1_555
Fe11 Fe8 2.461517 1_455
Fe11 Fe15 2.501493 1_555
Fe11 Fe13 2.530162 1_555
Fe11 Sn0 2.659369 1_555
Fe11 Sn0 2.659369 1_455
Fe11 U3 3.099884 1_455
Fe11 U3 3.099884 1_555
Fe11 U0 3.317518 1_555
Fe12 Fe4 2.478740 1_655
Fe12 Fe9 2.478740 1_555
Fe12 Fe16 2.501493 1_555
Fe12 Fe18 2.530162 1_555
Fe12 Sn0 2.613882 1_555
Fe12 Fe3 2.757113 1_555
Fe12 U0 2.852947 1_555
Fe12 U0 2.852947 1_655
Fe12 Sn1 2.860971 1_555
Fe12 Sn1 2.860971 1_655
Fe12 U1 3.190374 1_555
Fe13 Fe5 2.478740 1_555
Fe13 Fe8 2.478740 1_455
Fe13 Fe17 2.501493 1_555
Fe13 Sn1 2.613882 1_555
Fe13 Fe2 2.757113 1_555
Fe13 U1 2.852947 1_555
Fe13 U1 2.852947 1_455
Fe13 Sn0 2.860971 1_455
Fe13 Sn0 2.860971 1_555
Fe13 U0 3.190374 1_555
Fe14 Fe6 2.342874 1_555
Fe14 Fe6 2.357596 1_455
Fe14 Fe18 2.415754 1_455
Fe14 Fe16 2.461517 1_465
Fe14 Fe2 2.485928 1_555
Fe14 Fe3 2.512101 1_465
Fe14 Sn3 2.713699 1_565
Fe14 Sn1 2.734465 1_555
Fe14 U0 3.069524 1_565
Fe14 U1 3.123885 1_455
Fe14 U2 3.282033 1_555
Fe15 Fe7 2.478740 1_455
Fe15 Fe17 2.530162 1_545
Fe15 Sn3 2.613882 1_556
Fe15 Fe19 2.757113 1_555
Fe15 U3 2.852947 1_455
Fe15 U3 2.852947 1_555
Fe15 Sn2 2.860971 1_445
Fe15 Sn2 2.860971 1_545
Fe15 U2 3.190374 1_546
Fe16 Fe4 2.415754 1_655
Fe16 Fe9 2.415754 1_555
Fe16 Fe3 2.425600 1_555
Fe16 Fe6 2.461517 1_545
Fe16 Sn3 2.659369 1_555
Fe16 Sn3 2.659369 1_655
Fe16 U0 3.099884 1_655
Fe16 U0 3.099884 1_555
Fe16 U3 3.317518 1_554
Fe17 Fe5 2.415754 1_555
Fe17 Fe8 2.415754 1_455
Fe17 Fe2 2.425600 1_555
Fe17 Fe7 2.461517 1_465
Fe17 Sn2 2.659369 1_455
Fe17 Sn2 2.659369 1_555
Fe17 U1 3.099884 1_555
Fe17 U1 3.099884 1_455
Fe17 U2 3.317518 1_556
Fe18 Fe6 2.415754 1_555
Fe18 Fe4 2.461517 1_655
Fe18 Fe9 2.461517 1_555
Fe18 Sn1 2.659369 1_555
Fe18 Sn1 2.659369 1_655
Fe18 U2 3.099884 1_555
Fe18 U2 3.099884 1_655
Fe18 U1 3.317518 1_555
Fe19 Fe9 2.485928 1_556
Fe19 Fe4 2.485928 1_556
Fe19 Fe5 2.512101 1_555
Fe19 Fe8 2.512101 1_455
Fe19 U3 2.612274 1_455
Fe19 U3 2.612274 1_555
Fe19 Sn3 2.744456 1_556
Fe19 U2 2.935568 1_556
Sn0 U1 3.245431 1_555
Sn0 U3 3.259931 1_555
Sn0 U0 3.323682 1_655
Sn0 U0 3.323682 1_555
Sn1 U0 3.245431 1_555
Sn1 U2 3.259931 1_555
Sn1 U1 3.323682 1_555
Sn1 U1 3.323682 1_455
Sn2 U3 3.245431 1_565
Sn2 U1 3.259931 1_555
Sn2 U2 3.323682 1_656
Sn2 U2 3.323682 1_556
Sn3 U2 3.245431 1_545
Sn3 U0 3.259931 1_555
Sn3 U3 3.323682 1_554
Sn3 U3 3.323682 1_454
