# generated using pymatgen
data_V4O9
_symmetry_space_group_name_H-M   'P 1'
_cell_length_a   3.70357100
_cell_length_b   9.55549100
_cell_length_c   18.19565100
_cell_angle_alpha   90.00000000
_cell_angle_beta   90.00000000
_cell_angle_gamma   90.00000000
_symmetry_Int_Tables_number   1
_chemical_formula_structural   V4O9
_chemical_formula_sum   'V16 O36'
_cell_volume   643.93388765
_cell_formula_units_Z   4
loop_
 _symmetry_equiv_pos_site_id
 _symmetry_equiv_pos_as_xyz
  1  'x, y, z'
loop_
 _atom_site_type_symbol
 _atom_site_label
 _atom_site_symmetry_multiplicity
 _atom_site_fract_x
 _atom_site_fract_y
 _atom_site_fract_z
 _atom_site_occupancy
  V  V0  1  0.75000000  0.03604600  0.42201000  1
  V  V1  1  0.25000000  0.96395400  0.57799000  1
  V  V2  1  0.75000000  0.46395400  0.92201000  1
  V  V3  1  0.25000000  0.53604600  0.07799000  1
  V  V4  1  0.25000000  0.27038500  0.49024000  1
  V  V5  1  0.75000000  0.77038500  0.00976000  1
  V  V6  1  0.25000000  0.22961500  0.99024000  1
  V  V7  1  0.75000000  0.72961500  0.50976000  1
  V  V8  1  0.25000000  0.45390200  0.31710100  1
  V  V9  1  0.25000000  0.04609800  0.81710100  1
  V  V10  1  0.75000000  0.95390200  0.18289900  1
  V  V11  1  0.75000000  0.54609800  0.68289900  1
  V  V12  1  0.25000000  0.20339900  0.16766400  1
  V  V13  1  0.25000000  0.29660100  0.66766400  1
  V  V14  1  0.75000000  0.79660100  0.83233600  1
  V  V15  1  0.75000000  0.70339900  0.33233600  1
  O  O0  1  0.25000000  0.44754300  0.95073900  1
  O  O1  1  0.25000000  0.05245700  0.45073900  1
  O  O2  1  0.75000000  0.55245700  0.04926100  1
  O  O3  1  0.75000000  0.94754300  0.54926100  1
  O  O4  1  0.25000000  0.64919900  0.34476400  1
  O  O5  1  0.75000000  0.35080100  0.65523600  1
  O  O6  1  0.25000000  0.85080100  0.84476400  1
  O  O7  1  0.75000000  0.14919900  0.15523600  1
  O  O8  1  0.25000000  0.15610600  0.58482200  1
  O  O9  1  0.25000000  0.34389400  0.08482200  1
  O  O10  1  0.75000000  0.84389400  0.41517800  1
  O  O11  1  0.75000000  0.65610600  0.91517800  1
  O  O12  1  0.75000000  0.81683900  0.26008500  1
  O  O13  1  0.25000000  0.31683900  0.23991500  1
  O  O14  1  0.25000000  0.18316100  0.73991500  1
  O  O15  1  0.75000000  0.68316100  0.76008500  1
  O  O16  1  0.25000000  0.58307000  0.16325700  1
  O  O17  1  0.75000000  0.41693000  0.83674300  1
  O  O18  1  0.25000000  0.91693000  0.66325700  1
  O  O19  1  0.75000000  0.08307000  0.33674300  1
  O  O20  1  0.25000000  0.35301600  0.39643000  1
  O  O21  1  0.75000000  0.85301600  0.10357000  1
  O  O22  1  0.25000000  0.14698400  0.89643000  1
  O  O23  1  0.75000000  0.64698400  0.60357000  1
  O  O24  1  0.25000000  0.72249100  0.02289400  1
  O  O25  1  0.75000000  0.27750900  0.97710600  1
  O  O26  1  0.25000000  0.77750900  0.52289400  1
  O  O27  1  0.75000000  0.22249100  0.47710600  1
  O  O28  1  0.75000000  0.90654100  0.95525400  1
  O  O29  1  0.75000000  0.59345900  0.45525400  1
  O  O30  1  0.25000000  0.40654100  0.54474600  1
  O  O31  1  0.25000000  0.09345900  0.04474600  1
  O  O32  1  0.75000000  0.50868200  0.29794100  1
  O  O33  1  0.75000000  0.99131800  0.79794100  1
  O  O34  1  0.25000000  0.00868200  0.20205900  1
  O  O35  1  0.25000000  0.49131800  0.70205900  1
loop_
_geom_bond_atom_site_label_1
_geom_bond_atom_site_label_2
_geom_bond_distance
_geom_bond_site_symmetry_2
O0 V2 1.930534 1_555
O0 V2 1.930534 1_455
O0 V6 2.202958 1_555
O0 V3 2.465023 1_556
O1 V0 1.930534 1_555
O1 V0 1.930534 1_455
O1 V4 2.202958 1_555
O1 V1 2.465023 1_545
O2 V3 1.930534 1_555
O2 V3 1.930534 1_655
O2 V5 2.202958 1_555
O2 V2 2.465023 1_554
O3 V1 1.930534 1_655
O3 V1 1.930534 1_555
O3 V7 2.202958 1_555
O3 V0 2.465023 1_565
O4 V8 1.932849 1_555
O4 V15 1.936098 1_455
O4 V15 1.936098 1_555
O5 V11 1.932849 1_555
O5 V13 1.936098 1_555
O5 V13 1.936098 1_655
O6 V9 1.932849 1_565
O6 V14 1.936098 1_455
O6 V14 1.936098 1_555
O7 V10 1.932849 1_545
O7 V12 1.936098 1_555
O7 V12 1.936098 1_655
O8 V1 1.840310 1_545
O8 V13 2.018527 1_555
O8 V4 2.038191 1_555
O9 V3 1.840310 1_555
O9 V12 2.018527 1_555
O9 V6 2.038191 1_554
O10 V0 1.840310 1_565
O10 V15 2.018527 1_555
O10 V7 2.038191 1_555
O11 V2 1.840310 1_555
O11 V14 2.018527 1_555
O11 V5 2.038191 1_556
O12 V15 1.703912 1_555
O12 V10 1.920366 1_555
O13 V12 1.703912 1_555
O13 V8 1.920366 1_555
O14 V13 1.703912 1_555
O14 V9 1.920366 1_555
O15 V14 1.703912 1_555
O15 V11 1.920366 1_555
O16 V3 1.615246 1_555
O17 V2 1.615246 1_555
O18 V1 1.615246 1_555
O19 V0 1.615246 1_555
O20 V8 1.735757 1_555
O20 V4 1.880707 1_555
O21 V10 1.735757 1_555
O21 V5 1.880707 1_555
O22 V9 1.735757 1_555
O22 V6 1.880707 1_555
O23 V11 1.735757 1_555
O23 V7 1.880707 1_555
O24 V5 1.922411 1_555
O24 V5 1.922411 1_455
O24 V3 2.044267 1_555
O25 V6 1.922411 1_555
O25 V6 1.922411 1_655
O25 V2 2.044267 1_555
O26 V7 1.922411 1_555
O26 V7 1.922411 1_455
O26 V1 2.044267 1_555
O27 V4 1.922411 1_555
O27 V4 1.922411 1_655
O27 V0 2.044267 1_555
O28 V5 1.635943 1_556
O28 V14 2.471007 1_555
O29 V7 1.635943 1_555
O29 V15 2.471007 1_555
O30 V4 1.635943 1_555
O30 V13 2.471007 1_555
O31 V6 1.635943 1_554
O31 V12 2.471007 1_555
O32 V8 1.955672 1_655
O32 V8 1.955672 1_555
O32 V15 1.963051 1_555
O33 V9 1.955672 1_665
O33 V9 1.955672 1_565
O33 V14 1.963051 1_555
O34 V10 1.955672 1_445
O34 V10 1.955672 1_545
O34 V12 1.963051 1_555
O35 V11 1.955672 1_455
O35 V11 1.955672 1_555
O35 V13 1.963051 1_555
