# generated using pymatgen
data_Na3Nb2Si3Sn2(PO8)3
_symmetry_space_group_name_H-M   'P 1'
_cell_length_a   8.89818077
_cell_length_b   8.87018888
_cell_length_c   22.84146256
_cell_angle_alpha   90.18348383
_cell_angle_beta   89.72542841
_cell_angle_gamma   119.96950599
_symmetry_Int_Tables_number   1
_chemical_formula_structural   Na3Nb2Si3Sn2(PO8)3
_chemical_formula_sum   'Na9 Nb6 Si9 Sn6 P9 O72'
_cell_volume   1561.76909065
_cell_formula_units_Z   3
loop_
 _symmetry_equiv_pos_site_id
 _symmetry_equiv_pos_as_xyz
  1  'x, y, z'
loop_
 _atom_site_type_symbol
 _atom_site_label
 _atom_site_symmetry_multiplicity
 _atom_site_fract_x
 _atom_site_fract_y
 _atom_site_fract_z
 _atom_site_occupancy
  Na  Na0  1  0.99920609  0.63352249  0.25045288  1
  Na  Na1  1  0.66543478  0.96578438  0.58364664  1
  Na  Na2  1  0.66741599  0.69986820  0.08294968  1
  Na  Na3  1  0.00915171  0.99932361  0.50045563  1
  Na  Na4  1  0.00759473  0.00696352  0.99909382  1
  Na  Na5  1  0.66722759  0.33392210  0.83326084  1
  Na  Na6  1  0.66121403  0.32815091  0.33328807  1
  Na  Na7  1  0.33323168  0.66657874  0.16664553  1
  Na  Na8  1  0.32638615  0.66401179  0.66743654  1
  Nb  Nb0  1  0.99284239  0.99149420  0.35564777  1
  Nb  Nb1  1  0.99012445  0.99407956  0.85459946  1
  Nb  Nb2  1  0.66622492  0.33006831  0.68953418  1
  Nb  Nb3  1  0.67353235  0.34065226  0.97735987  1
  Nb  Nb4  1  0.66316811  0.33088532  0.47734141  1
  Nb  Nb5  1  0.33152576  0.66560150  0.81216729  1
  Si  Si0  1  0.70235333  0.70721313  0.24838956  1
  Si  Si1  1  0.00103455  0.71114712  0.74944907  1
  Si  Si2  1  0.71149838  0.99729074  0.74833838  1
  Si  Si3  1  0.37074392  0.04188625  0.58357324  1
  Si  Si4  1  0.96387715  0.62604735  0.08475950  1
  Si  Si5  1  0.61781481  0.66647924  0.91803814  1
  Si  Si6  1  0.04763410  0.37724405  0.91695094  1
  Si  Si7  1  0.61971882  0.95290999  0.41765337  1
  Si  Si8  1  0.04666214  0.66483126  0.41590410  1
  Sn  Sn0  1  0.00558943  0.99780555  0.64796723  1
  Sn  Sn1  1  0.00141237  0.00187714  0.14707112  1
  Sn  Sn2  1  0.66538077  0.33155413  0.18614878  1
  Sn  Sn3  1  0.32772211  0.66581233  0.01817801  1
  Sn  Sn4  1  0.33071133  0.66750280  0.51901990  1
  Sn  Sn5  1  0.33796622  0.66811011  0.31522244  1
  P  P0  1  0.29144627  0.00222722  0.24994488  1
  P  P1  1  0.00094386  0.28858872  0.24997251  1
  P  P2  1  0.28646169  0.28738564  0.75021064  1
  P  P3  1  0.95774954  0.33634325  0.58336423  1
  P  P4  1  0.66503784  0.62051242  0.58345863  1
  P  P5  1  0.66610721  0.04507103  0.08312884  1
  P  P6  1  0.37532121  0.33099487  0.08312395  1
  P  P7  1  0.33277553  0.95665598  0.91651496  1
  P  P8  1  0.33170472  0.37719812  0.41704454  1
  O  O0  1  0.20370785  0.02985139  0.30445419  1
  O  O1  1  0.83622097  0.80631482  0.30457937  1
  O  O2  1  0.97730971  0.17473831  0.30424224  1
  O  O3  1  0.20433667  0.17339055  0.80435200  1
  O  O4  1  0.97132754  0.80338110  0.80697956  1
  O  O5  1  0.83537976  0.03111795  0.80547748  1
  O  O6  1  0.78862360  0.96622341  0.68787624  1
  O  O7  1  0.17807100  0.21595833  0.69414406  1
  O  O8  1  0.04255764  0.82718254  0.69126435  1
  O  O9  1  0.78758550  0.82190897  0.18930759  1
  O  O10  1  0.03453113  0.21314579  0.19381883  1
  O  O11  1  0.17712968  0.96578062  0.19478084  1
  O  O12  1  0.86868565  0.36166712  0.63840456  1
  O  O13  1  0.50215949  0.14077737  0.63950707  1
  O  O14  1  0.64352462  0.50888979  0.63807376  1
  O  O15  1  0.87868811  0.51118429  0.14387681  1
  O  O16  1  0.63193514  0.12033776  0.13940167  1
  O  O17  1  0.48982054  0.36751700  0.13848177  1
  O  O18  1  0.46355414  0.30380222  0.02872331  1
  O  O19  1  0.82995852  0.52644198  0.02846813  1
  O  O20  1  0.68942195  0.15891282  0.02898891  1
  O  O21  1  0.47514967  0.16643144  0.52691702  1
  O  O22  1  0.69244049  0.53415146  0.52845631  1
  O  O23  1  0.83997801  0.30627055  0.52921532  1
  O  O24  1  0.54782278  0.70525177  0.97866566  1
  O  O25  1  0.16043532  0.45441867  0.97528764  1
  O  O26  1  0.29684173  0.84660822  0.97219350  1
  O  O27  1  0.55285728  0.84232695  0.47798741  1
  O  O28  1  0.29638625  0.45173096  0.47274633  1
  O  O29  1  0.16240658  0.70516932  0.47389385  1
  O  O30  1  0.11656488  0.62598875  0.35494930  1
  O  O31  1  0.50451368  0.87863099  0.35966424  1
  O  O32  1  0.37042280  0.48844850  0.36190708  1
  O  O33  1  0.13453435  0.50065061  0.85960395  1
  O  O34  1  0.36373126  0.87040145  0.86222909  1
  O  O35  1  0.49816877  0.63833732  0.86096695  1
  O  O36  1  0.02551582  0.83928206  0.40736827  1
  O  O37  1  0.81778050  0.98366908  0.40752556  1
  O  O38  1  0.17217230  0.19336782  0.40845552  1
  O  O39  1  0.02445518  0.18480952  0.90752984  1
  O  O40  1  0.17373454  0.97943226  0.90778621  1
  O  O41  1  0.81392290  0.83362745  0.90907585  1
  O  O42  1  0.96410505  0.16479132  0.58848310  1
  O  O43  1  0.18363690  0.03031586  0.58651509  1
  O  O44  1  0.82502183  0.80711038  0.58716938  1
  O  O45  1  0.96707464  0.81334778  0.08686894  1
  O  O46  1  0.83148101  0.02772410  0.08727910  1
  O  O47  1  0.19357826  0.16887252  0.08863595  1
  O  O48  1  0.69072917  0.17161847  0.74222703  1
  O  O49  1  0.47067194  0.30893246  0.74212965  1
  O  O50  1  0.82625840  0.51903679  0.74191655  1
  O  O51  1  0.69923358  0.51974231  0.24636116  1
  O  O52  1  0.83526993  0.30601021  0.24592668  1
  O  O53  1  0.47355559  0.16456597  0.24458644  1
  O  O54  1  0.63800078  0.49193644  0.92450291  1
  O  O55  1  0.85108727  0.35280325  0.92495836  1
  O  O56  1  0.49733482  0.13788778  0.92397297  1
  O  O57  1  0.64704973  0.15012432  0.42603910  1
  O  O58  1  0.49537361  0.35722204  0.42489601  1
  O  O59  1  0.84966803  0.49935373  0.42594857  1
  O  O60  1  0.36678237  0.50127680  0.07805329  1
  O  O61  1  0.15450603  0.64746724  0.07857503  1
  O  O62  1  0.50809151  0.85792716  0.07765242  1
  O  O63  1  0.36832806  0.85605204  0.58023129  1
  O  O64  1  0.50039789  0.63813731  0.57898699  1
  O  O65  1  0.13900398  0.49625474  0.57852765  1
  O  O66  1  0.30024833  0.83228471  0.25517402  1
  O  O67  1  0.51203129  0.68605284  0.25503005  1
  O  O68  1  0.15881766  0.47545128  0.25549035  1
  O  O69  1  0.31139607  0.47204553  0.75797283  1
  O  O70  1  0.16904707  0.68582267  0.75901840  1
  O  O71  1  0.51924091  0.83007339  0.75860245  1
loop_
_geom_bond_atom_site_label_1
_geom_bond_atom_site_label_2
_geom_bond_distance
_geom_bond_site_symmetry_2
Na0 O51 2.337171 1_555
Na0 O66 2.361936 1_655
Na0 O68 2.447127 1_655
Na0 O52 2.518698 1_555
Na0 O30 2.624248 1_655
Na0 O15 2.664420 1_555
Na0 O11 2.855263 1_655
Na0 O1 2.858745 1_555
Na1 O63 2.318039 1_555
Na1 O42 2.346438 1_565
Na1 O44 2.450014 1_555
Na1 O64 2.519904 1_555
Na1 O6 2.624931 1_555
Na1 O27 2.633916 1_555
Na1 O13 2.893233 1_565
Na1 O23 2.898032 1_565
Na2 O45 2.334784 1_555
Na2 O60 2.359093 1_555
Na2 O62 2.445133 1_555
Na2 O46 2.521159 1_565
Na2 O24 2.623821 1_554
Na2 O9 2.658697 1_555
Na2 O17 2.854358 1_555
Na2 O19 2.863618 1_555
Na3 O43 2.439175 1_565
Na3 O44 2.591145 1_455
Na3 O36 2.596464 1_555
Na3 O42 2.630373 1_465
Na3 O38 2.642386 1_565
Na3 O37 2.687228 1_455
Na4 O45 2.548654 1_446
Na4 O47 2.573624 1_556
Na4 O39 2.582045 1_555
Na4 O46 2.608199 1_456
Na4 O40 2.631109 1_545
Na4 O41 2.632120 1_445
Na5 O54 2.591509 1_555
Na5 O48 2.591812 1_555
Na5 O50 2.593081 1_555
Na5 O55 2.616945 1_555
Na5 O56 2.639875 1_555
Na5 O49 2.661885 1_555
Na6 O51 2.526998 1_555
Na6 O53 2.567418 1_555
Na6 O52 2.586681 1_555
Na6 O57 2.611110 1_555
Na6 O58 2.640006 1_555
Na6 O59 2.658374 1_555
Na7 O61 2.522657 1_555
Na7 O67 2.527994 1_555
Na7 O66 2.596500 1_555
Na7 O60 2.597392 1_555
Na7 O68 2.600804 1_555
Na7 O62 2.605204 1_555
Na8 O63 2.527464 1_555
Na8 O70 2.571645 1_555
Na8 O65 2.579307 1_555
Na8 O64 2.618006 1_555
Na8 O71 2.634387 1_555
Na8 O69 2.643252 1_555
Nb0 O36 1.925812 1_655
Nb0 O37 1.926214 1_555
Nb0 O1 1.928010 1_555
Nb0 O2 2.068327 1_565
Nb0 O0 2.085042 1_665
Nb0 O38 2.087476 1_665
Nb1 O5 1.931831 1_565
Nb1 O4 1.944135 1_555
Nb1 O41 1.948182 1_555
Nb1 O39 1.972648 1_665
Nb1 O40 2.096228 1_655
Nb1 O3 2.107623 1_665
Nb2 O48 1.947061 1_555
Nb2 O13 1.952166 1_555
Nb2 O50 1.971743 1_555
Nb2 O49 2.040029 1_555
Nb2 O12 2.040946 1_555
Nb2 O14 2.067057 1_555
Nb3 O19 1.930696 1_556
Nb3 O55 1.937255 1_555
Nb3 O54 1.948402 1_555
Nb3 O20 2.061780 1_556
Nb3 O18 2.084603 1_556
Nb3 O56 2.089732 1_555
Nb4 O57 1.929870 1_555
Nb4 O21 1.939941 1_555
Nb4 O59 1.969778 1_555
Nb4 O58 2.021451 1_555
Nb4 O22 2.049895 1_555
Nb4 O23 2.071122 1_555
Nb5 O33 1.953707 1_555
Nb5 O70 1.968120 1_555
Nb5 O35 1.968638 1_555
Nb5 O71 1.993131 1_555
Nb5 O34 2.039484 1_555
Nb5 O69 2.047773 1_555
O0 P0 1.549067 1_555
O1 Si0 1.673375 1_555
O2 P1 1.547262 1_655
O3 P2 1.531964 1_555
O4 Si1 1.634587 1_655
O5 Si2 1.639927 1_545
O6 Si2 1.622226 1_555
O6 Sn0 2.020175 1_655
O7 P2 1.538772 1_555
O7 Sn0 2.061012 1_545
O8 Si1 1.608199 1_555
O8 Sn0 1.971528 1_555
O9 Si0 1.630811 1_555
O9 Sn1 2.014190 1_665
O10 P1 1.540431 1_555
O10 Sn1 2.043847 1_555
O11 P0 1.551782 1_565
O11 Sn1 2.062416 1_565
O12 P3 1.557426 1_555
O13 Si3 1.658760 1_555
O14 P4 1.545788 1_555
O15 Si4 1.632007 1_555
O15 Sn2 2.011087 1_555
O16 P5 1.543988 1_555
O16 Sn2 2.042546 1_555
O17 P6 1.556209 1_555
O17 Sn2 2.060090 1_555
O18 P6 1.548076 1_555
O19 Si4 1.676116 1_555
O20 P5 1.545393 1_555
O21 Si3 1.652424 1_555
O22 P4 1.549889 1_555
O23 P3 1.558897 1_555
O24 Si5 1.620670 1_555
O24 Sn3 2.018215 1_556
O25 Si6 1.603786 1_555
O25 Sn3 1.976147 1_556
O26 P7 1.537772 1_555
O26 Sn3 2.050461 1_556
O27 Si7 1.622676 1_555
O27 Sn4 2.029670 1_555
O28 P8 1.533942 1_555
O28 Sn4 2.068744 1_555
O29 Si8 1.607827 1_555
O29 Sn4 1.983379 1_555
O30 Si8 1.626907 1_555
O30 Sn5 2.023321 1_555
O31 Si7 1.603762 1_555
O31 Sn5 1.987759 1_555
O32 P8 1.530611 1_555
O32 Sn5 2.057626 1_555
O33 Si6 1.632724 1_555
O34 P7 1.549182 1_555
O35 Si5 1.625055 1_555
O36 Si8 1.661651 1_555
O37 Si7 1.658331 1_555
O38 P8 1.549361 1_555
O39 Si6 1.627514 1_555
O40 P7 1.540096 1_555
O41 Si5 1.642820 1_555
O42 P3 1.555511 1_555
O42 Sn0 2.177208 1_645
O43 Si3 1.617170 1_555
O43 Sn0 2.021941 1_545
O44 P4 1.555467 1_555
O44 Sn0 2.159243 1_655
O45 Si4 1.647915 1_555
O45 Sn1 2.063890 1_665
O46 P5 1.557465 1_555
O46 Sn1 2.138302 1_655
O47 P6 1.541067 1_555
O47 Sn1 2.088020 1_555
O48 Si2 1.652841 1_545
O49 P2 1.562595 1_555
O50 Si1 1.644695 1_655
O51 Si0 1.649715 1_555
O51 Sn2 2.062920 1_555
O52 P1 1.560344 1_655
O52 Sn2 2.136566 1_555
O53 P0 1.543478 1_555
O53 Sn2 2.086640 1_555
O54 Si5 1.652461 1_555
O55 Si6 1.660578 1_655
O56 P7 1.551216 1_545
O57 Si7 1.652043 1_545
O58 P8 1.563667 1_555
O59 Si8 1.645448 1_655
O60 P6 1.554496 1_555
O60 Sn3 2.155318 1_555
O61 Si4 1.615304 1_455
O61 Sn3 2.008922 1_555
O62 P5 1.554572 1_565
O62 Sn3 2.144504 1_555
O63 Si3 1.639289 1_565
O63 Sn4 2.072256 1_555
O64 P4 1.552882 1_555
O64 Sn4 2.153803 1_555
O65 P3 1.529416 1_455
O65 Sn4 2.113535 1_555
O66 P0 1.553036 1_565
O66 Sn5 2.149444 1_555
O67 Si0 1.614433 1_555
O67 Sn5 2.012291 1_555
O68 P1 1.552644 1_555
O68 Sn5 2.146460 1_555
O69 P2 1.548882 1_555
O70 Si1 1.634699 1_555
O71 Si2 1.626314 1_555
