# generated using pymatgen
data_Na10Al4Si7Ge4S5O48
_symmetry_space_group_name_H-M   'P 1'
_cell_length_a   17.23527336
_cell_length_b   8.70451136
_cell_length_c   21.82651406
_cell_angle_alpha   89.93096491
_cell_angle_beta   88.86961609
_cell_angle_gamma   120.29186693
_symmetry_Int_Tables_number   1
_chemical_formula_structural   Na10Al4Si7Ge4S5O48
_chemical_formula_sum   'Na30 Al12 Si21 Ge12 S15 O144'
_cell_volume   2826.64968521
_cell_formula_units_Z   3
loop_
 _symmetry_equiv_pos_site_id
 _symmetry_equiv_pos_as_xyz
  1  'x, y, z'
loop_
 _atom_site_type_symbol
 _atom_site_label
 _atom_site_symmetry_multiplicity
 _atom_site_fract_x
 _atom_site_fract_y
 _atom_site_fract_z
 _atom_site_occupancy
  Na  Na0  1  0.18314692  0.36873733  0.24665766  1
  Na  Na1  1  0.68311318  0.36884723  0.24656582  1
  Na  Na2  1  0.99687582  0.62954727  0.25174091  1
  Na  Na3  1  0.49699532  0.62963323  0.25158186  1
  Na  Na4  1  0.49670582  0.36271030  0.75391692  1
  Na  Na5  1  0.18270076  0.99750785  0.74835748  1
  Na  Na6  1  0.68387470  0.99774171  0.74828956  1
  Na  Na7  1  0.65381296  0.33657472  0.58188156  1
  Na  Na8  1  0.01757262  0.70322799  0.58212942  1
  Na  Na9  1  0.83086656  0.96340499  0.58709769  1
  Na  Na10  1  0.48674535  0.66797504  0.91516827  1
  Na  Na11  1  0.98794010  0.67083865  0.91446407  1
  Na  Na12  1  0.85012500  0.03320344  0.91243291  1
  Na  Na13  1  0.16368825  0.29617686  0.91950289  1
  Na  Na14  1  0.48712773  0.30657315  0.41461984  1
  Na  Na15  1  0.98631940  0.30512252  0.41455178  1
  Na  Na16  1  0.35078799  0.66688546  0.41253112  1
  Na  Na17  1  0.85083304  0.66703779  0.41399989  1
  Na  Na18  1  0.01041158  0.00484527  0.49906347  1
  Na  Na19  1  0.50580813  0.99539455  0.49860347  1
  Na  Na20  1  0.00510106  0.00729257  0.00109517  1
  Na  Na21  1  0.50613131  0.01710366  0.99822438  1
  Na  Na22  1  0.33610364  0.32964483  0.83284245  1
  Na  Na23  1  0.83689226  0.33611181  0.82980909  1
  Na  Na24  1  0.33268618  0.32994158  0.33144311  1
  Na  Na25  1  0.83268547  0.32955576  0.33201705  1
  Na  Na26  1  0.17070242  0.66447180  0.16331823  1
  Na  Na27  1  0.67047862  0.66402274  0.16328232  1
  Na  Na28  1  0.17023454  0.67014164  0.66766224  1
  Na  Na29  1  0.66983476  0.67603317  0.66634411  1
  Al  Al0  1  0.00140740  0.99955601  0.35295701  1
  Al  Al1  1  0.50189900  0.99944002  0.35266261  1
  Al  Al2  1  0.99941659  0.99895947  0.85172491  1
  Al  Al3  1  0.49809633  0.00308102  0.85486457  1
  Al  Al4  1  0.33260535  0.32201959  0.68939783  1
  Al  Al5  1  0.83424389  0.33260089  0.68804776  1
  Al  Al6  1  0.33481616  0.34623505  0.18654234  1
  Al  Al7  1  0.83437035  0.34626158  0.18668778  1
  Al  Al8  1  0.16035584  0.64981980  0.01846385  1
  Al  Al9  1  0.65793519  0.64685140  0.01861748  1
  Al  Al10  1  0.16307412  0.67100713  0.51771392  1
  Al  Al11  1  0.66240576  0.66686930  0.52078338  1
  Si  Si0  1  0.35759996  0.72150661  0.25085777  1
  Si  Si1  1  0.85753941  0.72149477  0.25092965  1
  Si  Si2  1  0.99266002  0.28038848  0.25179024  1
  Si  Si3  1  0.49274203  0.28035547  0.25185421  1
  Si  Si4  1  0.99349234  0.69997116  0.75271144  1
  Si  Si5  1  0.49307352  0.70423810  0.75275790  1
  Si  Si6  1  0.35667039  0.99283239  0.75176149  1
  Si  Si7  1  0.85827857  0.00218824  0.75198082  1
  Si  Si8  1  0.19194296  0.04518448  0.58597030  1
  Si  Si9  1  0.68687124  0.04005386  0.58586570  1
  Si  Si10  1  0.83069663  0.62083991  0.58590319  1
  Si  Si11  1  0.18961545  0.33826424  0.08530332  1
  Si  Si12  1  0.68859493  0.33828206  0.08596429  1
  Si  Si13  1  0.02270569  0.37600834  0.91800214  1
  Si  Si14  1  0.52324964  0.37025884  0.91800160  1
  Si  Si15  1  0.16634979  0.95189206  0.91966172  1
  Si  Si16  1  0.66322989  0.95504676  0.92081839  1
  Si  Si17  1  0.16352529  0.37149294  0.42017120  1
  Si  Si18  1  0.66299797  0.36892505  0.41940128  1
  Si  Si19  1  0.02438233  0.67454314  0.41807942  1
  Si  Si20  1  0.52624266  0.67624596  0.41925223  1
  Ge  Ge0  1  0.99803618  0.97529040  0.64910071  1
  Ge  Ge1  1  0.49774321  0.97538404  0.65134007  1
  Ge  Ge2  1  0.00030964  0.02083606  0.14817526  1
  Ge  Ge3  1  0.49998681  0.02050683  0.14782687  1
  Ge  Ge4  1  0.32790695  0.30680199  0.98003239  1
  Ge  Ge5  1  0.82358414  0.31379022  0.97991584  1
  Ge  Ge6  1  0.32568311  0.33792316  0.47979497  1
  Ge  Ge7  1  0.82620914  0.34955654  0.48109124  1
  Ge  Ge8  1  0.16263608  0.63863396  0.31377746  1
  Ge  Ge9  1  0.66236253  0.63968671  0.31393435  1
  Ge  Ge10  1  0.16042282  0.68286807  0.81314411  1
  Ge  Ge11  1  0.66307759  0.68768520  0.81464003  1
  S  S0  1  0.14548801  0.99972686  0.24978319  1
  S  S1  1  0.64567147  0.00004568  0.24982673  1
  S  S2  1  0.14391993  0.29272648  0.74951795  1
  S  S3  1  0.64544338  0.29131588  0.75040000  1
  S  S4  1  0.47602022  0.33298109  0.58335909  1
  S  S5  1  0.97983252  0.33367510  0.58304631  1
  S  S6  1  0.33177391  0.62063301  0.58455388  1
  S  S7  1  0.47854692  0.62495936  0.08341466  1
  S  S8  1  0.97863432  0.62438329  0.08310878  1
  S  S9  1  0.33136780  0.04188239  0.08489881  1
  S  S10  1  0.83175397  0.04318246  0.08457651  1
  S  S11  1  0.30952010  0.67132869  0.91699626  1
  S  S12  1  0.80805537  0.66277587  0.91717565  1
  S  S13  1  0.30800576  0.95364604  0.41674080  1
  S  S14  1  0.80821219  0.95429232  0.41666846  1
  O  O0  1  0.10607386  0.03611890  0.30473118  1
  O  O1  1  0.60615765  0.03599802  0.30472061  1
  O  O2  1  0.41968198  0.80199181  0.31024438  1
  O  O3  1  0.91993234  0.80214179  0.31011441  1
  O  O4  1  0.48307589  0.16663542  0.31255039  1
  O  O5  1  0.98333332  0.16681019  0.31244564  1
  O  O6  1  0.10621959  0.17855899  0.80554436  1
  O  O7  1  0.60379081  0.17342990  0.80410327  1
  O  O8  1  0.48331532  0.80081122  0.81219513  1
  O  O9  1  0.98487602  0.80085975  0.81203998  1
  O  O10  1  0.42371549  0.04096646  0.80720417  1
  O  O11  1  0.91711389  0.03125438  0.81156867  1
  O  O12  1  0.40203207  0.96595868  0.68682277  1
  O  O13  1  0.90202461  0.96979250  0.68747463  1
  O  O14  1  0.08827573  0.21206907  0.69473434  1
  O  O15  1  0.58912481  0.21734807  0.69350745  1
  O  O16  1  0.02482827  0.83303523  0.69069752  1
  O  O17  1  0.52585338  0.83690466  0.69146015  1
  O  O18  1  0.40493572  0.84230989  0.18828965  1
  O  O19  1  0.90494794  0.84230930  0.18822360  1
  O  O20  1  0.02524598  0.21038427  0.19224840  1
  O  O21  1  0.52497314  0.20976352  0.19234700  1
  O  O22  1  0.08841901  0.96007550  0.19524492  1
  O  O23  1  0.58840787  0.95990314  0.19532897  1
  O  O24  1  0.43512722  0.36177789  0.63848333  1
  O  O25  1  0.93770964  0.36695954  0.63688160  1
  O  O26  1  0.25117113  0.14123602  0.64458948  1
  O  O27  1  0.74976806  0.13170503  0.64401262  1
  O  O28  1  0.31899507  0.50970712  0.63756798  1
  O  O29  1  0.81367331  0.48733974  0.64133210  1
  O  O30  1  0.43708537  0.51112783  0.13906385  1
  O  O31  1  0.93682782  0.51092925  0.13879283  1
  O  O32  1  0.31913712  0.12910610  0.13882778  1
  O  O33  1  0.81973351  0.13060914  0.13809762  1
  O  O34  1  0.24864715  0.35727683  0.14465547  1
  O  O35  1  0.74818157  0.35791571  0.14518100  1
  O  O36  1  0.23483641  0.29970537  0.02238193  1
  O  O37  1  0.73400483  0.29723902  0.02472331  1
  O  O38  1  0.42306337  0.54412427  0.02792718  1
  O  O39  1  0.92353786  0.54461156  0.02733162  1
  O  O40  1  0.35313534  0.15639812  0.02765539  1
  O  O41  1  0.85262783  0.15485744  0.02639393  1
  O  O42  1  0.23569873  0.17139993  0.52348467  1
  O  O43  1  0.73267847  0.17425016  0.52435047  1
  O  O44  1  0.35231351  0.55113326  0.52598085  1
  O  O45  1  0.85865076  0.55058302  0.52241931  1
  O  O46  1  0.42232239  0.30211636  0.52703873  1
  O  O47  1  0.92371467  0.29709626  0.52680899  1
  O  O48  1  0.26935324  0.69823597  0.97257653  1
  O  O49  1  0.76906338  0.69829277  0.97238135  1
  O  O50  1  0.08623475  0.46153653  0.97505649  1
  O  O51  1  0.58309866  0.46572601  0.97536517  1
  O  O52  1  0.14911801  0.82245818  0.97700492  1
  O  O53  1  0.65164924  0.82593765  0.97726442  1
  O  O54  1  0.26868300  0.84019491  0.47224195  1
  O  O55  1  0.77014866  0.84256081  0.47256568  1
  O  O56  1  0.15094047  0.47625986  0.47659409  1
  O  O57  1  0.64818571  0.46495073  0.47795125  1
  O  O58  1  0.08144296  0.69938118  0.47786602  1
  O  O59  1  0.58579737  0.69871277  0.47615722  1
  O  O60  1  0.06729762  0.63009931  0.35566989  1
  O  O61  1  0.56516051  0.62792355  0.35531726  1
  O  O62  1  0.25431855  0.87884492  0.36181435  1
  O  O63  1  0.75399232  0.87748076  0.36178924  1
  O  O64  1  0.19152077  0.50006411  0.35708685  1
  O  O65  1  0.69078239  0.50062243  0.35743035  1
  O  O66  1  0.06637371  0.50613910  0.85683028  1
  O  O67  1  0.56477118  0.50332888  0.85489354  1
  O  O68  1  0.18822694  0.87995539  0.85546586  1
  O  O69  1  0.69181918  0.88428228  0.85738254  1
  O  O70  1  0.25308191  0.62938862  0.86217252  1
  O  O71  1  0.75485593  0.62994287  0.86189674  1
  O  O72  1  0.00668904  0.83825679  0.40876538  1
  O  O73  1  0.50607553  0.83683208  0.40912953  1
  O  O74  1  0.39912891  0.97249575  0.41172080  1
  O  O75  1  0.89953311  0.97307239  0.41111722  1
  O  O76  1  0.07540112  0.18037187  0.40929995  1
  O  O77  1  0.57450079  0.17787011  0.40884469  1
  O  O78  1  0.00853845  0.17764325  0.90881541  1
  O  O79  1  0.50928380  0.17654651  0.90795618  1
  O  O80  1  0.07898547  0.97758677  0.90953504  1
  O  O81  1  0.57523648  0.96934953  0.90919386  1
  O  O82  1  0.40054609  0.82848170  0.91104315  1
  O  O83  1  0.90004828  0.82537160  0.91195505  1
  O  O84  1  0.48785216  0.17425124  0.58820727  1
  O  O85  1  0.98871710  0.17455279  0.58879666  1
  O  O86  1  0.09009596  0.02687786  0.59122134  1
  O  O87  1  0.58670648  0.03392553  0.59134690  1
  O  O88  1  0.41469816  0.80289335  0.58753706  1
  O  O89  1  0.92106969  0.82302401  0.58854661  1
  O  O90  1  0.48664512  0.80221469  0.08935698  1
  O  O91  1  0.98667511  0.80191788  0.08908770  1
  O  O92  1  0.41421327  0.02606704  0.08819367  1
  O  O93  1  0.91454390  0.02633674  0.08791157  1
  O  O94  1  0.08802245  0.14702654  0.09049349  1
  O  O95  1  0.58760902  0.14682736  0.09088694  1
  O  O96  1  0.34305806  0.16640622  0.74280603  1
  O  O97  1  0.83959426  0.16634732  0.74210341  1
  O  O98  1  0.23446794  0.30852524  0.74230231  1
  O  O99  1  0.73397005  0.30496587  0.74344888  1
  O  O100  1  0.40973725  0.50744301  0.73914633  1
  O  O101  1  0.90813001  0.50800759  0.74115818  1
  O  O102  1  0.34301692  0.51982897  0.24290479  1
  O  O103  1  0.84318412  0.52003471  0.24293491  1
  O  O104  1  0.40950474  0.31248336  0.23960955  1
  O  O105  1  0.90957157  0.31255687  0.23940113  1
  O  O106  1  0.23562974  0.16133287  0.24248807  1
  O  O107  1  0.73557264  0.16092157  0.24254140  1
  O  O108  1  0.32142741  0.51021870  0.92238408  1
  O  O109  1  0.82302399  0.50779371  0.92319337  1
  O  O110  1  0.42380976  0.36795583  0.92681870  1
  O  O111  1  0.92245490  0.36357433  0.92743720  1
  O  O112  1  0.25380051  0.15741264  0.92244071  1
  O  O113  1  0.75696945  0.15195217  0.92308046  1
  O  O114  1  0.32263719  0.13739645  0.42278892  1
  O  O115  1  0.82241126  0.13719597  0.42289784  1
  O  O116  1  0.25697715  0.36192699  0.42274462  1
  O  O117  1  0.75620938  0.35889504  0.42141013  1
  O  O118  1  0.42339526  0.48373986  0.42696494  1
  O  O119  1  0.92417359  0.48076723  0.42377521  1
  O  O120  1  0.17979107  0.51295480  0.07583635  1
  O  O121  1  0.67981086  0.51404526  0.07603057  1
  O  O122  1  0.06825864  0.64184100  0.07795857  1
  O  O123  1  0.56846974  0.64308876  0.07835102  1
  O  O124  1  0.25200051  0.86675922  0.07727916  1
  O  O125  1  0.75214019  0.86617877  0.07739614  1
  O  O126  1  0.17699815  0.84452050  0.57603961  1
  O  O127  1  0.67880469  0.84915390  0.57538861  1
  O  O128  1  0.25187709  0.63946860  0.57645267  1
  O  O129  1  0.74374624  0.64292288  0.57480373  1
  O  O130  1  0.06967904  0.49753035  0.57713151  1
  O  O131  1  0.56700803  0.49251384  0.57850682  1
  O  O132  1  0.15429356  0.83925318  0.25678263  1
  O  O133  1  0.65434972  0.83898197  0.25692752  1
  O  O134  1  0.25566871  0.69789490  0.25732436  1
  O  O135  1  0.75554487  0.69763957  0.25738068  1
  O  O136  1  0.08532463  0.48582274  0.25552024  1
  O  O137  1  0.58536907  0.48581340  0.25553947  1
  O  O138  1  0.15499603  0.47010954  0.75624617  1
  O  O139  1  0.65386197  0.46754530  0.75593011  1
  O  O140  1  0.08798803  0.69106064  0.75476988  1
  O  O141  1  0.58548432  0.68448924  0.75526414  1
  O  O142  1  0.25587414  0.81309956  0.75707171  1
  O  O143  1  0.75589847  0.81537927  0.75752467  1
loop_
_geom_bond_atom_site_label_1
_geom_bond_atom_site_label_2
_geom_bond_distance
_geom_bond_site_symmetry_2
Na0 O136 2.374819 1_555
Na0 O102 2.379856 1_555
Na0 O106 2.393823 1_555
Na0 O134 2.495183 1_555
Na0 O34 2.501204 1_555
Na0 O64 2.644047 1_555
Na0 O20 2.657784 1_555
Na0 O0 2.792618 1_555
Na1 O137 2.372922 1_555
Na1 O103 2.382844 1_555
Na1 O107 2.397707 1_555
Na1 O35 2.484718 1_555
Na1 O135 2.492795 1_555
Na1 O65 2.656104 1_555
Na1 O21 2.659044 1_555
Na1 O1 2.795119 1_555
Na2 O103 2.331437 1_555
Na2 O132 2.391938 1_655
Na2 O105 2.404053 1_555
Na2 O136 2.413404 1_655
Na2 O60 2.592611 1_655
Na2 O31 2.691376 1_555
Na2 O3 2.754423 1_555
Na2 O22 2.760953 1_655
Na3 O102 2.335329 1_555
Na3 O133 2.390996 1_555
Na3 O104 2.404372 1_555
Na3 O137 2.413124 1_555
Na3 O61 2.574784 1_555
Na3 O30 2.682019 1_555
Na3 O23 2.756876 1_555
Na3 O2 2.760436 1_555
Na4 O96 2.335125 1_555
Na4 O139 2.383824 1_555
Na4 O100 2.420950 1_555
Na4 O141 2.421940 1_555
Na4 O67 2.528211 1_555
Na4 O10 2.675629 1_555
Na4 O24 2.751597 1_555
Na4 O15 2.798414 1_555
Na5 O140 2.323160 1_555
Na5 O98 2.387569 1_565
Na5 O96 2.387883 1_565
Na5 O142 2.500857 1_555
Na5 O26 2.546743 1_565
Na5 O68 2.573469 1_555
Na5 O16 2.691996 1_555
Na5 O6 2.795484 1_565
Na6 O97 2.320973 1_565
Na6 O99 2.361059 1_565
Na6 O141 2.378649 1_555
Na6 O143 2.469472 1_555
Na6 O27 2.526929 1_565
Na6 O69 2.609112 1_555
Na6 O17 2.684616 1_555
Na6 O7 2.792034 1_565
Na7 O87 2.288229 1_555
Na7 O129 2.314538 1_555
Na7 O84 2.470634 1_555
Na7 O131 2.477700 1_555
Na7 O57 2.552609 1_555
Na7 O15 2.641140 1_555
Na7 O43 2.700979 1_555
Na7 O29 2.737668 1_555
Na8 O89 2.369434 1_455
Na8 O130 2.375514 1_555
Na8 O126 2.378317 1_555
Na8 O86 2.448914 1_565
Na8 O58 2.516009 1_555
Na8 O16 2.604465 1_555
Na8 O45 2.727629 1_455
Na8 O25 2.784353 1_455
Na9 O127 2.306675 1_555
Na9 O85 2.396006 1_565
Na9 O89 2.414433 1_555
Na9 O129 2.429148 1_555
Na9 O13 2.518866 1_555
Na9 O55 2.729441 1_555
Na9 O27 2.764893 1_565
Na9 O47 2.819189 1_565
Na10 O81 2.275965 1_555
Na10 O110 2.278402 1_555
Na10 O108 2.462445 1_555
Na10 O82 2.503244 1_555
Na10 O8 2.541625 1_555
Na10 O38 2.667849 1_556
Na10 O67 2.733540 1_555
Na10 O53 2.831880 1_555
Na11 O80 2.317149 1_655
Na11 O111 2.334038 1_555
Na11 O109 2.457248 1_555
Na11 O83 2.483109 1_555
Na11 O9 2.517992 1_555
Na11 O39 2.676457 1_556
Na11 O66 2.712469 1_655
Na11 O52 2.788824 1_655
Na12 O113 2.315240 1_555
Na12 O78 2.360039 1_655
Na12 O83 2.362885 1_545
Na12 O11 2.469728 1_555
Na12 O111 2.516531 1_555
Na12 O69 2.670881 1_545
Na12 O41 2.697171 1_556
Na12 O49 2.823558 1_545
Na13 O78 2.347633 1_555
Na13 O108 2.400743 1_555
Na13 O112 2.402385 1_555
Na13 O80 2.408087 1_545
Na13 O36 2.572488 1_556
Na13 O50 2.683811 1_555
Na13 O6 2.701172 1_555
Na13 O70 2.785543 1_555
Na14 O77 2.287674 1_555
Na14 O118 2.314223 1_555
Na14 O114 2.450623 1_555
Na14 O74 2.513080 1_545
Na14 O4 2.525602 1_555
Na14 O46 2.667899 1_555
Na14 O61 2.726895 1_555
Na14 O57 2.795040 1_555
Na15 O119 2.273673 1_555
Na15 O76 2.285797 1_655
Na15 O115 2.442080 1_555
Na15 O75 2.498112 1_545
Na15 O5 2.523363 1_555
Na15 O47 2.644196 1_555
Na15 O60 2.745755 1_655
Na15 O56 2.827665 1_655
Na16 O73 2.314058 1_555
Na16 O116 2.316234 1_555
Na16 O74 2.352547 1_555
Na16 O118 2.496722 1_555
Na16 O2 2.501534 1_555
Na16 O44 2.677833 1_555
Na16 O64 2.687438 1_555
Na16 O54 2.839439 1_555
Na17 O72 2.323529 1_655
Na17 O117 2.335787 1_555
Na17 O75 2.355124 1_555
Na17 O119 2.519847 1_555
Na17 O3 2.533149 1_555
Na17 O45 2.605806 1_555
Na17 O65 2.709221 1_555
Na17 O55 2.824901 1_555
Na18 O76 2.367983 1_555
Na18 O86 2.411067 1_555
Na18 O72 2.430897 1_545
Na18 O89 2.471015 1_445
Na18 O85 2.587132 1_455
Na18 O75 2.650666 1_445
Na19 O73 2.394032 1_555
Na19 O77 2.401385 1_565
Na19 O87 2.407377 1_565
Na19 O88 2.501793 1_555
Na19 O74 2.604850 1_555
Na19 O84 2.610367 1_565
Na20 O94 2.385678 1_555
Na20 O80 2.432123 1_544
Na20 O78 2.481636 1_554
Na20 O93 2.489825 1_455
Na20 O91 2.525906 1_445
Na20 O83 2.612531 1_444
Na21 O79 2.392509 1_555
Na21 O81 2.403661 1_545
Na21 O95 2.419811 1_556
Na21 O92 2.524753 1_556
Na21 O82 2.599658 1_545
Na21 O90 2.626606 1_546
Na22 O112 2.412951 1_555
Na22 O96 2.462629 1_555
Na22 O100 2.469137 1_555
Na22 O110 2.493796 1_555
Na22 O108 2.596759 1_555
Na22 O98 2.611547 1_555
Na23 O101 2.352933 1_555
Na23 O97 2.433746 1_555
Na23 O113 2.503095 1_555
Na23 O99 2.534009 1_555
Na23 O111 2.557755 1_555
Na23 O109 2.606401 1_555
Na24 O104 2.427485 1_555
Na24 O116 2.452887 1_555
Na24 O102 2.485966 1_555
Na24 O106 2.525921 1_555
Na24 O114 2.549427 1_555
Na24 O118 2.570445 1_555
Na25 O117 2.418436 1_555
Na25 O105 2.440728 1_555
Na25 O103 2.497597 1_555
Na25 O119 2.503414 1_555
Na25 O107 2.535249 1_555
Na25 O115 2.539430 1_555
Na26 O120 2.369087 1_555
Na26 O124 2.447381 1_555
Na26 O134 2.475751 1_555
Na26 O136 2.490113 1_555
Na26 O122 2.531258 1_555
Na26 O132 2.641019 1_555
Na27 O121 2.358523 1_555
Na27 O125 2.445599 1_555
Na27 O135 2.478085 1_555
Na27 O137 2.488626 1_555
Na27 O123 2.523275 1_555
Na27 O133 2.643198 1_555
Na28 O142 2.408744 1_555
Na28 O140 2.410860 1_555
Na28 O126 2.474218 1_555
Na28 O128 2.506850 1_555
Na28 O138 2.519832 1_555
Na28 O130 2.584753 1_555
Na29 O141 2.425426 1_555
Na29 O143 2.437100 1_555
Na29 O129 2.443200 1_555
Na29 O127 2.445728 1_555
Na29 O131 2.579478 1_555
Na29 O139 2.580471 1_555
Al0 O3 1.849481 1_455
Al0 O5 1.861106 1_465
Al0 O72 1.895403 1_555
Al0 O76 1.912479 1_565
Al0 O0 1.951563 1_565
Al0 O75 2.061691 1_455
Al1 O2 1.848719 1_555
Al1 O4 1.863939 1_565
Al1 O77 1.893752 1_565
Al1 O73 1.905172 1_555
Al1 O1 1.942506 1_565
Al1 O74 2.084254 1_555
Al2 O11 1.819375 1_565
Al2 O9 1.833771 1_555
Al2 O78 1.939664 1_665
Al2 O80 1.957686 1_655
Al2 O6 1.966811 1_665
Al2 O83 2.059186 1_555
Al3 O10 1.820062 1_555
Al3 O79 1.838267 1_555
Al3 O8 1.895525 1_545
Al3 O81 1.927487 1_545
Al3 O7 1.983977 1_555
Al3 O82 1.994120 1_545
Al4 O26 1.797916 1_555
Al4 O100 1.856876 1_555
Al4 O96 1.864612 1_555
Al4 O24 1.944655 1_555
Al4 O98 1.982493 1_555
Al4 O28 2.096779 1_555
Al5 O101 1.843285 1_555
Al5 O29 1.863404 1_555
Al5 O27 1.895349 1_555
Al5 O97 1.905152 1_555
Al5 O25 1.974652 1_555
Al5 O99 2.001088 1_555
Al6 O34 1.802249 1_555
Al6 O104 1.877372 1_555
Al6 O102 1.900662 1_555
Al6 O30 1.900797 1_555
Al6 O106 2.034987 1_555
Al6 O32 2.056779 1_555
Al7 O35 1.800723 1_555
Al7 O105 1.879196 1_555
Al7 O103 1.896917 1_555
Al7 O31 1.906772 1_555
Al7 O107 2.032356 1_555
Al7 O33 2.061489 1_555
Al8 O50 1.776234 1_554
Al8 O52 1.847115 1_554
Al8 O120 1.874873 1_555
Al8 O48 1.958552 1_554
Al8 O122 2.004474 1_555
Al8 O124 2.187603 1_555
Al9 O51 1.743770 1_554
Al9 O53 1.851295 1_554
Al9 O121 1.871816 1_555
Al9 O49 1.986168 1_554
Al9 O123 1.987002 1_555
Al9 O125 2.210875 1_555
Al10 O58 1.787520 1_555
Al10 O56 1.837477 1_555
Al10 O126 1.900113 1_555
Al10 O54 1.920413 1_555
Al10 O130 2.003499 1_555
Al10 O128 2.135899 1_555
Al11 O59 1.785563 1_555
Al11 O127 1.892991 1_555
Al11 O57 1.897806 1_555
Al11 O129 1.938681 1_555
Al11 O55 1.987172 1_555
Al11 O131 1.997602 1_555
Ge0 O16 1.778058 1_655
Ge0 O13 1.818641 1_555
Ge0 O86 1.875074 1_665
Ge0 O89 1.887580 1_555
Ge0 O14 2.119247 1_665
Ge0 O85 2.247345 1_565
Ge1 O17 1.748674 1_555
Ge1 O12 1.772185 1_555
Ge1 O87 1.859110 1_565
Ge1 O88 2.039123 1_555
Ge1 O15 2.116384 1_565
Ge1 O84 2.285954 1_565
Ge2 O20 1.771191 1_555
Ge2 O19 1.801043 1_445
Ge2 O94 1.823018 1_555
Ge2 O93 2.016297 1_455
Ge2 O22 2.124102 1_545
Ge2 O91 2.217169 1_445
Ge3 O21 1.774332 1_555
Ge3 O18 1.801632 1_545
Ge3 O95 1.811558 1_555
Ge3 O92 2.007454 1_555
Ge3 O23 2.132543 1_545
Ge3 O90 2.206506 1_545
Ge4 O36 1.809074 1_556
Ge4 O112 1.814988 1_555
Ge4 O110 1.843808 1_555
Ge4 O40 1.890059 1_556
Ge4 O38 2.169106 1_556
Ge4 O108 2.220479 1_555
Ge5 O37 1.754028 1_556
Ge5 O113 1.808408 1_555
Ge5 O111 1.892211 1_555
Ge5 O41 1.977080 1_556
Ge5 O109 2.096778 1_555
Ge5 O39 2.158533 1_556
Ge6 O42 1.756752 1_555
Ge6 O116 1.817583 1_555
Ge6 O118 1.881568 1_555
Ge6 O44 1.958226 1_555
Ge6 O114 2.124381 1_555
Ge6 O46 2.127296 1_555
Ge7 O45 1.795811 1_555
Ge7 O43 1.809310 1_555
Ge7 O117 1.822004 1_555
Ge7 O119 1.920450 1_555
Ge7 O47 2.206279 1_555
Ge7 O115 2.218422 1_555
Ge8 O64 1.793847 1_555
Ge8 O60 1.832770 1_555
Ge8 O134 1.855124 1_555
Ge8 O136 1.855953 1_555
Ge8 O62 2.169268 1_555
Ge8 O132 2.207458 1_555
Ge9 O65 1.794500 1_555
Ge9 O61 1.843909 1_555
Ge9 O137 1.859358 1_555
Ge9 O135 1.860224 1_555
Ge9 O63 2.154549 1_555
Ge9 O133 2.195437 1_555
Ge10 O68 1.793870 1_555
Ge10 O66 1.822944 1_555
Ge10 O140 1.827394 1_555
Ge10 O142 1.877555 1_555
Ge10 O70 2.174508 1_555
Ge10 O138 2.194574 1_555
Ge11 O69 1.791957 1_555
Ge11 O67 1.847384 1_555
Ge11 O143 1.863599 1_555
Ge11 O141 1.870756 1_555
Ge11 O71 2.164224 1_555
Ge11 O139 2.246345 1_555
O0 S0 1.478528 1_545
O1 S1 1.476820 1_555
O2 Si0 1.617573 1_555
O3 Si1 1.616595 1_555
O4 Si3 1.607618 1_555
O5 Si2 1.607508 1_555
O6 S2 1.489793 1_555
O7 S3 1.470725 1_555
O8 Si5 1.598306 1_555
O9 Si4 1.611471 1_555
O10 Si6 1.594738 1_545
O11 Si7 1.605569 1_555
O12 Si6 1.678249 1_555
O13 Si7 1.674474 1_565
O14 S2 1.486767 1_555
O15 S3 1.522410 1_555
O16 Si4 1.673814 1_455
O17 Si5 1.658628 1_555
O18 Si0 1.650286 1_555
O19 Si1 1.652981 1_555
O20 Si2 1.641349 1_455
O21 Si3 1.640410 1_555
O22 S0 1.486038 1_555
O23 S1 1.486773 1_565
O24 S4 1.467204 1_555
O25 S5 1.473459 1_555
O26 Si8 1.603496 1_555
O27 Si9 1.614499 1_555
O28 S6 1.446525 1_555
O29 Si10 1.593353 1_555
O30 S7 1.488727 1_555
O31 S8 1.488737 1_555
O32 S9 1.469770 1_555
O33 S10 1.462306 1_555
O34 Si11 1.619690 1_555
O35 Si12 1.621822 1_555
O36 Si11 1.681960 1_555
O37 Si12 1.663981 1_555
O38 S7 1.498423 1_555
O39 S8 1.499492 1_555
O40 S9 1.515477 1_555
O41 S10 1.520942 1_555
O42 Si8 1.660058 1_555
O43 Si9 1.677674 1_555
O44 S6 1.525049 1_555
O45 Si10 1.673034 1_555
O46 S4 1.494889 1_555
O47 S5 1.510181 1_555
O48 S11 1.461817 1_555
O49 S12 1.475688 1_555
O50 Si13 1.592985 1_555
O51 Si14 1.584590 1_555
O52 Si15 1.602638 1_555
O53 Si16 1.606668 1_555
O54 S13 1.480397 1_555
O55 S14 1.478740 1_555
O56 Si17 1.608426 1_555
O57 Si18 1.613052 1_555
O58 Si19 1.597997 1_555
O59 Si20 1.575712 1_555
O60 Si19 1.674060 1_555
O61 Si20 1.680270 1_555
O62 S13 1.468080 1_555
O63 S14 1.473388 1_555
O64 Si17 1.675265 1_555
O65 Si18 1.670307 1_555
O66 Si13 1.651928 1_555
O67 Si14 1.694744 1_555
O68 Si15 1.648333 1_555
O69 Si16 1.679468 1_555
O70 S11 1.483270 1_555
O71 S12 1.469106 1_555
O72 Si19 1.614071 1_555
O73 Si20 1.617397 1_555
O74 S13 1.496231 1_555
O75 S14 1.500520 1_555
O76 Si17 1.611503 1_555
O77 Si18 1.612793 1_555
O78 Si13 1.630540 1_555
O79 Si14 1.594589 1_555
O80 Si15 1.648912 1_555
O81 Si16 1.607951 1_555
O82 S11 1.475119 1_555
O83 S12 1.502892 1_555
O84 S4 1.498841 1_555
O85 S5 1.473756 1_555
O86 Si8 1.682158 1_555
O87 Si9 1.701891 1_555
O88 S6 1.510086 1_555
O89 Si10 1.662873 1_555
O90 S7 1.483528 1_555
O91 S8 1.486438 1_555
O92 S9 1.505073 1_555
O93 S10 1.509309 1_555
O94 Si11 1.703253 1_555
O95 Si12 1.698313 1_555
O96 Si6 1.653688 1_545
O97 Si7 1.630403 1_555
O98 S2 1.500997 1_555
O99 S3 1.474138 1_555
O100 Si5 1.619146 1_555
O101 Si4 1.598699 1_555
O102 Si0 1.653009 1_555
O103 Si1 1.652744 1_555
O104 Si3 1.620940 1_555
O105 Si2 1.619234 1_555
O106 S0 1.484203 1_545
O107 S1 1.479171 1_555
O108 S11 1.521027 1_555
O109 S12 1.501913 1_555
O110 Si14 1.710882 1_555
O111 Si13 1.684292 1_655
O112 Si15 1.661186 1_545
O113 Si16 1.661382 1_545
O114 S13 1.494726 1_545
O115 S14 1.490603 1_545
O116 Si17 1.656260 1_555
O117 Si18 1.653702 1_555
O118 Si20 1.723198 1_555
O119 Si19 1.701655 1_655
O120 Si11 1.626022 1_555
O121 Si12 1.626280 1_555
O122 S8 1.475849 1_455
O123 S7 1.478379 1_555
O124 S9 1.458955 1_565
O125 S10 1.468862 1_565
O126 Si8 1.647261 1_565
O127 Si9 1.613056 1_565
O128 S6 1.480437 1_555
O129 Si10 1.626745 1_555
O130 S5 1.487433 1_455
O131 S4 1.481569 1_555
O132 S0 1.487216 1_555
O133 S1 1.491267 1_565
O134 Si0 1.665667 1_555
O135 Si1 1.665861 1_555
O136 Si2 1.696883 1_455
O137 Si3 1.696670 1_555
O138 S2 1.465041 1_555
O139 S3 1.471513 1_555
O140 Si4 1.670592 1_455
O141 Si5 1.687881 1_555
O142 Si6 1.651926 1_555
O143 Si7 1.693794 1_565
