# generated using pymatgen
data_XeN2(OF4)2
_symmetry_space_group_name_H-M   'P 1'
_cell_length_a   6.02040800
_cell_length_b   9.08971000
_cell_length_c   13.32052700
_cell_angle_alpha   90.00000000
_cell_angle_beta   90.00000000
_cell_angle_gamma   90.00000000
_symmetry_Int_Tables_number   1
_chemical_formula_structural   XeN2(OF4)2
_chemical_formula_sum   'Xe4 N8 O8 F32'
_cell_volume   728.94935994
_cell_formula_units_Z   4
loop_
 _symmetry_equiv_pos_site_id
 _symmetry_equiv_pos_as_xyz
  1  'x, y, z'
loop_
 _atom_site_type_symbol
 _atom_site_label
 _atom_site_symmetry_multiplicity
 _atom_site_fract_x
 _atom_site_fract_y
 _atom_site_fract_z
 _atom_site_occupancy
  Xe  Xe0  1  0.25000000  0.28731100  0.37429500  1
  Xe  Xe1  1  0.75000000  0.71268900  0.62570500  1
  Xe  Xe2  1  0.25000000  0.78731100  0.12570500  1
  Xe  Xe3  1  0.75000000  0.21268900  0.87429500  1
  N  N0  1  0.75000000  0.07945600  0.53179500  1
  N  N1  1  0.75000000  0.49360000  0.21814900  1
  N  N2  1  0.25000000  0.50640000  0.78185100  1
  N  N3  1  0.75000000  0.99360000  0.28185100  1
  N  N4  1  0.25000000  0.42054400  0.03179500  1
  N  N5  1  0.75000000  0.57945600  0.96820500  1
  N  N6  1  0.25000000  0.00640000  0.71814900  1
  N  N7  1  0.25000000  0.92054400  0.46820500  1
  O  O0  1  0.25000000  0.44116000  0.71190400  1
  O  O1  1  0.75000000  0.55884000  0.28809600  1
  O  O2  1  0.25000000  0.94116000  0.78809600  1
  O  O3  1  0.75000000  0.68758000  0.93012000  1
  O  O4  1  0.25000000  0.31242000  0.06988000  1
  O  O5  1  0.75000000  0.18758000  0.56988000  1
  O  O6  1  0.75000000  0.05884000  0.21190400  1
  O  O7  1  0.25000000  0.81242000  0.43012000  1
  F  F0  1  0.53386900  0.37434500  0.43426500  1
  F  F1  1  0.03386900  0.12565500  0.93426500  1
  F  F2  1  0.96613100  0.37434500  0.43426500  1
  F  F3  1  0.46613100  0.62565500  0.56573500  1
  F  F4  1  0.52615600  0.41892600  0.88604900  1
  F  F5  1  0.02615600  0.58107400  0.11395100  1
  F  F6  1  0.97384400  0.91892600  0.61395100  1
  F  F7  1  0.53386900  0.87434500  0.06573500  1
  F  F8  1  0.47384400  0.58107400  0.11395100  1
  F  F9  1  0.97384400  0.41892600  0.88604900  1
  F  F10  1  0.02615600  0.08107400  0.38604900  1
  F  F11  1  0.52615600  0.91892600  0.61395100  1
  F  F12  1  0.53221100  0.21433500  0.74895200  1
  F  F13  1  0.03221100  0.78566500  0.25104800  1
  F  F14  1  0.96778900  0.71433500  0.75104800  1
  F  F15  1  0.46778900  0.28566500  0.24895200  1
  F  F16  1  0.46778900  0.78566500  0.25104800  1
  F  F17  1  0.96778900  0.21433500  0.74895200  1
  F  F18  1  0.03221100  0.28566500  0.24895200  1
  F  F19  1  0.53221100  0.71433500  0.75104800  1
  F  F20  1  0.96613100  0.87434500  0.06573500  1
  F  F21  1  0.46613100  0.12565500  0.93426500  1
  F  F22  1  0.25000000  0.50322300  0.33087800  1
  F  F23  1  0.75000000  0.49677700  0.66912200  1
  F  F24  1  0.25000000  0.00322300  0.16912200  1
  F  F25  1  0.75000000  0.99677700  0.83087800  1
  F  F26  1  0.25000000  0.22781400  0.52628800  1
  F  F27  1  0.75000000  0.77218600  0.47371200  1
  F  F28  1  0.25000000  0.72781400  0.97371200  1
  F  F29  1  0.75000000  0.27218600  0.02628800  1
  F  F30  1  0.47384400  0.08107400  0.38604900  1
  F  F31  1  0.03386900  0.62565500  0.56573500  1
loop_
_geom_bond_atom_site_label_1
_geom_bond_atom_site_label_2
_geom_bond_distance
_geom_bond_site_symmetry_2
N0 O5 1.106026 1_555
N1 O1 1.104439 1_555
N2 O0 1.104439 1_555
N3 O6 1.104439 1_565
N4 O4 1.106026 1_555
N5 O3 1.106026 1_555
N6 O2 1.104439 1_545
N7 O7 1.106026 1_555
F0 Xe0 2.045654 1_555
F1 Xe3 2.045654 1_455
F2 Xe0 2.045654 1_655
F3 Xe1 2.045654 1_555
F4 Xe3 2.314062 1_555
F5 Xe2 2.314062 1_555
F6 Xe1 2.314062 1_555
F7 Xe2 2.045654 1_555
F8 Xe2 2.314062 1_555
F9 Xe3 2.314062 1_555
F10 Xe0 2.314062 1_555
F11 Xe1 2.314062 1_555
F12 Xe3 2.122992 1_555
F13 Xe2 2.122992 1_555
F14 Xe1 2.122992 1_555
F15 Xe0 2.122992 1_555
F16 Xe2 2.122992 1_555
F17 Xe3 2.122992 1_555
F18 Xe0 2.122992 1_555
F19 Xe1 2.122992 1_555
F20 Xe2 2.045654 1_655
F21 Xe3 2.045654 1_555
F22 Xe0 2.046017 1_555
F23 Xe1 2.046017 1_555
F24 Xe2 2.046017 1_545
F25 Xe3 2.046017 1_565
F26 Xe0 2.095612 1_555
F27 Xe1 2.095612 1_555
F28 Xe2 2.095612 1_556
F29 Xe3 2.095612 1_554
F30 Xe0 2.314062 1_555
F31 Xe1 2.045654 1_455
