# generated using pymatgen
data_Na6Zr4Ti4Si7S5O48
_symmetry_space_group_name_H-M   'P 1'
_cell_length_a   17.90986248
_cell_length_b   8.91299420
_cell_length_c   22.95709174
_cell_angle_alpha   89.92460740
_cell_angle_beta   89.97206816
_cell_angle_gamma   119.83210686
_symmetry_Int_Tables_number   1
_chemical_formula_structural   Na6Zr4Ti4Si7S5O48
_chemical_formula_sum   'Na18 Zr12 Ti12 Si21 S15 O144'
_cell_volume   3179.03186739
_cell_formula_units_Z   3
loop_
 _symmetry_equiv_pos_site_id
 _symmetry_equiv_pos_as_xyz
  1  'x, y, z'
loop_
 _atom_site_type_symbol
 _atom_site_label
 _atom_site_symmetry_multiplicity
 _atom_site_fract_x
 _atom_site_fract_y
 _atom_site_fract_z
 _atom_site_occupancy
  Na  Na0  1  0.99930125  0.62995998  0.25174985  1
  Na  Na1  1  0.49903240  0.64229859  0.24580525  1
  Na  Na2  1  0.99983207  0.35566305  0.75266835  1
  Na  Na3  1  0.49923549  0.37001347  0.75362512  1
  Na  Na4  1  0.66634076  0.31588725  0.91780030  1
  Na  Na5  1  0.16698725  0.02088440  0.41490800  1
  Na  Na6  1  0.99807823  0.98950767  0.50572081  1
  Na  Na7  1  0.49666758  0.99473718  0.49543072  1
  Na  Na8  1  0.99703834  0.99855571  0.99725288  1
  Na  Na9  1  0.49760097  0.00340288  0.00795393  1
  Na  Na10  1  0.33174037  0.33477321  0.83501464  1
  Na  Na11  1  0.83393253  0.33403999  0.83520710  1
  Na  Na12  1  0.33349514  0.33472080  0.32959394  1
  Na  Na13  1  0.83116263  0.32526713  0.32991243  1
  Na  Na14  1  0.17505545  0.67210320  0.16865952  1
  Na  Na15  1  0.66994560  0.66755369  0.16010043  1
  Na  Na16  1  0.17503321  0.67889103  0.66451048  1
  Na  Na17  1  0.67319030  0.67670261  0.67050498  1
  Zr  Zr0  1  0.99728494  0.99385736  0.35071547  1
  Zr  Zr1  1  0.49710217  0.00005341  0.85191112  1
  Zr  Zr2  1  0.32255178  0.32363549  0.69034628  1
  Zr  Zr3  1  0.82667959  0.33213024  0.68613850  1
  Zr  Zr4  1  0.33200631  0.32783475  0.18317152  1
  Zr  Zr5  1  0.82226283  0.31975359  0.18976047  1
  Zr  Zr6  1  0.83417944  0.33924543  0.98082918  1
  Zr  Zr7  1  0.33434898  0.32998189  0.48041956  1
  Zr  Zr8  1  0.16830525  0.67410874  0.30865735  1
  Zr  Zr9  1  0.66684491  0.67211993  0.31027355  1
  Zr  Zr10  1  0.16877506  0.66428413  0.81249221  1
  Zr  Zr11  1  0.66837873  0.66304873  0.81051932  1
  Ti  Ti0  1  0.49541870  0.97003259  0.35427036  1
  Ti  Ti1  1  0.99500801  0.02098049  0.85702138  1
  Ti  Ti2  1  0.99866282  0.00270023  0.64508477  1
  Ti  Ti3  1  0.49869527  0.99537187  0.65556240  1
  Ti  Ti4  1  0.99957180  0.00332527  0.15535673  1
  Ti  Ti5  1  0.49657066  0.97815565  0.13907739  1
  Ti  Ti6  1  0.34647455  0.33475471  0.98542248  1
  Ti  Ti7  1  0.83922994  0.36062353  0.48210602  1
  Ti  Ti8  1  0.16585679  0.66499327  0.01954217  1
  Ti  Ti9  1  0.66413934  0.63941093  0.02045062  1
  Ti  Ti10  1  0.17215714  0.69802039  0.51666017  1
  Ti  Ti11  1  0.66555088  0.66838483  0.51886498  1
  Si  Si0  1  0.14691733  0.00864684  0.24959797  1
  Si  Si1  1  0.63646983  0.00225818  0.25024480  1
  Si  Si2  1  0.35864675  0.71624478  0.24726433  1
  Si  Si3  1  0.85392826  0.71040062  0.24778982  1
  Si  Si4  1  0.99976051  0.28971101  0.24949624  1
  Si  Si5  1  0.13675482  0.27351421  0.75134075  1
  Si  Si6  1  0.64411377  0.28500769  0.75008342  1
  Si  Si7  1  0.50030896  0.71010677  0.74964121  1
  Si  Si8  1  0.35343245  0.99577142  0.74820054  1
  Si  Si9  1  0.85876242  0.99914215  0.74789896  1
  Si  Si10  1  0.18267796  0.03757761  0.58275216  1
  Si  Si11  1  0.83207381  0.63486958  0.58265205  1
  Si  Si12  1  0.48447724  0.62464300  0.08250275  1
  Si  Si13  1  0.33169942  0.03233516  0.08241150  1
  Si  Si14  1  0.68286598  0.32662832  0.08306957  1
  Si  Si15  1  0.81470183  0.67792788  0.91770311  1
  Si  Si16  1  0.02366707  0.38066849  0.91762308  1
  Si  Si17  1  0.51833285  0.37525284  0.91730098  1
  Si  Si18  1  0.31734558  0.95762460  0.41519503  1
  Si  Si19  1  0.01990282  0.66296800  0.41771476  1
  Si  Si20  1  0.52364270  0.66954469  0.41736231  1
  S  S0  1  0.49960848  0.27987350  0.25104050  1
  S  S1  1  0.00028974  0.71829329  0.74967898  1
  S  S2  1  0.48384080  0.33393770  0.58336885  1
  S  S3  1  0.97995095  0.33588230  0.58128631  1
  S  S4  1  0.68649818  0.04000350  0.57979187  1
  S  S5  1  0.33397672  0.63383934  0.58278466  1
  S  S6  1  0.98386384  0.63377993  0.08358659  1
  S  S7  1  0.83569504  0.03631973  0.08301133  1
  S  S8  1  0.18540169  0.33197446  0.07978662  1
  S  S9  1  0.30951646  0.65960319  0.92059112  1
  S  S10  1  0.16738346  0.95848132  0.91876777  1
  S  S11  1  0.66609063  0.95373890  0.91880998  1
  S  S12  1  0.80957952  0.95976664  0.42071145  1
  S  S13  1  0.16577752  0.38007451  0.41957711  1
  S  S14  1  0.66825044  0.37800471  0.41960998  1
  O  O0  1  0.10434162  0.02931484  0.31047996  1
  O  O1  1  0.59215834  0.02618366  0.30958393  1
  O  O2  1  0.41891421  0.80675522  0.30676521  1
  O  O3  1  0.91309125  0.79152185  0.30617010  1
  O  O4  1  0.48892682  0.18140546  0.30465525  1
  O  O5  1  0.98346743  0.17319287  0.30788058  1
  O  O6  1  0.09089968  0.15614420  0.80896681  1
  O  O7  1  0.60442697  0.17828743  0.81009985  1
  O  O8  1  0.48355112  0.79412624  0.80725800  1
  O  O9  1  0.98671368  0.79135998  0.80286703  1
  O  O10  1  0.41308971  0.03402230  0.80574530  1
  O  O11  1  0.91955289  0.03380383  0.80648003  1
  O  O12  1  0.40338959  0.97111851  0.69154078  1
  O  O13  1  0.90741594  0.97460440  0.69126786  1
  O  O14  1  0.07754844  0.18390386  0.69310934  1
  O  O15  1  0.58103302  0.18587578  0.69339944  1
  O  O16  1  0.01193080  0.81857770  0.69603707  1
  O  O17  1  0.51199129  0.83486800  0.69236111  1
  O  O18  1  0.40647361  0.83820833  0.19140381  1
  O  O19  1  0.90393295  0.83594455  0.19164078  1
  O  O20  1  0.01205987  0.18931611  0.19279319  1
  O  O21  1  0.51222898  0.20762536  0.19751079  1
  O  O22  1  0.08119052  0.97685049  0.19402699  1
  O  O23  1  0.57761051  0.96729095  0.19300740  1
  O  O24  1  0.44705840  0.36518450  0.63618982  1
  O  O25  1  0.94176254  0.36106478  0.63548597  1
  O  O26  1  0.24724452  0.12686050  0.63733165  1
  O  O27  1  0.73888872  0.11396928  0.63395117  1
  O  O28  1  0.32241509  0.52675197  0.63511437  1
  O  O29  1  0.81507823  0.50466716  0.63716520  1
  O  O30  1  0.44189612  0.51177573  0.14162446  1
  O  O31  1  0.94704567  0.52915936  0.13652362  1
  O  O32  1  0.30981284  0.11618693  0.13832047  1
  O  O33  1  0.82469190  0.12189977  0.13529719  1
  O  O34  1  0.23773152  0.36332922  0.13386501  1
  O  O35  1  0.74823538  0.36637259  0.13736770  1
  O  O36  1  0.22868546  0.30980298  0.02861684  1
  O  O37  1  0.72673819  0.29858552  0.02415945  1
  O  O38  1  0.41710154  0.52195961  0.02764991  1
  O  O39  1  0.92858350  0.54605472  0.03206396  1
  O  O40  1  0.34454904  0.16314551  0.02670025  1
  O  O41  1  0.84872975  0.14673523  0.03104471  1
  O  O42  1  0.22550031  0.15183518  0.52378512  1
  O  O43  1  0.73185266  0.15023856  0.52917629  1
  O  O44  1  0.34709509  0.55024104  0.53086294  1
  O  O45  1  0.84458372  0.52633446  0.52682802  1
  O  O46  1  0.42829344  0.31108387  0.53198825  1
  O  O47  1  0.92199133  0.31164796  0.53074672  1
  O  O48  1  0.26624528  0.68614165  0.97126655  1
  O  O49  1  0.76481359  0.69912428  0.97431195  1
  O  O50  1  0.08754493  0.48778278  0.97243433  1
  O  O51  1  0.58464013  0.47554471  0.97184163  1
  O  O52  1  0.15711614  0.84519926  0.96984514  1
  O  O53  1  0.65679742  0.85086498  0.97099736  1
  O  O54  1  0.26661985  0.83735557  0.47388233  1
  O  O55  1  0.76581895  0.84529259  0.47186818  1
  O  O56  1  0.15693037  0.46536079  0.47212682  1
  O  O57  1  0.65877576  0.47036164  0.47094747  1
  O  O58  1  0.08587279  0.68953614  0.47273157  1
  O  O59  1  0.58750706  0.68711628  0.47294132  1
  O  O60  1  0.05649541  0.62865635  0.35793362  1
  O  O61  1  0.56609638  0.63739067  0.35965145  1
  O  O62  1  0.24952173  0.86949457  0.36222155  1
  O  O63  1  0.75978593  0.87981878  0.36678127  1
  O  O64  1  0.17729693  0.47806697  0.36589897  1
  O  O65  1  0.68598820  0.48471231  0.36649385  1
  O  O66  1  0.06483074  0.49178776  0.85790331  1
  O  O67  1  0.55797098  0.48381148  0.85696403  1
  O  O68  1  0.18216834  0.87946426  0.86526687  1
  O  O69  1  0.67782094  0.87846833  0.86461413  1
  O  O70  1  0.25973652  0.64273299  0.86599939  1
  O  O71  1  0.75111862  0.63173562  0.86133769  1
  O  O72  1  0.01418869  0.84085404  0.41836744  1
  O  O73  1  0.51823209  0.84747147  0.41300040  1
  O  O74  1  0.41303985  0.98391545  0.40915004  1
  O  O75  1  0.89586222  0.97566207  0.41695099  1
  O  O76  1  0.08939357  0.20222461  0.41645795  1
  O  O77  1  0.59073245  0.20858187  0.41494769  1
  O  O78  1  0.01804873  0.19060664  0.91268653  1
  O  O79  1  0.51423150  0.18701747  0.91645369  1
  O  O80  1  0.08745771  0.96679729  0.91325813  1
  O  O81  1  0.58990506  0.97863620  0.91479719  1
  O  O82  1  0.39565403  0.81543270  0.91605609  1
  O  O83  1  0.91169189  0.84175003  0.90756213  1
  O  O84  1  0.49280326  0.17814320  0.58733506  1
  O  O85  1  0.98535196  0.17470055  0.58556285  1
  O  O86  1  0.08763591  0.01547183  0.59396839  1
  O  O87  1  0.60037611  0.02250678  0.58614144  1
  O  O88  1  0.41174101  0.80787784  0.58807537  1
  O  O89  1  0.91813311  0.82117022  0.58961571  1
  O  O90  1  0.48796462  0.81121151  0.08674086  1
  O  O91  1  0.99268775  0.80750262  0.08756317  1
  O  O92  1  0.41711899  0.01720897  0.08953625  1
  O  O93  1  0.91412365  0.01982324  0.08845012  1
  O  O94  1  0.09868553  0.17803779  0.08676698  1
  O  O95  1  0.58816475  0.16165584  0.09371672  1
  O  O96  1  0.35214421  0.17570894  0.74134899  1
  O  O97  1  0.85788567  0.18245076  0.74074840  1
  O  O98  1  0.23416082  0.30652117  0.74688480  1
  O  O99  1  0.73947844  0.30618392  0.74426749  1
  O  O100  1  0.41794499  0.51840033  0.73956763  1
  O  O101  1  0.92523344  0.53647168  0.74256146  1
  O  O102  1  0.35536662  0.52912917  0.24450384  1
  O  O103  1  0.85260371  0.52801080  0.24160950  1
  O  O104  1  0.42386197  0.31003459  0.24674243  1
  O  O105  1  0.91791434  0.31821425  0.24064936  1
  O  O106  1  0.24159265  0.17622137  0.24488887  1
  O  O107  1  0.73473900  0.16359614  0.24807664  1
  O  O108  1  0.31504346  0.50068965  0.92591121  1
  O  O109  1  0.82027809  0.49817659  0.92477284  1
  O  O110  1  0.42213094  0.35486757  0.92639714  1
  O  O111  1  0.92711349  0.34956530  0.92565117  1
  O  O112  1  0.24343791  0.13251977  0.92572773  1
  O  O113  1  0.74362992  0.13233552  0.92231965  1
  O  O114  1  0.32010438  0.14406717  0.42479174  1
  O  O115  1  0.81678188  0.13082421  0.42832102  1
  O  O116  1  0.24317427  0.35632707  0.42374127  1
  O  O117  1  0.74596271  0.35535591  0.42864118  1
  O  O118  1  0.42756082  0.50600808  0.42712346  1
  O  O119  1  0.92357392  0.48973795  0.43005434  1
  O  O120  1  0.17696294  0.49170381  0.07328727  1
  O  O121  1  0.67740061  0.50517022  0.07557916  1
  O  O122  1  0.07075436  0.65061246  0.07427480  1
  O  O123  1  0.58044864  0.65438732  0.06999958  1
  O  O124  1  0.24604023  0.84239436  0.06682482  1
  O  O125  1  0.75681033  0.86633375  0.07726795  1
  O  O126  1  0.17432871  0.84343551  0.57451427  1
  O  O127  1  0.67822401  0.86432633  0.57347888  1
  O  O128  1  0.25422045  0.64517551  0.57637483  1
  O  O129  1  0.74605048  0.64934355  0.56769714  1
  O  O130  1  0.06679689  0.48697152  0.57368326  1
  O  O131  1  0.57088196  0.49116906  0.57382000  1
  O  O132  1  0.14706804  0.82567317  0.25094816  1
  O  O133  1  0.64513323  0.82521931  0.25707549  1
  O  O134  1  0.26359532  0.69256053  0.25509327  1
  O  O135  1  0.75927746  0.68937744  0.25349720  1
  O  O136  1  0.08530775  0.47933325  0.25189129  1
  O  O137  1  0.57735224  0.46164415  0.25692710  1
  O  O138  1  0.14406304  0.46640793  0.75568597  1
  O  O139  1  0.64760411  0.47031356  0.75045774  1
  O  O140  1  0.07768635  0.69455304  0.75442645  1
  O  O141  1  0.58558453  0.69089192  0.75134509  1
  O  O142  1  0.25837107  0.82808929  0.75244280  1
  O  O143  1  0.76348070  0.83537359  0.75378648  1
loop_
_geom_bond_atom_site_label_1
_geom_bond_atom_site_label_2
_geom_bond_distance
_geom_bond_site_symmetry_2
Na0 O103 2.325651 1_555
Na0 O132 2.335365 1_655
Na0 O105 2.425453 1_555
Na0 O136 2.496521 1_655
Na0 O60 2.646856 1_655
Na0 O31 2.802245 1_555
Na0 O3 2.869377 1_555
Na0 O22 2.990357 1_655
Na1 O102 2.248734 1_555
Na1 O133 2.308511 1_555
Na1 O104 2.572219 1_555
Na1 O137 2.621409 1_555
Na1 O30 2.635526 1_555
Na1 O23 2.788117 1_555
Na1 O2 2.874381 1_555
Na1 O61 2.886242 1_555
Na2 O97 2.240140 1_555
Na2 O138 2.261715 1_655
Na2 O101 2.564652 1_555
Na2 O140 2.622882 1_655
Na2 O66 2.696102 1_655
Na2 O11 2.776369 1_555
Na2 O14 2.876482 1_655
Na2 O25 2.893641 1_555
Na3 O96 2.341265 1_555
Na3 O139 2.345570 1_555
Na3 O100 2.426536 1_555
Na3 O141 2.484543 1_555
Na3 O67 2.590496 1_555
Na3 O24 2.847126 1_555
Na3 O10 2.858689 1_555
Na4 O79 2.372507 1_555
Na4 O109 2.410581 1_555
Na4 O81 2.611686 1_545
Na4 O113 2.618427 1_555
Na4 O37 2.706161 1_556
Na4 O7 2.739439 1_555
Na4 O71 2.765224 1_555
Na4 O51 2.789229 1_555
Na5 O72 2.387603 1_545
Na5 O114 2.404762 1_555
Na5 O76 2.603789 1_555
Na5 O116 2.604781 1_555
Na5 O0 2.664180 1_555
Na5 O62 2.730507 1_545
Na5 O42 2.738851 1_555
Na5 O58 2.883371 1_545
Na6 O89 2.421364 1_555
Na6 O72 2.499414 1_655
Na6 O86 2.523027 1_665
Na6 O85 2.553046 1_565
Na6 O75 2.701695 1_555
Na6 O76 2.714796 1_665
Na7 O73 2.441975 1_555
Na7 O74 2.456754 1_555
Na7 O77 2.584150 1_565
Na7 O88 2.660448 1_555
Na7 O84 2.692585 1_565
Na7 O87 2.719479 1_565
Na8 O78 2.488051 1_665
Na8 O83 2.532703 1_555
Na8 O80 2.622075 1_655
Na8 O93 2.627254 1_566
Na8 O91 2.657582 1_556
Na8 O94 2.685342 1_666
Na9 O92 2.403125 1_555
Na9 O90 2.435780 1_545
Na9 O95 2.496200 1_555
Na9 O79 2.585505 1_554
Na9 O82 2.749746 1_544
Na9 O81 2.777797 1_544
Na10 O110 2.601879 1_555
Na10 O98 2.603450 1_555
Na10 O108 2.660489 1_555
Na10 O112 2.690368 1_555
Na10 O96 2.699997 1_555
Na10 O100 2.708666 1_555
Na11 O109 2.605998 1_555
Na11 O99 2.620843 1_555
Na11 O111 2.624837 1_555
Na11 O113 2.634713 1_555
Na11 O97 2.701002 1_555
Na11 O101 2.739344 1_555
Na12 O106 2.486609 1_555
Na12 O102 2.507349 1_555
Na12 O104 2.576418 1_555
Na12 O114 2.702892 1_555
Na12 O116 2.762766 1_555
Na12 O118 2.763297 1_555
Na13 O107 2.474414 1_555
Na13 O105 2.590692 1_555
Na13 O103 2.611812 1_555
Na13 O115 2.778267 1_555
Na13 O119 2.787857 1_555
Na13 O117 2.818307 1_555
Na14 O134 2.490277 1_555
Na14 O132 2.526262 1_555
Na14 O136 2.535228 1_555
Na14 O120 2.728392 1_555
Na14 O124 2.730089 1_555
Na14 O122 2.805395 1_555
Na15 O121 2.465153 1_555
Na15 O125 2.534027 1_555
Na15 O123 2.584224 1_555
Na15 O135 2.624813 1_555
Na15 O133 2.785159 1_555
Na15 O137 2.831436 1_555
Na16 O142 2.471119 1_555
Na16 O126 2.535756 1_555
Na16 O128 2.572627 1_555
Na16 O138 2.686790 1_555
Na16 O140 2.749459 1_555
Na16 O130 2.783133 1_555
Na17 O143 2.450552 1_555
Na17 O139 2.472756 1_555
Na17 O141 2.473292 1_555
Na17 O127 2.757927 1_555
Na17 O129 2.765460 1_555
Na17 O131 2.831543 1_555
O0 Si0 1.645680 1_555
O0 Zr0 2.005996 1_445
O1 Si1 1.642899 1_555
O1 Ti0 1.854445 1_545
O2 Si2 1.679205 1_555
O2 Ti0 1.790639 1_555
O3 Si3 1.638133 1_555
O3 Zr0 1.967903 1_555
O4 S0 1.466869 1_555
O4 Ti0 2.252248 1_545
O5 Si4 1.629303 1_555
O5 Zr0 1.993197 1_545
O6 Si5 1.630795 1_555
O6 Ti1 1.885215 1_455
O7 Si6 1.622118 1_555
O7 Zr1 2.023826 1_555
O8 Si7 1.620582 1_555
O8 Zr1 2.010110 1_565
O9 S1 1.460660 1_655
O9 Ti1 2.336808 1_565
O10 Si8 1.625783 1_545
O10 Zr1 1.983139 1_555
O11 Si9 1.660516 1_545
O11 Ti1 1.827684 1_555
O12 Si8 1.654076 1_555
O12 Ti3 1.809290 1_555
O13 Si9 1.639086 1_555
O13 Ti2 1.856858 1_565
O14 Si5 1.646508 1_555
O14 Ti2 1.885743 1_455
O15 Si6 1.661850 1_555
O15 Ti3 1.823771 1_545
O16 S1 1.473211 1_555
O16 Ti2 2.121571 1_465
O17 Si7 1.665503 1_555
O17 Ti3 1.775628 1_555
O18 Si2 1.621357 1_555
O18 Ti5 1.895873 1_555
O19 Si3 1.647352 1_555
O19 Ti4 1.818350 1_565
O20 Si4 1.656092 1_455
O20 Ti4 1.780951 1_455
O21 S0 1.456896 1_555
O21 Ti5 2.344822 1_545
O22 Si0 1.662544 1_565
O22 Ti4 1.823319 1_465
O23 Si1 1.615721 1_565
O23 Ti5 1.946813 1_555
O24 S2 1.471266 1_555
O24 Zr2 2.414498 1_555
O25 S3 1.489632 1_555
O25 Zr3 2.266039 1_555
O26 Si10 1.621400 1_555
O26 Zr2 2.007508 1_555
O27 S4 1.499595 1_555
O27 Zr3 2.157473 1_555
O28 S5 1.482297 1_555
O28 Zr2 2.209880 1_555
O29 Si11 1.627857 1_555
O29 Zr3 1.996412 1_555
O30 Si12 1.633361 1_555
O30 Zr4 2.062726 1_555
O31 S6 1.471639 1_555
O31 Zr5 2.411040 1_555
O32 Si13 1.628837 1_555
O32 Zr4 2.009039 1_555
O33 S7 1.487678 1_555
O33 Zr5 2.181076 1_555
O34 S8 1.496402 1_555
O34 Zr4 2.182793 1_555
O35 Si14 1.624792 1_555
O35 Zr5 1.981284 1_555
O36 S8 1.473796 1_555
O36 Ti6 2.239134 1_554
O37 Si14 1.644420 1_555
O37 Zr6 2.031497 1_554
O38 Si12 1.668893 1_555
O38 Ti6 1.797069 1_554
O39 S6 1.491310 1_555
O39 Zr6 2.132313 1_554
O40 Si13 1.666405 1_555
O40 Ti6 1.783920 1_554
O41 S7 1.488063 1_555
O41 Zr6 2.186534 1_554
O42 Si10 1.635885 1_555
O42 Zr7 2.055960 1_555
O43 S4 1.475608 1_555
O43 Ti7 2.187942 1_555
O44 S5 1.485741 1_555
O44 Zr7 2.192612 1_555
O45 Si11 1.687312 1_555
O45 Ti7 1.762934 1_555
O46 S2 1.490874 1_555
O46 Zr7 2.131715 1_555
O47 S3 1.499706 1_555
O47 Ti7 2.068472 1_555
O48 S9 1.480601 1_555
O48 Ti8 2.038803 1_556
O49 Si15 1.640235 1_555
O49 Ti9 1.923049 1_556
O50 Si16 1.649705 1_555
O50 Ti8 1.852939 1_556
O51 Si17 1.650853 1_555
O51 Ti9 1.828271 1_556
O52 S10 1.496725 1_555
O52 Ti8 2.037515 1_556
O53 S11 1.465908 1_555
O53 Ti9 2.258170 1_556
O54 Si18 1.678013 1_555
O54 Ti10 1.809352 1_555
O55 S12 1.494949 1_555
O55 Ti11 2.012855 1_555
O56 S13 1.476611 1_555
O56 Ti10 2.205220 1_555
O57 S14 1.495577 1_555
O57 Ti11 2.032767 1_555
O58 Si19 1.664681 1_555
O58 Ti10 1.815563 1_555
O59 Si20 1.668693 1_555
O59 Ti11 1.823796 1_555
O60 Si19 1.614358 1_555
O60 Zr8 2.154828 1_555
O61 Si20 1.622453 1_555
O61 Zr9 2.019411 1_555
O62 Si18 1.620533 1_555
O62 Zr8 2.036607 1_555
O63 S12 1.485618 1_555
O63 Zr9 2.196190 1_555
O64 S13 1.463418 1_555
O64 Zr8 2.253895 1_555
O65 S14 1.479312 1_555
O65 Zr9 2.266713 1_555
O66 Si16 1.634939 1_555
O66 Zr10 2.015568 1_555
O67 Si17 1.634309 1_555
O67 Zr11 2.109409 1_555
O68 S10 1.504049 1_555
O68 Zr10 2.180005 1_555
O69 S11 1.477964 1_555
O69 Zr11 2.222786 1_555
O70 S9 1.502119 1_555
O70 Zr10 2.124252 1_555
O71 Si15 1.636176 1_555
O71 Zr11 2.011756 1_555
O72 Si19 1.638900 1_555
O72 Zr0 2.183832 1_455
O73 Si20 1.639163 1_555
O73 Ti0 1.902317 1_555
O74 Si18 1.616055 1_555
O74 Ti0 1.989880 1_555
O75 S12 1.482406 1_555
O75 Zr0 2.311184 1_555
O76 S13 1.494072 1_555
O76 Zr0 2.325937 1_445
O77 S14 1.460812 1_555
O77 Ti0 2.402941 1_545
O78 Si16 1.650332 1_555
O78 Ti1 1.863865 1_455
O79 Si17 1.642578 1_555
O79 Zr1 2.136542 1_555
O80 S10 1.475222 1_555
O80 Ti1 2.331854 1_465
O81 S11 1.490247 1_555
O81 Zr1 2.280454 1_565
O82 S9 1.479029 1_555
O82 Zr1 2.279005 1_565
O83 Si15 1.636727 1_555
O83 Ti1 1.935609 1_565
O84 S2 1.477733 1_555
O84 Ti3 2.298409 1_545
O85 S3 1.490217 1_555
O85 Ti2 2.152357 1_555
O86 Si10 1.633504 1_555
O86 Ti2 1.935615 1_455
O87 S4 1.478200 1_555
O87 Ti3 2.339382 1_545
O88 S5 1.487257 1_555
O88 Ti3 2.244595 1_555
O89 Si11 1.616491 1_555
O89 Ti2 2.001268 1_565
O90 Si12 1.635741 1_555
O90 Ti5 1.859600 1_555
O91 S6 1.479104 1_555
O91 Ti4 2.297160 1_565
O92 Si13 1.609587 1_555
O92 Ti5 1.983136 1_545
O93 S7 1.488570 1_555
O93 Ti4 2.224515 1_555
O94 S8 1.483015 1_555
O94 Ti4 2.301305 1_455
O95 Si14 1.617381 1_555
O95 Ti5 1.942912 1_545
O96 Si8 1.622820 1_545
O96 Zr2 2.020390 1_555
O97 Si9 1.649670 1_545
O97 Zr3 2.098096 1_555
O98 Si5 1.621580 1_555
O98 Zr2 1.992812 1_555
O99 Si6 1.627755 1_555
O99 Zr3 1.977679 1_555
O100 Si7 1.625645 1_555
O100 Zr2 2.065316 1_555
O101 S1 1.514426 1_655
O101 Zr3 2.218217 1_555
O102 Si2 1.640639 1_555
O102 Zr4 2.153339 1_555
O103 Si3 1.620382 1_555
O103 Zr5 2.039725 1_555
O104 S0 1.511718 1_555
O104 Zr4 2.263375 1_555
O105 Si4 1.620240 1_555
O105 Zr5 2.079674 1_555
O106 Si0 1.611623 1_555
O106 Zr4 2.066716 1_555
O107 Si1 1.627760 1_555
O107 Zr5 2.002264 1_555
O108 S9 1.473072 1_555
O108 Ti6 2.279153 1_555
O109 Si15 1.661816 1_555
O109 Zr6 2.017697 1_555
O110 Si17 1.653272 1_555
O110 Ti6 1.860164 1_555
O111 Si16 1.619804 1_655
O111 Zr6 2.056386 1_555
O112 S10 1.478449 1_545
O112 Ti6 2.287370 1_555
O113 S11 1.506661 1_545
O113 Zr6 2.206423 1_555
O114 Si18 1.652790 1_545
O114 Zr7 2.006757 1_555
O115 S12 1.475372 1_545
O115 Ti7 2.251493 1_555
O116 S13 1.505781 1_555
O116 Zr7 2.190293 1_555
O117 S14 1.516772 1_555
O117 Ti7 2.055013 1_555
O118 Si20 1.624580 1_555
O118 Zr7 2.032866 1_555
O119 Si19 1.669959 1_655
O119 Ti7 1.816370 1_555
O120 S8 1.511777 1_555
O120 Ti8 2.061154 1_555
O121 Si14 1.650998 1_555
O121 Ti9 1.835415 1_555
O122 S6 1.502418 1_455
O122 Ti8 2.068004 1_555
O123 Si12 1.628809 1_555
O123 Ti9 1.938090 1_555
O124 Si13 1.663068 1_565
O124 Ti8 1.867501 1_555
O125 S7 1.476468 1_565
O125 Ti9 2.283858 1_555
O126 Si10 1.672070 1_565
O126 Ti10 1.843852 1_555
O127 S4 1.504820 1_565
O127 Ti11 2.070057 1_555
O128 S5 1.488629 1_555
O128 Ti10 2.224926 1_555
O129 Si11 1.645086 1_555
O129 Ti11 1.899649 1_555
O130 S3 1.475935 1_455
O130 Ti10 2.296181 1_555
O131 S2 1.505807 1_555
O131 Ti11 2.071104 1_555
O132 Si0 1.632441 1_565
O132 Zr8 2.057124 1_555
O133 Si1 1.667796 1_565
O133 Zr9 2.007181 1_555
O134 Si2 1.617699 1_555
O134 Zr8 2.042037 1_555
O135 Si3 1.615430 1_555
O135 Zr9 2.051126 1_555
O136 Si4 1.622013 1_455
O136 Zr8 2.088561 1_555
O137 S0 1.529108 1_555
O137 Zr9 2.145810 1_555
O138 Si5 1.661179 1_555
O138 Zr10 2.058424 1_555
O139 Si6 1.621475 1_555
O139 Zr11 2.088409 1_555
O140 S1 1.506653 1_555
O140 Zr10 2.224908 1_555
O141 Si7 1.619784 1_555
O141 Zr11 2.114950 1_555
O142 Si8 1.615441 1_555
O142 Zr10 2.066055 1_555
O143 Si9 1.606858 1_555
O143 Zr11 2.084768 1_555
