# generated using pymatgen
data_Na3ZrNb(SiO4)3
_symmetry_space_group_name_H-M   'P 1'
_cell_length_a   9.18828005
_cell_length_b   9.19276135
_cell_length_c   22.87257799
_cell_angle_alpha   89.99999999
_cell_angle_beta   90.09109029
_cell_angle_gamma   120.01613733
_symmetry_Int_Tables_number   1
_chemical_formula_structural   Na3ZrNb(SiO4)3
_chemical_formula_sum   'Na18 Zr6 Nb6 Si18 O72'
_cell_volume   1672.84068427
_cell_formula_units_Z   6
loop_
 _symmetry_equiv_pos_site_id
 _symmetry_equiv_pos_as_xyz
  1  'x, y, z'
loop_
 _atom_site_type_symbol
 _atom_site_label
 _atom_site_symmetry_multiplicity
 _atom_site_fract_x
 _atom_site_fract_y
 _atom_site_fract_z
 _atom_site_occupancy
  Na  Na0  1  0.99249556  0.98330021  0.49845835  1
  Na  Na1  1  0.99249556  0.00919536  0.99845835  1
  Na  Na2  1  0.66644864  0.33451056  0.83180074  1
  Na  Na3  1  0.66644864  0.33193709  0.33180074  1
  Na  Na4  1  0.33140125  0.66536755  0.16518705  1
  Na  Na5  1  0.33140125  0.66603471  0.66518705  1
  Na  Na6  1  0.36853799  0.36512958  0.24968209  1
  Na  Na7  1  0.99426115  0.63161368  0.24916184  1
  Na  Na8  1  0.99426115  0.36264747  0.74916184  1
  Na  Na9  1  0.36853799  0.00340840  0.74968209  1
  Na  Na10  1  0.30289136  0.33887659  0.58282070  1
  Na  Na11  1  0.66378421  0.96613255  0.58243669  1
  Na  Na12  1  0.30289136  0.96401377  0.08282070  1
  Na  Na13  1  0.66378421  0.69765066  0.08243669  1
  Na  Na14  1  0.97019577  0.67296337  0.91581244  1
  Na  Na15  1  0.33003838  0.29784485  0.91624664  1
  Na  Na16  1  0.97019577  0.29723339  0.41581244  1
  Na  Na17  1  0.33003838  0.03219453  0.41624664  1
  Zr  Zr0  1  0.99355403  0.99530956  0.35271214  1
  Zr  Zr1  1  0.99355403  0.99824447  0.85271214  1
  Zr  Zr2  1  0.66773438  0.34008617  0.68609020  1
  Zr  Zr3  1  0.66773438  0.32764721  0.18609020  1
  Zr  Zr4  1  0.32903538  0.66105862  0.01955114  1
  Zr  Zr5  1  0.32903538  0.66797775  0.51955114  1
  Nb  Nb0  1  0.99908287  0.99580267  0.64670744  1
  Nb  Nb1  1  0.99908287  0.00328020  0.14670744  1
  Nb  Nb2  1  0.66771560  0.32817745  0.97992664  1
  Nb  Nb3  1  0.66771560  0.33953715  0.47992664  1
  Nb  Nb4  1  0.33854672  0.67082946  0.31336081  1
  Nb  Nb5  1  0.33854672  0.66771825  0.81336081  1
  Si  Si0  1  0.29057902  0.99783164  0.25066809  1
  Si  Si1  1  0.70584167  0.71040286  0.24879038  1
  Si  Si2  1  0.00148256  0.29354872  0.25161511  1
  Si  Si3  1  0.29057902  0.29274738  0.75066809  1
  Si  Si4  1  0.00148256  0.70793384  0.75161511  1
  Si  Si5  1  0.70584167  0.99543881  0.74879038  1
  Si  Si6  1  0.95808913  0.33199596  0.58403116  1
  Si  Si7  1  0.37395351  0.04291695  0.58410785  1
  Si  Si8  1  0.67121074  0.62820732  0.58302172  1
  Si  Si9  1  0.95808913  0.62609217  0.08403116  1
  Si  Si10  1  0.67121074  0.04300242  0.08302172  1
  Si  Si11  1  0.37395351  0.33103556  0.08410785  1
  Si  Si12  1  0.62534942  0.66578290  0.91873371  1
  Si  Si13  1  0.03946310  0.37536535  0.91540387  1
  Si  Si14  1  0.33804201  0.96022970  0.91689336  1
  Si  Si15  1  0.62534942  0.95956753  0.41873371  1
  Si  Si16  1  0.33804201  0.37781330  0.41689336  1
  Si  Si17  1  0.03946310  0.66409875  0.41540387  1
  O  O0  1  0.20596205  0.02860407  0.30836336  1
  O  O1  1  0.82993204  0.79762495  0.30400815  1
  O  O2  1  0.97802871  0.18552054  0.31020429  1
  O  O3  1  0.20596205  0.17735798  0.80836336  1
  O  O4  1  0.97802871  0.79250817  0.81020429  1
  O  O5  1  0.82993204  0.03230709  0.80400815  1
  O  O6  1  0.80046176  0.97179544  0.69011153  1
  O  O7  1  0.16549150  0.19822363  0.69255774  1
  O  O8  1  0.02851427  0.83760895  0.69531423  1
  O  O9  1  0.80046176  0.82866632  0.19011153  1
  O  O10  1  0.02851427  0.19090532  0.19531423  1
  O  O11  1  0.16549150  0.96726787  0.19255774  1
  O  O12  1  0.87151990  0.35498080  0.64231795  1
  O  O13  1  0.48900659  0.12743661  0.64190575  1
  O  O14  1  0.63364091  0.50513887  0.63834634  1
  O  O15  1  0.87151990  0.51653810  0.14231795  1
  O  O16  1  0.63364091  0.12850105  0.13834634  1
  O  O17  1  0.48900659  0.36156898  0.14190575  1
  O  O18  1  0.46933520  0.30181323  0.02613585  1
  O  O19  1  0.83336425  0.53042048  0.02607873  1
  O  O20  1  0.69472133  0.16656543  0.02570110  1
  O  O21  1  0.46933520  0.16752097  0.52613585  1
  O  O22  1  0.69472133  0.52815491  0.52570110  1
  O  O23  1  0.83336425  0.30294276  0.52607873  1
  O  O24  1  0.54114890  0.69062494  0.97707406  1
  O  O25  1  0.16137513  0.46564227  0.97109988  1
  O  O26  1  0.30471689  0.84432087  0.97443178  1
  O  O27  1  0.54114890  0.85052497  0.47707406  1
  O  O28  1  0.30471689  0.46039702  0.47443178  1
  O  O29  1  0.16137513  0.69573385  0.47109988  1
  O  O30  1  0.13173218  0.63324324  0.35712592  1
  O  O31  1  0.49547439  0.85797747  0.36207974  1
  O  O32  1  0.36002069  0.49747388  0.35862354  1
  O  O33  1  0.13173218  0.49848994  0.85712592  1
  O  O34  1  0.36002069  0.86254780  0.85862354  1
  O  O35  1  0.49547439  0.63749792  0.86207974  1
  O  O36  1  0.02732241  0.83393628  0.41085500  1
  O  O37  1  0.81602857  0.99378182  0.41242330  1
  O  O38  1  0.17299471  0.18966763  0.41123893  1
  O  O39  1  0.02732241  0.19338613  0.91085500  1
  O  O40  1  0.17299471  0.98332708  0.91123893  1
  O  O41  1  0.81602857  0.82224675  0.91242330  1
  O  O42  1  0.96895211  0.15613064  0.58852197  1
  O  O43  1  0.19073917  0.03645162  0.58981711  1
  O  O44  1  0.83922974  0.81604604  0.58903714  1
  O  O45  1  0.96895211  0.81282147  0.08852197  1
  O  O46  1  0.83922974  0.02318370  0.08903714  1
  O  O47  1  0.19073917  0.15428754  0.08981711  1
  O  O48  1  0.68219053  0.15983422  0.74418269  1
  O  O49  1  0.47245758  0.30455783  0.74456636  1
  O  O50  1  0.84489164  0.51703591  0.74577345  1
  O  O51  1  0.68219053  0.52235531  0.24418269  1
  O  O52  1  0.84489164  0.32785473  0.24577345  1
  O  O53  1  0.47245758  0.16789875  0.24456636  1
  O  O54  1  0.63407353  0.48951745  0.92224949  1
  O  O55  1  0.85728823  0.37007421  0.92251432  1
  O  O56  1  0.50557329  0.15062960  0.92234409  1
  O  O57  1  0.63407353  0.14455508  0.42224949  1
  O  O58  1  0.50557329  0.35494269  0.42234409  1
  O  O59  1  0.85728823  0.48721302  0.42251432  1
  O  O60  1  0.36071563  0.50035601  0.07839054  1
  O  O61  1  0.14988276  0.66118019  0.07891701  1
  O  O62  1  0.50616909  0.85650231  0.07728032  1
  O  O63  1  0.36071563  0.86036063  0.57839054  1
  O  O64  1  0.50616909  0.64966779  0.57728032  1
  O  O65  1  0.14988276  0.48870357  0.57891701  1
  O  O66  1  0.29737574  0.82129310  0.25642248  1
  O  O67  1  0.51686479  0.68949592  0.25601123  1
  O  O68  1  0.17776932  0.47864247  0.25475452  1
  O  O69  1  0.29737574  0.47608363  0.75642248  1
  O  O70  1  0.17776932  0.69912785  0.75475452  1
  O  O71  1  0.51686479  0.82736987  0.75601123  1
loop_
_geom_bond_atom_site_label_1
_geom_bond_atom_site_label_2
_geom_bond_distance
_geom_bond_site_symmetry_2
Na0 O36 2.538546 1_655
Na0 O44 2.546054 1_555
Na0 O37 2.580094 1_555
Na0 O43 2.649640 1_665
Na0 O42 2.675793 1_565
Na0 O38 2.681781 1_665
Na1 O39 2.538546 1_655
Na1 O46 2.546054 1_556
Na1 O41 2.580094 1_545
Na1 O47 2.649640 1_656
Na1 O45 2.675794 1_546
Na1 O40 2.681781 1_645
Na2 O50 2.575495 1_555
Na2 O49 2.594553 1_555
Na2 O54 2.612452 1_555
Na2 O56 2.615545 1_555
Na2 O48 2.617039 1_555
Na2 O55 2.627072 1_555
Na3 O52 2.575495 1_555
Na3 O53 2.594553 1_555
Na3 O57 2.612452 1_555
Na3 O58 2.615545 1_555
Na3 O51 2.617039 1_555
Na3 O59 2.627072 1_555
Na4 O61 2.569450 1_555
Na4 O68 2.592482 1_555
Na4 O60 2.593319 1_555
Na4 O67 2.622828 1_555
Na4 O62 2.626024 1_555
Na4 O66 2.637698 1_555
Na5 O65 2.569450 1_555
Na5 O70 2.592482 1_555
Na5 O63 2.593319 1_555
Na5 O71 2.622828 1_555
Na5 O64 2.626024 1_555
Na5 O69 2.637698 1_555
Na6 O53 2.438268 1_555
Na6 O68 2.450591 1_555
Na6 O51 2.498818 1_555
Na6 O67 2.589052 1_555
Na6 O17 2.710729 1_555
Na6 O32 2.791248 1_555
Na6 O10 2.975528 1_555
Na6 O0 2.997695 1_555
Na7 O52 2.419177 1_555
Na7 O66 2.442258 1_655
Na7 O51 2.522159 1_555
Na7 O15 2.675951 1_555
Na7 O68 2.684847 1_655
Na7 O30 2.768551 1_655
Na7 O1 2.914432 1_555
Na7 O11 2.970166 1_655
Na8 O50 2.419169 1_555
Na8 O69 2.442257 1_655
Na8 O48 2.522161 1_555
Na8 O12 2.675950 1_555
Na8 O70 2.684854 1_655
Na8 O33 2.768553 1_655
Na8 O5 2.914432 1_555
Na8 O7 2.970166 1_655
Na9 O49 2.438260 1_555
Na9 O70 2.450584 1_545
Na9 O48 2.498818 1_555
Na9 O71 2.589044 1_545
Na9 O13 2.710727 1_555
Na9 O34 2.791244 1_545
Na9 O8 2.975528 1_545
Na9 O3 2.997695 1_555
Na10 O65 2.412139 1_555
Na10 O43 2.439433 1_555
Na10 O64 2.515774 1_555
Na10 O42 2.664205 1_455
Na10 O28 2.715825 1_555
Na10 O7 2.818246 1_555
Na10 O14 2.919796 1_555
Na10 O21 2.986257 1_555
Na11 O63 2.449215 1_555
Na11 O42 2.455847 1_565
Na11 O64 2.521680 1_555
Na11 O44 2.597986 1_555
Na11 O27 2.645769 1_555
Na11 O6 2.751358 1_555
Na12 O61 2.412123 1_555
Na12 O47 2.439441 1_565
Na12 O62 2.515760 1_555
Na12 O45 2.664205 1_455
Na12 O26 2.715817 1_554
Na12 O11 2.818249 1_555
Na12 O16 2.919796 1_565
Na12 O18 2.986257 1_565
Na13 O60 2.449212 1_555
Na13 O45 2.455846 1_555
Na13 O62 2.521696 1_555
Na13 O46 2.597994 1_565
Na13 O24 2.645772 1_554
Na13 O9 2.751360 1_555
Na14 O41 2.416690 1_555
Na14 O55 2.441939 1_555
Na14 O40 2.510959 1_655
Na14 O4 2.639900 1_555
Na14 O54 2.682236 1_555
Na14 O19 2.832032 1_556
Na14 O26 2.978136 1_655
Na14 O33 2.994212 1_655
Na15 O39 2.449573 1_555
Na15 O54 2.449816 1_555
Na15 O40 2.506037 1_545
Na15 O56 2.575908 1_555
Na15 O3 2.709818 1_555
Na15 O18 2.810686 1_556
Na15 O25 2.958541 1_555
Na15 O35 2.975252 1_555
Na16 O37 2.416698 1_545
Na16 O59 2.441922 1_555
Na16 O38 2.510966 1_655
Na16 O2 2.639904 1_555
Na16 O57 2.682235 1_555
Na16 O23 2.832028 1_555
Na16 O28 2.978136 1_655
Na16 O30 2.994212 1_655
Na17 O36 2.449575 1_545
Na17 O57 2.449819 1_555
Na17 O38 2.506029 1_555
Na17 O58 2.575893 1_555
Na17 O0 2.709816 1_555
Na17 O21 2.810682 1_555
Na17 O29 2.958541 1_545
Na17 O31 2.975252 1_545
Nb0 O8 1.953573 1_655
Nb0 O6 1.991899 1_555
Nb0 O7 2.012113 1_665
Nb0 O44 2.047786 1_555
Nb0 O43 2.069504 1_665
Nb0 O42 2.104075 1_565
Nb1 O10 1.953573 1_655
Nb1 O9 1.991899 1_545
Nb1 O11 2.012113 1_645
Nb1 O46 2.047787 1_555
Nb1 O47 2.069504 1_655
Nb1 O45 2.104075 1_545
Nb2 O20 1.932078 1_556
Nb2 O19 2.012763 1_556
Nb2 O18 2.015559 1_556
Nb2 O56 2.044282 1_555
Nb2 O55 2.059819 1_555
Nb2 O54 2.119684 1_555
Nb3 O22 1.932078 1_555
Nb3 O23 2.012763 1_555
Nb3 O21 2.015559 1_555
Nb3 O58 2.044282 1_555
Nb3 O59 2.059819 1_555
Nb3 O57 2.119684 1_555
Nb4 O31 1.947722 1_555
Nb4 O32 1.991049 1_555
Nb4 O30 2.020297 1_555
Nb4 O67 2.039634 1_555
Nb4 O66 2.067430 1_555
Nb4 O68 2.117316 1_555
Nb5 O35 1.947722 1_555
Nb5 O34 1.991049 1_555
Nb5 O33 2.020296 1_555
Nb5 O71 2.039634 1_555
Nb5 O69 2.067430 1_555
Nb5 O70 2.117316 1_555
O0 Si0 1.627655 1_545
O0 Zr0 2.083334 1_445
O1 Si1 1.618263 1_555
O1 Zr0 2.016161 1_555
O2 Si2 1.617182 1_655
O2 Zr0 2.066939 1_545
O3 Si3 1.627655 1_555
O3 Zr1 2.083334 1_445
O4 Si4 1.617182 1_655
O4 Zr1 2.066939 1_555
O5 Si5 1.618263 1_545
O5 Zr1 2.016161 1_545
O6 Si5 1.672478 1_555
O7 Si3 1.684808 1_555
O8 Si4 1.686952 1_555
O9 Si1 1.672478 1_555
O10 Si2 1.686953 1_555
O11 Si0 1.684808 1_555
O12 Si6 1.620557 1_555
O12 Zr2 2.067994 1_555
O13 Si7 1.625628 1_555
O13 Zr2 2.079055 1_555
O14 Si8 1.615868 1_555
O14 Zr2 2.016748 1_555
O15 Si9 1.620557 1_555
O15 Zr3 2.067994 1_555
O16 Si10 1.615868 1_555
O16 Zr3 2.016748 1_555
O17 Si11 1.625628 1_555
O17 Zr3 2.079055 1_555
O18 Si11 1.684536 1_555
O19 Si9 1.682444 1_555
O20 Si10 1.676667 1_555
O21 Si7 1.684536 1_555
O22 Si8 1.676667 1_555
O23 Si6 1.682444 1_555
O24 Si12 1.615968 1_555
O24 Zr4 2.071783 1_556
O25 Si13 1.622261 1_555
O25 Zr4 2.013510 1_556
O26 Si14 1.623560 1_555
O26 Zr4 2.080624 1_556
O27 Si15 1.615968 1_555
O27 Zr5 2.071783 1_555
O28 Si16 1.623560 1_555
O28 Zr5 2.080624 1_555
O29 Si17 1.622261 1_555
O29 Zr5 2.013510 1_555
O30 Si17 1.679344 1_555
O31 Si15 1.689806 1_555
O32 Si16 1.675027 1_555
O33 Si13 1.679344 1_555
O34 Si14 1.675027 1_555
O35 Si12 1.689806 1_555
O36 Si17 1.623288 1_555
O36 Zr0 2.127136 1_455
O37 Si15 1.624437 1_555
O37 Zr0 2.123745 1_555
O38 Si16 1.638027 1_555
O38 Zr0 2.179078 1_445
O39 Si13 1.623297 1_555
O39 Zr1 2.127136 1_445
O40 Si14 1.638022 1_555
O40 Zr1 2.179078 1_455
O41 Si12 1.624433 1_555
O41 Zr1 2.123745 1_555
O42 Si6 1.672006 1_555
O43 Si7 1.659850 1_555
O44 Si8 1.648090 1_555
O45 Si9 1.672015 1_555
O46 Si10 1.648085 1_555
O47 Si11 1.659845 1_555
O48 Si5 1.634229 1_545
O48 Zr2 2.179103 1_555
O49 Si3 1.625800 1_555
O49 Zr2 2.129853 1_555
O50 Si4 1.625065 1_655
O50 Zr2 2.122026 1_555
O51 Si1 1.634238 1_555
O51 Zr3 2.179103 1_555
O52 Si2 1.625060 1_655
O52 Zr3 2.122026 1_555
O53 Si0 1.625796 1_545
O53 Zr3 2.129853 1_555
O54 Si12 1.663854 1_555
O55 Si13 1.658336 1_655
O56 Si14 1.659039 1_545
O57 Si15 1.663835 1_545
O58 Si16 1.659050 1_555
O59 Si17 1.658344 1_655
O60 Si11 1.626046 1_555
O60 Zr4 2.123049 1_555
O61 Si9 1.629483 1_455
O61 Zr4 2.135970 1_555
O62 Si10 1.629241 1_565
O62 Zr4 2.165181 1_555
O63 Si7 1.626027 1_565
O63 Zr5 2.123049 1_555
O64 Si8 1.629252 1_555
O64 Zr5 2.165181 1_555
O65 Si6 1.629490 1_455
O65 Zr5 2.135970 1_555
O66 Si0 1.660218 1_555
O67 Si1 1.657177 1_555
O68 Si2 1.663191 1_555
O69 Si3 1.660227 1_555
O70 Si4 1.663186 1_555
O71 Si5 1.657173 1_555
