# generated using pymatgen
data_Li3Cu2P5O16
_symmetry_space_group_name_H-M   'P 1'
_cell_length_a   7.01837200
_cell_length_b   5.10343300
_cell_length_c   17.52236888
_cell_angle_alpha   88.89038045
_cell_angle_beta   90.00000000
_cell_angle_gamma   90.00000000
_symmetry_Int_Tables_number   1
_chemical_formula_structural   Li3Cu2P5O16
_chemical_formula_sum   'Li6 Cu4 P10 O32'
_cell_volume   627.49485815
_cell_formula_units_Z   2
loop_
 _symmetry_equiv_pos_site_id
 _symmetry_equiv_pos_as_xyz
  1  'x, y, z'
loop_
 _atom_site_type_symbol
 _atom_site_label
 _atom_site_symmetry_multiplicity
 _atom_site_fract_x
 _atom_site_fract_y
 _atom_site_fract_z
 _atom_site_occupancy
  Li  Li0  1  0.32761000  0.26816400  0.96267600  1
  Li  Li1  1  0.67239000  0.73183600  0.03732400  1
  Li  Li2  1  0.02436900  0.50000000  0.25000000  1
  Li  Li3  1  0.67239000  0.26816400  0.46267600  1
  Li  Li4  1  0.32761000  0.73183600  0.53732400  1
  Li  Li5  1  0.97563100  0.50000000  0.75000000  1
  Cu  Cu0  1  0.16957300  0.74259100  0.08798300  1
  Cu  Cu1  1  0.16957300  0.25740900  0.41201700  1
  Cu  Cu2  1  0.83042700  0.74259100  0.58798300  1
  Cu  Cu3  1  0.83042700  0.25740900  0.91201700  1
  P  P0  1  0.87384400  0.78130900  0.41048400  1
  P  P1  1  0.46671800  0.72384000  0.37627000  1
  P  P2  1  0.24708600  0.00000000  0.25000000  1
  P  P3  1  0.46671800  0.27616000  0.12373000  1
  P  P4  1  0.12615600  0.78130900  0.91048400  1
  P  P5  1  0.53328200  0.72384000  0.87627000  1
  P  P6  1  0.75291400  0.00000000  0.75000000  1
  P  P7  1  0.87384400  0.21869100  0.08951600  1
  P  P8  1  0.12615600  0.21869100  0.58951600  1
  P  P9  1  0.53328200  0.27616000  0.62373000  1
  O  O0  1  0.80579700  0.62665700  0.48257500  1
  O  O1  1  0.91193500  0.92907900  0.07245900  1
  O  O2  1  0.38755900  0.10311200  0.06317400  1
  O  O3  1  0.80579700  0.37334300  0.01742500  1
  O  O4  1  0.19420300  0.62665700  0.98257500  1
  O  O5  1  0.61244100  0.89688800  0.93682600  1
  O  O6  1  0.08806500  0.07092100  0.92754100  1
  O  O7  1  0.55473800  0.42972700  0.88969100  1
  O  O8  1  0.98122000  0.63872600  0.86289700  1
  O  O9  1  0.31666000  0.78867500  0.85550300  1
  O  O10  1  0.86577900  0.17108700  0.80290500  1
  O  O11  1  0.61537800  0.80062100  0.79316000  1
  O  O12  1  0.61537800  0.19937900  0.70684000  1
  O  O13  1  0.86577900  0.82891300  0.69709500  1
  O  O14  1  0.31666000  0.21132500  0.64449700  1
  O  O15  1  0.98122000  0.36127400  0.63710300  1
  O  O16  1  0.55473800  0.57027300  0.61030900  1
  O  O17  1  0.01878000  0.36127400  0.13710300  1
  O  O18  1  0.61244100  0.10311200  0.56317400  1
  O  O19  1  0.19420300  0.37334300  0.51742500  1
  O  O20  1  0.08806500  0.92907900  0.57245900  1
  O  O21  1  0.38755900  0.89688800  0.43682600  1
  O  O22  1  0.91193500  0.07092100  0.42754100  1
  O  O23  1  0.44526200  0.42972700  0.38969100  1
  O  O24  1  0.01878000  0.63872600  0.36289700  1
  O  O25  1  0.68334000  0.78867500  0.35550300  1
  O  O26  1  0.13422100  0.17108700  0.30290500  1
  O  O27  1  0.38462200  0.80062100  0.29316000  1
  O  O28  1  0.38462200  0.19937900  0.20684000  1
  O  O29  1  0.13422100  0.82891300  0.19709500  1
  O  O30  1  0.68334000  0.21132500  0.14449700  1
  O  O31  1  0.44526200  0.57027300  0.11030900  1
loop_
_geom_bond_atom_site_label_1
_geom_bond_atom_site_label_2
_geom_bond_distance
_geom_bond_site_symmetry_2
Li0 O2 1.982445 1_556
Li0 O6 2.059803 1_555
Li0 O4 2.090497 1_555
Li0 O7 2.194440 1_555
Li1 O5 1.982445 1_554
Li1 O1 2.059803 1_555
Li1 O3 2.090497 1_555
Li1 O31 2.194440 1_555
Li2 O26 2.052112 1_555
Li2 O29 2.052112 1_555
Li2 O24 2.114328 1_555
Li2 O17 2.114328 1_555
Li3 O18 1.982445 1_555
Li3 O22 2.059803 1_555
Li3 O0 2.090497 1_555
Li3 O23 2.194440 1_555
Li4 O21 1.982445 1_555
Li4 O20 2.059803 1_555
Li4 O19 2.090497 1_555
Li4 O16 2.194440 1_555
Li5 O13 2.052112 1_555
Li5 O10 2.052112 1_555
Li5 O8 2.114328 1_555
Li5 O15 2.114328 1_555
Cu0 O4 1.957976 1_554
Cu0 O29 1.985855 1_555
Cu0 O1 2.058966 1_455
Cu0 O31 2.157980 1_555
Cu0 O17 2.362835 1_555
Cu0 O2 2.425660 1_565
Cu1 O19 1.957976 1_555
Cu1 O26 1.985855 1_555
Cu1 O22 2.058966 1_455
Cu1 O23 2.157980 1_555
Cu1 O24 2.362835 1_555
Cu1 O21 2.425660 1_545
Cu2 O0 1.957976 1_555
Cu2 O13 1.985855 1_555
Cu2 O20 2.058966 1_655
Cu2 O16 2.157980 1_555
Cu2 O15 2.362835 1_555
Cu2 O18 2.425660 1_565
Cu3 O3 1.957976 1_556
Cu3 O10 1.985855 1_555
Cu3 O6 2.058966 1_655
Cu3 O7 2.157980 1_555
Cu3 O8 2.362835 1_555
Cu3 O5 2.425660 1_545
O0 P0 1.551799 1_555
O1 P7 1.537022 1_565
O2 P3 1.500261 1_555
O3 P7 1.551799 1_555
O4 P4 1.551799 1_555
O5 P5 1.500261 1_555
O6 P4 1.537022 1_545
O7 P5 1.522257 1_555
O8 P4 1.510961 1_655
O9 P5 1.596448 1_555
O9 P4 1.647965 1_555
O10 P6 1.510146 1_555
O11 P6 1.584058 1_565
O11 P5 1.607541 1_555
O12 P6 1.584058 1_555
O12 P9 1.607541 1_555
O13 P6 1.510146 1_565
O14 P9 1.596448 1_555
O14 P8 1.647965 1_555
O15 P8 1.510961 1_655
O16 P9 1.522257 1_555
O17 P7 1.510961 1_455
O18 P9 1.500261 1_555
O19 P8 1.551799 1_555
O20 P8 1.537022 1_565
O21 P1 1.500261 1_555
O22 P0 1.537022 1_545
O23 P1 1.522257 1_555
O24 P0 1.510961 1_455
O25 P1 1.596448 1_555
O25 P0 1.647965 1_555
O26 P2 1.510146 1_555
O27 P2 1.584058 1_565
O27 P1 1.607541 1_555
O28 P2 1.584058 1_555
O28 P3 1.607541 1_555
O29 P2 1.510146 1_565
O30 P3 1.596448 1_555
O30 P7 1.647965 1_555
O31 P3 1.522257 1_555
