# generated using pymatgen
data_MgScMo3O8
_symmetry_space_group_name_H-M   'P 1'
_cell_length_a   6.03360874
_cell_length_b   6.02731915
_cell_length_c   5.04501626
_cell_angle_alpha   88.78343970
_cell_angle_beta   91.22515384
_cell_angle_gamma   118.02277309
_symmetry_Int_Tables_number   1
_chemical_formula_structural   MgScMo3O8
_chemical_formula_sum   'Mg1 Sc1 Mo3 O8'
_cell_volume   161.90968355
_cell_formula_units_Z   1
loop_
 _symmetry_equiv_pos_site_id
 _symmetry_equiv_pos_as_xyz
  1  'x, y, z'
loop_
 _atom_site_type_symbol
 _atom_site_label
 _atom_site_symmetry_multiplicity
 _atom_site_fract_x
 _atom_site_fract_y
 _atom_site_fract_z
 _atom_site_occupancy
  Mg  Mg0  1  0.83340800  0.16633100  0.75300800  1
  Sc  Sc0  1  0.33285900  0.66678100  0.75316100  1
  Mo  Mo0  1  0.83329800  0.66691500  0.25298300  1
  Mo  Mo1  1  0.83388500  0.16724400  0.25304300  1
  Mo  Mo2  1  0.33357900  0.16668200  0.25286900  1
  O  O0  1  0.51091700  0.00969900  0.51041600  1
  O  O1  1  0.66406200  0.33682400  0.02201100  1
  O  O2  1  0.67701800  0.84432700  0.99522400  1
  O  O3  1  0.16614400  0.83448600  0.04594100  1
  O  O4  1  0.98999700  0.48970200  0.51146900  1
  O  O5  1  0.00313000  0.99700600  0.48384300  1
  O  O6  1  0.15640800  0.32393900  0.99534500  1
  O  O7  1  0.50071000  0.49881000  0.45979800  1
loop_
_geom_bond_atom_site_label_1
_geom_bond_atom_site_label_2
_geom_bond_distance
_geom_bond_site_symmetry_2
Mg0 O2 2.092411 1_545
Mg0 O4 2.096292 1_555
Mg0 O0 2.096752 1_555
Mg0 O6 2.098339 1_655
Mg0 O5 2.243786 1_645
Mg0 O1 2.246535 1_556
Mo0 O7 2.067912 1_555
Mo0 O3 2.069600 1_655
Mo0 O5 2.120515 1_655
Mo0 O1 2.120723 1_555
Mo0 O2 2.135312 1_554
Mo0 O4 2.138319 1_555
Mo1 O5 2.081916 1_645
Mo1 O1 2.082205 1_555
Mo1 O6 2.167521 1_654
Mo1 O4 2.167793 1_555
Mo1 O2 2.167880 1_544
Mo1 O0 2.168427 1_555
Mo2 O7 2.064218 1_555
Mo2 O3 2.064564 1_545
Mo2 O1 2.123994 1_555
Mo2 O5 2.124090 1_545
Mo2 O0 2.137299 1_555
Mo2 O6 2.137629 1_554
O0 Sc0 2.188202 1_545
O2 Sc0 2.192600 1_555
O3 Sc0 2.301665 1_554
O4 Sc0 2.185900 1_655
O6 Sc0 2.185771 1_555
O7 Sc0 2.309169 1_555
