# generated using pymatgen
data_MgTi2Al4O10
_symmetry_space_group_name_H-M   'P 1'
_cell_length_a   3.55182400
_cell_length_b   5.33568078
_cell_length_c   9.85427700
_cell_angle_alpha   90.00000000
_cell_angle_beta   90.00000000
_cell_angle_gamma   109.44399971
_symmetry_Int_Tables_number   1
_chemical_formula_structural   MgTi2Al4O10
_chemical_formula_sum   'Mg1 Ti2 Al4 O10'
_cell_volume   176.10134585
_cell_formula_units_Z   1
loop_
 _symmetry_equiv_pos_site_id
 _symmetry_equiv_pos_as_xyz
  1  'x, y, z'
loop_
 _atom_site_type_symbol
 _atom_site_label
 _atom_site_symmetry_multiplicity
 _atom_site_fract_x
 _atom_site_fract_y
 _atom_site_fract_z
 _atom_site_occupancy
  Mg  Mg0  1  0.48425400  0.96666200  0.75000000  1
  Ti  Ti0  1  0.20155000  0.40382200  0.75000000  1
  Ti  Ti1  1  0.80084800  0.60282900  0.25000000  1
  Al  Al0  1  0.11748200  0.23606800  0.43221400  1
  Al  Al1  1  0.85874400  0.71770900  0.54484000  1
  Al  Al2  1  0.11748200  0.23606800  0.06778600  1
  Al  Al3  1  0.85874400  0.71770900  0.95516000  1
  O  O0  1  0.34314300  0.68654900  0.58953200  1
  O  O1  1  0.69065600  0.38226900  0.44698400  1
  O  O2  1  0.69065600  0.38226900  0.05301600  1
  O  O3  1  0.34314300  0.68654900  0.91046800  1
  O  O4  1  0.04621700  0.09316600  0.61813900  1
  O  O5  1  0.94707500  0.89447000  0.38367000  1
  O  O6  1  0.77403700  0.54851600  0.75000000  1
  O  O7  1  0.19696100  0.39520600  0.25000000  1
  O  O8  1  0.04621700  0.09316600  0.88186100  1
  O  O9  1  0.94707500  0.89447000  0.11633000  1
loop_
_geom_bond_atom_site_label_1
_geom_bond_atom_site_label_2
_geom_bond_distance
_geom_bond_site_symmetry_2
Mg0 O0 2.118204 1_555
Mg0 O3 2.118204 1_555
Mg0 O4 2.287149 1_665
Mg0 O8 2.287149 1_665
Mg0 O8 2.294299 1_565
Mg0 O4 2.294299 1_565
Al0 O5 1.784037 1_445
Al0 O1 1.927524 1_455
Al0 O1 1.927936 1_555
Al0 O7 1.966018 1_555
Al0 O4 1.968184 1_555
Al1 O5 1.820266 1_555
Al1 O0 1.836346 1_655
Al1 O0 1.836474 1_555
Al1 O1 1.943782 1_555
Al1 O4 2.022447 1_665
Al1 O6 2.193616 1_555
Al2 O9 1.784037 1_445
Al2 O2 1.927524 1_455
Al2 O2 1.927936 1_555
Al2 O7 1.966018 1_555
Al2 O8 1.968184 1_554
Al3 O9 1.820266 1_556
Al3 O3 1.836346 1_655
Al3 O3 1.836474 1_555
Al3 O2 1.943782 1_556
Al3 O8 2.022447 1_665
Al3 O6 2.193616 1_555
O0 Ti0 2.126974 1_555
O1 Ti1 2.235952 1_555
O2 Ti1 2.235952 1_555
O3 Ti0 2.126974 1_555
O4 Ti0 2.032604 1_555
O5 Ti1 1.971853 1_555
O6 Ti0 1.918913 1_655
O6 Ti0 1.919764 1_555
O7 Ti1 2.060182 1_455
O7 Ti1 2.060552 1_555
O8 Ti0 2.032604 1_555
O9 Ti1 1.971853 1_555
