# generated using pymatgen
data_VPO5
_symmetry_space_group_name_H-M   'P 1'
_cell_length_a   7.36778731
_cell_length_b   7.36778731
_cell_length_c   10.30869291
_cell_angle_alpha   67.43266652
_cell_angle_beta   67.43266652
_cell_angle_gamma   41.21288669
_symmetry_Int_Tables_number   1
_chemical_formula_structural   VPO5
_chemical_formula_sum   'V4 P4 O20'
_cell_volume   336.28339864
_cell_formula_units_Z   4
loop_
 _symmetry_equiv_pos_site_id
 _symmetry_equiv_pos_as_xyz
  1  'x, y, z'
loop_
 _atom_site_type_symbol
 _atom_site_label
 _atom_site_symmetry_multiplicity
 _atom_site_fract_x
 _atom_site_fract_y
 _atom_site_fract_z
 _atom_site_occupancy
  V  V0  1  0.96684200  0.03315800  0.25000000  1
  V  V1  1  0.00000000  0.50000000  0.00000000  1
  V  V2  1  0.50000000  0.00000000  0.50000000  1
  V  V3  1  0.03315800  0.96684200  0.75000000  1
  P  P0  1  0.39891500  0.35160500  0.69277200  1
  P  P1  1  0.60108500  0.64839500  0.30722800  1
  P  P2  1  0.64839500  0.60108500  0.80722800  1
  P  P3  1  0.35160500  0.39891500  0.19277200  1
  O  O0  1  0.71370700  0.16932900  0.67593600  1
  O  O1  1  0.75908000  0.33987500  0.34636400  1
  O  O2  1  0.94528000  0.80102600  0.90309500  1
  O  O3  1  0.71935000  0.64112900  0.90885400  1
  O  O4  1  0.71440500  0.70463500  0.15166000  1
  O  O5  1  0.70463500  0.71440500  0.65166000  1
  O  O6  1  0.64112900  0.71935000  0.40885400  1
  O  O7  1  0.80102600  0.94528000  0.40309500  1
  O  O8  1  0.24092000  0.66012500  0.65363600  1
  O  O9  1  0.83067100  0.28629300  0.82406400  1
  O  O10  1  0.28629300  0.83067100  0.32406400  1
  O  O11  1  0.66012500  0.24092000  0.15363600  1
  O  O12  1  0.19897400  0.05472000  0.59690500  1
  O  O13  1  0.35887100  0.28065000  0.59114600  1
  O  O14  1  0.16932900  0.71370700  0.17593600  1
  O  O15  1  0.28559500  0.29536500  0.84834000  1
  O  O16  1  0.28065000  0.35887100  0.09114600  1
  O  O17  1  0.05472000  0.19897400  0.09690500  1
  O  O18  1  0.33987500  0.75908000  0.84636400  1
  O  O19  1  0.29536500  0.28559500  0.34834000  1
loop_
_geom_bond_atom_site_label_1
_geom_bond_atom_site_label_2
_geom_bond_distance
_geom_bond_site_symmetry_2
O0 P0 1.548092 1_555
O0 V3 1.889537 1_645
O1 P1 1.536341 1_555
O1 V0 1.946329 1_555
O2 V3 1.824394 1_655
O2 V1 1.828327 1_656
O3 P2 1.532168 1_555
O3 V1 1.935505 1_656
O4 P1 1.556731 1_555
O4 V1 1.912112 1_655
O5 P2 1.556731 1_555
O5 V2 1.912112 1_565
O6 P1 1.532168 1_555
O6 V2 1.935505 1_565
O7 V0 1.824394 1_565
O7 V2 1.828327 1_565
O8 P0 1.536341 1_555
O8 V3 1.946329 1_555
O9 P2 1.548092 1_555
O9 V3 1.889537 1_645
O10 P1 1.548092 1_555
O10 V0 1.889537 1_465
O11 P3 1.536341 1_555
O11 V0 1.946329 1_555
O12 V3 1.824394 1_545
O12 V2 1.828327 1_555
O13 P0 1.532168 1_555
O13 V2 1.935505 1_555
O14 P3 1.548092 1_555
O14 V0 1.889537 1_465
O15 P0 1.556731 1_555
O15 V1 1.912112 1_556
O16 P3 1.532168 1_555
O16 V1 1.935505 1_555
O17 V0 1.824394 1_455
O17 V1 1.828327 1_555
O18 P2 1.536341 1_555
O18 V3 1.946329 1_555
O19 P3 1.556731 1_555
O19 V2 1.912112 1_555
