# generated using pymatgen
data_Tb5Mg(MoO6)2
_symmetry_space_group_name_H-M   'P 1'
_cell_length_a   6.06707300
_cell_length_b   6.99405122
_cell_length_c   7.28725883
_cell_angle_alpha   104.77713907
_cell_angle_beta   90.00000000
_cell_angle_gamma   115.70456534
_symmetry_Int_Tables_number   1
_chemical_formula_structural   Tb5Mg(MoO6)2
_chemical_formula_sum   'Tb5 Mg1 Mo2 O12'
_cell_volume   267.22725801
_cell_formula_units_Z   1
loop_
 _symmetry_equiv_pos_site_id
 _symmetry_equiv_pos_as_xyz
  1  'x, y, z'
loop_
 _atom_site_type_symbol
 _atom_site_label
 _atom_site_symmetry_multiplicity
 _atom_site_fract_x
 _atom_site_fract_y
 _atom_site_fract_z
 _atom_site_occupancy
  Tb  Tb0  1  0.28838700  0.57677400  0.64199700  1
  Tb  Tb1  1  0.71161300  0.42322600  0.35800300  1
  Tb  Tb2  1  0.29675400  0.59350800  0.14281100  1
  Tb  Tb3  1  0.70324600  0.40649200  0.85718900  1
  Tb  Tb4  1  0.00000000  0.00000000  0.50000000  1
  Mg  Mg0  1  0.50000000  0.00000000  0.50000000  1
  Mo  Mo0  1  0.74536600  0.00000000  0.00000000  1
  Mo  Mo1  1  0.25463400  0.00000000  0.00000000  1
  O  O0  1  0.90146800  0.34931200  0.10220100  1
  O  O1  1  0.44784500  0.34931200  0.10220100  1
  O  O2  1  0.09853200  0.65068800  0.89779900  1
  O  O3  1  0.55215500  0.65068800  0.89779900  1
  O  O4  1  0.12803700  0.72230500  0.43965200  1
  O  O5  1  0.59426700  0.72230500  0.43965200  1
  O  O6  1  0.87196300  0.27769500  0.56034800  1
  O  O7  1  0.40573300  0.27769500  0.56034800  1
  O  O8  1  0.99226800  0.98453600  0.18506900  1
  O  O9  1  0.00773200  0.01546400  0.81493100  1
  O  O10  1  0.49701000  0.99402000  0.21433900  1
  O  O11  1  0.50299000  0.00598000  0.78566100  1
loop_
_geom_bond_atom_site_label_1
_geom_bond_atom_site_label_2
_geom_bond_distance
_geom_bond_site_symmetry_2
Mg0 O11 2.071333 1_555
Mg0 O10 2.071333 1_545
Mg0 O7 2.195576 1_555
Mg0 O5 2.195576 1_545
Mg0 O6 2.195581 1_555
Mg0 O4 2.195581 1_545
Mo0 O8 2.071090 1_545
Mo0 O9 2.071090 1_654
Mo0 O0 2.117799 1_555
Mo0 O3 2.117799 1_544
Mo0 O11 2.165757 1_554
Mo0 O10 2.165757 1_545
Mo1 O9 2.071090 1_554
Mo1 O8 2.071090 1_445
Mo1 O2 2.117799 1_544
Mo1 O1 2.117799 1_555
Mo1 O10 2.165757 1_545
Mo1 O11 2.165757 1_554
O0 Tb2 2.223765 1_655
O0 Tb1 2.256956 1_555
O0 Tb3 2.361270 1_554
O1 Tb2 2.223769 1_555
O1 Tb1 2.256952 1_555
O1 Tb3 2.361266 1_554
O2 Tb3 2.223765 1_455
O2 Tb0 2.256956 1_555
O2 Tb2 2.361270 1_556
O3 Tb3 2.223769 1_555
O3 Tb0 2.256952 1_555
O3 Tb2 2.361266 1_556
O4 Tb4 2.332827 1_565
O4 Tb0 2.404441 1_555
O4 Tb1 2.427621 1_455
O4 Tb2 2.518802 1_555
O5 Tb4 2.332831 1_665
O5 Tb0 2.404438 1_555
O5 Tb1 2.427625 1_555
O5 Tb2 2.518799 1_555
O6 Tb4 2.332827 1_655
O6 Tb1 2.404441 1_555
O6 Tb0 2.427621 1_655
O6 Tb3 2.518802 1_555
O7 Tb4 2.332831 1_555
O7 Tb1 2.404438 1_555
O7 Tb0 2.427625 1_555
O7 Tb3 2.518799 1_555
O8 Tb4 2.269323 1_665
O9 Tb4 2.269323 1_555
O10 Tb2 2.428466 1_555
O10 Tb1 2.609400 1_565
O11 Tb3 2.428466 1_555
O11 Tb0 2.609400 1_545
