# generated using pymatgen
data_Na3Ta4Si5PO24
_symmetry_space_group_name_H-M   'P 1'
_cell_length_a   8.91094705
_cell_length_b   8.87113896
_cell_length_c   22.82926528
_cell_angle_alpha   89.95597543
_cell_angle_beta   90.16057704
_cell_angle_gamma   119.82434145
_symmetry_Int_Tables_number   1
_chemical_formula_structural   Na3Ta4Si5PO24
_chemical_formula_sum   'Na9 Ta12 Si15 P3 O72'
_cell_volume   1565.63311532
_cell_formula_units_Z   3
loop_
 _symmetry_equiv_pos_site_id
 _symmetry_equiv_pos_as_xyz
  1  'x, y, z'
loop_
 _atom_site_type_symbol
 _atom_site_label
 _atom_site_symmetry_multiplicity
 _atom_site_fract_x
 _atom_site_fract_y
 _atom_site_fract_z
 _atom_site_occupancy
  Na  Na0  1  0.99994390  0.63476945  0.24999736  1
  Na  Na1  1  0.99929813  0.36407048  0.75005958  1
  Na  Na2  1  0.66748132  0.96871170  0.58339826  1
  Na  Na3  1  0.00342324  0.99942571  0.49944448  1
  Na  Na4  1  0.00135210  0.00033319  0.00000903  1
  Na  Na5  1  0.66282522  0.33203429  0.83372297  1
  Na  Na6  1  0.66342181  0.32890085  0.33406844  1
  Na  Na7  1  0.33712611  0.66567479  0.16613059  1
  Na  Na8  1  0.33379709  0.66632166  0.66667356  1
  Ta  Ta0  1  0.99680316  0.99739889  0.35397977  1
  Ta  Ta1  1  0.00444570  0.00320245  0.85420143  1
  Ta  Ta2  1  0.00340712  0.99906454  0.64621382  1
  Ta  Ta3  1  0.00310101  0.00067362  0.14589281  1
  Ta  Ta4  1  0.66251334  0.33353403  0.68709726  1
  Ta  Ta5  1  0.66382881  0.33365949  0.18707591  1
  Ta  Ta6  1  0.66540260  0.33387552  0.97909588  1
  Ta  Ta7  1  0.66948494  0.33356114  0.47918792  1
  Ta  Ta8  1  0.32500937  0.66190800  0.02102461  1
  Ta  Ta9  1  0.33021779  0.66677477  0.52040730  1
  Ta  Ta10  1  0.33592779  0.66952227  0.31282926  1
  Ta  Ta11  1  0.33533016  0.67278932  0.81302440  1
  Si  Si0  1  0.29112860  0.00495992  0.25066924  1
  Si  Si1  1  0.70889842  0.71387537  0.24930096  1
  Si  Si2  1  -0.00002414  0.28635714  0.24995755  1
  Si  Si3  1  0.29162824  0.28846299  0.75024049  1
  Si  Si4  1  0.99889925  0.71261454  0.75075772  1
  Si  Si5  1  0.70970141  0.99612317  0.74996382  1
  Si  Si6  1  0.95806817  0.33718069  0.58382367  1
  Si  Si7  1  0.37575820  0.04701573  0.58253759  1
  Si  Si8  1  0.66643780  0.62055227  0.58262487  1
  Si  Si9  1  0.95414236  0.62202585  0.08325431  1
  Si  Si10  1  0.37717215  0.33353263  0.08271546  1
  Si  Si11  1  0.04304577  0.37745698  0.91630579  1
  Si  Si12  1  0.33349087  0.95673984  0.91750204  1
  Si  Si13  1  0.62306340  0.95627406  0.41708087  1
  Si  Si14  1  0.04334007  0.66649963  0.41617801  1
  P  P0  1  0.66611709  0.04473375  0.08305481  1
  P  P1  1  0.62048159  0.66799394  0.91733946  1
  P  P2  1  0.33322284  0.37846834  0.41666091  1
  O  O0  1  0.19697136  0.03140058  0.30745610  1
  O  O1  1  0.83691332  0.80023929  0.30633169  1
  O  O2  1  0.96896933  0.16533970  0.30741843  1
  O  O3  1  0.19641263  0.16542656  0.80709700  1
  O  O4  1  0.96792167  0.80301051  0.80757571  1
  O  O5  1  0.83700366  0.03502852  0.80649728  1
  O  O6  1  0.79934345  0.96899747  0.69135199  1
  O  O7  1  0.16330032  0.20011972  0.69365574  1
  O  O8  1  0.03242139  0.83390130  0.69307397  1
  O  O9  1  0.80313615  0.83451470  0.19252047  1
  O  O10  1  0.03099008  0.19632707  0.19260663  1
  O  O11  1  0.16312414  0.96330419  0.19368614  1
  O  O12  1  0.86781403  0.36489834  0.64194836  1
  O  O13  1  0.50320277  0.13276936  0.63960549  1
  O  O14  1  0.63492630  0.49923191  0.64032872  1
  O  O15  1  0.86739872  0.50182244  0.14157071  1
  O  O16  1  0.63680584  0.13057584  0.13767066  1
  O  O17  1  0.50075853  0.36251332  0.13995741  1
  O  O18  1  0.47126428  0.30256059  0.02627696  1
  O  O19  1  0.83170547  0.52701301  0.02646808  1
  O  O20  1  0.69616049  0.16148989  0.02861033  1
  O  O21  1  0.47037954  0.16786155  0.52583879  1
  O  O22  1  0.69765980  0.52966330  0.52583191  1
  O  O23  1  0.82949670  0.29778216  0.52716861  1
  O  O24  1  0.53557990  0.69615007  0.97134662  1
  O  O25  1  0.16865699  0.47057597  0.97315850  1
  O  O26  1  0.30558080  0.83278654  0.97370256  1
  O  O27  1  0.53329687  0.83501779  0.47494389  1
  O  O28  1  0.30408726  0.46441786  0.47113264  1
  O  O29  1  0.16756154  0.69548457  0.47304765  1
  O  O30  1  0.13330185  0.63511795  0.35842985  1
  O  O31  1  0.49894148  0.86111033  0.36024122  1
  O  O32  1  0.36256783  0.49366800  0.36221436  1
  O  O33  1  0.13474298  0.49758074  0.85846219  1
  O  O34  1  0.36492659  0.86423619  0.86013692  1
  O  O35  1  0.50595077  0.63622168  0.86217148  1
  O  O36  1  0.02631054  0.84020996  0.40885658  1
  O  O37  1  0.81452235  0.97720198  0.40864564  1
  O  O38  1  0.17113715  0.19741184  0.40923287  1
  O  O39  1  0.02213137  0.18487886  0.90893950  1
  O  O40  1  0.16094794  0.97383192  0.90887209  1
  O  O41  1  0.80217574  0.82807300  0.90896015  1
  O  O42  1  0.96942306  0.15959985  0.59089626  1
  O  O43  1  0.18532951  0.02410743  0.59110642  1
  O  O44  1  0.83329712  0.81549614  0.59098687  1
  O  O45  1  0.97449507  0.81390146  0.09116478  1
  O  O46  1  0.82885562  0.02657026  0.09071382  1
  O  O47  1  0.18591406  0.16337567  0.09148645  1
  O  O48  1  0.69677015  0.17301469  0.74224317  1
  O  O49  1  0.48111289  0.30834790  0.74234264  1
  O  O50  1  0.83355028  0.51724976  0.74242837  1
  O  O51  1  0.69702647  0.52347878  0.24184048  1
  O  O52  1  0.83253410  0.31417454  0.24159885  1
  O  O53  1  0.48239243  0.17044623  0.24124237  1
  O  O54  1  0.64029785  0.50374183  0.92453234  1
  O  O55  1  0.85246261  0.35771697  0.92569364  1
  O  O56  1  0.50490914  0.14783345  0.92523483  1
  O  O57  1  0.64041498  0.14717761  0.42442322  1
  O  O58  1  0.49544027  0.35963926  0.42406126  1
  O  O59  1  0.85213754  0.49608922  0.42464850  1
  O  O60  1  0.36149521  0.50778919  0.07480126  1
  O  O61  1  0.14737624  0.64402832  0.07510182  1
  O  O62  1  0.50583266  0.86400962  0.07500713  1
  O  O63  1  0.36352147  0.85653069  0.57515598  1
  O  O64  1  0.49854415  0.64724795  0.57511537  1
  O  O65  1  0.14883336  0.50427459  0.57467531  1
  O  O66  1  0.30303024  0.82650313  0.25810573  1
  O  O67  1  0.51771974  0.68813467  0.25871793  1
  O  O68  1  0.16730073  0.48145218  0.25834759  1
  O  O69  1  0.30445310  0.47729790  0.75868171  1
  O  O70  1  0.16777600  0.68528047  0.75814216  1
  O  O71  1  0.51920815  0.82668363  0.75829267  1
loop_
_geom_bond_atom_site_label_1
_geom_bond_atom_site_label_2
_geom_bond_distance
_geom_bond_site_symmetry_2
Na0 O51 2.375332 1_555
Na0 O66 2.376952 1_655
Na0 O68 2.475028 1_655
Na0 O52 2.475852 1_555
Na0 O15 2.741460 1_555
Na0 O30 2.742229 1_655
Na0 O11 2.837342 1_655
Na0 O1 2.837918 1_555
Na1 O48 2.371673 1_555
Na1 O69 2.392136 1_655
Na1 O50 2.460260 1_555
Na1 O70 2.480248 1_655
Na1 O12 2.730687 1_555
Na1 O33 2.747681 1_655
Na1 O7 2.834928 1_655
Na1 O5 2.842121 1_555
Na2 O42 2.366854 1_565
Na2 O63 2.382937 1_555
Na2 O44 2.460996 1_555
Na2 O64 2.482637 1_555
Na2 O6 2.726769 1_555
Na2 O27 2.746622 1_555
Na2 O13 2.835517 1_565
Na2 O23 2.840167 1_565
Na3 O36 2.570365 1_555
Na3 O43 2.585145 1_565
Na3 O37 2.611530 1_455
Na3 O44 2.622991 1_455
Na3 O42 2.627919 1_465
Na3 O38 2.638273 1_565
Na4 O45 2.593641 1_445
Na4 O39 2.594674 1_554
Na4 O40 2.599334 1_544
Na4 O47 2.603330 1_555
Na4 O46 2.660679 1_455
Na4 O41 2.663118 1_444
Na5 O49 2.580962 1_555
Na5 O56 2.595941 1_555
Na5 O48 2.622121 1_555
Na5 O50 2.623757 1_555
Na5 O55 2.629411 1_555
Na5 O54 2.640017 1_555
Na6 O57 2.562081 1_555
Na6 O53 2.607463 1_555
Na6 O59 2.609235 1_555
Na6 O52 2.637881 1_555
Na6 O58 2.638170 1_555
Na6 O51 2.643125 1_555
Na7 O60 2.581784 1_555
Na7 O67 2.599961 1_555
Na7 O61 2.621524 1_555
Na7 O68 2.635441 1_555
Na7 O66 2.641225 1_555
Na7 O62 2.657853 1_555
Na8 O71 2.602994 1_555
Na8 O64 2.611053 1_555
Na8 O65 2.612016 1_555
Na8 O63 2.614495 1_555
Na8 O70 2.615854 1_555
Na8 O69 2.617968 1_555
O0 Si0 1.625413 1_555
O0 Ta0 1.968642 1_445
O1 Si1 1.645376 1_555
O1 Ta0 1.946236 1_555
O2 Si2 1.629261 1_655
O2 Ta0 1.942840 1_545
O3 Si3 1.636713 1_555
O3 Ta1 1.926884 1_555
O4 Si4 1.620357 1_555
O4 Ta1 1.954201 1_665
O5 Si5 1.635445 1_545
O5 Ta1 1.975209 1_655
O6 Si5 1.638316 1_555
O6 Ta2 1.991792 1_655
O7 Si3 1.640857 1_555
O7 Ta2 1.962356 1_545
O8 Si4 1.631381 1_455
O8 Ta2 1.931552 1_555
O9 Si1 1.625068 1_555
O9 Ta3 1.968904 1_665
O10 Si2 1.628389 1_555
O10 Ta3 1.945228 1_555
O11 Si0 1.644101 1_565
O11 Ta3 1.947987 1_565
O12 Si6 1.634395 1_555
O12 Ta4 1.997599 1_555
O13 Si7 1.643061 1_555
O13 Ta4 1.960159 1_555
O14 Si8 1.634573 1_555
O14 Ta4 1.927857 1_555
O15 Si9 1.640334 1_555
O15 Ta5 1.977804 1_555
O16 P0 1.550441 1_555
O16 Ta5 2.036148 1_555
O17 Si10 1.642384 1_555
O17 Ta5 1.922219 1_555
O18 Si10 1.635340 1_555
O18 Ta6 1.939599 1_554
O19 Si9 1.631085 1_555
O19 Ta6 1.941531 1_554
O20 P0 1.553516 1_555
O20 Ta6 2.025839 1_554
O21 Si7 1.624971 1_555
O21 Ta7 1.963890 1_555
O22 Si8 1.623356 1_555
O22 Ta7 1.946849 1_555
O23 Si6 1.643692 1_555
O23 Ta7 1.942808 1_555
O24 P1 1.532508 1_555
O24 Ta8 2.084165 1_556
O25 Si11 1.641220 1_555
O25 Ta8 1.912657 1_556
O26 Si12 1.626259 1_555
O26 Ta8 1.937131 1_556
O27 Si13 1.640052 1_555
O27 Ta9 1.975140 1_555
O28 P2 1.547693 1_555
O28 Ta9 2.031749 1_555
O29 Si14 1.639000 1_555
O29 Ta9 1.921623 1_555
O30 Si14 1.639100 1_555
O30 Ta10 1.974574 1_555
O31 Si13 1.638498 1_555
O31 Ta10 1.925759 1_555
O32 P2 1.546547 1_555
O32 Ta10 2.031081 1_555
O33 Si11 1.638539 1_555
O33 Ta11 1.982733 1_555
O34 Si12 1.642952 1_555
O34 Ta11 1.914794 1_555
O35 P1 1.553846 1_555
O35 Ta11 2.038665 1_555
O36 Si14 1.630257 1_555
O36 Ta0 1.985771 1_455
O37 Si13 1.633704 1_555
O37 Ta0 1.987318 1_555
O38 P2 1.544728 1_555
O38 Ta0 2.098426 1_445
O39 Si11 1.632535 1_555
O39 Ta1 1.983245 1_555
O40 Si12 1.629700 1_555
O40 Ta1 1.980316 1_565
O41 P1 1.545618 1_555
O41 Ta1 2.109366 1_665
O42 Si6 1.635875 1_555
O42 Ta2 2.034389 1_645
O43 Si7 1.617968 1_555
O43 Ta2 1.978084 1_545
O44 Si8 1.636824 1_555
O44 Ta2 2.018992 1_655
O45 Si9 1.629743 1_555
O45 Ta3 1.988097 1_665
O46 P0 1.546105 1_555
O46 Ta3 2.096154 1_655
O47 Si10 1.632718 1_555
O47 Ta3 1.987346 1_555
O48 Si5 1.638947 1_545
O48 Ta4 2.033059 1_555
O49 Si3 1.618643 1_555
O49 Ta4 1.976167 1_555
O50 Si4 1.633920 1_555
O50 Ta4 2.023923 1_555
O51 Si1 1.647921 1_555
O51 Ta5 1.997957 1_555
O52 Si2 1.639555 1_655
O52 Ta5 2.021594 1_555
O53 Si0 1.618357 1_555
O53 Ta5 1.979760 1_555
O54 P1 1.560992 1_555
O54 Ta6 2.050199 1_555
O55 Si11 1.633067 1_655
O55 Ta6 1.992445 1_555
O56 Si12 1.631395 1_545
O56 Ta6 1.981560 1_555
O57 Si13 1.630915 1_545
O57 Ta7 1.984785 1_555
O58 P2 1.544248 1_555
O58 Ta7 2.094789 1_555
O59 Si14 1.632500 1_655
O59 Ta7 1.988103 1_555
O60 Si10 1.629741 1_555
O60 Ta8 1.979773 1_555
O61 Si9 1.644719 1_455
O61 Ta8 1.953377 1_555
O62 P0 1.537979 1_565
O62 Ta8 2.109079 1_555
O63 Si7 1.647068 1_565
O63 Ta9 1.997040 1_555
O64 Si8 1.635447 1_555
O64 Ta9 2.021714 1_555
O65 Si6 1.620386 1_455
O65 Ta9 1.978958 1_555
O66 Si0 1.647062 1_565
O66 Ta10 1.996836 1_555
O67 Si1 1.617278 1_555
O67 Ta10 1.980489 1_555
O68 Si2 1.639298 1_555
O68 Ta10 2.021750 1_555
O69 Si3 1.632904 1_555
O69 Ta11 2.036941 1_555
O70 Si4 1.647202 1_455
O70 Ta11 1.991283 1_555
O71 Si5 1.624922 1_555
O71 Ta11 1.973221 1_555
