# generated using pymatgen
data_CuSe3Br
_symmetry_space_group_name_H-M   'P 1'
_cell_length_a   4.80714032
_cell_length_b   7.58594412
_cell_length_c   14.37169294
_cell_angle_alpha   90.00000000
_cell_angle_beta   90.00000000
_cell_angle_gamma   90.00000000
_symmetry_Int_Tables_number   1
_chemical_formula_structural   CuSe3Br
_chemical_formula_sum   'Cu4 Se12 Br4'
_cell_volume   524.08818396
_cell_formula_units_Z   4
loop_
 _symmetry_equiv_pos_site_id
 _symmetry_equiv_pos_as_xyz
  1  'x, y, z'
loop_
 _atom_site_type_symbol
 _atom_site_label
 _atom_site_symmetry_multiplicity
 _atom_site_fract_x
 _atom_site_fract_y
 _atom_site_fract_z
 _atom_site_occupancy
  Cu  Cu0  1  0.79161414  0.75000000  0.75000000  1
  Cu  Cu1  1  0.20838586  0.25000000  0.75000000  1
  Cu  Cu2  1  0.20838586  0.25000000  0.25000000  1
  Cu  Cu3  1  0.79161414  0.75000000  0.25000000  1
  Se  Se0  1  0.07778596  0.65269379  0.12605865  1
  Se  Se1  1  0.92221404  0.15269379  0.62605865  1
  Se  Se2  1  0.07778596  0.84730621  0.62605865  1
  Se  Se3  1  0.81505748  0.73661068  0.50000000  1
  Se  Se4  1  0.18494252  0.23661068  0.00000000  1
  Se  Se5  1  0.81505748  0.76338932  0.00000000  1
  Se  Se6  1  0.92221404  0.15269379  0.37394135  1
  Se  Se7  1  0.18494252  0.26338932  0.50000000  1
  Se  Se8  1  0.92221404  0.34730621  0.87394135  1
  Se  Se9  1  0.07778596  0.84730621  0.37394135  1
  Se  Se10  1  0.07778596  0.65269379  0.87394135  1
  Se  Se11  1  0.92221404  0.34730621  0.12605865  1
  Br  Br0  1  0.50000000  0.00000000  0.19072565  1
  Br  Br1  1  0.50000000  0.50000000  0.30927435  1
  Br  Br2  1  0.50000000  0.00000000  0.80927435  1
  Br  Br3  1  0.50000000  0.50000000  0.69072565  1
loop_
_geom_bond_atom_site_label_1
_geom_bond_atom_site_label_2
_geom_bond_distance
_geom_bond_site_symmetry_2
Cu0 Se2 2.368583 1_655
Cu0 Se10 2.368583 1_655
Cu1 Se1 2.368583 1_455
Cu1 Se8 2.368583 1_455
Cu2 Se11 2.368583 1_455
Cu2 Se6 2.368583 1_455
Cu3 Se0 2.368583 1_655
Cu3 Se9 2.368583 1_655
Se0 Se5 2.362714 1_455
Se0 Se11 2.434373 1_455
Se1 Se7 2.362714 1_655
Se1 Se2 2.434373 1_645
Se2 Se3 2.362714 1_455
Se3 Se9 2.362714 1_655
Se4 Se8 2.362714 1_454
Se6 Se7 2.362714 1_655
Se6 Se9 2.434373 1_645
Se10 Se5 2.362714 1_456
Se10 Se8 2.434373 1_455
Se11 Se4 2.362714 1_655
Br0 Cu2 2.507484 1_555
Br0 Cu3 2.507484 1_545
Br1 Cu2 2.507484 1_555
Br1 Cu3 2.507484 1_555
Br2 Cu1 2.507484 1_555
Br2 Cu0 2.507484 1_545
Br3 Cu1 2.507484 1_555
Br3 Cu0 2.507484 1_555
