# generated using pymatgen
data_MgTi2(CoO2)4
_symmetry_space_group_name_H-M   'P 1'
_cell_length_a   6.28707048
_cell_length_b   5.96453699
_cell_length_c   5.95513856
_cell_angle_alpha   60.08917349
_cell_angle_beta   61.67288489
_cell_angle_gamma   62.51493556
_symmetry_Int_Tables_number   1
_chemical_formula_structural   MgTi2(CoO2)4
_chemical_formula_sum   'Mg1 Ti2 Co4 O8'
_cell_volume   162.81988159
_cell_formula_units_Z   1
loop_
 _symmetry_equiv_pos_site_id
 _symmetry_equiv_pos_as_xyz
  1  'x, y, z'
loop_
 _atom_site_type_symbol
 _atom_site_label
 _atom_site_symmetry_multiplicity
 _atom_site_fract_x
 _atom_site_fract_y
 _atom_site_fract_z
 _atom_site_occupancy
  Mg  Mg0  1  0.60250000  0.11976500  0.14055600  1
  Ti  Ti0  1  0.16847800  0.57951600  0.62634200  1
  Ti  Ti1  1  0.66910900  0.09219800  0.62082900  1
  Co  Co0  1  0.08578000  0.99730400  0.95781700  1
  Co  Co1  1  0.14225500  0.28409000  0.28383500  1
  Co  Co2  1  0.61826400  0.62953100  0.12375600  1
  Co  Co3  1  0.62025000  0.62847100  0.62763300  1
  O  O0  1  0.38771900  0.35152000  0.39475200  1
  O  O1  1  0.35760900  0.85241100  0.39460700  1
  O  O2  1  0.39081700  0.34960600  0.86538300  1
  O  O3  1  0.78873400  0.39934300  0.40463000  1
  O  O4  1  0.44074800  0.86720900  0.84616300  1
  O  O5  1  0.88747500  0.41275800  0.85109000  1
  O  O6  1  0.85757600  0.90491300  0.36549400  1
  O  O7  1  0.85768300  0.90636500  0.87211300  1
loop_
_geom_bond_atom_site_label_1
_geom_bond_atom_site_label_2
_geom_bond_distance
_geom_bond_site_symmetry_2
Mg0 O6 2.106684 1_545
Mg0 O0 2.109447 1_555
Mg0 O7 2.111879 1_544
Mg0 O2 2.116855 1_554
Mg0 O1 2.202703 1_545
Mg0 O5 2.488025 1_554
Co0 O4 1.879531 1_555
Co0 O7 2.073618 1_455
Co0 O6 2.084741 1_456
Co0 O5 2.104383 1_465
Co1 O3 1.869650 1_455
Co1 O2 2.168281 1_554
Co1 O0 2.187440 1_555
Co1 O1 2.198560 1_545
Co2 O3 1.970830 1_555
Co2 O4 1.985281 1_554
Co2 O5 2.153769 1_554
Co2 O1 2.161831 1_555
Co2 O0 2.187412 1_555
Co2 O7 2.218918 1_554
Co3 O3 1.972863 1_555
Co3 O4 1.991451 1_555
Co3 O5 2.160498 1_555
Co3 O1 2.174083 1_555
Co3 O2 2.186249 1_555
Co3 O6 2.208014 1_555
O0 Ti0 1.996869 1_555
O0 Ti1 2.234404 1_555
O1 Ti0 1.989163 1_555
O2 Ti0 2.008271 1_555
O2 Ti1 2.207187 1_555
O3 Ti1 1.892077 1_555
O4 Ti1 1.953702 1_565
O5 Ti0 1.988004 1_655
O6 Ti1 1.930368 1_565
O6 Ti0 2.524609 1_655
O7 Ti1 1.920936 1_565
O7 Ti0 2.525114 1_655
