# generated using pymatgen
data_Na2Sm2MgTi2O8
_symmetry_space_group_name_H-M   'P 1'
_cell_length_a   3.66528758
_cell_length_b   3.66528758
_cell_length_c   16.49089217
_cell_angle_alpha   90.00000000
_cell_angle_beta   90.00000000
_cell_angle_gamma   90.00000000
_symmetry_Int_Tables_number   1
_chemical_formula_structural   Na2Sm2MgTi2O8
_chemical_formula_sum   'Na2 Sm2 Mg1 Ti2 O8'
_cell_volume   221.54413761
_cell_formula_units_Z   1
loop_
 _symmetry_equiv_pos_site_id
 _symmetry_equiv_pos_as_xyz
  1  'x, y, z'
loop_
 _atom_site_type_symbol
 _atom_site_label
 _atom_site_symmetry_multiplicity
 _atom_site_fract_x
 _atom_site_fract_y
 _atom_site_fract_z
 _atom_site_occupancy
  Na  Na0  1  0.25000000  0.25000000  0.53061687  1
  Na  Na1  1  0.75000000  0.75000000  0.40485142  1
  Sm  Sm0  1  0.75000000  0.75000000  0.14887049  1
  Sm  Sm1  1  0.25000000  0.25000000  0.98111874  1
  Mg  Mg0  1  0.25000000  0.25000000  0.75845486  1
  Ti  Ti0  1  0.25000000  0.25000000  0.28171746  1
  Ti  Ti1  1  0.75000000  0.75000000  0.65452483  1
  O  O0  1  0.75000000  0.75000000  0.00461604  1
  O  O1  1  0.25000000  0.25000000  0.11444056  1
  O  O2  1  0.75000000  0.75000000  0.54630318  1
  O  O3  1  0.25000000  0.25000000  0.39004467  1
  O  O4  1  0.75000000  0.25000000  0.24561389  1
  O  O5  1  0.25000000  0.75000000  0.24561389  1
  O  O6  1  0.75000000  0.25000000  0.69354555  1
  O  O7  1  0.25000000  0.75000000  0.69354555  1
loop_
_geom_bond_atom_site_label_1
_geom_bond_atom_site_label_2
_geom_bond_distance
_geom_bond_site_symmetry_2
Na0 O3 2.318161 1_555
Na0 O2 2.604627 1_555
Na0 O2 2.604627 1_445
Na0 O2 2.604627 1_545
Na0 O2 2.604627 1_455
Na1 O2 2.332666 1_555
Na1 O3 2.603227 1_665
Na1 O3 2.603227 1_565
Na1 O3 2.603227 1_555
Na1 O3 2.603227 1_655
Mg0 O7 2.122349 1_555
Mg0 O6 2.122349 1_555
Mg0 O6 2.122349 1_455
Mg0 O7 2.122349 1_545
O0 Sm0 2.378885 1_555
O0 Sm1 2.620556 1_664
O0 Sm1 2.620556 1_564
O0 Sm1 2.620556 1_654
O0 Sm1 2.620556 1_554
O1 Sm1 2.198596 1_554
O1 Sm0 2.653213 1_445
O1 Sm0 2.653213 1_545
O1 Sm0 2.653213 1_455
O1 Sm0 2.653213 1_555
O2 Ti1 1.784672 1_555
O3 Ti0 1.786412 1_555
O4 Ti0 1.926930 1_555
O4 Ti0 1.926930 1_655
O4 Sm0 2.429781 1_555
O4 Sm0 2.429781 1_545
O5 Ti0 1.926930 1_565
O5 Ti0 1.926930 1_555
O5 Sm0 2.429781 1_555
O5 Sm0 2.429781 1_455
O6 Ti1 1.942333 1_555
O6 Ti1 1.942333 1_545
O7 Ti1 1.942333 1_455
O7 Ti1 1.942333 1_555
