# generated using pymatgen
data_MgV2Te2O7F2
_symmetry_space_group_name_H-M   'P 1'
_cell_length_a   4.98457299
_cell_length_b   5.36039090
_cell_length_c   7.61156668
_cell_angle_alpha   102.34226653
_cell_angle_beta   90.55018231
_cell_angle_gamma   105.01283376
_symmetry_Int_Tables_number   1
_chemical_formula_structural   MgV2Te2O7F2
_chemical_formula_sum   'Mg1 V2 Te2 O7 F2'
_cell_volume   191.43835806
_cell_formula_units_Z   1
loop_
 _symmetry_equiv_pos_site_id
 _symmetry_equiv_pos_as_xyz
  1  'x, y, z'
loop_
 _atom_site_type_symbol
 _atom_site_label
 _atom_site_symmetry_multiplicity
 _atom_site_fract_x
 _atom_site_fract_y
 _atom_site_fract_z
 _atom_site_occupancy
  Mg  Mg0  1  0.00000000  0.00000000  0.50000000  1
  V  V0  1  0.72661015  0.37688265  0.36877248  1
  V  V1  1  0.27338985  0.62311735  0.63122752  1
  Te  Te0  1  0.66121656  0.29093087  0.85202283  1
  Te  Te1  1  0.33878344  0.70906913  0.14797717  1
  O  O0  1  0.24917928  0.96801916  0.70877378  1
  O  O1  1  0.11155199  0.65013524  0.36806303  1
  O  O2  1  0.75082072  0.03198084  0.29122622  1
  O  O3  1  0.50234078  0.57939486  0.84547563  1
  O  O4  1  0.49765922  0.42060514  0.15452437  1
  O  O5  1  0.88844801  0.34986476  0.63193697  1
  O  O6  1  0.00000000  0.50000000  -0.00000000  1
  F  F0  1  0.33932289  0.27157020  0.46542206  1
  F  F1  1  0.66067711  0.72842980  0.53457794  1
loop_
_geom_bond_atom_site_label_1
_geom_bond_atom_site_label_2
_geom_bond_distance
_geom_bond_site_symmetry_2
Mg0 O2 2.070307 1_455
Mg0 O0 2.070307 1_545
Mg0 O5 2.140253 1_455
Mg0 O1 2.140253 1_545
O0 V1 1.852429 1_555
O0 Te0 2.389896 1_565
O1 Te1 2.065500 1_555
O1 V0 2.091582 1_455
O1 V1 2.199460 1_555
O2 V0 1.852429 1_555
O2 Te1 2.389896 1_545
O3 Te0 1.920208 1_555
O3 V1 2.069523 1_555
O3 Te1 2.468766 1_556
O4 Te1 1.920208 1_555
O4 V0 2.069523 1_555
O4 Te0 2.468766 1_554
O5 Te0 2.065500 1_555
O5 V1 2.091582 1_655
O5 V0 2.199460 1_555
O6 Te0 1.954395 1_454
O6 Te1 1.954395 1_555
F0 Mg0 1.986434 1_555
F0 V0 2.055913 1_555
F0 V1 2.136340 1_555
F1 Mg0 1.986434 1_665
F1 V1 2.055913 1_555
F1 V0 2.136340 1_555
