# generated using pymatgen
data_Sr4Mg(Co2O5)2
_symmetry_space_group_name_H-M   'P 1'
_cell_length_a   5.68235017
_cell_length_b   5.88056256
_cell_length_c   9.35809499
_cell_angle_alpha   112.04419337
_cell_angle_beta   112.45011318
_cell_angle_gamma   83.98470373
_symmetry_Int_Tables_number   1
_chemical_formula_structural   Sr4Mg(Co2O5)2
_chemical_formula_sum   'Sr4 Mg1 Co4 O10'
_cell_volume   267.60649996
_cell_formula_units_Z   1
loop_
 _symmetry_equiv_pos_site_id
 _symmetry_equiv_pos_as_xyz
  1  'x, y, z'
loop_
 _atom_site_type_symbol
 _atom_site_label
 _atom_site_symmetry_multiplicity
 _atom_site_fract_x
 _atom_site_fract_y
 _atom_site_fract_z
 _atom_site_occupancy
  Sr  Sr0  1  0.60173000  0.13297300  0.23739600  1
  Sr  Sr1  1  0.90441300  0.45183600  0.79372300  1
  Sr  Sr2  1  0.12274900  0.61457500  0.22415200  1
  Sr  Sr3  1  0.31739700  0.85921400  0.82208000  1
  Mg  Mg0  1  0.56820600  0.01924500  0.67271300  1
  Co  Co0  1  0.84649000  0.81519400  0.48736600  1
  Co  Co1  1  0.96899400  0.02353700  0.01913500  1
  Co  Co2  1  0.25051200  0.21576600  0.48551000  1
  Co  Co3  1  0.51570800  0.50714900  0.03144000  1
  O  O0  1  0.67144500  0.57715600  0.26856000  1
  O  O1  1  0.28915200  0.41234700  0.68908000  1
  O  O2  1  0.62722500  0.13170300  0.51302300  1
  O  O3  1  0.84269100  0.79454800  0.69475100  1
  O  O4  1  0.66121800  0.21608200  0.91857800  1
  O  O5  1  0.22674100  0.24919600  0.01514800  1
  O  O6  1  0.08719900  0.19604100  0.27653300  1
  O  O7  1  0.74479100  0.75743100  0.02205100  1
  O  O8  1  0.20551000  0.89846000  0.52458800  1
  O  O9  1  0.25933200  0.74659400  0.03274500  1
loop_
_geom_bond_atom_site_label_1
_geom_bond_atom_site_label_2
_geom_bond_distance
_geom_bond_site_symmetry_2
Mg0 O3 1.936012 1_545
Mg0 O2 1.988496 1_555
Mg0 O8 2.014784 1_545
Mg0 O4 2.028127 1_555
Co0 O0 1.930350 1_555
Co0 O3 1.997761 1_555
Co0 O8 2.015342 1_655
Co0 O2 2.116899 1_565
Co1 O4 2.086626 1_554
Co1 O6 2.086918 1_655
Co1 O5 2.096103 1_655
Co1 O7 2.132846 1_545
Co1 O9 2.196003 1_645
Co1 O3 2.648305 1_544
Co2 O1 1.759073 1_555
Co2 O6 1.779133 1_555
Co2 O2 2.084637 1_555
Co2 O8 2.089136 1_545
Co3 O9 1.917260 1_555
Co3 O4 1.934483 1_554
Co3 O0 1.940975 1_555
Co3 O7 2.110541 1_555
Co3 O5 2.275454 1_555
O0 Sr0 2.573244 1_555
O0 Sr2 2.792577 1_655
O0 Sr2 2.979523 1_555
O1 Sr3 2.441529 1_555
O1 Sr1 2.674033 1_455
O2 Sr0 2.530394 1_555
O2 Sr1 2.583506 1_555
O3 Sr1 2.459131 1_555
O3 Sr3 2.502129 1_655
O4 Sr3 2.669422 1_545
O4 Sr1 2.836818 1_555
O5 Sr3 2.478305 1_544
O5 Sr2 2.500668 1_555
O5 Sr0 2.590400 1_555
O5 Sr1 2.750592 1_454
O6 Sr0 2.687453 1_455
O6 Sr2 2.724724 1_555
O6 Sr0 3.050998 1_555
O7 Sr2 2.570493 1_655
O7 Sr3 2.612150 1_554
O7 Sr1 2.621823 1_554
O7 Sr0 2.670813 1_565
O8 Sr2 2.558161 1_555
O8 Sr3 2.703258 1_555
O9 Sr3 2.440618 1_554
O9 Sr1 2.540085 1_454
O9 Sr2 2.577860 1_555
O9 Sr0 2.725812 1_565
