# generated using pymatgen
data_Na4LaTa3Si5SO24
_symmetry_space_group_name_H-M   'P 1'
_cell_length_a   9.14624282
_cell_length_b   9.08452286
_cell_length_c   22.91541649
_cell_angle_alpha   90.10005076
_cell_angle_beta   89.94798297
_cell_angle_gamma   120.06729706
_symmetry_Int_Tables_number   1
_chemical_formula_structural   Na4LaTa3Si5SO24
_chemical_formula_sum   'Na12 La3 Ta9 Si15 S3 O72'
_cell_volume   1647.81201720
_cell_formula_units_Z   3
loop_
 _symmetry_equiv_pos_site_id
 _symmetry_equiv_pos_as_xyz
  1  'x, y, z'
loop_
 _atom_site_type_symbol
 _atom_site_label
 _atom_site_symmetry_multiplicity
 _atom_site_fract_x
 _atom_site_fract_y
 _atom_site_fract_z
 _atom_site_occupancy
  Na  Na0  1  0.63139299  0.62218500  0.74763665  1
  Na  Na1  1  0.99034342  0.36643807  0.75305395  1
  Na  Na2  1  0.38107873  0.00779720  0.74838291  1
  Na  Na3  1  0.65815677  0.67951587  0.08312536  1
  Na  Na4  1  0.02410304  0.34947447  0.08139184  1
  Na  Na5  1  0.32186335  0.02399961  0.42095380  1
  Na  Na6  1  0.98718688  0.99353255  0.50117428  1
  Na  Na7  1  0.01092726  0.99435620  0.99407556  1
  Na  Na8  1  0.66637333  0.33258201  0.83480211  1
  Na  Na9  1  0.70453238  0.33980563  0.33114210  1
  Na  Na10  1  0.33170624  0.68066194  0.16724796  1
  Na  Na11  1  0.35118730  0.68065970  0.66185554  1
  La  La0  1  0.98492331  0.00391343  0.36011291  1
  La  La1  1  0.65970933  0.33095722  0.67776152  1
  La  La2  1  0.67162125  0.32939521  0.17741582  1
  Ta  Ta0  1  0.99922644  0.00036420  0.85824031  1
  Ta  Ta1  1  0.00260060  0.98975463  0.64748723  1
  Ta  Ta2  1  0.00602294  0.01499300  0.14297835  1
  Ta  Ta3  1  0.66754432  0.33494759  0.97771845  1
  Ta  Ta4  1  0.65926592  0.34242579  0.48022438  1
  Ta  Ta5  1  0.33359866  0.66996923  0.01283873  1
  Ta  Ta6  1  0.33907634  0.67416233  0.51955802  1
  Ta  Ta7  1  0.32288422  0.65334222  0.31721454  1
  Ta  Ta8  1  0.33541432  0.66703251  0.81460072  1
  Si  Si0  1  0.01315703  0.31228239  0.24978727  1
  Si  Si1  1  0.27645199  0.28665355  0.75256716  1
  Si  Si2  1  0.01098606  0.71835813  0.75413756  1
  Si  Si3  1  0.71423697  0.99035181  0.75244129  1
  Si  Si4  1  0.35997316  0.02963731  0.58383265  1
  Si  Si5  1  0.66643287  0.64071843  0.58537832  1
  Si  Si6  1  0.97141971  0.63601209  0.07950584  1
  Si  Si7  1  0.66023522  0.03018478  0.08014141  1
  Si  Si8  1  0.37332556  0.33905171  0.07909056  1
  Si  Si9  1  0.62462692  0.66171300  0.91503930  1
  Si  Si10  1  0.03838350  0.37682367  0.91505430  1
  Si  Si11  1  0.33857679  0.96347151  0.91404938  1
  Si  Si12  1  0.60996159  0.96200635  0.41791009  1
  Si  Si13  1  0.34658055  0.38812028  0.42065513  1
  Si  Si14  1  0.03846875  0.64569477  0.42065648  1
  S  S0  1  0.28295197  0.98288176  0.25009656  1
  S  S1  1  0.69103978  0.71086186  0.24665246  1
  S  S2  1  0.97238435  0.33041627  0.58153453  1
  O  O0  1  0.20735477  0.99076732  0.30536990  1
  O  O1  1  0.79054040  0.78653216  0.29971242  1
  O  O2  1  0.00150034  0.20706689  0.30645365  1
  O  O3  1  0.17560400  0.17133890  0.80891462  1
  O  O4  1  0.99289026  0.82064360  0.80894470  1
  O  O5  1  0.82768950  0.00452600  0.80924221  1
  O  O6  1  0.81014068  0.96933799  0.69436184  1
  O  O7  1  0.15937452  0.19116441  0.69442047  1
  O  O8  1  0.03076991  0.83296731  0.69441300  1
  O  O9  1  0.78818283  0.81347085  0.19342677  1
  O  O10  1  0.02131023  0.19632545  0.19093400  1
  O  O11  1  0.17265286  0.97485851  0.19878323  1
  O  O12  1  0.91949437  0.36347483  0.63887683  1
  O  O13  1  0.45247224  0.07708870  0.64654581  1
  O  O14  1  0.62944236  0.55119251  0.64844164  1
  O  O15  1  0.92397944  0.51300757  0.13480955  1
  O  O16  1  0.61010493  0.07528757  0.14090787  1
  O  O17  1  0.49001994  0.40865710  0.13553130  1
  O  O18  1  0.47321800  0.30432455  0.02607613  1
  O  O19  1  0.82894385  0.53502654  0.02739009  1
  O  O20  1  0.70537770  0.17434872  0.02909288  1
  O  O21  1  0.47806145  0.16522057  0.53088436  1
  O  O22  1  0.69043682  0.52164641  0.53414847  1
  O  O23  1  0.85343170  0.31365447  0.53441998  1
  O  O24  1  0.52523971  0.68066506  0.97054298  1
  O  O25  1  0.15875700  0.47317378  0.97058230  1
  O  O26  1  0.31820728  0.83799111  0.96762681  1
  O  O27  1  0.49658077  0.84845328  0.47276931  1
  O  O28  1  0.33530579  0.49181333  0.47510203  1
  O  O29  1  0.15245258  0.65134813  0.47475220  1
  O  O30  1  0.13554907  0.62862185  0.36003882  1
  O  O31  1  0.49386020  0.86081886  0.35895504  1
  O  O32  1  0.36171291  0.49885261  0.36039627  1
  O  O33  1  0.13547494  0.49736725  0.85710493  1
  O  O34  1  0.36300012  0.86867262  0.85561963  1
  O  O35  1  0.50431772  0.63894050  0.85718038  1
  O  O36  1  0.03712139  0.82049107  0.41953980  1
  O  O37  1  0.78996052  0.97871537  0.42564543  1
  O  O38  1  0.20108836  0.19363873  0.42149794  1
  O  O39  1  0.01704300  0.18732322  0.90960084  1
  O  O40  1  0.17058338  0.98283012  0.90970443  1
  O  O41  1  0.81294790  0.82983437  0.90998578  1
  O  O42  1  0.97712811  0.16908580  0.58421195  1
  O  O43  1  0.17985075  0.02956920  0.58960621  1
  O  O44  1  0.84314894  0.82555757  0.58921452  1
  O  O45  1  0.97105562  0.81496600  0.09388630  1
  O  O46  1  0.84221597  0.02280340  0.09035286  1
  O  O47  1  0.18608721  0.16213139  0.09169719  1
  O  O48  1  0.69511952  0.15763070  0.75156307  1
  O  O49  1  0.46254304  0.30722086  0.75219346  1
  O  O50  1  0.84771225  0.53074077  0.75164378  1
  O  O51  1  0.65586654  0.53620580  0.24321413  1
  O  O52  1  0.85593765  0.34385609  0.24824135  1
  O  O53  1  0.45156221  0.13239338  0.24547994  1
  O  O54  1  0.64164725  0.49185733  0.92318327  1
  O  O55  1  0.85356478  0.36084207  0.92438717  1
  O  O56  1  0.50888806  0.14763151  0.92469074  1
  O  O57  1  0.61629578  0.14584269  0.42486611  1
  O  O58  1  0.52516414  0.38301062  0.42629586  1
  O  O59  1  0.85195802  0.47643664  0.42776540  1
  O  O60  1  0.32321933  0.48543981  0.06542005  1
  O  O61  1  0.16081263  0.67196388  0.06372002  1
  O  O62  1  0.51684193  0.83418657  0.06572380  1
  O  O63  1  0.31952880  0.83519205  0.57169671  1
  O  O64  1  0.50625414  0.66814804  0.57227909  1
  O  O65  1  0.14595702  0.47556724  0.57229698  1
  O  O66  1  0.29224748  0.82238052  0.24867228  1
  O  O67  1  0.52997029  0.71689816  0.24948245  1
  O  O68  1  0.19687651  0.49696079  0.25302421  1
  O  O69  1  0.29170214  0.47624294  0.75695822  1
  O  O70  1  0.18587170  0.70787013  0.75668619  1
  O  O71  1  0.52481134  0.81631556  0.75660971  1
loop_
_geom_bond_atom_site_label_1
_geom_bond_atom_site_label_2
_geom_bond_distance
_geom_bond_site_symmetry_2
Na0 O14 2.359373 1_555
Na0 O71 2.413261 1_555
Na0 O49 2.481102 1_555
Na0 O50 2.502114 1_555
Na0 O69 2.707111 1_555
Na0 O35 2.801066 1_555
Na1 O48 2.399577 1_555
Na1 O69 2.417709 1_655
Na1 O50 2.425311 1_555
Na1 O12 2.692883 1_555
Na1 O70 2.695744 1_655
Na1 O33 2.697361 1_655
Na2 O70 2.403010 1_545
Na2 O13 2.420536 1_555
Na2 O49 2.435215 1_555
Na2 O48 2.488085 1_555
Na2 O71 2.661337 1_545
Na2 O34 2.732055 1_545
Na3 O62 2.372044 1_555
Na3 O17 2.465157 1_555
Na3 O45 2.497333 1_555
Na3 O60 2.691714 1_555
Na3 O46 2.706498 1_565
Na3 O9 2.797951 1_555
Na3 O19 2.799876 1_555
Na3 O24 2.855217 1_554
Na4 O60 2.399556 1_555
Na4 O15 2.428768 1_455
Na4 O61 2.577391 1_555
Na4 O46 2.582859 1_455
Na4 O47 2.770547 1_555
Na4 O20 2.796043 1_455
Na4 O25 2.800867 1_554
Na4 O10 2.865994 1_555
Na5 O38 2.302402 1_555
Na5 O36 2.318804 1_545
Na5 O57 2.344879 1_555
Na5 O0 2.808702 1_545
Na6 O37 2.455449 1_555
Na6 O44 2.475052 1_555
Na6 O42 2.511737 1_565
Na6 O43 2.597109 1_665
Na6 O36 2.624278 1_655
Na6 O38 2.628144 1_665
Na7 O40 2.455345 1_555
Na7 O41 2.551520 1_455
Na7 O39 2.595535 1_565
Na7 O45 2.726926 1_456
Na7 O47 2.727973 1_566
Na7 O46 2.776103 1_466
Na8 O54 2.561915 1_555
Na8 O50 2.576293 1_555
Na8 O48 2.576970 1_555
Na8 O49 2.585848 1_555
Na8 O56 2.592747 1_555
Na8 O55 2.602999 1_555
Na9 O52 2.339291 1_555
Na9 O59 2.565167 1_555
Na9 O57 2.637047 1_555
Na9 O58 2.869792 1_555
Na9 O51 2.872509 1_555
Na9 O53 2.895487 1_555
Na10 O66 2.392742 1_555
Na10 O68 2.472696 1_555
Na10 O67 2.520648 1_555
Na10 O62 2.804038 1_555
Na10 O61 2.821321 1_555
Na10 O60 2.905882 1_555
Na11 O64 2.528511 1_555
Na11 O63 2.596469 1_555
Na11 O71 2.605975 1_555
Na11 O70 2.726953 1_555
Na11 O69 2.737438 1_555
Na11 O65 2.774142 1_555
La0 O2 2.160608 1_655
La0 O37 2.252678 1_545
La0 O38 2.332443 1_655
La0 O1 2.335221 1_545
La0 O36 2.380172 1_645
La0 O0 2.442348 1_645
La1 O13 2.244924 1_555
La1 O14 2.256325 1_555
La1 O49 2.411173 1_555
La1 O12 2.412601 1_555
La1 O48 2.442468 1_555
La1 O50 2.446330 1_555
La2 O16 2.244554 1_555
La2 O15 2.281833 1_555
La2 O52 2.296871 1_555
La2 O17 2.324275 1_555
La2 O53 2.466025 1_555
La2 O51 2.466779 1_555
O0 S0 1.461245 1_555
O1 S1 1.466755 1_555
O2 Si0 1.585289 1_555
O3 Si1 1.627821 1_555
O3 Ta0 1.945402 1_455
O4 Si2 1.617975 1_655
O4 Ta0 1.960592 1_565
O5 Si3 1.629575 1_545
O5 Ta0 1.945874 1_555
O6 Si3 1.655889 1_555
O6 Ta1 1.989200 1_655
O7 Si1 1.656007 1_555
O7 Ta1 1.981808 1_545
O8 Si2 1.675000 1_555
O8 Ta1 1.903946 1_555
O9 S1 1.522524 1_555
O9 Ta2 2.237401 1_665
O10 Si0 1.734261 1_555
O10 Ta2 1.924578 1_555
O11 S0 1.527701 1_555
O11 Ta2 2.157058 1_565
O12 S2 1.481182 1_555
O13 Si4 1.612895 1_555
O14 Si5 1.609906 1_555
O15 Si6 1.600347 1_555
O16 Si7 1.581844 1_555
O17 Si8 1.592223 1_555
O18 Si8 1.641825 1_555
O18 Ta3 1.991581 1_554
O19 Si6 1.663452 1_555
O19 Ta3 2.021315 1_554
O20 Si7 1.648256 1_555
O20 Ta3 2.036391 1_554
O21 Si4 1.680961 1_555
O21 Ta4 2.003888 1_555
O22 Si5 1.682122 1_555
O22 Ta4 1.946158 1_555
O23 S2 1.485955 1_555
O23 Ta4 2.287946 1_555
O24 Si9 1.620995 1_555
O24 Ta5 1.961559 1_556
O25 Si10 1.621855 1_555
O25 Ta5 1.955282 1_556
O26 Si11 1.622709 1_555
O26 Ta5 1.908982 1_556
O27 Si12 1.627920 1_555
O27 Ta6 1.857250 1_555
O28 Si13 1.596149 1_555
O28 Ta6 1.928754 1_555
O29 Si14 1.604568 1_555
O29 Ta6 1.912757 1_555
O30 Si14 1.696173 1_555
O30 Ta7 1.887163 1_555
O31 Si12 1.678663 1_555
O31 Ta7 1.988933 1_555
O32 Si13 1.674172 1_555
O32 Ta7 1.892068 1_555
O33 Si10 1.667243 1_555
O33 Ta8 1.961161 1_555
O34 Si11 1.665093 1_555
O34 Ta8 1.958061 1_555
O35 Si9 1.668868 1_555
O35 Ta8 1.949958 1_555
O36 Si14 1.594401 1_555
O37 Si12 1.585825 1_555
O38 Si13 1.592756 1_555
O39 Si10 1.637053 1_555
O39 Ta0 2.003116 1_455
O40 Si11 1.634871 1_555
O40 Ta0 2.031424 1_465
O41 Si9 1.636173 1_555
O41 Ta0 2.016615 1_565
O42 S2 1.489194 1_555
O42 Ta1 2.280350 1_645
O43 Si4 1.652319 1_555
O43 Ta1 1.982040 1_545
O44 Si5 1.649223 1_555
O44 Ta1 1.987915 1_655
O45 Si6 1.659847 1_555
O45 Ta2 2.020157 1_665
O46 Si7 1.715288 1_555
O46 Ta2 1.952965 1_655
O47 Si8 1.685854 1_555
O47 Ta2 1.917306 1_555
O48 Si3 1.614522 1_545
O49 Si1 1.616546 1_555
O50 Si2 1.608642 1_655
O51 S1 1.454424 1_555
O52 Si0 1.601467 1_655
O53 S0 1.461360 1_545
O54 Si9 1.637635 1_555
O54 Ta3 1.998707 1_555
O55 Si10 1.636396 1_655
O55 Ta3 2.009923 1_555
O56 Si11 1.634863 1_545
O56 Ta3 1.999914 1_555
O57 Si12 1.649248 1_545
O57 Ta4 2.059782 1_555
O58 Si13 1.662268 1_555
O58 Ta4 1.903935 1_555
O59 Si14 1.634894 1_655
O59 Ta4 1.970939 1_555
O60 Si8 1.639852 1_555
O60 Ta5 2.029390 1_555
O61 Si6 1.634175 1_455
O61 Ta5 1.970422 1_555
O62 Si7 1.630443 1_565
O62 Ta5 1.998790 1_555
O63 Si4 1.636522 1_565
O63 Ta6 1.963430 1_555
O64 Si5 1.632601 1_555
O64 Ta6 1.971760 1_555
O65 S2 1.485463 1_455
O65 Ta6 2.155442 1_555
O66 S0 1.502773 1_555
O66 Ta7 2.311731 1_555
O67 S1 1.502743 1_555
O67 Ta7 2.287324 1_555
O68 Si0 1.678900 1_555
O68 Ta7 1.966047 1_555
O69 Si1 1.659728 1_555
O69 Ta8 2.051176 1_555
O70 Si2 1.650436 1_555
O70 Ta8 2.069575 1_555
O71 Si3 1.663108 1_555
O71 Ta8 2.062518 1_555
