# generated using pymatgen
data_Pb5(SI3)2
_symmetry_space_group_name_H-M   'P 1'
_cell_length_a   7.86460754
_cell_length_b   7.86460754
_cell_length_c   15.01029181
_cell_angle_alpha   81.87949004
_cell_angle_beta   81.87949004
_cell_angle_gamma   33.37834292
_symmetry_Int_Tables_number   1
_chemical_formula_structural   Pb5(SI3)2
_chemical_formula_sum   'Pb5 S2 I6'
_cell_volume   505.19842488
_cell_formula_units_Z   1
loop_
 _symmetry_equiv_pos_site_id
 _symmetry_equiv_pos_as_xyz
  1  'x, y, z'
loop_
 _atom_site_type_symbol
 _atom_site_label
 _atom_site_symmetry_multiplicity
 _atom_site_fract_x
 _atom_site_fract_y
 _atom_site_fract_z
 _atom_site_occupancy
  Pb  Pb0  1  0.22391400  0.22391400  0.24234200  1
  Pb  Pb1  1  0.13146200  0.13146200  0.52843600  1
  Pb  Pb2  1  0.86853800  0.86853800  0.47156400  1
  Pb  Pb3  1  0.77608600  0.77608600  0.75765800  1
  Pb  Pb4  1  0.00000000  0.00000000  0.00000000  1
  S  S0  1  0.28474800  0.28474800  0.40579300  1
  S  S1  1  0.71525200  0.71525200  0.59420700  1
  I  I0  1  0.62993700  0.62993700  0.06604900  1
  I  I1  1  0.41819100  0.41819100  0.64292400  1
  I  I2  1  0.87846800  0.87846800  0.20237900  1
  I  I3  1  0.37006300  0.37006300  0.93395100  1
  I  I4  1  0.58180900  0.58180900  0.35707600  1
  I  I5  1  0.12153200  0.12153200  0.79762100  1
loop_
_geom_bond_atom_site_label_1
_geom_bond_atom_site_label_2
_geom_bond_distance
_geom_bond_site_symmetry_2
Pb0 S0 2.742759 1_555
Pb1 S0 2.732914 1_555
Pb1 S1 2.834967 1_455
Pb1 S1 2.834967 1_545
Pb2 S1 2.732914 1_555
Pb2 S0 2.834967 1_655
Pb2 S0 2.834967 1_565
Pb3 S1 2.742759 1_555
I0 Pb4 3.238682 1_655
I0 Pb4 3.238682 1_565
I1 Pb3 3.400526 1_545
I1 Pb3 3.400526 1_455
I1 Pb2 3.583892 1_545
I1 Pb2 3.583892 1_455
I2 Pb0 3.235946 1_565
I2 Pb0 3.235946 1_655
I2 Pb4 3.307619 1_665
I3 Pb4 3.238682 1_656
I3 Pb4 3.238682 1_566
I4 Pb0 3.400526 1_655
I4 Pb0 3.400526 1_565
I4 Pb1 3.583892 1_565
I4 Pb1 3.583892 1_655
I5 Pb3 3.235946 1_455
I5 Pb3 3.235946 1_545
I5 Pb4 3.307619 1_556
