# generated using pymatgen
data_Na5NiO4
_symmetry_space_group_name_H-M   'P 1'
_cell_length_a   5.88487316
_cell_length_b   10.15181451
_cell_length_c   17.78573241
_cell_angle_alpha   90.00000000
_cell_angle_beta   90.00000000
_cell_angle_gamma   90.00000000
_symmetry_Int_Tables_number   1
_chemical_formula_structural   Na5NiO4
_chemical_formula_sum   'Na40 Ni8 O32'
_cell_volume   1062.55772872
_cell_formula_units_Z   8
loop_
 _symmetry_equiv_pos_site_id
 _symmetry_equiv_pos_as_xyz
  1  'x, y, z'
loop_
 _atom_site_type_symbol
 _atom_site_label
 _atom_site_symmetry_multiplicity
 _atom_site_fract_x
 _atom_site_fract_y
 _atom_site_fract_z
 _atom_site_occupancy
  Na  Na0  1  0.10525297  0.41803596  0.75128936  1
  Na  Na1  1  0.42680693  0.29623437  0.63846365  1
  Na  Na2  1  0.57319307  0.20376563  0.13846365  1
  Na  Na3  1  0.07319307  0.79623437  0.36153635  1
  Na  Na4  1  0.07319307  0.29623437  0.13846365  1
  Na  Na5  1  0.57319307  0.70376563  0.36153635  1
  Na  Na6  1  0.42680693  0.79623437  0.86153635  1
  Na  Na7  1  0.92680693  0.20376563  0.63846365  1
  Na  Na8  1  0.89715422  0.82934080  0.17093714  1
  Na  Na9  1  0.39715422  0.17065920  0.32906286  1
  Na  Na10  1  0.60284578  0.32934080  0.82906286  1
  Na  Na11  1  0.10284578  0.67065920  0.67093714  1
  Na  Na12  1  0.10284578  0.17065920  0.82906286  1
  Na  Na13  1  0.60284578  0.82934080  0.67093714  1
  Na  Na14  1  0.39715422  0.67065920  0.17093714  1
  Na  Na15  1  0.89715422  0.32934080  0.32906286  1
  Na  Na16  1  0.91619654  0.15820857  0.00109926  1
  Na  Na17  1  0.41619654  0.84179143  0.49890074  1
  Na  Na18  1  0.58380346  0.65820857  0.99890074  1
  Na  Na19  1  0.08380346  0.34179143  0.50109926  1
  Na  Na20  1  0.08380346  0.84179143  0.99890074  1
  Na  Na21  1  0.58380346  0.15820857  0.50109926  1
  Na  Na22  1  0.41619654  0.34179143  0.00109926  1
  Na  Na23  1  0.91619654  0.65820857  0.49890074  1
  Na  Na24  1  0.92305715  0.94014806  0.56557432  1
  Na  Na25  1  0.39474703  0.91803596  0.24871064  1
  Na  Na26  1  0.60525297  0.58196404  0.74871064  1
  Na  Na27  1  0.92680693  0.70376563  0.86153635  1
  Na  Na28  1  0.10525297  0.91803596  0.74871064  1
  Na  Na29  1  0.60525297  0.08196404  0.75128936  1
  Na  Na30  1  0.39474703  0.41803596  0.25128936  1
  Na  Na31  1  0.89474703  0.58196404  0.24871064  1
  Na  Na32  1  0.92305715  0.44014806  0.93442568  1
  Na  Na33  1  0.42305715  0.55985194  0.56557432  1
  Na  Na34  1  0.57694285  0.94014806  0.06557432  1
  Na  Na35  1  0.07694285  0.05985194  0.43442568  1
  Na  Na36  1  0.07694285  0.55985194  0.06557432  1
  Na  Na37  1  0.57694285  0.44014806  0.43442568  1
  Na  Na38  1  0.42305715  0.05985194  0.93442568  1
  Na  Na39  1  0.89474703  0.08196404  0.25128936  1
  Ni  Ni0  1  0.82413633  0.46031661  0.62422533  1
  Ni  Ni1  1  0.32413633  0.53968339  0.87577467  1
  Ni  Ni2  1  0.67586367  0.96031661  0.37577467  1
  Ni  Ni3  1  0.17586367  0.03968339  0.12422533  1
  Ni  Ni4  1  0.17586367  0.53968339  0.37577467  1
  Ni  Ni5  1  0.67586367  0.46031661  0.12422533  1
  Ni  Ni6  1  0.32413633  0.03968339  0.62422533  1
  Ni  Ni7  1  0.82413633  0.96031661  0.87577467  1
  O  O0  1  0.86125417  0.04914564  0.12052573  1
  O  O1  1  0.36125417  0.95085436  0.37947427  1
  O  O2  1  0.63874583  0.54914564  0.87947427  1
  O  O3  1  0.13874583  0.45085436  0.62052573  1
  O  O4  1  0.13874583  0.95085436  0.87947427  1
  O  O5  1  0.63874583  0.04914564  0.62052573  1
  O  O6  1  0.36125417  0.45085436  0.12052573  1
  O  O7  1  0.86125417  0.54914564  0.37947427  1
  O  O8  1  0.80563955  0.36763528  0.04533084  1
  O  O9  1  0.30563955  0.63236472  0.45466916  1
  O  O10  1  0.69436045  0.86763528  0.95466916  1
  O  O11  1  0.19436045  0.13236472  0.54533084  1
  O  O12  1  0.19436045  0.63236472  0.95466916  1
  O  O13  1  0.69436045  0.36763528  0.54533084  1
  O  O14  1  0.30563955  0.13236472  0.04533084  1
  O  O15  1  0.80563955  0.86763528  0.45466916  1
  O  O16  1  0.73346316  0.37220137  0.71235398  1
  O  O17  1  0.23346316  0.62779863  0.78764602  1
  O  O18  1  0.76653684  0.87220137  0.28764602  1
  O  O19  1  0.26653684  0.12779863  0.21235398  1
  O  O20  1  0.26653684  0.62779863  0.28764602  1
  O  O21  1  0.76653684  0.37220137  0.21235398  1
  O  O22  1  0.23346316  0.12779863  0.71235398  1
  O  O23  1  0.73346316  0.87220137  0.78764602  1
  O  O24  1  0.73834123  0.13798348  0.87468894  1
  O  O25  1  0.23834123  0.86201652  0.62531106  1
  O  O26  1  0.76165877  0.63798348  0.12531106  1
  O  O27  1  0.26165877  0.36201652  0.37468894  1
  O  O28  1  0.26165877  0.86201652  0.12531106  1
  O  O29  1  0.76165877  0.13798348  0.37468894  1
  O  O30  1  0.23834123  0.36201652  0.87468894  1
  O  O31  1  0.73834123  0.63798348  0.62531106  1
loop_
_geom_bond_atom_site_label_1
_geom_bond_atom_site_label_2
_geom_bond_distance
_geom_bond_site_symmetry_2
Na0 O16 2.341606 1_455
Na0 O17 2.349905 1_555
Na0 O3 2.357722 1_555
Na0 O30 2.398701 1_555
Na1 O3 2.332247 1_555
Na1 O16 2.361897 1_555
Na1 O13 2.397560 1_555
Na1 O22 2.438351 1_555
Na1 O11 2.717068 1_555
Na2 O0 2.332247 1_555
Na2 O19 2.361897 1_555
Na2 O14 2.397560 1_555
Na2 O21 2.438351 1_555
Na2 O8 2.717068 1_555
Na3 O1 2.332247 1_555
Na3 O18 2.361897 1_455
Na3 O15 2.397560 1_455
Na3 O20 2.438351 1_555
Na3 O9 2.717068 1_555
Na4 O6 2.332247 1_555
Na4 O21 2.361897 1_455
Na4 O8 2.397560 1_455
Na4 O19 2.438351 1_555
Na4 O14 2.717068 1_555
Na5 O7 2.332247 1_555
Na5 O20 2.361897 1_555
Na5 O9 2.397560 1_555
Na5 O18 2.438351 1_555
Na5 O15 2.717068 1_555
Na6 O4 2.332247 1_555
Na6 O23 2.361897 1_555
Na6 O10 2.397560 1_555
Na6 O17 2.438351 1_555
Na6 O12 2.717068 1_555
Na7 O5 2.332247 1_555
Na7 O22 2.361897 1_655
Na7 O11 2.397560 1_655
Na7 O16 2.438351 1_555
Na7 O13 2.717068 1_555
Na8 O26 2.251247 1_555
Na8 O18 2.255864 1_555
Na8 O28 2.317294 1_655
Na8 O0 2.414075 1_565
Na9 O27 2.251247 1_555
Na9 O19 2.255864 1_555
Na9 O29 2.317294 1_555
Na9 O1 2.414075 1_545
Na10 O24 2.251247 1_555
Na10 O16 2.255864 1_555
Na10 O30 2.317294 1_555
Na10 O2 2.414075 1_555
Na11 O25 2.251247 1_555
Na11 O17 2.255864 1_555
Na11 O31 2.317294 1_455
Na11 O3 2.414075 1_555
Na12 O30 2.251247 1_555
Na12 O22 2.255864 1_555
Na12 O24 2.317294 1_455
Na12 O4 2.414075 1_545
Na13 O31 2.251247 1_555
Na13 O23 2.255864 1_555
Na13 O25 2.317294 1_555
Na13 O5 2.414075 1_565
Na14 O28 2.251247 1_555
Na14 O20 2.255864 1_555
Na14 O26 2.317294 1_555
Na14 O6 2.414075 1_555
Na15 O29 2.251247 1_555
Na15 O21 2.255864 1_555
Na15 O27 2.317294 1_655
Na15 O7 2.414075 1_555
Na16 O8 2.358456 1_555
Na16 O0 2.417054 1_555
Na16 O14 2.437246 1_655
Na16 O24 2.488473 1_554
Na17 O9 2.358456 1_555
Na17 O1 2.417054 1_555
Na17 O15 2.437246 1_555
Na17 O25 2.488473 1_555
Na18 O10 2.358456 1_555
Na18 O2 2.417054 1_555
Na18 O12 2.437246 1_555
Na18 O26 2.488473 1_556
Na19 O11 2.358456 1_555
Na19 O3 2.417054 1_555
Na19 O13 2.437246 1_455
Na19 O27 2.488473 1_555
Na20 O12 2.358456 1_555
Na20 O4 2.417054 1_555
Na20 O10 2.437246 1_455
Na20 O28 2.488473 1_556
Na21 O13 2.358456 1_555
Na21 O5 2.417054 1_555
Na21 O11 2.437246 1_555
Na21 O29 2.488473 1_555
Na22 O14 2.358456 1_555
Na22 O6 2.417054 1_555
Na22 O8 2.437246 1_555
Na22 O30 2.488473 1_554
Na23 O15 2.358456 1_555
Na23 O7 2.417054 1_555
Na23 O9 2.437246 1_655
Na23 O31 2.488473 1_555
Na24 O15 2.215905 1_555
Na24 O5 2.231366 1_565
Na24 O25 2.280458 1_655
Na24 O11 2.546856 1_665
Na25 O18 2.341606 1_555
Na25 O19 2.349905 1_565
Na25 O1 2.357722 1_555
Na25 O28 2.398701 1_555
Na26 O17 2.341606 1_555
Na26 O16 2.349905 1_555
Na26 O2 2.357722 1_555
Na26 O31 2.398701 1_555
Na27 O2 2.332247 1_555
Na27 O17 2.361897 1_655
Na27 O12 2.397560 1_655
Na27 O23 2.438351 1_555
Na27 O10 2.717068 1_555
Na28 O23 2.341606 1_455
Na28 O22 2.349905 1_565
Na28 O4 2.357722 1_555
Na28 O25 2.398701 1_555
Na29 O22 2.341606 1_555
Na29 O23 2.349905 1_545
Na29 O5 2.357722 1_555
Na29 O24 2.398701 1_555
Na30 O21 2.341606 1_555
Na30 O20 2.349905 1_555
Na30 O6 2.357722 1_555
Na30 O27 2.398701 1_555
Na31 O20 2.341606 1_655
Na31 O21 2.349905 1_555
Na31 O7 2.357722 1_555
Na31 O26 2.398701 1_555
Na32 O8 2.215905 1_556
Na32 O2 2.231366 1_555
Na32 O30 2.280458 1_655
Na32 O12 2.546856 1_655
Na33 O9 2.215905 1_555
Na33 O3 2.231366 1_555
Na33 O31 2.280458 1_555
Na33 O13 2.546856 1_555
Na34 O10 2.215905 1_554
Na34 O0 2.231366 1_565
Na34 O28 2.280458 1_555
Na34 O14 2.546856 1_565
Na35 O11 2.215905 1_555
Na35 O1 2.231366 1_545
Na35 O29 2.280458 1_455
Na35 O15 2.546856 1_445
Na36 O12 2.215905 1_554
Na36 O6 2.231366 1_555
Na36 O26 2.280458 1_455
Na36 O8 2.546856 1_455
Na37 O13 2.215905 1_555
Na37 O7 2.231366 1_555
Na37 O27 2.280458 1_555
Na37 O9 2.546856 1_555
Na38 O14 2.215905 1_556
Na38 O4 2.231366 1_545
Na38 O24 2.280458 1_555
Na38 O10 2.546856 1_545
Na39 O19 2.341606 1_655
Na39 O18 2.349905 1_545
Na39 O0 2.357722 1_555
Na39 O29 2.398701 1_555
Ni0 O13 1.854045 1_555
Ni0 O3 1.855095 1_655
Ni0 O31 1.873075 1_555
Ni0 O16 1.881956 1_555
Ni1 O12 1.854045 1_555
Ni1 O2 1.855095 1_555
Ni1 O30 1.873075 1_555
Ni1 O17 1.881956 1_555
Ni2 O15 1.854045 1_555
Ni2 O1 1.855095 1_555
Ni2 O29 1.873075 1_565
Ni2 O18 1.881956 1_555
Ni3 O14 1.854045 1_555
Ni3 O0 1.855095 1_455
Ni3 O28 1.873075 1_545
Ni3 O19 1.881956 1_555
Ni4 O9 1.854045 1_555
Ni4 O7 1.855095 1_455
Ni4 O27 1.873075 1_555
Ni4 O20 1.881956 1_555
Ni5 O8 1.854045 1_555
Ni5 O6 1.855095 1_555
Ni5 O26 1.873075 1_555
Ni5 O21 1.881956 1_555
Ni6 O11 1.854045 1_555
Ni6 O5 1.855095 1_555
Ni6 O25 1.873075 1_545
Ni6 O22 1.881956 1_555
Ni7 O10 1.854045 1_555
Ni7 O4 1.855095 1_655
Ni7 O24 1.873075 1_565
Ni7 O23 1.881956 1_555
