# generated using pymatgen
data_TiFeSn
_symmetry_space_group_name_H-M   'P 1'
_cell_length_a   4.40156859
_cell_length_b   4.40156859
_cell_length_c   4.40156859
_cell_angle_alpha   60.00000000
_cell_angle_beta   60.00000000
_cell_angle_gamma   60.00000000
_symmetry_Int_Tables_number   1
_chemical_formula_structural   TiFeSn
_chemical_formula_sum   'Ti1 Fe1 Sn1'
_cell_volume   60.29862719
_cell_formula_units_Z   1
loop_
 _symmetry_equiv_pos_site_id
 _symmetry_equiv_pos_as_xyz
  1  'x, y, z'
loop_
 _atom_site_type_symbol
 _atom_site_label
 _atom_site_symmetry_multiplicity
 _atom_site_fract_x
 _atom_site_fract_y
 _atom_site_fract_z
 _atom_site_occupancy
  Ti  Ti0  1  0.75000000  0.75000000  0.75000000  1
  Fe  Fe0  1  0.00000000  0.00000000  0.00000000  1
  Sn  Sn0  1  0.50000000  0.50000000  0.50000000  1
loop_
_geom_bond_atom_site_label_1
_geom_bond_atom_site_label_2
_geom_bond_distance
_geom_bond_site_symmetry_2
Fe0 Ti0 2.695399 1_544
Fe0 Ti0 2.695399 1_454
Fe0 Ti0 2.695399 1_444
Fe0 Ti0 2.695399 1_445
Fe0 Sn0 3.112379 1_544
Fe0 Sn0 3.112379 1_545
Fe0 Sn0 3.112379 1_554
Fe0 Sn0 3.112379 1_445
Fe0 Sn0 3.112379 1_455
Fe0 Sn0 3.112379 1_454
Sn0 Ti0 2.695399 1_455
Sn0 Ti0 2.695399 1_555
Sn0 Ti0 2.695399 1_554
Sn0 Ti0 2.695399 1_545
