# generated using pymatgen
data_Na10Ca2Ti6Si7S5O48
_symmetry_space_group_name_H-M   'P 1'
_cell_length_a   18.00488477
_cell_length_b   9.03190429
_cell_length_c   22.41874591
_cell_angle_alpha   90.04979920
_cell_angle_beta   89.65096862
_cell_angle_gamma   120.06341593
_symmetry_Int_Tables_number   1
_chemical_formula_structural   Na10Ca2Ti6Si7S5O48
_chemical_formula_sum   'Na30 Ca6 Ti18 Si21 S15 O144'
_cell_volume   3155.18117606
_cell_formula_units_Z   3
loop_
 _symmetry_equiv_pos_site_id
 _symmetry_equiv_pos_as_xyz
  1  'x, y, z'
loop_
 _atom_site_type_symbol
 _atom_site_label
 _atom_site_symmetry_multiplicity
 _atom_site_fract_x
 _atom_site_fract_y
 _atom_site_fract_z
 _atom_site_occupancy
  Na  Na0  1  0.81145659  0.00569684  0.25122051  1
  Na  Na1  1  0.18960278  0.37924607  0.24681885  1
  Na  Na2  1  0.68967136  0.36480766  0.25264618  1
  Na  Na3  1  0.99423246  0.61112291  0.25383405  1
  Na  Na4  1  0.49624153  0.63393252  0.24392068  1
  Na  Na5  1  0.31346916  0.61799526  0.75263701  1
  Na  Na6  1  0.99568053  0.35820810  0.74465765  1
  Na  Na7  1  0.49471091  0.38124062  0.75370015  1
  Na  Na8  1  0.19064955  0.01578601  0.74648589  1
  Na  Na9  1  0.68963424  0.99802920  0.74732807  1
  Na  Na10  1  0.15198258  0.33377827  0.57647519  1
  Na  Na11  1  0.01606286  0.69107035  0.58617086  1
  Na  Na12  1  0.48792055  0.66691624  0.91682988  1
  Na  Na13  1  0.99511931  0.68679594  0.92425219  1
  Na  Na14  1  0.84585326  0.01887049  0.91654508  1
  Na  Na15  1  0.49432411  0.30537579  0.42409788  1
  Na  Na16  1  0.16169774  0.02282892  0.41733303  1
  Na  Na17  1  0.34712252  0.66859515  0.41514961  1
  Na  Na18  1  0.99004514  0.99483117  0.49851075  1
  Na  Na19  1  0.51733055  0.01260004  0.49799138  1
  Na  Na20  1  0.01511959  0.02040769  0.99849172  1
  Na  Na21  1  0.50593258  0.02272467  0.00029224  1
  Na  Na22  1  0.32625515  0.31923195  0.83244850  1
  Na  Na23  1  0.82847073  0.33488181  0.83175424  1
  Na  Na24  1  0.33736284  0.33715438  0.33188543  1
  Na  Na25  1  0.83046240  0.33177392  0.33250764  1
  Na  Na26  1  0.17470483  0.67699888  0.16482282  1
  Na  Na27  1  0.66023191  0.66826372  0.15944460  1
  Na  Na28  1  0.17238910  0.68311029  0.66230201  1
  Na  Na29  1  0.67303214  0.67197325  0.66435200  1
  Ca  Ca0  1  0.33078633  0.32659443  0.68483883  1
  Ca  Ca1  1  0.83662105  0.33245174  0.68324917  1
  Ca  Ca2  1  0.33936592  0.34347276  0.18223605  1
  Ca  Ca3  1  0.83089020  0.32879735  0.18420630  1
  Ca  Ca4  1  0.16427111  0.66611428  0.01657811  1
  Ca  Ca5  1  0.66370196  0.66365627  0.51570520  1
  Ti  Ti0  1  0.99598196  0.99809155  0.35475535  1
  Ti  Ti1  1  0.50213927  0.98684894  0.35620355  1
  Ti  Ti2  1  0.00095488  0.01626525  0.85593234  1
  Ti  Ti3  1  0.49869881  0.00234669  0.85524166  1
  Ti  Ti4  1  0.00011128  0.02932777  0.64373019  1
  Ti  Ti5  1  0.49430407  0.98372282  0.65022274  1
  Ti  Ti6  1  0.99263703  0.00663766  0.14906953  1
  Ti  Ti7  1  0.49533397  0.96138819  0.14528267  1
  Ti  Ti8  1  0.34052793  0.32162624  0.98077541  1
  Ti  Ti9  1  0.83049872  0.33882662  0.97325236  1
  Ti  Ti10  1  0.32630230  0.31796271  0.47575497  1
  Ti  Ti11  1  0.83870945  0.34589121  0.47664682  1
  Ti  Ti12  1  0.65886878  0.65888249  0.01152316  1
  Ti  Ti13  1  0.16159092  0.67060169  0.51299740  1
  Ti  Ti14  1  0.17044318  0.66140509  0.31676678  1
  Ti  Ti15  1  0.66348198  0.65339154  0.31631975  1
  Ti  Ti16  1  0.16408787  0.67479220  0.81643158  1
  Ti  Ti17  1  0.67317079  0.68357532  0.81657355  1
  Si  Si0  1  0.63951714  0.98438461  0.25090433  1
  Si  Si1  1  0.35173032  0.71869505  0.25318916  1
  Si  Si2  1  0.85374250  0.71754778  0.25312998  1
  Si  Si3  1  0.00564653  0.29321401  0.25268227  1
  Si  Si4  1  0.14035982  0.29700922  0.75102318  1
  Si  Si5  1  0.50592153  0.71856283  0.75369531  1
  Si  Si6  1  0.35416623  0.99071512  0.75366211  1
  Si  Si7  1  0.85296346  0.98374132  0.75209914  1
  Si  Si8  1  0.98189789  0.33965308  0.58186064  1
  Si  Si9  1  0.18305322  0.02894283  0.58495967  1
  Si  Si10  1  0.48579136  0.62893939  0.08238514  1
  Si  Si11  1  0.80918171  0.66634657  0.91744965  1
  Si  Si12  1  0.01952858  0.37363636  0.91784455  1
  Si  Si13  1  0.52294962  0.37464776  0.91276229  1
  Si  Si14  1  0.16809513  0.97200320  0.91598845  1
  Si  Si15  1  0.66512052  0.96038723  0.91672557  1
  Si  Si16  1  0.31066933  0.95313670  0.41608459  1
  Si  Si17  1  0.16346986  0.37197505  0.41823179  1
  Si  Si18  1  0.66765047  0.36474969  0.41571995  1
  Si  Si19  1  0.01935982  0.66263977  0.41203667  1
  Si  Si20  1  0.51819849  0.66346169  0.41816252  1
  S  S0  1  0.13946252  0.99203514  0.25062321  1
  S  S1  1  0.50270379  0.28608913  0.25299508  1
  S  S2  1  0.63877402  0.28600813  0.75077236  1
  S  S3  1  0.00232745  0.71668659  0.75258155  1
  S  S4  1  0.48169271  0.31996817  0.58450735  1
  S  S5  1  0.67991247  0.03930791  0.58526268  1
  S  S6  1  0.33620584  0.63930196  0.58110706  1
  S  S7  1  0.83608156  0.63324369  0.58302933  1
  S  S8  1  0.98068278  0.64209791  0.08438685  1
  S  S9  1  0.34066020  0.04027794  0.08412185  1
  S  S10  1  0.83407398  0.02924623  0.08135143  1
  S  S11  1  0.18096584  0.32013399  0.08537180  1
  S  S12  1  0.68335386  0.33556875  0.08161710  1
  S  S13  1  0.31561473  0.66403941  0.91375901  1
  S  S14  1  0.81589559  0.96935536  0.41439195  1
  O  O0  1  0.10065969  0.00900446  0.30741758  1
  O  O1  1  0.58561482  0.00340139  0.30561252  1
  O  O2  1  0.40933142  0.82505119  0.30932578  1
  O  O3  1  0.91682085  0.82274762  0.30914238  1
  O  O4  1  0.49608881  0.19516793  0.30864811  1
  O  O5  1  0.00415356  0.17153059  0.30734733  1
  O  O6  1  0.08287631  0.16639283  0.80384175  1
  O  O7  1  0.59792006  0.18489910  0.80552912  1
  O  O8  1  0.50382788  0.82924489  0.81067963  1
  O  O9  1  0.99616182  0.79995663  0.80672228  1
  O  O10  1  0.41670494  0.00428573  0.80889834  1
  O  O11  1  0.90803172  -0.00801552  0.80992025  1
  O  O12  1  0.40596937  0.96990307  0.69406244  1
  O  O13  1  0.90660348  0.98102006  0.69127394  1
  O  O14  1  0.08513223  0.20479157  0.68797451  1
  O  O15  1  0.58692323  0.19769375  0.69686714  1
  O  O16  1  0.00916807  0.81091690  0.69707792  1
  O  O17  1  0.51517342  0.83999377  0.69320558  1
  O  O18  1  0.40229865  0.82439606  0.19061449  1
  O  O19  1  0.90586498  0.84485043  0.19417751  1
  O  O20  1  0.01495148  0.19420722  0.19131535  1
  O  O21  1  0.51031815  0.20095349  0.19947538  1
  O  O22  1  0.08561873  0.97800173  0.19827708  1
  O  O23  1  0.58026728  0.96460180  0.19058410  1
  O  O24  1  0.44170735  0.33323578  0.64005358  1
  O  O25  1  0.95850638  0.39070958  0.64474649  1
  O  O26  1  0.22848148  0.08719460  0.64786875  1
  O  O27  1  0.72296365  0.11541891  0.64253557  1
  O  O28  1  0.32362329  0.54157212  0.63653580  1
  O  O29  1  0.82648496  0.53838175  0.63813702  1
  O  O30  1  0.45823552  0.54520642  0.14703196  1
  O  O31  1  0.93900193  0.54907173  0.13965495  1
  O  O32  1  0.32896037  0.11547231  0.13849458  1
  O  O33  1  0.82371060  0.09969561  0.13798964  1
  O  O34  1  0.22316548  0.33017672  0.14297133  1
  O  O35  1  0.72538657  0.35793446  0.13978246  1
  O  O36  1  0.23040946  0.30701638  0.03419134  1
  O  O37  1  0.73655481  0.31750213  0.03295930  1
  O  O38  1  0.41772986  0.51501806  0.02734870  1
  O  O39  1  0.92874710  0.54625495  0.03045543  1
  O  O40  1  0.34469632  0.14826757  0.03018182  1
  O  O41  1  0.84430864  0.14019735  0.02943168  1
  O  O42  1  0.23926831  0.17142112  0.52953961  1
  O  O43  1  0.72787725  0.14851474  0.53355918  1
  O  O44  1  0.34623322  0.55190928  0.52809578  1
  O  O45  1  0.84292079  0.53800468  0.52986555  1
  O  O46  1  0.42944634  0.31048562  0.53075986  1
  O  O47  1  0.91349928  0.31921976  0.52878968  1
  O  O48  1  0.28057285  0.68889583  0.96811492  1
  O  O49  1  0.76397779  0.70502932  0.97302391  1
  O  O50  1  0.07160207  0.43216152  0.97672971  1
  O  O51  1  0.58317861  0.47076374  0.97043175  1
  O  O52  1  0.13667663  0.84323219  0.97037528  1
  O  O53  1  0.64836585  0.82532788  0.96981744  1
  O  O54  1  0.26262716  0.82328412  0.47162337  1
  O  O55  1  0.78257361  0.87319466  0.46895519  1
  O  O56  1  0.15464420  0.46636468  0.47650104  1
  O  O57  1  0.63734166  0.43175504  0.47037127  1
  O  O58  1  0.08176250  0.69542660  0.46980010  1
  O  O59  1  0.57140983  0.71313472  0.47668967  1
  O  O60  1  0.06408904  0.63291203  0.35293345  1
  O  O61  1  0.56985632  0.63096498  0.36034686  1
  O  O62  1  0.24509368  0.86337261  0.35918240  1
  O  O63  1  0.76295428  0.88115830  0.36067963  1
  O  O64  1  0.18496251  0.49980346  0.35929961  1
  O  O65  1  0.68341995  0.49593692  0.35566831  1
  O  O66  1  0.06863034  0.50838029  0.86017984  1
  O  O67  1  0.56398039  0.50271772  0.85484864  1
  O  O68  1  0.18335839  0.87013911  0.85608854  1
  O  O69  1  0.68858528  0.88159105  0.85668871  1
  O  O70  1  0.26278096  0.64709664  0.85990417  1
  O  O71  1  0.74712790  0.63576736  0.85908117  1
  O  O72  1  0.01217052  0.83622230  0.40784888  1
  O  O73  1  0.49502501  0.81481456  0.40503491  1
  O  O74  1  0.40795495  0.99042900  0.41095111  1
  O  O75  1  0.90503461  0.99535715  0.40697300  1
  O  O76  1  0.08541114  0.17647130  0.41084896  1
  O  O77  1  0.58412739  0.17607470  0.40162703  1
  O  O78  1  0.99424668  0.17519700  0.90518629  1
  O  O79  1  0.51049291  0.18431978  0.90719179  1
  O  O80  1  0.08500854  0.99463525  0.90081410  1
  O  O81  1  0.58035267  0.97751432  0.91153418  1
  O  O82  1  0.40510236  0.81672573  0.90760492  1
  O  O83  1  0.90761919  0.82310236  0.91056048  1
  O  O84  1  0.48575020  0.15733515  0.58551260  1
  O  O85  1  0.98799980  0.16156620  0.58480087  1
  O  O86  1  0.08739771  0.01619462  0.58659909  1
  O  O87  1  0.59304754  0.02856714  0.58678083  1
  O  O88  1  0.41620106  0.81148173  0.58548392  1
  O  O89  1  0.92080375  0.79875408  0.58386490  1
  O  O90  1  0.48972493  0.81997039  0.08419292  1
  O  O91  1  0.98525451  0.81281758  0.08485301  1
  O  O92  1  0.42402237  0.04292878  0.08442376  1
  O  O93  1  0.91682246  0.02206831  0.08489266  1
  O  O94  1  0.09420500  0.15725590  0.08615481  1
  O  O95  1  0.59778355  0.17839136  0.08202396  1
  O  O96  1  0.34749848  0.16015735  0.75459752  1
  O  O97  1  0.84244550  0.15327524  0.75350678  1
  O  O98  1  0.23375937  0.31725680  0.75208399  1
  O  O99  1  0.72476968  0.30339643  0.74821920  1
  O  O100  1  0.41960819  0.53675411  0.75257952  1
  O  O101  1  0.92974910  0.53837441  0.75277565  1
  O  O102  1  0.34147413  0.52883426  0.25480064  1
  O  O103  1  0.84461020  0.53218440  0.25120778  1
  O  O104  1  0.43021121  0.31992837  0.25195369  1
  O  O105  1  0.91908690  0.30185927  0.25244230  1
  O  O106  1  0.22536712  0.14647673  0.24750922  1
  O  O107  1  0.73255484  0.15271292  0.25026203  1
  O  O108  1  0.32666043  0.51076458  0.91526083  1
  O  O109  1  0.81880507  0.49290291  0.92748832  1
  O  O110  1  0.42745470  0.35932398  0.92556895  1
  O  O111  1  0.92265956  0.36283616  0.92464988  1
  O  O112  1  0.25590189  0.15929932  0.92679526  1
  O  O113  1  0.75316064  0.14635293  0.92883520  1
  O  O114  1  0.31610617  0.14155973  0.42598390  1
  O  O115  1  0.82336642  0.14123863  0.41729132  1
  O  O116  1  0.25282505  0.35789574  0.42548223  1
  O  O117  1  0.75441215  0.34925294  0.42592205  1
  O  O118  1  0.42290580  0.48247299  0.42355509  1
  O  O119  1  0.92403250  0.49414349  0.42504343  1
  O  O120  1  0.17073004  0.47059741  0.08188966  1
  O  O121  1  0.67551460  0.48929600  0.07167853  1
  O  O122  1  0.06690440  0.66474314  0.08311835  1
  O  O123  1  0.58260397  0.65871027  0.07032319  1
  O  O124  1  0.26895232  0.86698617  0.07811000  1
  O  O125  1  0.76029199  0.85558683  0.07499325  1
  O  O126  1  0.16742304  0.83662898  0.57055921  1
  O  O127  1  0.66967403  0.86814067  0.58258766  1
  O  O128  1  0.25905085  0.65745448  0.57570865  1
  O  O129  1  0.76550877  0.66673421  0.57834901  1
  O  O130  1  0.08023531  0.49816258  0.56978532  1
  O  O131  1  0.56833611  0.46837689  0.58244383  1
  O  O132  1  0.14433888  0.83311961  0.25112574  1
  O  O133  1  0.64625082  0.81007026  0.25652234  1
  O  O134  1  0.25572319  0.69908925  0.25526912  1
  O  O135  1  0.76029201  0.70737281  0.25692557  1
  O  O136  1  0.09168984  0.48254234  0.25421445  1
  O  O137  1  0.58559086  0.46199140  0.25387707  1
  O  O138  1  0.14593281  0.48391994  0.75667262  1
  O  O139  1  0.64356589  0.45418437  0.75285721  1
  O  O140  1  0.08535723  0.70822909  0.75380768  1
  O  O141  1  0.59216880  0.70103208  0.75400490  1
  O  O142  1  0.26021596  0.81415167  0.75641116  1
  O  O143  1  0.75634099  0.81204167  0.75387907  1
loop_
_geom_bond_atom_site_label_1
_geom_bond_atom_site_label_2
_geom_bond_distance
_geom_bond_site_symmetry_2
Na0 O135 2.374284 1_545
Na0 O107 2.381626 1_555
Na0 O105 2.391275 1_555
Na0 O133 2.591156 1_545
Na0 O33 2.650030 1_555
Na0 O63 2.654084 1_545
Na1 O102 2.374565 1_555
Na1 O136 2.376934 1_555
Na1 O106 2.488235 1_555
Na1 O34 2.496232 1_555
Na1 O134 2.520795 1_555
Na1 O64 2.763199 1_555
Na2 O107 2.397882 1_555
Na2 O103 2.417074 1_555
Na2 O137 2.435218 1_555
Na2 O35 2.615243 1_555
Na2 O65 2.622091 1_555
Na2 O135 2.694110 1_555
Na3 O103 2.417965 1_555
Na3 O105 2.418189 1_555
Na3 O132 2.428396 1_655
Na3 O60 2.518304 1_655
Na3 O136 2.543551 1_655
Na3 O31 2.706554 1_555
Na4 O30 2.300919 1_555
Na4 O133 2.368340 1_555
Na4 O102 2.463220 1_555
Na4 O104 2.471674 1_555
Na4 O137 2.749096 1_555
Na4 O23 2.845242 1_555
Na4 O61 2.940767 1_555
Na5 O98 2.352074 1_555
Na5 O100 2.365439 1_555
Na5 O142 2.401250 1_555
Na5 O70 2.626315 1_555
Na5 O138 2.628832 1_555
Na5 O28 2.720694 1_555
Na6 O138 2.368773 1_655
Na6 O25 2.401561 1_555
Na6 O97 2.440241 1_555
Na6 O101 2.454071 1_555
Na6 O140 2.744446 1_655
Na6 O14 2.887340 1_655
Na6 O66 2.919356 1_655
Na7 O100 2.388595 1_555
Na7 O96 2.389491 1_555
Na7 O139 2.418208 1_555
Na7 O141 2.518672 1_555
Na7 O67 2.561348 1_555
Na7 O24 2.683880 1_555
Na8 O26 2.304751 1_555
Na8 O98 2.432130 1_555
Na8 O96 2.454581 1_555
Na8 O140 2.461300 1_545
Na8 O142 2.687830 1_545
Na8 O68 2.759341 1_545
Na9 O141 2.361911 1_555
Na9 O97 2.386261 1_565
Na9 O99 2.501873 1_565
Na9 O143 2.511946 1_555
Na9 O27 2.520559 1_565
Na9 O69 2.664832 1_555
Na10 O130 2.412458 1_555
Na10 O86 2.507467 1_555
Na10 O56 2.530926 1_555
Na10 O85 2.562030 1_455
Na10 O128 2.572184 1_555
Na10 O14 2.760039 1_555
Na10 O42 2.830808 1_555
Na11 O89 2.358549 1_455
Na11 O126 2.382695 1_555
Na11 O86 2.548335 1_565
Na11 O130 2.552707 1_555
Na11 O25 2.707537 1_455
Na11 O16 2.737783 1_555
Na11 O58 2.850100 1_555
Na12 O110 2.430994 1_555
Na12 O81 2.444175 1_555
Na12 O82 2.474417 1_555
Na12 O108 2.513735 1_555
Na12 O8 2.733471 1_555
Na12 O53 2.775091 1_555
Na12 O38 2.801591 1_556
Na12 O67 2.830836 1_555
Na13 O52 2.446029 1_655
Na13 O83 2.457968 1_555
Na13 O80 2.471765 1_655
Na13 O111 2.537466 1_555
Na13 O39 2.675632 1_556
Na13 O109 2.752650 1_555
Na13 O9 2.823538 1_555
Na13 O66 2.919170 1_655
Na14 O78 2.325864 1_555
Na14 O113 2.471051 1_555
Na14 O83 2.519725 1_545
Na14 O11 2.695373 1_555
Na14 O111 2.700822 1_555
Na14 O49 2.758277 1_545
Na14 O41 2.762474 1_556
Na14 O69 2.807447 1_545
Na15 O57 2.468885 1_555
Na15 O77 2.472432 1_555
Na15 O74 2.483713 1_545
Na15 O118 2.504610 1_555
Na15 O46 2.665406 1_555
Na15 O4 2.777948 1_555
Na15 O114 2.780107 1_555
Na15 O61 2.918314 1_555
Na16 O72 2.365170 1_545
Na16 O76 2.397050 1_555
Na16 O114 2.436345 1_555
Na16 O116 2.629004 1_555
Na16 O0 2.681501 1_555
Na16 O58 2.814346 1_545
Na16 O62 2.857943 1_545
Na16 O42 2.870299 1_555
Na17 O73 2.314413 1_555
Na17 O116 2.456384 1_555
Na17 O74 2.543071 1_555
Na17 O118 2.650467 1_555
Na17 O2 2.695831 1_555
Na17 O44 2.740398 1_555
Na17 O54 2.823544 1_555
Na17 O64 2.828066 1_555
Na18 O85 2.461947 1_565
Na18 O89 2.473231 1_555
Na18 O75 2.568990 1_555
Na18 O76 2.577624 1_665
Na18 O86 2.590795 1_665
Na18 O72 2.626569 1_655
Na19 O87 2.382684 1_555
Na19 O77 2.547230 1_555
Na19 O84 2.570746 1_555
Na19 O73 2.642023 1_545
Na19 O88 2.666689 1_545
Na19 O74 2.716057 1_545
Na20 O94 2.384151 1_556
Na20 O91 2.556669 1_446
Na20 O80 2.586869 1_545
Na20 O93 2.620929 1_456
Na20 O78 2.648097 1_455
Na20 O83 2.718931 1_445
Na21 O95 2.402485 1_555
Na21 O92 2.449673 1_555
Na21 O79 2.525161 1_554
Na21 O81 2.536909 1_544
Na21 O90 2.537816 1_545
Na21 O82 2.780350 1_544
Na22 O96 2.407234 1_555
Na22 O98 2.454903 1_555
Na22 O112 2.510840 1_555
Na22 O108 2.534034 1_555
Na22 O100 2.559683 1_555
Na22 O110 2.682042 1_555
Na23 O97 2.496821 1_555
Na23 O101 2.539016 1_555
Na23 O99 2.565915 1_555
Na23 O111 2.624890 1_555
Na23 O109 2.629181 1_555
Na23 O113 2.670597 1_555
Na24 O102 2.421648 1_555
Na24 O104 2.500726 1_555
Na24 O118 2.515326 1_555
Na24 O116 2.645924 1_555
Na24 O114 2.652704 1_555
Na24 O106 2.677998 1_555
Na25 O103 2.490269 1_555
Na25 O105 2.497457 1_555
Na25 O107 2.510145 1_555
Na25 O115 2.524495 1_555
Na25 O117 2.542975 1_555
Na25 O119 2.618115 1_555
Na26 O134 2.454172 1_555
Na26 O124 2.579014 1_555
Na26 O136 2.583481 1_555
Na26 O132 2.604890 1_555
Na26 O120 2.607513 1_555
Na26 O122 2.638627 1_555
Na27 O123 2.421945 1_555
Na27 O125 2.569593 1_555
Na27 O133 2.598428 1_555
Na27 O121 2.644523 1_555
Na27 O137 2.687481 1_555
Na27 O135 2.748717 1_555
Na28 O126 2.508432 1_555
Na28 O142 2.552214 1_555
Na28 O128 2.565465 1_555
Na28 O140 2.651714 1_555
Na28 O138 2.659950 1_555
Na28 O130 2.665380 1_555
Na29 O143 2.451483 1_555
Na29 O129 2.555724 1_555
Na29 O141 2.564105 1_555
Na29 O127 2.572396 1_555
Na29 O131 2.621076 1_555
Na29 O139 2.652559 1_555
Ca0 O26 2.186360 1_555
Ca0 O24 2.203591 1_555
Ca0 O98 2.269848 1_555
Ca0 O28 2.283764 1_555
Ca0 O96 2.293270 1_555
Ca0 O100 2.334524 1_555
Ca1 O25 2.158401 1_555
Ca1 O29 2.204798 1_555
Ca1 O27 2.205417 1_555
Ca1 O97 2.299410 1_555
Ca1 O101 2.366950 1_555
Ca1 O99 2.383589 1_555
Ca2 O30 2.144334 1_555
Ca2 O32 2.202167 1_555
Ca2 O34 2.221939 1_555
Ca2 O102 2.320157 1_555
Ca2 O104 2.354512 1_555
Ca2 O106 2.414324 1_555
Ca3 O31 2.200999 1_555
Ca3 O107 2.237860 1_555
Ca3 O33 2.258728 1_555
Ca3 O35 2.279012 1_555
Ca3 O103 2.288413 1_555
Ca3 O105 2.310492 1_555
Ca4 O50 2.128242 1_554
Ca4 O52 2.164323 1_554
Ca4 O48 2.269053 1_554
Ca4 O122 2.290232 1_555
Ca4 O124 2.312604 1_555
Ca4 O120 2.342670 1_555
Ca5 O59 2.118596 1_555
Ca5 O57 2.156697 1_555
Ca5 O55 2.275681 1_555
Ca5 O131 2.288385 1_555
Ca5 O129 2.305060 1_555
Ca5 O127 2.338586 1_555
O0 S0 1.492944 1_545
O0 Ti0 2.116081 1_445
O1 Si0 1.621049 1_545
O1 Ti1 1.822648 1_545
O2 Si1 1.611780 1_555
O2 Ti1 1.898518 1_555
O3 Si2 1.644271 1_555
O3 Ti0 1.827184 1_555
O4 S1 1.465333 1_555
O4 Ti1 2.213341 1_545
O5 Si3 1.637938 1_555
O5 Ti0 1.837171 1_445
O6 Si4 1.621494 1_555
O6 Ti2 1.831902 1_555
O7 S2 1.483203 1_555
O7 Ti3 2.044470 1_555
O8 Si5 1.633328 1_555
O8 Ti3 1.895188 1_565
O9 S3 1.460004 1_655
O9 Ti2 2.206787 1_665
O10 Si6 1.641586 1_545
O10 Ti3 1.817635 1_555
O11 Si7 1.615697 1_545
O11 Ti2 1.887947 1_655
O12 Si6 1.688377 1_555
O12 Ti5 1.814761 1_555
O13 Si7 1.673467 1_555
O13 Ti4 1.844970 1_665
O14 Si4 1.692830 1_555
O14 Ti4 1.850367 1_555
O15 S2 1.494729 1_555
O15 Ti5 2.097144 1_545
O16 S3 1.477427 1_555
O16 Ti4 2.382680 1_565
O17 Si5 1.698947 1_555
O17 Ti5 1.802842 1_555
O18 Si1 1.680549 1_555
O18 Ti7 1.809573 1_555
O19 Si2 1.689935 1_555
O19 Ti6 1.815145 1_565
O20 Si3 1.692806 1_555
O20 Ti6 1.802311 1_455
O21 S1 1.466867 1_555
O21 Ti7 2.375949 1_545
O22 S0 1.491166 1_555
O22 Ti6 2.131523 1_465
O23 Si0 1.680734 1_555
O23 Ti7 1.828985 1_555
O24 S4 1.469228 1_555
O25 Si8 1.601201 1_555
O26 Si9 1.586345 1_555
O27 S5 1.482811 1_555
O28 S6 1.474023 1_555
O29 S7 1.463275 1_555
O30 Si10 1.592413 1_555
O31 S8 1.470744 1_555
O32 S9 1.459546 1_555
O33 S10 1.471948 1_555
O34 S11 1.481790 1_555
O35 S12 1.473886 1_555
O36 S11 1.488645 1_555
O36 Ti8 2.256472 1_554
O37 S12 1.509193 1_555
O37 Ti9 2.082376 1_554
O38 Si10 1.683949 1_555
O38 Ti8 1.911854 1_554
O39 S8 1.512134 1_555
O39 Ti9 2.233097 1_554
O40 S9 1.532608 1_555
O40 Ti8 1.950857 1_554
O41 S10 1.485732 1_555
O41 Ti9 2.306772 1_554
O42 Si9 1.704870 1_555
O42 Ti10 1.887599 1_555
O43 S5 1.482771 1_555
O43 Ti11 2.279634 1_555
O44 S6 1.485451 1_555
O44 Ti10 2.282869 1_555
O45 S7 1.509367 1_555
O45 Ti11 2.075009 1_555
O46 S4 1.508990 1_555
O46 Ti10 2.264443 1_555
O47 Si8 1.660126 1_555
O47 Ti11 1.892748 1_555
O48 S13 1.437186 1_555
O49 Si11 1.615102 1_555
O49 Ti12 1.921086 1_556
O50 Si12 1.555162 1_555
O51 Si13 1.634943 1_555
O51 Ti12 1.812552 1_556
O52 Si14 1.579309 1_555
O53 Si15 1.620241 1_555
O53 Ti12 1.859935 1_556
O54 Si16 1.626962 1_555
O54 Ti13 1.881371 1_555
O55 S14 1.442711 1_555
O56 Si17 1.609280 1_555
O56 Ti13 1.963490 1_555
O57 Si18 1.576911 1_555
O58 Si19 1.646436 1_555
O58 Ti13 1.842331 1_555
O59 Si20 1.557057 1_555
O60 Si19 1.636880 1_555
O60 Ti14 1.969308 1_555
O61 Si20 1.699824 1_555
O61 Ti15 1.869460 1_555
O62 Si16 1.654131 1_555
O62 Ti14 1.895876 1_555
O63 S14 1.498235 1_555
O63 Ti15 2.180668 1_555
O64 Si17 1.666440 1_555
O64 Ti14 1.869668 1_555
O65 Si18 1.719902 1_555
O65 Ti15 1.856607 1_555
O66 Si12 1.686639 1_555
O66 Ti16 1.889117 1_555
O67 Si13 1.644452 1_555
O67 Ti17 2.008467 1_555
O68 Si14 1.723942 1_555
O68 Ti16 1.847011 1_555
O69 Si15 1.670094 1_555
O69 Ti17 1.894028 1_555
O70 S13 1.501287 1_555
O70 Ti16 2.153339 1_555
O71 Si11 1.656771 1_555
O71 Ti17 1.860102 1_555
O72 Si19 1.639279 1_555
O72 Ti0 2.018255 1_455
O73 Si20 1.644097 1_555
O73 Ti1 1.852292 1_555
O74 Si16 1.612871 1_555
O74 Ti1 2.100633 1_555
O75 S14 1.509245 1_555
O75 Ti0 1.997151 1_555
O76 Si17 1.623726 1_555
O76 Ti0 2.047377 1_445
O77 Si18 1.643937 1_555
O77 Ti1 1.903839 1_545
O78 Si12 1.638080 1_655
O78 Ti2 1.861111 1_655
O79 Si13 1.623153 1_555
O79 Ti3 1.937221 1_555
O80 Si14 1.645637 1_555
O80 Ti2 1.912070 1_565
O81 Si15 1.614190 1_555
O81 Ti3 2.039074 1_565
O82 S13 1.512694 1_555
O82 Ti3 2.043847 1_565
O83 Si11 1.628658 1_555
O83 Ti2 2.099727 1_665
O84 S4 1.507005 1_555
O84 Ti5 2.199028 1_545
O85 Si8 1.667601 1_555
O85 Ti4 1.867250 1_655
O86 Si9 1.667742 1_555
O86 Ti4 2.070361 1_555
O87 S5 1.517889 1_555
O87 Ti5 2.143941 1_545
O88 S6 1.503265 1_555
O88 Ti5 2.081625 1_555
O89 S7 1.509143 1_555
O89 Ti4 2.283902 1_665
O90 Si10 1.691465 1_555
O90 Ti7 1.840302 1_555
O91 S8 1.502409 1_555
O91 Ti6 2.218009 1_565
O92 S9 1.489133 1_555
O92 Ti7 2.241195 1_545
O93 S10 1.525930 1_555
O93 Ti6 2.041486 1_555
O94 S11 1.517212 1_555
O94 Ti6 2.159549 1_455
O95 S12 1.482421 1_555
O95 Ti7 2.367676 1_545
O96 Si6 1.594028 1_545
O97 Si7 1.634579 1_545
O98 Si4 1.598221 1_555
O99 S2 1.476688 1_555
O100 Si5 1.598680 1_555
O101 S3 1.480785 1_655
O102 Si1 1.630558 1_555
O103 Si2 1.598731 1_555
O104 S1 1.482438 1_555
O105 Si3 1.599082 1_655
O106 S0 1.476528 1_545
O107 Si0 1.601806 1_545
O108 S13 1.494375 1_555
O108 Ti8 2.360927 1_555
O109 Si11 1.675623 1_555
O109 Ti9 1.825424 1_555
O110 Si13 1.677340 1_555
O110 Ti8 1.881624 1_555
O111 Si12 1.703249 1_655
O111 Ti9 1.898830 1_555
O112 Si14 1.656556 1_545
O112 Ti8 1.927906 1_555
O113 Si15 1.656634 1_545
O113 Ti9 1.881796 1_555
O114 Si16 1.669647 1_545
O114 Ti10 1.877109 1_555
O115 S14 1.490999 1_545
O115 Ti11 2.179956 1_555
O116 Si17 1.684970 1_555
O116 Ti10 1.909833 1_555
O117 Si18 1.653976 1_555
O117 Ti11 1.914413 1_555
O118 Si20 1.678777 1_555
O118 Ti10 1.997850 1_555
O119 Si19 1.650623 1_655
O119 Ti11 1.846995 1_555
O120 S11 1.462242 1_555
O121 S12 1.481428 1_555
O121 Ti12 2.173267 1_555
O122 S8 1.460811 1_455
O123 Si10 1.645785 1_555
O123 Ti12 1.897112 1_555
O124 S9 1.453243 1_565
O125 S10 1.469517 1_565
O125 Ti12 2.300543 1_555
O126 Si9 1.646461 1_565
O126 Ti13 1.940483 1_555
O127 S5 1.463568 1_565
O128 S6 1.483775 1_555
O128 Ti13 2.304117 1_555
O129 S7 1.450461 1_555
O130 Si8 1.647095 1_455
O130 Ti13 1.971576 1_555
O131 S4 1.461722 1_555
O132 S0 1.481300 1_555
O132 Ti14 2.352557 1_555
O133 Si0 1.643485 1_555
O133 Ti15 2.084269 1_555
O134 Si1 1.647401 1_555
O134 Ti14 1.955940 1_555
O135 Si2 1.640140 1_555
O135 Ti15 2.042141 1_555
O136 Si3 1.634512 1_555
O136 Ti14 2.076568 1_555
O137 S1 1.541563 1_555
O137 Ti15 2.122637 1_555
O138 Si4 1.645010 1_555
O138 Ti16 2.076148 1_555
O139 S2 1.478332 1_555
O139 Ti17 2.348347 1_555
O140 S3 1.535044 1_555
O140 Ti16 2.127342 1_555
O141 Si5 1.637990 1_555
O141 Ti17 2.091692 1_555
O142 Si6 1.644523 1_555
O142 Ti16 2.045081 1_555
O143 Si7 1.652033 1_555
O143 Ti17 1.949506 1_555
