# generated using pymatgen
data_Na2Zr2Si3Ge2(SO8)3
_symmetry_space_group_name_H-M   'P 1'
_cell_length_a   8.78119004
_cell_length_b   8.75952327
_cell_length_c   22.77643979
_cell_angle_alpha   89.92953340
_cell_angle_beta   90.49167605
_cell_angle_gamma   119.97547344
_symmetry_Int_Tables_number   1
_chemical_formula_structural   Na2Zr2Si3Ge2(SO8)3
_chemical_formula_sum   'Na6 Zr6 Si9 Ge6 S9 O72'
_cell_volume   1517.53565197
_cell_formula_units_Z   3
loop_
 _symmetry_equiv_pos_site_id
 _symmetry_equiv_pos_as_xyz
  1  'x, y, z'
loop_
 _atom_site_type_symbol
 _atom_site_label
 _atom_site_symmetry_multiplicity
 _atom_site_fract_x
 _atom_site_fract_y
 _atom_site_fract_z
 _atom_site_occupancy
  Na  Na0  1  0.97841070  0.97370576  0.49316812  1
  Na  Na1  1  0.99875512  0.98288686  0.99652457  1
  Na  Na2  1  0.65504341  0.31886949  0.83522106  1
  Na  Na3  1  0.67807770  0.32222614  0.33351275  1
  Na  Na4  1  0.31363886  0.66027149  0.16985389  1
  Na  Na5  1  0.35205920  0.66119652  0.66823321  1
  Zr  Zr0  1  0.99051468  0.00441883  0.65060961  1
  Zr  Zr1  1  0.00547008  0.99423722  0.14335772  1
  Zr  Zr2  1  0.65528274  0.33324529  0.69366385  1
  Zr  Zr3  1  0.67956514  0.34833853  0.47471080  1
  Zr  Zr4  1  0.35169318  0.68366562  0.51418023  1
  Zr  Zr5  1  0.32303194  0.67628020  0.30941071  1
  Si  Si0  1  0.30205631  0.02156885  0.24816052  1
  Si  Si1  1  0.00228491  0.27985890  0.24925064  1
  Si  Si2  1  0.28861110  0.30799844  0.75662861  1
  Si  Si3  1  0.71915897  0.00036724  0.76007206  1
  Si  Si4  1  0.66405626  0.62972459  0.58469285  1
  Si  Si5  1  0.93553431  0.59655394  0.08026776  1
  Si  Si6  1  0.32941216  0.95562117  0.91625827  1
  Si  Si7  1  0.64760519  0.96416380  0.41115988  1
  Si  Si8  1  0.04558599  0.68663526  0.41318180  1
  Ge  Ge0  1  0.01275645  0.01232976  0.35145667  1
  Ge  Ge1  1  0.02780087  0.01607678  0.84962696  1
  Ge  Ge2  1  0.69365387  0.34071956  0.19587137  1
  Ge  Ge3  1  0.64696098  0.32369586  0.98147724  1
  Ge  Ge4  1  0.30021061  0.66950176  0.01911945  1
  Ge  Ge5  1  0.35837492  0.68706993  0.81489223  1
  S  S0  1  0.71551318  0.70483733  0.24883045  1
  S  S1  1  0.01245124  0.71700304  0.75585816  1
  S  S2  1  0.96117714  0.33861137  0.58474566  1
  S  S3  1  0.37401356  0.04133671  0.58403286  1
  S  S4  1  0.64986549  0.03598312  0.07889039  1
  S  S5  1  0.38117472  0.34609029  0.07831536  1
  S  S6  1  0.61632677  0.66376813  0.92043371  1
  S  S7  1  0.04298915  0.37878834  0.91800639  1
  S  S8  1  0.32543199  0.36919038  0.41377858  1
  O  O0  1  0.20822360  0.04724690  0.30580605  1
  O  O1  1  0.82211694  0.78356026  0.30171392  1
  O  O2  1  0.96803443  0.15734225  0.30691344  1
  O  O3  1  0.21315906  0.17542511  0.81338474  1
  O  O4  1  0.97787148  0.79579530  0.80876690  1
  O  O5  1  0.84322944  0.01876739  0.81802341  1
  O  O6  1  0.79326451  0.96092420  0.70024385  1
  O  O7  1  0.17457420  0.21996415  0.69762854  1
  O  O8  1  0.03745221  0.82020802  0.70220784  1
  O  O9  1  0.79237694  0.80638221  0.19430570  1
  O  O10  1  0.00481073  0.18483564  0.18833282  1
  O  O11  1  0.18103332  0.97813002  0.18876633  1
  O  O12  1  0.87206486  0.34744766  0.63816236  1
  O  O13  1  0.47967647  0.12338242  0.63872939  1
  O  O14  1  0.65266071  0.51482862  0.64344303  1
  O  O15  1  0.84545084  0.47873198  0.13996486  1
  O  O16  1  0.62188764  0.11053643  0.13231372  1
  O  O17  1  0.48453819  0.36885696  0.13020331  1
  O  O18  1  0.45182091  0.30384902  0.02318346  1
  O  O19  1  0.81669166  0.50289513  0.02039653  1
  O  O20  1  0.67455324  0.14503854  0.02472123  1
  O  O21  1  0.45927079  0.14075981  0.53146280  1
  O  O22  1  0.67868629  0.52865571  0.52754034  1
  O  O23  1  0.85474598  0.31245981  0.53115015  1
  O  O24  1  0.52950973  0.68925795  0.97212040  1
  O  O25  1  0.15487877  0.45756646  0.97365426  1
  O  O26  1  0.28919798  0.83402217  0.97563833  1
  O  O27  1  0.56096637  0.84557899  0.47142516  1
  O  O28  1  0.30603064  0.45226810  0.46829772  1
  O  O29  1  0.15788453  0.70666087  0.47335147  1
  O  O30  1  0.12448784  0.63583022  0.35761508  1
  O  O31  1  0.52002832  0.86336052  0.35640252  1
  O  O32  1  0.35440420  0.47544698  0.36178098  1
  O  O33  1  0.12496424  0.48957594  0.86667546  1
  O  O34  1  0.36703035  0.86159030  0.86075341  1
  O  O35  1  0.50926937  0.63109284  0.86485326  1
  O  O36  1  0.04108699  0.86722315  0.40302265  1
  O  O37  1  0.84092021  0.98546830  0.40466349  1
  O  O38  1  0.16242174  0.19596423  0.41091169  1
  O  O39  1  0.02751962  0.20072073  0.91512501  1
  O  O40  1  0.14918302  0.97312192  0.90745727  1
  O  O41  1  0.79419213  0.81761825  0.91553070  1
  O  O42  1  0.98262916  0.17989402  0.58710345  1
  O  O43  1  0.20016444  0.02775381  0.58951878  1
  O  O44  1  0.84274321  0.82313071  0.58839623  1
  O  O45  1  0.96056570  0.79272362  0.08239204  1
  O  O46  1  0.80745517  0.01655328  0.08118626  1
  O  O47  1  0.19948287  0.18932322  0.08063298  1
  O  O48  1  0.70251592  0.17551988  0.75316853  1
  O  O49  1  0.48512698  0.33197103  0.75152787  1
  O  O50  1  0.85766428  0.53893047  0.75067206  1
  O  O51  1  0.70492808  0.52765706  0.24308842  1
  O  O52  1  0.82546141  0.30467114  0.24654100  1
  O  O53  1  0.49339328  0.20338651  0.23485198  1
  O  O54  1  0.62930700  0.49642886  0.92443824  1
  O  O55  1  0.86337141  0.35793608  0.92406489  1
  O  O56  1  0.50739337  0.15562467  0.92695291  1
  O  O57  1  0.65406086  0.15099075  0.42112461  1
  O  O58  1  0.47635031  0.33944523  0.42026402  1
  O  O59  1  0.84587167  0.51860368  0.41843573  1
  O  O60  1  0.37209139  0.51184056  0.06928241  1
  O  O61  1  0.13607789  0.61755018  0.07468394  1
  O  O62  1  0.48803506  0.85355182  0.07198014  1
  O  O63  1  0.35189530  0.86187433  0.58250317  1
  O  O64  1  0.48674470  0.64528849  0.58245493  1
  O  O65  1  0.13412380  0.49817428  0.58079817  1
  O  O66  1  0.33290174  0.85363957  0.25089304  1
  O  O67  1  0.53680067  0.67595628  0.25220289  1
  O  O68  1  0.17704090  0.47135535  0.25095204  1
  O  O69  1  0.29491335  0.49597560  0.76913189  1
  O  O70  1  0.17317431  0.70317488  0.76280279  1
  O  O71  1  0.52099639  0.82584667  0.76385663  1
loop_
_geom_bond_atom_site_label_1
_geom_bond_atom_site_label_2
_geom_bond_distance
_geom_bond_site_symmetry_2
Na0 O37 2.369350 1_555
Na0 O36 2.434253 1_655
Na0 O44 2.516040 1_555
Na0 O38 2.609746 1_665
Na0 O42 2.789662 1_565
Na0 O43 2.799983 1_665
Na1 O40 2.454969 1_655
Na1 O41 2.465106 1_555
Na1 O45 2.481366 1_556
Na1 O39 2.580647 1_665
Na1 O47 2.610023 1_666
Na1 O46 2.679395 1_566
Na2 O48 2.405276 1_555
Na2 O49 2.448452 1_555
Na2 O56 2.505510 1_555
Na2 O55 2.621268 1_555
Na2 O54 2.639368 1_555
Na2 O50 2.685589 1_555
Na3 O52 2.422028 1_555
Na3 O57 2.441317 1_555
Na3 O59 2.509559 1_555
Na3 O53 2.649453 1_555
Na3 O51 2.666587 1_555
Na3 O58 2.718923 1_555
Na4 O68 2.374050 1_555
Na4 O66 2.453683 1_555
Na4 O61 2.575016 1_555
Na4 O67 2.654330 1_555
Na4 O62 2.763964 1_555
Na4 O60 2.809882 1_555
Na5 O64 2.332432 1_555
Na5 O71 2.615075 1_555
Na5 O65 2.622645 1_555
Na5 O63 2.626174 1_555
Na5 O69 2.629370 1_555
Na5 O70 2.807032 1_555
Ge0 O2 1.812589 1_455
Ge0 O36 1.834178 1_545
Ge0 O37 1.864601 1_445
Ge0 O0 1.904218 1_555
Ge0 O38 2.002700 1_555
Ge0 O1 2.173148 1_445
Ge1 O3 1.740398 1_555
Ge1 O5 1.778665 1_455
Ge1 O40 1.840665 1_545
Ge1 O4 1.983326 1_445
Ge1 O39 2.202603 1_555
Ge1 O41 2.442595 1_445
Ge2 O52 1.764261 1_555
Ge2 O53 1.799471 1_555
Ge2 O15 1.809638 1_555
Ge2 O51 1.920476 1_555
Ge2 O16 2.297823 1_555
Ge2 O17 2.464543 1_555
Ge3 O19 1.764677 1_556
Ge3 O56 1.840409 1_555
Ge3 O18 1.897028 1_556
Ge3 O20 1.961863 1_556
Ge3 O54 2.056028 1_555
Ge3 O55 2.209828 1_555
Ge4 O26 1.789153 1_554
Ge4 O61 1.805689 1_555
Ge4 O25 1.939594 1_554
Ge4 O62 2.020552 1_555
Ge4 O60 2.113259 1_555
Ge4 O24 2.217760 1_554
Ge5 O71 1.777223 1_555
Ge5 O69 1.805818 1_555
Ge5 O34 1.822170 1_555
Ge5 O35 1.978132 1_555
Ge5 O70 2.065912 1_555
Ge5 O33 2.253467 1_555
O0 Si0 1.630294 1_555
O1 S0 1.462969 1_555
O2 Si1 1.627226 1_655
O3 Si2 1.643410 1_555
O4 S1 1.496162 1_655
O5 Si3 1.659980 1_555
O6 Si3 1.625038 1_565
O6 Zr0 1.948443 1_565
O7 Si2 1.615880 1_555
O7 Zr0 2.061531 1_455
O8 S1 1.470449 1_555
O8 Zr0 2.192336 1_465
O9 S0 1.483497 1_555
O9 Zr1 2.124021 1_655
O10 Si1 1.624888 1_555
O10 Zr1 1.962331 1_545
O11 Si0 1.636070 1_565
O11 Zr1 1.912041 1_555
O12 S2 1.475001 1_555
O12 Zr2 2.245322 1_555
O13 S3 1.498477 1_555
O13 Zr2 2.112502 1_555
O14 Si4 1.646766 1_555
O14 Zr2 1.967371 1_555
O15 Si5 1.654950 1_555
O16 S4 1.461105 1_555
O17 S5 1.435830 1_555
O18 S5 1.530503 1_555
O19 Si5 1.656647 1_555
O20 S4 1.508812 1_555
O21 S3 1.453933 1_555
O21 Zr3 2.289423 1_555
O22 Si4 1.616832 1_555
O22 Zr3 1.989906 1_555
O23 S2 1.477585 1_555
O23 Zr3 2.136767 1_555
O24 S6 1.484276 1_555
O25 S7 1.533386 1_555
O26 Si6 1.648395 1_555
O27 Si7 1.663322 1_555
O27 Zr4 1.939012 1_555
O28 S8 1.493416 1_555
O28 Zr4 2.132421 1_555
O29 Si8 1.638864 1_555
O29 Zr4 2.028950 1_555
O30 Si8 1.613819 1_555
O30 Zr5 1.945564 1_555
O31 Si7 1.606366 1_555
O31 Zr5 1.990800 1_555
O32 S8 1.448961 1_555
O32 Zr5 2.250990 1_555
O33 S7 1.463017 1_555
O34 Si6 1.633207 1_555
O35 S6 1.509918 1_555
O36 Si8 1.618266 1_555
O37 Si7 1.620505 1_555
O38 S8 1.477807 1_555
O39 S7 1.498022 1_555
O40 Si6 1.674904 1_555
O41 S6 1.472210 1_555
O42 S2 1.494193 1_555
O42 Zr0 2.135129 1_555
O43 S3 1.477166 1_555
O43 Zr0 2.243723 1_455
O44 Si4 1.637395 1_555
O44 Zr0 2.031826 1_565
O45 Si5 1.620491 1_555
O45 Zr1 2.121453 1_655
O46 S4 1.476738 1_555
O46 Zr1 2.315934 1_645
O47 S5 1.498662 1_555
O47 Zr1 2.233899 1_545
O48 Si3 1.619595 1_555
O48 Zr2 2.115669 1_555
O49 Si2 1.636069 1_555
O49 Zr2 1.996677 1_555
O50 S1 1.474318 1_655
O50 Zr2 2.203857 1_555
O51 S0 1.513483 1_555
O52 Si1 1.672583 1_655
O53 Si0 1.668824 1_555
O54 S6 1.528516 1_555
O55 S7 1.501978 1_655
O56 Si6 1.682170 1_545
O57 Si7 1.625083 1_545
O57 Zr3 2.035124 1_555
O58 S8 1.479041 1_555
O58 Zr3 2.133448 1_555
O59 Si8 1.637106 1_655
O59 Zr3 1.962379 1_555
O60 S5 1.507113 1_555
O61 Si5 1.682649 1_455
O62 S4 1.524933 1_565
O63 S3 1.484944 1_565
O63 Zr4 2.204897 1_555
O64 Si4 1.629781 1_555
O64 Zr4 2.074373 1_555
O65 S2 1.465939 1_455
O65 Zr4 2.352470 1_555
O66 Si0 1.624389 1_565
O66 Zr5 2.014918 1_555
O67 S0 1.462168 1_555
O67 Zr5 2.295380 1_555
O68 Si1 1.611541 1_555
O68 Zr5 2.077395 1_555
O69 Si2 1.644764 1_555
O70 S1 1.482740 1_555
O71 Si3 1.648169 1_565
