# generated using pymatgen
data_Na4MgZrSi(PO6)2
_symmetry_space_group_name_H-M   'P 1'
_cell_length_a   9.15586053
_cell_length_b   9.17151450
_cell_length_c   22.34114950
_cell_angle_alpha   89.87259787
_cell_angle_beta   90.00000000
_cell_angle_gamma   119.94355540
_symmetry_Int_Tables_number   1
_chemical_formula_structural   Na4MgZrSi(PO6)2
_chemical_formula_sum   'Na24 Mg6 Zr6 Si6 P12 O72'
_cell_volume   1625.62989152
_cell_formula_units_Z   6
loop_
 _symmetry_equiv_pos_site_id
 _symmetry_equiv_pos_as_xyz
  1  'x, y, z'
loop_
 _atom_site_type_symbol
 _atom_site_label
 _atom_site_symmetry_multiplicity
 _atom_site_fract_x
 _atom_site_fract_y
 _atom_site_fract_z
 _atom_site_occupancy
  Na  Na0  1  0.63822608  0.01904101  0.24761544  1
  Na  Na1  1  0.37224628  0.35135034  0.24901898  1
  Na  Na2  1  0.98739087  0.62638320  0.24153601  1
  Na  Na3  1  0.63899233  0.62638320  0.74153601  1
  Na  Na4  1  0.97910406  0.35135034  0.74901898  1
  Na  Na5  1  0.38081492  0.01904101  0.74761544  1
  Na  Na6  1  0.31460726  0.35404547  0.58252398  1
  Na  Na7  1  0.03395347  0.69104530  0.57878517  1
  Na  Na8  1  0.64516109  0.94737049  0.57691801  1
  Na  Na9  1  0.30221040  0.94737049  0.07691801  1
  Na  Na10  1  0.65709282  0.69104530  0.07878517  1
  Na  Na11  1  0.03943921  0.35404547  0.08252398  1
  Na  Na12  1  0.98354894  0.68999413  0.91737293  1
  Na  Na13  1  0.70421031  0.02667119  0.90874442  1
  Na  Na14  1  0.31568425  0.28470784  0.91216750  1
  Na  Na15  1  0.96902258  0.28470784  0.41216750  1
  Na  Na16  1  0.32245988  0.02667119  0.40874442  1
  Na  Na17  1  0.70644419  0.68999413  0.41737293  1
  Na  Na18  1  0.99009791  0.99450156  0.49221954  1
  Na  Na19  1  0.00440365  0.99450156  0.99221954  1
  Na  Na20  1  0.66269102  0.32261548  0.82579935  1
  Na  Na21  1  0.65992546  0.32261548  0.32579935  1
  Na  Na22  1  0.32423324  0.66810784  0.15927298  1
  Na  Na23  1  0.34387360  0.66810784  0.65927298  1
  Mg  Mg0  1  0.00092464  0.00141000  0.34875592  1
  Mg  Mg1  1  0.00048536  0.00141000  0.84875592  1
  Mg  Mg2  1  0.66484640  0.33092144  0.68233594  1
  Mg  Mg3  1  0.66607604  0.33092144  0.18233594  1
  Mg  Mg4  1  0.32645954  0.66856379  0.01565222  1
  Mg  Mg5  1  0.34210325  0.66856379  0.51565222  1
  Zr  Zr0  1  0.99168851  0.99494828  0.64934528  1
  Zr  Zr1  1  0.00325977  0.99494828  0.14934528  1
  Zr  Zr2  1  0.66752562  0.33421507  0.98287090  1
  Zr  Zr3  1  0.66669045  0.33421507  0.48287090  1
  Zr  Zr4  1  0.33672859  0.67518951  0.31619389  1
  Zr  Zr5  1  0.33845991  0.67518951  0.81619389  1
  Si  Si0  1  0.30218084  0.00397439  0.25356802  1
  Si  Si1  1  0.70179355  0.00397439  0.75356802  1
  Si  Si2  1  0.66363916  0.62898908  0.58661782  1
  Si  Si3  1  0.96535092  0.62898908  0.08661782  1
  Si  Si4  1  0.33014627  0.96860917  0.91946184  1
  Si  Si5  1  0.63846190  0.96860917  0.41946184  1
  P  P0  1  0.70359136  0.70220782  0.25266917  1
  P  P1  1  -0.00040337  0.29460555  0.25191449  1
  P  P2  1  0.29500892  0.29460555  0.75191449  1
  P  P3  1  -0.00138354  0.70220782  0.75266917  1
  P  P4  1  0.96524344  0.33640546  0.58553117  1
  P  P5  1  0.36893719  0.03577093  0.58577242  1
  P  P6  1  0.66683474  0.03577093  0.08577242  1
  P  P7  1  0.37116301  0.33640546  0.08553117  1
  P  P8  1  0.62762536  0.66611506  0.91981890  1
  P  P9  1  0.03987431  0.37055568  0.91898576  1
  P  P10  1  0.33068037  0.37055568  0.41898576  1
  P  P11  1  0.03848870  0.66611506  0.41981890  1
  O  O0  1  0.21379687  0.02969778  0.31168280  1
  O  O1  1  0.81044225  0.78857971  0.30769772  1
  O  O2  1  0.97588488  0.18673072  0.30729357  1
  O  O3  1  0.21084585  0.18673072  0.80729357  1
  O  O4  1  0.97813747  0.78857971  0.80769772  1
  O  O5  1  0.81590091  0.02969778  0.81168280  1
  O  O6  1  0.79239105  0.97251292  0.69358570  1
  O  O7  1  0.18577809  0.20886562  0.69485810  1
  O  O8  1  0.03039941  0.81589671  0.69561676  1
  O  O9  1  0.78549730  0.81589671  0.19561676  1
  O  O10  1  0.02308753  0.20886562  0.19485810  1
  O  O11  1  0.18012188  0.97251292  0.19358570  1
  O  O12  1  0.87984454  0.35655633  0.64116372  1
  O  O13  1  0.47861272  0.11780383  0.64089314  1
  O  O14  1  0.64174370  0.51576882  0.64470510  1
  O  O15  1  0.87402612  0.51576882  0.14470510  1
  O  O16  1  0.63919211  0.11780383  0.14089314  1
  O  O17  1  0.47671279  0.35655633  0.14116372  1
  O  O18  1  0.45353560  0.30389975  0.02894544  1
  O  O19  1  0.84612858  0.54132015  0.02605345  1
  O  O20  1  0.69038938  0.14784867  0.02900135  1
  O  O21  1  0.45746028  0.14784867  0.52900135  1
  O  O22  1  0.69519257  0.54132015  0.52605345  1
  O  O23  1  0.85036516  0.30389975  0.52894544  1
  O  O24  1  0.54088811  0.68504351  0.97503477  1
  O  O25  1  0.14756280  0.45417013  0.97413865  1
  O  O26  1  0.30350941  0.85362823  0.97753121  1
  O  O27  1  0.55011782  0.85362823  0.47753121  1
  O  O28  1  0.30660632  0.45417013  0.47413865  1
  O  O29  1  0.14415440  0.68504351  0.47503477  1
  O  O30  1  0.12281681  0.63862919  0.36278326  1
  O  O31  1  0.51487626  0.87751922  0.35951731  1
  O  O32  1  0.35745070  0.48084266  0.36181864  1
  O  O33  1  0.12339096  0.48084266  0.86181864  1
  O  O34  1  0.36264196  0.87751922  0.85951731  1
  O  O35  1  0.51581139  0.63862919  0.86278326  1
  O  O36  1  0.01644671  0.82152568  0.41311576  1
  O  O37  1  0.82544548  0.99040152  0.41238462  1
  O  O38  1  0.17768848  0.19161947  0.41328075  1
  O  O39  1  0.01393099  0.19161947  0.91328075  1
  O  O40  1  0.16495604  0.99040152  0.91238462  1
  O  O41  1  0.80507898  0.82152568  0.91311576  1
  O  O42  1  0.98568867  0.17629438  0.58847716  1
  O  O43  1  0.19506987  0.02933171  0.58830760  1
  O  O44  1  0.84091752  0.81779197  0.58655525  1
  O  O45  1  0.97687445  0.81779197  0.08655525  1
  O  O46  1  0.83426184  0.02933171  0.08830760  1
  O  O47  1  0.19060571  0.17629438  0.08847716  1
  O  O48  1  0.67621066  0.16653065  0.74641808  1
  O  O49  1  0.47389662  0.31876063  0.74645942  1
  O  O50  1  0.84248965  0.52572027  0.74588831  1
  O  O51  1  0.68323163  0.52572027  0.24588831  1
  O  O52  1  0.84486501  0.31876063  0.24645942  1
  O  O53  1  0.49032100  0.16653065  0.24641808  1
  O  O54  1  0.64270977  0.50292597  0.92137538  1
  O  O55  1  0.86221183  0.35833889  0.92213162  1
  O  O56  1  0.50572990  0.15649813  0.91991994  1
  O  O57  1  0.65076924  0.15649813  0.41991994  1
  O  O58  1  0.49612806  0.35833889  0.42213162  1
  O  O59  1  0.86021720  0.50292597  0.42137538  1
  O  O60  1  0.35407894  0.49391701  0.07759866  1
  O  O61  1  0.15315301  0.65163638  0.08194087  1
  O  O62  1  0.51651712  0.85593228  0.07897194  1
  O  O63  1  0.33941417  0.85593228  0.57897194  1
  O  O64  1  0.49848237  0.65163638  0.58194087  1
  O  O65  1  0.13983706  0.49391701  0.57759866  1
  O  O66  1  0.31043755  0.82547140  0.25313965  1
  O  O67  1  0.52331293  0.68296495  0.25538736  1
  O  O68  1  0.16473187  0.47070964  0.25485888  1
  O  O69  1  0.30597676  0.47070964  0.75485888  1
  O  O70  1  0.15965102  0.68296495  0.75538736  1
  O  O71  1  0.51503285  0.82547140  0.75313965  1
loop_
_geom_bond_atom_site_label_1
_geom_bond_atom_site_label_2
_geom_bond_distance
_geom_bond_site_symmetry_2
Na0 O53 2.343697 1_555
Na0 O52 2.438097 1_555
Na0 O16 2.547124 1_555
Na0 O66 2.618047 1_545
Na0 O67 2.719928 1_545
Na0 O31 2.780732 1_545
Na1 O53 2.423881 1_555
Na1 O51 2.474569 1_555
Na1 O17 2.584039 1_555
Na1 O68 2.627222 1_555
Na1 O67 2.643084 1_555
Na1 O32 2.820201 1_555
Na1 O0 2.911449 1_555
Na2 O15 2.396881 1_555
Na2 O52 2.449134 1_555
Na2 O51 2.459691 1_555
Na2 O66 2.600054 1_655
Na2 O68 2.660067 1_655
Na2 O11 2.954953 1_655
Na2 O30 2.958041 1_655
Na3 O14 2.396883 1_555
Na3 O49 2.449134 1_555
Na3 O50 2.459700 1_555
Na3 O71 2.600061 1_555
Na3 O69 2.660075 1_555
Na3 O6 2.954953 1_555
Na3 O35 2.958045 1_555
Na4 O48 2.423874 1_555
Na4 O50 2.474562 1_555
Na4 O12 2.584035 1_555
Na4 O69 2.627214 1_655
Na4 O70 2.643083 1_655
Na4 O33 2.820199 1_655
Na4 O5 2.911449 1_555
Na5 O48 2.343705 1_555
Na5 O49 2.438095 1_555
Na5 O13 2.547125 1_555
Na5 O71 2.618039 1_545
Na5 O70 2.719930 1_545
Na5 O34 2.780730 1_545
Na6 O64 2.386750 1_555
Na6 O65 2.503386 1_555
Na6 O28 2.601794 1_555
Na6 O43 2.613070 1_555
Na6 O42 2.615836 1_455
Na6 O7 2.807127 1_555
Na7 O63 2.426235 1_555
Na7 O65 2.441157 1_555
Na7 O29 2.539639 1_555
Na7 O44 2.560687 1_455
Na7 O43 2.698406 1_565
Na7 O8 2.859308 1_555
Na7 O22 2.940929 1_455
Na7 O12 3.000672 1_455
Na8 O64 2.352696 1_555
Na8 O27 2.385012 1_555
Na8 O63 2.489601 1_555
Na8 O44 2.606992 1_555
Na8 O42 2.768251 1_565
Na8 O6 2.890757 1_555
Na9 O61 2.352696 1_555
Na9 O26 2.385009 1_554
Na9 O62 2.489583 1_555
Na9 O45 2.607000 1_455
Na9 O47 2.768257 1_565
Na9 O11 2.890760 1_555
Na10 O62 2.426250 1_555
Na10 O60 2.441171 1_555
Na10 O24 2.539647 1_554
Na10 O45 2.560678 1_555
Na10 O46 2.698405 1_565
Na10 O9 2.859306 1_555
Na10 O19 2.940929 1_555
Na10 O17 3.000672 1_555
Na11 O61 2.386752 1_555
Na11 O60 2.503370 1_555
Na11 O25 2.601790 1_554
Na11 O46 2.613071 1_455
Na11 O47 2.615828 1_555
Na11 O10 2.807125 1_555
Na12 O40 2.406752 1_655
Na12 O41 2.470175 1_555
Na12 O4 2.618910 1_555
Na12 O55 2.668897 1_555
Na12 O54 2.710083 1_555
Na12 O19 2.758689 1_556
Na12 O26 2.874136 1_655
Na13 O5 2.391689 1_555
Na13 O39 2.461389 1_655
Na13 O41 2.477163 1_545
Na13 O56 2.635150 1_555
Na13 O55 2.654501 1_555
Na13 O34 2.932079 1_545
Na13 O20 2.936511 1_556
Na14 O40 2.339156 1_545
Na14 O39 2.451082 1_555
Na14 O3 2.523254 1_555
Na14 O56 2.545989 1_555
Na14 O54 2.651907 1_555
Na14 O18 2.865466 1_556
Na15 O37 2.339156 1_545
Na15 O38 2.451090 1_655
Na15 O2 2.523256 1_555
Na15 O57 2.545972 1_555
Na15 O59 2.651893 1_555
Na15 O23 2.865459 1_555
Na16 O0 2.391685 1_555
Na16 O38 2.461382 1_555
Na16 O36 2.477156 1_545
Na16 O57 2.635166 1_555
Na16 O58 2.654501 1_555
Na16 O31 2.932079 1_545
Na16 O21 2.936515 1_555
Na17 O37 2.406751 1_555
Na17 O36 2.470183 1_655
Na17 O1 2.618912 1_555
Na17 O58 2.668894 1_555
Na17 O59 2.710099 1_555
Na17 O22 2.758692 1_555
Na17 O27 2.874136 1_555
Na18 O37 2.323580 1_555
Na18 O36 2.468361 1_655
Na18 O38 2.492913 1_665
Na18 O44 2.590180 1_555
Na18 O42 2.736674 1_565
Na18 O43 2.763512 1_665
Na19 O40 2.323580 1_555
Na19 O41 2.468361 1_455
Na19 O39 2.492913 1_565
Na19 O45 2.590180 1_456
Na19 O47 2.736674 1_566
Na19 O46 2.763512 1_466
Na20 O48 2.323358 1_555
Na20 O49 2.463820 1_555
Na20 O50 2.508223 1_555
Na20 O56 2.570619 1_555
Na20 O55 2.735320 1_555
Na20 O54 2.765032 1_555
Na21 O53 2.323358 1_555
Na21 O52 2.463820 1_555
Na21 O51 2.508223 1_555
Na21 O57 2.570619 1_555
Na21 O58 2.735320 1_555
Na21 O59 2.765032 1_555
Na22 O61 2.286095 1_555
Na22 O62 2.498821 1_555
Na22 O60 2.530866 1_555
Na22 O66 2.586927 1_555
Na22 O68 2.704467 1_555
Na22 O67 2.775832 1_555
Na23 O64 2.286095 1_555
Na23 O63 2.498821 1_555
Na23 O65 2.530866 1_555
Na23 O71 2.586927 1_555
Na23 O69 2.704467 1_555
Na23 O70 2.775832 1_555
Mg0 O0 2.011536 1_555
Mg0 O2 2.044873 1_455
Mg0 O1 2.074304 1_445
Mg0 O37 2.109444 1_445
Mg0 O38 2.221114 1_555
Mg0 O36 2.243451 1_545
Mg1 O5 2.011536 1_455
Mg1 O3 2.044873 1_555
Mg1 O4 2.074304 1_445
Mg1 O40 2.109444 1_545
Mg1 O39 2.221114 1_555
Mg1 O41 2.243451 1_445
Mg2 O14 1.994329 1_555
Mg2 O13 2.065453 1_555
Mg2 O12 2.076861 1_555
Mg2 O48 2.116768 1_555
Mg2 O49 2.219454 1_555
Mg2 O50 2.227930 1_555
Mg3 O15 1.994329 1_555
Mg3 O16 2.065453 1_555
Mg3 O17 2.076861 1_555
Mg3 O53 2.116768 1_555
Mg3 O52 2.219454 1_555
Mg3 O51 2.227930 1_555
Mg4 O26 2.000002 1_554
Mg4 O25 2.049962 1_554
Mg4 O24 2.098550 1_554
Mg4 O61 2.118549 1_555
Mg4 O60 2.222492 1_555
Mg4 O62 2.237840 1_555
Mg5 O27 2.000002 1_555
Mg5 O28 2.049962 1_555
Mg5 O29 2.098550 1_555
Mg5 O64 2.118549 1_555
Mg5 O65 2.222492 1_555
Mg5 O63 2.237840 1_555
O0 Si0 1.608783 1_555
O1 P0 1.525357 1_555
O2 P1 1.528682 1_655
O3 P2 1.528682 1_555
O4 P3 1.525357 1_655
O5 Si1 1.608783 1_555
O6 Si1 1.675646 1_565
O6 Zr0 1.993284 1_555
O7 P2 1.569332 1_555
O7 Zr0 2.137615 1_445
O8 P3 1.577254 1_555
O8 Zr0 2.112938 1_455
O9 P0 1.577254 1_555
O9 Zr1 2.112938 1_655
O10 P1 1.569332 1_555
O10 Zr1 2.137615 1_545
O11 Si0 1.675646 1_565
O11 Zr1 1.993284 1_555
O12 P4 1.528265 1_555
O13 P5 1.529973 1_555
O14 Si2 1.608968 1_555
O15 Si3 1.608968 1_555
O16 P6 1.529973 1_555
O17 P7 1.528265 1_555
O18 P7 1.575436 1_555
O18 Zr2 2.104876 1_554
O19 Si3 1.672579 1_555
O19 Zr2 2.029809 1_554
O20 P6 1.576291 1_555
O20 Zr2 2.092109 1_554
O21 P5 1.576291 1_555
O21 Zr3 2.092109 1_555
O22 Si2 1.672579 1_555
O22 Zr3 2.029809 1_555
O23 P4 1.575436 1_555
O23 Zr3 2.104876 1_555
O24 P8 1.523528 1_555
O25 P9 1.525741 1_555
O26 Si4 1.609908 1_555
O27 Si5 1.609908 1_555
O28 P10 1.525742 1_555
O29 P11 1.523528 1_555
O30 P11 1.574517 1_555
O30 Zr4 2.091547 1_555
O31 Si5 1.683188 1_555
O31 Zr4 2.006784 1_555
O32 P10 1.568804 1_555
O32 Zr4 2.140481 1_555
O33 P9 1.568804 1_555
O33 Zr5 2.140481 1_555
O34 Si4 1.683188 1_555
O34 Zr5 2.006784 1_555
O35 P8 1.574517 1_555
O35 Zr5 2.091548 1_555
O36 P11 1.543047 1_555
O37 Si5 1.629155 1_555
O38 P10 1.541977 1_555
O39 P9 1.541981 1_555
O40 Si4 1.629146 1_555
O41 P8 1.543053 1_555
O42 P4 1.571540 1_555
O42 Zr0 2.167878 1_545
O43 P5 1.564285 1_555
O43 Zr0 2.199635 1_445
O44 Si2 1.681425 1_555
O44 Zr0 2.069891 1_555
O45 Si3 1.681429 1_555
O45 Zr1 2.069891 1_655
O46 P6 1.564276 1_555
O46 Zr1 2.199635 1_645
O47 P7 1.571546 1_555
O47 Zr1 2.167878 1_545
O48 Si1 1.628093 1_555
O49 P2 1.544086 1_555
O50 P3 1.541951 1_655
O51 P0 1.541954 1_555
O52 P1 1.544077 1_655
O53 Si0 1.628098 1_555
O54 P8 1.570507 1_555
O54 Zr2 2.162159 1_555
O55 P9 1.575281 1_655
O55 Zr2 2.161641 1_555
O56 Si4 1.669901 1_545
O56 Zr2 2.104492 1_555
O57 Si5 1.669892 1_545
O57 Zr3 2.104492 1_555
O58 P10 1.575299 1_555
O58 Zr3 2.161641 1_555
O59 P11 1.570497 1_655
O59 Zr3 2.162159 1_555
O60 P7 1.538584 1_555
O61 Si3 1.629130 1_455
O62 P6 1.540356 1_565
O63 P5 1.540349 1_565
O64 Si2 1.629148 1_555
O65 P4 1.538574 1_455
O66 Si0 1.676206 1_565
O66 Zr4 2.065120 1_555
O67 P0 1.571137 1_555
O67 Zr4 2.155679 1_555
O68 P1 1.568960 1_555
O68 Zr4 2.222131 1_555
O69 P2 1.568964 1_555
O69 Zr5 2.222131 1_555
O70 P3 1.571127 1_555
O70 Zr5 2.155679 1_555
O71 Si1 1.676210 1_565
O71 Zr5 2.065120 1_555
