# generated using pymatgen
data_Sr2MgCuO3
_symmetry_space_group_name_H-M   'P 1'
_cell_length_a   3.74466191
_cell_length_b   3.74786294
_cell_length_c   9.84647399
_cell_angle_alpha   100.97116747
_cell_angle_beta   100.96168440
_cell_angle_gamma   89.99999421
_symmetry_Int_Tables_number   1
_chemical_formula_structural   Sr2MgCuO3
_chemical_formula_sum   'Sr2 Mg1 Cu1 O3'
_cell_volume   133.09527174
_cell_formula_units_Z   1
loop_
 _symmetry_equiv_pos_site_id
 _symmetry_equiv_pos_as_xyz
  1  'x, y, z'
loop_
 _atom_site_type_symbol
 _atom_site_label
 _atom_site_symmetry_multiplicity
 _atom_site_fract_x
 _atom_site_fract_y
 _atom_site_fract_z
 _atom_site_occupancy
  Sr  Sr0  1  0.68401033  0.30578419  0.36802065  1
  Sr  Sr1  1  0.31598967  0.93776354  0.63197935  1
  Mg  Mg0  1  0.50000000  0.76331550  1.00000000  1
  Cu  Cu0  1  1.00000000  0.27578944  0.00000000  1
  O  O0  1  1.00000000  0.77796187  0.00000000  1
  O  O1  1  0.81077208  0.42213131  0.62154517  1
  O  O2  1  0.18922792  0.80058714  0.37845483  1
loop_
_geom_bond_atom_site_label_1
_geom_bond_atom_site_label_2
_geom_bond_distance
_geom_bond_site_symmetry_2
Mg0 O0 1.873135 1_456
Mg0 O0 1.873135 1_556
Cu0 O0 1.865790 1_545
Cu0 O0 1.882073 1_555
O1 Sr0 2.404604 1_555
O1 Sr1 2.623405 1_545
O1 Sr1 2.623408 1_645
O1 Sr1 2.678590 1_555
O1 Sr1 2.678593 1_655
O2 Sr1 2.404604 1_555
O2 Sr0 2.623408 1_555
O2 Sr0 2.623411 1_455
O2 Sr0 2.678588 1_565
O2 Sr0 2.678590 1_465
