# generated using pymatgen
data_CuBIr
_symmetry_space_group_name_H-M   'P 1'
_cell_length_a   6.60014373
_cell_length_b   5.94840468
_cell_length_c   5.42940436
_cell_angle_alpha   70.74579015
_cell_angle_beta   58.30336759
_cell_angle_gamma   50.95084225
_symmetry_Int_Tables_number   1
_chemical_formula_structural   CuBIr
_chemical_formula_sum   'Cu4 B4 Ir4'
_cell_volume   140.84934266
_cell_formula_units_Z   4
loop_
 _symmetry_equiv_pos_site_id
 _symmetry_equiv_pos_as_xyz
  1  'x, y, z'
loop_
 _atom_site_type_symbol
 _atom_site_label
 _atom_site_symmetry_multiplicity
 _atom_site_fract_x
 _atom_site_fract_y
 _atom_site_fract_z
 _atom_site_occupancy
  Cu  Cu0  1  0.94190184  0.78670455  0.38838546  1
  Cu  Cu1  1  0.46329545  0.30809816  0.36699186  1
  Cu  Cu2  1  0.86161454  0.36699186  0.30809816  1
  Cu  Cu3  1  0.88300814  0.38838546  0.78670455  1
  B  B0  1  0.05298634  0.98382291  0.56513455  1
  B  B1  1  0.68486545  0.85194279  0.19701366  1
  B  B2  1  0.39805721  0.56513455  0.98382291  1
  B  B3  1  0.26617709  0.19701366  0.85194279  1
  Ir  Ir0  1  0.09639065  0.62954250  0.87121204  1
  Ir  Ir1  1  0.37878796  0.84714418  0.15360935  1
  Ir  Ir2  1  0.62045750  0.15360935  0.84714418  1
  Ir  Ir3  1  0.40285582  0.87121204  0.62954250  1
loop_
_geom_bond_atom_site_label_1
_geom_bond_atom_site_label_2
_geom_bond_distance
_geom_bond_site_symmetry_2
B0 Ir1 2.055150 1_555
B0 Ir2 2.075548 1_465
B0 Ir3 2.156032 1_555
B0 Ir0 2.171346 1_555
B0 Cu2 2.205700 1_465
B0 Cu0 2.323346 1_455
B0 Cu3 2.363568 1_465
B1 Ir0 2.055149 1_654
B1 Ir3 2.075546 1_555
B1 Ir2 2.156032 1_564
B1 Ir1 2.171346 1_555
B1 Cu0 2.205702 1_555
B1 Cu2 2.323341 1_555
B1 Cu1 2.363573 1_565
B2 Ir2 2.055153 1_555
B2 Ir1 2.075539 1_556
B2 Ir0 2.156032 1_555
B2 Ir3 2.171346 1_555
B2 Cu1 2.205698 1_556
B2 Cu3 2.323340 1_555
B2 Cu0 2.363571 1_456
B3 Ir3 2.055143 1_545
B3 Ir0 2.075550 1_555
B3 Ir1 2.156032 1_546
B3 Ir2 2.171346 1_555
B3 Cu3 2.205697 1_455
B3 Cu1 2.323342 1_555
B3 Cu2 2.363571 1_456
