# generated using pymatgen
data_CrFeP
_symmetry_space_group_name_H-M   'P 1'
_cell_length_a   3.54130634
_cell_length_b   5.78221331
_cell_length_c   6.58118528
_cell_angle_alpha   90.00084162
_cell_angle_beta   90.00000276
_cell_angle_gamma   89.99999866
_symmetry_Int_Tables_number   1
_chemical_formula_structural   CrFeP
_chemical_formula_sum   'Cr4 Fe4 P4'
_cell_volume   134.76022383
_cell_formula_units_Z   4
loop_
 _symmetry_equiv_pos_site_id
 _symmetry_equiv_pos_as_xyz
  1  'x, y, z'
loop_
 _atom_site_type_symbol
 _atom_site_label
 _atom_site_symmetry_multiplicity
 _atom_site_fract_x
 _atom_site_fract_y
 _atom_site_fract_z
 _atom_site_occupancy
  Cr  Cr0  1  0.74999990  0.98182289  0.83093464  1
  Cr  Cr1  1  0.25000010  0.01817711  0.16906536  1
  Cr  Cr2  1  0.74999992  0.48183251  0.66905598  1
  Cr  Cr3  1  0.25000008  0.51816749  0.33094402  1
  Fe  Fe0  1  0.24999997  0.64538928  0.93578293  1
  Fe  Fe1  1  0.75000003  0.35461072  0.06421707  1
  Fe  Fe2  1  0.24999990  0.14538701  0.56419780  1
  Fe  Fe3  1  0.75000010  0.85461299  0.43580220  1
  P  P0  1  0.25000015  0.26868813  0.87722236  1
  P  P1  1  0.74999985  0.73131187  0.12277764  1
  P  P2  1  0.25000023  0.76865787  0.62280707  1
  P  P3  1  0.74999977  0.23134213  0.37719293  1
loop_
_geom_bond_atom_site_label_1
_geom_bond_atom_site_label_2
_geom_bond_distance
_geom_bond_site_symmetry_2
Cr0 P1 2.405669 1_556
Cr0 P0 2.445267 1_565
Cr0 P0 2.445269 1_665
Cr0 P2 2.555489 1_555
Cr0 P2 2.555491 1_655
Cr1 P0 2.405669 1_554
Cr1 P1 2.445267 1_545
Cr1 P1 2.445269 1_445
Cr1 P3 2.555489 1_555
Cr1 P3 2.555491 1_455
Cr2 P3 2.405668 1_555
Cr2 P2 2.445085 1_555
Cr2 P2 2.445087 1_655
Cr2 P0 2.555589 1_555
Cr2 P0 2.555590 1_655
Cr3 P2 2.405668 1_555
Cr3 P3 2.445085 1_555
Cr3 P3 2.445087 1_455
Cr3 P1 2.555589 1_555
Cr3 P1 2.555590 1_455
Fe0 P2 2.179600 1_555
Fe0 P0 2.211994 1_555
Fe0 P1 2.212808 1_556
Fe0 P1 2.212808 1_456
Fe1 P3 2.179600 1_555
Fe1 P1 2.211994 1_555
Fe1 P0 2.212808 1_554
Fe1 P0 2.212808 1_654
Fe2 P0 2.179945 1_555
Fe2 P2 2.212220 1_545
Fe2 P3 2.212895 1_555
Fe2 P3 2.212896 1_455
Fe3 P1 2.179945 1_555
Fe3 P3 2.212220 1_565
Fe3 P2 2.212895 1_555
Fe3 P2 2.212896 1_655
