# generated using pymatgen
data_SrAl
_symmetry_space_group_name_H-M   'P 1'
_cell_length_a   12.77683035
_cell_length_b   12.77683035
_cell_length_c   12.77683035
_cell_angle_alpha   90.00000000
_cell_angle_beta   90.00000000
_cell_angle_gamma   90.00000000
_symmetry_Int_Tables_number   1
_chemical_formula_structural   SrAl
_chemical_formula_sum   'Sr32 Al32'
_cell_volume   2085.78425557
_cell_formula_units_Z   32
loop_
 _symmetry_equiv_pos_site_id
 _symmetry_equiv_pos_as_xyz
  1  'x, y, z'
loop_
 _atom_site_type_symbol
 _atom_site_label
 _atom_site_symmetry_multiplicity
 _atom_site_fract_x
 _atom_site_fract_y
 _atom_site_fract_z
 _atom_site_occupancy
  Sr  Sr0  1  0.20191023  0.93608217  0.97995420  1
  Sr  Sr1  1  0.29435837  0.70564163  0.20564163  1
  Sr  Sr2  1  0.70564163  0.20564163  0.29435837  1
  Sr  Sr3  1  0.79435837  0.79435837  0.79435837  1
  Sr  Sr4  1  0.80726171  0.69273829  0.30726171  1
  Sr  Sr5  1  0.69273829  0.30726171  0.80726171  1
  Sr  Sr6  1  0.30726171  0.80726171  0.69273829  1
  Sr  Sr7  1  0.19273829  0.19273829  0.19273829  1
  Sr  Sr8  1  0.02004580  0.70191023  0.56391783  1
  Sr  Sr9  1  0.52004580  0.79808977  0.43608217  1
  Sr  Sr10  1  0.97995420  0.20191023  0.93608217  1
  Sr  Sr11  1  0.79808977  0.43608217  0.52004580  1
  Sr  Sr12  1  0.93608217  0.97995420  0.20191023  1
  Sr  Sr13  1  0.43608217  0.52004580  0.79808977  1
  Sr  Sr14  1  0.70191023  0.56391783  0.02004580  1
  Sr  Sr15  1  0.56391783  0.02004580  0.70191023  1
  Sr  Sr16  1  0.20564163  0.29435837  0.70564163  1
  Sr  Sr17  1  0.29808977  0.06391783  0.47995420  1
  Sr  Sr18  1  0.06391783  0.47995420  0.29808977  1
  Sr  Sr19  1  0.47995420  0.29808977  0.06391783  1
  Sr  Sr20  1  0.30261983  0.56321141  0.49845507  1
  Sr  Sr21  1  0.80261983  0.93678859  0.50154493  1
  Sr  Sr22  1  0.69738017  0.06321141  0.00154493  1
  Sr  Sr23  1  0.93678859  0.50154493  0.80261983  1
  Sr  Sr24  1  0.00154493  0.69738017  0.06321141  1
  Sr  Sr25  1  0.50154493  0.80261983  0.93678859  1
  Sr  Sr26  1  0.56321141  0.49845507  0.30261983  1
  Sr  Sr27  1  0.49845507  0.30261983  0.56321141  1
  Sr  Sr28  1  0.06321141  0.00154493  0.69738017  1
  Sr  Sr29  1  0.43678859  0.99845507  0.19738017  1
  Sr  Sr30  1  0.99845507  0.19738017  0.43678859  1
  Sr  Sr31  1  0.19738017  0.43678859  0.99845507  1
  Al  Al0  1  0.06550195  0.43449805  0.56550195  1
  Al  Al1  1  0.43449805  0.56550195  0.06550195  1
  Al  Al2  1  0.56550195  0.06550195  0.43449805  1
  Al  Al3  1  0.93449805  0.93449805  0.93449805  1
  Al  Al4  1  0.43604516  0.06395484  0.93604516  1
  Al  Al5  1  0.06395484  0.93604516  0.43604516  1
  Al  Al6  1  0.93604516  0.43604516  0.06395484  1
  Al  Al7  1  0.56395484  0.56395484  0.56395484  1
  Al  Al8  1  0.25866594  0.67755103  0.92279448  1
  Al  Al9  1  0.75866594  0.82244897  0.07720552  1
  Al  Al10  1  0.74133406  0.17755103  0.57720552  1
  Al  Al11  1  0.82244897  0.07720552  0.75866594  1
  Al  Al12  1  0.57720552  0.74133406  0.17755103  1
  Al  Al13  1  0.07720552  0.75866594  0.82244897  1
  Al  Al14  1  0.67755103  0.92279448  0.25866594  1
  Al  Al15  1  0.23591502  0.81392348  0.43267775  1
  Al  Al16  1  0.17755103  0.57720552  0.74133406  1
  Al  Al17  1  0.32244897  0.42279448  0.24133406  1
  Al  Al18  1  0.42279448  0.24133406  0.32244897  1
  Al  Al19  1  0.24133406  0.32244897  0.42279448  1
  Al  Al20  1  0.26408498  0.18607652  0.93267775  1
  Al  Al21  1  0.76408498  0.31392348  0.06732225  1
  Al  Al22  1  0.73591502  0.68607652  0.56732225  1
  Al  Al23  1  0.31392348  0.06732225  0.76408498  1
  Al  Al24  1  0.56732225  0.73591502  0.68607652  1
  Al  Al25  1  0.06732225  0.76408498  0.31392348  1
  Al  Al26  1  0.18607652  0.93267775  0.26408498  1
  Al  Al27  1  0.93267775  0.26408498  0.18607652  1
  Al  Al28  1  0.68607652  0.56732225  0.73591502  1
  Al  Al29  1  0.81392348  0.43267775  0.23591502  1
  Al  Al30  1  0.43267775  0.23591502  0.81392348  1
  Al  Al31  1  0.92279448  0.25866594  0.67755103  1
loop_
_geom_bond_atom_site_label_1
_geom_bond_atom_site_label_2
_geom_bond_distance
_geom_bond_site_symmetry_2
Sr0 Sr28 4.107921 1_565
Sr0 Sr24 4.121526 1_556
Sr0 Sr29 4.166349 1_556
Sr0 Sr25 4.227112 1_555
Sr1 Sr24 4.161685 1_555
Sr1 Sr20 4.161685 1_555
Sr1 Sr29 4.161685 1_555
Sr2 Sr22 4.161685 1_555
Sr2 Sr26 4.161685 1_555
Sr2 Sr30 4.161685 1_555
Sr10 Sr22 4.107921 1_556
Sr10 Sr28 4.121526 1_655
Sr10 Sr31 4.166349 1_655
Sr10 Sr23 4.227112 1_555
Sr11 Sr23 4.107921 1_555
Sr11 Sr30 4.121526 1_555
Sr11 Sr26 4.166349 1_555
Sr11 Sr27 4.227112 1_555
Sr12 Sr24 4.107921 1_655
Sr12 Sr22 4.121526 1_565
Sr12 Sr30 4.166349 1_565
Sr12 Sr21 4.227112 1_555
Sr13 Sr25 4.107921 1_555
Sr13 Sr31 4.121526 1_555
Sr13 Sr27 4.166349 1_555
Sr13 Sr20 4.227112 1_555
Sr14 Sr26 4.107921 1_555
Sr14 Sr25 4.121526 1_554
Sr14 Sr23 4.166349 1_554
Sr14 Sr24 4.227112 1_655
Sr15 Sr27 4.107921 1_555
Sr15 Sr21 4.121526 1_545
Sr15 Sr25 4.166349 1_545
Sr15 Sr22 4.227112 1_556
Sr16 Sr27 4.161685 1_555
Sr16 Sr28 4.161685 1_555
Sr16 Sr31 4.161685 1_555
Sr17 Sr29 4.107921 1_545
Sr17 Sr27 4.121526 1_555
Sr17 Sr28 4.166349 1_555
Sr17 Sr30 4.227112 1_455
Sr18 Sr30 4.107921 1_455
Sr18 Sr20 4.121526 1_555
Sr18 Sr24 4.166349 1_555
Sr18 Sr31 4.227112 1_554
Sr19 Sr31 4.107921 1_554
Sr19 Sr26 4.121526 1_555
Sr19 Sr22 4.166349 1_555
Sr19 Sr29 4.227112 1_545
Sr20 Sr6 3.986045 1_555
Sr20 Sr8 4.107921 1_555
Sr20 Sr9 4.166349 1_555
Sr20 Sr27 4.246308 1_555
Sr20 Sr26 4.246308 1_555
Sr21 Sr4 3.986045 1_555
Sr21 Sr9 4.107921 1_555
Sr21 Sr3 4.161685 1_555
Sr21 Sr8 4.166349 1_655
Sr21 Sr30 4.246308 1_565
Sr21 Sr28 4.246308 1_665
Sr22 Sr5 3.986045 1_554
Sr22 Sr29 4.246308 1_545
Sr22 Sr25 4.246308 1_544
Sr23 Sr5 3.986045 1_555
Sr23 Sr8 4.121526 1_655
Sr23 Sr3 4.161685 1_555
Sr23 Sr31 4.246308 1_655
Sr23 Sr24 4.246308 1_656
Sr24 Sr4 3.986045 1_455
Sr24 Sr31 4.246308 1_554
Sr25 Sr6 3.986045 1_555
Sr25 Sr3 4.161685 1_555
Sr25 Sr29 4.246308 1_556
Sr26 Sr4 3.986045 1_555
Sr26 Sr9 4.227112 1_555
Sr26 Sr27 4.246308 1_555
Sr27 Sr5 3.986045 1_555
Sr28 Sr6 3.986045 1_545
Sr28 Sr8 4.227112 1_545
Sr28 Sr30 4.246308 1_455
Sr29 Sr7 3.986045 1_565
Sr29 Sr9 4.121526 1_555
Sr30 Sr7 3.986045 1_655
Sr31 Sr7 3.986045 1_556
Al0 Sr16 3.101308 1_555
Al0 Al16 3.228201 1_555
Al0 Al19 3.228201 1_555
Al0 Al31 3.228201 1_455
Al0 Sr8 3.465750 1_555
Al0 Sr11 3.465750 1_455
Al0 Sr18 3.465750 1_555
Al0 Sr20 3.552035 1_555
Al0 Sr23 3.552035 1_455
Al0 Sr30 3.552035 1_455
Al1 Sr1 3.101308 1_555
Al1 Al12 3.228201 1_555
Al1 Al17 3.228201 1_555
Al1 Al8 3.228201 1_554
Al1 Sr14 3.465750 1_555
Al1 Sr19 3.465750 1_555
Al1 Sr13 3.465750 1_554
Al1 Sr26 3.552035 1_555
Al1 Sr25 3.552035 1_554
Al1 Sr31 3.552035 1_554
Al2 Sr2 3.101308 1_555
Al2 Sr15 3.465750 1_555
Al2 Sr17 3.465750 1_555
Al2 Sr9 3.465750 1_545
Al2 Sr27 3.552035 1_555
Al2 Sr21 3.552035 1_545
Al2 Sr29 3.552035 1_545
Al3 Sr3 3.101308 1_555
Al3 Al9 3.228201 1_556
Al3 Sr12 3.465750 1_556
Al3 Sr0 3.465750 1_655
Al3 Sr10 3.465750 1_565
Al3 Sr22 3.552035 1_566
Al3 Sr28 3.552035 1_665
Al3 Sr24 3.552035 1_656
Al4 Sr29 3.442325 1_546
Al4 Sr22 3.442325 1_556
Al4 Sr25 3.442325 1_545
Al4 Sr0 3.454440 1_545
Al4 Sr19 3.454440 1_556
Al4 Sr15 3.454440 1_555
Al5 Sr30 3.442325 1_465
Al5 Sr21 3.442325 1_455
Al5 Sr28 3.442325 1_565
Al5 Sr12 3.454440 1_455
Al5 Sr17 3.454440 1_565
Al5 Sr8 3.454440 1_555
Al6 Sr31 3.442325 1_654
Al6 Sr24 3.442325 1_655
Al6 Sr23 3.442325 1_554
Al6 Sr10 3.454440 1_554
Al6 Sr18 3.454440 1_655
Al6 Sr14 3.454440 1_555
Al7 Sr26 3.442325 1_555
Al7 Sr20 3.442325 1_555
Al7 Sr27 3.442325 1_555
Al7 Sr9 3.454440 1_555
Al7 Sr13 3.454440 1_555
Al7 Sr11 3.454440 1_555
Al8 Sr31 3.318215 1_555
Al8 Sr13 3.424469 1_555
Al8 Sr6 3.431055 1_555
Al8 Sr0 3.459828 1_555
Al8 Sr25 3.495070 1_555
Al8 Sr1 3.660189 1_556
Al8 Sr24 3.751720 1_556
Al9 Sr22 3.318215 1_565
Al9 Sr12 3.424469 1_555
Al9 Sr4 3.431055 1_555
Al9 Sr14 3.459828 1_555
Al9 Sr24 3.495070 1_655
Al9 Sr3 3.660189 1_554
Al9 Sr25 3.751720 1_554
Al10 Al31 2.844868 1_555
Al10 Al11 2.844868 1_555
Al10 Al2 3.228201 1_555
Al10 Sr21 3.318215 1_545
Al10 Sr15 3.424469 1_555
Al10 Sr5 3.431055 1_555
Al10 Sr11 3.459828 1_555
Al10 Sr27 3.495070 1_555
Al10 Sr2 3.660189 1_555
Al10 Sr30 3.751720 1_555
Al11 Al31 2.844868 1_555
Al11 Al3 3.228201 1_545
Al11 Sr28 3.318215 1_655
Al11 Sr10 3.424469 1_555
Al11 Sr5 3.431055 1_555
Al11 Sr15 3.459828 1_555
Al11 Sr22 3.495070 1_556
Al11 Sr3 3.660189 1_545
Al11 Sr21 3.751720 1_545
Al12 Al9 2.844868 1_555
Al12 Al14 2.844868 1_555
Al12 Sr25 3.318215 1_554
Al12 Sr14 3.424469 1_555
Al12 Sr4 3.431055 1_555
Al12 Sr9 3.459828 1_555
Al12 Sr26 3.495070 1_555
Al12 Sr1 3.660189 1_555
Al12 Sr29 3.751720 1_555
Al13 Al8 2.844868 1_555
Al13 Al16 2.844868 1_555
Al13 Al3 3.228201 1_455
Al13 Sr24 3.318215 1_556
Al13 Sr0 3.424469 1_555
Al13 Sr6 3.431055 1_555
Al13 Sr8 3.459828 1_555
Al13 Sr28 3.495070 1_565
Al13 Sr3 3.660189 1_455
Al13 Sr23 3.751720 1_455
Al14 Al9 2.844868 1_555
Al14 Al2 3.228201 1_565
Al14 Sr29 3.318215 1_555
Al14 Sr9 3.424469 1_555
Al14 Sr4 3.431055 1_555
Al14 Sr12 3.459828 1_555
Al14 Sr21 3.495070 1_555
Al14 Sr2 3.660189 1_565
Al14 Sr22 3.751720 1_565
Al15 Al5 2.695134 1_555
Al15 Al26 2.710675 1_555
Al15 Al25 2.710675 1_555
Al15 Sr1 3.299441 1_555
Al15 Sr17 3.346406 1_565
Al15 Sr20 3.419628 1_555
Al15 Sr6 3.446577 1_555
Al15 Sr8 3.530903 1_555
Al15 Sr9 3.636183 1_555
Al16 Al8 2.844868 1_555
Al16 Sr23 3.318215 1_455
Al16 Sr8 3.424469 1_555
Al16 Sr6 3.431055 1_555
Al16 Sr13 3.459828 1_555
Al16 Sr20 3.495070 1_555
Al16 Sr16 3.660189 1_555
Al16 Sr31 3.751720 1_555
Al17 Al18 2.844868 1_555
Al17 Al19 2.844868 1_555
Al17 Sr26 3.318215 1_555
Al17 Sr19 3.424469 1_555
Al17 Sr7 3.431055 1_555
Al17 Sr18 3.459828 1_555
Al17 Sr31 3.495070 1_554
Al17 Sr1 3.660189 1_555
Al17 Sr20 3.751720 1_555
Al18 Al19 2.844868 1_555
Al18 Al2 3.228201 1_555
Al18 Sr27 3.318215 1_555
Al18 Sr17 3.424469 1_555
Al18 Sr7 3.431055 1_555
Al18 Sr19 3.459828 1_555
Al18 Sr29 3.495070 1_545
Al18 Sr2 3.660189 1_555
Al18 Sr26 3.751720 1_555
Al19 Sr20 3.318215 1_555
Al19 Sr18 3.424469 1_555
Al19 Sr7 3.431055 1_555
Al19 Sr17 3.459828 1_555
Al19 Sr30 3.495070 1_455
Al19 Sr16 3.660189 1_555
Al19 Sr27 3.751720 1_555
Al20 Al4 2.695134 1_555
Al20 Al23 2.710675 1_555
Al20 Al30 2.710675 1_555
Al20 Sr16 3.299441 1_555
Al20 Sr0 3.346406 1_545
Al20 Sr31 3.419628 1_555
Al20 Sr7 3.446577 1_556
Al20 Sr19 3.530903 1_556
Al20 Sr10 3.636183 1_455
Al21 Al6 2.695134 1_555
Al21 Al29 2.710675 1_555
Al21 Al27 2.710675 1_555
Al21 Sr2 3.299441 1_555
Al21 Sr14 3.346406 1_555
Al21 Sr22 3.419628 1_555
Al21 Sr5 3.446577 1_554
Al21 Sr10 3.530903 1_554
Al21 Sr19 3.636183 1_555
Al22 Al7 2.695134 1_555
Al22 Al24 2.710675 1_555
Al22 Al28 2.710675 1_555
Al22 Sr3 3.299441 1_555
Al22 Sr11 3.346406 1_555
Al22 Sr21 3.419628 1_555
Al22 Sr4 3.446577 1_555
Al22 Sr9 3.530903 1_555
Al22 Sr8 3.636183 1_655
Al23 Al4 2.695134 1_555
Al23 Al30 2.710675 1_555
Al23 Sr16 3.299441 1_555
Al23 Sr15 3.346406 1_555
Al23 Sr28 3.419628 1_555
Al23 Sr6 3.446577 1_545
Al23 Sr0 3.530903 1_545
Al23 Sr17 3.636183 1_555
Al24 Al7 2.695134 1_555
Al24 Al28 2.710675 1_555
Al24 Sr3 3.299441 1_555
Al24 Sr9 3.346406 1_555
Al24 Sr25 3.419628 1_555
Al24 Sr6 3.446577 1_555
Al24 Sr13 3.530903 1_555
Al24 Sr15 3.636183 1_565
Al25 Al5 2.695134 1_555
Al25 Al26 2.710675 1_555
Al25 Sr1 3.299441 1_555
Al25 Sr8 3.346406 1_555
Al25 Sr24 3.419628 1_555
Al25 Sr4 3.446577 1_455
Al25 Sr12 3.530903 1_455
Al25 Sr18 3.636183 1_555
Al26 Al5 2.695134 1_555
Al26 Sr1 3.299441 1_555
Al26 Sr12 3.346406 1_455
Al26 Sr29 3.419628 1_555
Al26 Sr7 3.446577 1_565
Al26 Sr17 3.530903 1_565
Al26 Sr0 3.636183 1_554
Al27 Al6 2.695134 1_555
Al27 Al29 2.710675 1_555
Al27 Sr2 3.299441 1_555
Al27 Sr10 3.346406 1_554
Al27 Sr30 3.419628 1_555
Al27 Sr7 3.446577 1_655
Al27 Sr18 3.530903 1_655
Al27 Sr12 3.636183 1_545
Al28 Al7 2.695134 1_555
Al28 Sr3 3.299441 1_555
Al28 Sr13 3.346406 1_555
Al28 Sr23 3.419628 1_555
Al28 Sr5 3.446577 1_555
Al28 Sr11 3.530903 1_555
Al28 Sr14 3.636183 1_556
Al29 Al6 2.695134 1_555
Al29 Sr2 3.299441 1_555
Al29 Sr18 3.346406 1_655
Al29 Sr26 3.419628 1_555
Al29 Sr4 3.446577 1_555
Al29 Sr14 3.530903 1_555
Al29 Sr11 3.636183 1_555
Al30 Al4 2.695134 1_555
Al30 Sr16 3.299441 1_555
Al30 Sr19 3.346406 1_556
Al30 Sr27 3.419628 1_555
Al30 Sr5 3.446577 1_555
Al30 Sr15 3.530903 1_555
Al30 Sr13 3.636183 1_555
Al31 Sr30 3.318215 1_555
Al31 Sr11 3.424469 1_555
Al31 Sr5 3.431055 1_555
Al31 Sr10 3.459828 1_555
Al31 Sr23 3.495070 1_555
Al31 Sr16 3.660189 1_655
Al31 Sr28 3.751720 1_655
