# generated using pymatgen
data_Gd(SiRh)2
_symmetry_space_group_name_H-M   'P 1'
_cell_length_a   5.76906977
_cell_length_b   5.76906977
_cell_length_c   5.76906977
_cell_angle_alpha   138.85681794
_cell_angle_beta   138.85681794
_cell_angle_gamma   59.59324358
_symmetry_Int_Tables_number   1
_chemical_formula_structural   Gd(SiRh)2
_chemical_formula_sum   'Gd1 Si2 Rh2'
_cell_volume   82.28908433
_cell_formula_units_Z   1
loop_
 _symmetry_equiv_pos_site_id
 _symmetry_equiv_pos_as_xyz
  1  'x, y, z'
loop_
 _atom_site_type_symbol
 _atom_site_label
 _atom_site_symmetry_multiplicity
 _atom_site_fract_x
 _atom_site_fract_y
 _atom_site_fract_z
 _atom_site_occupancy
  Gd  Gd0  1  -0.00000000  -0.00000000  -0.00000000  1
  Si  Si0  1  0.62313372  0.62313372  0.00000000  1
  Si  Si1  1  0.37686628  0.37686628  0.00000000  1
  Rh  Rh0  1  0.75000000  0.25000000  0.50000000  1
  Rh  Rh1  1  0.25000000  0.75000000  0.50000000  1
loop_
_geom_bond_atom_site_label_1
_geom_bond_atom_site_label_2
_geom_bond_distance
_geom_bond_site_symmetry_2
Gd0 Si1 3.120656 1_444
Gd0 Si0 3.120656 1_556
Gd0 Si1 3.120656 1_545
Gd0 Si1 3.120656 1_556
Gd0 Si0 3.120656 1_444
Gd0 Si0 3.120656 1_455
Gd0 Si0 3.120656 1_545
Gd0 Si1 3.120656 1_455
Gd0 Rh0 3.221048 1_555
Gd0 Rh0 3.221048 1_444
Gd0 Rh0 3.221048 1_454
Gd0 Rh0 3.221048 1_455
Gd0 Rh1 3.221048 1_555
Gd0 Rh1 3.221048 1_444
Gd0 Rh1 3.221048 1_544
Gd0 Rh1 3.221048 1_545
Si0 Si1 2.465811 1_555
Rh0 Si1 2.392243 1_555
Rh0 Si0 2.392243 1_545
Rh0 Si0 2.392243 1_556
Rh0 Si1 2.392243 1_656
Rh1 Si1 2.392243 1_566
Rh1 Si0 2.392243 1_455
Rh1 Si0 2.392243 1_556
Rh1 Si1 2.392243 1_555
