# generated using pymatgen
data_SiO2
_symmetry_space_group_name_H-M   'P 1'
_cell_length_a   11.78101882
_cell_length_b   11.78101882
_cell_length_c   4.37120546
_cell_angle_alpha   90.00000000
_cell_angle_beta   90.00000000
_cell_angle_gamma   90.00000000
_symmetry_Int_Tables_number   1
_chemical_formula_structural   SiO2
_chemical_formula_sum   'Si16 O32'
_cell_volume   606.69011608
_cell_formula_units_Z   16
loop_
 _symmetry_equiv_pos_site_id
 _symmetry_equiv_pos_as_xyz
  1  'x, y, z'
loop_
 _atom_site_type_symbol
 _atom_site_label
 _atom_site_symmetry_multiplicity
 _atom_site_fract_x
 _atom_site_fract_y
 _atom_site_fract_z
 _atom_site_occupancy
  Si  Si0  1  0.73772174  0.08180138  0.27645845  1
  Si  Si1  1  0.76231265  0.58163492  0.27718100  1
  Si  Si2  1  0.58180138  0.76227825  0.27645844  1
  Si  Si3  1  0.08163492  0.73768734  0.27718100  1
  Si  Si4  1  0.58163492  0.23768735  0.72281900  1
  Si  Si5  1  0.26227826  0.91819862  0.27645845  1
  Si  Si6  1  0.41836508  0.76231265  0.72281900  1
  Si  Si7  1  0.23768735  0.41836508  0.27718100  1
  Si  Si8  1  0.76227825  0.41819862  0.72354156  1
  Si  Si9  1  0.08180138  0.26227826  0.72354155  1
  Si  Si10  1  0.91836508  0.26231266  0.27718100  1
  Si  Si11  1  0.26231266  0.08163492  0.72281900  1
  Si  Si12  1  0.91819862  0.73772174  0.72354155  1
  Si  Si13  1  0.41819862  0.23772175  0.27645844  1
  Si  Si14  1  0.73768734  0.91836508  0.72281900  1
  Si  Si15  1  0.23772175  0.58180138  0.72354156  1
  O  O0  1  0.82266424  0.82285593  0.86616698  1
  O  O1  1  0.85917556  0.64074330  0.50047423  1
  O  O2  1  0.18790774  0.50017005  0.00050319  1
  O  O3  1  0.49995806  0.31230383  0.49957089  1
  O  O4  1  0.99995805  0.81230384  0.50042911  1
  O  O5  1  0.64074330  0.14082444  0.49952577  1
  O  O6  1  0.82285593  0.17733576  0.13383302  1
  O  O7  1  0.67714407  0.32266423  0.86616698  1
  O  O8  1  0.17733576  0.17714407  0.86616698  1
  O  O9  1  0.35925670  0.85917556  0.49952577  1
  O  O10  1  0.00004195  0.18769616  0.50042911  1
  O  O11  1  0.50004194  0.68769617  0.49957089  1
  O  O12  1  0.67733577  0.67714407  0.13383302  1
  O  O13  1  0.17714407  0.82266424  0.13383302  1
  O  O14  1  0.81209226  0.49982995  0.00050319  1
  O  O15  1  0.18769616  0.99995805  0.49957089  1
  O  O16  1  0.00017005  0.31209226  0.00050319  1
  O  O17  1  0.81230384  0.00004195  0.49957089  1
  O  O18  1  0.32266423  0.32285593  0.13383302  1
  O  O19  1  0.50017005  0.81209226  0.99949681  1
  O  O20  1  0.32285593  0.67733577  0.86616698  1
  O  O21  1  0.68769617  0.49995806  0.50042911  1
  O  O22  1  0.49982995  0.18790774  0.99949681  1
  O  O23  1  0.85925671  0.35917555  0.50047421  1
  O  O24  1  0.64082445  0.85925671  0.49952579  1
  O  O25  1  0.68790774  0.00017005  0.99949681  1
  O  O26  1  0.99982995  0.68790774  0.00050319  1
  O  O27  1  0.14074329  0.64082445  0.50047421  1
  O  O28  1  0.31209226  0.99982995  0.99949681  1
  O  O29  1  0.35917555  0.14074329  0.49952579  1
  O  O30  1  0.31230383  0.50004194  0.50042911  1
  O  O31  1  0.14082444  0.35925670  0.50047423  1
loop_
_geom_bond_atom_site_label_1
_geom_bond_atom_site_label_2
_geom_bond_distance
_geom_bond_site_symmetry_2
O0 Si14 1.631235 1_555
O0 Si12 1.631368 1_555
O1 Si12 1.655173 1_555
O1 Si1 1.655239 1_555
O2 Si15 1.653771 1_554
O2 Si7 1.653911 1_555
O3 Si4 1.628174 1_555
O3 Si13 1.628176 1_555
O4 Si3 1.628175 1_655
O4 Si12 1.628176 1_555
O5 Si0 1.655173 1_555
O5 Si4 1.655239 1_555
O6 Si10 1.631235 1_555
O6 Si0 1.631368 1_555
O7 Si4 1.631234 1_555
O7 Si8 1.631368 1_555
O8 Si11 1.631235 1_555
O8 Si9 1.631368 1_555
O9 Si5 1.655173 1_555
O9 Si6 1.655239 1_555
O10 Si10 1.628175 1_455
O10 Si9 1.628176 1_555
O11 Si6 1.628174 1_555
O11 Si2 1.628176 1_555
O12 Si1 1.631234 1_555
O12 Si2 1.631368 1_555
O13 Si3 1.631235 1_555
O13 Si5 1.631368 1_555
O14 Si8 1.653771 1_554
O14 Si1 1.653911 1_555
O15 Si11 1.628175 1_565
O15 Si5 1.628176 1_555
O16 Si9 1.653771 1_554
O16 Si10 1.653911 1_455
O17 Si14 1.628175 1_545
O17 Si0 1.628176 1_555
O18 Si7 1.631234 1_555
O18 Si13 1.631368 1_555
O19 Si2 1.653771 1_556
O19 Si6 1.653911 1_555
O20 Si6 1.631234 1_555
O20 Si15 1.631368 1_555
O21 Si1 1.628174 1_555
O21 Si8 1.628176 1_555
O22 Si13 1.653771 1_556
O22 Si4 1.653911 1_555
O23 Si8 1.655174 1_555
O23 Si10 1.655239 1_555
O24 Si2 1.655174 1_555
O24 Si14 1.655239 1_555
O25 Si0 1.653771 1_556
O25 Si14 1.653911 1_545
O26 Si12 1.653771 1_554
O26 Si3 1.653911 1_655
O27 Si15 1.655174 1_555
O27 Si3 1.655239 1_555
O28 Si5 1.653771 1_556
O28 Si11 1.653911 1_565
O29 Si13 1.655174 1_555
O29 Si11 1.655239 1_555
O30 Si7 1.628174 1_555
O30 Si15 1.628176 1_555
O31 Si9 1.655173 1_555
O31 Si7 1.655239 1_555
