# generated using pymatgen
data_Na6Al4Zn4SiS11O48
_symmetry_space_group_name_H-M   'P 1'
_cell_length_a   17.17794383
_cell_length_b   8.59298194
_cell_length_c   22.08595793
_cell_angle_alpha   89.81073536
_cell_angle_beta   89.79444035
_cell_angle_gamma   120.14081526
_symmetry_Int_Tables_number   1
_chemical_formula_structural   Na6Al4Zn4SiS11O48
_chemical_formula_sum   'Na18 Al12 Zn12 Si3 S33 O144'
_cell_volume   2819.25004839
_cell_formula_units_Z   3
loop_
 _symmetry_equiv_pos_site_id
 _symmetry_equiv_pos_as_xyz
  1  'x, y, z'
loop_
 _atom_site_type_symbol
 _atom_site_label
 _atom_site_symmetry_multiplicity
 _atom_site_fract_x
 _atom_site_fract_y
 _atom_site_fract_z
 _atom_site_occupancy
  Na  Na0  1  0.81744316  0.99638968  0.24763188  1
  Na  Na1  1  0.99652042  0.63280310  0.25298306  1
  Na  Na2  1  0.31629940  0.64541589  0.74914632  1
  Na  Na3  1  0.81458652  0.63781494  0.74677419  1
  Na  Na4  1  0.99723357  0.36365126  0.75120521  1
  Na  Na5  1  0.68954122  0.99954058  0.74919100  1
  Na  Na6  1  0.99842160  0.99839864  0.49882211  1
  Na  Na7  1  0.50226950  0.00223495  0.49664177  1
  Na  Na8  1  0.00114097  0.00157526  0.00119095  1
  Na  Na9  1  0.49987017  0.99982095  0.00117321  1
  Na  Na10  1  0.33506479  0.31239933  0.83496932  1
  Na  Na11  1  0.83399419  0.32527986  0.83730538  1
  Na  Na12  1  0.33460639  0.33513930  0.33141068  1
  Na  Na13  1  0.82784425  0.34382906  0.33509533  1
  Na  Na14  1  0.17386517  0.66936608  0.16669126  1
  Na  Na15  1  0.66548690  0.65560419  0.16804913  1
  Na  Na16  1  0.17265715  0.68774934  0.66466735  1
  Na  Na17  1  0.66766332  0.66770722  0.66347319  1
  Al  Al0  1  0.99776811  0.98763541  0.35134600  1
  Al  Al1  1  0.99878809  0.00600116  0.85344299  1
  Al  Al2  1  0.49318039  0.00849443  0.85301210  1
  Al  Al3  1  0.99408206  0.99546499  0.64714598  1
  Al  Al4  1  0.49446381  0.99627837  0.64674158  1
  Al  Al5  1  0.99402709  0.99275023  0.15020780  1
  Al  Al6  1  0.49985104  0.00157184  0.15050265  1
  Al  Al7  1  0.33378742  0.31711923  0.68513373  1
  Al  Al8  1  0.33364239  0.33241482  0.48136538  1
  Al  Al9  1  0.16696681  0.66715831  0.01662496  1
  Al  Al10  1  0.66576108  0.66711720  0.01681463  1
  Al  Al11  1  0.66588898  0.65389346  0.31400664  1
  Zn  Zn0  1  0.49783891  0.99848583  0.35185390  1
  Zn  Zn1  1  0.83411635  0.32254490  0.68037208  1
  Zn  Zn2  1  0.33362329  0.33532096  0.18145407  1
  Zn  Zn3  1  0.82867513  0.34691812  0.18296249  1
  Zn  Zn4  1  0.33333483  0.33284700  0.98638022  1
  Zn  Zn5  1  0.83313784  0.33293402  0.98570821  1
  Zn  Zn6  1  0.83171610  0.33216176  0.48251606  1
  Zn  Zn7  1  0.16431847  0.66220925  0.51522680  1
  Zn  Zn8  1  0.66939515  0.66962752  0.51638544  1
  Zn  Zn9  1  0.17626037  0.67395762  0.31954423  1
  Zn  Zn10  1  0.17579710  0.69152908  0.81495791  1
  Zn  Zn11  1  0.66878670  0.66997958  0.81639923  1
  Si  Si0  1  0.85278775  0.70877112  0.25179029  1
  Si  Si1  1  0.35782723  0.00823437  0.74818610  1
  Si  Si2  1  0.85719444  0.00090849  0.75111985  1
  S  S0  1  0.14351795  0.00535204  0.24987998  1
  S  S1  1  0.64152363  0.99338405  0.25024734  1
  S  S2  1  0.35572889  0.71099184  0.24850604  1
  S  S3  1  0.00478943  0.28532628  0.25004448  1
  S  S4  1  0.49984095  0.29071331  0.25006277  1
  S  S5  1  0.14354692  0.27679515  0.74821464  1
  S  S6  1  0.63763306  0.27960606  0.75003405  1
  S  S7  1  0.00237034  0.72367135  0.75005307  1
  S  S8  1  0.49752404  0.71274969  0.74847390  1
  S  S9  1  0.47530900  0.32919040  0.58364043  1
  S  S10  1  0.98458822  0.33096637  0.58423377  1
  S  S11  1  0.18826566  0.04969220  0.58442847  1
  S  S12  1  0.67853488  0.03309630  0.58519184  1
  S  S13  1  0.33606483  0.61675951  0.58492710  1
  S  S14  1  0.83629526  0.63396692  0.58550891  1
  S  S15  1  0.48545547  0.63780330  0.08294777  1
  S  S16  1  0.98662058  0.63733161  0.08285352  1
  S  S17  1  0.33323877  0.03037114  0.08341919  1
  S  S18  1  0.83329360  0.03148427  0.08305697  1
  S  S19  1  0.18091732  0.33214245  0.08327790  1
  S  S20  1  0.67987712  0.33284035  0.08207931  1
  S  S21  1  0.31447321  0.66862112  0.91701074  1
  S  S22  1  0.81485894  0.66945253  0.91720767  1
  S  S23  1  0.02356631  0.37537642  0.91573394  1
  S  S24  1  0.52291095  0.37522598  0.91696135  1
  S  S25  1  0.16346741  0.95947969  0.91752560  1
  S  S26  1  0.66304607  0.95877667  0.91621381  1
  S  S27  1  0.31492012  0.96943358  0.42008746  1
  S  S28  1  0.81482175  0.95918793  0.41316721  1
  S  S29  1  0.16662521  0.36234166  0.41691017  1
  S  S30  1  0.66552393  0.37496224  0.41639103  1
  S  S31  1  0.01903269  0.67156929  0.41480093  1
  S  S32  1  0.51982315  0.66097996  0.41689706  1
  O  O0  1  0.10209519  0.02952001  0.30534025  1
  O  O1  1  0.60535075  0.02882497  0.30460219  1
  O  O2  1  0.40631965  0.78654068  0.30408192  1
  O  O3  1  0.92016803  0.80568596  0.30816994  1
  O  O4  1  0.48514443  0.18499658  0.30486198  1
  O  O5  1  0.99291042  0.17608659  0.30492316  1
  O  O6  1  0.10684933  0.16980150  0.80459282  1
  O  O7  1  0.59825238  0.16362227  0.80519275  1
  O  O8  1  0.48285044  0.79299910  0.80398290  1
  O  O9  1  0.99136456  0.80946305  0.80535687  1
  O  O10  1  0.41624673  0.03447791  0.80947439  1
  O  O11  1  0.92250676  0.03789726  0.80959138  1
  O  O12  1  0.40370596  0.96406894  0.69077056  1
  O  O13  1  0.90326536  0.96510924  0.69251107  1
  O  O14  1  0.08734791  0.19050695  0.69463470  1
  O  O15  1  0.58711267  0.19274995  0.69456612  1
  O  O16  1  0.01640577  0.83129385  0.69446326  1
  O  O17  1  0.51680269  0.83036993  0.69442122  1
  O  O18  1  0.40194325  0.82660170  0.19399989  1
  O  O19  1  0.89739850  0.83992776  0.19215069  1
  O  O20  1  0.01741478  0.20389816  0.19449006  1
  O  O21  1  0.51581049  0.20698057  0.19520030  1
  O  O22  1  0.08666192  0.97800376  0.19534789  1
  O  O23  1  0.58701547  0.97150470  0.19505001  1
  O  O24  1  0.43193124  0.35622264  0.63778564  1
  O  O25  1  0.94785840  0.36208859  0.64110752  1
  O  O26  1  0.24413429  0.13739499  0.63863556  1
  O  O27  1  0.73096739  0.10780100  0.64164587  1
  O  O28  1  0.32451089  0.50755916  0.64092391  1
  O  O29  1  0.82228197  0.52892916  0.64242238  1
  O  O30  1  0.44871848  0.52430854  0.13716888  1
  O  O31  1  0.95122523  0.52700976  0.13851059  1
  O  O32  1  0.31326516  0.10336940  0.13748972  1
  O  O33  1  0.81596216  0.10391573  0.13890912  1
  O  O34  1  0.23742452  0.37138678  0.13728381  1
  O  O35  1  0.73527241  0.37195179  0.13647243  1
  O  O36  1  0.21843157  0.29508811  0.02887713  1
  O  O37  1  0.71704618  0.29444513  0.02807929  1
  O  O38  1  0.42945051  0.56409693  0.02872910  1
  O  O39  1  0.92880913  0.55946072  0.02978169  1
  O  O40  1  0.35288617  0.14246228  0.02877066  1
  O  O41  1  0.84966212  0.14518143  0.02934088  1
  O  O42  1  0.23051144  0.16156455  0.52944473  1
  O  O43  1  0.71935831  0.14654911  0.53134848  1
  O  O44  1  0.34797378  0.52914980  0.53030859  1
  O  O45  1  0.85028528  0.55142331  0.53177452  1
  O  O46  1  0.41924725  0.30138572  0.52909614  1
  O  O47  1  0.92702533  0.29738870  0.53126678  1
  O  O48  1  0.26865911  0.69741749  0.96996323  1
  O  O49  1  0.76823971  0.69659705  0.96989837  1
  O  O50  1  0.08099304  0.46742456  0.96930989  1
  O  O51  1  0.58001240  0.46444468  0.97106082  1
  O  O52  1  0.14944835  0.84230357  0.97155487  1
  O  O53  1  0.65023245  0.84029816  0.96956487  1
  O  O54  1  0.27314494  0.85486227  0.47369928  1
  O  O55  1  0.77919555  0.85331994  0.46900769  1
  O  O56  1  0.14792670  0.43624400  0.47119334  1
  O  O57  1  0.65233604  0.45195246  0.47217121  1
  O  O58  1  0.07364964  0.70148393  0.46917805  1
  O  O59  1  0.57275104  0.69024067  0.47191816  1
  O  O60  1  0.05893855  0.64406988  0.35867902  1
  O  O61  1  0.56282006  0.63263212  0.36214103  1
  O  O62  1  0.26175275  0.90041665  0.36400790  1
  O  O63  1  0.75604493  0.86856316  0.35947537  1
  O  O64  1  0.18640603  0.47441504  0.36196192  1
  O  O65  1  0.67646398  0.48862088  0.36185564  1
  O  O66  1  0.06154508  0.47751790  0.85890057  1
  O  O67  1  0.56130257  0.47997371  0.86136057  1
  O  O68  1  0.17829378  0.88597104  0.86208531  1
  O  O69  1  0.67806293  0.88671556  0.85952981  1
  O  O70  1  0.26303986  0.63701841  0.86067995  1
  O  O71  1  0.76447581  0.63910106  0.86036937  1
  O  O72  1  0.01280148  0.83955406  0.40940460  1
  O  O73  1  0.50724266  0.81724126  0.41008496  1
  O  O74  1  0.40508805  0.99040115  0.41443754  1
  O  O75  1  0.90689337  0.98261434  0.40526056  1
  O  O76  1  0.08573415  0.18062473  0.40750366  1
  O  O77  1  0.58559271  0.19453084  0.41086986  1
  O  O78  1  0.01900089  0.19580390  0.91271875  1
  O  O79  1  0.51851518  0.19564333  0.91320572  1
  O  O80  1  0.07921964  0.97142149  0.91168157  1
  O  O81  1  0.57910803  0.97027574  0.91093281  1
  O  O82  1  0.40525334  0.83675521  0.91244861  1
  O  O83  1  0.90552538  0.83672528  0.91277960  1
  O  O84  1  0.48339686  0.16437954  0.58951450  1
  O  O85  1  0.99394350  0.16703134  0.59104573  1
  O  O86  1  0.09814027  0.03341187  0.59146059  1
  O  O87  1  0.58796493  0.01966389  0.59269607  1
  O  O88  1  0.41973593  0.79610111  0.58906787  1
  O  O89  1  0.92149865  0.81476031  0.59010843  1
  O  O90  1  0.49639144  0.82066043  0.09256545  1
  O  O91  1  0.99793643  0.82039923  0.09143145  1
  O  O92  1  0.41418679  0.00986335  0.09318739  1
  O  O93  1  0.91587806  0.01564469  0.08930171  1
  O  O94  1  0.08959422  0.17077925  0.09301288  1
  O  O95  1  0.58858287  0.17028802  0.09243480  1
  O  O96  1  0.34757760  0.18628742  0.74091709  1
  O  O97  1  0.84580316  0.17984080  0.74849398  1
  O  O98  1  0.23694168  0.31003615  0.74070083  1
  O  O99  1  0.73055551  0.30670620  0.74709843  1
  O  O100  1  0.41307443  0.53620159  0.74080016  1
  O  O101  1  0.91760851  0.54555112  0.74712770  1
  O  O102  1  0.34557843  0.53066532  0.24203263  1
  O  O103  1  0.84702207  0.51438071  0.24733103  1
  O  O104  1  0.42028795  0.31157936  0.24212009  1
  O  O105  1  0.92108408  0.29630277  0.24585663  1
  O  O106  1  0.23369726  0.16501051  0.24494199  1
  O  O107  1  0.73507340  0.14528547  0.24247656  1
  O  O108  1  0.32597876  0.51137958  0.92504035  1
  O  O109  1  0.82579860  0.51108889  0.92505136  1
  O  O110  1  0.43183832  0.34947983  0.92398132  1
  O  O111  1  0.93261395  0.35045887  0.92303210  1
  O  O112  1  0.24263795  0.14025747  0.92494662  1
  O  O113  1  0.74281596  0.13888596  0.92381015  1
  O  O114  1  0.32321525  0.15103381  0.42845359  1
  O  O115  1  0.82282345  0.13842280  0.41692908  1
  O  O116  1  0.24892944  0.34527614  0.42642827  1
  O  O117  1  0.74861300  0.36322057  0.41849243  1
  O  O118  1  0.42832777  0.49311456  0.42357118  1
  O  O119  1  0.92837167  0.51150241  0.42047750  1
  O  O120  1  0.17133072  0.49561330  0.07301346  1
  O  O121  1  0.67004125  0.49529288  0.07220828  1
  O  O122  1  0.07743619  0.65578893  0.07247748  1
  O  O123  1  0.57694085  0.65795240  0.07287424  1
  O  O124  1  0.25214068  0.84704392  0.07331291  1
  O  O125  1  0.75190307  0.84822996  0.07346818  1
  O  O126  1  0.17937567  0.87085637  0.57992971  1
  O  O127  1  0.66801152  0.85273811  0.57904587  1
  O  O128  1  0.25635093  0.63680487  0.58070118  1
  O  O129  1  0.75686690  0.65713464  0.58065935  1
  O  O130  1  0.07497393  0.49270211  0.57821354  1
  O  O131  1  0.56510509  0.48925714  0.57939995  1
  O  O132  1  0.14881463  0.83751760  0.25348547  1
  O  O133  1  0.64682615  0.82462884  0.25612317  1
  O  O134  1  0.26612473  0.69886205  0.25052475  1
  O  O135  1  0.75409695  0.69525789  0.25996557  1
  O  O136  1  0.08275666  0.47011604  0.25384277  1
  O  O137  1  0.58268215  0.47252413  0.25575882  1
  O  O138  1  0.14918467  0.45458626  0.75301708  1
  O  O139  1  0.64483955  0.45695648  0.75413430  1
  O  O140  1  0.07818726  0.69004866  0.75349572  1
  O  O141  1  0.57577686  0.68781443  0.75355908  1
  O  O142  1  0.25893765  0.82396950  0.75050732  1
  O  O143  1  0.75605372  0.82180160  0.75288858  1
loop_
_geom_bond_atom_site_label_1
_geom_bond_atom_site_label_2
_geom_bond_distance
_geom_bond_site_symmetry_2
Na0 O135 2.262646 1_555
Na0 O105 2.281217 1_565
Na0 O107 2.338867 1_565
Na0 O133 2.540377 1_555
Na0 O33 2.574828 1_565
Na0 O19 2.654954 1_555
Na0 O63 2.687117 1_555
Na0 O5 2.904620 1_565
Na1 O103 2.241617 1_555
Na1 O132 2.305933 1_655
Na1 O136 2.495763 1_655
Na1 O105 2.511283 1_555
Na1 O60 2.554140 1_655
Na1 O31 2.672593 1_555
Na1 O3 2.714778 1_555
Na1 O22 2.857481 1_655
Na2 O142 2.200976 1_555
Na2 O100 2.289973 1_555
Na2 O138 2.491392 1_555
Na2 O98 2.501712 1_555
Na2 O70 2.612770 1_555
Na2 O12 2.692266 1_555
Na2 O28 2.705606 1_555
Na2 O8 2.766178 1_555
Na3 O143 2.263979 1_555
Na3 O101 2.273670 1_555
Na3 O99 2.460534 1_555
Na3 O29 2.518111 1_555
Na3 O139 2.527488 1_555
Na3 O71 2.651360 1_555
Na3 O13 2.707166 1_555
Na4 O97 2.267275 1_555
Na4 O138 2.319058 1_655
Na4 O140 2.426400 1_655
Na4 O101 2.543449 1_555
Na4 O25 2.576020 1_555
Na4 O66 2.604619 1_655
Na4 O11 2.738962 1_555
Na4 O14 2.912426 1_655
Na5 O143 2.323154 1_555
Na5 O97 2.330011 1_565
Na5 O99 2.365744 1_565
Na5 O141 2.396559 1_555
Na5 O27 2.514364 1_565
Na5 O69 2.589682 1_555
Na5 O17 2.843726 1_555
Na5 O7 2.862674 1_565
Na6 O89 2.483310 1_555
Na6 O72 2.485383 1_655
Na6 O76 2.523503 1_665
Na6 O85 2.526806 1_565
Na6 O75 2.563478 1_555
Na6 O86 2.592790 1_665
Na7 O74 2.438423 1_545
Na7 O77 2.439747 1_555
Na7 O73 2.518754 1_545
Na7 O87 2.548153 1_555
Na7 O84 2.592583 1_555
Na7 O88 2.597676 1_545
Na8 O93 2.470967 1_455
Na8 O80 2.471344 1_544
Na8 O78 2.481475 1_554
Na8 O83 2.494380 1_444
Na8 O91 2.508322 1_445
Na8 O94 2.521584 1_555
Na9 O79 2.478187 1_564
Na9 O82 2.489753 1_554
Na9 O81 2.494056 1_554
Na9 O95 2.516034 1_565
Na9 O90 2.516784 1_555
Na9 O92 2.531996 1_565
Na10 O96 2.404381 1_555
Na10 O110 2.495090 1_555
Na10 O112 2.501474 1_555
Na10 O98 2.677191 1_555
Na10 O100 2.680544 1_555
Na10 O108 2.682065 1_555
Na11 O97 2.391317 1_555
Na11 O113 2.471376 1_555
Na11 O111 2.481766 1_555
Na11 O109 2.563008 1_555
Na11 O101 2.614714 1_555
Na11 O99 2.625778 1_555
Na12 O106 2.507259 1_555
Na12 O104 2.525348 1_555
Na12 O102 2.532293 1_555
Na12 O118 2.534706 1_555
Na12 O116 2.585608 1_555
Na12 O114 2.607383 1_555
Na13 O117 2.341917 1_555
Na13 O103 2.346355 1_555
Na13 O119 2.481264 1_555
Na13 O115 2.492867 1_555
Na13 O107 2.636425 1_555
Na13 O105 2.693737 1_555
Na14 O134 2.371686 1_555
Na14 O124 2.507982 1_555
Na14 O136 2.520201 1_555
Na14 O120 2.543127 1_555
Na14 O132 2.566010 1_555
Na14 O122 2.630482 1_555
Na15 O137 2.442053 1_555
Na15 O135 2.461715 1_555
Na15 O133 2.545162 1_555
Na15 O121 2.551598 1_555
Na15 O123 2.604990 1_555
Na15 O125 2.606584 1_555
Na16 O142 2.335312 1_555
Na16 O126 2.405870 1_555
Na16 O128 2.513152 1_555
Na16 O130 2.547631 1_555
Na16 O140 2.548013 1_555
Na16 O138 2.672380 1_555
Na17 O129 2.412969 1_555
Na17 O127 2.444538 1_555
Na17 O143 2.445079 1_555
Na17 O131 2.496448 1_555
Na17 O139 2.588451 1_555
Na17 O141 2.594903 1_555
Al0 O3 1.748340 1_555
Al0 O72 1.910938 1_655
Al0 O0 1.926249 1_665
Al0 O75 1.943011 1_555
Al0 O5 1.950860 1_565
Al0 O76 2.020470 1_665
Al1 O11 1.760166 1_555
Al1 O9 1.947541 1_545
Al1 O6 1.985608 1_655
Al1 O78 1.985748 1_655
Al1 O83 2.007969 1_545
Al1 O80 2.018469 1_645
Al2 O10 1.739260 1_555
Al2 O7 1.926366 1_555
Al2 O79 1.964286 1_555
Al2 O82 1.979114 1_545
Al2 O8 2.077902 1_545
Al2 O81 2.102532 1_545
Al3 O13 1.756144 1_555
Al3 O89 1.905927 1_555
Al3 O85 1.923573 1_565
Al3 O16 1.940546 1_655
Al3 O14 1.950100 1_665
Al3 O86 2.051903 1_665
Al4 O12 1.734013 1_555
Al4 O87 1.924952 1_565
Al4 O15 1.955598 1_565
Al4 O17 1.957300 1_555
Al4 O84 1.996400 1_565
Al4 O88 2.009449 1_555
Al5 O19 1.769102 1_555
Al5 O20 1.921572 1_665
Al5 O22 1.937833 1_655
Al5 O93 1.981606 1_565
Al5 O91 1.998749 1_555
Al5 O94 2.020212 1_665
Al6 O18 1.857824 1_545
Al6 O23 1.916786 1_545
Al6 O21 1.921637 1_555
Al6 O95 1.955605 1_555
Al6 O92 1.972552 1_555
Al6 O90 1.994617 1_545
Al7 O96 1.760201 1_555
Al7 O26 1.856012 1_555
Al7 O24 1.861416 1_555
Al7 O28 1.977165 1_555
Al7 O98 2.039761 1_555
Al7 O100 2.088775 1_555
Al8 O114 1.886835 1_555
Al8 O44 1.919122 1_555
Al8 O46 1.935930 1_555
Al8 O116 1.943010 1_555
Al8 O42 1.945685 1_555
Al8 O118 1.974727 1_555
Al9 O50 1.922560 1_554
Al9 O48 1.926236 1_554
Al9 O122 1.931632 1_555
Al9 O52 1.947713 1_554
Al9 O120 1.956798 1_555
Al9 O124 1.962721 1_555
Al10 O51 1.915716 1_554
Al10 O123 1.931893 1_555
Al10 O53 1.940391 1_554
Al10 O49 1.942708 1_554
Al10 O121 1.944197 1_555
Al10 O125 1.972500 1_555
Al11 O135 1.813884 1_555
Al11 O65 1.848587 1_555
Al11 O137 1.978947 1_555
Al11 O61 1.989630 1_555
Al11 O63 1.991004 1_555
Al11 O133 2.089763 1_555
O0 S0 1.481092 1_555
O1 S1 1.451588 1_545
O1 Zn0 2.017103 1_545
O2 S2 1.459334 1_555
O2 Zn0 2.012683 1_555
O3 Si0 1.622632 1_555
O4 S4 1.453962 1_555
O4 Zn0 2.008710 1_545
O5 S3 1.479931 1_655
O6 S5 1.482524 1_555
O7 S6 1.498001 1_555
O8 S8 1.489961 1_555
O9 S7 1.488417 1_655
O10 Si1 1.635444 1_555
O11 Si2 1.637822 1_555
O12 Si1 1.633870 1_565
O13 Si2 1.623660 1_565
O14 S5 1.475548 1_555
O15 S6 1.474504 1_555
O16 S7 1.478925 1_555
O17 S8 1.486415 1_555
O18 S2 1.503181 1_555
O19 Si0 1.645618 1_555
O20 S3 1.482650 1_555
O21 S4 1.504241 1_555
O22 S0 1.496492 1_565
O23 S1 1.493708 1_555
O24 S9 1.486106 1_555
O25 S10 1.487753 1_555
O25 Zn1 2.001048 1_555
O26 S11 1.486669 1_555
O27 S12 1.486819 1_555
O27 Zn1 2.003491 1_555
O28 S13 1.500993 1_555
O29 S14 1.491566 1_555
O29 Zn1 2.059719 1_555
O30 S15 1.467048 1_555
O30 Zn2 2.062537 1_555
O31 S16 1.479019 1_555
O31 Zn3 2.119876 1_555
O32 S17 1.468145 1_555
O32 Zn2 2.086391 1_555
O33 S18 1.478576 1_555
O33 Zn3 2.216206 1_555
O34 S19 1.469992 1_555
O34 Zn2 2.074212 1_555
O35 S20 1.466742 1_555
O35 Zn3 2.007942 1_555
O36 S19 1.470808 1_555
O36 Zn4 2.055154 1_554
O37 S20 1.465470 1_555
O37 Zn5 2.069835 1_554
O38 S15 1.470368 1_555
O38 Zn4 2.068342 1_554
O39 S16 1.467677 1_555
O39 Zn5 2.061260 1_554
O40 S17 1.470154 1_555
O40 Zn4 2.051744 1_554
O41 S18 1.468037 1_555
O41 Zn5 2.015872 1_554
O42 S11 1.486886 1_555
O43 S12 1.468380 1_555
O43 Zn6 2.077136 1_555
O44 S13 1.490858 1_555
O45 S14 1.464236 1_555
O45 Zn6 2.060988 1_555
O46 S9 1.488245 1_555
O47 S10 1.467483 1_555
O47 Zn6 2.104963 1_555
O48 S21 1.496398 1_555
O49 S22 1.494213 1_555
O50 S23 1.493276 1_555
O51 S24 1.495593 1_555
O52 S25 1.497415 1_555
O53 S26 1.496170 1_555
O54 S27 1.470695 1_555
O54 Zn7 1.986513 1_555
O55 S28 1.466694 1_555
O55 Zn8 2.032009 1_555
O56 S29 1.466598 1_555
O56 Zn7 2.064150 1_555
O57 S30 1.469904 1_555
O57 Zn8 2.000451 1_555
O58 S31 1.468526 1_555
O58 Zn7 2.027570 1_555
O59 S32 1.465236 1_555
O59 Zn8 2.014410 1_555
O60 S31 1.490180 1_555
O60 Zn9 2.083481 1_555
O61 S32 1.497861 1_555
O62 S27 1.479502 1_555
O62 Zn9 2.015161 1_555
O63 S28 1.502380 1_555
O64 S29 1.475261 1_555
O64 Zn9 2.034399 1_555
O65 S30 1.498738 1_555
O66 S23 1.477618 1_555
O66 Zn10 2.127348 1_555
O67 S24 1.464183 1_555
O67 Zn11 2.002400 1_555
O68 S25 1.458620 1_555
O68 Zn10 1.953652 1_555
O69 S26 1.476651 1_555
O69 Zn11 2.028828 1_555
O70 S21 1.473551 1_555
O70 Zn10 2.048851 1_555
O71 S22 1.475194 1_555
O71 Zn11 2.040374 1_555
O72 S31 1.504476 1_555
O73 S32 1.470588 1_555
O73 Zn0 2.084855 1_555
O74 S27 1.471506 1_555
O74 Zn0 2.079969 1_555
O75 S28 1.500177 1_555
O76 S29 1.495817 1_555
O77 S30 1.472608 1_555
O77 Zn0 2.070638 1_545
O78 S23 1.506923 1_555
O79 S24 1.509227 1_555
O80 S25 1.507308 1_555
O81 S26 1.498868 1_555
O82 S21 1.504867 1_555
O83 S22 1.500365 1_555
O84 S9 1.496100 1_555
O85 S10 1.502994 1_555
O86 S11 1.490351 1_555
O87 S12 1.509637 1_555
O88 S13 1.492171 1_555
O89 S14 1.511508 1_555
O90 S15 1.501804 1_555
O91 S16 1.497818 1_555
O92 S17 1.503041 1_555
O93 S18 1.498417 1_555
O94 S19 1.496987 1_555
O95 S20 1.502744 1_555
O96 Si1 1.633035 1_555
O97 Si2 1.645415 1_555
O97 Zn1 2.011178 1_555
O98 S5 1.490158 1_555
O99 S6 1.494056 1_555
O99 Zn1 2.256498 1_555
O100 S8 1.492652 1_555
O101 S7 1.493373 1_655
O101 Zn1 2.275228 1_555
O102 S2 1.477239 1_555
O102 Zn2 2.078589 1_555
O103 Si0 1.626264 1_555
O103 Zn3 1.937111 1_555
O104 S4 1.475798 1_555
O104 Zn2 2.090614 1_555
O105 S3 1.490659 1_655
O105 Zn3 2.311648 1_555
O106 S0 1.468777 1_555
O106 Zn2 2.121497 1_555
O107 S1 1.485155 1_545
O107 Zn3 2.118272 1_555
O108 S21 1.470726 1_555
O108 Zn4 2.094526 1_555
O109 S22 1.473986 1_555
O109 Zn5 2.082230 1_555
O110 S24 1.473400 1_555
O110 Zn4 2.126488 1_555
O111 S23 1.474738 1_655
O111 Zn5 2.140576 1_555
O112 S25 1.473501 1_545
O112 Zn4 2.108964 1_555
O113 S26 1.474691 1_545
O113 Zn5 2.118664 1_555
O114 S27 1.506106 1_545
O115 S28 1.478588 1_545
O115 Zn6 2.157616 1_555
O116 S29 1.508215 1_555
O117 S30 1.481413 1_555
O117 Zn6 2.122067 1_555
O118 S32 1.514214 1_555
O119 S31 1.476227 1_655
O119 Zn6 2.099803 1_555
O120 S19 1.510686 1_555
O121 S20 1.503288 1_555
O122 S16 1.503352 1_455
O123 S15 1.507703 1_555
O124 S17 1.507592 1_565
O125 S18 1.507520 1_565
O126 S11 1.469756 1_565
O126 Zn7 2.208479 1_555
O127 S12 1.474192 1_565
O127 Zn8 2.107911 1_555
O128 S13 1.466663 1_555
O128 Zn7 2.235843 1_555
O129 S14 1.478657 1_555
O129 Zn8 2.112037 1_555
O130 S10 1.479921 1_455
O130 Zn7 2.034355 1_555
O131 S9 1.465407 1_555
O131 Zn8 2.174395 1_555
O132 S0 1.491854 1_565
O132 Zn9 2.232273 1_555
O133 S1 1.503146 1_555
O134 S2 1.490099 1_555
O134 Zn9 2.098008 1_555
O135 Si0 1.649277 1_555
O136 S3 1.479244 1_555
O136 Zn9 2.227500 1_555
O137 S4 1.500519 1_555
O138 S5 1.485674 1_555
O138 Zn10 2.305235 1_555
O139 S6 1.468857 1_555
O139 Zn11 2.162307 1_555
O140 S7 1.471018 1_555
O140 Zn10 2.156225 1_555
O141 S8 1.468207 1_555
O141 Zn11 2.182388 1_555
O142 Si1 1.641053 1_565
O142 Zn10 1.924459 1_555
O143 Si2 1.643944 1_565
O143 Zn11 1.981302 1_555
