# generated using pymatgen
data_MgMn6(O5F)2
_symmetry_space_group_name_H-M   'P 1'
_cell_length_a   11.98245275
_cell_length_b   6.40699820
_cell_length_c   2.97567800
_cell_angle_alpha   90.00000000
_cell_angle_beta   90.00000000
_cell_angle_gamma   108.54483131
_symmetry_Int_Tables_number   1
_chemical_formula_structural   MgMn6(O5F)2
_chemical_formula_sum   'Mg1 Mn6 O10 F2'
_cell_volume   216.58530980
_cell_formula_units_Z   1
loop_
 _symmetry_equiv_pos_site_id
 _symmetry_equiv_pos_as_xyz
  1  'x, y, z'
loop_
 _atom_site_type_symbol
 _atom_site_label
 _atom_site_symmetry_multiplicity
 _atom_site_fract_x
 _atom_site_fract_y
 _atom_site_fract_z
 _atom_site_occupancy
  Mg  Mg0  1  0.50444000  0.99360600  0.00000000  1
  Mn  Mn0  1  0.01474400  0.99717200  0.00000000  1
  Mn  Mn1  1  0.30065700  0.16786100  0.50000000  1
  Mn  Mn2  1  0.99520500  0.48650400  0.50000000  1
  Mn  Mn3  1  0.70699700  0.31734200  0.00000000  1
  Mn  Mn4  1  0.27322100  0.64240500  0.00000000  1
  Mn  Mn5  1  0.70216300  0.80196200  0.50000000  1
  O  O0  1  0.11901300  0.05567400  0.50000000  1
  O  O1  1  0.99404400  0.28883300  0.00000000  1
  O  O2  1  0.31521500  0.36813800  0.00000000  1
  O  O3  1  0.99126800  0.68063800  0.00000000  1
  O  O4  1  0.67671400  0.98328600  0.00000000  1
  O  O5  1  0.58513100  0.22738500  0.50000000  1
  O  O6  1  0.16739600  0.59163200  0.50000000  1
  O  O7  1  0.81341100  0.37078300  0.50000000  1
  O  O8  1  0.69141400  0.60514200  0.00000000  1
  O  O9  1  0.33192500  0.98779500  0.00000000  1
  F  F0  1  0.44734000  0.76849700  0.50000000  1
  F  F1  1  0.88845200  0.92576200  0.50000000  1
loop_
_geom_bond_atom_site_label_1
_geom_bond_atom_site_label_2
_geom_bond_distance
_geom_bond_site_symmetry_2
Mg0 O9 2.055615 1_555
Mg0 O4 2.086236 1_555
Mg0 O5 2.114424 1_564
Mg0 O5 2.114424 1_565
Mn0 O0 1.901912 1_565
Mn0 O0 1.901912 1_564
Mn0 O3 1.956825 1_455
Mn0 O1 1.961704 1_465
Mn1 O2 1.936040 1_555
Mn1 O2 1.936040 1_556
Mn1 O9 1.989968 1_546
Mn1 O9 1.989968 1_545
Mn1 O0 2.063695 1_555
Mn2 O3 1.949434 1_556
Mn2 O3 1.949434 1_555
Mn2 O1 1.951055 1_556
Mn2 O1 1.951055 1_555
Mn2 O6 1.956212 1_655
Mn2 O7 2.065800 1_555
Mn3 O8 1.911535 1_555
Mn3 O7 1.918090 1_555
Mn3 O7 1.918090 1_554
Mn3 O5 2.035396 1_555
Mn3 O5 2.035396 1_554
Mn3 O4 2.053905 1_545
Mn4 O6 1.914428 1_554
Mn4 O6 1.914428 1_555
Mn4 O2 1.975728 1_555
Mn4 O9 2.098008 1_555
Mn5 O8 1.927985 1_555
Mn5 O8 1.927985 1_556
Mn5 O4 1.970189 1_555
Mn5 O4 1.970189 1_556
F0 Mg0 2.033285 1_555
F0 Mg0 2.033285 1_556
F0 Mn4 2.479339 1_555
F0 Mn4 2.479339 1_556
F1 Mn0 2.067033 1_655
F1 Mn0 2.067033 1_656
F1 Mn5 2.117929 1_555
