# generated using pymatgen
data_Gd2B3C2
_symmetry_space_group_name_H-M   'P 1'
_cell_length_a   3.42273909
_cell_length_b   3.72581428
_cell_length_c   7.04889447
_cell_angle_alpha   90.00000000
_cell_angle_beta   104.05099988
_cell_angle_gamma   90.00000000
_symmetry_Int_Tables_number   1
_chemical_formula_structural   Gd2B3C2
_chemical_formula_sum   'Gd2 B3 C2'
_cell_volume   87.20142030
_cell_formula_units_Z   1
loop_
 _symmetry_equiv_pos_site_id
 _symmetry_equiv_pos_as_xyz
  1  'x, y, z'
loop_
 _atom_site_type_symbol
 _atom_site_label
 _atom_site_symmetry_multiplicity
 _atom_site_fract_x
 _atom_site_fract_y
 _atom_site_fract_z
 _atom_site_occupancy
  Gd  Gd0  1  0.86554870  -0.00000000  0.73109639  1
  Gd  Gd1  1  0.13445130  -0.00000000  0.26890261  1
  B  B0  1  0.28295716  0.50000000  0.56591632  1
  B  B1  1  0.71704284  0.50000000  0.43408368  1
  B  B2  1  0.50000000  0.50000000  0.00000000  1
  C  C0  1  0.39511210  0.50000000  0.79022420  1
  C  C1  1  0.60488790  0.50000000  0.20977580  1
loop_
_geom_bond_atom_site_label_1
_geom_bond_atom_site_label_2
_geom_bond_distance
_geom_bond_site_symmetry_2
B0 C0 1.533815 1_555
B1 C1 1.533815 1_555
B2 C0 1.434445 1_554
B2 C1 1.434445 1_555
C0 Gd0 2.561772 1_455
C0 Gd0 2.561772 1_465
C0 Gd0 2.561774 1_555
C0 Gd0 2.561774 1_565
C1 Gd1 2.561772 1_555
C1 Gd1 2.561772 1_565
C1 Gd1 2.561772 1_665
C1 Gd1 2.561772 1_655
