# generated using pymatgen
data_MgV4(OF2)4
_symmetry_space_group_name_H-M   'P 1'
_cell_length_a   5.08811214
_cell_length_b   7.76431812
_cell_length_c   5.31929657
_cell_angle_alpha   85.37609019
_cell_angle_beta   89.71682896
_cell_angle_gamma   90.39023391
_symmetry_Int_Tables_number   1
_chemical_formula_structural   MgV4(OF2)4
_chemical_formula_sum   'Mg1 V4 O4 F8'
_cell_volume   209.45066444
_cell_formula_units_Z   1
loop_
 _symmetry_equiv_pos_site_id
 _symmetry_equiv_pos_as_xyz
  1  'x, y, z'
loop_
 _atom_site_type_symbol
 _atom_site_label
 _atom_site_symmetry_multiplicity
 _atom_site_fract_x
 _atom_site_fract_y
 _atom_site_fract_z
 _atom_site_occupancy
  Mg  Mg0  1  0.48873100  0.28562800  0.09868000  1
  V  V0  1  0.49960200  0.50721400  0.51106900  1
  V  V1  1  0.50300800  0.98480400  0.50942500  1
  V  V2  1  0.99941000  0.50998300  0.99704800  1
  V  V3  1  0.01080300  0.99377400  0.00243300  1
  O  O0  1  0.68314200  0.51990100  0.21616000  1
  O  O1  1  0.69963300  0.95762500  0.77369600  1
  O  O2  1  0.31774700  0.05703400  0.19675800  1
  O  O3  1  0.32536100  0.43548700  0.80677100  1
  F  F0  1  0.86322300  0.25400000  0.98867900  1
  F  F1  1  0.79853400  0.91980700  0.29438300  1
  F  F2  1  0.81056400  0.58002200  0.68450800  1
  F  F3  1  0.60740900  0.24350100  0.47831000  1
  F  F4  1  0.37071500  0.74221000  0.50109100  1
  F  F5  1  0.20136800  0.42056900  0.30564500  1
  F  F6  1  0.19509300  0.06206700  0.68836200  1
  F  F7  1  0.12565600  0.74304200  0.00948300  1
loop_
_geom_bond_atom_site_label_1
_geom_bond_atom_site_label_2
_geom_bond_distance
_geom_bond_site_symmetry_2
Mg0 O2 2.001106 1_555
Mg0 O3 2.047070 1_554
Mg0 O0 2.200573 1_555
O0 V0 1.817146 1_555
O0 V2 1.987848 1_554
O1 V1 1.729299 1_555
O1 V3 2.033217 1_656
O2 V3 1.958623 1_545
O2 V1 1.959976 1_545
O3 V0 1.846210 1_555
O3 V2 2.049485 1_455
F0 Mg0 2.012950 1_556
F0 V2 2.104338 1_555
F0 V3 2.156134 1_646
F1 V3 1.933705 1_655
F1 V1 1.977511 1_555
F2 V0 1.939183 1_555
F2 V2 1.964694 1_555
F3 V1 2.067623 1_545
F3 Mg0 2.111327 1_555
F3 V0 2.143736 1_555
F4 V0 1.939849 1_555
F4 V1 1.999852 1_555
F5 V0 2.017486 1_555
F5 V2 2.018696 1_454
F5 Mg0 2.153716 1_555
F6 V3 1.945859 1_546
F6 V1 1.952056 1_545
F7 V2 1.922324 1_454
F7 V3 2.033898 1_555
