# generated using pymatgen
data_DyGaPd
_symmetry_space_group_name_H-M   'P 1'
_cell_length_a   4.45537707
_cell_length_b   6.93939669
_cell_length_c   7.53631349
_cell_angle_alpha   90.00000000
_cell_angle_beta   90.00000000
_cell_angle_gamma   90.00000000
_symmetry_Int_Tables_number   1
_chemical_formula_structural   DyGaPd
_chemical_formula_sum   'Dy4 Ga4 Pd4'
_cell_volume   233.00494370
_cell_formula_units_Z   4
loop_
 _symmetry_equiv_pos_site_id
 _symmetry_equiv_pos_as_xyz
  1  'x, y, z'
loop_
 _atom_site_type_symbol
 _atom_site_label
 _atom_site_symmetry_multiplicity
 _atom_site_fract_x
 _atom_site_fract_y
 _atom_site_fract_z
 _atom_site_occupancy
  Dy  Dy0  1  0.25000000  0.48227930  0.80066454  1
  Dy  Dy1  1  0.75000000  0.51772070  0.19933546  1
  Dy  Dy2  1  0.25000000  0.98227930  0.69933546  1
  Dy  Dy3  1  0.75000000  0.01772070  0.30066454  1
  Ga  Ga0  1  0.25000000  0.82241727  0.07753915  1
  Ga  Ga1  1  0.75000000  0.17758273  0.92246085  1
  Ga  Ga2  1  0.25000000  0.32241727  0.42246085  1
  Ga  Ga3  1  0.75000000  0.67758273  0.57753915  1
  Pd  Pd0  1  0.75000000  0.78503897  0.90546446  1
  Pd  Pd1  1  0.25000000  0.21496103  0.09453554  1
  Pd  Pd2  1  0.75000000  0.28503897  0.59453554  1
  Pd  Pd3  1  0.25000000  0.71496103  0.40546446  1
loop_
_geom_bond_atom_site_label_1
_geom_bond_atom_site_label_2
_geom_bond_distance
_geom_bond_site_symmetry_2
Dy0 Pd1 2.888952 1_556
Dy0 Pd2 3.041255 1_555
Dy0 Pd2 3.041255 1_455
Dy0 Ga2 3.058536 1_555
Dy0 Ga3 3.102739 1_555
Dy0 Ga3 3.102739 1_455
Dy0 Ga0 3.150432 1_556
Dy0 Pd0 3.162351 1_455
Dy0 Pd0 3.162351 1_555
Dy0 Ga1 3.205598 1_555
Dy0 Ga1 3.205598 1_455
Dy0 Pd3 3.387881 1_555
Dy1 Pd0 2.888952 1_554
Dy1 Pd3 3.041255 1_655
Dy1 Pd3 3.041255 1_555
Dy1 Ga3 3.058536 1_555
Dy1 Ga2 3.102739 1_655
Dy1 Ga2 3.102739 1_555
Dy1 Ga1 3.150432 1_554
Dy1 Pd1 3.162351 1_555
Dy1 Pd1 3.162351 1_655
Dy1 Ga0 3.205598 1_555
Dy1 Ga0 3.205598 1_655
Dy1 Pd2 3.387881 1_555
Dy2 Pd3 2.888952 1_555
Dy2 Pd0 3.041255 1_455
Dy2 Pd0 3.041255 1_555
Dy2 Ga0 3.058536 1_556
Dy2 Ga1 3.102739 1_565
Dy2 Ga1 3.102739 1_465
Dy2 Ga2 3.150432 1_565
Dy2 Pd2 3.162351 1_565
Dy2 Pd2 3.162351 1_465
Dy2 Ga3 3.205598 1_555
Dy2 Ga3 3.205598 1_455
Dy2 Pd1 3.387881 1_566
Dy3 Pd2 2.888952 1_555
Dy3 Pd1 3.041255 1_655
Dy3 Pd1 3.041255 1_555
Dy3 Ga1 3.058536 1_554
Dy3 Ga0 3.102739 1_545
Dy3 Ga0 3.102739 1_645
Dy3 Ga3 3.150432 1_545
Dy3 Pd3 3.162351 1_545
Dy3 Pd3 3.162351 1_645
Dy3 Ga2 3.205598 1_655
Dy3 Ga2 3.205598 1_555
Dy3 Pd0 3.387881 1_544
Ga0 Pd3 2.581395 1_555
Ga0 Pd0 2.590673 1_454
Ga0 Pd0 2.590673 1_554
Ga0 Pd1 2.727027 1_565
Ga1 Pd2 2.581395 1_555
Ga1 Pd1 2.590673 1_656
Ga1 Pd1 2.590673 1_556
Ga1 Pd0 2.727027 1_545
Ga2 Pd1 2.581395 1_555
Ga2 Pd2 2.590673 1_555
Ga2 Pd2 2.590673 1_455
Ga2 Pd3 2.727027 1_555
Ga3 Pd0 2.581395 1_555
Ga3 Pd3 2.590673 1_555
Ga3 Pd3 2.590673 1_655
Ga3 Pd2 2.727027 1_555
