# generated using pymatgen
data_BaMgMn4O8
_symmetry_space_group_name_H-M   'P 1'
_cell_length_a   3.27524891
_cell_length_b   7.46695023
_cell_length_c   7.49098830
_cell_angle_alpha   84.63133526
_cell_angle_beta   77.37244381
_cell_angle_gamma   77.33111947
_symmetry_Int_Tables_number   1
_chemical_formula_structural   BaMgMn4O8
_chemical_formula_sum   'Ba1 Mg1 Mn4 O8'
_cell_volume   174.21652119
_cell_formula_units_Z   1
loop_
 _symmetry_equiv_pos_site_id
 _symmetry_equiv_pos_as_xyz
  1  'x, y, z'
loop_
 _atom_site_type_symbol
 _atom_site_label
 _atom_site_symmetry_multiplicity
 _atom_site_fract_x
 _atom_site_fract_y
 _atom_site_fract_z
 _atom_site_occupancy
  Ba  Ba0  1  0.49780300  0.00000000  0.00000000  1
  Mg  Mg0  1  0.60246800  0.50000000  0.50000000  1
  Mn  Mn0  1  0.23430700  0.84076200  0.46252200  1
  Mn  Mn1  1  0.53759100  0.15923800  0.53747800  1
  Mn  Mn2  1  0.25234600  0.49625400  0.16732600  1
  Mn  Mn3  1  0.91592500  0.50374600  0.83267400  1
  O  O0  1  0.33043900  0.64969900  0.94369900  1
  O  O1  1  0.19407700  0.34538900  0.39764100  1
  O  O2  1  0.01845600  0.01775700  0.65342000  1
  O  O3  1  0.93710700  0.65461100  0.60235900  1
  O  O4  1  0.46481300  0.33764700  0.72374000  1
  O  O5  1  0.92383400  0.35030100  0.05630100  1
  O  O6  1  0.68963300  0.98224300  0.34658000  1
  O  O7  1  0.52620100  0.66235300  0.27626000  1
loop_
_geom_bond_atom_site_label_1
_geom_bond_atom_site_label_2
_geom_bond_distance
_geom_bond_site_symmetry_2
Ba0 O6 2.786568 1_545
Ba0 O2 2.786568 1_654
Ba0 O0 2.873423 1_544
Ba0 O5 2.873428 1_455
Ba0 O7 3.106878 1_545
Ba0 O4 3.106878 1_554
Ba0 O2 3.293817 1_554
Ba0 O6 3.293817 1_445
Ba0 O5 3.321346 1_555
Ba0 O0 3.321352 1_644
Mg0 O7 2.002779 1_555
Mg0 O4 2.002780 1_555
Mg0 O3 2.051859 1_555
Mg0 O1 2.051859 1_655
Mg0 O1 2.236354 1_555
Mg0 O3 2.236355 1_455
Mn0 O2 1.947616 1_565
Mn0 O7 1.959961 1_555
Mn0 O3 1.962663 1_455
Mn0 O6 2.011819 1_555
Mn0 O6 2.175296 1_455
Mn1 O6 1.947616 1_545
Mn1 O4 1.959961 1_555
Mn1 O1 1.962663 1_555
Mn1 O2 2.011819 1_655
Mn1 O2 2.175296 1_555
Mn2 O0 1.940745 1_554
Mn2 O1 1.966899 1_555
Mn2 O7 2.001495 1_555
Mn2 O5 2.027885 1_455
Mn2 O5 2.243845 1_555
Mn2 O7 2.430528 1_455
Mn3 O5 1.940745 1_556
Mn3 O3 1.966899 1_555
Mn3 O4 2.001495 1_655
Mn3 O0 2.027875 1_555
Mn3 O0 2.243855 1_655
Mn3 O4 2.430528 1_555
