# generated using pymatgen
data_SrF3
_symmetry_space_group_name_H-M   'P 1'
_cell_length_a   4.23014814
_cell_length_b   4.12033323
_cell_length_c   6.34875454
_cell_angle_alpha   94.01052499
_cell_angle_beta   90.00000000
_cell_angle_gamma   90.00000000
_symmetry_Int_Tables_number   1
_chemical_formula_structural   SrF3
_chemical_formula_sum   'Sr2 F6'
_cell_volume   110.38540562
_cell_formula_units_Z   2
loop_
 _symmetry_equiv_pos_site_id
 _symmetry_equiv_pos_as_xyz
  1  'x, y, z'
loop_
 _atom_site_type_symbol
 _atom_site_label
 _atom_site_symmetry_multiplicity
 _atom_site_fract_x
 _atom_site_fract_y
 _atom_site_fract_z
 _atom_site_occupancy
  Sr  Sr0  1  0.75000000  0.22578446  0.27814706  1
  Sr  Sr1  1  0.25000000  0.77421554  0.72185294  1
  F  F0  1  0.75000000  0.74632230  0.47239481  1
  F  F1  1  0.25000000  0.25367670  0.52760519  1
  F  F2  1  0.75000000  0.07722176  0.87445899  1
  F  F3  1  0.25000000  0.92277824  0.12554101  1
  F  F4  1  0.75000000  0.57125146  0.88681823  1
  F  F5  1  0.25000000  0.42874854  0.11318177  1
loop_
_geom_bond_atom_site_label_1
_geom_bond_atom_site_label_2
_geom_bond_distance
_geom_bond_site_symmetry_2
F0 Sr0 2.398124 1_555
F0 Sr0 2.400921 1_565
F0 Sr1 2.639990 1_655
F0 Sr1 2.639990 1_555
F1 Sr1 2.398127 1_555
F1 Sr1 2.400917 1_545
F1 Sr0 2.639990 1_555
F1 Sr0 2.639990 1_455
F2 Sr0 2.593028 1_556
F2 Sr1 2.608015 1_545
F2 Sr1 2.608015 1_645
F3 Sr1 2.593028 1_554
F3 Sr0 2.608015 1_565
F3 Sr0 2.608015 1_465
F4 Sr1 2.528301 1_655
F4 Sr1 2.528301 1_555
F5 Sr0 2.528301 1_555
F5 Sr0 2.528301 1_455
