# generated using pymatgen
data_MgCr4O8
_symmetry_space_group_name_H-M   'P 1'
_cell_length_a   5.96509834
_cell_length_b   5.92188690
_cell_length_c   5.93473018
_cell_angle_alpha   60.07153947
_cell_angle_beta   60.00985756
_cell_angle_gamma   60.24023981
_symmetry_Int_Tables_number   1
_chemical_formula_structural   MgCr4O8
_chemical_formula_sum   'Mg1 Cr4 O8'
_cell_volume   148.59822338
_cell_formula_units_Z   1
loop_
 _symmetry_equiv_pos_site_id
 _symmetry_equiv_pos_as_xyz
  1  'x, y, z'
loop_
 _atom_site_type_symbol
 _atom_site_label
 _atom_site_symmetry_multiplicity
 _atom_site_fract_x
 _atom_site_fract_y
 _atom_site_fract_z
 _atom_site_occupancy
  Mg  Mg0  1  0.12267800  0.62867800  0.61994700  1
  Cr  Cr0  1  0.26078300  0.24799000  0.24323100  1
  Cr  Cr1  1  0.63158000  0.11212700  0.62496900  1
  Cr  Cr2  1  0.64468100  0.62998800  0.09535100  1
  Cr  Cr3  1  0.63156900  0.63133200  0.62497000  1
  O  O0  1  0.38884400  0.37737600  0.37535500  1
  O  O1  1  0.38314400  0.37913500  0.85858000  1
  O  O2  1  0.38884700  0.85841800  0.37534800  1
  O  O3  1  0.86933100  0.37799300  0.37469100  1
  O  O4  1  0.41974000  0.85822400  0.86382000  1
  O  O5  1  0.83807000  0.41539800  0.88113600  1
  O  O6  1  0.85041600  0.86549400  0.41860600  1
  O  O7  1  0.83808600  0.86539200  0.88112700  1
loop_
_geom_bond_atom_site_label_1
_geom_bond_atom_site_label_2
_geom_bond_distance
_geom_bond_site_symmetry_2
Mg0 O6 2.009729 1_455
Mg0 O0 2.085314 1_555
Mg0 O2 2.085345 1_555
Mg0 O5 2.103451 1_455
Mg0 O7 2.103491 1_455
Mg0 O1 2.106082 1_555
Cr0 O1 1.864149 1_554
Cr0 O0 1.888072 1_555
Cr0 O2 1.888093 1_545
Cr0 O3 1.909803 1_455
Cr1 O6 1.905524 1_545
Cr1 O7 1.957621 1_545
Cr1 O4 1.958483 1_545
Cr1 O0 2.079177 1_555
Cr1 O1 2.103746 1_555
Cr1 O3 2.115091 1_555
Cr2 O7 1.803456 1_554
Cr2 O5 1.803468 1_554
Cr2 O4 1.924819 1_554
Cr2 O3 2.130286 1_555
Cr2 O2 2.139757 1_555
Cr2 O0 2.139818 1_555
Cr3 O6 1.905553 1_555
Cr3 O5 1.957634 1_555
Cr3 O4 1.958508 1_555
Cr3 O2 2.079153 1_555
Cr3 O1 2.103729 1_555
Cr3 O3 2.115122 1_555
