# generated using pymatgen
data_LiCuPO4
_symmetry_space_group_name_H-M   'P 1'
_cell_length_a   4.74166800
_cell_length_b   6.03761300
_cell_length_c   10.10222800
_cell_angle_alpha   90.00000000
_cell_angle_beta   90.00000000
_cell_angle_gamma   90.00000000
_symmetry_Int_Tables_number   1
_chemical_formula_structural   LiCuPO4
_chemical_formula_sum   'Li4 Cu4 P4 O16'
_cell_volume   289.21018320
_cell_formula_units_Z   4
loop_
 _symmetry_equiv_pos_site_id
 _symmetry_equiv_pos_as_xyz
  1  'x, y, z'
loop_
 _atom_site_type_symbol
 _atom_site_label
 _atom_site_symmetry_multiplicity
 _atom_site_fract_x
 _atom_site_fract_y
 _atom_site_fract_z
 _atom_site_occupancy
  Li  Li0  1  0.00000000  0.00000000  0.00000000  1
  Li  Li1  1  0.50000000  0.00000000  0.50000000  1
  Li  Li2  1  0.00000000  0.50000000  0.00000000  1
  Li  Li3  1  0.50000000  0.50000000  0.50000000  1
  Cu  Cu0  1  0.02238700  0.75000000  0.28186800  1
  Cu  Cu1  1  0.47761300  0.75000000  0.78186800  1
  Cu  Cu2  1  0.97761300  0.25000000  0.71813200  1
  Cu  Cu3  1  0.52238700  0.25000000  0.21813200  1
  P  P0  1  0.57485500  0.75000000  0.09615800  1
  P  P1  1  0.92514500  0.75000000  0.59615800  1
  P  P2  1  0.42514500  0.25000000  0.90384200  1
  P  P3  1  0.07485500  0.25000000  0.40384200  1
  O  O0  1  0.74979100  0.25000000  0.90108000  1
  O  O1  1  0.21240200  0.45498200  0.33319200  1
  O  O2  1  0.71240200  0.54501800  0.16680800  1
  O  O3  1  0.78759800  0.95498200  0.66680800  1
  O  O4  1  0.28759800  0.04501800  0.83319200  1
  O  O5  1  0.78759800  0.54501800  0.66680800  1
  O  O6  1  0.28759800  0.45498200  0.83319200  1
  O  O7  1  0.21240200  0.04501800  0.33319200  1
  O  O8  1  0.25020900  0.75000000  0.09892000  1
  O  O9  1  0.75020900  0.25000000  0.40108000  1
  O  O10  1  0.71240200  0.95498200  0.16680800  1
  O  O11  1  0.24979100  0.75000000  0.59892000  1
  O  O12  1  0.69827600  0.75000000  0.95257800  1
  O  O13  1  0.30172400  0.25000000  0.04742200  1
  O  O14  1  0.19827600  0.25000000  0.54742200  1
  O  O15  1  0.80172400  0.75000000  0.45257800  1
loop_
_geom_bond_atom_site_label_1
_geom_bond_atom_site_label_2
_geom_bond_distance
_geom_bond_site_symmetry_2
Li0 O12 2.134159 1_444
Li0 O13 2.134159 1_555
Li0 O0 2.164368 1_454
Li0 O8 2.164368 1_545
Li0 O4 2.184768 1_554
Li0 O10 2.184768 1_445
Li1 O14 2.134159 1_555
Li1 O15 2.134159 1_545
Li1 O9 2.164368 1_555
Li1 O11 2.164368 1_545
Li1 O3 2.184768 1_545
Li1 O7 2.184768 1_555
Li2 O12 2.134159 1_454
Li2 O13 2.134159 1_555
Li2 O8 2.164368 1_555
Li2 O0 2.164368 1_454
Li2 O6 2.184768 1_554
Li2 O2 2.184768 1_455
Li3 O14 2.134159 1_555
Li3 O15 2.134159 1_555
Li3 O9 2.164368 1_555
Li3 O11 2.164368 1_555
Li3 O5 2.184768 1_555
Li3 O1 2.184768 1_555
Cu0 O15 2.017137 1_455
Cu0 O1 2.062352 1_555
Cu0 O7 2.062352 1_565
Cu0 O8 2.140732 1_555
Cu0 O10 2.245705 1_455
Cu0 O2 2.245705 1_455
Cu1 O12 2.017137 1_555
Cu1 O6 2.062352 1_555
Cu1 O4 2.062352 1_565
Cu1 O11 2.140732 1_555
Cu1 O5 2.245705 1_555
Cu1 O3 2.245705 1_555
Cu2 O14 2.017137 1_655
Cu2 O3 2.062352 1_545
Cu2 O5 2.062352 1_555
Cu2 O0 2.140732 1_555
Cu2 O4 2.245705 1_655
Cu2 O6 2.245705 1_655
Cu3 O13 2.017137 1_555
Cu3 O10 2.062352 1_545
Cu3 O2 2.062352 1_555
Cu3 O9 2.140732 1_555
Cu3 O7 2.245705 1_555
Cu3 O1 2.245705 1_555
O0 P2 1.539616 1_555
O1 P3 1.570486 1_555
O2 P0 1.570486 1_555
O3 P1 1.570486 1_555
O4 P2 1.570486 1_555
O5 P1 1.570486 1_555
O6 P2 1.570486 1_555
O7 P3 1.570486 1_555
O8 P0 1.539616 1_555
O9 P3 1.539616 1_655
O10 P0 1.570486 1_555
O11 P1 1.539616 1_455
O12 P0 1.564088 1_556
O13 P2 1.564088 1_554
O14 P3 1.564088 1_555
O15 P1 1.564088 1_555
