# generated using pymatgen
data_Na3VS4
_symmetry_space_group_name_H-M   'P 1'
_cell_length_a   13.44344728
_cell_length_b   13.44344728
_cell_length_c   7.91487660
_cell_angle_alpha   90.00000000
_cell_angle_beta   90.00000000
_cell_angle_gamma   90.00000000
_symmetry_Int_Tables_number   1
_chemical_formula_structural   Na3VS4
_chemical_formula_sum   'Na24 V8 S32'
_cell_volume   1430.42616318
_cell_formula_units_Z   8
loop_
 _symmetry_equiv_pos_site_id
 _symmetry_equiv_pos_as_xyz
  1  'x, y, z'
loop_
 _atom_site_type_symbol
 _atom_site_label
 _atom_site_symmetry_multiplicity
 _atom_site_fract_x
 _atom_site_fract_y
 _atom_site_fract_z
 _atom_site_occupancy
  Na  Na0  1  -0.00000000  0.50000000  0.57456035  1
  Na  Na1  1  0.50000000  0.00000000  0.42543965  1
  Na  Na2  1  0.50000000  0.00000000  0.92543965  1
  Na  Na3  1  -0.00000000  0.50000000  0.07456035  1
  Na  Na4  1  0.50000000  0.50000000  0.71090881  1
  Na  Na5  1  0.50000000  0.50000000  0.28909119  1
  Na  Na6  1  -0.00000000  0.00000000  0.78909119  1
  Na  Na7  1  -0.00000000  0.00000000  0.21090881  1
  Na  Na8  1  0.75548517  0.45536503  0.85384695  1
  Na  Na9  1  0.54463497  0.75548517  0.14615305  1
  Na  Na10  1  0.45536503  0.24451483  0.14615305  1
  Na  Na11  1  0.24451483  0.54463497  0.85384695  1
  Na  Na12  1  0.25548517  0.04463497  0.64615305  1
  Na  Na13  1  0.74451483  0.95536503  0.64615305  1
  Na  Na14  1  0.95536503  0.25548517  0.35384695  1
  Na  Na15  1  0.04463497  0.74451483  0.35384695  1
  Na  Na16  1  0.75350108  0.20015830  0.93577869  1
  Na  Na17  1  0.79984170  0.75350108  0.06422131  1
  Na  Na18  1  0.20015830  0.24649892  0.06422131  1
  Na  Na19  1  0.24649892  0.79984170  0.93577869  1
  Na  Na20  1  0.25350108  0.29984170  0.56422131  1
  Na  Na21  1  0.74649892  0.70015830  0.56422131  1
  Na  Na22  1  0.70015830  0.25350108  0.43577869  1
  Na  Na23  1  0.29984170  0.74649892  0.43577869  1
  V  V0  1  0.01111327  0.26159764  0.77962061  1
  V  V1  1  0.23840236  0.48888673  0.27962061  1
  V  V2  1  0.76159764  0.51111327  0.27962061  1
  V  V3  1  0.48888673  0.76159764  0.72037939  1
  V  V4  1  0.51111327  0.23840236  0.72037939  1
  V  V5  1  0.98888673  0.73840236  0.77962061  1
  V  V6  1  0.26159764  0.98888673  0.22037939  1
  V  V7  1  0.73840236  0.01111327  0.22037939  1
  S  S0  1  0.60833937  0.11269157  0.68108427  1
  S  S1  1  0.16146500  0.92004099  0.39684081  1
  S  S2  1  0.83853500  0.07995901  0.39684081  1
  S  S3  1  0.92004099  0.83853500  0.60315919  1
  S  S4  1  0.07995901  0.16146500  0.60315919  1
  S  S5  1  0.42004099  0.66146500  0.89684081  1
  S  S6  1  0.33853500  0.42004099  0.10315919  1
  S  S7  1  0.66146500  0.57995901  0.10315919  1
  S  S8  1  0.68611510  0.49104283  0.51412147  1
  S  S9  1  0.50895717  0.68611510  0.48587853  1
  S  S10  1  0.49104283  0.31388490  0.48587853  1
  S  S11  1  0.31388490  0.50895717  0.51412147  1
  S  S12  1  0.18611510  0.00895717  0.98587853  1
  S  S13  1  0.81388490  0.99104283  0.98587853  1
  S  S14  1  0.99104283  0.18611510  0.01412147  1
  S  S15  1  0.00895717  0.81388490  0.01412147  1
  S  S16  1  0.87028839  0.31026251  0.67727699  1
  S  S17  1  0.68973749  0.87028839  0.32272301  1
  S  S18  1  0.31026251  0.12971161  0.32272301  1
  S  S19  1  0.12971161  0.68973749  0.67727699  1
  S  S20  1  0.38730843  0.89166063  0.18108427  1
  S  S21  1  0.62971161  0.81026251  0.82272301  1
  S  S22  1  0.81026251  0.37028839  0.17727699  1
  S  S23  1  0.18973749  0.62971161  0.17727699  1
  S  S24  1  0.57995901  0.33853500  0.89684081  1
  S  S25  1  0.88730843  0.60833937  0.31891573  1
  S  S26  1  0.11269157  0.39166063  0.31891573  1
  S  S27  1  0.39166063  0.88730843  0.68108427  1
  S  S28  1  0.10833937  0.38730843  0.81891573  1
  S  S29  1  0.89166063  0.61269157  0.81891573  1
  S  S30  1  0.61269157  0.10833937  0.18108427  1
  S  S31  1  0.37028839  0.18973749  0.82272301  1
loop_
_geom_bond_atom_site_label_1
_geom_bond_atom_site_label_2
_geom_bond_distance
_geom_bond_site_symmetry_2
Na0 S29 2.856028 1_455
Na0 S28 2.856028 1_555
Na0 S25 2.917277 1_455
Na0 S26 2.917277 1_555
Na0 S16 3.194979 1_455
Na0 S19 3.194979 1_555
Na1 S20 2.856028 1_545
Na1 S30 2.856028 1_555
Na1 S27 2.917277 1_545
Na1 S0 2.917277 1_555
Na1 S18 3.194979 1_555
Na1 S17 3.194979 1_545
Na2 S27 2.856028 1_545
Na2 S0 2.856028 1_555
Na2 S20 2.917277 1_546
Na2 S30 2.917277 1_556
Na2 S21 3.194979 1_545
Na2 S31 3.194979 1_555
Na3 S26 2.856028 1_555
Na3 S25 2.856028 1_455
Na3 S29 2.917277 1_454
Na3 S28 2.917277 1_554
Na3 S22 3.194979 1_455
Na3 S23 3.194979 1_555
Na4 S5 2.834230 1_555
Na4 S24 2.834230 1_555
Na4 S8 2.949678 1_555
Na4 S11 2.949678 1_555
Na4 S9 3.073584 1_555
Na4 S10 3.073584 1_555
Na5 S7 2.834230 1_555
Na5 S6 2.834230 1_555
Na5 S9 2.949678 1_555
Na5 S10 2.949678 1_555
Na5 S8 3.073584 1_555
Na5 S11 3.073584 1_555
Na6 S4 2.834230 1_555
Na6 S3 2.834230 1_445
Na6 S12 2.949678 1_555
Na6 S13 2.949678 1_445
Na6 S14 3.073584 1_456
Na6 S15 3.073584 1_546
Na7 S1 2.834230 1_545
Na7 S2 2.834230 1_455
Na7 S14 2.949678 1_455
Na7 S15 2.949678 1_545
Na7 S12 3.073584 1_554
Na7 S13 3.073584 1_444
Na8 S29 2.810881 1_555
Na8 S16 2.853098 1_555
Na8 S24 2.854935 1_555
Na8 S7 2.880440 1_556
Na8 S8 2.886147 1_555
Na8 S22 2.898882 1_556
Na9 S20 2.810881 1_555
Na9 S17 2.853098 1_555
Na9 S7 2.854935 1_555
Na9 S5 2.880440 1_554
Na9 S9 2.886147 1_555
Na9 S21 2.898882 1_554
Na10 S30 2.810881 1_555
Na10 S18 2.853098 1_555
Na10 S6 2.854935 1_555
Na10 S24 2.880440 1_554
Na10 S10 2.886147 1_555
Na10 S31 2.898882 1_554
Na11 S28 2.810881 1_555
Na11 S19 2.853098 1_555
Na11 S5 2.854935 1_555
Na11 S6 2.880440 1_556
Na11 S11 2.886147 1_555
Na11 S23 2.898882 1_556
Na12 S27 2.810881 1_545
Na12 S31 2.853098 1_555
Na12 S4 2.854935 1_555
Na12 S1 2.880440 1_545
Na12 S12 2.886147 1_555
Na12 S18 2.898882 1_555
Na13 S0 2.810881 1_565
Na13 S21 2.853098 1_555
Na13 S3 2.854935 1_555
Na13 S2 2.880440 1_565
Na13 S13 2.886147 1_555
Na13 S17 2.898882 1_555
Na14 S26 2.810881 1_655
Na14 S22 2.853098 1_555
Na14 S2 2.854935 1_555
Na14 S4 2.880440 1_655
Na14 S14 2.886147 1_555
Na14 S16 2.898882 1_555
Na15 S25 2.810881 1_455
Na15 S23 2.853098 1_555
Na15 S1 2.854935 1_555
Na15 S3 2.880440 1_455
Na15 S15 2.886147 1_555
Na15 S19 2.898882 1_555
Na16 S13 2.952835 1_545
Na16 S16 2.973560 1_555
Na16 S30 2.979369 1_556
Na16 S24 2.999742 1_555
Na16 S0 3.042143 1_555
Na16 S22 3.076820 1_556
Na16 S14 3.258498 1_556
Na17 S15 2.952835 1_655
Na17 S17 2.973560 1_555
Na17 S29 2.979369 1_554
Na17 S7 2.999742 1_555
Na17 S25 3.042143 1_555
Na17 S21 3.076820 1_554
Na17 S13 3.258498 1_554
Na18 S14 2.952835 1_455
Na18 S18 2.973560 1_555
Na18 S28 2.979369 1_554
Na18 S6 2.999742 1_555
Na18 S26 3.042143 1_555
Na18 S31 3.076820 1_554
Na18 S12 3.258498 1_554
Na19 S12 2.952835 1_565
Na19 S19 2.973560 1_555
Na19 S20 2.979369 1_556
Na19 S5 2.999742 1_555
Na19 S27 3.042143 1_555
Na19 S23 3.076820 1_556
Na19 S15 3.258498 1_556
Na20 S11 2.952835 1_555
Na20 S31 2.973560 1_555
Na20 S26 2.979369 1_555
Na20 S4 2.999742 1_555
Na20 S28 3.042143 1_555
Na20 S18 3.076820 1_555
Na20 S10 3.258498 1_555
Na21 S8 2.952835 1_555
Na21 S21 2.973560 1_555
Na21 S25 2.979369 1_555
Na21 S3 2.999742 1_555
Na21 S29 3.042143 1_555
Na21 S17 3.076820 1_555
Na21 S9 3.258498 1_555
Na22 S10 2.952835 1_555
Na22 S22 2.973560 1_555
Na22 S0 2.979369 1_555
Na22 S2 2.999742 1_555
Na22 S30 3.042143 1_555
Na22 S16 3.076820 1_555
Na22 S8 3.258498 1_555
Na23 S9 2.952835 1_555
Na23 S23 2.973560 1_555
Na23 S27 2.979369 1_555
Na23 S1 2.999742 1_555
Na23 S20 3.042143 1_555
Na23 S19 3.076820 1_555
Na23 S11 3.258498 1_555
S0 V4 2.158975 1_555
S1 V6 2.149266 1_555
S2 V7 2.149266 1_555
S3 V5 2.149266 1_555
S4 V0 2.149266 1_555
S5 V3 2.149266 1_555
S6 V1 2.149266 1_555
S7 V2 2.149266 1_555
S8 V2 2.132467 1_555
S9 V3 2.132467 1_555
S10 V4 2.132467 1_555
S11 V1 2.132467 1_555
S12 V6 2.132467 1_546
S13 V7 2.132467 1_566
S14 V0 2.132467 1_654
S15 V5 2.132467 1_454
S16 V0 2.160618 1_655
S17 V7 2.160618 1_565
S18 V6 2.160618 1_545
S19 V5 2.160618 1_455
S20 V6 2.158975 1_555
S21 V3 2.160618 1_555
S22 V2 2.160618 1_555
S23 V1 2.160618 1_555
S24 V4 2.149266 1_555
S25 V2 2.158975 1_555
S26 V1 2.158975 1_555
S27 V3 2.158975 1_555
S28 V0 2.158975 1_555
S29 V5 2.158975 1_555
S30 V7 2.158975 1_555
S31 V4 2.160618 1_555
