# generated using pymatgen
data_Na2Nd2MgTi3O10
_symmetry_space_group_name_H-M   'P 1'
_cell_length_a   3.91529376
_cell_length_b   3.91529366
_cell_length_c   16.01082153
_cell_angle_alpha   97.02314609
_cell_angle_beta   97.02314867
_cell_angle_gamma   89.99999699
_symmetry_Int_Tables_number   1
_chemical_formula_structural   Na2Nd2MgTi3O10
_chemical_formula_sum   'Na2 Nd2 Mg1 Ti3 O10'
_cell_volume   241.74113087
_cell_formula_units_Z   1
loop_
 _symmetry_equiv_pos_site_id
 _symmetry_equiv_pos_as_xyz
  1  'x, y, z'
loop_
 _atom_site_type_symbol
 _atom_site_label
 _atom_site_symmetry_multiplicity
 _atom_site_fract_x
 _atom_site_fract_y
 _atom_site_fract_z
 _atom_site_occupancy
  Na  Na0  1  0.71576600  0.71576600  0.43153300  1
  Na  Na1  1  0.28423400  0.28423400  0.56846700  1
  Nd  Nd0  1  0.59666400  0.59666400  0.19332800  1
  Nd  Nd1  1  0.40333600  0.40333600  0.80667200  1
  Mg  Mg0  1  0.50000000  0.50000000  0.00000000  1
  Ti  Ti0  1  0.84407500  0.84407500  0.68815000  1
  Ti  Ti1  1  0.15592500  0.15592500  0.31185000  1
  Ti  Ti2  1  0.00000000  0.00000000  0.00000000  1
  O  O0  1  0.85916300  0.35916300  0.71832400  1
  O  O1  1  0.35916300  0.85916300  0.71832400  1
  O  O2  1  0.14083700  0.64083700  0.28167600  1
  O  O3  1  0.64083700  0.14083700  0.28167600  1
  O  O4  1  0.78836800  0.78836800  0.57673600  1
  O  O5  1  0.21163200  0.21163200  0.42326400  1
  O  O6  1  0.00000000  0.50000000  0.00000000  1
  O  O7  1  0.06727200  0.06727200  0.13454400  1
  O  O8  1  0.93272800  0.93272800  0.86545600  1
  O  O9  1  0.50000000  0.00000000  0.00000000  1
loop_
_geom_bond_atom_site_label_1
_geom_bond_atom_site_label_2
_geom_bond_distance
_geom_bond_site_symmetry_2
Na0 O4 2.289799 1_555
Na0 O5 2.771597 1_555
Na0 O5 2.771600 1_565
Na0 O5 2.771600 1_655
Na0 O5 2.771603 1_665
Na1 O5 2.289799 1_555
Na1 O4 2.771597 1_555
Na1 O4 2.771600 1_545
Na1 O4 2.771600 1_455
Na1 O4 2.771603 1_445
Nd0 O2 2.402794 1_655
Nd0 O3 2.402794 1_565
Nd0 O3 2.402800 1_555
Nd0 O2 2.402800 1_555
Nd0 O7 2.919605 1_565
Nd0 O7 2.919605 1_655
Nd0 O7 2.919605 1_555
Nd0 O7 2.919606 1_665
Nd1 O0 2.402794 1_455
Nd1 O1 2.402794 1_545
Nd1 O1 2.402800 1_555
Nd1 O0 2.402800 1_555
Nd1 O8 2.919605 1_545
Nd1 O8 2.919605 1_455
Nd1 O8 2.919605 1_555
Nd1 O8 2.919606 1_445
Mg0 O9 1.957647 1_565
Mg0 O9 1.957647 1_555
Mg0 O6 1.957647 1_655
Mg0 O6 1.957647 1_555
O0 Ti0 2.014642 1_555
O0 Ti0 2.014650 1_545
O1 Ti0 2.014642 1_555
O1 Ti0 2.014650 1_455
O2 Ti1 2.014642 1_555
O2 Ti1 2.014650 1_565
O3 Ti1 2.014642 1_555
O3 Ti1 2.014650 1_655
O4 Ti0 1.756959 1_555
O5 Ti1 1.756959 1_555
O6 Ti2 1.957647 1_555
O6 Ti2 1.957647 1_565
O7 Ti2 2.121711 1_555
O8 Ti2 2.121711 1_666
O9 Ti2 1.957647 1_655
O9 Ti2 1.957647 1_555
