# generated using pymatgen
data_LaSbSe
_symmetry_space_group_name_H-M   'P 1'
_cell_length_a   18.61377840
_cell_length_b   4.27298958
_cell_length_c   6.05737467
_cell_angle_alpha   45.01650335
_cell_angle_beta   90.00000000
_cell_angle_gamma   90.00000000
_symmetry_Int_Tables_number   1
_chemical_formula_structural   LaSbSe
_chemical_formula_sum   'La4 Sb4 Se4'
_cell_volume   340.76961938
_cell_formula_units_Z   4
loop_
 _symmetry_equiv_pos_site_id
 _symmetry_equiv_pos_as_xyz
  1  'x, y, z'
loop_
 _atom_site_type_symbol
 _atom_site_label
 _atom_site_symmetry_multiplicity
 _atom_site_fract_x
 _atom_site_fract_y
 _atom_site_fract_z
 _atom_site_occupancy
  La  La0  1  0.14884281  0.48240053  0.76290955  1
  La  La1  1  0.64884281  0.51759947  0.73709045  1
  La  La2  1  0.85115719  0.51759947  0.23709045  1
  La  La3  1  0.35115719  0.48240053  0.26290955  1
  Sb  Sb0  1  0.49953316  0.98887769  0.76775867  1
  Sb  Sb1  1  0.99953316  0.01112231  0.73224133  1
  Sb  Sb2  1  0.50046684  0.01112231  0.23224133  1
  Sb  Sb3  1  0.00046684  0.98887769  0.26775867  1
  Se  Se0  1  0.31423347  0.48471772  0.76186930  1
  Se  Se1  1  0.81423347  0.51528228  0.73813070  1
  Se  Se2  1  0.68576653  0.51528228  0.23813070  1
  Se  Se3  1  0.18576653  0.48471772  0.26186930  1
loop_
_geom_bond_atom_site_label_1
_geom_bond_atom_site_label_2
_geom_bond_distance
_geom_bond_site_symmetry_2
La0 Se0 3.078553 1_555
La0 Se3 3.092675 1_546
La0 Se3 3.105018 1_555
La0 Se3 3.106330 1_565
La0 Se3 3.106379 1_556
La0 Sb3 3.482845 1_555
La0 Sb1 3.502753 1_465
La0 Sb3 3.508434 1_546
La0 Sb1 3.513219 1_455
La1 Se1 3.078553 1_555
La1 Se2 3.092675 1_565
La1 Se2 3.105018 1_556
La1 Se2 3.106330 1_546
La1 Se2 3.106379 1_555
La1 Sb2 3.482845 1_556
La1 Sb0 3.502753 1_545
La1 Sb2 3.508434 1_565
La1 Sb0 3.513219 1_555
La2 Se2 3.078553 1_555
La2 Se1 3.092675 1_564
La2 Se1 3.105018 1_555
La2 Se1 3.106330 1_545
La2 Se1 3.106379 1_554
La2 Sb1 3.482845 1_555
La2 Sb3 3.502753 1_645
La2 Sb1 3.508434 1_564
La2 Sb3 3.513219 1_655
La3 Se3 3.078553 1_555
La3 Se0 3.092675 1_545
La3 Se0 3.105018 1_554
La3 Se0 3.106330 1_564
La3 Se0 3.106379 1_555
La3 Sb0 3.482845 1_554
La3 Sb2 3.502753 1_565
La3 Sb0 3.508434 1_545
La3 Sb2 3.513219 1_555
Sb0 Sb2 2.881574 1_566
Sb0 Sb2 2.958458 1_556
Sb0 Sb2 3.093548 1_575
Sb0 Sb2 3.177396 1_565
Sb1 Sb3 2.881574 1_645
Sb1 Sb3 2.958458 1_655
Sb1 Sb3 3.093548 1_636
Sb1 Sb3 3.177396 1_646
