# generated using pymatgen
data_MgCo2(GeO3)4
_symmetry_space_group_name_H-M   'P 1'
_cell_length_a   5.51129312
_cell_length_b   6.72734236
_cell_length_c   6.89134674
_cell_angle_alpha   80.14917471
_cell_angle_beta   73.13978918
_cell_angle_gamma   73.50119238
_symmetry_Int_Tables_number   1
_chemical_formula_structural   MgCo2(GeO3)4
_chemical_formula_sum   'Mg1 Co2 Ge4 O12'
_cell_volume   233.35678178
_cell_formula_units_Z   1
loop_
 _symmetry_equiv_pos_site_id
 _symmetry_equiv_pos_as_xyz
  1  'x, y, z'
loop_
 _atom_site_type_symbol
 _atom_site_label
 _atom_site_symmetry_multiplicity
 _atom_site_fract_x
 _atom_site_fract_y
 _atom_site_fract_z
 _atom_site_occupancy
  Mg  Mg0  1  0.75444663  0.26957557  0.72836069  1
  Co  Co0  1  0.73808203  0.89364022  0.10228245  1
  Co  Co1  1  0.24979749  0.08606289  0.91060120  1
  Ge  Ge0  1  0.73841827  0.37727566  0.20175913  1
  Ge  Ge1  1  0.76598969  0.80540567  0.61063773  1
  Ge  Ge2  1  0.25046210  0.62142340  0.80836698  1
  Ge  Ge3  1  0.25764978  0.18218510  0.38498208  1
  O  O0  1  0.40769712  0.39385230  0.32553701  1
  O  O1  1  0.09429083  0.67668601  0.60715187  1
  O  O2  1  0.59966651  0.59919195  0.68825124  1
  O  O3  1  0.90971476  0.31079283  0.39497641  1
  O  O4  1  0.15693546  0.11802028  0.64831470  1
  O  O5  1  0.32678434  0.35152107  0.88320456  1
  O  O6  1  0.71125286  0.94066216  0.38262442  1
  O  O7  1  0.78000720  0.61982599  0.07205880  1
  O  O8  1  0.84645779  0.19769078  0.01342308  1
  O  O9  1  0.64802384  0.98483330  0.80082171  1
  O  O10  1  0.15324092  0.81803087  0.97588788  1
  O  O11  1  0.36108338  0.02332595  0.18076006  1
loop_
_geom_bond_atom_site_label_1
_geom_bond_atom_site_label_2
_geom_bond_distance
_geom_bond_site_symmetry_2
Mg0 O9 2.098498 1_545
Mg0 O4 2.112444 1_655
Mg0 O8 2.112734 1_556
Mg0 O2 2.138642 1_555
Mg0 O3 2.205419 1_555
Mg0 O5 2.236564 1_555
Co0 O7 1.830710 1_555
Co0 O11 1.962320 1_565
Co0 O6 1.967520 1_555
Co0 O10 2.141759 1_654
Co0 O9 2.219840 1_554
Co0 O8 2.229080 1_565
Co1 O5 1.916611 1_555
Co1 O10 1.966082 1_545
Co1 O4 1.978984 1_555
Co1 O9 2.053581 1_545
Co1 O11 2.065654 1_556
Co1 O8 2.080297 1_456
Ge0 O0 1.754280 1_555
Ge0 O7 1.763094 1_555
Ge0 O3 1.774780 1_555
Ge0 O8 1.782773 1_555
Ge1 O6 1.737191 1_555
Ge1 O1 1.765277 1_655
Ge1 O9 1.788501 1_555
Ge1 O2 1.798569 1_555
Ge2 O5 1.763913 1_555
Ge2 O10 1.769279 1_555
Ge2 O1 1.770870 1_555
Ge2 O2 1.834743 1_555
Ge3 O4 1.752535 1_555
Ge3 O11 1.775101 1_555
Ge3 O0 1.775403 1_555
Ge3 O3 1.852518 1_455
