# generated using pymatgen
data_CsHSeO4
_symmetry_space_group_name_H-M   'P 1'
_cell_length_a   8.68615900
_cell_length_b   7.96398000
_cell_length_c   8.15634815
_cell_angle_alpha   69.51604330
_cell_angle_beta   90.00000000
_cell_angle_gamma   90.00000000
_symmetry_Int_Tables_number   1
_chemical_formula_structural   CsHSeO4
_chemical_formula_sum   'Cs4 H4 Se4 O16'
_cell_volume   528.55083573
_cell_formula_units_Z   4
loop_
 _symmetry_equiv_pos_site_id
 _symmetry_equiv_pos_as_xyz
  1  'x, y, z'
loop_
 _atom_site_type_symbol
 _atom_site_label
 _atom_site_symmetry_multiplicity
 _atom_site_fract_x
 _atom_site_fract_y
 _atom_site_fract_z
 _atom_site_occupancy
  Cs  Cs0  1  0.62516400  0.29374100  0.70607600  1
  Cs  Cs1  1  0.12516400  0.20625900  0.29392400  1
  Cs  Cs2  1  0.37483600  0.70625900  0.29392400  1
  Cs  Cs3  1  0.87483600  0.79374100  0.70607600  1
  H  H0  1  0.29242300  0.03841100  0.88963500  1
  H  H1  1  0.79242300  0.46158900  0.11036500  1
  H  H2  1  0.70757700  0.96158900  0.11036500  1
  H  H3  1  0.20757700  0.53841100  0.88963500  1
  Se  Se0  1  0.12762300  0.27932900  0.75581000  1
  Se  Se1  1  0.62762300  0.22067100  0.24419000  1
  Se  Se2  1  0.87237700  0.72067100  0.24419000  1
  Se  Se3  1  0.37237700  0.77932900  0.75581000  1
  O  O0  1  0.21205500  0.10698600  0.93482900  1
  O  O1  1  0.71205500  0.39301400  0.06517100  1
  O  O2  1  0.78794500  0.89301400  0.06517100  1
  O  O3  1  0.28794500  0.60698600  0.93482900  1
  O  O4  1  0.42759800  0.92352300  0.85217000  1
  O  O5  1  0.92759800  0.57647700  0.14783000  1
  O  O6  1  0.57240200  0.07647700  0.14783000  1
  O  O7  1  0.07240200  0.42352300  0.85217000  1
  O  O8  1  0.52050300  0.69531200  0.68433300  1
  O  O9  1  0.02050300  0.80468800  0.31566700  1
  O  O10  1  0.47949700  0.30468800  0.31566700  1
  O  O11  1  0.97949700  0.19531200  0.68433300  1
  O  O12  1  0.23637300  0.85843400  0.60707500  1
  O  O13  1  0.73637300  0.64156600  0.39292500  1
  O  O14  1  0.76362700  0.14156600  0.39292500  1
  O  O15  1  0.26362700  0.35843400  0.60707500  1
loop_
_geom_bond_atom_site_label_1
_geom_bond_atom_site_label_2
_geom_bond_distance
_geom_bond_site_symmetry_2
Cs0 O13 3.190346 1_555
Cs0 O11 3.196253 1_555
Cs0 O15 3.238552 1_555
Cs0 O4 3.255618 1_545
Cs0 O8 3.269378 1_555
Cs0 O1 3.375479 1_556
Cs0 O10 3.399131 1_555
Cs0 O14 3.406686 1_555
Cs0 O6 3.438439 1_556
Cs1 O12 3.190346 1_545
Cs1 O10 3.196253 1_555
Cs1 O14 3.238552 1_455
Cs1 O5 3.255618 1_455
Cs1 O9 3.269378 1_545
Cs1 O0 3.375479 1_554
Cs1 O11 3.399131 1_455
Cs1 O15 3.406686 1_555
Cs1 O7 3.438439 1_554
Cs2 O15 3.190346 1_555
Cs2 O9 3.196253 1_555
Cs2 O13 3.238552 1_555
Cs2 O6 3.255618 1_565
Cs2 O10 3.269378 1_555
Cs2 O3 3.375479 1_554
Cs2 O8 3.399131 1_555
Cs2 O12 3.406686 1_555
Cs2 O4 3.438439 1_554
Cs3 O14 3.190346 1_565
Cs3 O8 3.196253 1_555
Cs3 O12 3.238552 1_655
Cs3 O7 3.255618 1_655
Cs3 O11 3.269378 1_565
Cs3 O2 3.375479 1_556
Cs3 O9 3.399131 1_655
Cs3 O13 3.406686 1_555
Cs3 O5 3.438439 1_556
H0 O0 1.030710 1_555
H0 O4 1.582674 1_545
H1 O1 1.030710 1_555
H1 O5 1.582674 1_555
H2 O2 1.030710 1_555
H2 O6 1.582674 1_565
H3 O3 1.030710 1_555
H3 O7 1.582674 1_555
O0 Se0 1.775128 1_555
O1 Se1 1.775128 1_555
O2 Se2 1.775128 1_555
O3 Se3 1.775128 1_555
O4 Se3 1.672780 1_555
O5 Se2 1.672780 1_555
O6 Se1 1.672780 1_555
O7 Se0 1.672780 1_555
O8 Se3 1.648048 1_555
O9 Se2 1.648048 1_455
O10 Se1 1.648048 1_555
O11 Se0 1.648048 1_655
O12 Se3 1.652052 1_555
O13 Se2 1.652052 1_555
O14 Se1 1.652052 1_555
O15 Se0 1.652052 1_555
