# generated using pymatgen
data_Rb2EuF5
_symmetry_space_group_name_H-M   'P 1'
_cell_length_a   6.82112342
_cell_length_b   7.56358558
_cell_length_c   11.29010398
_cell_angle_alpha   90.00000000
_cell_angle_beta   90.00000000
_cell_angle_gamma   90.00000000
_symmetry_Int_Tables_number   1
_chemical_formula_structural   Rb2EuF5
_chemical_formula_sum   'Rb8 Eu4 F20'
_cell_volume   582.48074639
_cell_formula_units_Z   4
loop_
 _symmetry_equiv_pos_site_id
 _symmetry_equiv_pos_as_xyz
  1  'x, y, z'
loop_
 _atom_site_type_symbol
 _atom_site_label
 _atom_site_symmetry_multiplicity
 _atom_site_fract_x
 _atom_site_fract_y
 _atom_site_fract_z
 _atom_site_occupancy
  Rb  Rb0  1  0.53556454  0.02092572  0.17022935  1
  Rb  Rb1  1  0.46443546  0.52092572  0.82977065  1
  Rb  Rb2  1  0.96443546  0.02092572  0.67022935  1
  Rb  Rb3  1  0.03556454  0.52092572  0.32977065  1
  Rb  Rb4  1  0.03603315  0.01574811  0.32994860  1
  Rb  Rb5  1  0.96396685  0.51574811  0.67005140  1
  Rb  Rb6  1  0.46396685  0.01574811  0.82994860  1
  Rb  Rb7  1  0.53603315  0.51574811  0.17005140  1
  Eu  Eu0  1  0.44322593  0.26829567  0.50139003  1
  Eu  Eu1  1  0.55677407  0.76829567  0.49860997  1
  Eu  Eu2  1  0.05677407  0.26829567  0.00139003  1
  Eu  Eu3  1  0.94322593  0.76829567  0.99860997  1
  F  F0  1  0.14400985  0.98708355  0.07610988  1
  F  F1  1  0.85599015  0.48708355  0.92389012  1
  F  F2  1  0.35599015  0.98708355  0.57610988  1
  F  F3  1  0.64400985  0.48708355  0.42389012  1
  F  F4  1  0.38614219  0.26874184  0.01311370  1
  F  F5  1  0.61385781  0.76874184  0.98688630  1
  F  F6  1  0.11385781  0.26874184  0.51311370  1
  F  F7  1  0.88614219  0.76874184  0.48688630  1
  F  F8  1  0.14294270  0.54928164  0.07659805  1
  F  F9  1  0.85705730  0.04928164  0.92340195  1
  F  F10  1  0.35705730  0.54928164  0.57659805  1
  F  F11  1  0.64294270  0.04928164  0.42340195  1
  F  F12  1  0.34376989  0.26895103  0.31197947  1
  F  F13  1  0.65623011  0.76895103  0.68802053  1
  F  F14  1  0.15623011  0.26895103  0.81197947  1
  F  F15  1  0.84376989  0.76895103  0.18802053  1
  F  F16  1  0.37198029  0.76797144  0.33495091  1
  F  F17  1  0.62801971  0.26797144  0.66504909  1
  F  F18  1  0.12801971  0.76797144  0.83495091  1
  F  F19  1  0.87198029  0.26797144  0.16504909  1
loop_
_geom_bond_atom_site_label_1
_geom_bond_atom_site_label_2
_geom_bond_distance
_geom_bond_site_symmetry_2
Eu0 F17 2.236731 1_555
Eu0 F12 2.243499 1_555
Eu0 F6 2.250559 1_555
Eu0 F11 2.318449 1_555
Eu0 F3 2.319429 1_555
Eu0 F10 2.362877 1_555
Eu0 F2 2.364263 1_545
Eu1 F16 2.236731 1_555
Eu1 F13 2.243499 1_555
Eu1 F7 2.250559 1_555
Eu1 F10 2.318449 1_555
Eu1 F2 2.319429 1_555
Eu1 F11 2.362877 1_565
Eu1 F3 2.364263 1_555
Eu2 F19 2.236731 1_455
Eu2 F14 2.243499 1_554
Eu2 F4 2.250559 1_555
Eu2 F9 2.318449 1_454
Eu2 F1 2.319429 1_454
Eu2 F8 2.362877 1_555
Eu2 F0 2.364263 1_545
Eu3 F18 2.236731 1_655
Eu3 F15 2.243499 1_556
Eu3 F5 2.250559 1_555
Eu3 F8 2.318449 1_656
Eu3 F0 2.319429 1_656
Eu3 F9 2.362877 1_565
Eu3 F1 2.364263 1_555
F0 Rb0 2.885841 1_565
F0 Rb4 2.966927 1_565
F1 Rb1 2.885841 1_555
F1 Rb5 2.966927 1_555
F2 Rb2 2.885841 1_465
F2 Rb6 2.966927 1_565
F3 Rb3 2.885841 1_655
F3 Rb7 2.966927 1_555
F4 Rb7 2.770406 1_555
F4 Rb0 2.774648 1_555
F4 Rb1 2.864992 1_554
F4 Rb6 2.867031 1_554
F5 Rb6 2.770406 1_565
F5 Rb1 2.774648 1_555
F5 Rb0 2.864992 1_566
F5 Rb7 2.867031 1_556
F6 Rb5 2.770406 1_455
F6 Rb2 2.774648 1_455
F6 Rb3 2.864992 1_555
F6 Rb4 2.867031 1_555
F7 Rb4 2.770406 1_665
F7 Rb3 2.774648 1_655
F7 Rb2 2.864992 1_565
F7 Rb5 2.867031 1_555
F8 Rb7 2.892582 1_555
F8 Rb3 2.958480 1_555
F9 Rb6 2.892582 1_555
F9 Rb2 2.958480 1_555
F10 Rb5 2.892582 1_455
F10 Rb1 2.958480 1_555
F11 Rb4 2.892582 1_655
F11 Rb0 2.958480 1_555
F12 Rb7 2.787830 1_555
F12 Rb0 2.791407 1_555
F12 Rb3 2.844686 1_555
F12 Rb4 2.848704 1_555
F13 Rb6 2.787830 1_565
F13 Rb1 2.791407 1_555
F13 Rb2 2.844686 1_565
F13 Rb5 2.848704 1_555
F14 Rb5 2.787830 1_455
F14 Rb2 2.791407 1_455
F14 Rb1 2.844686 1_555
F14 Rb6 2.848704 1_555
F15 Rb4 2.787830 1_665
F15 Rb3 2.791407 1_655
F15 Rb0 2.844686 1_565
F15 Rb7 2.848704 1_555
F16 Rb7 2.890957 1_555
F16 Rb0 2.892082 1_565
F16 Rb3 2.959849 1_555
F16 Rb4 2.960829 1_565
F17 Rb6 2.890957 1_555
F17 Rb1 2.892082 1_555
F17 Rb2 2.959849 1_555
F17 Rb5 2.960829 1_555
F18 Rb5 2.890957 1_455
F18 Rb2 2.892082 1_465
F18 Rb1 2.959849 1_555
F18 Rb6 2.960829 1_565
F19 Rb4 2.890957 1_655
F19 Rb3 2.892082 1_655
F19 Rb0 2.959849 1_555
F19 Rb7 2.960829 1_555
