# generated using pymatgen
data_MgFe8(OF)8
_symmetry_space_group_name_H-M   'P 1'
_cell_length_a   9.71500511
_cell_length_b   9.78456100
_cell_length_c   3.11220000
_cell_angle_alpha   90.00000000
_cell_angle_beta   90.00000000
_cell_angle_gamma   86.43125430
_symmetry_Int_Tables_number   1
_chemical_formula_structural   MgFe8(OF)8
_chemical_formula_sum   'Mg1 Fe8 O8 F8'
_cell_volume   295.26290537
_cell_formula_units_Z   1
loop_
 _symmetry_equiv_pos_site_id
 _symmetry_equiv_pos_as_xyz
  1  'x, y, z'
loop_
 _atom_site_type_symbol
 _atom_site_label
 _atom_site_symmetry_multiplicity
 _atom_site_fract_x
 _atom_site_fract_y
 _atom_site_fract_z
 _atom_site_occupancy
  Mg  Mg0  1  0.98963700  0.76643200  0.50000000  1
  Fe  Fe0  1  0.04065700  0.02447900  0.00000000  1
  Fe  Fe1  1  0.99279100  0.49984500  0.00000000  1
  Fe  Fe2  1  0.22238200  0.26366100  0.50000000  1
  Fe  Fe3  1  0.25398800  0.74742900  0.50000000  1
  Fe  Fe4  1  0.50039300  0.46896500  0.00000000  1
  Fe  Fe5  1  0.51159000  0.00388300  0.00000000  1
  Fe  Fe6  1  0.76473200  0.27551100  0.50000000  1
  Fe  Fe7  1  0.69206500  0.68786800  0.50000000  1
  O  O0  1  0.09231000  0.41587400  0.50000000  1
  O  O1  1  0.11342700  0.92384900  0.50000000  1
  O  O2  1  0.15846300  0.16880100  0.00000000  1
  O  O3  1  0.10783000  0.67346600  0.00000000  1
  O  O4  1  0.58797000  0.38610700  0.50000000  1
  O  O5  1  0.60328800  0.63334000  0.00000000  1
  O  O6  1  0.84651700  0.35793000  0.00000000  1
  O  O7  1  0.87105800  0.61078200  0.50000000  1
  F  F0  1  0.34322300  0.34250600  0.00000000  1
  F  F1  1  0.37078600  0.84166300  0.00000000  1
  F  F2  1  0.41051700  0.10781100  0.50000000  1
  F  F3  1  0.37959900  0.56651100  0.50000000  1
  F  F4  1  0.62276400  0.88587400  0.50000000  1
  F  F5  1  0.67410800  0.15049700  0.00000000  1
  F  F6  1  0.88689400  0.86831900  0.00000000  1
  F  F7  1  0.91440200  0.11331800  0.50000000  1
loop_
_geom_bond_atom_site_label_1
_geom_bond_atom_site_label_2
_geom_bond_distance
_geom_bond_site_symmetry_2
Mg0 O7 1.965944 1_555
Mg0 O1 2.012284 1_655
Mg0 O3 2.106494 1_656
Mg0 O3 2.106494 1_655
Fe0 O2 1.872205 1_555
Fe0 O1 1.950400 1_544
Fe0 O1 1.950400 1_545
Fe1 O0 1.983020 1_654
Fe1 O0 1.983020 1_655
Fe1 O6 2.047727 1_555
Fe1 O3 2.090775 1_655
Fe1 O7 2.199661 1_555
Fe1 O7 2.199661 1_554
Fe2 O0 1.892259 1_555
Fe2 O2 1.933984 1_556
Fe2 O2 1.933984 1_555
Fe3 O1 2.133311 1_555
Fe3 O3 2.255947 1_555
Fe3 O3 2.255947 1_556
Fe4 O4 1.927884 1_554
Fe4 O4 1.927884 1_555
Fe4 O5 1.945803 1_555
Fe6 O6 1.944954 1_555
Fe6 O6 1.944954 1_556
Fe6 O4 1.971952 1_555
Fe7 O7 1.851878 1_555
Fe7 O5 1.872763 1_556
Fe7 O5 1.872763 1_555
F0 Fe4 2.024272 1_555
F0 Fe2 2.123102 1_554
F0 Fe2 2.123102 1_555
F1 Fe5 2.158900 1_565
F1 Fe3 2.165497 1_555
F1 Fe3 2.165497 1_554
F2 Fe5 2.072530 1_555
F2 Fe5 2.072530 1_556
F2 Fe2 2.306300 1_555
F3 Fe3 2.086589 1_555
F3 Fe4 2.137782 1_556
F3 Fe4 2.137782 1_555
F4 Fe7 2.011074 1_555
F4 Fe5 2.183110 1_565
F4 Fe5 2.183110 1_566
F5 Fe6 2.197016 1_554
F5 Fe6 2.197016 1_555
F5 Fe5 2.198346 1_555
F6 Mg0 2.070681 1_554
F6 Mg0 2.070681 1_555
F6 Fe0 2.202332 1_665
F7 Fe6 2.084587 1_555
F7 Fe0 2.132787 1_655
F7 Fe0 2.132787 1_656
