# generated using pymatgen
data_Ba5(RuO5)2
_symmetry_space_group_name_H-M   'P 1'
_cell_length_a   5.99653409
_cell_length_b   5.99653411
_cell_length_c   18.00403248
_cell_angle_alpha   89.99999746
_cell_angle_beta   89.99999171
_cell_angle_gamma   119.99998805
_symmetry_Int_Tables_number   1
_chemical_formula_structural   Ba5(RuO5)2
_chemical_formula_sum   'Ba10 Ru4 O20'
_cell_volume   560.66195452
_cell_formula_units_Z   2
loop_
 _symmetry_equiv_pos_site_id
 _symmetry_equiv_pos_as_xyz
  1  'x, y, z'
loop_
 _atom_site_type_symbol
 _atom_site_label
 _atom_site_symmetry_multiplicity
 _atom_site_fract_x
 _atom_site_fract_y
 _atom_site_fract_z
 _atom_site_occupancy
  Ba  Ba0  1  0.33333307  0.66666651  0.48479408  1
  Ba  Ba1  1  0.66666670  0.33333332  0.98479197  1
  Ba  Ba2  1  0.66666684  0.33333324  0.51520765  1
  Ba  Ba3  1  0.33333323  0.66666693  0.01520580  1
  Ba  Ba4  1  0.66666653  0.33333339  0.74999969  1
  Ba  Ba5  1  0.33333329  0.66666651  0.25000012  1
  Ba  Ba6  1  -0.00000012  0.00000009  0.36303845  1
  Ba  Ba7  1  0.00000017  -0.00000011  0.86304251  1
  Ba  Ba8  1  0.00000016  -0.00000017  0.63695723  1
  Ba  Ba9  1  -0.00000018  0.00000012  0.13696154  1
  Ru  Ru0  1  0.33333354  0.66666660  0.82693345  1
  Ru  Ru1  1  0.66666645  0.33333323  0.32693140  1
  Ru  Ru2  1  0.66666691  0.33333350  0.17306862  1
  Ru  Ru3  1  0.33333368  0.66666656  0.67306651  1
  O  O0  1  -0.00000003  0.00000004  0.49999709  1
  O  O1  1  0.00000001  -0.00000001  0.00000280  1
  O  O2  1  0.48780196  0.51219949  0.88298531  1
  O  O3  1  0.48780033  0.97560258  0.88298517  1
  O  O4  1  0.02439736  0.51219814  0.88298519  1
  O  O5  1  0.97560333  0.48780077  0.38298202  1
  O  O6  1  0.51219762  0.02439668  0.11701796  1
  O  O7  1  0.51219899  0.48780237  0.38298204  1
  O  O8  1  0.51219772  0.02439675  0.38298200  1
  O  O9  1  0.48780191  0.51219963  0.61701434  1
  O  O10  1  0.02439733  0.51219818  0.61701443  1
  O  O11  1  0.97560307  0.48780071  0.11701798  1
  O  O12  1  0.51219899  0.48780243  0.11701791  1
  O  O13  1  0.48780028  0.97560267  0.61701444  1
  O  O14  1  0.18728541  0.37457037  0.74999980  1
  O  O15  1  0.81271245  0.18728747  0.24999996  1
  O  O16  1  0.37457444  0.18728736  0.24999996  1
  O  O17  1  0.62542964  0.81271461  0.74999980  1
  O  O18  1  0.18728540  0.81271460  0.74999980  1
  O  O19  1  0.81271252  0.62542544  0.24999998  1
loop_
_geom_bond_atom_site_label_1
_geom_bond_atom_site_label_2
_geom_bond_distance
_geom_bond_site_symmetry_2
Ba0 O5 2.609829 1_455
Ba0 O7 2.609829 1_555
Ba0 O8 2.609831 1_565
Ba0 O9 2.870663 1_555
Ba0 O10 2.870665 1_555
Ba0 O13 2.870666 1_555
Ba1 O2 2.609765 1_555
Ba1 O4 2.609765 1_655
Ba1 O3 2.609766 1_545
Ba1 O12 2.870751 1_556
Ba1 O11 2.870751 1_556
Ba1 O6 2.870752 1_556
Ba2 O13 2.609765 1_545
Ba2 O10 2.609765 1_655
Ba2 O9 2.609766 1_555
Ba2 O5 2.870746 1_555
Ba2 O8 2.870746 1_555
Ba2 O7 2.870747 1_555
Ba3 O6 2.609830 1_565
Ba3 O12 2.609831 1_555
Ba3 O11 2.609832 1_455
Ba3 O2 2.870668 1_554
Ba3 O3 2.870669 1_554
Ba3 O4 2.870669 1_554
Ba4 O14 3.005903 1_555
Ba4 O17 3.005903 1_555
Ba4 O18 3.005906 1_545
Ba4 O18 3.005906 1_655
Ba4 O17 3.005907 1_545
Ba4 O14 3.005907 1_655
Ba4 O10 3.030473 1_655
Ba4 O13 3.030473 1_545
Ba4 O9 3.030475 1_555
Ba4 O3 3.030476 1_545
Ba4 O4 3.030477 1_655
Ba4 O2 3.030478 1_555
Ba5 O16 3.005905 1_555
Ba5 O19 3.005905 1_555
Ba5 O15 3.005907 1_455
Ba5 O15 3.005908 1_565
Ba5 O19 3.005908 1_455
Ba5 O16 3.005908 1_565
Ba5 O5 3.030423 1_455
Ba5 O7 3.030423 1_555
Ba5 O8 3.030424 1_565
Ba5 O12 3.030427 1_555
Ba5 O6 3.030427 1_565
Ba5 O11 3.030427 1_455
Ba6 O0 2.465808 1_555
Ba6 O16 2.815265 1_555
Ba6 O19 2.815266 1_445
Ba6 O15 2.815266 1_455
Ba6 O5 3.022341 1_455
Ba6 O7 3.022344 1_445
Ba6 O8 3.022345 1_555
Ba6 O8 3.022350 1_455
Ba6 O7 3.022352 1_555
Ba6 O5 3.022354 1_445
Ba7 O1 2.465838 1_556
Ba7 O14 2.815306 1_555
Ba7 O18 2.815306 1_545
Ba7 O17 2.815306 1_445
Ba7 O3 3.022339 1_545
Ba7 O2 3.022342 1_445
Ba7 O4 3.022344 1_555
Ba7 O4 3.022348 1_545
Ba7 O2 3.022351 1_555
Ba7 O3 3.022353 1_445
Ba8 O0 2.465835 1_555
Ba8 O18 2.815304 1_545
Ba8 O17 2.815304 1_445
Ba8 O14 2.815304 1_555
Ba8 O13 3.022338 1_545
Ba8 O9 3.022342 1_445
Ba8 O10 3.022345 1_555
Ba8 O10 3.022347 1_545
Ba8 O9 3.022351 1_555
Ba8 O13 3.022354 1_445
Ba9 O1 2.465810 1_555
Ba9 O15 2.815265 1_455
Ba9 O16 2.815265 1_555
Ba9 O19 2.815265 1_445
Ba9 O11 3.022341 1_455
Ba9 O12 3.022344 1_445
Ba9 O6 3.022345 1_555
Ba9 O6 3.022350 1_455
Ba9 O12 3.022353 1_555
Ba9 O11 3.022354 1_445
O2 Ru0 1.895346 1_555
O3 Ru0 1.895347 1_555
O4 Ru0 1.895348 1_555
O5 Ru1 1.895341 1_555
O6 Ru2 1.895341 1_555
O7 Ru1 1.895339 1_555
O8 Ru1 1.895339 1_555
O9 Ru3 1.895348 1_555
O10 Ru3 1.895352 1_555
O11 Ru2 1.895337 1_555
O12 Ru2 1.895341 1_555
O13 Ru3 1.895351 1_555
O14 Ru3 2.054145 1_555
O14 Ru0 2.054150 1_555
O15 Ru2 2.054104 1_555
O15 Ru1 2.054106 1_555
O16 Ru1 2.054107 1_555
O16 Ru2 2.054107 1_555
O17 Ru3 2.054145 1_555
O17 Ru0 2.054149 1_555
O18 Ru3 2.054146 1_555
O18 Ru0 2.054149 1_555
O19 Ru2 2.054106 1_555
O19 Ru1 2.054107 1_555
