# generated using pymatgen
data_MgTe2Mo3W(Se2S)2
_symmetry_space_group_name_H-M   'P 1'
_cell_length_a   6.67010800
_cell_length_b   6.66958407
_cell_length_c   75.96444601
_cell_angle_alpha   90.00024127
_cell_angle_beta   89.99838097
_cell_angle_gamma   119.99875003
_symmetry_Int_Tables_number   1
_chemical_formula_structural   MgTe2Mo3W(Se2S)2
_chemical_formula_sum   'Mg8 Te16 Mo24 W8 Se32 S16'
_cell_volume   2926.69923518
_cell_formula_units_Z   8
loop_
 _symmetry_equiv_pos_site_id
 _symmetry_equiv_pos_as_xyz
  1  'x, y, z'
loop_
 _atom_site_type_symbol
 _atom_site_label
 _atom_site_symmetry_multiplicity
 _atom_site_fract_x
 _atom_site_fract_y
 _atom_site_fract_z
 _atom_site_occupancy
  Mg  Mg0_0  1  0.31981250  0.11665500  0.44106650  1
  Mg  Mg0_1  1  0.31981250  0.11665500  0.94106650  1
  Mg  Mg0_2  1  0.31981250  0.61665500  0.44106650  1
  Mg  Mg0_3  1  0.31981250  0.61665500  0.94106650  1
  Mg  Mg0_4  1  0.81981250  0.11665500  0.44106650  1
  Mg  Mg0_5  1  0.81981250  0.11665500  0.94106650  1
  Mg  Mg0_6  1  0.81981250  0.61665500  0.44106650  1
  Mg  Mg0_7  1  0.81981250  0.61665500  0.94106650  1
  Te  Te0_0  1  0.16664600  0.33334000  0.35382500  1
  Te  Te0_1  1  0.16664600  0.33334000  0.85382500  1
  Te  Te0_2  1  0.16664600  0.83334000  0.35382500  1
  Te  Te0_3  1  0.16664600  0.83334000  0.85382500  1
  Te  Te0_4  1  0.66664600  0.33334000  0.35382500  1
  Te  Te0_5  1  0.66664600  0.33334000  0.85382500  1
  Te  Te0_6  1  0.66664600  0.83334000  0.35382500  1
  Te  Te0_7  1  0.66664600  0.83334000  0.85382500  1
  Te  Te1_0  1  0.16666500  0.33334750  0.30382500  1
  Te  Te1_1  1  0.16666500  0.33334750  0.80382500  1
  Te  Te1_2  1  0.16666500  0.83334750  0.30382500  1
  Te  Te1_3  1  0.16666500  0.83334750  0.80382500  1
  Te  Te1_4  1  0.66666500  0.33334750  0.30382500  1
  Te  Te1_5  1  0.66666500  0.33334750  0.80382500  1
  Te  Te1_6  1  0.66666500  0.83334750  0.30382500  1
  Te  Te1_7  1  0.66666500  0.83334750  0.80382500  1
  Mo  Mo0_0  1  0.16665450  0.33332700  0.04691350  1
  Mo  Mo0_1  1  0.16665450  0.33332700  0.54691350  1
  Mo  Mo0_2  1  0.16665450  0.83332700  0.04691350  1
  Mo  Mo0_3  1  0.16665450  0.83332700  0.54691350  1
  Mo  Mo0_4  1  0.66665450  0.33332700  0.04691350  1
  Mo  Mo0_5  1  0.66665450  0.33332700  0.54691350  1
  Mo  Mo0_6  1  0.66665450  0.83332700  0.04691350  1
  Mo  Mo0_7  1  0.66665450  0.83332700  0.54691350  1
  Mo  Mo1_0  1  0.33333400  0.16668300  0.14092350  1
  Mo  Mo1_1  1  0.33333400  0.16668300  0.64092350  1
  Mo  Mo1_2  1  0.33333400  0.66668300  0.14092350  1
  Mo  Mo1_3  1  0.33333400  0.66668300  0.64092350  1
  Mo  Mo1_4  1  0.83333400  0.16668300  0.14092350  1
  Mo  Mo1_5  1  0.83333400  0.16668300  0.64092350  1
  Mo  Mo1_6  1  0.83333400  0.66668300  0.14092350  1
  Mo  Mo1_7  1  0.83333400  0.66668300  0.64092350  1
  Mo  Mo2_0  1  0.33334200  0.16668750  0.32883800  1
  Mo  Mo2_1  1  0.33334200  0.16668750  0.82883800  1
  Mo  Mo2_2  1  0.33334200  0.66668750  0.32883800  1
  Mo  Mo2_3  1  0.33334200  0.66668750  0.82883800  1
  Mo  Mo2_4  1  0.83334200  0.16668750  0.32883800  1
  Mo  Mo2_5  1  0.83334200  0.16668750  0.82883800  1
  Mo  Mo2_6  1  0.83334200  0.66668750  0.32883800  1
  Mo  Mo2_7  1  0.83334200  0.66668750  0.82883800  1
  W  W0_0  1  0.16667200  0.33333400  0.23477450  1
  W  W0_1  1  0.16667200  0.33333400  0.73477450  1
  W  W0_2  1  0.16667200  0.83333400  0.23477450  1
  W  W0_3  1  0.16667200  0.83333400  0.73477450  1
  W  W0_4  1  0.66667200  0.33333400  0.23477450  1
  W  W0_5  1  0.66667200  0.33333400  0.73477450  1
  W  W0_6  1  0.66667200  0.83333400  0.23477450  1
  W  W0_7  1  0.66667200  0.83333400  0.73477450  1
  Se  Se0_0  1  0.16664800  0.33334100  0.16291500  1
  Se  Se0_1  1  0.16664800  0.33334100  0.66291500  1
  Se  Se0_2  1  0.16664800  0.83334100  0.16291500  1
  Se  Se0_3  1  0.16664800  0.83334100  0.66291500  1
  Se  Se0_4  1  0.66664800  0.33334100  0.16291500  1
  Se  Se0_5  1  0.66664800  0.33334100  0.66291500  1
  Se  Se0_6  1  0.66664800  0.83334100  0.16291500  1
  Se  Se0_7  1  0.66664800  0.83334100  0.66291500  1
  Se  Se1_0  1  0.33333800  0.16666950  0.02494700  1
  Se  Se1_1  1  0.33333800  0.16666950  0.52494700  1
  Se  Se1_2  1  0.33333800  0.66666950  0.02494700  1
  Se  Se1_3  1  0.33333800  0.66666950  0.52494700  1
  Se  Se1_4  1  0.83333800  0.16666950  0.02494700  1
  Se  Se1_5  1  0.83333800  0.16666950  0.52494700  1
  Se  Se1_6  1  0.83333800  0.66666950  0.02494700  1
  Se  Se1_7  1  0.83333800  0.66666950  0.52494700  1
  Se  Se2_0  1  0.33331550  0.16665050  0.06889550  1
  Se  Se2_1  1  0.33331550  0.16665050  0.56889550  1
  Se  Se2_2  1  0.33331550  0.66665050  0.06889550  1
  Se  Se2_3  1  0.33331550  0.66665050  0.56889550  1
  Se  Se2_4  1  0.83331550  0.16665050  0.06889550  1
  Se  Se2_5  1  0.83331550  0.16665050  0.56889550  1
  Se  Se2_6  1  0.83331550  0.66665050  0.06889550  1
  Se  Se2_7  1  0.83331550  0.66665050  0.56889550  1
  Se  Se3_0  1  0.16666850  0.33334950  0.11894050  1
  Se  Se3_1  1  0.16666850  0.33334950  0.61894050  1
  Se  Se3_2  1  0.16666850  0.83334950  0.11894050  1
  Se  Se3_3  1  0.16666850  0.83334950  0.61894050  1
  Se  Se3_4  1  0.66666850  0.33334950  0.11894050  1
  Se  Se3_5  1  0.66666850  0.33334950  0.61894050  1
  Se  Se3_6  1  0.66666850  0.83334950  0.11894050  1
  Se  Se3_7  1  0.66666850  0.83334950  0.61894050  1
  S  S0_0  1  0.33337450  0.16667400  0.21472150  1
  S  S0_1  1  0.33337450  0.16667400  0.71472150  1
  S  S0_2  1  0.33337450  0.66667400  0.21472150  1
  S  S0_3  1  0.33337450  0.66667400  0.71472150  1
  S  S0_4  1  0.83337450  0.16667400  0.21472150  1
  S  S0_5  1  0.83337450  0.16667400  0.71472150  1
  S  S0_6  1  0.83337450  0.66667400  0.21472150  1
  S  S0_7  1  0.83337450  0.66667400  0.71472150  1
  S  S1_0  1  0.33335300  0.16667350  0.25485100  1
  S  S1_1  1  0.33335300  0.16667350  0.75485100  1
  S  S1_2  1  0.33335300  0.66667350  0.25485100  1
  S  S1_3  1  0.33335300  0.66667350  0.75485100  1
  S  S1_4  1  0.83335300  0.16667350  0.25485100  1
  S  S1_5  1  0.83335300  0.16667350  0.75485100  1
  S  S1_6  1  0.83335300  0.66667350  0.25485100  1
  S  S1_7  1  0.83335300  0.66667350  0.75485100  1
loop_
_geom_bond_atom_site_label_1
_geom_bond_atom_site_label_2
_geom_bond_distance
_geom_bond_site_symmetry_2
Mg0_0 Mg0_2 3.334792 1_555
Mg0_0 Mg0_2 3.334792 1_545
Mg0_0 Mg0_6 3.334986 1_555
Mg0_0 Mg0_6 3.334986 1_445
Mg0_0 Mg0_4 3.335054 1_555
Mg0_0 Mg0_4 3.335054 1_455
Mg0_1 Mg0_3 3.334792 1_555
Mg0_1 Mg0_3 3.334792 1_545
Mg0_1 Mg0_7 3.334986 1_555
Mg0_1 Mg0_7 3.334986 1_445
Mg0_1 Mg0_5 3.335054 1_455
Mg0_1 Mg0_5 3.335054 1_555
Mg0_2 Mg0_4 3.334986 1_455
Mg0_2 Mg0_4 3.334986 1_565
Mg0_2 Mg0_6 3.335054 1_455
Mg0_2 Mg0_6 3.335054 1_555
Mg0_3 Mg0_5 3.334986 1_455
Mg0_3 Mg0_5 3.334986 1_565
Mg0_3 Mg0_7 3.335054 1_555
Mg0_3 Mg0_7 3.335054 1_455
Mg0_4 Mg0_6 3.334792 1_555
Mg0_4 Mg0_6 3.334792 1_545
Mg0_5 Mg0_7 3.334792 1_545
Mg0_5 Mg0_7 3.334792 1_555
Mo0_0 Se1_2 2.547870 1_555
Mo0_0 Se1_0 2.547883 1_555
Mo0_0 Se1_4 2.547923 1_455
Mo0_0 Se2_2 2.548587 1_555
Mo0_0 Se2_0 2.548687 1_555
Mo0_0 Se2_4 2.548716 1_455
Mo0_1 Se1_3 2.547870 1_555
Mo0_1 Se1_1 2.547883 1_555
Mo0_1 Se1_5 2.547923 1_455
Mo0_1 Se2_3 2.548587 1_555
Mo0_1 Se2_1 2.548687 1_555
Mo0_1 Se2_5 2.548716 1_455
Mo0_2 Se1_0 2.547870 1_565
Mo0_2 Se1_2 2.547883 1_555
Mo0_2 Se1_6 2.547923 1_455
Mo0_2 Se2_0 2.548587 1_565
Mo0_2 Se2_2 2.548687 1_555
Mo0_2 Se2_6 2.548716 1_455
Mo0_3 Se1_1 2.547870 1_565
Mo0_3 Se1_3 2.547883 1_555
Mo0_3 Se1_7 2.547923 1_455
Mo0_3 Se2_1 2.548587 1_565
Mo0_3 Se2_3 2.548687 1_555
Mo0_3 Se2_7 2.548716 1_455
Mo0_4 Se1_6 2.547870 1_555
Mo0_4 Se1_4 2.547883 1_555
Mo0_4 Se1_0 2.547923 1_555
Mo0_4 Se2_6 2.548587 1_555
Mo0_4 Se2_4 2.548687 1_555
Mo0_4 Se2_0 2.548716 1_555
Mo0_5 Se1_7 2.547870 1_555
Mo0_5 Se1_5 2.547883 1_555
Mo0_5 Se1_1 2.547923 1_555
Mo0_5 Se2_7 2.548587 1_555
Mo0_5 Se2_5 2.548687 1_555
Mo0_5 Se2_1 2.548716 1_555
Mo0_6 Se1_4 2.547870 1_565
Mo0_6 Se1_6 2.547883 1_555
Mo0_6 Se1_2 2.547923 1_555
Mo0_6 Se2_4 2.548587 1_565
Mo0_6 Se2_6 2.548687 1_555
Mo0_6 Se2_2 2.548716 1_555
Mo0_7 Se1_5 2.547870 1_565
Mo0_7 Se1_7 2.547883 1_555
Mo0_7 Se1_3 2.547923 1_555
Mo0_7 Se2_5 2.548587 1_565
Mo0_7 Se2_7 2.548687 1_555
Mo0_7 Se2_3 2.548716 1_555
Mo1_0 Se3_2 2.548680 1_545
Mo1_0 Se3_0 2.548713 1_555
Mo1_0 Se3_4 2.548746 1_555
Mo1_0 Se0_2 2.549112 1_545
Mo1_0 Se0_0 2.549141 1_555
Mo1_0 Se0_4 2.549156 1_555
Mo1_1 Se3_3 2.548680 1_545
Mo1_1 Se3_1 2.548713 1_555
Mo1_1 Se3_5 2.548746 1_555
Mo1_1 Se0_3 2.549112 1_545
Mo1_1 Se0_1 2.549141 1_555
Mo1_1 Se0_5 2.549156 1_555
Mo1_2 Se3_0 2.548680 1_555
Mo1_2 Se3_2 2.548713 1_555
Mo1_2 Se3_6 2.548746 1_555
Mo1_2 Se0_0 2.549112 1_555
Mo1_2 Se0_2 2.549141 1_555
Mo1_2 Se0_6 2.549156 1_555
Mo1_3 Se3_1 2.548680 1_555
Mo1_3 Se3_3 2.548713 1_555
Mo1_3 Se3_7 2.548746 1_555
Mo1_3 Se0_1 2.549112 1_555
Mo1_3 Se0_3 2.549141 1_555
Mo1_3 Se0_7 2.549156 1_555
Mo1_4 Se3_6 2.548680 1_545
Mo1_4 Se3_4 2.548713 1_555
Mo1_4 Se3_0 2.548746 1_655
Mo1_4 Se0_6 2.549112 1_545
Mo1_4 Se0_4 2.549141 1_555
Mo1_4 Se0_0 2.549156 1_655
Mo1_5 Se3_7 2.548680 1_545
Mo1_5 Se3_5 2.548713 1_555
Mo1_5 Se3_1 2.548746 1_655
Mo1_5 Se0_7 2.549112 1_545
Mo1_5 Se0_5 2.549141 1_555
Mo1_5 Se0_1 2.549156 1_655
Mo1_6 Se3_4 2.548680 1_555
Mo1_6 Se3_6 2.548713 1_555
Mo1_6 Se3_2 2.548746 1_655
Mo1_6 Se0_4 2.549112 1_555
Mo1_6 Se0_6 2.549141 1_555
Mo1_6 Se0_2 2.549156 1_655
Mo1_7 Se3_5 2.548680 1_555
Mo1_7 Se3_7 2.548713 1_555
Mo1_7 Se3_3 2.548746 1_655
Mo1_7 Se0_5 2.549112 1_555
Mo1_7 Se0_7 2.549141 1_555
Mo1_7 Se0_3 2.549156 1_655
Mo2_0 Te0_4 2.703713 1_555
Mo2_0 Te0_2 2.703728 1_545
Mo2_0 Te0_0 2.703750 1_555
Mo2_0 Te1_4 2.705096 1_555
Mo2_0 Te1_2 2.705115 1_545
Mo2_0 Te1_0 2.705140 1_555
Mo2_1 Te0_5 2.703713 1_555
Mo2_1 Te0_3 2.703728 1_545
Mo2_1 Te0_1 2.703750 1_555
Mo2_1 Te1_5 2.705096 1_555
Mo2_1 Te1_3 2.705115 1_545
Mo2_1 Te1_1 2.705140 1_555
Mo2_2 Te0_6 2.703713 1_555
Mo2_2 Te0_0 2.703728 1_555
Mo2_2 Te0_2 2.703750 1_555
Mo2_2 Te1_6 2.705096 1_555
Mo2_2 Te1_0 2.705115 1_555
Mo2_2 Te1_2 2.705140 1_555
Mo2_3 Te0_7 2.703713 1_555
Mo2_3 Te0_1 2.703728 1_555
Mo2_3 Te0_3 2.703750 1_555
Mo2_3 Te1_7 2.705096 1_555
Mo2_3 Te1_1 2.705115 1_555
Mo2_3 Te1_3 2.705140 1_555
Mo2_4 Te0_0 2.703713 1_655
Mo2_4 Te0_6 2.703728 1_545
Mo2_4 Te0_4 2.703750 1_555
Mo2_4 Te1_0 2.705096 1_655
Mo2_4 Te1_6 2.705115 1_545
Mo2_4 Te1_4 2.705140 1_555
Mo2_5 Te0_1 2.703713 1_655
Mo2_5 Te0_7 2.703728 1_545
Mo2_5 Te0_5 2.703750 1_555
Mo2_5 Te1_1 2.705096 1_655
Mo2_5 Te1_7 2.705115 1_545
Mo2_5 Te1_5 2.705140 1_555
Mo2_6 Te0_2 2.703713 1_655
Mo2_6 Te0_4 2.703728 1_555
Mo2_6 Te0_6 2.703750 1_555
Mo2_6 Te1_2 2.705096 1_655
Mo2_6 Te1_4 2.705115 1_555
Mo2_6 Te1_6 2.705140 1_555
Mo2_7 Te0_3 2.703713 1_655
Mo2_7 Te0_5 2.703728 1_555
Mo2_7 Te0_7 2.703750 1_555
Mo2_7 Te1_3 2.705096 1_655
Mo2_7 Te1_5 2.705115 1_555
Mo2_7 Te1_7 2.705140 1_555
S0_0 W0_4 2.455095 1_555
S0_0 W0_2 2.455119 1_545
S0_0 W0_0 2.455243 1_555
S0_1 W0_5 2.455095 1_555
S0_1 W0_3 2.455119 1_545
S0_1 W0_1 2.455243 1_555
S0_2 W0_6 2.455095 1_555
S0_2 W0_0 2.455119 1_555
S0_2 W0_2 2.455243 1_555
S0_3 W0_7 2.455095 1_555
S0_3 W0_1 2.455119 1_555
S0_3 W0_3 2.455243 1_555
S0_4 W0_0 2.455095 1_655
S0_4 W0_6 2.455119 1_545
S0_4 W0_4 2.455243 1_555
S0_5 W0_1 2.455095 1_655
S0_5 W0_7 2.455119 1_545
S0_5 W0_5 2.455243 1_555
S0_6 W0_2 2.455095 1_655
S0_6 W0_4 2.455119 1_555
S0_6 W0_6 2.455243 1_555
S0_7 W0_3 2.455095 1_655
S0_7 W0_5 2.455119 1_555
S0_7 W0_7 2.455243 1_555
S1_0 W0_4 2.456228 1_555
S1_0 W0_2 2.456252 1_545
S1_0 W0_0 2.456301 1_555
S1_1 W0_5 2.456228 1_555
S1_1 W0_3 2.456252 1_545
S1_1 W0_1 2.456301 1_555
S1_2 W0_6 2.456228 1_555
S1_2 W0_0 2.456252 1_555
S1_2 W0_2 2.456301 1_555
S1_3 W0_7 2.456228 1_555
S1_3 W0_1 2.456252 1_555
S1_3 W0_3 2.456301 1_555
S1_4 W0_0 2.456228 1_655
S1_4 W0_6 2.456252 1_545
S1_4 W0_4 2.456301 1_555
S1_5 W0_1 2.456228 1_655
S1_5 W0_7 2.456252 1_545
S1_5 W0_5 2.456301 1_555
S1_6 W0_2 2.456228 1_655
S1_6 W0_4 2.456252 1_555
S1_6 W0_6 2.456301 1_555
S1_7 W0_3 2.456228 1_655
S1_7 W0_5 2.456252 1_555
S1_7 W0_7 2.456301 1_555
