# generated using pymatgen
data_Tm2InPd2
_symmetry_space_group_name_H-M   'P 1'
_cell_length_a   7.67888655
_cell_length_b   7.67888655
_cell_length_c   3.57542518
_cell_angle_alpha   90.00000000
_cell_angle_beta   90.00000000
_cell_angle_gamma   90.00000000
_symmetry_Int_Tables_number   1
_chemical_formula_structural   Tm2InPd2
_chemical_formula_sum   'Tm4 In2 Pd4'
_cell_volume   210.82601353
_cell_formula_units_Z   2
loop_
 _symmetry_equiv_pos_site_id
 _symmetry_equiv_pos_as_xyz
  1  'x, y, z'
loop_
 _atom_site_type_symbol
 _atom_site_label
 _atom_site_symmetry_multiplicity
 _atom_site_fract_x
 _atom_site_fract_y
 _atom_site_fract_z
 _atom_site_occupancy
  Tm  Tm0  1  0.32809756  0.82809756  0.50000000  1
  Tm  Tm1  1  0.82809756  0.67190244  0.50000000  1
  Tm  Tm2  1  0.17190244  0.32809756  0.50000000  1
  Tm  Tm3  1  0.67190244  0.17190244  0.50000000  1
  In  In0  1  -0.00000000  0.00000000  0.00000000  1
  In  In1  1  0.50000000  0.50000000  0.00000000  1
  Pd  Pd0  1  0.37159270  0.12840730  0.00000000  1
  Pd  Pd1  1  0.87159270  0.37159270  0.00000000  1
  Pd  Pd2  1  0.12840730  0.62840730  -0.00000000  1
  Pd  Pd3  1  0.62840730  0.87159270  -0.00000000  1
loop_
_geom_bond_atom_site_label_1
_geom_bond_atom_site_label_2
_geom_bond_distance
_geom_bond_site_symmetry_2
In0 Pd3 3.018980 1_445
In0 Pd0 3.018980 1_555
In0 Pd1 3.018980 1_455
In0 Pd2 3.018980 1_545
In0 Tm3 3.359444 1_454
In0 Tm0 3.359444 1_544
In0 Tm0 3.359444 1_545
In0 Tm1 3.359444 1_444
In0 Tm1 3.359444 1_445
In0 Tm2 3.359444 1_554
In0 Tm3 3.359444 1_455
In0 Tm2 3.359444 1_555
In1 Pd1 3.018980 1_555
In1 Pd0 3.018980 1_555
In1 Pd2 3.018980 1_555
In1 Pd3 3.018980 1_555
In1 Tm0 3.359444 1_554
In1 Tm1 3.359444 1_554
In1 Tm3 3.359444 1_554
In1 Tm3 3.359444 1_555
In1 Tm2 3.359444 1_554
In1 Tm0 3.359444 1_555
In1 Tm1 3.359444 1_555
In1 Tm2 3.359444 1_555
Pd0 Pd3 2.788900 1_545
Pd0 Tm2 2.810434 1_555
Pd0 Tm2 2.810434 1_554
Pd0 Tm0 2.936888 1_544
Pd0 Tm3 2.936888 1_555
Pd0 Tm0 2.936888 1_545
Pd0 Tm3 2.936888 1_554
Pd1 Pd2 2.788900 1_655
Pd1 Tm3 2.810434 1_554
Pd1 Tm3 2.810434 1_555
Pd1 Tm1 2.936888 1_554
Pd1 Tm2 2.936888 1_654
Pd1 Tm1 2.936888 1_555
Pd1 Tm2 2.936888 1_655
Pd2 Tm0 2.810434 1_555
Pd2 Tm0 2.810434 1_554
Pd2 Tm1 2.936888 1_455
Pd2 Tm1 2.936888 1_454
Pd2 Tm2 2.936888 1_554
Pd2 Tm2 2.936888 1_555
Pd3 Tm1 2.810434 1_555
Pd3 Tm1 2.810434 1_554
Pd3 Tm3 2.936888 1_564
Pd3 Tm0 2.936888 1_554
Pd3 Tm3 2.936888 1_565
Pd3 Tm0 2.936888 1_555
