# generated using pymatgen
data_Na3PS4
_symmetry_space_group_name_H-M   'P 1'
_cell_length_a   6.92369091
_cell_length_b   6.92369091
_cell_length_c   7.07714131
_cell_angle_alpha   90.00000000
_cell_angle_beta   90.00000000
_cell_angle_gamma   90.00000000
_symmetry_Int_Tables_number   1
_chemical_formula_structural   Na3PS4
_chemical_formula_sum   'Na6 P2 S8'
_cell_volume   339.26043195
_cell_formula_units_Z   2
loop_
 _symmetry_equiv_pos_site_id
 _symmetry_equiv_pos_as_xyz
  1  'x, y, z'
loop_
 _atom_site_type_symbol
 _atom_site_label
 _atom_site_symmetry_multiplicity
 _atom_site_fract_x
 _atom_site_fract_y
 _atom_site_fract_z
 _atom_site_occupancy
  Na  Na0  1  0.00000000  0.50000000  0.41967521  1
  Na  Na1  1  0.50000000  -0.00000000  0.58032479  1
  Na  Na2  1  0.50000000  -0.00000000  0.08032479  1
  Na  Na3  1  0.00000000  0.50000000  0.91967521  1
  Na  Na4  1  0.00000000  -0.00000000  0.00000000  1
  Na  Na5  1  0.50000000  0.50000000  0.50000000  1
  P  P0  1  0.00000000  -0.00000000  0.50000000  1
  P  P1  1  0.50000000  0.50000000  0.00000000  1
  S  S0  1  0.30981047  0.34847150  0.16588040  1
  S  S1  1  0.34847150  0.69018953  0.83411960  1
  S  S2  1  0.65152850  0.30981047  0.83411960  1
  S  S3  1  0.80981047  0.15152850  0.33411960  1
  S  S4  1  0.19018953  0.84847150  0.33411960  1
  S  S5  1  0.69018953  0.65152850  0.16588040  1
  S  S6  1  0.15152850  0.19018953  0.66588040  1
  S  S7  1  0.84847150  0.80981047  0.66588040  1
loop_
_geom_bond_atom_site_label_1
_geom_bond_atom_site_label_2
_geom_bond_distance
_geom_bond_site_symmetry_2
Na0 S3 2.814566 1_455
Na0 S4 2.814566 1_555
Na0 S7 2.955995 1_455
Na0 S6 2.955995 1_555
Na0 S5 2.987972 1_455
Na0 S0 2.987972 1_555
Na1 S6 2.814566 1_555
Na1 S7 2.814566 1_545
Na1 S3 2.955995 1_555
Na1 S4 2.955995 1_545
Na1 S1 2.987972 1_545
Na1 S2 2.987972 1_555
Na2 S0 2.814566 1_555
Na2 S5 2.814566 1_545
Na2 S1 2.955995 1_544
Na2 S2 2.955995 1_554
Na2 S4 2.987972 1_545
Na2 S3 2.987972 1_555
Na3 S2 2.814566 1_455
Na3 S1 2.814566 1_555
Na3 S5 2.955995 1_456
Na3 S0 2.955995 1_556
Na3 S7 2.987972 1_455
Na3 S6 2.987972 1_555
Na4 S7 2.902770 1_444
Na4 S6 2.902770 1_554
Na4 S4 2.902770 1_545
Na4 S3 2.902770 1_455
Na5 S5 2.902770 1_555
Na5 S2 2.902770 1_555
Na5 S0 2.902770 1_555
Na5 S1 2.902770 1_555
P0 S4 2.052527 1_545
P0 S6 2.052527 1_555
P0 S3 2.052527 1_455
P0 S7 2.052527 1_445
P1 S2 2.052527 1_554
P1 S0 2.052527 1_555
P1 S5 2.052527 1_555
P1 S1 2.052527 1_554
