# generated using pymatgen
data_MgCu4(Ag2O3)2
_symmetry_space_group_name_H-M   'P 1'
_cell_length_a   6.23927618
_cell_length_b   6.23927553
_cell_length_c   7.28894853
_cell_angle_alpha   115.07106127
_cell_angle_beta   115.07106136
_cell_angle_gamma   97.44921401
_symmetry_Int_Tables_number   1
_chemical_formula_structural   MgCu4(Ag2O3)2
_chemical_formula_sum   'Mg1 Cu4 Ag4 O6'
_cell_volume   215.63353975
_cell_formula_units_Z   1
loop_
 _symmetry_equiv_pos_site_id
 _symmetry_equiv_pos_as_xyz
  1  'x, y, z'
loop_
 _atom_site_type_symbol
 _atom_site_label
 _atom_site_symmetry_multiplicity
 _atom_site_fract_x
 _atom_site_fract_y
 _atom_site_fract_z
 _atom_site_occupancy
  Mg  Mg0  1  0.76635650  0.23364350  0.25000000  1
  Cu  Cu0  1  0.46185980  0.47086930  0.47180489  1
  Cu  Cu1  1  0.44364172  0.89144901  0.78039978  1
  Cu  Cu2  1  0.52913070  0.53814020  0.02819511  1
  Cu  Cu3  1  0.10855099  0.55635828  0.71960022  1
  Ag  Ag0  1  0.98901728  0.47266908  0.00932251  1
  Ag  Ag1  1  0.04017564  0.00438780  0.53918639  1
  Ag  Ag2  1  0.52733092  0.01098272  0.49067749  1
  Ag  Ag3  1  0.99561220  0.95982436  0.96081361  1
  O  O0  1  0.55854399  0.44145601  0.25000000  1
  O  O1  1  0.41852272  0.58147727  0.75000000  1
  O  O2  1  0.66590255  0.91330859  0.25080509  1
  O  O3  1  0.81450140  0.54125483  0.71071946  1
  O  O4  1  0.08669141  0.33409745  0.24919491  1
  O  O5  1  0.45874517  0.18549860  0.78928054  1
loop_
_geom_bond_atom_site_label_1
_geom_bond_atom_site_label_2
_geom_bond_distance
_geom_bond_site_symmetry_2
Mg0 O0 1.948912 1_555
Mg0 O2 2.018846 1_545
Mg0 O4 2.018846 1_655
Cu0 O0 1.901358 1_555
Cu0 O3 1.980054 1_555
Cu0 O4 1.982423 1_555
Cu0 O1 1.997057 1_555
Cu1 O5 1.796772 1_565
Cu1 O1 1.828335 1_555
Cu2 O0 1.901357 1_555
Cu2 O5 1.980054 1_554
Cu2 O2 1.982423 1_555
Cu2 O1 1.997057 1_554
Cu3 O3 1.796772 1_455
Cu3 O1 1.828335 1_555
Ag0 O4 2.165775 1_655
Ag0 O3 2.237764 1_554
Ag1 O2 2.162893 1_445
Ag1 O5 2.207874 1_555
Ag2 O2 2.165775 1_545
Ag2 O5 2.237764 1_555
Ag3 O4 2.162893 1_666
Ag3 O3 2.207874 1_555
