# generated using pymatgen
data_ZnAg
_symmetry_space_group_name_H-M   'P 1'
_cell_length_a   5.64117398
_cell_length_b   15.16818104
_cell_length_c   26.30645742
_cell_angle_alpha   90.25386928
_cell_angle_beta   89.97877486
_cell_angle_gamma   89.98510579
_symmetry_Int_Tables_number   1
_chemical_formula_structural   ZnAg
_chemical_formula_sum   'Zn72 Ag72'
_cell_volume   2250.92516788
_cell_formula_units_Z   72
loop_
 _symmetry_equiv_pos_site_id
 _symmetry_equiv_pos_as_xyz
  1  'x, y, z'
loop_
 _atom_site_type_symbol
 _atom_site_label
 _atom_site_symmetry_multiplicity
 _atom_site_fract_x
 _atom_site_fract_y
 _atom_site_fract_z
 _atom_site_occupancy
  Zn  Zn0_0  1  0.38588871  0.00085839  0.16601176  1
  Zn  Zn0_1  1  0.38588871  0.00085839  0.66601176  1
  Zn  Zn0_2  1  0.38588871  0.50085838  0.16601176  1
  Zn  Zn0_3  1  0.38588871  0.50085839  0.66601175  1
  Zn  Zn0_4  1  0.88588871  0.00085839  0.16601176  1
  Zn  Zn0_5  1  0.88588871  0.00085839  0.66601176  1
  Zn  Zn0_6  1  0.88588871  0.50085838  0.16601176  1
  Zn  Zn0_7  1  0.88588871  0.50085839  0.66601176  1
  Zn  Zn1_0  1  0.39262398  0.24905139  0.41559688  1
  Zn  Zn1_1  1  0.39262398  0.24905139  0.91559688  1
  Zn  Zn1_2  1  0.39262398  0.74905139  0.41559688  1
  Zn  Zn1_3  1  0.39262398  0.74905139  0.91559688  1
  Zn  Zn1_4  1  0.89262398  0.24905139  0.41559688  1
  Zn  Zn1_5  1  0.89262398  0.24905139  0.91559688  1
  Zn  Zn1_6  1  0.89262398  0.74905139  0.41559688  1
  Zn  Zn1_7  1  0.89262398  0.74905139  0.91559688  1
  Zn  Zn2_0  1  0.13924844  0.25019764  0.08411892  1
  Zn  Zn2_1  1  0.13924844  0.25019764  0.58411892  1
  Zn  Zn2_2  1  0.13924844  0.75019763  0.08411892  1
  Zn  Zn2_3  1  0.13924844  0.75019764  0.58411892  1
  Zn  Zn2_4  1  0.63924844  0.25019764  0.08411892  1
  Zn  Zn2_5  1  0.63924844  0.25019764  0.58411892  1
  Zn  Zn2_6  1  0.63924844  0.75019763  0.08411892  1
  Zn  Zn2_7  1  0.63924844  0.75019764  0.58411892  1
  Zn  Zn3_0  1  0.13916988  0.99998866  0.33268591  1
  Zn  Zn3_1  1  0.13916987  0.99998866  0.83268591  1
  Zn  Zn3_2  1  0.13916987  0.49998865  0.33268591  1
  Zn  Zn3_3  1  0.13916987  0.49998866  0.83268591  1
  Zn  Zn3_4  1  0.63916988  0.99998866  0.33268591  1
  Zn  Zn3_5  1  0.63916987  0.99998866  0.83268591  1
  Zn  Zn3_6  1  0.63916988  0.49998865  0.33268591  1
  Zn  Zn3_7  1  0.63916988  0.49998865  0.83268591  1
  Zn  Zn4_0  1  0.39146987  0.32539396  0.00712089  1
  Zn  Zn4_1  1  0.39146987  0.32539397  0.50712089  1
  Zn  Zn4_2  1  0.39146987  0.82539396  0.00712089  1
  Zn  Zn4_3  1  0.39146987  0.82539397  0.50712089  1
  Zn  Zn4_4  1  0.89146987  0.32539397  0.00712089  1
  Zn  Zn4_5  1  0.89146987  0.32539397  0.50712089  1
  Zn  Zn4_6  1  0.89146987  0.82539396  0.00712089  1
  Zn  Zn4_7  1  0.89146987  0.82539397  0.50712089  1
  Zn  Zn5_0  1  0.38725172  0.07592525  0.25672688  1
  Zn  Zn5_1  1  0.38725171  0.07592525  0.75672688  1
  Zn  Zn5_2  1  0.38725171  0.57592525  0.25672688  1
  Zn  Zn5_3  1  0.38725171  0.57592525  0.75672688  1
  Zn  Zn5_4  1  0.88725171  0.07592525  0.25672688  1
  Zn  Zn5_5  1  0.88725172  0.07592525  0.75672688  1
  Zn  Zn5_6  1  0.88725171  0.57592525  0.25672688  1
  Zn  Zn5_7  1  0.88725171  0.57592525  0.75672688  1
  Zn  Zn6_0  1  0.38723887  0.32579369  0.15989380  1
  Zn  Zn6_1  1  0.38723887  0.32579369  0.65989381  1
  Zn  Zn6_2  1  0.38723887  0.82579369  0.15989380  1
  Zn  Zn6_3  1  0.38723887  0.82579369  0.65989380  1
  Zn  Zn6_4  1  0.88723887  0.32579369  0.15989380  1
  Zn  Zn6_5  1  0.88723887  0.32579369  0.65989381  1
  Zn  Zn6_6  1  0.88723887  0.82579369  0.15989380  1
  Zn  Zn6_7  1  0.88723887  0.82579369  0.65989381  1
  Zn  Zn7_0  1  0.39132610  0.00070321  0.00050238  1
  Zn  Zn7_1  1  0.39132610  0.00070321  0.50050238  1
  Zn  Zn7_2  1  0.39132610  0.50070321  0.00050238  1
  Zn  Zn7_3  1  0.39132610  0.50070321  0.50050238  1
  Zn  Zn7_4  1  0.89132610  0.00070321  0.00050238  1
  Zn  Zn7_5  1  0.89132610  0.00070321  0.50050237  1
  Zn  Zn7_6  1  0.89132610  0.50070321  0.00050238  1
  Zn  Zn7_7  1  0.89132611  0.50070321  0.50050237  1
  Zn  Zn8_0  1  0.38531016  0.25236340  0.25002267  1
  Zn  Zn8_1  1  0.38531016  0.25236340  0.75002267  1
  Zn  Zn8_2  1  0.38531016  0.75236340  0.25002267  1
  Zn  Zn8_3  1  0.38531016  0.75236340  0.75002267  1
  Zn  Zn8_4  1  0.88531016  0.25236340  0.25002267  1
  Zn  Zn8_5  1  0.88531016  0.25236340  0.75002267  1
  Zn  Zn8_6  1  0.88531016  0.75236340  0.25002267  1
  Zn  Zn8_7  1  0.88531016  0.75236340  0.75002267  1
  Ag  Ag0_0  1  0.38996025  0.07475846  0.40952548  1
  Ag  Ag0_1  1  0.38996025  0.07475846  0.90952548  1
  Ag  Ag0_2  1  0.38996025  0.57475845  0.40952548  1
  Ag  Ag0_3  1  0.38996025  0.57475845  0.90952548  1
  Ag  Ag0_4  1  0.88996025  0.07475846  0.40952548  1
  Ag  Ag0_5  1  0.88996025  0.07475845  0.90952548  1
  Ag  Ag0_6  1  0.88996024  0.57475846  0.40952548  1
  Ag  Ag0_7  1  0.88996025  0.57475845  0.90952548  1
  Ag  Ag1_0  1  0.38945441  0.09763426  0.08383957  1
  Ag  Ag1_1  1  0.38945440  0.09763426  0.58383958  1
  Ag  Ag1_2  1  0.38945441  0.59763426  0.08383957  1
  Ag  Ag1_3  1  0.38945441  0.59763426  0.58383958  1
  Ag  Ag1_4  1  0.88945441  0.09763426  0.08383957  1
  Ag  Ag1_5  1  0.88945441  0.09763426  0.58383958  1
  Ag  Ag1_6  1  0.88945441  0.59763426  0.08383957  1
  Ag  Ag1_7  1  0.88945441  0.59763426  0.58383957  1
  Ag  Ag2_0  1  0.38911054  0.34860816  0.33331338  1
  Ag  Ag2_1  1  0.38911054  0.34860817  0.83331338  1
  Ag  Ag2_2  1  0.38911054  0.84860816  0.33331338  1
  Ag  Ag2_3  1  0.38911054  0.84860816  0.83331338  1
  Ag  Ag2_4  1  0.88911054  0.34860816  0.33331338  1
  Ag  Ag2_5  1  0.88911054  0.34860816  0.83331338  1
  Ag  Ag2_6  1  0.88911054  0.84860817  0.33331338  1
  Ag  Ag2_7  1  0.88911054  0.84860816  0.83331337  1
  Ag  Ag3_0  1  0.13618188  0.41197704  0.24028183  1
  Ag  Ag3_1  1  0.13618188  0.41197704  0.74028183  1
  Ag  Ag3_2  1  0.13618188  0.91197704  0.24028183  1
  Ag  Ag3_3  1  0.13618188  0.91197704  0.74028184  1
  Ag  Ag3_4  1  0.63618188  0.41197704  0.24028183  1
  Ag  Ag3_5  1  0.63618188  0.41197704  0.74028183  1
  Ag  Ag3_6  1  0.63618188  0.91197704  0.24028183  1
  Ag  Ag3_7  1  0.63618188  0.91197704  0.74028183  1
  Ag  Ag4_0  1  0.14095104  0.16430943  0.49313160  1
  Ag  Ag4_1  1  0.14095104  0.16430942  0.99313160  1
  Ag  Ag4_2  1  0.14095104  0.66430942  0.49313160  1
  Ag  Ag4_3  1  0.14095104  0.66430943  0.99313160  1
  Ag  Ag4_4  1  0.64095104  0.16430943  0.49313160  1
  Ag  Ag4_5  1  0.64095104  0.16430943  0.99313160  1
  Ag  Ag4_6  1  0.64095104  0.66430942  0.49313160  1
  Ag  Ag4_7  1  0.64095104  0.66430942  0.99313160  1
  Ag  Ag5_0  1  0.13908665  0.42651858  0.08345767  1
  Ag  Ag5_1  1  0.13908665  0.42651859  0.58345766  1
  Ag  Ag5_2  1  0.13908665  0.92651858  0.08345767  1
  Ag  Ag5_3  1  0.13908665  0.92651858  0.58345766  1
  Ag  Ag5_4  1  0.63908665  0.42651859  0.08345767  1
  Ag  Ag5_5  1  0.63908665  0.42651858  0.58345766  1
  Ag  Ag5_6  1  0.63908665  0.92651858  0.08345767  1
  Ag  Ag5_7  1  0.63908665  0.92651859  0.58345766  1
  Ag  Ag6_0  1  0.13836460  0.17836788  0.33052745  1
  Ag  Ag6_1  1  0.13836460  0.17836787  0.83052745  1
  Ag  Ag6_2  1  0.13836460  0.67836787  0.33052745  1
  Ag  Ag6_3  1  0.13836460  0.67836787  0.83052745  1
  Ag  Ag6_4  1  0.63836460  0.17836788  0.33052745  1
  Ag  Ag6_5  1  0.63836459  0.17836788  0.83052744  1
  Ag  Ag6_6  1  0.63836460  0.67836787  0.33052745  1
  Ag  Ag6_7  1  0.63836459  0.67836787  0.83052745  1
  Ag  Ag7_0  1  0.13646052  0.16124188  0.17632730  1
  Ag  Ag7_1  1  0.13646052  0.16124188  0.67632730  1
  Ag  Ag7_2  1  0.13646052  0.66124188  0.17632730  1
  Ag  Ag7_3  1  0.13646052  0.66124188  0.67632730  1
  Ag  Ag7_4  1  0.63646052  0.16124188  0.17632730  1
  Ag  Ag7_5  1  0.63646052  0.16124188  0.67632730  1
  Ag  Ag7_6  1  0.63646052  0.66124188  0.17632730  1
  Ag  Ag7_7  1  0.63646052  0.66124188  0.67632730  1
  Ag  Ag8_0  1  0.14090242  0.40630872  0.42691615  1
  Ag  Ag8_1  1  0.14090242  0.40630872  0.92691615  1
  Ag  Ag8_2  1  0.14090242  0.90630872  0.42691615  1
  Ag  Ag8_3  1  0.14090242  0.90630872  0.92691615  1
  Ag  Ag8_4  1  0.64090241  0.40630872  0.42691615  1
  Ag  Ag8_5  1  0.64090242  0.40630872  0.92691615  1
  Ag  Ag8_6  1  0.64090242  0.90630872  0.42691615  1
  Ag  Ag8_7  1  0.64090242  0.90630872  0.92691615  1
loop_
_geom_bond_atom_site_label_1
_geom_bond_atom_site_label_2
_geom_bond_distance
_geom_bond_site_symmetry_2
Zn0_0 Zn5_0 2.639573 1_555
Zn0_0 Zn6_2 2.659583 1_545
Zn0_0 Zn0_4 2.820587 1_455
Zn0_0 Zn0_4 2.820587 1_555
Zn0_1 Zn5_1 2.639573 1_555
Zn0_1 Zn6_3 2.659583 1_545
Zn0_1 Zn0_5 2.820587 1_455
Zn0_1 Zn0_5 2.820587 1_555
Zn0_2 Zn5_2 2.639573 1_555
Zn0_2 Zn6_0 2.659583 1_555
Zn0_2 Zn0_6 2.820587 1_455
Zn0_2 Zn0_6 2.820587 1_555
Zn0_3 Zn5_3 2.639573 1_555
Zn0_3 Zn6_1 2.659583 1_555
Zn0_3 Zn0_7 2.820587 1_455
Zn0_3 Zn0_7 2.820587 1_555
Zn0_4 Zn5_4 2.639573 1_555
Zn0_4 Zn6_6 2.659583 1_545
Zn0_5 Zn5_5 2.639573 1_555
Zn0_5 Zn6_7 2.659583 1_545
Zn0_6 Zn5_6 2.639573 1_555
Zn0_6 Zn6_4 2.659583 1_555
Zn0_7 Zn5_7 2.639573 1_555
Zn0_7 Zn6_5 2.659583 1_555
Zn1_0 Zn4_1 2.667043 1_555
Zn1_0 Zn1_4 2.820587 1_455
Zn1_0 Zn1_4 2.820587 1_555
Zn1_1 Zn4_0 2.667043 1_556
Zn1_1 Zn1_5 2.820587 1_555
Zn1_1 Zn1_5 2.820587 1_455
Zn1_2 Zn4_3 2.667043 1_555
Zn1_2 Zn1_6 2.820587 1_555
Zn1_2 Zn1_6 2.820587 1_455
Zn1_3 Zn4_2 2.667043 1_556
Zn1_3 Zn1_7 2.820587 1_555
Zn1_3 Zn1_7 2.820587 1_455
Zn1_4 Zn4_5 2.667043 1_555
Zn1_5 Zn4_4 2.667043 1_556
Zn1_6 Zn4_7 2.667043 1_555
Zn1_7 Zn4_6 2.667043 1_556
Zn2_0 Zn6_0 2.688506 1_555
Zn2_0 Zn6_4 2.699290 1_455
Zn2_0 Zn4_4 2.716480 1_455
Zn2_0 Zn4_0 2.728992 1_555
Zn2_0 Zn2_4 2.820587 1_455
Zn2_0 Zn2_4 2.820587 1_555
Zn2_1 Zn6_1 2.688506 1_555
Zn2_1 Zn6_5 2.699290 1_455
Zn2_1 Zn4_5 2.716480 1_455
Zn2_1 Zn4_1 2.728992 1_555
Zn2_1 Zn2_5 2.820587 1_455
Zn2_1 Zn2_5 2.820587 1_555
Zn2_2 Zn6_2 2.688506 1_555
Zn2_2 Zn6_6 2.699290 1_455
Zn2_2 Zn4_6 2.716480 1_455
Zn2_2 Zn4_2 2.728992 1_555
Zn2_2 Zn2_6 2.820587 1_455
Zn2_2 Zn2_6 2.820587 1_555
Zn2_3 Zn6_3 2.688506 1_555
Zn2_3 Zn6_7 2.699290 1_455
Zn2_3 Zn4_7 2.716480 1_455
Zn2_3 Zn4_3 2.728992 1_555
Zn2_3 Zn2_7 2.820587 1_455
Zn2_3 Zn2_7 2.820587 1_555
Zn2_4 Zn6_4 2.688506 1_555
Zn2_4 Zn6_0 2.699290 1_555
Zn2_4 Zn4_0 2.716480 1_555
Zn2_4 Zn4_4 2.728992 1_555
Zn2_5 Zn6_5 2.688506 1_555
Zn2_5 Zn6_1 2.699290 1_555
Zn2_5 Zn4_1 2.716480 1_555
Zn2_5 Zn4_5 2.728992 1_555
Zn2_6 Zn6_6 2.688506 1_555
Zn2_6 Zn6_2 2.699290 1_555
Zn2_6 Zn4_2 2.716480 1_555
Zn2_6 Zn4_6 2.728992 1_555
Zn2_7 Zn6_7 2.688506 1_555
Zn2_7 Zn6_3 2.699290 1_555
Zn2_7 Zn4_3 2.716480 1_555
Zn2_7 Zn4_7 2.728992 1_555
Zn3_0 Zn5_0 2.701339 1_565
Zn3_0 Zn5_4 2.713072 1_465
Zn3_0 Zn3_4 2.820587 1_455
Zn3_0 Zn3_4 2.820587 1_555
Zn3_1 Zn5_1 2.701339 1_565
Zn3_1 Zn5_5 2.713072 1_465
Zn3_1 Zn3_5 2.820587 1_455
Zn3_1 Zn3_5 2.820587 1_555
Zn3_2 Zn5_2 2.701339 1_555
Zn3_2 Zn5_6 2.713072 1_455
Zn3_2 Zn3_6 2.820587 1_455
Zn3_2 Zn3_6 2.820587 1_555
Zn3_3 Zn5_3 2.701339 1_555
Zn3_3 Zn5_7 2.713072 1_455
Zn3_3 Zn3_7 2.820587 1_455
Zn3_3 Zn3_7 2.820587 1_555
Zn3_4 Zn5_4 2.701339 1_565
Zn3_4 Zn5_0 2.713072 1_565
Zn3_5 Zn5_5 2.701339 1_565
Zn3_5 Zn5_1 2.713072 1_565
Zn3_6 Zn5_6 2.701339 1_555
Zn3_6 Zn5_2 2.713072 1_555
Zn3_7 Zn5_7 2.701339 1_555
Zn3_7 Zn5_3 2.713072 1_555
Zn4_0 Zn7_2 2.665586 1_555
Zn4_0 Zn4_4 2.820587 1_455
Zn4_0 Zn4_4 2.820587 1_555
Zn4_1 Zn7_3 2.665586 1_555
Zn4_1 Zn4_5 2.820587 1_555
Zn4_1 Zn4_5 2.820587 1_455
Zn4_2 Zn7_0 2.665586 1_565
Zn4_2 Zn4_6 2.820587 1_555
Zn4_2 Zn4_6 2.820587 1_455
Zn4_3 Zn7_1 2.665586 1_565
Zn4_3 Zn4_7 2.820587 1_455
Zn4_3 Zn4_7 2.820587 1_555
Zn4_4 Zn7_6 2.665586 1_555
Zn4_5 Zn7_7 2.665586 1_555
Zn4_6 Zn7_4 2.665586 1_565
Zn4_7 Zn7_5 2.665586 1_565
Zn5_0 Zn8_0 2.682850 1_555
Zn5_0 Zn5_4 2.820587 1_555
Zn5_0 Zn5_4 2.820587 1_455
Zn5_1 Zn8_1 2.682850 1_555
Zn5_1 Zn5_5 2.820587 1_455
Zn5_1 Zn5_5 2.820587 1_555
Zn5_2 Zn8_2 2.682850 1_555
Zn5_2 Zn5_6 2.820587 1_455
Zn5_2 Zn5_6 2.820587 1_555
Zn5_3 Zn8_3 2.682850 1_555
Zn5_3 Zn5_7 2.820587 1_455
Zn5_3 Zn5_7 2.820587 1_555
Zn5_4 Zn8_4 2.682850 1_555
Zn5_5 Zn8_5 2.682850 1_555
Zn5_6 Zn8_6 2.682850 1_555
Zn5_7 Zn8_7 2.682850 1_555
Zn6_0 Zn8_0 2.624037 1_555
Zn6_0 Zn6_4 2.820587 1_455
Zn6_0 Zn6_4 2.820587 1_555
Zn6_1 Zn8_1 2.624037 1_555
Zn6_1 Zn6_5 2.820587 1_555
Zn6_1 Zn6_5 2.820587 1_455
Zn6_2 Zn8_2 2.624037 1_555
Zn6_2 Zn6_6 2.820587 1_455
Zn6_2 Zn6_6 2.820587 1_555
Zn6_3 Zn8_3 2.624037 1_555
Zn6_3 Zn6_7 2.820587 1_455
Zn6_3 Zn6_7 2.820587 1_555
Zn6_4 Zn8_4 2.624037 1_555
Zn6_5 Zn8_5 2.624037 1_555
Zn6_6 Zn8_6 2.624037 1_555
Zn6_7 Zn8_7 2.624037 1_555
Zn7_0 Zn7_4 2.820587 1_555
Zn7_0 Zn7_4 2.820587 1_455
Zn7_1 Zn7_5 2.820587 1_555
Zn7_1 Zn7_5 2.820587 1_455
Zn7_2 Zn7_6 2.820587 1_455
Zn7_2 Zn7_6 2.820587 1_555
Zn7_3 Zn7_7 2.820587 1_455
Zn7_3 Zn7_7 2.820587 1_555
Zn8_0 Zn8_4 2.820587 1_555
Zn8_0 Zn8_4 2.820587 1_455
Zn8_1 Zn8_5 2.820587 1_555
Zn8_1 Zn8_5 2.820587 1_455
Zn8_2 Zn8_6 2.820587 1_455
Zn8_2 Zn8_6 2.820587 1_555
Zn8_3 Zn8_7 2.820587 1_455
Zn8_3 Zn8_7 2.820587 1_555
Ag0_0 Zn1_0 2.647867 1_555
Ag0_0 Zn7_1 2.648291 1_555
Ag0_0 Zn3_4 2.706533 1_545
Ag0_0 Zn3_0 2.712261 1_545
Ag0_0 Ag4_0 2.936965 1_555
Ag0_0 Ag4_4 2.943447 1_555
Ag0_0 Ag8_2 2.953544 1_545
Ag0_0 Ag8_6 2.958144 1_545
Ag0_0 Ag6_4 2.963125 1_555
Ag0_0 Ag6_0 2.972024 1_555
Ag0_1 Zn1_1 2.647867 1_555
Ag0_1 Zn7_0 2.648291 1_556
Ag0_1 Zn3_5 2.706533 1_545
Ag0_1 Zn3_1 2.712261 1_545
Ag0_1 Ag4_1 2.936965 1_555
Ag0_1 Ag4_5 2.943447 1_555
Ag0_1 Ag8_3 2.953544 1_545
Ag0_1 Ag8_7 2.958144 1_545
Ag0_1 Ag6_5 2.963125 1_555
Ag0_1 Ag6_1 2.972024 1_555
Ag0_2 Zn1_2 2.647867 1_555
Ag0_2 Zn7_3 2.648291 1_555
Ag0_2 Zn3_6 2.706533 1_555
Ag0_2 Zn3_2 2.712261 1_555
Ag0_2 Ag4_2 2.936965 1_555
Ag0_2 Ag4_6 2.943447 1_555
Ag0_2 Ag8_0 2.953544 1_555
Ag0_2 Ag8_4 2.958144 1_555
Ag0_2 Ag6_6 2.963125 1_555
Ag0_2 Ag6_2 2.972024 1_555
Ag0_3 Zn1_3 2.647867 1_555
Ag0_3 Zn7_2 2.648291 1_556
Ag0_3 Zn3_7 2.706533 1_555
Ag0_3 Zn3_3 2.712261 1_555
Ag0_3 Ag4_3 2.936965 1_555
Ag0_3 Ag4_7 2.943447 1_555
Ag0_3 Ag8_1 2.953544 1_555
Ag0_3 Ag8_5 2.958144 1_555
Ag0_3 Ag6_7 2.963125 1_555
Ag0_3 Ag6_3 2.972024 1_555
Ag0_4 Zn1_4 2.647867 1_555
Ag0_4 Zn7_5 2.648291 1_555
Ag0_4 Zn3_0 2.706533 1_645
Ag0_4 Zn3_4 2.712261 1_545
Ag0_4 Ag4_4 2.936965 1_555
Ag0_4 Ag4_0 2.943447 1_655
Ag0_4 Ag8_6 2.953544 1_545
Ag0_4 Ag8_2 2.958144 1_645
Ag0_4 Ag6_0 2.963125 1_655
Ag0_4 Ag6_4 2.972024 1_555
Ag0_5 Zn1_5 2.647867 1_555
Ag0_5 Zn7_4 2.648291 1_556
Ag0_5 Zn3_1 2.706533 1_645
Ag0_5 Zn3_5 2.712261 1_545
Ag0_5 Ag4_5 2.936965 1_555
Ag0_5 Ag4_1 2.943447 1_655
Ag0_5 Ag8_7 2.953544 1_545
Ag0_5 Ag8_3 2.958144 1_645
Ag0_5 Ag6_1 2.963125 1_655
Ag0_5 Ag6_5 2.972024 1_555
Ag0_6 Zn1_6 2.647867 1_555
Ag0_6 Zn7_7 2.648291 1_555
Ag0_6 Zn3_2 2.706533 1_655
Ag0_6 Zn3_6 2.712261 1_555
Ag0_6 Ag4_6 2.936965 1_555
Ag0_6 Ag4_2 2.943447 1_655
Ag0_6 Ag8_4 2.953544 1_555
Ag0_6 Ag8_0 2.958144 1_655
Ag0_6 Ag6_2 2.963125 1_655
Ag0_6 Ag6_6 2.972024 1_555
Ag0_7 Zn1_7 2.647867 1_555
Ag0_7 Zn7_6 2.648291 1_556
Ag0_7 Zn3_3 2.706533 1_655
Ag0_7 Zn3_7 2.712261 1_555
Ag0_7 Ag4_7 2.936965 1_555
Ag0_7 Ag4_3 2.943447 1_655
Ag0_7 Ag8_5 2.953544 1_555
Ag0_7 Ag8_1 2.958144 1_655
Ag0_7 Ag6_3 2.963125 1_655
Ag0_7 Ag6_7 2.972024 1_555
Ag1_0 Zn0_0 2.618406 1_555
Ag1_0 Zn7_0 2.634277 1_555
Ag1_0 Zn2_4 2.709679 1_555
Ag1_0 Zn2_0 2.710259 1_555
Ag1_0 Ag4_1 2.950441 1_554
Ag1_0 Ag5_6 2.952580 1_545
Ag1_0 Ag5_2 2.955209 1_545
Ag1_0 Ag4_5 2.957909 1_554
Ag1_0 Ag7_4 2.962171 1_555
Ag1_0 Ag7_0 2.977118 1_555
Ag1_1 Zn0_1 2.618406 1_555
Ag1_1 Zn7_1 2.634277 1_555
Ag1_1 Zn2_5 2.709679 1_555
Ag1_1 Zn2_1 2.710259 1_555
Ag1_1 Ag4_0 2.950441 1_555
Ag1_1 Ag5_7 2.952580 1_545
Ag1_1 Ag5_3 2.955209 1_545
Ag1_1 Ag4_4 2.957909 1_555
Ag1_1 Ag7_5 2.962171 1_555
Ag1_1 Ag7_1 2.977118 1_555
Ag1_2 Zn0_2 2.618406 1_555
Ag1_2 Zn7_2 2.634277 1_555
Ag1_2 Zn2_6 2.709679 1_555
Ag1_2 Zn2_2 2.710259 1_555
Ag1_2 Ag4_3 2.950441 1_554
Ag1_2 Ag5_4 2.952580 1_555
Ag1_2 Ag5_0 2.955209 1_555
Ag1_2 Ag4_7 2.957909 1_554
Ag1_2 Ag7_6 2.962171 1_555
Ag1_2 Ag7_2 2.977118 1_555
Ag1_3 Zn0_3 2.618406 1_555
Ag1_3 Zn7_3 2.634277 1_555
Ag1_3 Zn2_7 2.709679 1_555
Ag1_3 Zn2_3 2.710259 1_555
Ag1_3 Ag4_2 2.950441 1_555
Ag1_3 Ag5_5 2.952580 1_555
Ag1_3 Ag5_1 2.955209 1_555
Ag1_3 Ag4_6 2.957909 1_555
Ag1_3 Ag7_7 2.962171 1_555
Ag1_3 Ag7_3 2.977118 1_555
Ag1_4 Zn0_4 2.618406 1_555
Ag1_4 Zn7_4 2.634277 1_555
Ag1_4 Zn2_0 2.709679 1_655
Ag1_4 Zn2_4 2.710259 1_555
Ag1_4 Ag4_5 2.950441 1_554
Ag1_4 Ag5_2 2.952580 1_645
Ag1_4 Ag5_6 2.955209 1_545
Ag1_4 Ag4_1 2.957909 1_654
Ag1_4 Ag7_0 2.962171 1_655
Ag1_4 Ag7_4 2.977118 1_555
Ag1_5 Zn0_5 2.618406 1_555
Ag1_5 Zn7_5 2.634277 1_555
Ag1_5 Zn2_1 2.709679 1_655
Ag1_5 Zn2_5 2.710259 1_555
Ag1_5 Ag4_4 2.950441 1_555
Ag1_5 Ag5_3 2.952580 1_645
Ag1_5 Ag5_7 2.955209 1_545
Ag1_5 Ag4_0 2.957909 1_655
Ag1_5 Ag7_1 2.962171 1_655
Ag1_5 Ag7_5 2.977118 1_555
Ag1_6 Zn0_6 2.618406 1_555
Ag1_6 Zn7_6 2.634277 1_555
Ag1_6 Zn2_2 2.709679 1_655
Ag1_6 Zn2_6 2.710259 1_555
Ag1_6 Ag4_7 2.950441 1_554
Ag1_6 Ag5_0 2.952580 1_655
Ag1_6 Ag5_4 2.955209 1_555
Ag1_6 Ag4_3 2.957909 1_654
Ag1_6 Ag7_2 2.962171 1_655
Ag1_6 Ag7_6 2.977118 1_555
Ag1_7 Zn0_7 2.618406 1_555
Ag1_7 Zn7_7 2.634277 1_555
Ag1_7 Zn2_3 2.709679 1_655
Ag1_7 Zn2_7 2.710259 1_555
Ag1_7 Ag4_6 2.950441 1_555
Ag1_7 Ag5_1 2.952580 1_655
Ag1_7 Ag5_5 2.955209 1_555
Ag1_7 Ag4_2 2.957909 1_655
Ag1_7 Ag7_3 2.962171 1_655
Ag1_7 Ag7_7 2.977118 1_555
Ag2_0 Zn8_0 2.627584 1_555
Ag2_0 Zn1_0 2.644844 1_555
Ag2_0 Zn3_2 2.694310 1_555
Ag2_0 Zn3_6 2.695279 1_555
Ag2_0 Ag6_4 2.940535 1_555
Ag2_0 Ag6_0 2.945238 1_555
Ag2_0 Ag8_0 2.960985 1_555
Ag2_0 Ag8_4 2.971680 1_555
Ag2_0 Ag3_4 2.979082 1_555
Ag2_0 Ag3_0 2.995302 1_555
Ag2_1 Zn8_1 2.627584 1_555
Ag2_1 Zn1_1 2.644844 1_555
Ag2_1 Zn3_3 2.694310 1_555
Ag2_1 Zn3_7 2.695279 1_555
Ag2_1 Ag6_5 2.940535 1_555
Ag2_1 Ag6_1 2.945238 1_555
Ag2_1 Ag8_1 2.960985 1_555
Ag2_1 Ag8_5 2.971680 1_555
Ag2_1 Ag3_5 2.979082 1_555
Ag2_1 Ag3_1 2.995302 1_555
Ag2_2 Zn8_2 2.627584 1_555
Ag2_2 Zn1_2 2.644844 1_555
Ag2_2 Zn3_0 2.694310 1_555
Ag2_2 Zn3_4 2.695279 1_555
Ag2_2 Ag6_6 2.940535 1_555
Ag2_2 Ag6_2 2.945238 1_555
Ag2_2 Ag8_2 2.960985 1_555
Ag2_2 Ag8_6 2.971680 1_555
Ag2_2 Ag3_6 2.979082 1_555
Ag2_2 Ag3_2 2.995302 1_555
Ag2_3 Zn8_3 2.627584 1_555
Ag2_3 Zn1_3 2.644844 1_555
Ag2_3 Zn3_1 2.694310 1_555
Ag2_3 Zn3_5 2.695279 1_555
Ag2_3 Ag6_7 2.940535 1_555
Ag2_3 Ag6_3 2.945238 1_555
Ag2_3 Ag8_3 2.960985 1_555
Ag2_3 Ag8_7 2.971680 1_555
Ag2_3 Ag3_7 2.979082 1_555
Ag2_3 Ag3_3 2.995302 1_555
Ag2_4 Zn8_4 2.627584 1_555
Ag2_4 Zn1_4 2.644844 1_555
Ag2_4 Zn3_6 2.694310 1_555
Ag2_4 Zn3_2 2.695279 1_655
Ag2_4 Ag6_0 2.940535 1_655
Ag2_4 Ag6_4 2.945238 1_555
Ag2_4 Ag8_4 2.960985 1_555
Ag2_4 Ag8_0 2.971680 1_655
Ag2_4 Ag3_0 2.979082 1_655
Ag2_4 Ag3_4 2.995302 1_555
Ag2_5 Zn8_5 2.627584 1_555
Ag2_5 Zn1_5 2.644844 1_555
Ag2_5 Zn3_7 2.694310 1_555
Ag2_5 Zn3_3 2.695279 1_655
Ag2_5 Ag6_1 2.940535 1_655
Ag2_5 Ag6_5 2.945238 1_555
Ag2_5 Ag8_5 2.960985 1_555
Ag2_5 Ag8_1 2.971680 1_655
Ag2_5 Ag3_1 2.979082 1_655
Ag2_5 Ag3_5 2.995302 1_555
Ag2_6 Zn8_6 2.627584 1_555
Ag2_6 Zn1_6 2.644844 1_555
Ag2_6 Zn3_4 2.694310 1_555
Ag2_6 Zn3_0 2.695279 1_655
Ag2_6 Ag6_2 2.940535 1_655
Ag2_6 Ag6_6 2.945238 1_555
Ag2_6 Ag8_6 2.960985 1_555
Ag2_6 Ag8_2 2.971680 1_655
Ag2_6 Ag3_2 2.979082 1_655
Ag2_6 Ag3_6 2.995302 1_555
Ag2_7 Zn8_7 2.627584 1_555
Ag2_7 Zn1_7 2.644844 1_555
Ag2_7 Zn3_5 2.694310 1_555
Ag2_7 Zn3_1 2.695279 1_655
Ag2_7 Ag6_3 2.940535 1_655
Ag2_7 Ag6_7 2.945238 1_555
Ag2_7 Ag8_7 2.960985 1_555
Ag2_7 Ag8_3 2.971680 1_655
Ag2_7 Ag3_3 2.979082 1_655
Ag2_7 Ag3_7 2.995302 1_555
Ag3_0 Zn0_2 2.764305 1_555
Ag3_0 Zn0_6 2.766372 1_455
Ag3_0 Zn3_2 2.768147 1_555
Ag3_0 Zn8_0 2.811799 1_555
Ag3_0 Zn8_4 2.817263 1_455
Ag3_0 Ag3_4 2.820587 1_455
Ag3_0 Ag3_4 2.820587 1_555
Ag3_0 Zn6_4 2.851622 1_455
Ag3_0 Zn6_0 2.856405 1_555
Ag3_0 Zn5_6 2.886425 1_455
Ag3_0 Zn5_2 2.893103 1_555
Ag3_1 Zn0_3 2.764305 1_555
Ag3_1 Zn0_7 2.766372 1_455
Ag3_1 Zn3_3 2.768147 1_555
Ag3_1 Zn8_1 2.811799 1_555
Ag3_1 Zn8_5 2.817263 1_455
Ag3_1 Ag3_5 2.820587 1_555
Ag3_1 Ag3_5 2.820587 1_455
Ag3_1 Zn6_5 2.851622 1_455
Ag3_1 Zn6_1 2.856405 1_555
Ag3_1 Zn5_7 2.886425 1_455
Ag3_1 Zn5_3 2.893103 1_555
Ag3_2 Zn0_0 2.764305 1_565
Ag3_2 Zn0_4 2.766372 1_465
Ag3_2 Zn3_0 2.768147 1_555
Ag3_2 Zn8_2 2.811799 1_555
Ag3_2 Zn8_6 2.817263 1_455
Ag3_2 Ag3_6 2.820587 1_555
Ag3_2 Ag3_6 2.820587 1_455
Ag3_2 Zn6_6 2.851622 1_455
Ag3_2 Zn6_2 2.856405 1_555
Ag3_2 Zn5_4 2.886425 1_465
Ag3_2 Zn5_0 2.893103 1_565
Ag3_3 Zn0_1 2.764305 1_565
Ag3_3 Zn0_5 2.766372 1_465
Ag3_3 Zn3_1 2.768147 1_555
Ag3_3 Zn8_3 2.811799 1_555
Ag3_3 Zn8_7 2.817263 1_455
Ag3_3 Ag3_7 2.820587 1_455
Ag3_3 Ag3_7 2.820587 1_555
Ag3_3 Zn6_7 2.851622 1_455
Ag3_3 Zn6_3 2.856405 1_555
Ag3_3 Zn5_5 2.886425 1_465
Ag3_3 Zn5_1 2.893103 1_565
Ag3_4 Zn0_6 2.764305 1_555
Ag3_4 Zn0_2 2.766372 1_555
Ag3_4 Zn3_6 2.768147 1_555
Ag3_4 Zn8_4 2.811799 1_555
Ag3_4 Zn8_0 2.817263 1_555
Ag3_4 Zn6_0 2.851622 1_555
Ag3_4 Zn6_4 2.856405 1_555
Ag3_4 Zn5_2 2.886425 1_555
Ag3_4 Zn5_6 2.893103 1_555
Ag3_5 Zn0_7 2.764305 1_555
Ag3_5 Zn0_3 2.766372 1_555
Ag3_5 Zn3_7 2.768147 1_555
Ag3_5 Zn8_5 2.811799 1_555
Ag3_5 Zn8_1 2.817263 1_555
Ag3_5 Zn6_1 2.851622 1_555
Ag3_5 Zn6_5 2.856405 1_555
Ag3_5 Zn5_3 2.886425 1_555
Ag3_5 Zn5_7 2.893103 1_555
Ag3_6 Zn0_4 2.764305 1_565
Ag3_6 Zn0_0 2.766372 1_565
Ag3_6 Zn3_4 2.768147 1_555
Ag3_6 Zn8_6 2.811799 1_555
Ag3_6 Zn8_2 2.817263 1_555
Ag3_6 Zn6_2 2.851622 1_555
Ag3_6 Zn6_6 2.856405 1_555
Ag3_6 Zn5_0 2.886425 1_565
Ag3_6 Zn5_4 2.893103 1_565
Ag3_7 Zn0_5 2.764305 1_565
Ag3_7 Zn0_1 2.766372 1_565
Ag3_7 Zn3_5 2.768147 1_555
Ag3_7 Zn8_7 2.811799 1_555
Ag3_7 Zn8_3 2.817263 1_555
Ag3_7 Zn6_3 2.851622 1_555
Ag3_7 Zn6_7 2.856405 1_555
Ag3_7 Zn5_1 2.886425 1_565
Ag3_7 Zn5_5 2.893103 1_565
Ag4_0 Zn2_1 2.720063 1_555
Ag4_0 Zn1_4 2.792713 1_455
Ag4_0 Zn1_0 2.801804 1_555
Ag4_0 Ag4_4 2.820587 1_555
Ag4_0 Ag4_4 2.820587 1_455
Ag4_0 Zn4_5 2.841826 1_455
Ag4_0 Zn4_1 2.845495 1_555
Ag4_0 Zn7_5 2.860913 1_455
Ag4_0 Zn7_1 2.862433 1_555
Ag4_1 Zn2_0 2.720063 1_556
Ag4_1 Zn1_5 2.792713 1_455
Ag4_1 Zn1_1 2.801804 1_555
Ag4_1 Ag4_5 2.820587 1_555
Ag4_1 Ag4_5 2.820587 1_455
Ag4_1 Zn4_4 2.841826 1_456
Ag4_1 Zn4_0 2.845495 1_556
Ag4_1 Zn7_4 2.860913 1_456
Ag4_1 Zn7_0 2.862433 1_556
Ag4_2 Zn2_3 2.720063 1_555
Ag4_2 Zn1_6 2.792713 1_455
Ag4_2 Zn1_2 2.801804 1_555
Ag4_2 Ag4_6 2.820587 1_455
Ag4_2 Ag4_6 2.820587 1_555
Ag4_2 Zn4_7 2.841826 1_455
Ag4_2 Zn4_3 2.845495 1_555
Ag4_2 Zn7_7 2.860913 1_455
Ag4_2 Zn7_3 2.862433 1_555
Ag4_3 Zn2_2 2.720063 1_556
Ag4_3 Zn1_7 2.792713 1_455
Ag4_3 Zn1_3 2.801804 1_555
Ag4_3 Ag4_7 2.820587 1_555
Ag4_3 Ag4_7 2.820587 1_455
Ag4_3 Zn4_6 2.841826 1_456
Ag4_3 Zn4_2 2.845495 1_556
Ag4_3 Zn7_6 2.860913 1_456
Ag4_3 Zn7_2 2.862433 1_556
Ag4_4 Zn2_5 2.720063 1_555
Ag4_4 Zn1_0 2.792713 1_555
Ag4_4 Zn1_4 2.801804 1_555
Ag4_4 Zn4_1 2.841826 1_555
Ag4_4 Zn4_5 2.845495 1_555
Ag4_4 Zn7_1 2.860913 1_555
Ag4_4 Zn7_5 2.862433 1_555
Ag4_5 Zn2_4 2.720063 1_556
Ag4_5 Zn1_1 2.792713 1_555
Ag4_5 Zn1_5 2.801804 1_555
Ag4_5 Zn4_0 2.841826 1_556
Ag4_5 Zn4_4 2.845495 1_556
Ag4_5 Zn7_0 2.860913 1_556
Ag4_5 Zn7_4 2.862433 1_556
Ag4_6 Zn2_7 2.720063 1_555
Ag4_6 Zn1_2 2.792713 1_555
Ag4_6 Zn1_6 2.801804 1_555
Ag4_6 Zn4_3 2.841826 1_555
Ag4_6 Zn4_7 2.845495 1_555
Ag4_6 Zn7_3 2.860913 1_555
Ag4_6 Zn7_7 2.862433 1_555
Ag4_7 Zn2_6 2.720063 1_556
Ag4_7 Zn1_3 2.792713 1_555
Ag4_7 Zn1_7 2.801804 1_555
Ag4_7 Zn4_2 2.841826 1_556
Ag4_7 Zn4_6 2.845495 1_556
Ag4_7 Zn7_2 2.860913 1_556
Ag4_7 Zn7_6 2.862433 1_556
Ag5_0 Zn2_0 2.674602 1_555
Ag5_0 Zn0_2 2.812030 1_555
Ag5_0 Ag5_4 2.820587 1_455
Ag5_0 Ag5_4 2.820587 1_555
Ag5_0 Zn0_6 2.828973 1_455
Ag5_0 Zn7_6 2.829327 1_455
Ag5_0 Zn7_2 2.841381 1_555
Ag5_0 Zn4_4 2.883146 1_455
Ag5_0 Zn6_0 2.892269 1_555
Ag5_0 Zn4_0 2.895155 1_555
Ag5_0 Zn6_4 2.902078 1_455
Ag5_1 Zn2_1 2.674602 1_555
Ag5_1 Zn0_3 2.812030 1_555
Ag5_1 Ag5_5 2.820587 1_555
Ag5_1 Ag5_5 2.820587 1_455
Ag5_1 Zn0_7 2.828973 1_455
Ag5_1 Zn7_7 2.829327 1_455
Ag5_1 Zn7_3 2.841381 1_555
Ag5_1 Zn4_5 2.883146 1_455
Ag5_1 Zn6_1 2.892269 1_555
Ag5_1 Zn4_1 2.895155 1_555
Ag5_1 Zn6_5 2.902078 1_455
Ag5_2 Zn2_2 2.674602 1_555
Ag5_2 Zn0_0 2.812030 1_565
Ag5_2 Ag5_6 2.820587 1_555
Ag5_2 Ag5_6 2.820587 1_455
Ag5_2 Zn0_4 2.828973 1_465
Ag5_2 Zn7_4 2.829327 1_465
Ag5_2 Zn7_0 2.841381 1_565
Ag5_2 Zn4_6 2.883146 1_455
Ag5_2 Zn6_2 2.892269 1_555
Ag5_2 Zn4_2 2.895155 1_555
Ag5_2 Zn6_6 2.902078 1_455
Ag5_3 Zn2_3 2.674602 1_555
Ag5_3 Zn0_1 2.812030 1_565
Ag5_3 Ag5_7 2.820587 1_455
Ag5_3 Ag5_7 2.820587 1_555
Ag5_3 Zn0_5 2.828973 1_465
Ag5_3 Zn7_5 2.829327 1_465
Ag5_3 Zn7_1 2.841381 1_565
Ag5_3 Zn4_7 2.883146 1_455
Ag5_3 Zn6_3 2.892269 1_555
Ag5_3 Zn4_3 2.895155 1_555
Ag5_3 Zn6_7 2.902078 1_455
Ag5_4 Zn2_4 2.674602 1_555
Ag5_4 Zn0_6 2.812030 1_555
Ag5_4 Zn0_2 2.828973 1_555
Ag5_4 Zn7_2 2.829327 1_555
Ag5_4 Zn7_6 2.841381 1_555
Ag5_4 Zn4_0 2.883146 1_555
Ag5_4 Zn6_4 2.892269 1_555
Ag5_4 Zn4_4 2.895155 1_555
Ag5_4 Zn6_0 2.902078 1_555
Ag5_5 Zn2_5 2.674602 1_555
Ag5_5 Zn0_7 2.812030 1_555
Ag5_5 Zn0_3 2.828973 1_555
Ag5_5 Zn7_3 2.829327 1_555
Ag5_5 Zn7_7 2.841381 1_555
Ag5_5 Zn4_1 2.883146 1_555
Ag5_5 Zn6_5 2.892269 1_555
Ag5_5 Zn4_5 2.895155 1_555
Ag5_5 Zn6_1 2.902078 1_555
Ag5_6 Zn2_6 2.674602 1_555
Ag5_6 Zn0_4 2.812030 1_565
Ag5_6 Zn0_0 2.828973 1_565
Ag5_6 Zn7_0 2.829327 1_565
Ag5_6 Zn7_4 2.841381 1_565
Ag5_6 Zn4_2 2.883146 1_555
Ag5_6 Zn6_6 2.892269 1_555
Ag5_6 Zn4_6 2.895155 1_555
Ag5_6 Zn6_2 2.902078 1_555
Ag5_7 Zn2_7 2.674602 1_555
Ag5_7 Zn0_5 2.812030 1_565
Ag5_7 Zn0_1 2.828973 1_565
Ag5_7 Zn7_1 2.829327 1_565
Ag5_7 Zn7_5 2.841381 1_565
Ag5_7 Zn4_3 2.883146 1_555
Ag5_7 Zn6_7 2.892269 1_555
Ag5_7 Zn4_7 2.895155 1_555
Ag5_7 Zn6_3 2.902078 1_555
Ag6_0 Zn3_0 2.706538 1_545
Ag6_0 Zn8_0 2.775807 1_555
Ag6_0 Zn8_4 2.793758 1_455
Ag6_0 Ag6_4 2.820587 1_455
Ag6_0 Ag6_4 2.820587 1_555
Ag6_0 Zn1_4 2.838128 1_455
Ag6_0 Zn5_0 2.850445 1_555
Ag6_0 Zn5_4 2.857759 1_455
Ag6_0 Zn1_0 2.862999 1_555
Ag6_1 Zn3_1 2.706538 1_545
Ag6_1 Zn8_1 2.775807 1_555
Ag6_1 Zn8_5 2.793758 1_455
Ag6_1 Ag6_5 2.820587 1_455
Ag6_1 Ag6_5 2.820587 1_555
Ag6_1 Zn1_5 2.838128 1_455
Ag6_1 Zn5_1 2.850445 1_555
Ag6_1 Zn5_5 2.857759 1_455
Ag6_1 Zn1_1 2.862999 1_555
Ag6_2 Zn3_2 2.706538 1_555
Ag6_2 Zn8_2 2.775807 1_555
Ag6_2 Zn8_6 2.793758 1_455
Ag6_2 Ag6_6 2.820587 1_455
Ag6_2 Ag6_6 2.820587 1_555
Ag6_2 Zn1_6 2.838128 1_455
Ag6_2 Zn5_2 2.850445 1_555
Ag6_2 Zn5_6 2.857759 1_455
Ag6_2 Zn1_2 2.862999 1_555
Ag6_3 Zn3_3 2.706538 1_555
Ag6_3 Zn8_3 2.775807 1_555
Ag6_3 Zn8_7 2.793758 1_455
Ag6_3 Ag6_7 2.820587 1_555
Ag6_3 Ag6_7 2.820587 1_455
Ag6_3 Zn1_7 2.838128 1_455
Ag6_3 Zn5_3 2.850445 1_555
Ag6_3 Zn5_7 2.857759 1_455
Ag6_3 Zn1_3 2.862999 1_555
Ag6_4 Zn3_4 2.706538 1_545
Ag6_4 Zn8_4 2.775807 1_555
Ag6_4 Zn8_0 2.793758 1_555
Ag6_4 Zn1_0 2.838128 1_555
Ag6_4 Zn5_4 2.850445 1_555
Ag6_4 Zn5_0 2.857759 1_555
Ag6_4 Zn1_4 2.862999 1_555
Ag6_5 Zn3_5 2.706538 1_545
Ag6_5 Zn8_5 2.775807 1_555
Ag6_5 Zn8_1 2.793758 1_555
Ag6_5 Zn1_1 2.838128 1_555
Ag6_5 Zn5_5 2.850445 1_555
Ag6_5 Zn5_1 2.857759 1_555
Ag6_5 Zn1_5 2.862999 1_555
Ag6_6 Zn3_6 2.706538 1_555
Ag6_6 Zn8_6 2.775807 1_555
Ag6_6 Zn8_2 2.793758 1_555
Ag6_6 Zn1_2 2.838128 1_555
Ag6_6 Zn5_6 2.850445 1_555
Ag6_6 Zn5_2 2.857759 1_555
Ag6_6 Zn1_6 2.862999 1_555
Ag6_7 Zn3_7 2.706538 1_555
Ag6_7 Zn8_7 2.775807 1_555
Ag6_7 Zn8_3 2.793758 1_555
Ag6_7 Zn1_3 2.838128 1_555
Ag6_7 Zn5_7 2.850445 1_555
Ag6_7 Zn5_3 2.857759 1_555
Ag6_7 Zn1_7 2.862999 1_555
Ag7_0 Zn8_0 2.760199 1_555
Ag7_0 Zn8_4 2.765724 1_455
Ag7_0 Zn2_0 2.780960 1_555
Ag7_0 Ag7_4 2.820587 1_455
Ag7_0 Ag7_4 2.820587 1_555
Ag7_0 Zn0_0 2.822007 1_555
Ag7_0 Zn0_4 2.825961 1_455
Ag7_0 Zn5_4 2.854363 1_455
Ag7_0 Zn5_0 2.859212 1_555
Ag7_0 Zn6_4 2.898519 1_455
Ag7_0 Zn6_0 2.903264 1_555
Ag7_1 Zn8_1 2.760199 1_555
Ag7_1 Zn8_5 2.765724 1_455
Ag7_1 Zn2_1 2.780960 1_555
Ag7_1 Ag7_5 2.820587 1_455
Ag7_1 Ag7_5 2.820587 1_555
Ag7_1 Zn0_1 2.822007 1_555
Ag7_1 Zn0_5 2.825961 1_455
Ag7_1 Zn5_5 2.854363 1_455
Ag7_1 Zn5_1 2.859212 1_555
Ag7_1 Zn6_5 2.898519 1_455
Ag7_1 Zn6_1 2.903264 1_555
Ag7_2 Zn8_2 2.760199 1_555
Ag7_2 Zn8_6 2.765724 1_455
Ag7_2 Zn2_2 2.780960 1_555
Ag7_2 Ag7_6 2.820587 1_455
Ag7_2 Ag7_6 2.820587 1_555
Ag7_2 Zn0_2 2.822007 1_555
Ag7_2 Zn0_6 2.825961 1_455
Ag7_2 Zn5_6 2.854363 1_455
Ag7_2 Zn5_2 2.859212 1_555
Ag7_2 Zn6_6 2.898519 1_455
Ag7_2 Zn6_2 2.903264 1_555
Ag7_3 Zn8_3 2.760199 1_555
Ag7_3 Zn8_7 2.765724 1_455
Ag7_3 Zn2_3 2.780960 1_555
Ag7_3 Ag7_7 2.820587 1_555
Ag7_3 Ag7_7 2.820587 1_455
Ag7_3 Zn0_3 2.822007 1_555
Ag7_3 Zn0_7 2.825961 1_455
Ag7_3 Zn5_7 2.854363 1_455
Ag7_3 Zn5_3 2.859212 1_555
Ag7_3 Zn6_7 2.898519 1_455
Ag7_3 Zn6_3 2.903264 1_555
Ag7_4 Zn8_4 2.760199 1_555
Ag7_4 Zn8_0 2.765724 1_555
Ag7_4 Zn2_4 2.780960 1_555
Ag7_4 Zn0_4 2.822007 1_555
Ag7_4 Zn0_0 2.825961 1_555
Ag7_4 Zn5_0 2.854363 1_555
Ag7_4 Zn5_4 2.859212 1_555
Ag7_4 Zn6_0 2.898519 1_555
Ag7_4 Zn6_4 2.903264 1_555
Ag7_5 Zn8_5 2.760199 1_555
Ag7_5 Zn8_1 2.765724 1_555
Ag7_5 Zn2_5 2.780960 1_555
Ag7_5 Zn0_5 2.822007 1_555
Ag7_5 Zn0_1 2.825961 1_555
Ag7_5 Zn5_1 2.854363 1_555
Ag7_5 Zn5_5 2.859212 1_555
Ag7_5 Zn6_1 2.898519 1_555
Ag7_5 Zn6_5 2.903264 1_555
Ag7_6 Zn8_6 2.760199 1_555
Ag7_6 Zn8_2 2.765724 1_555
Ag7_6 Zn2_6 2.780960 1_555
Ag7_6 Zn0_6 2.822007 1_555
Ag7_6 Zn0_2 2.825961 1_555
Ag7_6 Zn5_2 2.854363 1_555
Ag7_6 Zn5_6 2.859212 1_555
Ag7_6 Zn6_2 2.898519 1_555
Ag7_6 Zn6_6 2.903264 1_555
Ag7_7 Zn8_7 2.760199 1_555
Ag7_7 Zn8_3 2.765724 1_555
Ag7_7 Zn2_7 2.780960 1_555
Ag7_7 Zn0_7 2.822007 1_555
Ag7_7 Zn0_3 2.825961 1_555
Ag7_7 Zn5_3 2.854363 1_555
Ag7_7 Zn5_7 2.859212 1_555
Ag7_7 Zn6_3 2.898519 1_555
Ag7_7 Zn6_7 2.903264 1_555
Ag8_0 Zn1_4 2.781320 1_455
Ag8_0 Zn7_7 2.784221 1_455
Ag8_0 Zn7_3 2.787744 1_555
Ag8_0 Zn1_0 2.790413 1_555
Ag8_0 Ag8_4 2.820587 1_555
Ag8_0 Ag8_4 2.820587 1_455
Ag8_0 Zn4_5 2.821273 1_455
Ag8_0 Zn4_1 2.824933 1_555
Ag8_0 Zn3_2 2.862725 1_555
Ag8_1 Zn1_5 2.781320 1_455
Ag8_1 Zn7_6 2.784221 1_456
Ag8_1 Zn7_2 2.787744 1_556
Ag8_1 Zn1_1 2.790413 1_555
Ag8_1 Ag8_5 2.820587 1_455
Ag8_1 Ag8_5 2.820587 1_555
Ag8_1 Zn4_4 2.821273 1_456
Ag8_1 Zn4_0 2.824933 1_556
Ag8_1 Zn3_3 2.862725 1_555
Ag8_2 Zn1_6 2.781320 1_455
Ag8_2 Zn7_5 2.784221 1_465
Ag8_2 Zn7_1 2.787744 1_565
Ag8_2 Zn1_2 2.790413 1_555
Ag8_2 Ag8_6 2.820587 1_455
Ag8_2 Ag8_6 2.820587 1_555
Ag8_2 Zn4_7 2.821273 1_455
Ag8_2 Zn4_3 2.824933 1_555
Ag8_2 Zn3_0 2.862725 1_555
Ag8_3 Zn1_7 2.781320 1_455
Ag8_3 Zn7_4 2.784221 1_466
Ag8_3 Zn7_0 2.787744 1_566
Ag8_3 Zn1_3 2.790413 1_555
Ag8_3 Ag8_7 2.820587 1_455
Ag8_3 Ag8_7 2.820587 1_555
Ag8_3 Zn4_6 2.821273 1_456
Ag8_3 Zn4_2 2.824933 1_556
Ag8_3 Zn3_1 2.862725 1_555
Ag8_4 Zn1_0 2.781320 1_555
Ag8_4 Zn7_3 2.784221 1_555
Ag8_4 Zn7_7 2.787744 1_555
Ag8_4 Zn1_4 2.790413 1_555
Ag8_4 Zn4_1 2.821273 1_555
Ag8_4 Zn4_5 2.824933 1_555
Ag8_4 Zn3_6 2.862725 1_555
Ag8_5 Zn1_1 2.781320 1_555
Ag8_5 Zn7_2 2.784221 1_556
Ag8_5 Zn7_6 2.787744 1_556
Ag8_5 Zn1_5 2.790413 1_555
Ag8_5 Zn4_0 2.821273 1_556
Ag8_5 Zn4_4 2.824933 1_556
Ag8_5 Zn3_7 2.862725 1_555
Ag8_6 Zn1_2 2.781320 1_555
Ag8_6 Zn7_1 2.784221 1_565
Ag8_6 Zn7_5 2.787744 1_565
Ag8_6 Zn1_6 2.790413 1_555
Ag8_6 Zn4_3 2.821273 1_555
Ag8_6 Zn4_7 2.824933 1_555
Ag8_6 Zn3_4 2.862725 1_555
Ag8_7 Zn1_3 2.781320 1_555
Ag8_7 Zn7_0 2.784221 1_566
Ag8_7 Zn7_4 2.787744 1_566
Ag8_7 Zn1_7 2.790413 1_555
Ag8_7 Zn4_2 2.821273 1_556
Ag8_7 Zn4_6 2.824933 1_556
Ag8_7 Zn3_5 2.862725 1_555
