# generated using pymatgen
data_LaIn5Co
_symmetry_space_group_name_H-M   'P 1'
_cell_length_a   4.63715426
_cell_length_b   4.63715632
_cell_length_c   7.64017220
_cell_angle_alpha   90.00000000
_cell_angle_beta   90.00000000
_cell_angle_gamma   90.00000000
_symmetry_Int_Tables_number   1
_chemical_formula_structural   LaIn5Co
_chemical_formula_sum   'La1 In5 Co1'
_cell_volume   164.28822102
_cell_formula_units_Z   1
loop_
 _symmetry_equiv_pos_site_id
 _symmetry_equiv_pos_as_xyz
  1  'x, y, z'
loop_
 _atom_site_type_symbol
 _atom_site_label
 _atom_site_symmetry_multiplicity
 _atom_site_fract_x
 _atom_site_fract_y
 _atom_site_fract_z
 _atom_site_occupancy
  La  La0  1  -0.00000000  -0.00000000  0.00000000  1
  In  In0  1  0.50000000  0.50000000  0.00000000  1
  In  In1  1  0.50000000  -0.00000000  0.68703207  1
  In  In2  1  0.00000000  0.50000000  0.31296793  1
  In  In3  1  0.50000000  0.00000000  0.31296793  1
  In  In4  1  -0.00000000  0.50000000  0.68703207  1
  Co  Co0  1  0.00000000  0.00000000  0.50000000  1
loop_
_geom_bond_atom_site_label_1
_geom_bond_atom_site_label_2
_geom_bond_distance
_geom_bond_site_symmetry_2
In0 La0 3.278964 1_565
In0 La0 3.278964 1_655
In0 La0 3.278964 1_665
In0 La0 3.278964 1_555
In0 In2 3.330660 1_555
In0 In4 3.330660 1_554
In0 In4 3.330660 1_654
In0 In2 3.330660 1_655
In0 In3 3.330661 1_555
In0 In1 3.330661 1_554
In0 In3 3.330661 1_565
In0 In1 3.330661 1_564
In1 In3 2.857914 1_555
In1 In4 3.278964 1_645
In1 In4 3.278964 1_545
In1 In4 3.278964 1_555
In1 In4 3.278964 1_655
In1 La0 3.330660 1_556
In1 La0 3.330660 1_656
In2 In4 2.857914 1_555
In2 In3 3.278964 1_455
In2 In3 3.278964 1_555
In2 In3 3.278964 1_465
In2 In3 3.278964 1_565
In2 La0 3.330661 1_565
In2 La0 3.330661 1_555
In3 La0 3.330660 1_555
In3 La0 3.330660 1_655
In4 La0 3.330661 1_566
In4 La0 3.330661 1_556
Co0 In1 2.723549 1_455
Co0 In3 2.723549 1_555
Co0 In1 2.723549 1_555
Co0 In3 2.723549 1_455
Co0 In4 2.723550 1_555
Co0 In4 2.723550 1_545
Co0 In2 2.723550 1_555
Co0 In2 2.723550 1_545
