# generated using pymatgen
data_Na6Ti8Si7S5O48
_symmetry_space_group_name_H-M   'P 1'
_cell_length_a   17.58323734
_cell_length_b   8.76322713
_cell_length_c   22.47792933
_cell_angle_alpha   89.97935084
_cell_angle_beta   89.97521216
_cell_angle_gamma   119.91872333
_symmetry_Int_Tables_number   1
_chemical_formula_structural   Na6Ti8Si7S5O48
_chemical_formula_sum   'Na18 Ti24 Si21 S15 O144'
_cell_volume   3001.95934778
_cell_formula_units_Z   3
loop_
 _symmetry_equiv_pos_site_id
 _symmetry_equiv_pos_as_xyz
  1  'x, y, z'
loop_
 _atom_site_type_symbol
 _atom_site_label
 _atom_site_symmetry_multiplicity
 _atom_site_fract_x
 _atom_site_fract_y
 _atom_site_fract_z
 _atom_site_occupancy
  Na  Na0  1  0.00036154  0.63210721  0.25103481  1
  Na  Na1  1  0.49809331  0.63937388  0.24741405  1
  Na  Na2  1  0.99940673  0.35781536  0.75068052  1
  Na  Na3  1  0.50032689  0.37005385  0.75184403  1
  Na  Na4  1  0.66516867  0.30545391  0.91713040  1
  Na  Na5  1  0.16552682  0.02702997  0.41548955  1
  Na  Na6  1  0.99826169  0.99404518  0.50170945  1
  Na  Na7  1  0.49714183  0.99558459  0.49744655  1
  Na  Na8  1  0.99744440  0.99877468  0.99845562  1
  Na  Na9  1  0.49786714  0.99968125  0.00375620  1
  Na  Na10  1  0.33202525  0.33451300  0.83375859  1
  Na  Na11  1  0.83369256  0.33159719  0.83478242  1
  Na  Na12  1  0.33278046  0.33501239  0.33109408  1
  Na  Na13  1  0.83180923  0.32764380  0.33096211  1
  Na  Na14  1  0.17195573  0.66924044  0.16865244  1
  Na  Na15  1  0.66930086  0.66756931  0.16289575  1
  Na  Na16  1  0.17238209  0.67515623  0.66569515  1
  Na  Na17  1  0.67083148  0.67379066  0.66983910  1
  Ti  Ti0  1  0.99923229  0.99305991  0.34682887  1
  Ti  Ti1  1  0.49629565  0.97375777  0.35375300  1
  Ti  Ti2  1  0.99628494  0.01904072  0.85576014  1
  Ti  Ti3  1  0.49872772  0.00485709  0.84827616  1
  Ti  Ti4  1  0.99882201  0.00285454  0.64512590  1
  Ti  Ti5  1  0.49730400  0.99318960  0.65415023  1
  Ti  Ti6  1  0.99848636  0.00236399  0.15391707  1
  Ti  Ti7  1  0.49679272  0.98189191  0.14031783  1
  Ti  Ti8  1  0.32490469  0.32082962  0.69280143  1
  Ti  Ti9  1  0.82445297  0.33127941  0.68888003  1
  Ti  Ti10  1  0.33218967  0.32769605  0.18501467  1
  Ti  Ti11  1  0.82463984  0.32749796  0.19200133  1
  Ti  Ti12  1  0.34521722  0.33603133  0.98286469  1
  Ti  Ti13  1  0.83228016  0.33890658  0.97779943  1
  Ti  Ti14  1  0.33257763  0.32641793  0.47721645  1
  Ti  Ti15  1  0.83983968  0.35706882  0.47985687  1
  Ti  Ti16  1  0.16607195  0.66568981  0.02078764  1
  Ti  Ti17  1  0.66402713  0.64254678  0.02174510  1
  Ti  Ti18  1  0.17084409  0.69365029  0.51799934  1
  Ti  Ti19  1  0.66582909  0.66711417  0.51972573  1
  Ti  Ti20  1  0.16795156  0.67847890  0.30832421  1
  Ti  Ti21  1  0.66429521  0.67353636  0.30941022  1
  Ti  Ti22  1  0.16729415  0.65704132  0.81267809  1
  Ti  Ti23  1  0.66786307  0.65782113  0.81090245  1
  Si  Si0  1  0.14812268  0.00967924  0.24904196  1
  Si  Si1  1  0.64140352  0.00521859  0.24995667  1
  Si  Si2  1  0.35360425  0.70928798  0.24775408  1
  Si  Si3  1  0.85204022  0.71045160  0.24967523  1
  Si  Si4  1  0.99973417  0.28932365  0.25109128  1
  Si  Si5  1  0.14166885  0.28055126  0.75073042  1
  Si  Si6  1  0.64422278  0.28606336  0.74986671  1
  Si  Si7  1  0.50012611  0.71049158  0.75141258  1
  Si  Si8  1  0.35169866  0.99259123  0.75026321  1
  Si  Si9  1  0.85358697  0.99637724  0.74838451  1
  Si  Si10  1  0.18888674  0.04836276  0.58383151  1
  Si  Si11  1  0.83243339  0.62740653  0.58465572  1
  Si  Si12  1  0.48029375  0.61995772  0.08398314  1
  Si  Si13  1  0.33237496  0.03978523  0.08428404  1
  Si  Si14  1  0.68900169  0.32908238  0.08393444  1
  Si  Si15  1  0.81292195  0.67509018  0.91716668  1
  Si  Si16  1  0.02249371  0.38274966  0.91779081  1
  Si  Si17  1  0.51989270  0.37466377  0.91503892  1
  Si  Si18  1  0.31489774  0.95518513  0.41473083  1
  Si  Si19  1  0.02151667  0.66704436  0.41494367  1
  Si  Si20  1  0.52238249  0.66431650  0.41718802  1
  S  S0  1  0.50013713  0.28374277  0.25003825  1
  S  S1  1  0.00031554  0.71485710  0.75035450  1
  S  S2  1  0.47810744  0.33221600  0.58285707  1
  S  S3  1  0.97813318  0.33513979  0.58324034  1
  S  S4  1  0.68832612  0.04531233  0.58216932  1
  S  S5  1  0.33363809  0.62160187  0.58305124  1
  S  S6  1  0.97791358  0.62383023  0.08292953  1
  S  S7  1  0.83428071  0.04621256  0.08309689  1
  S  S8  1  0.18805849  0.33065865  0.08190165  1
  S  S9  1  0.31060575  0.66526357  0.91737319  1
  S  S10  1  0.16679525  0.95525494  0.91639256  1
  S  S11  1  0.66563901  0.95032583  0.91774326  1
  S  S12  1  0.81055929  0.95557953  0.41725430  1
  S  S13  1  0.16568596  0.38116504  0.41753350  1
  S  S14  1  0.66691612  0.37912597  0.41685697  1
  O  O0  1  0.10154613  0.03333002  0.30951442  1
  O  O1  1  0.59898210  0.03564288  0.30994562  1
  O  O2  1  0.41840802  0.79884117  0.30688500  1
  O  O3  1  0.91770410  0.79758738  0.30714748  1
  O  O4  1  0.48663604  0.18120612  0.30517389  1
  O  O5  1  0.98285646  0.16142359  0.30877819  1
  O  O6  1  0.09791291  0.16035547  0.80899704  1
  O  O7  1  0.60231630  0.16873021  0.80970871  1
  O  O8  1  0.48279677  0.80476403  0.80842934  1
  O  O9  1  0.98465262  0.78776876  0.80357271  1
  O  O10  1  0.41816711  0.03810364  0.80691524  1
  O  O11  1  0.91927020  0.04141915  0.80628556  1
  O  O12  1  0.39911801  0.96406280  0.69181278  1
  O  O13  1  0.90287211  0.96842366  0.69128234  1
  O  O14  1  0.07905986  0.19803817  0.69250959  1
  O  O15  1  0.58090606  0.19648162  0.69190769  1
  O  O16  1  0.01502103  0.81989709  0.69570577  1
  O  O17  1  0.51594871  0.83611756  0.69225981  1
  O  O18  1  0.40146607  0.83775291  0.19203981  1
  O  O19  1  0.89924023  0.83476954  0.19173414  1
  O  O20  1  0.01635722  0.19635153  0.19253066  1
  O  O21  1  0.51580309  0.21323785  0.19702118  1
  O  O22  1  0.08040437  0.96431300  0.19267680  1
  O  O23  1  0.57927708  0.95754709  0.19288770  1
  O  O24  1  0.44199054  0.36495737  0.63734155  1
  O  O25  1  0.93836040  0.36160505  0.63749185  1
  O  O26  1  0.25366575  0.14355808  0.64047772  1
  O  O27  1  0.74279122  0.12292867  0.63680926  1
  O  O28  1  0.32159422  0.51538351  0.63683979  1
  O  O29  1  0.81792412  0.49374180  0.64026883  1
  O  O30  1  0.43227429  0.49910848  0.14290597  1
  O  O31  1  0.94197671  0.51917485  0.13742076  1
  O  O32  1  0.31404615  0.13440881  0.14103968  1
  O  O33  1  0.82282157  0.13044282  0.13693606  1
  O  O34  1  0.24174942  0.36290097  0.13641541  1
  O  O35  1  0.75450559  0.36291415  0.14047869  1
  O  O36  1  0.22851043  0.30581252  0.02840210  1
  O  O37  1  0.73753472  0.30518971  0.02437792  1
  O  O38  1  0.41548313  0.52817814  0.02599970  1
  O  O39  1  0.92317384  0.53819520  0.02969122  1
  O  O40  1  0.34557833  0.16442981  0.02584877  1
  O  O41  1  0.84891387  0.15710394  0.02919920  1
  O  O42  1  0.23635084  0.16749296  0.52417843  1
  O  O43  1  0.73133196  0.15356968  0.52908767  1
  O  O44  1  0.34796238  0.54100763  0.52912767  1
  O  O45  1  0.84644124  0.52594724  0.52647908  1
  O  O46  1  0.42294968  0.30805804  0.52965148  1
  O  O47  1  0.92132834  0.30631159  0.52980489  1
  O  O48  1  0.26938806  0.69520269  0.97066622  1
  O  O49  1  0.76554562  0.70146719  0.97497173  1
  O  O50  1  0.08735499  0.48187423  0.97424673  1
  O  O51  1  0.58416915  0.46632310  0.97271817  1
  O  O52  1  0.15471241  0.84371244  0.97028680  1
  O  O53  1  0.65303096  0.84796337  0.97093780  1
  O  O54  1  0.26689037  0.83437365  0.47437853  1
  O  O55  1  0.76887104  0.84290352  0.47135696  1
  O  O56  1  0.15319052  0.46030546  0.47208567  1
  O  O57  1  0.65576180  0.46609636  0.47101812  1
  O  O58  1  0.08450782  0.69767898  0.47364233  1
  O  O59  1  0.58711069  0.69191881  0.47443341  1
  O  O60  1  0.06366418  0.63171450  0.35655058  1
  O  O61  1  0.56904735  0.63461371  0.35863572  1
  O  O62  1  0.24605079  0.86550084  0.36024808  1
  O  O63  1  0.75597676  0.87305526  0.36379790  1
  O  O64  1  0.18100110  0.48574588  0.36398071  1
  O  O65  1  0.68406842  0.48959647  0.36380591  1
  O  O66  1  0.06877499  0.50201071  0.85794657  1
  O  O67  1  0.56520025  0.49510156  0.85615650  1
  O  O68  1  0.18190198  0.87302765  0.86298563  1
  O  O69  1  0.68113692  0.87654085  0.86294057  1
  O  O70  1  0.25563918  0.64144967  0.86314599  1
  O  O71  1  0.74721593  0.62904313  0.85975848  1
  O  O72  1  0.01331668  0.84566801  0.41204858  1
  O  O73  1  0.51557035  0.84237399  0.41189839  1
  O  O74  1  0.41304691  0.98677220  0.40871895  1
  O  O75  1  0.89827243  0.97336154  0.41222430  1
  O  O76  1  0.08817827  0.19909884  0.41293262  1
  O  O77  1  0.58801268  0.20541929  0.41235904  1
  O  O78  1  0.01565967  0.19061103  0.91147563  1
  O  O79  1  0.51371142  0.18106532  0.91013655  1
  O  O80  1  0.08644445  0.96664956  0.91108925  1
  O  O81  1  0.58821420  0.97788913  0.91171053  1
  O  O82  1  0.39796222  0.82333026  0.91119342  1
  O  O83  1  0.91181985  0.83779872  0.90718006  1
  O  O84  1  0.48811149  0.17427175  0.58707726  1
  O  O85  1  0.98497661  0.17322823  0.58729297  1
  O  O86  1  0.09166672  0.02451021  0.59220225  1
  O  O87  1  0.60033841  0.02663200  0.58814206  1
  O  O88  1  0.41320207  0.80167232  0.58807692  1
  O  O89  1  0.91995195  0.81691926  0.59077328  1
  O  O90  1  0.48601787  0.81020037  0.08827800  1
  O  O91  1  0.98802268  0.80172953  0.08714675  1
  O  O92  1  0.41924625  0.02576666  0.09068967  1
  O  O93  1  0.91471176  0.02788855  0.08835464  1
  O  O94  1  0.09918428  0.17379958  0.08847163  1
  O  O95  1  0.59254358  0.16169420  0.09183862  1
  O  O96  1  0.34944143  0.17526991  0.74204159  1
  O  O97  1  0.85078327  0.18116532  0.73848870  1
  O  O98  1  0.24057446  0.31342761  0.74259597  1
  O  O99  1  0.74160127  0.30689393  0.74247956  1
  O  O100  1  0.41543886  0.51600824  0.73929385  1
  O  O101  1  0.92276298  0.53003733  0.74253754  1
  O  O102  1  0.34909269  0.51858778  0.24238610  1
  O  O103  1  0.84943589  0.52310885  0.24227518  1
  O  O104  1  0.42270399  0.31288373  0.24569095  1
  O  O105  1  0.91575992  0.31584929  0.24007142  1
  O  O106  1  0.24399784  0.18008573  0.24275656  1
  O  O107  1  0.74119847  0.16853035  0.24352782  1
  O  O108  1  0.31576017  0.50354886  0.92252358  1
  O  O109  1  0.81882149  0.49090974  0.92520569  1
  O  O110  1  0.42253876  0.35598164  0.92237666  1
  O  O111  1  0.92473145  0.35533797  0.92672031  1
  O  O112  1  0.24464582  0.13253419  0.92325025  1
  O  O113  1  0.74559218  0.13477889  0.92228595  1
  O  O114  1  0.31880738  0.14706811  0.42564099  1
  O  O115  1  0.81761908  0.13032132  0.42513447  1
  O  O116  1  0.24556232  0.35716566  0.42335209  1
  O  O117  1  0.74610499  0.35684854  0.42519421  1
  O  O118  1  0.42513007  0.49474745  0.42785534  1
  O  O119  1  0.92381826  0.48864215  0.42557291  1
  O  O120  1  0.17936394  0.49329188  0.07609524  1
  O  O121  1  0.68293346  0.50903602  0.07755717  1
  O  O122  1  0.06767666  0.64300477  0.07511470  1
  O  O123  1  0.57751482  0.64726067  0.07450647  1
  O  O124  1  0.24429632  0.84581795  0.07209294  1
  O  O125  1  0.75529645  0.87212458  0.07741727  1
  O  O126  1  0.17935089  0.85054879  0.57695998  1
  O  O127  1  0.68028133  0.86692296  0.57655016  1
  O  O128  1  0.25311202  0.63706503  0.57698370  1
  O  O129  1  0.74425632  0.64206238  0.57273550  1
  O  O130  1  0.06672110  0.49025776  0.57611933  1
  O  O131  1  0.56797483  0.49263543  0.57485473  1
  O  O132  1  0.15106450  0.82718912  0.25542761  1
  O  O133  1  0.65209650  0.82653983  0.25987362  1
  O  O134  1  0.25809735  0.68787071  0.25976718  1
  O  O135  1  0.75575820  0.68640854  0.26105039  1
  O  O136  1  0.08586503  0.48265338  0.25769916  1
  O  O137  1  0.57950448  0.46942069  0.25710813  1
  O  O138  1  0.15131760  0.47889508  0.75882671  1
  O  O139  1  0.65195199  0.47747223  0.75486824  1
  O  O140  1  0.07888893  0.68981545  0.75545378  1
  O  O141  1  0.58589945  0.68827370  0.75721559  1
  O  O142  1  0.25503581  0.82450714  0.76015556  1
  O  O143  1  0.75776136  0.82933953  0.75834683  1
loop_
_geom_bond_atom_site_label_1
_geom_bond_atom_site_label_2
_geom_bond_distance
_geom_bond_site_symmetry_2
Na0 O132 2.331401 1_555
Na0 O103 2.337860 1_455
Na0 O105 2.417169 1_455
Na0 O136 2.441781 1_555
Na0 O60 2.621135 1_555
Na0 O31 2.746973 1_455
Na0 O3 2.812165 1_455
Na0 O22 2.843425 1_555
Na1 O102 2.287167 1_555
Na1 O133 2.381536 1_555
Na1 O104 2.482220 1_555
Na1 O137 2.538004 1_555
Na1 O30 2.637049 1_555
Na1 O23 2.709198 1_555
Na1 O2 2.766933 1_555
Na1 O61 2.804096 1_555
Na2 O97 2.294813 1_555
Na2 O138 2.338253 1_655
Na2 O101 2.481190 1_555
Na2 O140 2.524589 1_655
Na2 O11 2.708138 1_555
Na2 O66 2.713891 1_655
Na2 O14 2.754573 1_655
Na2 O25 2.768452 1_555
Na3 O96 2.341835 1_555
Na3 O139 2.344212 1_555
Na3 O100 2.418239 1_555
Na3 O141 2.422771 1_555
Na3 O67 2.599421 1_555
Na3 O24 2.763177 1_555
Na3 O10 2.808053 1_555
Na3 O15 2.878495 1_555
Na4 O79 2.325892 1_555
Na4 O109 2.365181 1_555
Na4 O81 2.492281 1_545
Na4 O113 2.521900 1_555
Na4 O7 2.677834 1_555
Na4 O37 2.726932 1_556
Na4 O51 2.753111 1_555
Na4 O71 2.774948 1_555
Na5 O72 2.334931 1_545
Na5 O114 2.365398 1_555
Na5 O76 2.484440 1_555
Na5 O116 2.514098 1_555
Na5 O0 2.647118 1_555
Na5 O42 2.740509 1_555
Na5 O62 2.747589 1_545
Na5 O58 2.821752 1_545
Na6 O72 2.483413 1_655
Na6 O89 2.485258 1_555
Na6 O86 2.544022 1_665
Na6 O85 2.566831 1_565
Na6 O75 2.618248 1_555
Na6 O76 2.621331 1_665
Na7 O73 2.457773 1_555
Na7 O74 2.461471 1_555
Na7 O77 2.579967 1_565
Na7 O88 2.590197 1_555
Na7 O84 2.605047 1_565
Na7 O87 2.652122 1_565
Na8 O78 2.492231 1_665
Na8 O83 2.520365 1_555
Na8 O93 2.575409 1_566
Na8 O91 2.587548 1_556
Na8 O80 2.611891 1_655
Na8 O94 2.629649 1_666
Na9 O90 2.462185 1_555
Na9 O92 2.468800 1_565
Na9 O95 2.520760 1_565
Na9 O79 2.566690 1_564
Na9 O82 2.664675 1_554
Na9 O81 2.672249 1_554
Na10 O110 2.498105 1_555
Na10 O98 2.554515 1_555
Na10 O108 2.584823 1_555
Na10 O96 2.592142 1_555
Na10 O112 2.611879 1_555
Na10 O100 2.618659 1_555
Na11 O109 2.552324 1_555
Na11 O111 2.558788 1_555
Na11 O113 2.563757 1_555
Na11 O99 2.574321 1_555
Na11 O97 2.628650 1_555
Na11 O101 2.655926 1_555
Na12 O106 2.472534 1_555
Na12 O102 2.486576 1_555
Na12 O104 2.554667 1_555
Na12 O114 2.623526 1_555
Na12 O116 2.642838 1_555
Na12 O118 2.657933 1_555
Na13 O107 2.476648 1_555
Na13 O103 2.543926 1_555
Na13 O105 2.552127 1_555
Na13 O119 2.618924 1_555
Na13 O115 2.664523 1_555
Na13 O117 2.684269 1_555
Na14 O134 2.504328 1_555
Na14 O132 2.522668 1_555
Na14 O136 2.548984 1_555
Na14 O124 2.599041 1_555
Na14 O120 2.631585 1_555
Na14 O122 2.723717 1_555
Na15 O121 2.449664 1_555
Na15 O123 2.510030 1_555
Na15 O125 2.546083 1_555
Na15 O135 2.637971 1_555
Na15 O133 2.684404 1_555
Na15 O137 2.693011 1_555
Na16 O126 2.483036 1_555
Na16 O142 2.537839 1_555
Na16 O128 2.563848 1_555
Na16 O138 2.615111 1_555
Na16 O140 2.645296 1_555
Na16 O130 2.670922 1_555
Na17 O143 2.465478 1_555
Na17 O139 2.479977 1_555
Na17 O141 2.508081 1_555
Na17 O129 2.619984 1_555
Na17 O127 2.646851 1_555
Na17 O131 2.737012 1_555
O0 Si0 1.652243 1_555
O0 Ti0 1.851931 1_445
O1 Si1 1.625880 1_555
O1 Ti1 1.882840 1_545
O2 Si2 1.670598 1_555
O2 Ti1 1.800927 1_555
O3 Si3 1.645469 1_555
O3 Ti0 1.826885 1_555
O4 S0 1.478465 1_555
O4 Ti1 2.198359 1_545
O5 Si4 1.640885 1_555
O5 Ti0 1.847801 1_545
O6 Si5 1.614457 1_555
O6 Ti2 1.903053 1_455
O7 Si6 1.628467 1_555
O7 Ti3 1.876135 1_555
O8 Si7 1.633835 1_555
O8 Ti3 1.861909 1_565
O9 S1 1.445985 1_655
O9 Ti2 2.261371 1_565
O10 Si8 1.638069 1_545
O10 Ti3 1.835316 1_555
O11 Si9 1.652412 1_545
O11 Ti2 1.837123 1_555
O12 Si8 1.640461 1_555
O12 Ti5 1.822469 1_555
O13 Si9 1.633856 1_555
O13 Ti4 1.871965 1_565
O14 Si5 1.629503 1_555
O14 Ti4 1.909416 1_455
O15 Si6 1.638040 1_555
O15 Ti5 1.855999 1_545
O16 S1 1.478034 1_555
O16 Ti4 2.097336 1_465
O17 Si7 1.658426 1_555
O17 Ti5 1.784783 1_555
O18 Si2 1.611502 1_555
O18 Ti7 1.908372 1_555
O19 Si3 1.633397 1_555
O19 Ti6 1.834673 1_565
O20 Si4 1.649218 1_455
O20 Ti6 1.791752 1_455
O21 S0 1.431020 1_555
O21 Ti7 2.274335 1_545
O22 Si0 1.646363 1_565
O22 Ti6 1.850660 1_465
O23 Si1 1.599922 1_565
O23 Ti7 1.963488 1_555
O24 S2 1.472020 1_555
O24 Ti8 2.268330 1_555
O25 S3 1.480270 1_555
O25 Ti9 2.209787 1_555
O26 Si10 1.633623 1_555
O26 Ti8 1.851233 1_555
O27 S4 1.496685 1_555
O27 Ti9 2.037915 1_555
O28 S5 1.474928 1_555
O28 Ti8 2.142422 1_555
O29 Si11 1.643275 1_555
O29 Ti9 1.842839 1_555
O30 Si12 1.641552 1_555
O30 Ti10 1.899944 1_555
O31 S6 1.470060 1_555
O31 Ti11 2.263310 1_555
O32 Si13 1.638894 1_555
O32 Ti10 1.846702 1_555
O33 S7 1.482832 1_555
O33 Ti11 2.112233 1_555
O34 S8 1.485849 1_555
O34 Ti10 2.075580 1_555
O35 Si14 1.640370 1_555
O35 Ti11 1.827865 1_555
O36 S8 1.467449 1_555
O36 Ti12 2.187419 1_554
O37 Si14 1.655797 1_555
O37 Ti13 1.861736 1_554
O38 Si12 1.652870 1_555
O38 Ti12 1.796883 1_554
O39 S6 1.484166 1_555
O39 Ti13 2.045377 1_554
O40 Si13 1.648644 1_555
O40 Ti12 1.789809 1_554
O41 S7 1.492564 1_555
O41 Ti13 2.102950 1_554
O42 Si10 1.647188 1_555
O42 Ti14 1.887717 1_555
O43 S4 1.475888 1_555
O43 Ti15 2.155835 1_555
O44 S5 1.486342 1_555
O44 Ti14 2.113152 1_555
O45 Si11 1.667408 1_555
O45 Ti15 1.769672 1_555
O46 S2 1.487314 1_555
O46 Ti14 2.048561 1_555
O47 S3 1.501227 1_555
O47 Ti15 2.036704 1_555
O48 S9 1.489376 1_555
O48 Ti16 2.040996 1_556
O49 Si15 1.620804 1_555
O49 Ti17 1.907058 1_556
O50 Si16 1.636897 1_555
O50 Ti16 1.839374 1_556
O51 Si17 1.643135 1_555
O51 Ti17 1.846732 1_556
O52 S10 1.503303 1_555
O52 Ti16 2.017917 1_556
O53 S11 1.443652 1_555
O53 Ti17 2.219899 1_556
O54 Si18 1.654551 1_555
O54 Ti18 1.803998 1_555
O55 S12 1.505848 1_555
O55 Ti19 2.012635 1_555
O56 S13 1.478258 1_555
O56 Ti18 2.170603 1_555
O57 S14 1.500345 1_555
O57 Ti19 2.005900 1_555
O58 Si19 1.656687 1_555
O58 Ti18 1.831570 1_555
O59 Si20 1.654227 1_555
O59 Ti19 1.816787 1_555
O60 Si19 1.611273 1_555
O60 Ti20 1.988440 1_555
O61 Si20 1.638773 1_555
O61 Ti21 1.890445 1_555
O62 Si18 1.623520 1_555
O62 Ti20 1.921385 1_555
O63 S12 1.482285 1_555
O63 Ti21 2.083723 1_555
O64 S13 1.454026 1_555
O64 Ti20 2.203557 1_555
O65 S14 1.468927 1_555
O65 Ti21 2.184518 1_555
O66 Si16 1.647309 1_555
O66 Ti22 1.879294 1_555
O67 Si17 1.630863 1_555
O67 Ti23 1.938107 1_555
O68 S10 1.490709 1_555
O68 Ti22 2.108078 1_555
O69 S11 1.478462 1_555
O69 Ti23 2.156849 1_555
O70 S9 1.504464 1_555
O70 Ti22 1.982858 1_555
O71 Si15 1.642984 1_555
O71 Ti23 1.889059 1_555
O72 Si19 1.643265 1_555
O72 Ti0 2.048618 1_455
O73 Si20 1.627735 1_555
O73 Ti1 1.880750 1_555
O74 Si18 1.611347 1_555
O74 Ti1 1.961440 1_555
O75 S12 1.475057 1_555
O75 Ti0 2.243608 1_555
O76 S13 1.498264 1_555
O76 Ti0 2.258521 1_445
O77 S14 1.464835 1_555
O77 Ti1 2.279332 1_545
O78 Si16 1.633394 1_555
O78 Ti2 1.853594 1_455
O79 Si17 1.648767 1_555
O79 Ti3 1.995828 1_555
O80 S10 1.470078 1_555
O80 Ti2 2.235630 1_465
O81 S11 1.502745 1_555
O81 Ti3 2.222022 1_565
O82 S9 1.474651 1_555
O82 Ti3 2.203292 1_565
O83 Si15 1.622782 1_555
O83 Ti2 1.925712 1_565
O84 S2 1.482723 1_555
O84 Ti5 2.252033 1_545
O85 S3 1.485325 1_555
O85 Ti4 2.083206 1_555
O86 Si10 1.626205 1_555
O86 Ti4 1.950743 1_455
O87 S4 1.478355 1_555
O87 Ti5 2.244380 1_545
O88 S5 1.502699 1_555
O88 Ti5 2.176524 1_555
O89 Si11 1.611225 1_555
O89 Ti4 1.954373 1_565
O90 Si12 1.622204 1_555
O90 Ti7 1.839850 1_555
O91 S6 1.481441 1_555
O91 Ti6 2.248814 1_565
O92 Si13 1.598868 1_555
O92 Ti7 1.943040 1_545
O93 S7 1.505487 1_555
O93 Ti6 2.173010 1_555
O94 S8 1.486673 1_555
O94 Ti6 2.213311 1_455
O95 Si14 1.605497 1_555
O95 Ti7 1.963569 1_545
O96 Si8 1.631453 1_545
O96 Ti8 1.893842 1_555
O97 Si9 1.659384 1_545
O97 Ti9 1.948131 1_555
O98 Si5 1.625030 1_555
O98 Ti8 1.832552 1_555
O99 Si6 1.637244 1_555
O99 Ti9 1.818583 1_555
O100 Si7 1.632570 1_555
O100 Ti8 1.959171 1_555
O101 S1 1.520131 1_655
O101 Ti9 2.115754 1_555
O102 Si2 1.637529 1_555
O102 Ti10 2.013867 1_555
O103 Si3 1.627956 1_555
O103 Ti11 1.913587 1_555
O104 S0 1.508458 1_555
O104 Ti10 2.148912 1_555
O105 Si4 1.624257 1_555
O105 Ti11 1.977246 1_555
O106 Si0 1.606318 1_555
O106 Ti10 1.938709 1_555
O107 Si1 1.625618 1_555
O107 Ti11 1.842063 1_555
O108 S9 1.468987 1_555
O108 Ti12 2.240669 1_555
O109 Si15 1.677879 1_555
O109 Ti13 1.881881 1_555
O110 Si17 1.644516 1_555
O110 Ti12 1.867816 1_555
O111 Si16 1.625002 1_655
O111 Ti13 1.935539 1_555
O112 S10 1.479876 1_545
O112 Ti12 2.227306 1_555
O113 S11 1.527414 1_545
O113 Ti13 2.088932 1_555
O114 Si18 1.666541 1_545
O114 Ti14 1.869427 1_555
O115 S12 1.484003 1_545
O115 Ti15 2.200392 1_555
O116 S13 1.526011 1_555
O116 Ti14 2.071736 1_555
O117 S14 1.511079 1_555
O117 Ti15 2.055414 1_555
O118 Si20 1.629219 1_555
O118 Ti14 1.912580 1_555
O119 Si19 1.665107 1_655
O119 Ti15 1.815970 1_555
O120 S8 1.512880 1_555
O120 Ti16 2.057594 1_555
O121 Si14 1.639049 1_555
O121 Ti17 1.854869 1_555
O122 S6 1.511749 1_455
O122 Ti16 2.044243 1_555
O123 Si12 1.617567 1_555
O123 Ti17 1.945078 1_555
O124 Si13 1.654554 1_565
O124 Ti16 1.884236 1_555
O125 S7 1.469429 1_565
O125 Ti17 2.229748 1_555
O126 Si10 1.663499 1_565
O126 Ti18 1.861615 1_555
O127 S4 1.503109 1_565
O127 Ti19 2.078459 1_555
O128 S5 1.494426 1_555
O128 Ti18 2.193841 1_555
O129 Si11 1.640463 1_555
O129 Ti19 1.916473 1_555
O130 S3 1.478909 1_455
O130 Ti18 2.230819 1_555
O131 S2 1.512999 1_555
O131 Ti19 2.050934 1_555
O132 Si0 1.631896 1_565
O132 Ti20 1.893508 1_555
O133 Si1 1.682331 1_565
O133 Ti21 1.835652 1_555
O134 Si2 1.616608 1_555
O134 Ti20 1.891763 1_555
O135 Si3 1.618523 1_555
O135 Ti21 1.896879 1_555
O136 Si4 1.620751 1_455
O136 Ti20 1.963438 1_555
O137 S0 1.534790 1_555
O137 Ti21 2.036468 1_555
O138 Si5 1.670060 1_555
O138 Ti22 1.882943 1_555
O139 Si6 1.617836 1_555
O139 Ti23 1.929546 1_555
O140 S1 1.507513 1_555
O140 Ti22 2.144795 1_555
O141 Si7 1.619438 1_555
O141 Ti23 1.997361 1_555
O142 Si8 1.615528 1_555
O142 Ti22 1.914761 1_555
O143 Si9 1.603409 1_555
O143 Ti23 1.944331 1_555
