# generated using pymatgen
data_Sr(H8O5)2
_symmetry_space_group_name_H-M   'P 1'
_cell_length_a   6.26582721
_cell_length_b   6.26582721
_cell_length_c   10.94761140
_cell_angle_alpha   89.80551447
_cell_angle_beta   89.80551447
_cell_angle_gamma   89.94902285
_symmetry_Int_Tables_number   1
_chemical_formula_structural   Sr(H8O5)2
_chemical_formula_sum   'Sr2 H32 O20'
_cell_volume   429.80457099
_cell_formula_units_Z   2
loop_
 _symmetry_equiv_pos_site_id
 _symmetry_equiv_pos_as_xyz
  1  'x, y, z'
loop_
 _atom_site_type_symbol
 _atom_site_label
 _atom_site_symmetry_multiplicity
 _atom_site_fract_x
 _atom_site_fract_y
 _atom_site_fract_z
 _atom_site_occupancy
  Sr  Sr0  1  0.99837982  0.00126143  0.25122790  1
  Sr  Sr1  1  0.00126143  0.99837982  0.75122790  1
  H  H0  1  0.45261139  0.03239855  0.36959991  1
  H  H1  1  0.39042270  0.27550550  0.35297426  1
  H  H2  1  0.60953813  0.72093613  0.35544680  1
  H  H3  1  0.68458625  0.85983570  0.46889484  1
  H  H4  1  0.27625984  0.61009102  0.35404721  1
  H  H5  1  0.03283591  0.54991957  0.37083328  1
  H  H6  1  0.72280312  0.39071969  0.35486016  1
  H  H7  1  0.86056388  0.31434665  0.46840720  1
  H  H8  1  0.39071969  0.72280312  0.85486016  1
  H  H9  1  0.31434665  0.86056388  0.96840720  1
  H  H10  1  0.54991957  0.03283591  0.87083328  1
  H  H11  1  0.61009102  0.27625984  0.85404721  1
  H  H12  1  0.03239855  0.45261139  0.86959991  1
  H  H13  1  0.27550550  0.39042270  0.85297426  1
  H  H14  1  0.72093613  0.60953813  0.85544680  1
  H  H15  1  0.85983570  0.68458625  0.96889484  1
  H  H16  1  0.60867839  0.72521649  0.64942965  1
  H  H17  1  0.54675362  0.96819629  0.63233283  1
  H  H18  1  0.38905240  0.27935143  0.64675195  1
  H  H19  1  0.31452423  0.14059228  0.53305130  1
  H  H20  1  0.72213042  0.38988953  0.64865350  1
  H  H21  1  0.96559381  0.45002867  0.63222313  1
  H  H22  1  0.27575361  0.60913968  0.64826661  1
  H  H23  1  0.13812218  0.68521447  0.53453417  1
  H  H24  1  0.60913968  0.27575361  0.14826661  1
  H  H25  1  0.68521447  0.13812218  0.03453417  1
  H  H26  1  0.45002867  0.96559381  0.13222313  1
  H  H27  1  0.38988953  0.72213042  0.14865350  1
  H  H28  1  0.96819629  0.54675362  0.13233283  1
  H  H29  1  0.72521649  0.60867839  0.14942965  1
  H  H30  1  0.27935143  0.38905240  0.14675195  1
  H  H31  1  0.14059228  0.31452423  0.03305130  1
  O  O0  1  0.49838935  0.49889652  0.31908978  1
  O  O1  1  0.49889652  0.49838935  0.81908978  1
  O  O2  1  0.50030261  0.50126871  0.68374781  1
  O  O3  1  0.50126871  0.50030261  0.18374781  1
  O  O4  1  0.32971773  0.13154105  0.37553103  1
  O  O5  1  0.67146817  0.86326189  0.37876375  1
  O  O6  1  0.13307100  0.67146803  0.37729733  1
  O  O7  1  0.86542465  0.32889976  0.37825688  1
  O  O8  1  0.32889976  0.86542465  0.87825688  1
  O  O9  1  0.67146803  0.13307100  0.87729733  1
  O  O10  1  0.13154105  0.32971773  0.87553103  1
  O  O11  1  0.86326189  0.67146817  0.87876375  1
  O  O12  1  0.66946832  0.86885390  0.62648935  1
  O  O13  1  0.32745780  0.13702044  0.62321780  1
  O  O14  1  0.86541775  0.32843343  0.62560568  1
  O  O15  1  0.13308969  0.67066242  0.62467290  1
  O  O16  1  0.67066242  0.13308969  0.12467290  1
  O  O17  1  0.32843343  0.86541775  0.12560568  1
  O  O18  1  0.86885390  0.66946832  0.12648935  1
  O  O19  1  0.13702044  0.32745780  0.12321780  1
loop_
_geom_bond_atom_site_label_1
_geom_bond_atom_site_label_2
_geom_bond_distance
_geom_bond_site_symmetry_2
H0 O4 0.991034 1_555
H1 O4 1.008874 1_555
H1 O0 1.597172 1_555
H2 O5 1.006905 1_555
H2 O0 1.608236 1_555
H3 O5 0.990574 1_555
H4 O6 1.008042 1_555
H4 O0 1.601728 1_555
H5 O6 0.990463 1_555
H6 O7 1.007229 1_555
H6 O0 1.609426 1_555
H7 O7 0.991194 1_555
H8 O8 1.007229 1_555
H8 O1 1.609426 1_555
H9 O8 0.991194 1_555
H10 O9 0.990463 1_555
H11 O9 1.008042 1_555
H11 O1 1.601728 1_555
H12 O10 0.991034 1_555
H13 O10 1.008874 1_555
H13 O1 1.597172 1_555
H14 O11 1.006905 1_555
H14 O1 1.608236 1_555
H15 O11 0.990574 1_555
H16 O12 1.008264 1_555
H16 O2 1.602400 1_555
H17 O12 0.990887 1_555
H18 O13 1.006739 1_555
H18 O2 1.609625 1_555
H19 O13 0.990878 1_555
H20 O14 1.008227 1_555
H20 O2 1.600949 1_555
H21 O14 0.990584 1_555
H22 O15 1.007307 1_555
H22 O2 1.608591 1_555
H23 O15 0.991097 1_555
H24 O16 1.007307 1_555
H24 O3 1.608591 1_555
H25 O16 0.991097 1_555
H26 O17 0.990584 1_555
H27 O17 1.008227 1_555
H27 O3 1.600949 1_555
H28 O18 0.990887 1_555
H29 O18 1.008264 1_555
H29 O3 1.602400 1_555
H30 O19 1.006739 1_555
H30 O3 1.609625 1_555
H31 O19 0.990878 1_555
O0 O3 1.481716 1_555
O1 O2 1.481716 1_555
O4 Sr0 2.618807 1_455
O5 Sr0 2.620773 1_565
O6 Sr0 2.621576 1_465
O7 Sr0 2.617429 1_555
O8 Sr1 2.617429 1_555
O9 Sr1 2.621576 1_645
O10 Sr1 2.618807 1_545
O11 Sr1 2.620773 1_655
O12 Sr1 2.622094 1_655
O13 Sr1 2.621356 1_545
O14 Sr1 2.622636 1_645
O15 Sr1 2.612834 1_555
O16 Sr0 2.612834 1_555
O17 Sr0 2.622636 1_465
O18 Sr0 2.622094 1_565
O19 Sr0 2.621356 1_455
