# generated using pymatgen
data_CeGeAu
_symmetry_space_group_name_H-M   'P 1'
_cell_length_a   4.74439235
_cell_length_b   4.74439235
_cell_length_c   4.74439235
_cell_angle_alpha   60.00000000
_cell_angle_beta   60.00000000
_cell_angle_gamma   60.00000000
_symmetry_Int_Tables_number   1
_chemical_formula_structural   CeGeAu
_chemical_formula_sum   'Ce1 Ge1 Au1'
_cell_volume   75.51388110
_cell_formula_units_Z   1
loop_
 _symmetry_equiv_pos_site_id
 _symmetry_equiv_pos_as_xyz
  1  'x, y, z'
loop_
 _atom_site_type_symbol
 _atom_site_label
 _atom_site_symmetry_multiplicity
 _atom_site_fract_x
 _atom_site_fract_y
 _atom_site_fract_z
 _atom_site_occupancy
  Ce  Ce0  1  0.50000000  0.50000000  0.50000000  1
  Ge  Ge0  1  0.00000000  0.00000000  0.00000000  1
  Au  Au0  1  0.75000000  0.75000000  0.75000000  1
loop_
_geom_bond_atom_site_label_1
_geom_bond_atom_site_label_2
_geom_bond_distance
_geom_bond_site_symmetry_2
Ce0 Ge0 3.354792 1_665
Ce0 Ge0 3.354792 1_556
Ce0 Ge0 3.354792 1_655
Ce0 Ge0 3.354792 1_656
Ce0 Ge0 3.354792 1_565
Ce0 Ge0 3.354792 1_566
Au0 Ge0 2.905335 1_665
Au0 Ge0 2.905335 1_666
Au0 Ce0 2.905335 1_565
Au0 Ge0 2.905335 1_566
Au0 Ce0 2.905335 1_556
Au0 Ce0 2.905335 1_555
Au0 Ce0 2.905335 1_655
Au0 Ge0 2.905335 1_656
