# generated using pymatgen
data_La4Bi2S9
_symmetry_space_group_name_H-M   'P 1'
_cell_length_a   4.04586500
_cell_length_b   12.99345000
_cell_length_c   28.58946700
_cell_angle_alpha   90.00000000
_cell_angle_beta   90.00000000
_cell_angle_gamma   90.00000000
_symmetry_Int_Tables_number   1
_chemical_formula_structural   La4Bi2S9
_chemical_formula_sum   'La16 Bi8 S36'
_cell_volume   1502.94097799
_cell_formula_units_Z   4
loop_
 _symmetry_equiv_pos_site_id
 _symmetry_equiv_pos_as_xyz
  1  'x, y, z'
loop_
 _atom_site_type_symbol
 _atom_site_label
 _atom_site_symmetry_multiplicity
 _atom_site_fract_x
 _atom_site_fract_y
 _atom_site_fract_z
 _atom_site_occupancy
  La  La0  1  0.25000000  0.07712700  0.80640400  1
  La  La1  1  0.75000000  0.92287300  0.19359600  1
  La  La2  1  0.75000000  0.57712700  0.69359600  1
  La  La3  1  0.25000000  0.42287300  0.30640400  1
  La  La4  1  0.25000000  0.74302400  0.05301800  1
  La  La5  1  0.75000000  0.25697600  0.94698200  1
  La  La6  1  0.75000000  0.24302400  0.44698200  1
  La  La7  1  0.25000000  0.75697600  0.55301800  1
  La  La8  1  0.25000000  0.73991100  0.82145900  1
  La  La9  1  0.75000000  0.26008900  0.17854100  1
  La  La10  1  0.75000000  0.23991100  0.67854100  1
  La  La11  1  0.25000000  0.76008900  0.32145900  1
  La  La12  1  0.25000000  0.89566400  0.68704600  1
  La  La13  1  0.75000000  0.10433600  0.31295400  1
  La  La14  1  0.75000000  0.39566500  0.81295400  1
  La  La15  1  0.25000000  0.60433600  0.18704600  1
  Bi  Bi0  1  0.25000000  0.55942000  0.93486600  1
  Bi  Bi1  1  0.75000000  0.44058000  0.06513400  1
  Bi  Bi2  1  0.75000000  0.05942000  0.56513400  1
  Bi  Bi3  1  0.25000000  0.94058000  0.43486600  1
  Bi  Bi4  1  0.25000000  0.42698000  0.55952500  1
  Bi  Bi5  1  0.75000000  0.57302000  0.44047500  1
  Bi  Bi6  1  0.75000000  0.92698000  0.94047500  1
  Bi  Bi7  1  0.25000000  0.07302000  0.05952500  1
  S  S0  1  0.25000000  0.68714100  0.64810100  1
  S  S1  1  0.75000000  0.31285900  0.35189900  1
  S  S2  1  0.75000000  0.18714100  0.85189900  1
  S  S3  1  0.25000000  0.81285900  0.14810100  1
  S  S4  1  0.25000000  0.27333400  0.75428700  1
  S  S5  1  0.75000000  0.72666600  0.24571300  1
  S  S6  1  0.75000000  0.77333400  0.74571300  1
  S  S7  1  0.25000000  0.22666600  0.25428700  1
  S  S8  1  0.25000000  0.40969300  0.65618800  1
  S  S9  1  0.75000000  0.59030700  0.34381200  1
  S  S10  1  0.75000000  0.90969300  0.84381200  1
  S  S11  1  0.25000000  0.09030700  0.15618800  1
  S  S12  1  0.25000000  0.37593400  0.88706500  1
  S  S13  1  0.75000000  0.62406600  0.11293500  1
  S  S14  1  0.25000000  0.09646400  0.95709500  1
  S  S15  1  0.75000000  0.87593400  0.61293500  1
  S  S16  1  0.25000000  0.53929100  0.76881000  1
  S  S17  1  0.75000000  0.46070900  0.23119000  1
  S  S18  1  0.75000000  0.03929100  0.73119000  1
  S  S19  1  0.25000000  0.96070900  0.26881000  1
  S  S20  1  0.25000000  0.71063200  0.44178600  1
  S  S21  1  0.75000000  0.28936800  0.55821400  1
  S  S22  1  0.75000000  0.21063200  0.05821400  1
  S  S23  1  0.25000000  0.78936800  0.94178600  1
  S  S24  1  0.25000000  0.11223400  0.49715100  1
  S  S25  1  0.75000000  0.88776600  0.50284900  1
  S  S26  1  0.75000000  0.61223400  0.00284900  1
  S  S27  1  0.25000000  0.38776600  0.99715100  1
  S  S28  1  0.25000000  0.39499600  0.13400000  1
  S  S29  1  0.75000000  0.60500400  0.86600000  1
  S  S30  1  0.75000000  0.89499600  0.36600000  1
  S  S31  1  0.25000000  0.10500400  0.63400000  1
  S  S32  1  0.25000000  0.40353600  0.45709500  1
  S  S33  1  0.75000000  0.59646400  0.54290500  1
  S  S34  1  0.75000000  0.90353600  0.04290500  1
  S  S35  1  0.25000000  0.12406600  0.38706500  1
loop_
_geom_bond_atom_site_label_1
_geom_bond_atom_site_label_2
_geom_bond_distance
_geom_bond_site_symmetry_2
La0 S2 2.797745 1_455
La0 S2 2.797745 1_555
La0 S4 2.952890 1_555
La0 S18 2.992968 1_555
La0 S18 2.992968 1_455
La0 S10 3.157377 1_445
La0 S10 3.157377 1_545
La1 S3 2.797745 1_555
La1 S3 2.797745 1_655
La1 S5 2.952890 1_555
La1 S19 2.992968 1_555
La1 S19 2.992968 1_655
La1 S11 3.157377 1_665
La1 S11 3.157377 1_565
La2 S0 2.797745 1_555
La2 S0 2.797745 1_655
La2 S6 2.952890 1_555
La2 S16 2.992968 1_555
La2 S16 2.992968 1_655
La2 S8 3.157377 1_555
La2 S8 3.157377 1_655
La3 S1 2.797745 1_555
La3 S1 2.797745 1_455
La3 S7 2.952890 1_555
La3 S17 2.992968 1_555
La3 S17 2.992968 1_455
La3 S9 3.157377 1_555
La3 S9 3.157377 1_455
La4 S3 2.865819 1_555
La4 S34 2.919862 1_455
La4 S34 2.919862 1_555
La4 S26 3.006242 1_455
La4 S26 3.006242 1_555
La4 S13 3.068504 1_555
La4 S13 3.068504 1_455
La4 S23 3.236574 1_554
La5 S2 2.865819 1_555
La5 S14 2.919862 1_655
La5 S14 2.919862 1_555
La5 S27 3.006242 1_555
La5 S27 3.006242 1_655
La5 S12 3.068504 1_655
La5 S12 3.068504 1_555
La5 S22 3.236574 1_556
La6 S1 2.865819 1_555
La6 S32 2.919862 1_555
La6 S32 2.919862 1_655
La6 S24 3.006242 1_655
La6 S24 3.006242 1_555
La6 S35 3.068504 1_555
La6 S35 3.068504 1_655
La6 S21 3.236574 1_555
La7 S0 2.865819 1_555
La7 S33 2.919862 1_455
La7 S33 2.919862 1_555
La7 S25 3.006242 1_455
La7 S25 3.006242 1_555
La7 S15 3.068504 1_455
La7 S15 3.068504 1_555
La7 S20 3.236574 1_555
La8 S29 2.964202 1_455
La8 S29 2.964202 1_555
La8 S6 2.995064 1_455
La8 S6 2.995064 1_555
La8 S16 3.010112 1_555
La8 S10 3.060609 1_555
La8 S10 3.060609 1_455
La8 S23 3.499591 1_555
La9 S28 2.964202 1_555
La9 S28 2.964202 1_655
La9 S7 2.995064 1_655
La9 S7 2.995064 1_555
La9 S17 3.010112 1_555
La9 S11 3.060609 1_655
La9 S11 3.060609 1_555
La9 S22 3.499591 1_555
La10 S31 2.964202 1_555
La10 S31 2.964202 1_655
La10 S4 2.995064 1_555
La10 S4 2.995064 1_655
La10 S18 3.010112 1_555
La10 S8 3.060609 1_655
La10 S8 3.060609 1_555
La10 S21 3.499591 1_555
La11 S30 2.964202 1_455
La11 S30 2.964202 1_555
La11 S5 2.995064 1_555
La11 S5 2.995064 1_455
La11 S19 3.010112 1_555
La11 S9 3.060609 1_455
La11 S9 3.060609 1_555
La11 S20 3.499591 1_555
La12 S0 2.929287 1_555
La12 S15 2.940623 1_455
La12 S15 2.940623 1_555
La12 S18 3.027833 1_565
La12 S18 3.027833 1_465
La12 S6 3.071144 1_455
La12 S6 3.071144 1_555
La12 S31 3.114259 1_565
La13 S1 2.929287 1_555
La13 S35 2.940623 1_655
La13 S35 2.940623 1_555
La13 S19 3.027833 1_545
La13 S19 3.027833 1_645
La13 S7 3.071144 1_555
La13 S7 3.071144 1_655
La13 S30 3.114259 1_545
La14 S2 2.929299 1_555
La14 S12 2.940624 1_655
La14 S12 2.940624 1_555
La14 S16 3.027825 1_655
La14 S16 3.027825 1_555
La14 S4 3.071151 1_555
La14 S4 3.071151 1_655
La14 S29 3.114248 1_555
La15 S3 2.929287 1_555
La15 S13 2.940623 1_455
La15 S13 2.940623 1_555
La15 S17 3.027833 1_455
La15 S17 3.027833 1_555
La15 S5 3.071144 1_555
La15 S5 3.071144 1_455
La15 S28 3.114259 1_555
Bi0 S12 2.748021 1_555
Bi0 S27 2.854025 1_555
Bi0 S29 2.884338 1_455
Bi0 S29 2.884338 1_555
Bi0 S26 2.888035 1_456
Bi0 S26 2.888035 1_556
Bi0 S23 2.994361 1_555
Bi1 S13 2.748021 1_555
Bi1 S26 2.854025 1_555
Bi1 S28 2.884338 1_655
Bi1 S28 2.884338 1_555
Bi1 S27 2.888035 1_554
Bi1 S27 2.888035 1_654
Bi1 S22 2.994361 1_555
Bi2 S15 2.748021 1_545
Bi2 S25 2.854025 1_545
Bi2 S31 2.884338 1_655
Bi2 S31 2.884338 1_555
Bi2 S24 2.888035 1_655
Bi2 S24 2.888035 1_555
Bi2 S21 2.994361 1_555
Bi3 S35 2.748021 1_565
Bi3 S24 2.854025 1_565
Bi3 S30 2.884338 1_455
Bi3 S30 2.884338 1_555
Bi3 S25 2.888035 1_555
Bi3 S25 2.888035 1_455
Bi3 S20 2.994361 1_555
Bi4 S21 2.700148 1_555
Bi4 S21 2.700148 1_455
Bi4 S8 2.772657 1_555
Bi4 S32 2.944220 1_555
Bi4 S33 3.027810 1_455
Bi4 S33 3.027810 1_555
Bi5 S20 2.700148 1_655
Bi5 S20 2.700148 1_555
Bi5 S9 2.772657 1_555
Bi5 S33 2.944220 1_555
Bi5 S32 3.027810 1_555
Bi5 S32 3.027810 1_655
Bi6 S23 2.700148 1_555
Bi6 S23 2.700148 1_655
Bi6 S10 2.772657 1_555
Bi6 S34 2.944220 1_556
Bi6 S14 3.027810 1_565
Bi6 S14 3.027810 1_665
Bi7 S22 2.700148 1_455
Bi7 S22 2.700148 1_555
Bi7 S11 2.772657 1_555
Bi7 S14 2.944220 1_554
Bi7 S34 3.027810 1_445
Bi7 S34 3.027810 1_545
