# generated using pymatgen
data_Na4ZnSi3Sn3(SO8)3
_symmetry_space_group_name_H-M   'P 1'
_cell_length_a   8.98021584
_cell_length_b   8.94946068
_cell_length_c   22.74402202
_cell_angle_alpha   90.20563181
_cell_angle_beta   90.30037806
_cell_angle_gamma   120.10061062
_symmetry_Int_Tables_number   1
_chemical_formula_structural   Na4ZnSi3Sn3(SO8)3
_chemical_formula_sum   'Na12 Zn3 Si9 Sn9 S9 O72'
_cell_volume   1581.33237349
_cell_formula_units_Z   3
loop_
 _symmetry_equiv_pos_site_id
 _symmetry_equiv_pos_as_xyz
  1  'x, y, z'
loop_
 _atom_site_type_symbol
 _atom_site_label
 _atom_site_symmetry_multiplicity
 _atom_site_fract_x
 _atom_site_fract_y
 _atom_site_fract_z
 _atom_site_occupancy
  Na  Na0  1  0.63235525  0.00447616  0.23951575  1
  Na  Na1  1  0.37801952  0.35702213  0.25233550  1
  Na  Na2  1  0.98610210  0.63868632  0.24546232  1
  Na  Na3  1  0.99280348  0.35610576  0.75708916  1
  Na  Na4  1  0.38200165  0.01760787  0.76030401  1
  Na  Na5  1  0.70300971  0.67819690  0.40141742  1
  Na  Na6  1  0.00894195  0.02819946  0.48685623  1
  Na  Na7  1  0.00385798  0.01585576  0.00016667  1
  Na  Na8  1  0.65760312  0.32613320  0.83661672  1
  Na  Na9  1  0.64160794  0.31138555  0.32708095  1
  Na  Na10  1  0.35403903  0.68823440  0.16303178  1
  Na  Na11  1  0.35892243  0.66248320  0.67193910  1
  Zn  Zn0  1  0.00329274  0.00363015  0.35118146  1
  Zn  Zn1  1  0.65664755  0.32282063  0.69072925  1
  Zn  Zn2  1  0.64098716  0.31010070  0.18290302  1
  Si  Si0  1  0.28452456  0.99717286  0.25202342  1
  Si  Si1  1  0.70613668  0.70038586  0.25267396  1
  Si  Si2  1  0.29786636  0.29863559  0.74884445  1
  Si  Si3  1  0.70519450  0.99284973  0.74999973  1
  Si  Si4  1  0.67141592  0.03396022  0.08726583  1
  Si  Si5  1  0.04323155  0.38463661  0.91798887  1
  Si  Si6  1  0.32754038  0.96194168  0.91491204  1
  Si  Si7  1  0.63547929  0.96634469  0.41777118  1
  Si  Si8  1  0.32446398  0.36703309  0.41725651  1
  Sn  Sn0  1  0.01401734  0.02628334  0.85615771  1
  Sn  Sn1  1  0.99110202  0.00721100  0.65124285  1
  Sn  Sn2  1  0.98938426  0.98763037  0.14949267  1
  Sn  Sn3  1  0.66884844  0.31096621  0.98039371  1
  Sn  Sn4  1  0.65463716  0.32497805  0.47917721  1
  Sn  Sn5  1  0.33436719  0.68006410  0.01808645  1
  Sn  Sn6  1  0.34192269  0.66381954  0.51429905  1
  Sn  Sn7  1  0.35014683  0.68015127  0.31536933  1
  Sn  Sn8  1  0.34206115  0.66784814  0.81872081  1
  S  S0  1  0.00363807  0.29598455  0.25150106  1
  S  S1  1  0.99905059  0.71172145  0.74876219  1
  S  S2  1  0.96368572  0.33963870  0.58380241  1
  S  S3  1  0.36040102  0.02701594  0.58472897  1
  S  S4  1  0.67284148  0.62906113  0.58457120  1
  S  S5  1  0.95647584  0.62312243  0.08346675  1
  S  S6  1  0.37137499  0.33511449  0.08261817  1
  S  S7  1  0.63195093  0.66513744  0.91876050  1
  S  S8  1  0.04067472  0.66304707  0.41978993  1
  O  O0  1  0.20157179  0.04342235  0.30552821  1
  O  O1  1  0.81513025  0.77603083  0.31276335  1
  O  O2  1  0.96945792  0.18868780  0.30311736  1
  O  O3  1  0.21162976  0.16255766  0.80263736  1
  O  O4  1  0.97374233  0.79100180  0.80100013  1
  O  O5  1  0.83389865  0.02559575  0.80501702  1
  O  O6  1  0.77144130  0.94444056  0.68863231  1
  O  O7  1  0.16960903  0.22071159  0.68931106  1
  O  O8  1  0.03297223  0.82187149  0.69428984  1
  O  O9  1  0.78557129  0.83784314  0.19756039  1
  O  O10  1  0.04301828  0.22484780  0.19742738  1
  O  O11  1  0.16797156  0.95699868  0.19002067  1
  O  O12  1  0.88595142  0.35495217  0.63803305  1
  O  O13  1  0.46280341  0.10360528  0.63800806  1
  O  O14  1  0.65665845  0.52376596  0.63510508  1
  O  O15  1  0.87859439  0.53331734  0.13806627  1
  O  O16  1  0.64527309  0.11164483  0.14717439  1
  O  O17  1  0.46726410  0.36119856  0.13790291  1
  O  O18  1  0.46066121  0.31744010  0.03009839  1
  O  O19  1  0.84859015  0.53834191  0.03033746  1
  O  O20  1  0.69921746  0.14761460  0.02761421  1
  O  O21  1  0.44095864  0.13494160  0.53125263  1
  O  O22  1  0.69042922  0.55250602  0.52782165  1
  O  O23  1  0.85714640  0.32044287  0.53044526  1
  O  O24  1  0.55255689  0.69765649  0.96993389  1
  O  O25  1  0.17260936  0.47402418  0.97330610  1
  O  O26  1  0.30674654  0.84985155  0.97251768  1
  O  O27  1  0.54292488  0.84880532  0.47686721  1
  O  O28  1  0.29061820  0.44684519  0.47838970  1
  O  O29  1  0.14483389  0.68410898  0.47395689  1
  O  O30  1  0.11562028  0.63247598  0.36620418  1
  O  O31  1  0.51514649  0.89180388  0.35848839  1
  O  O32  1  0.36672712  0.49579520  0.36024926  1
  O  O33  1  0.12420587  0.48311947  0.85477517  1
  O  O34  1  0.36484669  0.88427434  0.85405330  1
  O  O35  1  0.52594961  0.62994862  0.86350470  1
  O  O36  1  0.01998892  0.81331703  0.41706156  1
  O  O37  1  0.81399398  0.96891099  0.41393171  1
  O  O38  1  0.17084283  0.17614857  0.41251141  1
  O  O39  1  0.01240497  0.18756796  0.91631040  1
  O  O40  1  0.14539110  0.96162569  0.91034849  1
  O  O41  1  0.80291079  0.81911759  0.91087909  1
  O  O42  1  0.98204835  0.18015618  0.58314805  1
  O  O43  1  0.18390141  0.00657173  0.58823296  1
  O  O44  1  0.83179519  0.80602103  0.58635715  1
  O  O45  1  0.98352046  0.80276696  0.08295600  1
  O  O46  1  0.84863066  0.01752900  0.08768515  1
  O  O47  1  0.19827179  0.17535836  0.08486936  1
  O  O48  1  0.69856234  0.17143101  0.74456328  1
  O  O49  1  0.48451759  0.31736940  0.74239837  1
  O  O50  1  0.85191073  0.53700392  0.74077319  1
  O  O51  1  0.68614721  0.51111412  0.24091938  1
  O  O52  1  0.85742399  0.32500068  0.24263635  1
  O  O53  1  0.48160349  0.15454332  0.24622369  1
  O  O54  1  0.64738059  0.51000371  0.92642078  1
  O  O55  1  0.85723806  0.37777540  0.92144922  1
  O  O56  1  0.49315667  0.16022427  0.91965436  1
  O  O57  1  0.65535116  0.15876911  0.42438552  1
  O  O58  1  0.52038952  0.38500874  0.42447006  1
  O  O59  1  0.86624390  0.50437024  0.42549468  1
  O  O60  1  0.34913490  0.48915555  0.07632396  1
  O  O61  1  0.12936738  0.63492441  0.07901316  1
  O  O62  1  0.49759608  0.83770691  0.07901835  1
  O  O63  1  0.34005657  0.85029107  0.57744519  1
  O  O64  1  0.51575468  0.64945442  0.58175983  1
  O  O65  1  0.13889807  0.49799496  0.57911607  1
  O  O66  1  0.28720885  0.81034225  0.25645660  1
  O  O67  1  0.50836842  0.67654756  0.25327648  1
  O  O68  1  0.16350941  0.47113024  0.25786335  1
  O  O69  1  0.29890416  0.48200810  0.75643368  1
  O  O70  1  0.15928704  0.69884790  0.75240787  1
  O  O71  1  0.50724827  0.83067499  0.75615504  1
loop_
_geom_bond_atom_site_label_1
_geom_bond_atom_site_label_2
_geom_bond_distance
_geom_bond_site_symmetry_2
Na0 O16 2.291211 1_555
Na0 O53 2.341813 1_555
Na0 O52 2.549552 1_555
Na0 O67 2.585203 1_545
Na0 O9 2.662566 1_545
Na0 O66 2.718410 1_545
Na0 O31 2.903707 1_545
Na0 O2 2.984249 1_555
Na1 O51 2.410058 1_555
Na1 O53 2.420435 1_555
Na1 O67 2.487907 1_555
Na1 O68 2.596975 1_555
Na1 O17 2.722140 1_555
Na1 O0 2.726720 1_555
Na1 O32 2.771969 1_555
Na1 O10 2.896512 1_555
Na2 O51 2.341258 1_555
Na2 O66 2.357481 1_655
Na2 O52 2.442237 1_555
Na2 O15 2.614052 1_555
Na2 O68 2.694604 1_655
Na2 O11 2.784478 1_655
Na2 O1 2.848734 1_555
Na2 O30 2.988262 1_655
Na3 O48 2.324447 1_555
Na3 O69 2.391616 1_655
Na3 O33 2.495955 1_655
Na3 O50 2.532490 1_555
Na3 O70 2.656955 1_655
Na3 O5 2.789157 1_555
Na3 O12 2.866310 1_555
Na3 O7 2.882281 1_655
Na4 O49 2.396833 1_555
Na4 O34 2.414821 1_545
Na4 O71 2.441319 1_545
Na4 O48 2.488684 1_555
Na4 O70 2.537736 1_545
Na4 O3 2.635885 1_555
Na4 O13 2.886516 1_555
Na5 O1 2.235120 1_555
Na5 O37 2.287826 1_555
Na5 O58 2.356238 1_555
Na5 O36 2.495062 1_655
Na5 O59 2.674654 1_555
Na5 O32 2.770542 1_555
Na6 O38 2.199332 1_555
Na6 O37 2.264696 1_445
Na6 O36 2.529636 1_545
Na6 O42 2.649098 1_455
Na6 O43 2.844754 1_555
Na6 O44 2.915995 1_445
Na7 O39 2.430889 1_554
Na7 O46 2.440366 1_455
Na7 O47 2.498461 1_555
Na7 O40 2.581271 1_544
Na7 O45 2.625966 1_445
Na7 O41 2.688759 1_444
Na8 O56 2.408799 1_555
Na8 O55 2.505308 1_555
Na8 O49 2.618352 1_555
Na8 O48 2.633180 1_555
Na8 O54 2.649042 1_555
Na8 O50 2.850341 1_555
Na9 O53 2.312489 1_555
Na9 O51 2.551769 1_555
Na9 O57 2.639403 1_555
Na9 O58 2.694375 1_555
Na9 O52 2.695100 1_555
Na9 O59 2.914219 1_555
Na10 O62 2.327441 1_555
Na10 O67 2.502332 1_555
Na10 O66 2.593057 1_555
Na10 O61 2.633907 1_555
Na10 O60 2.638275 1_555
Na10 O68 2.844098 1_555
Na11 O71 2.377019 1_555
Na11 O69 2.398394 1_555
Na11 O64 2.529269 1_555
Na11 O70 2.699047 1_555
Na11 O65 2.746740 1_555
Na11 O63 2.789336 1_555
O0 Si0 1.588171 1_545
O0 Zn0 1.939452 1_555
O1 Si1 1.612087 1_555
O1 Zn0 2.070533 1_665
O2 S0 1.452828 1_655
O2 Zn0 2.131781 1_655
O3 Si2 1.629218 1_555
O3 Sn0 1.995191 1_555
O4 S1 1.457798 1_555
O4 Sn0 2.313164 1_665
O5 Si3 1.621722 1_545
O5 Sn0 1.984818 1_655
O6 Si3 1.659094 1_555
O6 Sn1 1.959440 1_565
O7 Si2 1.678549 1_555
O7 Sn1 1.967618 1_455
O8 S1 1.520199 1_455
O8 Sn1 2.117677 1_465
O9 Si1 1.653387 1_555
O9 Sn2 1.978040 1_555
O10 S0 1.505879 1_555
O10 Sn2 2.209033 1_445
O11 Si0 1.678348 1_555
O11 Sn2 1.980942 1_455
O12 S2 1.459860 1_555
O12 Zn1 2.279003 1_555
O13 S3 1.460823 1_555
O13 Zn1 2.202880 1_555
O14 S4 1.449920 1_555
O14 Zn1 2.202441 1_555
O15 S5 1.459332 1_555
O15 Zn2 2.312030 1_555
O16 Si4 1.598534 1_555
O16 Zn2 1.968449 1_555
O17 S6 1.470360 1_555
O17 Zn2 2.095868 1_555
O18 S6 1.493544 1_555
O18 Sn3 2.215168 1_554
O19 S5 1.489400 1_555
O19 Sn3 2.169359 1_554
O20 Si4 1.642054 1_555
O20 Sn3 1.942447 1_554
O21 S3 1.500787 1_555
O21 Sn4 2.177672 1_555
O22 S4 1.504863 1_555
O22 Sn4 2.190276 1_555
O23 S2 1.496350 1_555
O23 Sn4 2.172709 1_555
O24 S7 1.470396 1_555
O24 Sn5 2.185803 1_556
O25 Si5 1.617998 1_555
O25 Sn5 1.957515 1_556
O26 Si6 1.606818 1_555
O26 Sn5 1.957354 1_556
O27 Si7 1.657950 1_555
O27 Sn6 1.937160 1_555
O28 Si8 1.658579 1_555
O28 Sn6 1.933189 1_555
O29 S8 1.495866 1_555
O29 Sn6 2.076999 1_555
O30 S8 1.484617 1_555
O30 Sn7 2.254375 1_555
O31 Si7 1.638883 1_555
O31 Sn7 1.975208 1_555
O32 Si8 1.652351 1_555
O32 Sn7 2.010754 1_555
O33 Si5 1.658273 1_555
O33 Sn8 2.003848 1_555
O34 Si6 1.656151 1_555
O34 Sn8 2.007185 1_555
O35 S7 1.506199 1_555
O35 Sn8 2.103843 1_555
O36 S8 1.448447 1_555
O36 Zn0 2.332513 1_565
O37 Si7 1.594565 1_555
O37 Zn0 2.126511 1_665
O38 Si8 1.570474 1_555
O38 Zn0 2.055678 1_555
O39 Si5 1.642642 1_555
O39 Sn0 1.990572 1_555
O40 Si6 1.637072 1_555
O40 Sn0 1.980000 1_565
O41 S7 1.473337 1_555
O41 Sn0 2.257471 1_665
O42 S2 1.516739 1_555
O42 Sn1 2.223269 1_555
O43 S3 1.504199 1_555
O43 Sn1 2.255521 1_455
O44 S4 1.509554 1_555
O44 Sn1 2.200353 1_565
O45 S5 1.500801 1_555
O45 Sn2 2.218969 1_555
O46 Si4 1.670011 1_555
O46 Sn2 1.992169 1_545
O47 S6 1.495098 1_555
O47 Sn2 2.321043 1_445
O48 Si3 1.633988 1_545
O48 Zn1 1.998768 1_555
O49 Si2 1.606244 1_555
O49 Zn1 1.927847 1_555
O50 S1 1.465255 1_555
O50 Zn1 2.153261 1_555
O51 Si1 1.632232 1_555
O51 Zn2 2.094624 1_555
O52 S0 1.473684 1_655
O52 Zn2 2.313510 1_555
O53 Si0 1.623824 1_545
O53 Zn2 2.024389 1_555
O54 S7 1.473617 1_555
O54 Sn3 2.252707 1_555
O55 Si5 1.642644 1_655
O55 Sn3 2.007946 1_555
O56 Si6 1.649928 1_545
O56 Sn3 2.011592 1_555
O57 Si7 1.646116 1_545
O57 Sn4 1.939576 1_555
O58 Si8 1.691553 1_555
O58 Sn4 1.982156 1_555
O59 S8 1.503125 1_655
O59 Sn4 2.158146 1_555
O60 S6 1.496049 1_555
O60 Sn5 2.220985 1_555
O61 S5 1.506397 1_455
O61 Sn5 2.181121 1_555
O62 Si4 1.673673 1_565
O62 Sn5 1.987453 1_555
O63 S3 1.506727 1_565
O63 Sn6 2.204314 1_555
O64 S4 1.511548 1_555
O64 Sn6 2.232749 1_555
O65 S2 1.503904 1_455
O65 Sn6 2.242692 1_555
O66 Si0 1.687618 1_555
O66 Sn7 2.033756 1_555
O67 Si1 1.679320 1_555
O67 Sn7 2.020148 1_555
O68 S0 1.509313 1_555
O68 Sn7 2.198564 1_555
O69 Si2 1.644886 1_555
O69 Sn8 2.062535 1_555
O70 S1 1.501950 1_455
O70 Sn8 2.340840 1_555
O71 Si3 1.643841 1_555
O71 Sn8 2.053705 1_555
