# generated using pymatgen
data_Na4Ca3ZrP2(SO6)4
_symmetry_space_group_name_H-M   'P 1'
_cell_length_a   9.23169606
_cell_length_b   9.24735664
_cell_length_c   23.80147542
_cell_angle_alpha   90.22442946
_cell_angle_beta   90.02667991
_cell_angle_gamma   119.87469409
_symmetry_Int_Tables_number   1
_chemical_formula_structural   Na4Ca3ZrP2(SO6)4
_chemical_formula_sum   'Na12 Ca9 Zr3 P6 S12 O72'
_cell_volume   1761.87698361
_cell_formula_units_Z   3
loop_
 _symmetry_equiv_pos_site_id
 _symmetry_equiv_pos_as_xyz
  1  'x, y, z'
loop_
 _atom_site_type_symbol
 _atom_site_label
 _atom_site_symmetry_multiplicity
 _atom_site_fract_x
 _atom_site_fract_y
 _atom_site_fract_z
 _atom_site_occupancy
  Na  Na0  1  0.63494541  0.99818630  0.25449346  1
  Na  Na1  1  0.36267135  0.36294413  0.25011088  1
  Na  Na2  1  0.31116982  0.34281910  0.59125657  1
  Na  Na3  1  0.66606791  0.95395217  0.58141861  1
  Na  Na4  1  0.98132048  0.68108105  0.91354024  1
  Na  Na5  1  0.31996594  0.29647777  0.90989098  1
  Na  Na6  1  0.98108481  0.97825186  0.49661886  1
  Na  Na7  1  0.98885270  0.00061860  0.99597010  1
  Na  Na8  1  0.65609802  0.32199259  0.82350855  1
  Na  Na9  1  0.67798576  0.33574124  0.33719025  1
  Na  Na10  1  0.32052727  0.66602158  0.16055530  1
  Na  Na11  1  0.32985737  0.65968007  0.67169909  1
  Ca  Ca0  1  0.99340227  0.99610597  0.35366713  1
  Ca  Ca1  1  0.99626241  0.00395739  0.84743354  1
  Ca  Ca2  1  0.00148976  0.99303428  0.65551762  1
  Ca  Ca3  1  0.99993545  0.99566937  0.14471042  1
  Ca  Ca4  1  0.66425697  0.34246568  0.68724523  1
  Ca  Ca5  1  0.67512573  0.34088517  0.18060990  1
  Ca  Ca6  1  0.33747242  0.67012854  0.01657095  1
  Ca  Ca7  1  0.33587725  0.67096019  0.51288794  1
  Ca  Ca8  1  0.33290022  0.67626281  0.32451435  1
  Zr  Zr0  1  0.66623973  0.32662200  0.97839927  1
  Zr  Zr1  1  0.66971342  0.33849696  0.48158173  1
  Zr  Zr2  1  0.33605222  0.66143808  0.81843317  1
  P  P0  1  0.30193987  0.30657740  0.75212692  1
  P  P1  1  0.66532434  0.62715147  0.58169892  1
  P  P2  1  0.62837452  0.66268412  0.91878710  1
  P  P3  1  0.04052710  0.37616721  0.91823697  1
  P  P4  1  0.33464743  0.95985709  0.91738240  1
  P  P5  1  0.63819910  0.97685759  0.41891204  1
  S  S0  1  0.29877370  0.00131388  0.24935617  1
  S  S1  1  0.69891956  0.70131746  0.24989421  1
  S  S2  1  0.00219398  0.29562843  0.24978700  1
  S  S3  1  0.00844685  0.69855379  0.75386626  1
  S  S4  1  0.69094547  0.99359612  0.75021248  1
  S  S5  1  0.95821650  0.33267949  0.58239723  1
  S  S6  1  0.37868857  0.04540123  0.58185726  1
  S  S7  1  0.95986005  0.62594838  0.08047588  1
  S  S8  1  0.66685962  0.04107894  0.08326985  1
  S  S9  1  0.37389886  0.33320546  0.08244307  1
  S  S10  1  0.33787685  0.36450871  0.41780956  1
  S  S11  1  0.02754520  0.66163950  0.41873457  1
  O  O0  1  0.21928240  0.02317041  0.29984332  1
  O  O1  1  0.79776840  0.77953441  0.30063150  1
  O  O2  1  0.97935952  0.19315388  0.29999800  1
  O  O3  1  0.21526413  0.20473665  0.80438384  1
  O  O4  1  0.98642180  0.77577933  0.80472609  1
  O  O5  1  0.79513633  0.01222822  0.79861052  1
  O  O6  1  0.75961293  0.96644587  0.69698287  1
  O  O7  1  0.20324665  0.23635575  0.69634179  1
  O  O8  1  0.03230311  0.79914514  0.70302983  1
  O  O9  1  0.77891224  0.80255718  0.19970119  1
  O  O10  1  0.02408293  0.21557779  0.19909420  1
  O  O11  1  0.20081176  0.98361229  0.19863850  1
  O  O12  1  0.88033118  0.35037531  0.63300028  1
  O  O13  1  0.47909835  0.12066274  0.63225435  1
  O  O14  1  0.64142956  0.52090505  0.63289898  1
  O  O15  1  0.87916185  0.53125875  0.13161215  1
  O  O16  1  0.65297033  0.11707610  0.13636217  1
  O  O17  1  0.46571747  0.34685262  0.13513812  1
  O  O18  1  0.47062880  0.32196288  0.03246679  1
  O  O19  1  0.85507854  0.53173580  0.02951228  1
  O  O20  1  0.67709064  0.15098920  0.03427074  1
  O  O21  1  0.46928935  0.15250185  0.53141794  1
  O  O22  1  0.67767574  0.52611793  0.52912504  1
  O  O23  1  0.85108242  0.31653748  0.53169298  1
  O  O24  1  0.55080593  0.68691360  0.97103090  1
  O  O25  1  0.14538674  0.45502132  0.97014806  1
  O  O26  1  0.30453012  0.85529414  0.96938783  1
  O  O27  1  0.55096323  0.87269086  0.47075175  1
  O  O28  1  0.31728534  0.44546926  0.46764513  1
  O  O29  1  0.12679829  0.67915233  0.46832857  1
  O  O30  1  0.09638166  0.63142813  0.36704754  1
  O  O31  1  0.53854967  0.90835646  0.36341720  1
  O  O32  1  0.36343091  0.46242025  0.36576643  1
  O  O33  1  0.12529116  0.49431224  0.86606239  1
  O  O34  1  0.36225437  0.87424686  0.86500603  1
  O  O35  1  0.51040423  0.63168514  0.86651647  1
  O  O36  1  0.00573665  0.80835279  0.41374534  1
  O  O37  1  0.81466655  0.00074269  0.41503293  1
  O  O38  1  0.19409056  0.19501820  0.41265908  1
  O  O39  1  0.01803024  0.20296087  0.90980047  1
  O  O40  1  0.18638750  0.99073839  0.90961151  1
  O  O41  1  0.80834106  0.80027027  0.90994684  1
  O  O42  1  0.96775680  0.17513386  0.58318843  1
  O  O43  1  0.21510481  0.03996977  0.58391072  1
  O  O44  1  0.81925941  0.80483602  0.58185082  1
  O  O45  1  0.96918682  0.79004862  0.08114693  1
  O  O46  1  0.82133182  0.03097006  0.08239994  1
  O  O47  1  0.20918842  0.17939501  0.08231802  1
  O  O48  1  0.67033234  0.14134494  0.74585988  1
  O  O49  1  0.47896035  0.33137706  0.74924714  1
  O  O50  1  0.86374562  0.52913389  0.74805600  1
  O  O51  1  0.67039768  0.52756906  0.24539165  1
  O  O52  1  0.84762285  0.30925249  0.24525083  1
  O  O53  1  0.47006579  0.15644580  0.24555832  1
  O  O54  1  0.63406994  0.49100597  0.92520478  1
  O  O55  1  0.86383171  0.36785364  0.92505593  1
  O  O56  1  0.49586974  0.14142886  0.92557931  1
  O  O57  1  0.65384947  0.15609381  0.42813743  1
  O  O58  1  0.49484646  0.35080604  0.42467001  1
  O  O59  1  0.85521687  0.50704863  0.42522439  1
  O  O60  1  0.35737033  0.48316301  0.07857240  1
  O  O61  1  0.12699330  0.64337274  0.07745686  1
  O  O62  1  0.51714850  0.87562045  0.07848370  1
  O  O63  1  0.35951709  0.87792616  0.57503589  1
  O  O64  1  0.50400939  0.64113295  0.57608021  1
  O  O65  1  0.12895045  0.47586309  0.57572673  1
  O  O66  1  0.32649695  0.85546037  0.25336111  1
  O  O67  1  0.52782003  0.68544749  0.25430605  1
  O  O68  1  0.15552579  0.46307608  0.25531334  1
  O  O69  1  0.31744539  0.48701462  0.76098424  1
  O  O70  1  0.16531320  0.68558830  0.75977312  1
  O  O71  1  0.52056984  0.83901561  0.75814584  1
loop_
_geom_bond_atom_site_label_1
_geom_bond_atom_site_label_2
_geom_bond_distance
_geom_bond_site_symmetry_2
Na0 O66 2.471158 1_555
Na0 O67 2.548026 1_555
Na0 O52 2.560617 1_565
Na0 O53 2.593287 1_565
Na0 O31 2.736028 1_555
Na1 O51 2.468562 1_555
Na1 O68 2.508577 1_555
Na1 O53 2.554530 1_555
Na1 O67 2.587750 1_555
Na1 O32 2.897883 1_555
Na1 O17 2.925047 1_555
Na1 O10 2.973528 1_555
Na1 O0 2.985437 1_555
Na2 O64 2.454732 1_555
Na2 O43 2.486353 1_555
Na2 O65 2.558282 1_555
Na2 O7 2.694858 1_555
Na2 O42 2.755327 1_455
Na2 O14 2.823551 1_555
Na3 O44 2.417515 1_555
Na3 O42 2.503260 1_565
Na3 O64 2.511567 1_555
Na3 O63 2.557903 1_555
Na3 O27 2.796135 1_555
Na3 O6 2.867197 1_555
Na4 O41 2.350789 1_555
Na4 O40 2.528672 1_655
Na4 O55 2.553069 1_555
Na4 O4 2.730139 1_555
Na4 O54 2.799018 1_555
Na4 O33 2.880856 1_655
Na4 O26 2.907926 1_655
Na4 O19 3.051926 1_556
Na5 O40 2.457808 1_545
Na5 O39 2.473049 1_555
Na5 O54 2.564092 1_555
Na5 O3 2.669156 1_555
Na5 O56 2.674947 1_555
Na5 O35 2.891893 1_555
Na6 O37 2.548153 1_565
Na6 O44 2.561356 1_555
Na6 O36 2.596795 1_655
Na6 O42 2.787376 1_565
Na6 O38 2.826056 1_665
Na6 O43 2.840423 1_665
Na7 O46 2.670804 1_556
Na7 O41 2.700566 1_545
Na7 O39 2.703447 1_655
Na7 O45 2.759309 1_546
Na7 O47 2.777394 1_656
Na7 O40 2.779698 1_645
Na8 O49 2.438386 1_555
Na8 O48 2.533432 1_555
Na8 O50 2.634613 1_555
Na8 O56 2.907369 1_555
Na8 O54 2.937765 1_555
Na8 O55 2.979392 1_555
Na9 O59 2.639256 1_555
Na9 O57 2.674909 1_555
Na9 O58 2.729250 1_555
Na9 O52 2.771687 1_555
Na9 O53 2.826184 1_555
Na9 O51 2.842466 1_555
Na10 O61 2.601655 1_555
Na10 O60 2.707467 1_555
Na10 O62 2.719467 1_555
Na10 O66 2.797243 1_555
Na10 O68 2.849134 1_555
Na10 O67 2.885129 1_555
Na11 O69 2.631207 1_555
Na11 O70 2.668492 1_555
Na11 O71 2.672959 1_555
Na11 O64 2.840565 1_555
Na11 O65 2.893477 1_555
Na11 O63 2.987959 1_555
Ca0 O37 2.220366 1_565
Ca0 O2 2.285233 1_565
Ca0 O1 2.289301 1_555
Ca0 O36 2.299659 1_655
Ca0 O38 2.317280 1_665
Ca0 O0 2.353127 1_665
Ca1 O3 2.204986 1_655
Ca1 O5 2.223478 1_555
Ca1 O39 2.289183 1_655
Ca1 O4 2.299122 1_545
Ca1 O40 2.344891 1_645
Ca1 O41 2.353808 1_545
Ca2 O8 2.257909 1_555
Ca2 O7 2.298326 1_565
Ca2 O6 2.340406 1_455
Ca2 O44 2.447429 1_455
Ca2 O43 2.477567 1_565
Ca2 O42 2.537904 1_465
Ca3 O11 2.302991 1_655
Ca3 O10 2.321232 1_665
Ca3 O45 2.329018 1_555
Ca3 O9 2.335873 1_555
Ca3 O46 2.358472 1_565
Ca3 O47 2.361440 1_665
Ca4 O14 2.191642 1_555
Ca4 O49 2.223346 1_555
Ca4 O50 2.297221 1_555
Ca4 O13 2.307832 1_555
Ca4 O12 2.347138 1_555
Ca4 O48 2.352158 1_555
Ca5 O15 2.172997 1_555
Ca5 O16 2.235044 1_555
Ca5 O17 2.239741 1_555
Ca5 O51 2.326771 1_555
Ca5 O52 2.335352 1_555
Ca5 O53 2.385208 1_555
Ca6 O24 2.185499 1_554
Ca6 O25 2.188417 1_554
Ca6 O26 2.195251 1_554
Ca6 O62 2.317240 1_555
Ca6 O61 2.337387 1_555
Ca6 O60 2.353052 1_555
Ca7 O27 2.180574 1_555
Ca7 O29 2.236168 1_555
Ca7 O28 2.272178 1_555
Ca7 O64 2.274869 1_555
Ca7 O63 2.336684 1_555
Ca7 O65 2.394061 1_555
Ca8 O31 2.234199 1_555
Ca8 O30 2.251175 1_555
Ca8 O32 2.350341 1_555
Ca8 O66 2.395221 1_555
Ca8 O67 2.426789 1_555
Ca8 O68 2.456995 1_555
O0 S0 1.473111 1_555
O1 S1 1.465892 1_555
O2 S2 1.476746 1_655
O3 P0 1.527608 1_555
O4 S3 1.467938 1_655
O5 S4 1.454012 1_545
O6 S4 1.492260 1_555
O7 P0 1.554824 1_555
O8 S3 1.477437 1_555
O9 S1 1.473054 1_555
O10 S2 1.478803 1_555
O11 S0 1.466914 1_565
O12 S5 1.452886 1_555
O13 S6 1.460210 1_555
O14 P1 1.514187 1_555
O15 S7 1.470524 1_555
O16 S8 1.479922 1_555
O17 S9 1.482799 1_555
O18 S9 1.521730 1_555
O18 Zr0 2.200912 1_554
O19 S7 1.522230 1_555
O19 Zr0 2.191504 1_554
O20 S8 1.521790 1_555
O20 Zr0 2.143634 1_554
O21 S6 1.518797 1_555
O21 Zr1 2.153241 1_555
O22 P1 1.596512 1_555
O22 Zr1 2.038047 1_555
O23 S5 1.518986 1_555
O23 Zr1 2.146159 1_555
O24 P2 1.505893 1_555
O25 P3 1.511304 1_555
O26 P4 1.512051 1_555
O27 P5 1.528492 1_555
O28 S10 1.462413 1_555
O29 S11 1.452179 1_555
O30 S11 1.473174 1_555
O31 P5 1.550483 1_555
O32 S10 1.485295 1_555
O33 P3 1.583651 1_555
O33 Zr2 2.116482 1_555
O34 P4 1.561843 1_555
O34 Zr2 2.160657 1_555
O35 P2 1.581457 1_555
O35 Zr2 2.101926 1_555
O36 S11 1.472633 1_555
O37 P5 1.533980 1_545
O38 S10 1.469457 1_555
O39 P3 1.521497 1_555
O40 P4 1.542280 1_555
O41 P2 1.523124 1_555
O42 S5 1.502881 1_555
O43 S6 1.486609 1_555
O44 P1 1.546967 1_555
O45 S7 1.476516 1_555
O46 S8 1.474982 1_555
O47 S9 1.476673 1_555
O48 S4 1.474376 1_545
O49 P0 1.534527 1_555
O50 S3 1.473539 1_655
O51 S1 1.496501 1_555
O52 S2 1.497593 1_655
O53 S0 1.519194 1_555
O54 P2 1.622196 1_555
O54 Zr0 2.113397 1_555
O55 P3 1.602646 1_655
O55 Zr0 2.097104 1_555
O56 P4 1.606270 1_545
O56 Zr0 2.070040 1_555
O57 P5 1.604626 1_545
O57 Zr1 2.054656 1_555
O58 S10 1.524947 1_555
O58 Zr1 2.153161 1_555
O59 S11 1.527980 1_655
O59 Zr1 2.126228 1_555
O60 S9 1.471909 1_555
O61 S7 1.471144 1_455
O62 S8 1.468347 1_565
O63 S6 1.476857 1_565
O64 P1 1.563366 1_555
O65 S5 1.478344 1_455
O66 S0 1.496198 1_565
O67 S1 1.515538 1_555
O68 S2 1.494443 1_555
O69 P0 1.615032 1_555
O69 Zr2 2.051176 1_555
O70 S3 1.517949 1_555
O70 Zr2 2.198805 1_555
O71 S4 1.521666 1_555
O71 Zr2 2.211633 1_555
