# generated using pymatgen
data_Th2NiB10
_symmetry_space_group_name_H-M   'P 1'
_cell_length_a   4.17818765
_cell_length_b   5.64305200
_cell_length_c   11.20193650
_cell_angle_alpha   90.00022158
_cell_angle_beta   90.00000000
_cell_angle_gamma   90.00000351
_symmetry_Int_Tables_number   1
_chemical_formula_structural   Th2NiB10
_chemical_formula_sum   'Th4 Ni2 B20'
_cell_volume   264.11623623
_cell_formula_units_Z   2
loop_
 _symmetry_equiv_pos_site_id
 _symmetry_equiv_pos_as_xyz
  1  'x, y, z'
loop_
 _atom_site_type_symbol
 _atom_site_label
 _atom_site_symmetry_multiplicity
 _atom_site_fract_x
 _atom_site_fract_y
 _atom_site_fract_z
 _atom_site_occupancy
  Th  Th0  1  0.49999997  0.30640063  0.86382155  1
  Th  Th1  1  0.50000002  0.69359678  0.13615049  1
  Th  Th2  1  0.50000004  0.80640060  0.63616285  1
  Th  Th3  1  0.49999982  0.19359722  0.36386301  1
  Ni  Ni0  1  0.00000050  0.49995536  0.50008770  1
  Ni  Ni1  1  -0.00000010  -0.00004784  -0.00007919  1
  B  B0  1  -0.00000002  0.12528469  0.54052266  1
  B  B1  1  -0.00000001  0.87471104  0.45948562  1
  B  B2  1  0.00000004  0.62529212  0.95947213  1
  B  B3  1  0.00000002  0.37470320  0.04051733  1
  B  B4  1  0.00000002  0.15367242  0.69720314  1
  B  B5  1  -0.00000009  0.84634041  0.30279940  1
  B  B6  1  0.29996060  0.20077754  0.11349356  1
  B  B7  1  0.29995419  0.79923368  0.88650346  1
  B  B8  1  0.70002936  0.70077947  0.38651167  1
  B  B9  1  0.70003656  0.29923109  0.61349030  1
  B  B10  1  0.70004583  0.79923369  0.88650346  1
  B  B11  1  0.70003937  0.20077757  0.11349355  1
  B  B12  1  0.29996345  0.29923114  0.61349028  1
  B  B13  1  0.29997051  0.70077952  0.38651165  1
  B  B14  1  -0.00000004  0.03491203  0.18813372  1
  B  B15  1  -0.00000001  0.96510718  0.81187844  1
  B  B16  1  -0.00000007  0.53490703  0.31187018  1
  B  B17  1  0.00000005  0.46511153  0.68811702  1
  B  B18  1  -0.00000001  0.34633841  0.19720600  1
  B  B19  1  0.00000001  0.65367448  0.80279002  1
loop_
_geom_bond_atom_site_label_1
_geom_bond_atom_site_label_2
_geom_bond_distance
_geom_bond_site_symmetry_2
Ni0 Th2 3.110984 1_555
Ni0 Th2 3.110987 1_455
Ni0 Th3 3.111532 1_555
Ni0 Th3 3.111535 1_455
Ni1 Th0 3.111134 1_454
Ni1 Th0 3.111135 1_554
Ni1 Th1 3.111558 1_445
Ni1 Th1 3.111559 1_545
B0 B1 1.680308 1_545
B0 B4 1.762420 1_555
B0 B9 1.789522 1_455
B0 B12 1.789522 1_555
B0 Ni0 2.162262 1_555
B0 Th3 2.903289 1_555
B0 Th3 2.903289 1_455
B0 Th2 2.958083 1_445
B0 Th2 2.958084 1_545
B1 B5 1.762475 1_555
B1 B13 1.789529 1_555
B1 B8 1.789529 1_455
B1 Ni0 2.163124 1_555
B1 Th2 2.903421 1_455
B1 Th2 2.903422 1_555
B1 Th3 2.958019 1_565
B1 Th3 2.958020 1_465
B2 B3 1.680436 1_556
B2 B7 1.789488 1_555
B2 Ni1 2.162232 1_566
B2 Th1 2.903424 1_556
B2 Th1 2.903424 1_456
B2 Th0 2.958146 1_555
B2 Th0 2.958146 1_455
B3 B6 1.789497 1_555
B3 Ni1 2.163082 1_555
B3 Th0 2.903555 1_554
B3 Th0 2.903556 1_454
B3 Th1 2.958082 1_555
B3 Th1 2.958082 1_455
B4 B9 1.767720 1_455
B4 Th0 2.930993 1_555
B4 Th0 2.930994 1_455
B4 Th2 2.944853 1_445
B4 Th2 2.944854 1_545
B5 B8 1.767743 1_455
B5 Th1 2.931236 1_455
B5 Th1 2.931237 1_555
B5 Th3 2.944857 1_565
B5 Th3 2.944858 1_465
B6 Ni1 2.115090 1_555
B6 Th1 2.914955 1_555
B6 Th3 2.926793 1_555
B6 Th0 2.979259 1_554
B6 Th1 2.992374 1_545
B7 Ni1 2.113705 1_566
B7 Th0 2.915061 1_555
B7 Th2 2.926490 1_555
B7 Th1 2.979019 1_556
B7 Th0 2.992330 1_565
B8 Ni0 2.115140 1_655
B8 Th3 2.914929 1_565
B8 Th1 2.926692 1_555
B8 Th2 2.979022 1_555
B8 Th3 2.992361 1_555
B9 Ni0 2.113652 1_655
B9 Th2 2.915029 1_545
B9 Th0 2.926378 1_555
B9 Th3 2.978793 1_555
B9 Th2 2.992323 1_555
B10 B7 1.671658 1_555
B10 B19 1.767694 1_655
B10 B15 1.773595 1_655
B10 B2 1.789489 1_655
B10 Ni1 2.113704 1_666
B10 Th0 2.915061 1_555
B10 Th2 2.926490 1_555
B10 Th1 2.979019 1_556
B10 Th0 2.992331 1_565
B11 B6 1.671604 1_555
B11 B18 1.767711 1_655
B11 B14 1.773670 1_655
B11 B3 1.789497 1_655
B11 Ni1 2.115090 1_655
B11 Th1 2.914955 1_555
B11 Th3 2.926793 1_555
B11 Th0 2.979259 1_554
B11 Th1 2.992374 1_545
B12 B9 1.671581 1_555
B12 B4 1.767720 1_555
B12 B17 1.773649 1_555
B12 Ni0 2.113649 1_555
B12 Th2 2.915029 1_545
B12 Th0 2.926378 1_555
B12 Th3 2.978793 1_555
B12 Th2 2.992323 1_555
B13 B8 1.671521 1_555
B13 B5 1.767743 1_555
B13 B16 1.773724 1_555
B13 Ni0 2.115137 1_555
B13 Th3 2.914928 1_565
B13 Th1 2.926692 1_555
B13 Th2 2.979022 1_555
B13 Th3 2.992361 1_555
B14 B5 1.668006 1_545
B14 B18 1.760331 1_555
B14 B6 1.773670 1_555
B14 Ni1 2.117558 1_555
B14 Th1 2.900534 1_445
B14 Th1 2.900534 1_545
B14 Th3 3.006857 1_555
B14 Th3 3.006857 1_455
B15 B4 1.668066 1_565
B15 B19 1.760377 1_555
B15 B7 1.773595 1_555
B15 Ni1 2.115596 1_566
B15 Th0 2.900362 1_565
B15 Th0 2.900362 1_465
B15 Th2 3.006792 1_455
B15 Th2 3.006793 1_555
B16 B18 1.667976 1_555
B16 B5 1.760370 1_555
B16 B8 1.773724 1_455
B16 Ni0 2.117607 1_555
B16 Th3 2.900538 1_555
B16 Th3 2.900539 1_455
B16 Th1 3.006799 1_455
B16 Th1 3.006799 1_555
B17 B19 1.668031 1_555
B17 B4 1.760412 1_555
B17 B9 1.773649 1_455
B17 Ni0 2.115451 1_555
B17 Th2 2.900374 1_555
B17 Th2 2.900374 1_455
B17 Th0 3.006723 1_555
B17 Th0 3.006723 1_455
B18 B3 1.762500 1_555
B18 B6 1.767711 1_555
B18 Th3 2.931294 1_555
B18 Th3 2.931295 1_455
B18 Th1 2.944846 1_455
B18 Th1 2.944846 1_555
B19 B2 1.762436 1_555
B19 B7 1.767694 1_555
B19 Th2 2.931057 1_455
B19 Th2 2.931057 1_555
B19 Th0 2.944842 1_555
B19 Th0 2.944842 1_455
