# generated using pymatgen
data_NdMgCu(WO4)2
_symmetry_space_group_name_H-M   'P 1'
_cell_length_a   5.41969776
_cell_length_b   6.04886748
_cell_length_c   6.17607922
_cell_angle_alpha   107.54134742
_cell_angle_beta   89.36108620
_cell_angle_gamma   117.51385201
_symmetry_Int_Tables_number   1
_chemical_formula_structural   NdMgCu(WO4)2
_chemical_formula_sum   'Nd1 Mg1 Cu1 W2 O8'
_cell_volume   169.24564684
_cell_formula_units_Z   1
loop_
 _symmetry_equiv_pos_site_id
 _symmetry_equiv_pos_as_xyz
  1  'x, y, z'
loop_
 _atom_site_type_symbol
 _atom_site_label
 _atom_site_symmetry_multiplicity
 _atom_site_fract_x
 _atom_site_fract_y
 _atom_site_fract_z
 _atom_site_occupancy
  Nd  Nd0  1  0.39684484  0.91025180  0.33544016  1
  Mg  Mg0  1  0.93031726  0.99688430  0.03949095  1
  Cu  Cu0  1  0.79688929  0.65206879  0.47932917  1
  W  W0  1  0.13228243  0.41882144  0.66724518  1
  W  W1  1  0.61017828  0.39589417  0.95188601  1
  O  O0  1  0.87605294  0.18637538  0.36820011  1
  O  O1  1  0.40311329  0.64567635  0.53427014  1
  O  O2  1  0.87029768  0.22171051  0.86673752  1
  O  O3  1  0.44898572  0.64563929  0.97581618  1
  O  O4  1  0.36225896  0.15992720  0.08899234  1
  O  O5  1  0.91103139  0.70739877  0.19930643  1
  O  O6  1  0.32722994  0.19804867  0.65238202  1
  O  O7  1  0.89061598  0.61465333  0.75980479  1
loop_
_geom_bond_atom_site_label_1
_geom_bond_atom_site_label_2
_geom_bond_distance
_geom_bond_site_symmetry_2
Nd0 O1 2.303504 1_555
Nd0 O0 2.318625 1_565
Nd0 O6 2.353895 1_565
Nd0 O5 2.363798 1_455
Nd0 O3 2.415759 1_554
Nd0 O4 2.507248 1_565
Mg0 O4 2.060937 1_665
Mg0 O2 2.093970 1_564
Mg0 O0 2.101714 1_565
Mg0 O5 2.218512 1_555
Mg0 O7 2.348824 1_554
Mg0 O3 2.423280 1_554
Cu0 O5 1.902478 1_555
Cu0 O7 1.916265 1_555
Cu0 O1 2.141666 1_555
O0 W0 2.001092 1_655
O1 W0 1.871747 1_555
O2 W0 2.058641 1_655
O2 W1 2.096648 1_555
O3 W1 2.036927 1_555
O3 W0 2.186663 1_555
O4 W1 1.868407 1_554
O5 W1 2.006350 1_554
O6 W0 2.033632 1_555
O6 W1 2.058811 1_555
O7 W0 2.110456 1_655
O7 W1 2.125138 1_555
