# generated using pymatgen
data_K3MgSbS4
_symmetry_space_group_name_H-M   'P 1'
_cell_length_a   7.08146595
_cell_length_b   8.11366915
_cell_length_c   8.11366800
_cell_angle_alpha   98.35402836
_cell_angle_beta   119.31739183
_cell_angle_gamma   119.31739575
_symmetry_Int_Tables_number   1
_chemical_formula_structural   K3MgSbS4
_chemical_formula_sum   'K3 Mg1 Sb1 S4'
_cell_volume   305.59616275
_cell_formula_units_Z   1
loop_
 _symmetry_equiv_pos_site_id
 _symmetry_equiv_pos_as_xyz
  1  'x, y, z'
loop_
 _atom_site_type_symbol
 _atom_site_label
 _atom_site_symmetry_multiplicity
 _atom_site_fract_x
 _atom_site_fract_y
 _atom_site_fract_z
 _atom_site_occupancy
  K  K0  1  1.00000000  0.36429098  0.36429098  1
  K  K1  1  0.50000000  0.07302422  0.57302422  1
  K  K2  1  0.50000000  0.57302422  0.07302422  1
  Mg  Mg0  1  1.00000000  0.72437094  0.72437094  1
  Sb  Sb0  1  1.00000000  0.03387019  0.03387019  1
  S  S0  1  1.00000000  0.03652615  0.73041335  1
  S  S1  1  0.00000000  0.73041335  0.03652615  1
  S  S2  1  0.41861823  0.79803059  0.79803059  1
  S  S3  1  0.58138177  0.37941237  0.37941237  1
loop_
_geom_bond_atom_site_label_1
_geom_bond_atom_site_label_2
_geom_bond_distance
_geom_bond_site_symmetry_2
K0 S3 3.086411 1_555
K0 S2 3.086411 1_655
K0 Sb0 3.505171 1_555
K1 S2 3.098073 1_545
K1 S3 3.098073 1_555
K1 S1 3.311196 1_545
K1 S0 3.311196 1_555
K2 S3 3.098073 1_555
K2 S2 3.098073 1_554
K2 S1 3.311196 1_655
K2 S0 3.311196 1_454
Mg0 S2 2.434834 1_655
Mg0 S3 2.434834 1_555
Mg0 S1 2.526067 1_656
Mg0 S0 2.526067 1_565
S0 Sb0 2.465371 1_556
S1 Sb0 2.465372 1_465
S2 Sb0 2.789140 1_566
S3 Sb0 2.789140 1_455
