# generated using pymatgen
data_Li2VPCO7
_symmetry_space_group_name_H-M   'P 1'
_cell_length_a   6.40130900
_cell_length_b   9.68192667
_cell_length_c   10.06440463
_cell_angle_alpha   117.33684841
_cell_angle_beta   89.99999065
_cell_angle_gamma   90.00084946
_symmetry_Int_Tables_number   1
_chemical_formula_structural   Li2VPCO7
_chemical_formula_sum   'Li8 V4 P4 C4 O28'
_cell_volume   554.10124514
_cell_formula_units_Z   4
loop_
 _symmetry_equiv_pos_site_id
 _symmetry_equiv_pos_as_xyz
  1  'x, y, z'
loop_
 _atom_site_type_symbol
 _atom_site_label
 _atom_site_symmetry_multiplicity
 _atom_site_fract_x
 _atom_site_fract_y
 _atom_site_fract_z
 _atom_site_occupancy
  Li  Li0  1  0.00310500  0.78306200  0.77829800  1
  Li  Li1  1  0.00322100  0.78318500  0.27847400  1
  Li  Li2  1  0.99682300  0.21692900  0.22161900  1
  Li  Li3  1  0.99674900  0.21655700  0.72147100  1
  Li  Li4  1  0.50318000  0.21693900  0.22160700  1
  Li  Li5  1  0.50324500  0.21655300  0.72149100  1
  Li  Li6  1  0.49689200  0.78306000  0.77829400  1
  Li  Li7  1  0.49677600  0.78318300  0.27847600  1
  V  V0  1  0.74998600  0.34429000  0.06984100  1
  V  V1  1  0.25001700  0.65591900  0.93030700  1
  V  V2  1  0.74998000  0.34404600  0.56975700  1
  V  V3  1  0.24998500  0.65585300  0.43027700  1
  P  P0  1  0.24998400  0.41847300  0.57032200  1
  P  P1  1  0.25005700  0.41860400  0.07032700  1
  P  P2  1  0.74998500  0.58145600  0.42965400  1
  P  P3  1  0.75001200  0.58150300  0.92965700  1
  C  C0  1  0.74999400  0.05965600  0.39710100  1
  C  C1  1  0.75000200  0.05976100  0.89707400  1
  C  C2  1  0.24999600  0.94026000  0.60298700  1
  C  C3  1  0.25000000  0.94033500  0.10299200  1
  O  O0  1  0.74999700  0.11573200  0.54305000  1
  O  O1  1  0.75003800  0.11596300  0.04306100  1
  O  O2  1  0.24999300  0.88414500  0.45703300  1
  O  O3  1  0.24999500  0.88418500  0.95703200  1
  O  O4  1  0.24999400  0.83066900  0.64871900  1
  O  O5  1  0.25001100  0.83071000  0.14872200  1
  O  O6  1  0.74998000  0.16934700  0.35148300  1
  O  O7  1  0.74998600  0.16936100  0.85130900  1
  O  O8  1  0.75001100  0.41621600  0.29269000  1
  O  O9  1  0.74998600  0.41636000  0.79256700  1
  O  O10  1  0.24998600  0.58364300  0.70733600  1
  O  O11  1  0.24999100  0.58381200  0.20733000  1
  O  O12  1  0.24998100  0.43681400  0.42552300  1
  O  O13  1  0.24999500  0.43673100  0.92543500  1
  O  O14  1  0.74999300  0.56332200  0.57453300  1
  O  O15  1  0.75001200  0.56333100  0.07454300  1
  O  O16  1  0.74998900  0.91650000  0.80671800  1
  O  O17  1  0.75001000  0.91642900  0.30661500  1
  O  O18  1  0.24999600  0.08360600  0.19335200  1
  O  O19  1  0.24999800  0.08355300  0.69336100  1
  O  O20  1  0.94243200  0.67444700  0.42197300  1
  O  O21  1  0.94241600  0.67456400  0.92211300  1
  O  O22  1  0.55753500  0.67444600  0.42197400  1
  O  O23  1  0.55762000  0.67456400  0.92211400  1
  O  O24  1  0.44238700  0.32529400  0.57767100  1
  O  O25  1  0.44252100  0.32565600  0.07802500  1
  O  O26  1  0.05753700  0.32533600  0.57766400  1
  O  O27  1  0.05762500  0.32563900  0.07803000  1
loop_
_geom_bond_atom_site_label_1
_geom_bond_atom_site_label_2
_geom_bond_distance
_geom_bond_site_symmetry_2
Li0 O16 2.009196 1_455
Li0 O21 2.178499 1_455
Li0 O4 2.227777 1_555
Li0 O3 2.252679 1_555
Li0 O10 2.338604 1_555
Li1 O17 2.009033 1_455
Li1 O20 2.177627 1_455
Li1 O5 2.228135 1_555
Li1 O2 2.250987 1_555
Li1 O11 2.337684 1_555
Li2 O18 2.009083 1_655
Li2 O27 2.178230 1_655
Li2 O6 2.229406 1_555
Li2 O1 2.251043 1_555
Li2 O8 2.337349 1_555
Li3 O19 2.007936 1_655
Li3 O26 2.180683 1_655
Li3 O7 2.227089 1_555
Li3 O0 2.249977 1_555
Li3 O9 2.340544 1_555
Li4 O18 2.009184 1_555
Li4 O25 2.178064 1_555
Li4 O6 2.229349 1_555
Li4 O1 2.251325 1_555
Li4 O8 2.337318 1_555
Li5 O19 2.007842 1_555
Li5 O24 2.180595 1_555
Li5 O7 2.226843 1_555
Li5 O0 2.250115 1_555
Li5 O9 2.340452 1_555
Li6 O16 2.009072 1_555
Li6 O23 2.178578 1_555
Li6 O4 2.227810 1_555
Li6 O3 2.252756 1_555
Li6 O10 2.338663 1_555
Li7 O17 2.009135 1_555
Li7 O22 2.177582 1_555
Li7 O5 2.228055 1_555
Li7 O2 2.251045 1_555
Li7 O11 2.337696 1_555
C0 O17 1.261927 1_545
C0 O0 1.311469 1_555
C0 O6 1.336601 1_555
C1 O16 1.261897 1_545
C1 O1 1.311702 1_556
C1 O7 1.336810 1_555
C2 O19 1.262174 1_565
C2 O2 1.311478 1_555
C2 O4 1.336492 1_555
C3 O18 1.261980 1_565
C3 O3 1.311500 1_554
C3 O5 1.336791 1_555
O0 V2 2.100699 1_555
O1 V0 2.100563 1_555
O2 V3 2.100313 1_555
O3 V1 2.100173 1_555
O4 V3 2.068941 1_555
O5 V1 2.068674 1_554
O6 V2 2.067405 1_555
O7 V0 2.069924 1_556
O8 P2 1.560189 1_555
O8 V0 2.020099 1_555
O9 P3 1.560132 1_555
O9 V2 2.019108 1_555
O10 P0 1.559977 1_555
O10 V1 2.020710 1_555
O11 P1 1.560159 1_555
O11 V3 2.020854 1_555
O12 P0 1.546926 1_555
O12 V3 2.099178 1_555
O13 P1 1.546724 1_556
O13 V1 2.100097 1_555
O14 P2 1.546631 1_555
O14 V2 2.101374 1_555
O15 P3 1.546902 1_554
O15 V0 2.099428 1_555
O20 P2 1.548571 1_555
O20 V3 1.982213 1_655
O21 P3 1.548325 1_555
O21 V1 1.982480 1_655
O22 P2 1.548599 1_555
O22 V3 1.982186 1_555
O23 P3 1.548282 1_555
O23 V1 1.982486 1_555
O24 P0 1.548413 1_555
O24 V2 1.982304 1_555
O25 P1 1.548482 1_555
O25 V0 1.981590 1_555
O26 P0 1.548347 1_555
O26 V2 1.982030 1_455
O27 P1 1.548413 1_555
O27 V0 1.982724 1_455
