# generated using pymatgen
data_Mg4Ta2(SO4)9
_symmetry_space_group_name_H-M   'P 1'
_cell_length_a   8.69020292
_cell_length_b   8.69020265
_cell_length_c   22.33755893
_cell_angle_alpha   90.00000000
_cell_angle_beta   90.00000000
_cell_angle_gamma   120.00000103
_symmetry_Int_Tables_number   1
_chemical_formula_structural   Mg4Ta2(SO4)9
_chemical_formula_sum   'Mg8 Ta4 S18 O72'
_cell_volume   1460.91907610
_cell_formula_units_Z   2
loop_
 _symmetry_equiv_pos_site_id
 _symmetry_equiv_pos_as_xyz
  1  'x, y, z'
loop_
 _atom_site_type_symbol
 _atom_site_label
 _atom_site_symmetry_multiplicity
 _atom_site_fract_x
 _atom_site_fract_y
 _atom_site_fract_z
 _atom_site_occupancy
  Mg  Mg0  1  -0.00000000  0.00000000  0.35252078  1
  Mg  Mg1  1  -0.00000000  0.00000000  0.85252078  1
  Mg  Mg2  1  -0.00000000  0.00000000  0.64574969  1
  Mg  Mg3  1  -0.00000000  0.00000000  0.14574969  1
  Mg  Mg4  1  0.66666700  0.33333300  0.68732659  1
  Mg  Mg5  1  0.66666700  0.33333300  0.18732659  1
  Mg  Mg6  1  0.33333300  0.66666700  0.02193041  1
  Mg  Mg7  1  0.33333300  0.66666700  0.52193041  1
  Ta  Ta0  1  0.66666700  0.33333300  0.98174755  1
  Ta  Ta1  1  0.66666700  0.33333300  0.48174755  1
  Ta  Ta2  1  0.33333300  0.66666700  0.30835365  1
  Ta  Ta3  1  0.33333300  0.66666700  0.80835365  1
  S  S0  1  0.28957660  0.00795405  0.24965473  1
  S  S1  1  0.71837744  0.71042340  0.24965473  1
  S  S2  1  0.99204595  0.28162256  0.24965473  1
  S  S3  1  0.28957660  0.28162256  0.74965473  1
  S  S4  1  0.99204596  0.71042340  0.74965473  1
  S  S5  1  0.71837744  0.00795405  0.74965473  1
  S  S6  1  0.96227607  0.33433292  0.58603741  1
  S  S7  1  0.37205785  0.03772393  0.58603741  1
  S  S8  1  0.66566708  0.62794215  0.58603741  1
  S  S9  1  0.96227607  0.62794215  0.08603741  1
  S  S10  1  0.66566708  0.03772393  0.08603741  1
  S  S11  1  0.37205785  0.33433292  0.08603741  1
  S  S12  1  0.62564062  0.67174770  0.91783314  1
  S  S13  1  0.04610608  0.37435938  0.91783314  1
  S  S14  1  0.32825230  0.95389392  0.91783314  1
  S  S15  1  0.62564062  0.95389392  0.41783314  1
  S  S16  1  0.32825230  0.37435938  0.41783314  1
  S  S17  1  0.04610608  0.67174770  0.41783314  1
  O  O0  1  0.20972770  0.02854545  0.30426049  1
  O  O1  1  0.81881774  0.79027230  0.30426049  1
  O  O2  1  0.97145455  0.18118226  0.30426049  1
  O  O3  1  0.20972770  0.18118226  0.80426049  1
  O  O4  1  0.97145455  0.79027230  0.80426049  1
  O  O5  1  0.81881774  0.02854545  0.80426049  1
  O  O6  1  0.78515855  0.96301733  0.69690162  1
  O  O7  1  0.17785878  0.21484145  0.69690162  1
  O  O8  1  0.03698267  0.82214122  0.69690162  1
  O  O9  1  0.78515855  0.82214122  0.19690162  1
  O  O10  1  0.03698267  0.21484145  0.19690162  1
  O  O11  1  0.17785878  0.96301733  0.19690162  1
  O  O12  1  0.87385714  0.36484573  0.63611439  1
  O  O13  1  0.49098959  0.12614286  0.63611439  1
  O  O14  1  0.63515427  0.50901041  0.63611439  1
  O  O15  1  0.87385714  0.50901041  0.13611439  1
  O  O16  1  0.63515427  0.12614286  0.13611439  1
  O  O17  1  0.49098959  0.36484573  0.13611439  1
  O  O18  1  0.46620853  0.30436801  0.02878276  1
  O  O19  1  0.83816048  0.53379147  0.02878276  1
  O  O20  1  0.69563199  0.16183952  0.02878276  1
  O  O21  1  0.46620853  0.16183952  0.52878276  1
  O  O22  1  0.69563199  0.53379147  0.52878276  1
  O  O23  1  0.83816048  0.30436801  0.52878276  1
  O  O24  1  0.54041295  0.69546214  0.96999065  1
  O  O25  1  0.15504819  0.45958705  0.96999065  1
  O  O26  1  0.30453786  0.84495181  0.96999065  1
  O  O27  1  0.54041295  0.84495181  0.46999065  1
  O  O28  1  0.30453786  0.45958705  0.46999065  1
  O  O29  1  0.15504819  0.69546214  0.46999065  1
  O  O30  1  0.12727950  0.63402966  0.36297256  1
  O  O31  1  0.50674916  0.87272050  0.36297256  1
  O  O32  1  0.36597034  0.49325084  0.36297256  1
  O  O33  1  0.12727950  0.49325084  0.86297256  1
  O  O34  1  0.36597034  0.87272050  0.86297256  1
  O  O35  1  0.50674916  0.63402966  0.86297256  1
  O  O36  1  0.02215535  0.82225269  0.40735959  1
  O  O37  1  0.80009735  0.97784465  0.40735959  1
  O  O38  1  0.17774731  0.19990265  0.40735959  1
  O  O39  1  0.02215535  0.19990265  0.90735959  1
  O  O40  1  0.17774731  0.97784465  0.90735959  1
  O  O41  1  0.80009735  0.82225269  0.90735959  1
  O  O42  1  0.97162597  0.17346013  0.58995722  1
  O  O43  1  0.20183416  0.02837403  0.58995722  1
  O  O44  1  0.82653987  0.79816584  0.58995722  1
  O  O45  1  0.97162597  0.79816584  0.08995722  1
  O  O46  1  0.82653987  0.02837403  0.08995722  1
  O  O47  1  0.20183416  0.17346013  0.08995722  1
  O  O48  1  0.68568714  0.15506153  0.74200576  1
  O  O49  1  0.46937540  0.31431286  0.74200576  1
  O  O50  1  0.84493847  0.53062460  0.74200576  1
  O  O51  1  0.68568714  0.53062460  0.24200576  1
  O  O52  1  0.84493847  0.31431286  0.24200576  1
  O  O53  1  0.46937540  0.15506153  0.24200576  1
  O  O54  1  0.63968567  0.50512838  0.92486617  1
  O  O55  1  0.86544371  0.36031433  0.92486617  1
  O  O56  1  0.49487162  0.13455629  0.92486617  1
  O  O57  1  0.63968567  0.13455629  0.42486617  1
  O  O58  1  0.49487162  0.36031433  0.42486617  1
  O  O59  1  0.86544371  0.50512838  0.42486617  1
  O  O60  1  0.36026221  0.49189930  0.07333999  1
  O  O61  1  0.13163609  0.63973779  0.07333999  1
  O  O62  1  0.50810070  0.86836391  0.07333999  1
  O  O63  1  0.36026221  0.86836391  0.57333999  1
  O  O64  1  0.50810070  0.63973779  0.57333999  1
  O  O65  1  0.13163609  0.49189930  0.57333999  1
  O  O66  1  0.30915411  0.83836573  0.26071396  1
  O  O67  1  0.52921062  0.69084589  0.26071396  1
  O  O68  1  0.16163427  0.47078938  0.26071396  1
  O  O69  1  0.30915411  0.47078938  0.76071396  1
  O  O70  1  0.16163427  0.69084589  0.76071396  1
  O  O71  1  0.52921062  0.83836573  0.76071396  1
loop_
_geom_bond_atom_site_label_1
_geom_bond_atom_site_label_2
_geom_bond_distance
_geom_bond_site_symmetry_2
Mg0 O1 2.023196 1_445
Mg0 O0 2.023196 1_555
Mg0 O2 2.023196 1_455
Mg0 O38 2.054503 1_555
Mg0 O37 2.054503 1_445
Mg0 O36 2.054503 1_545
Mg1 O4 2.023196 1_445
Mg1 O3 2.023196 1_555
Mg1 O5 2.023196 1_455
Mg1 O39 2.054503 1_555
Mg1 O41 2.054503 1_445
Mg1 O40 2.054503 1_545
Mg2 O44 2.063477 1_445
Mg2 O42 2.063477 1_455
Mg2 O43 2.063477 1_555
Mg2 O7 2.072332 1_555
Mg2 O8 2.072332 1_545
Mg2 O6 2.072332 1_445
Mg3 O45 2.063477 1_445
Mg3 O47 2.063477 1_555
Mg3 O46 2.063477 1_455
Mg3 O10 2.072332 1_555
Mg3 O9 2.072332 1_445
Mg3 O11 2.072332 1_545
Mg4 O13 2.032840 1_555
Mg4 O14 2.032840 1_555
Mg4 O12 2.032840 1_555
Mg4 O50 2.043348 1_555
Mg4 O49 2.043348 1_555
Mg4 O48 2.043348 1_555
Mg5 O16 2.032840 1_555
Mg5 O15 2.032840 1_555
Mg5 O17 2.032840 1_555
Mg5 O51 2.043348 1_555
Mg5 O53 2.043348 1_555
Mg5 O52 2.043348 1_555
Mg6 O62 2.008876 1_555
Mg6 O60 2.008876 1_555
Mg6 O61 2.008876 1_555
Mg6 O25 2.048615 1_554
Mg6 O26 2.048615 1_554
Mg6 O24 2.048615 1_554
Mg7 O63 2.008876 1_555
Mg7 O65 2.008876 1_555
Mg7 O64 2.008876 1_555
Mg7 O28 2.048615 1_555
Mg7 O27 2.048615 1_555
Mg7 O29 2.048615 1_555
O0 S0 1.457911 1_555
O1 S1 1.457911 1_555
O2 S2 1.457911 1_555
O3 S3 1.457911 1_555
O4 S4 1.457911 1_555
O5 S5 1.457911 1_555
O6 S5 1.450687 1_565
O7 S3 1.450687 1_555
O8 S4 1.450687 1_455
O9 S1 1.450687 1_555
O10 S2 1.450687 1_455
O11 S0 1.450687 1_565
O12 S6 1.454552 1_555
O13 S7 1.454552 1_555
O14 S8 1.454552 1_555
O15 S9 1.454552 1_555
O16 S10 1.454552 1_555
O17 S11 1.454552 1_555
O18 S11 1.608091 1_555
O18 Ta0 1.939946 1_554
O19 S9 1.608091 1_555
O19 Ta0 1.939946 1_554
O20 S10 1.608091 1_555
O20 Ta0 1.939946 1_554
O21 S7 1.608091 1_555
O21 Ta1 1.939946 1_555
O22 S8 1.608091 1_555
O22 Ta1 1.939946 1_555
O23 S6 1.608091 1_555
O23 Ta1 1.939946 1_555
O24 S12 1.449501 1_555
O25 S13 1.449501 1_555
O26 S14 1.449501 1_555
O27 S15 1.449501 1_555
O28 S16 1.449501 1_555
O29 S17 1.449501 1_555
O30 S17 1.529051 1_555
O30 Ta2 2.065797 1_555
O31 S15 1.529051 1_555
O31 Ta2 2.065797 1_555
O32 S16 1.529051 1_555
O32 Ta2 2.065797 1_555
O33 S13 1.529051 1_555
O33 Ta3 2.065797 1_555
O34 S14 1.529051 1_555
O34 Ta3 2.065797 1_555
O35 S12 1.529051 1_555
O35 Ta3 2.065797 1_555
O36 S17 1.442544 1_555
O37 S15 1.442553 1_555
O38 S16 1.442549 1_555
O39 S13 1.442552 1_555
O40 S14 1.442544 1_555
O41 S12 1.442549 1_555
O42 S6 1.443022 1_555
O43 S7 1.443031 1_555
O44 S8 1.443027 1_555
O45 S9 1.443031 1_555
O46 S10 1.443022 1_555
O47 S11 1.443027 1_555
O48 S5 1.451675 1_555
O49 S3 1.451684 1_555
O50 S4 1.451681 1_555
O51 S1 1.451684 1_555
O52 S2 1.451675 1_555
O53 S0 1.451681 1_555
O54 S12 1.520816 1_555
O54 Ta0 2.061139 1_555
O55 S13 1.520799 1_655
O55 Ta0 2.061139 1_555
O56 S14 1.520807 1_545
O56 Ta0 2.061139 1_555
O57 S15 1.520799 1_545
O57 Ta1 2.061139 1_555
O58 S16 1.520817 1_555
O58 Ta1 2.061139 1_555
O59 S17 1.520807 1_655
O59 Ta1 2.061139 1_555
O60 S11 1.451293 1_555
O61 S9 1.451276 1_455
O62 S10 1.451284 1_565
O63 S7 1.451276 1_565
O64 S8 1.451293 1_555
O65 S6 1.451284 1_455
O66 S0 1.585139 1_565
O66 Ta2 1.927809 1_555
O67 S1 1.585147 1_555
O67 Ta2 1.927809 1_555
O68 S2 1.585144 1_455
O68 Ta2 1.927809 1_555
O69 S3 1.585147 1_555
O69 Ta3 1.927809 1_555
O70 S4 1.585139 1_455
O70 Ta3 1.927809 1_555
O71 S5 1.585144 1_565
O71 Ta3 1.927809 1_555
