# generated using pymatgen
data_Tl4Bi2S5
_symmetry_space_group_name_H-M   'P 1'
_cell_length_a   4.11375546
_cell_length_b   17.10448989
_cell_length_c   17.59567277
_cell_angle_alpha   90.00000000
_cell_angle_beta   90.00000000
_cell_angle_gamma   90.00000000
_symmetry_Int_Tables_number   1
_chemical_formula_structural   Tl4Bi2S5
_chemical_formula_sum   'Tl16 Bi8 S20'
_cell_volume   1238.09644082
_cell_formula_units_Z   4
loop_
 _symmetry_equiv_pos_site_id
 _symmetry_equiv_pos_as_xyz
  1  'x, y, z'
loop_
 _atom_site_type_symbol
 _atom_site_label
 _atom_site_symmetry_multiplicity
 _atom_site_fract_x
 _atom_site_fract_y
 _atom_site_fract_z
 _atom_site_occupancy
  Tl  Tl0  1  0.25000000  0.19218602  0.91958062  1
  Tl  Tl1  1  0.25000000  0.69218602  0.58041938  1
  Tl  Tl2  1  0.75000000  0.80781398  0.08041938  1
  Tl  Tl3  1  0.25000000  0.42780610  0.91708645  1
  Tl  Tl4  1  0.75000000  0.57219390  0.08291355  1
  Tl  Tl5  1  0.25000000  0.92780610  0.58291355  1
  Tl  Tl6  1  0.75000000  0.07219390  0.41708645  1
  Tl  Tl7  1  0.25000000  0.18489487  0.26518294  1
  Tl  Tl8  1  0.75000000  0.81510513  0.73481706  1
  Tl  Tl9  1  0.25000000  0.68489487  0.23481706  1
  Tl  Tl10  1  0.75000000  0.31510513  0.76518294  1
  Tl  Tl11  1  0.25000000  0.18330456  0.56938156  1
  Tl  Tl12  1  0.75000000  0.81669544  0.43061844  1
  Tl  Tl13  1  0.25000000  0.68330456  0.93061844  1
  Tl  Tl14  1  0.75000000  0.31669544  0.06938156  1
  Tl  Tl15  1  0.75000000  0.30781398  0.41958062  1
  Bi  Bi0  1  0.75000000  0.57000813  0.75694783  1
  Bi  Bi1  1  0.25000000  0.42999187  0.24305217  1
  Bi  Bi2  1  0.25000000  0.92999187  0.25694783  1
  Bi  Bi3  1  0.75000000  0.07000813  0.74305217  1
  Bi  Bi4  1  0.25000000  0.44168188  0.58860454  1
  Bi  Bi5  1  0.75000000  0.55831812  0.41139546  1
  Bi  Bi6  1  0.25000000  0.94168188  0.91139546  1
  Bi  Bi7  1  0.75000000  0.05831812  0.08860454  1
  S  S0  1  0.25000000  0.43344078  0.41825133  1
  S  S1  1  0.75000000  0.56655922  0.58174867  1
  S  S2  1  0.25000000  0.93344078  0.08174867  1
  S  S3  1  0.75000000  0.06655922  0.91825133  1
  S  S4  1  0.75000000  0.54802805  0.90686239  1
  S  S5  1  0.25000000  0.95197195  0.40686239  1
  S  S6  1  0.75000000  0.04802805  0.59313761  1
  S  S7  1  0.25000000  0.18077916  0.73365928  1
  S  S8  1  0.75000000  0.81922084  0.26634072  1
  S  S9  1  0.25000000  0.68077916  0.76634072  1
  S  S10  1  0.75000000  0.31922084  0.23365928  1
  S  S11  1  0.25000000  0.45471405  0.74177240  1
  S  S12  1  0.75000000  0.54528595  0.25822760  1
  S  S13  1  0.25000000  0.95471405  0.75822760  1
  S  S14  1  0.75000000  0.04528595  0.24177240  1
  S  S15  1  0.75000000  0.33524303  0.59781178  1
  S  S16  1  0.25000000  0.66475697  0.40218822  1
  S  S17  1  0.25000000  0.45197195  0.09313761  1
  S  S18  1  0.25000000  0.16475697  0.09781178  1
  S  S19  1  0.75000000  0.83524303  0.90218822  1
loop_
_geom_bond_atom_site_label_1
_geom_bond_atom_site_label_2
_geom_bond_distance
_geom_bond_site_symmetry_2
Bi0 S4 2.664504 1_555
Bi0 S9 2.801407 1_555
Bi0 S9 2.801407 1_655
Bi0 S11 2.861995 1_555
Bi0 S11 2.861995 1_655
Bi0 S1 3.083311 1_555
Bi1 S17 2.664504 1_555
Bi1 S10 2.801407 1_455
Bi1 S10 2.801407 1_555
Bi1 S12 2.861995 1_455
Bi1 S12 2.861995 1_555
Bi1 S0 3.083311 1_555
Bi2 S5 2.664504 1_555
Bi2 S8 2.801407 1_455
Bi2 S8 2.801407 1_555
Bi2 S14 2.861995 1_565
Bi2 S14 2.861995 1_465
Bi2 S2 3.083311 1_555
Bi3 S6 2.664504 1_555
Bi3 S7 2.801407 1_655
Bi3 S7 2.801407 1_555
Bi3 S13 2.861995 1_645
Bi3 S13 2.861995 1_545
Bi3 S3 3.083311 1_555
Bi4 S11 2.704294 1_555
Bi4 S15 2.751638 1_455
Bi4 S15 2.751638 1_555
Bi4 S1 2.967766 1_455
Bi4 S1 2.967766 1_555
Bi4 S0 3.000792 1_555
Bi5 S12 2.704294 1_555
Bi5 S16 2.751638 1_555
Bi5 S16 2.751638 1_655
Bi5 S0 2.967766 1_655
Bi5 S0 2.967766 1_555
Bi5 S1 3.000792 1_555
Bi6 S13 2.704294 1_555
Bi6 S19 2.751638 1_455
Bi6 S19 2.751638 1_555
Bi6 S3 2.967766 1_465
Bi6 S3 2.967766 1_565
Bi6 S2 3.000792 1_556
Bi7 S14 2.704294 1_555
Bi7 S18 2.751638 1_655
Bi7 S18 2.751638 1_555
Bi7 S2 2.967766 1_545
Bi7 S2 2.967766 1_645
Bi7 S3 3.000792 1_554
S0 Tl15 2.974653 1_555
S0 Tl15 2.974653 1_455
S1 Tl1 2.974653 1_655
S1 Tl1 2.974653 1_555
S2 Tl2 2.974653 1_555
S2 Tl2 2.974653 1_455
S3 Tl0 2.974653 1_555
S3 Tl0 2.974653 1_655
S4 Tl3 2.914039 1_555
S4 Tl3 2.914039 1_655
S4 Tl13 3.123989 1_555
S4 Tl13 3.123989 1_655
S4 Tl4 3.125194 1_556
S5 Tl6 2.914039 1_465
S5 Tl6 2.914039 1_565
S5 Tl12 3.123989 1_455
S5 Tl12 3.123989 1_555
S5 Tl5 3.125194 1_555
S6 Tl5 2.914039 1_545
S6 Tl5 2.914039 1_645
S6 Tl11 3.123989 1_655
S6 Tl11 3.123989 1_555
S6 Tl6 3.125194 1_555
S7 Tl11 2.890900 1_555
S7 Tl10 3.133253 1_555
S7 Tl10 3.133253 1_455
S7 Tl0 3.277224 1_555
S8 Tl12 2.890900 1_555
S8 Tl9 3.133253 1_555
S8 Tl9 3.133253 1_655
S8 Tl2 3.277224 1_555
S9 Tl13 2.890900 1_555
S9 Tl8 3.133253 1_555
S9 Tl8 3.133253 1_455
S9 Tl1 3.277224 1_555
S10 Tl14 2.890900 1_555
S10 Tl7 3.133253 1_555
S10 Tl7 3.133253 1_655
S10 Tl15 3.277224 1_555
S11 Tl3 3.118914 1_555
S11 Tl10 3.178472 1_555
S11 Tl10 3.178472 1_455
S12 Tl4 3.118914 1_555
S12 Tl9 3.178472 1_555
S12 Tl9 3.178472 1_655
S13 Tl5 3.118914 1_555
S13 Tl8 3.178472 1_555
S13 Tl8 3.178472 1_455
S14 Tl6 3.118914 1_555
S14 Tl7 3.178472 1_655
S14 Tl7 3.178472 1_555
S15 Tl10 2.965083 1_555
S15 Tl15 3.170996 1_555
S16 Tl9 2.965083 1_555
S16 Tl1 3.170996 1_555
S17 Tl4 2.914039 1_455
S17 Tl4 2.914039 1_555
S17 Tl14 3.123989 1_555
S17 Tl14 3.123989 1_455
S17 Tl3 3.125194 1_554
S18 Tl7 2.965083 1_555
S18 Tl0 3.170996 1_554
S19 Tl8 2.965083 1_555
S19 Tl2 3.170996 1_556
