# generated using pymatgen
data_Na3ZrGaSi(PO6)2
_symmetry_space_group_name_H-M   'P 1'
_cell_length_a   15.65197672
_cell_length_b   8.95422083
_cell_length_c   8.98751522
_cell_angle_alpha   90.00000000
_cell_angle_beta   124.43582464
_cell_angle_gamma   90.00000000
_symmetry_Int_Tables_number   1
_chemical_formula_structural   Na3ZrGaSi(PO6)2
_chemical_formula_sum   'Na12 Zr4 Ga4 Si4 P8 O48'
_cell_volume   1038.87732784
_cell_formula_units_Z   4
loop_
 _symmetry_equiv_pos_site_id
 _symmetry_equiv_pos_as_xyz
  1  'x, y, z'
loop_
 _atom_site_type_symbol
 _atom_site_label
 _atom_site_symmetry_multiplicity
 _atom_site_fract_x
 _atom_site_fract_y
 _atom_site_fract_z
 _atom_site_occupancy
  Na  Na0  1  0.25008580  0.72255493  0.99125790  1
  Na  Na1  1  0.75008580  0.77744507  0.49125790  1
  Na  Na2  1  0.75008580  0.22255493  0.99125790  1
  Na  Na3  1  0.25008580  0.27744507  0.49125790  1
  Na  Na4  1  0.50371366  0.10771037  0.75825235  1
  Na  Na5  1  0.50371366  0.89228963  0.25825235  1
  Na  Na6  1  0.00371366  0.60771037  0.75825235  1
  Na  Na7  1  0.00371366  0.39228963  0.25825235  1
  Na  Na8  1  0.18747885  0.93240983  0.28068992  1
  Na  Na9  1  0.18747885  0.06759017  0.78068992  1
  Na  Na10  1  0.68747885  0.43240983  0.28068992  1
  Na  Na11  1  0.68747885  0.56759017  0.78068992  1
  Zr  Zr0  1  0.89444714  0.75785485  0.93742872  1
  Zr  Zr1  1  0.89444714  0.24214515  0.43742872  1
  Zr  Zr2  1  0.39444714  0.25785485  0.93742872  1
  Zr  Zr3  1  0.39444714  0.74214515  0.43742872  1
  Ga  Ga0  1  0.10468351  0.73975959  0.55938867  1
  Ga  Ga1  1  0.10468351  0.26024041  0.05938867  1
  Ga  Ga2  1  0.60468351  0.23975959  0.55938867  1
  Ga  Ga3  1  0.60468351  0.76024041  0.05938867  1
  Si  Si0  1  0.64148630  0.90122509  0.74154678  1
  Si  Si1  1  0.64148630  0.09877491  0.24154678  1
  Si  Si2  1  0.14148630  0.40122509  0.74154678  1
  Si  Si3  1  0.14148630  0.59877491  0.24154678  1
  P  P0  1  0.00786410  0.95580889  0.76145601  1
  P  P1  1  0.00786410  0.04419111  0.26145601  1
  P  P2  1  0.50786410  0.45580889  0.76145601  1
  P  P3  1  0.50786410  0.54419111  0.26145601  1
  P  P4  1  0.35057388  0.88671995  0.75986416  1
  P  P5  1  0.35057388  0.11328005  0.25986416  1
  P  P6  1  0.85057388  0.38671995  0.75986416  1
  P  P7  1  0.85057388  0.61328005  0.25986416  1
  O  O0  1  0.14446260  0.58330137  0.73627795  1
  O  O1  1  0.84472598  0.56224914  0.75994407  1
  O  O2  1  0.84472598  0.43775086  0.25994407  1
  O  O3  1  0.14446260  0.41669863  0.23627795  1
  O  O4  1  0.64446260  0.08330137  0.73627795  1
  O  O5  1  0.34472598  0.06224914  0.75994407  1
  O  O6  1  0.34472598  0.93775086  0.25994407  1
  O  O7  1  0.64446260  0.91669863  0.23627795  1
  O  O8  1  0.44599911  0.55820071  0.59389323  1
  O  O9  1  0.57081879  0.55059579  0.93468736  1
  O  O10  1  0.57081879  0.44940421  0.43468736  1
  O  O11  1  0.44599911  0.44179929  0.09389323  1
  O  O12  1  0.94599911  0.05820071  0.59389323  1
  O  O13  1  0.07081879  0.05059579  0.93468736  1
  O  O14  1  0.07081879  0.94940421  0.43468736  1
  O  O15  1  0.94599911  0.94179929  0.09389323  1
  O  O16  1  0.25438485  0.82781644  0.74743310  1
  O  O17  1  0.73953316  0.81927991  0.75361797  1
  O  O18  1  0.73953316  0.18072009  0.25361797  1
  O  O19  1  0.25438485  0.17218356  0.24743310  1
  O  O20  1  0.75438485  0.32781644  0.74743310  1
  O  O21  1  0.23953316  0.31927991  0.75361797  1
  O  O22  1  0.23953316  0.68072009  0.25361797  1
  O  O23  1  0.75438485  0.67218356  0.24743310  1
  O  O24  1  0.34767586  0.85102557  0.58728676  1
  O  O25  1  0.63459170  0.85385151  0.90898107  1
  O  O26  1  0.63459170  0.14614849  0.40898107  1
  O  O27  1  0.34767586  0.14897443  0.08728676  1
  O  O28  1  0.84767586  0.35102557  0.58728676  1
  O  O29  1  0.13459170  0.35385151  0.90898107  1
  O  O30  1  0.13459170  0.64614849  0.40898107  1
  O  O31  1  0.84767586  0.64897443  0.08728676  1
  O  O32  1  0.45049339  0.82821474  0.93087122  1
  O  O33  1  0.53623197  0.83893506  0.55539805  1
  O  O34  1  0.53623197  0.16106494  0.05539805  1
  O  O35  1  0.45049339  0.17178526  0.43087122  1
  O  O36  1  0.95049339  0.32821474  0.93087122  1
  O  O37  1  0.03623197  0.33893506  0.55539805  1
  O  O38  1  0.03623197  0.66106494  0.05539805  1
  O  O39  1  0.95049339  0.67178526  0.43087122  1
  O  O40  1  0.08474836  0.85929412  0.74742475  1
  O  O41  1  0.92600099  0.85214293  0.75429996  1
  O  O42  1  0.92600099  0.14785707  0.25429996  1
  O  O43  1  0.08474836  0.14070588  0.24742475  1
  O  O44  1  0.58474836  0.35929412  0.74742475  1
  O  O45  1  0.42600099  0.35214293  0.75429996  1
  O  O46  1  0.42600099  0.64785707  0.25429996  1
  O  O47  1  0.58474836  0.64070588  0.24742475  1
loop_
_geom_bond_atom_site_label_1
_geom_bond_atom_site_label_2
_geom_bond_distance
_geom_bond_site_symmetry_2
Na0 O0 2.292325 1_555
Na0 O16 2.421117 1_555
Na0 O22 2.483561 1_556
Na0 O46 2.501159 1_556
Na0 O40 2.566070 1_555
Na0 O6 2.773635 1_556
Na1 O7 2.292325 1_555
Na1 O23 2.421117 1_555
Na1 O17 2.483561 1_555
Na1 O41 2.501159 1_555
Na1 O47 2.566070 1_555
Na1 O1 2.773635 1_555
Na2 O4 2.292325 1_555
Na2 O20 2.421117 1_555
Na2 O18 2.483561 1_556
Na2 O42 2.501159 1_556
Na2 O44 2.566070 1_555
Na2 O2 2.773635 1_556
Na3 O3 2.292325 1_555
Na3 O19 2.421117 1_555
Na3 O21 2.483561 1_555
Na3 O45 2.501159 1_555
Na3 O43 2.566070 1_555
Na3 O5 2.773635 1_555
Na4 O4 2.330674 1_555
Na4 O34 2.466196 1_556
Na4 O45 2.494462 1_555
Na4 O5 2.530063 1_555
Na4 O44 2.613925 1_555
Na4 O35 2.628399 1_555
Na4 O25 2.839019 1_545
Na5 O7 2.330674 1_555
Na5 O33 2.466196 1_555
Na5 O46 2.494462 1_555
Na5 O6 2.530063 1_555
Na5 O47 2.613925 1_555
Na5 O32 2.628399 1_554
Na5 O26 2.839019 1_565
Na6 O0 2.330674 1_555
Na6 O38 2.466196 1_556
Na6 O41 2.494462 1_455
Na6 O1 2.530063 1_455
Na6 O40 2.613925 1_555
Na6 O39 2.628399 1_455
Na6 O29 2.839019 1_555
Na7 O3 2.330674 1_555
Na7 O37 2.466196 1_555
Na7 O42 2.494462 1_455
Na7 O2 2.530063 1_455
Na7 O43 2.613925 1_555
Na7 O36 2.628399 1_454
Na7 O30 2.839019 1_555
Na8 O43 2.368514 1_565
Na8 O22 2.454856 1_555
Na8 O19 2.479827 1_565
Na8 O24 2.568463 1_555
Na8 O6 2.571712 1_555
Na8 O13 2.775331 1_564
Na8 O14 2.851509 1_555
Na9 O40 2.368514 1_545
Na9 O21 2.454856 1_555
Na9 O16 2.479827 1_545
Na9 O27 2.568463 1_556
Na9 O5 2.571712 1_555
Na9 O14 2.775331 1_545
Na9 O13 2.851509 1_555
Na10 O47 2.368514 1_555
Na10 O18 2.454856 1_555
Na10 O23 2.479827 1_555
Na10 O28 2.568463 1_555
Na10 O2 2.571712 1_555
Na10 O9 2.775331 1_554
Na10 O10 2.851509 1_555
Na11 O44 2.368514 1_555
Na11 O17 2.454856 1_555
Na11 O20 2.479827 1_555
Na11 O31 2.568463 1_556
Na11 O1 2.571712 1_555
Na11 O10 2.775331 1_555
Na11 O9 2.851509 1_555
Ga0 O30 1.861386 1_555
Ga0 O0 1.938640 1_555
Ga0 O39 2.091974 1_455
Ga0 O14 2.095014 1_555
Ga0 O16 2.118862 1_555
Ga0 O40 2.166883 1_555
Ga1 O29 1.861386 1_554
Ga1 O3 1.938640 1_555
Ga1 O36 2.091974 1_454
Ga1 O13 2.095014 1_554
Ga1 O19 2.118862 1_555
Ga1 O43 2.166883 1_555
Ga2 O26 1.861386 1_555
Ga2 O4 1.938640 1_555
Ga2 O35 2.091974 1_555
Ga2 O10 2.095014 1_555
Ga2 O20 2.118862 1_555
Ga2 O44 2.166883 1_555
Ga3 O25 1.861386 1_554
Ga3 O7 1.938640 1_555
Ga3 O32 2.091974 1_554
Ga3 O9 2.095014 1_554
Ga3 O23 2.118862 1_555
Ga3 O47 2.166883 1_555
O0 Si2 1.632468 1_555
O1 P6 1.574414 1_555
O1 Zr0 2.194061 1_555
O2 P7 1.574414 1_555
O2 Zr1 2.194061 1_555
O3 Si3 1.632468 1_555
O4 Si0 1.632468 1_545
O5 P4 1.574414 1_545
O5 Zr2 2.194061 1_555
O6 P5 1.574414 1_565
O6 Zr3 2.194061 1_555
O7 Si1 1.632468 1_565
O8 P2 1.548207 1_555
O8 Zr3 2.014483 1_555
O9 P2 1.542807 1_555
O10 P3 1.542807 1_555
O11 P3 1.548207 1_555
O11 Zr2 2.014483 1_554
O12 P0 1.548207 1_645
O12 Zr1 2.014483 1_555
O13 P0 1.542807 1_545
O14 P1 1.542807 1_565
O15 P1 1.548207 1_665
O15 Zr0 2.014483 1_554
O16 P4 1.538542 1_555
O17 Si0 1.648318 1_555
O17 Zr0 2.092993 1_555
O18 Si1 1.648318 1_555
O18 Zr1 2.092993 1_555
O19 P5 1.538542 1_555
O20 P6 1.538542 1_555
O21 Si2 1.648318 1_555
O21 Zr2 2.092993 1_555
O22 Si3 1.648318 1_555
O22 Zr3 2.092993 1_555
O23 P7 1.538542 1_555
O24 P4 1.558966 1_555
O24 Zr3 2.101319 1_555
O25 Si0 1.624722 1_555
O26 Si1 1.624722 1_555
O27 P5 1.558966 1_555
O27 Zr2 2.101319 1_554
O28 P6 1.558966 1_555
O28 Zr1 2.101319 1_555
O29 Si2 1.624722 1_555
O30 Si3 1.624722 1_555
O31 P7 1.558966 1_555
O31 Zr0 2.101319 1_554
O32 P4 1.537541 1_555
O33 Si0 1.645288 1_555
O33 Zr3 2.034476 1_555
O34 Si1 1.645288 1_555
O34 Zr2 2.034476 1_554
O35 P5 1.537541 1_555
O36 P6 1.537541 1_555
O37 Si2 1.645288 1_555
O37 Zr1 2.034476 1_455
O38 Si3 1.645288 1_555
O38 Zr0 2.034476 1_454
O39 P7 1.537541 1_555
O40 P0 1.543551 1_555
O41 P0 1.553821 1_655
O41 Zr0 2.141247 1_555
O42 P1 1.553821 1_655
O42 Zr1 2.141247 1_555
O43 P1 1.543551 1_555
O44 P2 1.543551 1_555
O45 P2 1.553821 1_555
O45 Zr2 2.141247 1_555
O46 P3 1.553821 1_555
O46 Zr3 2.141247 1_555
O47 P3 1.543551 1_555
