# generated using pymatgen
data_Gd3Pd2
_symmetry_space_group_name_H-M   'P 1'
_cell_length_a   4.02179667
_cell_length_b   7.80570605
_cell_length_c   7.80570605
_cell_angle_alpha   89.99771909
_cell_angle_beta   90.00000000
_cell_angle_gamma   90.00000000
_symmetry_Int_Tables_number   1
_chemical_formula_structural   Gd3Pd2
_chemical_formula_sum   'Gd6 Pd4'
_cell_volume   245.04423799
_cell_formula_units_Z   2
loop_
 _symmetry_equiv_pos_site_id
 _symmetry_equiv_pos_as_xyz
  1  'x, y, z'
loop_
 _atom_site_type_symbol
 _atom_site_label
 _atom_site_symmetry_multiplicity
 _atom_site_fract_x
 _atom_site_fract_y
 _atom_site_fract_z
 _atom_site_occupancy
  Gd  Gd0  1  0.50000000  0.66480698  0.83519302  1
  Gd  Gd1  1  0.50000000  0.83518999  0.33518999  1
  Gd  Gd2  1  0.50000000  0.33519302  0.16480698  1
  Gd  Gd3  1  0.50000000  0.16481001  0.66481001  1
  Gd  Gd4  1  0.00000000  0.50000000  0.50000000  1
  Gd  Gd5  1  0.00000000  -0.00000000  -0.00000000  1
  Pd  Pd0  1  0.00000000  0.63175653  0.13175653  1
  Pd  Pd1  1  0.00000000  0.86826471  0.63173529  1
  Pd  Pd2  1  0.00000000  0.13173529  0.36826471  1
  Pd  Pd3  1  0.00000000  0.36824347  0.86824347  1
loop_
_geom_bond_atom_site_label_1
_geom_bond_atom_site_label_2
_geom_bond_distance
_geom_bond_site_symmetry_2
Gd0 Pd1 3.014603 1_555
Gd0 Pd1 3.014603 1_655
Gd0 Pd3 3.077162 1_555
Gd0 Pd3 3.077162 1_655
Gd0 Pd0 3.077162 1_656
Gd0 Pd0 3.077162 1_556
Gd1 Pd0 3.014470 1_655
Gd1 Pd0 3.014470 1_555
Gd1 Pd2 3.077086 1_565
Gd1 Pd2 3.077086 1_665
Gd1 Pd1 3.077086 1_555
Gd1 Pd1 3.077086 1_655
Gd2 Pd2 3.014603 1_655
Gd2 Pd2 3.014603 1_555
Gd2 Pd0 3.077162 1_655
Gd2 Pd3 3.077162 1_654
Gd2 Pd0 3.077162 1_555
Gd2 Pd3 3.077162 1_554
Gd3 Pd3 3.014470 1_555
Gd3 Pd3 3.014470 1_655
Gd3 Pd1 3.077086 1_645
Gd3 Pd1 3.077086 1_545
Gd3 Pd2 3.077086 1_555
Gd3 Pd2 3.077086 1_655
Gd4 Pd3 3.052811 1_555
Gd4 Pd0 3.052811 1_555
Gd4 Pd2 3.052989 1_555
Gd4 Pd1 3.052989 1_555
Gd5 Pd3 3.052811 1_554
Gd5 Pd0 3.052811 1_545
Gd5 Pd1 3.052989 1_544
Gd5 Pd2 3.052989 1_555
Pd0 Pd3 2.908962 1_554
Pd1 Pd2 2.908377 1_565
