# generated using pymatgen
data_Ca2Al2FeSi4BHO16
_symmetry_space_group_name_H-M   'P 1'
_cell_length_a   7.19954800
_cell_length_b   9.08254815
_cell_length_c   9.32809883
_cell_angle_alpha   88.47748917
_cell_angle_beta   102.64185305
_cell_angle_gamma   98.25054405
_symmetry_Int_Tables_number   1
_chemical_formula_structural   Ca2Al2FeSi4BHO16
_chemical_formula_sum   'Ca4 Al4 Fe2 Si8 B2 H2 O32'
_cell_volume   589.01182752
_cell_formula_units_Z   2
loop_
 _symmetry_equiv_pos_site_id
 _symmetry_equiv_pos_as_xyz
  1  'x, y, z'
loop_
 _atom_site_type_symbol
 _atom_site_label
 _atom_site_symmetry_multiplicity
 _atom_site_fract_x
 _atom_site_fract_y
 _atom_site_fract_z
 _atom_site_occupancy
  Ca  Ca0  1  0.81406500  0.91908300  0.09956900  1
  Ca  Ca1  1  0.18593500  0.08091700  0.90043100  1
  Ca  Ca2  1  0.25171100  0.60712400  0.34711300  1
  Ca  Ca3  1  0.74828900  0.39287600  0.65288700  1
  Al  Al0  1  0.35149700  0.42091300  0.06417700  1
  Al  Al1  1  0.05257000  0.25422200  0.19988200  1
  Al  Al2  1  0.94743000  0.74577800  0.80011800  1
  Al  Al3  1  0.64850300  0.57908700  0.93582300  1
  Fe  Fe0  1  0.23252600  0.89086100  0.58689500  1
  Fe  Fe1  1  0.76747400  0.10913900  0.41310500  1
  Si  Si0  1  0.35820400  0.76865100  0.02086100  1
  Si  Si1  1  0.21984700  0.52350800  0.72476600  1
  Si  Si2  1  0.79195300  0.76562100  0.45068700  1
  Si  Si3  1  0.20804700  0.23437900  0.54931300  1
  Si  Si4  1  0.69602800  0.01027700  0.74429200  1
  Si  Si5  1  0.78015300  0.47649200  0.27523400  1
  Si  Si6  1  0.30397200  0.98972300  0.25570800  1
  Si  Si7  1  0.64179600  0.23134900  0.97913900  1
  B  B0  1  0.53795100  0.71187800  0.63475300  1
  B  B1  1  0.46204900  0.28812200  0.36524700  1
  H  H0  1  0.98960100  0.37492600  0.95846600  1
  H  H1  1  0.01039900  0.62507400  0.04153400  1
  O  O0  1  0.87518900  0.93370900  0.84327400  1
  O  O1  1  0.32475200  0.35333300  0.25384500  1
  O  O2  1  0.20431900  0.82196100  0.87822500  1
  O  O3  1  0.79568100  0.17803900  0.12177500  1
  O  O4  1  0.27783500  0.61551600  0.10150500  1
  O  O5  1  0.72216500  0.38448400  0.89849500  1
  O  O6  1  0.56444600  0.75466100  0.98369600  1
  O  O7  1  0.43555400  0.24533900  0.01630400  1
  O  O8  1  0.40014900  0.91337300  0.13525300  1
  O  O9  1  0.59985100  0.08662700  0.86474700  1
  O  O10  1  0.23808900  0.86193000  0.36629400  1
  O  O11  1  0.76191100  0.13807000  0.63370600  1
  O  O12  1  0.12481100  0.06629100  0.15672600  1
  O  O13  1  0.67524800  0.64666700  0.74615500  1
  O  O14  1  0.09677500  0.32195600  0.00690200  1
  O  O15  1  0.90322500  0.67804400  0.99309800  1
  O  O16  1  0.04948000  0.18955100  0.39652000  1
  O  O17  1  0.95052000  0.81044900  0.60348000  1
  O  O18  1  0.22613300  0.09712500  0.66126400  1
  O  O19  1  0.77386700  0.90287500  0.33873600  1
  O  O20  1  0.41681000  0.30951000  0.51137200  1
  O  O21  1  0.58319000  0.69049000  0.48862800  1
  O  O22  1  0.13407700  0.36952700  0.62826600  1
  O  O23  1  0.46923800  0.12522800  0.34127700  1
  O  O24  1  0.02118500  0.56566500  0.75483700  1
  O  O25  1  0.97881500  0.43433500  0.24516300  1
  O  O26  1  0.32966400  0.64041500  0.61815800  1
  O  O27  1  0.67033600  0.35958500  0.38184200  1
  O  O28  1  0.38016800  0.49683100  0.87315800  1
  O  O29  1  0.61983200  0.50316900  0.12684200  1
  O  O30  1  0.53076200  0.87477200  0.65872300  1
  O  O31  1  0.86592300  0.63047300  0.37173400  1
loop_
_geom_bond_atom_site_label_1
_geom_bond_atom_site_label_2
_geom_bond_distance
_geom_bond_site_symmetry_2
Ca0 O6 2.256864 1_554
Ca0 O19 2.309893 1_555
Ca0 O3 2.391541 1_565
Ca0 O12 2.394656 1_665
Ca0 O0 2.520679 1_554
Ca0 O15 2.643704 1_554
Ca1 O7 2.256864 1_556
Ca1 O18 2.309893 1_555
Ca1 O2 2.391541 1_545
Ca1 O0 2.394656 1_445
Ca1 O12 2.520679 1_556
Ca1 O14 2.643704 1_556
Ca2 O4 2.337806 1_555
Ca2 O10 2.343584 1_555
Ca2 O25 2.367273 1_455
Ca2 O21 2.483309 1_555
Ca2 O26 2.483888 1_555
Ca2 O1 2.646037 1_555
Ca2 O31 2.874557 1_455
Ca3 O5 2.337806 1_555
Ca3 O11 2.343584 1_555
Ca3 O24 2.367273 1_655
Ca3 O20 2.483309 1_555
Ca3 O27 2.483888 1_555
Ca3 O13 2.646037 1_555
Ca3 O22 2.874557 1_655
Al0 O7 1.881939 1_555
Al0 O14 1.892082 1_555
Al0 O1 1.897770 1_555
Al0 O29 1.935644 1_555
Al0 O28 1.935945 1_554
Al0 O4 1.977139 1_555
Al1 O3 1.870800 1_455
Al1 O25 1.876351 1_455
Al1 O16 1.914907 1_555
Al1 O12 1.931061 1_555
Al1 O14 1.963663 1_555
Al1 O1 1.997433 1_555
Al2 O2 1.870800 1_655
Al2 O24 1.876351 1_655
Al2 O17 1.914907 1_555
Al2 O0 1.931061 1_555
Al2 O15 1.963663 1_555
Al2 O13 1.997433 1_555
Al3 O6 1.881939 1_555
Al3 O15 1.892082 1_555
Al3 O13 1.897770 1_555
Al3 O28 1.935644 1_555
Al3 O29 1.935945 1_556
Al3 O5 1.977139 1_555
Fe0 O18 2.025041 1_565
Fe0 O10 2.091165 1_555
Fe0 O17 2.094141 1_455
Fe0 O30 2.129726 1_555
Fe0 O26 2.465844 1_555
Fe1 O19 2.025041 1_545
Fe1 O11 2.091165 1_555
Fe1 O16 2.094141 1_655
Fe1 O23 2.129726 1_555
Fe1 O27 2.465844 1_555
B0 O13 1.446880 1_555
B0 O21 1.492757 1_555
B0 O30 1.512016 1_555
B0 O26 1.522613 1_555
B1 O1 1.446880 1_555
B1 O20 1.492757 1_555
B1 O23 1.512016 1_555
B1 O27 1.522613 1_555
H0 O14 0.986593 1_656
H1 O15 0.986593 1_454
O0 Si4 1.643761 1_565
O2 Si0 1.645198 1_556
O3 Si7 1.645198 1_554
O4 Si0 1.655029 1_555
O5 Si7 1.655029 1_555
O6 Si0 1.619543 1_556
O7 Si7 1.619543 1_554
O8 Si6 1.656085 1_555
O8 Si0 1.666475 1_555
O9 Si4 1.656085 1_555
O9 Si7 1.666475 1_555
O10 Si6 1.621366 1_555
O11 Si4 1.621366 1_555
O12 Si6 1.643761 1_545
O16 Si3 1.638801 1_555
O17 Si2 1.638801 1_555
O18 Si3 1.606063 1_555
O19 Si2 1.606063 1_555
O20 Si3 1.665999 1_555
O21 Si2 1.665999 1_555
O22 Si1 1.650228 1_555
O22 Si3 1.655316 1_555
O23 Si6 1.668457 1_545
O24 Si1 1.615387 1_555
O25 Si5 1.615387 1_555
O26 Si1 1.669903 1_555
O27 Si5 1.669903 1_555
O28 Si1 1.634053 1_555
O29 Si5 1.634053 1_555
O30 Si4 1.668457 1_565
O31 Si5 1.650228 1_555
O31 Si2 1.655316 1_555
