# generated using pymatgen
data_Na2Sc2Al2SiS5O24
_symmetry_space_group_name_H-M   'P 1'
_cell_length_a   8.61502126
_cell_length_b   8.60583892
_cell_length_c   22.55359944
_cell_angle_alpha   89.68588380
_cell_angle_beta   90.27015201
_cell_angle_gamma   119.76383278
_symmetry_Int_Tables_number   1
_chemical_formula_structural   Na2Sc2Al2SiS5O24
_chemical_formula_sum   'Na6 Sc6 Al6 Si3 S15 O72'
_cell_volume   1451.49987300
_cell_formula_units_Z   3
loop_
 _symmetry_equiv_pos_site_id
 _symmetry_equiv_pos_as_xyz
  1  'x, y, z'
loop_
 _atom_site_type_symbol
 _atom_site_label
 _atom_site_symmetry_multiplicity
 _atom_site_fract_x
 _atom_site_fract_y
 _atom_site_fract_z
 _atom_site_occupancy
  Na  Na0  1  0.99179862  0.98977329  0.50298894  1
  Na  Na1  1  0.99967099  0.00010152  0.99956105  1
  Na  Na2  1  0.66979516  0.32437614  0.82975969  1
  Na  Na3  1  0.65209015  0.32003859  0.33079713  1
  Na  Na4  1  0.33043634  0.67657508  0.17163080  1
  Na  Na5  1  0.35770678  0.67607125  0.66616992  1
  Sc  Sc0  1  0.01480903  0.00329676  0.34808019  1
  Sc  Sc1  1  0.97830432  0.98718623  0.64628340  1
  Sc  Sc2  1  0.66450862  0.33149879  0.68770104  1
  Sc  Sc3  1  0.66766264  0.34285775  0.48056025  1
  Sc  Sc4  1  0.34401820  0.66839622  0.52257516  1
  Sc  Sc5  1  0.34446947  0.67412732  0.81306951  1
  Al  Al0  1  0.99806337  0.00317497  0.84530025  1
  Al  Al1  1  0.00475292  0.99470370  0.15524286  1
  Al  Al2  1  0.65919893  0.32656749  0.18645926  1
  Al  Al3  1  0.66751671  0.33248140  0.98409171  1
  Al  Al4  1  0.33257078  0.66520850  0.01688444  1
  Al  Al5  1  0.33253984  0.68067487  0.31344165  1
  Si  Si0  1  0.30011943  0.99923645  0.24616436  1
  Si  Si1  1  0.71353500  0.00647523  0.75446554  1
  Si  Si2  1  0.66947356  0.62723392  0.58413472  1
  S  S0  1  0.70732220  0.70443969  0.24584948  1
  S  S1  1  0.99837383  0.29291166  0.24559206  1
  S  S2  1  0.28411966  0.28247748  0.75363891  1
  S  S3  1  0.99930917  0.71419568  0.75456730  1
  S  S4  1  0.96037915  0.33508167  0.58237877  1
  S  S5  1  0.37230835  0.04241914  0.58276580  1
  S  S6  1  0.95234725  0.61847679  0.08273023  1
  S  S7  1  0.66668664  0.04419734  0.08275162  1
  S  S8  1  0.37987847  0.33650464  0.08205339  1
  S  S9  1  0.62784781  0.66191559  0.92243423  1
  S  S10  1  0.03756215  0.37361827  0.92197504  1
  S  S11  1  0.33529394  0.96389494  0.92149601  1
  S  S12  1  0.62202810  0.95478263  0.41242613  1
  S  S13  1  0.33244986  0.38486900  0.41131382  1
  S  S14  1  0.04577653  0.66279087  0.41326184  1
  O  O0  1  0.21581812  0.04006348  0.30469726  1
  O  O1  1  0.81495944  0.77947882  0.29959075  1
  O  O2  1  0.95554554  0.18145864  0.29929778  1
  O  O3  1  0.20068198  0.17295369  0.80882250  1
  O  O4  1  0.98541831  0.80586227  0.80920576  1
  O  O5  1  0.82850525  0.02432465  0.81450001  1
  O  O6  1  0.79439147  0.97340020  0.69488512  1
  O  O7  1  0.18535906  0.20250459  0.69972523  1
  O  O8  1  0.03220261  0.81912742  0.70059367  1
  O  O9  1  0.78900509  0.82649991  0.19323517  1
  O  O10  1  0.02501373  0.20263902  0.19298070  1
  O  O11  1  0.16678869  0.96330442  0.18943436  1
  O  O12  1  0.87503019  0.35240278  0.63633824  1
  O  O13  1  0.48231857  0.11884216  0.63648089  1
  O  O14  1  0.64293234  0.51099625  0.64331135  1
  O  O15  1  0.87083820  0.50525737  0.13571274  1
  O  O16  1  0.63562453  0.12684529  0.13521789  1
  O  O17  1  0.49394301  0.36952937  0.13500809  1
  O  O18  1  0.46367879  0.30505282  0.02914902  1
  O  O19  1  0.84006471  0.53325066  0.02918797  1
  O  O20  1  0.69659584  0.15767459  0.02906034  1
  O  O21  1  0.45940908  0.14401637  0.52825665  1
  O  O22  1  0.68736453  0.53354190  0.52351982  1
  O  O23  1  0.85137740  0.30577979  0.52838719  1
  O  O24  1  0.53638177  0.69256685  0.97402546  1
  O  O25  1  0.15623071  0.46626931  0.97452127  1
  O  O26  1  0.30516044  0.84399967  0.97408904  1
  O  O27  1  0.54238049  0.85421151  0.46711607  1
  O  O28  1  0.31460513  0.46464874  0.46603985  1
  O  O29  1  0.14634448  0.68508304  0.46762660  1
  O  O30  1  0.13822997  0.64697850  0.35980523  1
  O  O31  1  0.51143603  0.86158112  0.35923367  1
  O  O32  1  0.34965768  0.49525492  0.35772580  1
  O  O33  1  0.10962720  0.48164099  0.86819258  1
  O  O34  1  0.37104685  0.89042950  0.86806794  1
  O  O35  1  0.51951407  0.62670749  0.86845060  1
  O  O36  1  0.02091725  0.82124063  0.40837088  1
  O  O37  1  0.80089273  0.97285668  0.40706435  1
  O  O38  1  0.16844961  0.20649732  0.40810923  1
  O  O39  1  0.02481147  0.19596105  0.91704437  1
  O  O40  1  0.17340627  0.98201771  0.91393903  1
  O  O41  1  0.80776760  0.82069795  0.91655608  1
  O  O42  1  0.99233163  0.18320935  0.58599466  1
  O  O43  1  0.20022684  0.03515378  0.58746595  1
  O  O44  1  0.84720544  0.82154153  0.58318274  1
  O  O45  1  0.96748971  0.79831410  0.08885602  1
  O  O46  1  0.82809792  0.02389829  0.09084740  1
  O  O47  1  0.19823429  0.17776499  0.08924840  1
  O  O48  1  0.69175694  0.18152379  0.75091469  1
  O  O49  1  0.46519033  0.30608646  0.75246713  1
  O  O50  1  0.83411599  0.54047477  0.75210153  1
  O  O51  1  0.69654626  0.52938855  0.23456306  1
  O  O52  1  0.84502036  0.32260028  0.23441517  1
  O  O53  1  0.49609441  0.17624498  0.23575298  1
  O  O54  1  0.64436491  0.49837166  0.93272588  1
  O  O55  1  0.85544406  0.35191946  0.93223408  1
  O  O56  1  0.49602994  0.14394520  0.93208640  1
  O  O57  1  0.63611039  0.13237248  0.41458774  1
  O  O58  1  0.49178578  0.36249710  0.41297626  1
  O  O59  1  0.86853722  0.49836162  0.41416743  1
  O  O60  1  0.36196932  0.50084197  0.07274322  1
  O  O61  1  0.13550902  0.63985562  0.07418119  1
  O  O62  1  0.50379446  0.86297976  0.07369130  1
  O  O63  1  0.34524157  0.85966013  0.57798455  1
  O  O64  1  0.49215633  0.64837224  0.58010130  1
  O  O65  1  0.13304431  0.50186610  0.57744153  1
  O  O66  1  0.31725566  0.81998959  0.25764849  1
  O  O67  1  0.52542062  0.67879978  0.25387506  1
  O  O68  1  0.16387159  0.46742679  0.25388692  1
  O  O69  1  0.29493227  0.45854940  0.76040704  1
  O  O70  1  0.15373893  0.68547167  0.76141871  1
  O  O71  1  0.51403327  0.82643827  0.75886007  1
loop_
_geom_bond_atom_site_label_1
_geom_bond_atom_site_label_2
_geom_bond_distance
_geom_bond_site_symmetry_2
Na0 O44 2.262957 1_555
Na0 O43 2.507274 1_665
Na0 O42 2.510449 1_565
Na0 O36 2.668439 1_655
Na0 O37 2.671847 1_555
Na0 O38 2.746366 1_665
Na1 O39 2.440982 1_655
Na1 O41 2.467752 1_545
Na1 O40 2.501067 1_645
Na1 O45 2.576290 1_546
Na1 O47 2.600009 1_656
Na1 O46 2.607566 1_556
Na2 O48 2.228754 1_555
Na2 O49 2.422644 1_555
Na2 O50 2.429815 1_555
Na2 O55 2.747801 1_555
Na2 O56 2.768318 1_555
Na2 O54 2.837543 1_555
Na3 O57 2.438599 1_555
Na3 O58 2.451231 1_555
Na3 O53 2.506619 1_555
Na3 O59 2.554429 1_555
Na3 O51 2.717203 1_555
Na3 O52 2.735956 1_555
Na4 O66 2.338217 1_555
Na4 O68 2.482855 1_555
Na4 O67 2.490345 1_555
Na4 O61 2.682602 1_555
Na4 O62 2.701226 1_555
Na4 O60 2.790277 1_555
Na5 O64 2.338150 1_555
Na5 O71 2.476141 1_555
Na5 O63 2.568157 1_555
Na5 O65 2.667145 1_555
Na5 O69 2.697416 1_555
Na5 O70 2.808499 1_555
Al0 O5 1.703664 1_555
Al0 O3 1.823947 1_655
Al0 O4 1.840807 1_545
Al0 O40 2.226973 1_645
Al0 O39 2.251714 1_655
Al0 O41 2.275411 1_545
Al1 O11 1.725805 1_555
Al1 O9 1.901155 1_455
Al1 O10 1.913694 1_565
Al1 O45 2.164673 1_455
Al1 O46 2.200765 1_465
Al1 O47 2.205931 1_565
Al2 O53 1.754466 1_555
Al2 O52 1.941970 1_555
Al2 O51 1.946030 1_555
Al2 O16 2.001005 1_555
Al2 O17 2.003108 1_555
Al2 O15 2.053203 1_555
Al3 O54 1.918952 1_555
Al3 O19 1.919482 1_556
Al3 O20 1.926010 1_556
Al3 O55 1.940068 1_555
Al3 O18 1.942888 1_556
Al3 O56 1.953325 1_555
Al4 O25 1.890447 1_554
Al4 O24 1.917244 1_554
Al4 O26 1.922784 1_554
Al4 O60 1.996314 1_555
Al4 O62 2.056108 1_555
Al4 O61 2.061432 1_555
Al5 O66 1.782356 1_555
Al5 O31 1.867096 1_555
Al5 O30 1.873753 1_555
Al5 O32 1.944298 1_555
Al5 O67 2.148059 1_555
Al5 O68 2.155101 1_555
O0 Si0 1.631290 1_545
O0 Sc0 1.877449 1_555
O1 S0 1.466094 1_555
O1 Sc0 2.140812 1_665
O2 S1 1.470835 1_555
O2 Sc0 2.139010 1_655
O3 S2 1.508969 1_555
O4 S3 1.503649 1_555
O5 Si1 1.636002 1_555
O6 Si1 1.606796 1_565
O6 Sc1 1.885283 1_555
O7 S2 1.447113 1_555
O7 Sc1 2.188774 1_445
O8 S3 1.454204 1_455
O8 Sc1 2.109428 1_455
O9 S0 1.505663 1_555
O10 S1 1.501286 1_455
O11 Si0 1.640082 1_555
O12 S4 1.470765 1_555
O12 Sc2 2.087391 1_555
O13 S5 1.475624 1_555
O13 Sc2 2.073987 1_555
O14 Si2 1.611010 1_555
O14 Sc2 1.920780 1_555
O15 S6 1.478576 1_555
O16 S7 1.476105 1_555
O17 S8 1.479249 1_555
O18 S8 1.491249 1_555
O19 S6 1.492033 1_555
O20 S7 1.492171 1_555
O21 S5 1.477975 1_555
O21 Sc3 2.062545 1_555
O22 Si2 1.637148 1_555
O22 Sc3 1.843848 1_555
O23 S4 1.478408 1_555
O23 Sc3 2.062000 1_555
O24 S9 1.504249 1_555
O25 S10 1.508313 1_555
O26 S11 1.504170 1_555
O27 S12 1.465595 1_555
O27 Sc4 2.080146 1_555
O28 S13 1.460928 1_555
O28 Sc4 2.084427 1_555
O29 S14 1.455457 1_555
O29 Sc4 2.162751 1_555
O30 S14 1.491624 1_555
O31 S12 1.493772 1_555
O32 S13 1.494793 1_555
O33 S10 1.463797 1_555
O33 Sc5 2.248675 1_555
O34 S11 1.466901 1_555
O34 Sc5 2.157676 1_555
O35 S9 1.468940 1_555
O35 Sc5 2.142055 1_555
O36 S14 1.485090 1_555
O36 Sc0 2.089082 1_565
O37 S12 1.475413 1_555
O37 Sc0 2.185079 1_665
O38 S13 1.484826 1_555
O38 Sc0 2.086600 1_555
O39 S10 1.482208 1_555
O40 S11 1.487243 1_555
O41 S9 1.477966 1_555
O42 S4 1.465083 1_555
O42 Sc1 2.117366 1_545
O43 S5 1.456808 1_555
O43 Sc1 2.195381 1_445
O44 Si2 1.612125 1_555
O44 Sc1 1.934325 1_555
O45 S6 1.494340 1_555
O46 S7 1.495311 1_555
O47 S8 1.489577 1_555
O48 Si1 1.609387 1_555
O48 Sc2 2.007734 1_555
O49 S2 1.470037 1_555
O49 Sc2 2.185714 1_555
O50 S3 1.466714 1_555
O50 Sc2 2.208751 1_555
O51 S0 1.485924 1_555
O52 S1 1.485102 1_555
O53 Si0 1.634751 1_545
O54 S9 1.499979 1_555
O55 S10 1.504020 1_655
O56 S11 1.498700 1_545
O57 S12 1.472922 1_545
O57 Sc3 2.259611 1_555
O58 S13 1.478025 1_555
O58 Sc3 2.208477 1_555
O59 S14 1.479535 1_655
O59 Sc3 2.175084 1_555
O60 S8 1.510334 1_555
O61 S6 1.508367 1_455
O62 S7 1.507020 1_565
O63 S5 1.475528 1_565
O63 Sc4 2.067920 1_555
O64 Si2 1.627672 1_555
O64 Sc4 1.882021 1_555
O65 S4 1.471480 1_455
O65 Sc4 2.074652 1_555
O66 Si0 1.640049 1_555
O67 S0 1.481936 1_555
O68 S1 1.482547 1_455
O69 S2 1.479937 1_555
O69 Sc5 2.065913 1_555
O70 S3 1.476195 1_455
O70 Sc5 2.050965 1_555
O71 Si1 1.649356 1_565
O71 Sc5 1.856076 1_555
