# generated using pymatgen
data_K2NaMgTiOF5
_symmetry_space_group_name_H-M   'P 1'
_cell_length_a   6.17664600
_cell_length_b   6.82626226
_cell_length_c   6.75486538
_cell_angle_alpha   53.02959367
_cell_angle_beta   63.53958208
_cell_angle_gamma   62.35987569
_symmetry_Int_Tables_number   1
_chemical_formula_structural   K2NaMgTiOF5
_chemical_formula_sum   'K2 Na1 Mg1 Ti1 O1 F5'
_cell_volume   195.91597299
_cell_formula_units_Z   1
loop_
 _symmetry_equiv_pos_site_id
 _symmetry_equiv_pos_as_xyz
  1  'x, y, z'
loop_
 _atom_site_type_symbol
 _atom_site_label
 _atom_site_symmetry_multiplicity
 _atom_site_fract_x
 _atom_site_fract_y
 _atom_site_fract_z
 _atom_site_occupancy
  K  K0  1  0.24731000  0.32946700  0.30662500  1
  K  K1  1  0.88340200  0.69337500  0.67053300  1
  Na  Na0  1  0.50470500  0.50422300  0.49577700  1
  Mg  Mg0  1  0.48400400  0.99361500  0.00638500  1
  Ti  Ti0  1  0.00499300  0.98067900  0.01932100  1
  O  O0  1  0.24672600  0.78527500  0.21472500  1
  F  F0  1  0.25588400  0.23545400  0.76454600  1
  F  F1  1  0.15769200  0.80598200  0.80008900  1
  F  F2  1  0.76376300  0.19991100  0.19401800  1
  F  F3  1  0.73233500  0.77396200  0.22603800  1
  F  F4  1  0.71918400  0.20847600  0.79152400  1
loop_
_geom_bond_atom_site_label_1
_geom_bond_atom_site_label_2
_geom_bond_distance
_geom_bond_site_symmetry_2
K0 O0 2.781175 1_555
K1 O0 2.781176 1_655
Na0 O0 2.302708 1_555
Mg0 O0 1.959482 1_555
O0 Ti0 1.881886 1_555
F0 Mg0 2.007120 1_546
F0 Ti0 2.216257 1_546
F0 Na0 2.268791 1_555
F0 K0 2.776562 1_555
F0 K1 2.776562 1_455
F1 Ti0 2.083402 1_556
F1 K1 2.750589 1_455
F1 K0 3.037221 1_556
F1 K0 3.170289 1_565
F2 Ti0 2.083402 1_645
F2 K0 2.750589 1_555
F2 K1 3.037221 1_545
F2 K1 3.170289 1_554
F3 Mg0 2.005168 1_555
F3 Ti0 2.125215 1_655
F3 Na0 2.184218 1_555
F3 K1 3.197192 1_555
F3 K0 3.197193 1_655
F4 Mg0 1.976192 1_546
F4 Na0 2.201727 1_555
F4 Ti0 2.213123 1_646
