# generated using pymatgen
data_Na10Y4Zr4Si7S5O48
_symmetry_space_group_name_H-M   'P 1'
_cell_length_a   18.57872184
_cell_length_b   9.26583217
_cell_length_c   23.32969310
_cell_angle_alpha   90.02889897
_cell_angle_beta   89.21100791
_cell_angle_gamma   119.70584342
_symmetry_Int_Tables_number   1
_chemical_formula_structural   Na10Y4Zr4Si7S5O48
_chemical_formula_sum   'Na30 Y12 Zr12 Si21 S15 O144'
_cell_volume   3487.92331404
_cell_formula_units_Z   3
loop_
 _symmetry_equiv_pos_site_id
 _symmetry_equiv_pos_as_xyz
  1  'x, y, z'
loop_
 _atom_site_type_symbol
 _atom_site_label
 _atom_site_symmetry_multiplicity
 _atom_site_fract_x
 _atom_site_fract_y
 _atom_site_fract_z
 _atom_site_occupancy
  Na  Na0  1  0.18576007  0.37585120  0.23802537  1
  Na  Na1  1  0.68596973  0.37694028  0.23822502  1
  Na  Na2  1  0.98942344  0.62667857  0.25692769  1
  Na  Na3  1  0.49067399  0.62678350  0.25676932  1
  Na  Na4  1  0.49020493  0.34882088  0.76241588  1
  Na  Na5  1  0.18584234  0.99682072  0.74279604  1
  Na  Na6  1  0.68424791  0.99597532  0.74232057  1
  Na  Na7  1  0.66291284  0.34519181  0.57841595  1
  Na  Na8  1  0.01783331  0.70882059  0.57667702  1
  Na  Na9  1  0.82325069  0.95633087  0.59421077  1
  Na  Na10  1  0.49639978  0.67724378  0.91084900  1
  Na  Na11  1  0.99832678  0.67711835  0.90990960  1
  Na  Na12  1  0.85105549  0.04059997  0.90445138  1
  Na  Na13  1  0.15413471  0.29197755  0.92591452  1
  Na  Na14  1  0.49617817  0.31925478  0.40950525  1
  Na  Na15  1  0.99265011  0.31290064  0.40982098  1
  Na  Na16  1  0.34853995  0.65921169  0.40396463  1
  Na  Na17  1  0.85062874  0.66341492  0.40889187  1
  Na  Na18  1  0.02928395  0.00937949  0.49706427  1
  Na  Na19  1  0.52457420  0.99008952  0.49448679  1
  Na  Na20  1  0.01864789  0.02808267  0.00107405  1
  Na  Na21  1  0.52408392  0.05718849  0.99366963  1
  Na  Na22  1  0.34550026  0.32417631  0.83279924  1
  Na  Na23  1  0.85121524  0.33973333  0.82335039  1
  Na  Na24  1  0.34050103  0.33821239  0.32738879  1
  Na  Na25  1  0.83899930  0.33641160  0.33090450  1
  Na  Na26  1  0.17923397  0.64999889  0.16108587  1
  Na  Na27  1  0.67885145  0.65099715  0.16149141  1
  Na  Na28  1  0.17834610  0.69288657  0.67106198  1
  Na  Na29  1  0.67851363  0.69576953  0.66649512  1
  Y  Y0  1  0.00138772  0.99798983  0.35110918  1
  Y  Y1  1  0.50177369  0.00015044  0.34997653  1
  Y  Y2  1  0.99731922  0.99933454  0.84702028  1
  Y  Y3  1  0.49562609  0.00183043  0.85345566  1
  Y  Y4  1  0.33300194  0.33084278  0.68420071  1
  Y  Y5  1  0.83637139  0.33973784  0.68611561  1
  Y  Y6  1  0.33385580  0.33701686  0.18190398  1
  Y  Y7  1  0.83364533  0.33653500  0.18221447  1
  Y  Y8  1  0.16155485  0.65578614  0.01875202  1
  Y  Y9  1  0.65989298  0.65014578  0.01998493  1
  Y  Y10  1  0.16520776  0.67324405  0.51761016  1
  Y  Y11  1  0.65970533  0.67074339  0.51833686  1
  Zr  Zr0  1  0.99615454  0.98373272  0.65091738  1
  Zr  Zr1  1  0.49661709  0.97771478  0.65064653  1
  Zr  Zr2  1  0.99869482  0.01535639  0.14878322  1
  Zr  Zr3  1  0.49847027  0.01366257  0.14893697  1
  Zr  Zr4  1  0.32758818  0.31755848  0.98040337  1
  Zr  Zr5  1  0.82324982  0.32261645  0.98090497  1
  Zr  Zr6  1  0.32430641  0.32514434  0.48087418  1
  Zr  Zr7  1  0.82711613  0.34364600  0.48139076  1
  Zr  Zr8  1  0.16485931  0.65164220  0.31469208  1
  Zr  Zr9  1  0.66375053  0.65212870  0.31525386  1
  Zr  Zr10  1  0.16237255  0.67855314  0.81437039  1
  Zr  Zr11  1  0.66513745  0.67793814  0.81536022  1
  Si  Si0  1  0.35048340  0.70671991  0.25146787  1
  Si  Si1  1  0.85083933  0.70753428  0.25134155  1
  Si  Si2  1  0.00049328  0.30177079  0.25460318  1
  Si  Si3  1  0.50046918  0.30227210  0.25433081  1
  Si  Si4  1  0.00115967  0.69735872  0.75362460  1
  Si  Si5  1  0.50081271  0.69723257  0.75540982  1
  Si  Si6  1  0.35065492  0.99406030  0.74861472  1
  Si  Si7  1  0.84600310  0.99236525  0.75182442  1
  Si  Si8  1  0.18062444  0.03350004  0.58851571  1
  Si  Si9  1  0.68334285  0.04301525  0.58782600  1
  Si  Si10  1  0.83390783  0.63602988  0.58252853  1
  Si  Si11  1  0.18094405  0.32713143  0.08640696  1
  Si  Si12  1  0.68007968  0.32644382  0.08931026  1
  Si  Si13  1  0.01666856  0.37126375  0.91758683  1
  Si  Si14  1  0.51457429  0.37103668  0.91628698  1
  Si  Si15  1  0.16674105  0.96685726  0.91692289  1
  Si  Si16  1  0.66699709  0.96285026  0.91901792  1
  Si  Si17  1  0.16664293  0.36936790  0.41808827  1
  Si  Si18  1  0.66614857  0.36726210  0.42024460  1
  Si  Si19  1  0.01439946  0.65889690  0.41857288  1
  Si  Si20  1  0.51228705  0.65894893  0.41577513  1
  S  S0  1  0.14587102  0.99195244  0.24725318  1
  S  S1  1  0.64621204  0.99175485  0.24708329  1
  S  S2  1  0.14665719  0.30288370  0.74898229  1
  S  S3  1  0.64276748  0.29417618  0.74712274  1
  S  S4  1  0.47943103  0.31968629  0.58212253  1
  S  S5  1  0.97961786  0.32508551  0.57987736  1
  S  S6  1  0.33752934  0.63385846  0.58087538  1
  S  S7  1  0.48018581  0.64042385  0.08301025  1
  S  S8  1  0.98014285  0.63996452  0.08220761  1
  S  S9  1  0.33637875  0.03837653  0.08292144  1
  S  S10  1  0.83667905  0.03940334  0.08105903  1
  S  S11  1  0.31070040  0.65506731  0.91701329  1
  S  S12  1  0.81237109  0.65886559  0.91718816  1
  S  S13  1  0.31305434  0.96763932  0.41562916  1
  S  S14  1  0.81223784  0.96549420  0.41674301  1
  O  O0  1  0.11009699  0.02277332  0.29994593  1
  O  O1  1  0.61057317  0.02313583  0.29984374  1
  O  O2  1  0.40249882  0.77534398  0.31027771  1
  O  O3  1  0.90396003  0.77620945  0.30975182  1
  O  O4  1  0.49156680  0.20751763  0.31424592  1
  O  O5  1  0.99247544  0.20658247  0.31420044  1
  O  O6  1  0.11095771  0.20773651  0.80355195  1
  O  O7  1  0.60283105  0.18988835  0.79797687  1
  O  O8  1  0.49296775  0.77994527  0.81390492  1
  O  O9  1  0.99772623  0.78414480  0.81299200  1
  O  O10  1  0.41299053  0.04188019  0.80147199  1
  O  O11  1  0.89480845  0.01116573  0.81090652  1
  O  O12  1  0.40233486  0.98083563  0.69131285  1
  O  O13  1  0.90133882  0.99058584  0.69459122  1
  O  O14  1  0.09236521  0.20947987  0.70053482  1
  O  O15  1  0.59220561  0.21100199  0.69482250  1
  O  O16  1  0.01138397  0.82186629  0.69778838  1
  O  O17  1  0.51263204  0.82354767  0.69955603  1
  O  O18  1  0.40765752  0.82711222  0.19758241  1
  O  O19  1  0.90784389  0.82872985  0.19714199  1
  O  O20  1  0.01415304  0.20013868  0.19997035  1
  O  O21  1  0.51332561  0.19843772  0.20028722  1
  O  O22  1  0.09203310  0.97276765  0.19755502  1
  O  O23  1  0.59207907  0.97223880  0.19762883  1
  O  O24  1  0.43910934  0.33759367  0.63436010  1
  O  O25  1  0.93837721  0.34850325  0.63057942  1
  O  O26  1  0.22912822  0.11729241  0.64662320  1
  O  O27  1  0.73296924  0.11792063  0.64661621  1
  O  O28  1  0.32886782  0.53378718  0.63179947  1
  O  O29  1  0.81979096  0.50999984  0.63384223  1
  O  O30  1  0.44035038  0.54205934  0.13622838  1
  O  O31  1  0.94016877  0.54253041  0.13531489  1
  O  O32  1  0.32833222  0.11894338  0.13513086  1
  O  O33  1  0.82938145  0.12430154  0.13250274  1
  O  O34  1  0.22734929  0.33142107  0.14564659  1
  O  O35  1  0.72543695  0.33124221  0.14897768  1
  O  O36  1  0.23615950  0.31657228  0.02993934  1
  O  O37  1  0.73814182  0.31754309  0.03442663  1
  O  O38  1  0.43070552  0.54761811  0.03230817  1
  O  O39  1  0.93097681  0.54830725  0.03121333  1
  O  O40  1  0.34539524  0.14436147  0.03161139  1
  O  O41  1  0.84554961  0.14212780  0.02873879  1
  O  O42  1  0.23826622  0.15312638  0.53241923  1
  O  O43  1  0.73752940  0.17215305  0.53313390  1
  O  O44  1  0.34506788  0.54759696  0.52802647  1
  O  O45  1  0.84902721  0.55100645  0.52280856  1
  O  O46  1  0.43148223  0.31446698  0.53033116  1
  O  O47  1  0.93036436  0.30810858  0.52758070  1
  O  O48  1  0.27345334  0.67764798  0.96974600  1
  O  O49  1  0.77383177  0.68096714  0.96925379  1
  O  O50  1  0.07938482  0.44672232  0.97070196  1
  O  O51  1  0.57156026  0.46447489  0.97007963  1
  O  O52  1  0.15377661  0.84488747  0.96952875  1
  O  O53  1  0.66297784  0.85017917  0.97191998  1
  O  O54  1  0.27493182  0.87003983  0.46818594  1
  O  O55  1  0.77531287  0.87114731  0.47016540  1
  O  O56  1  0.16073075  0.47247004  0.47115586  1
  O  O57  1  0.65925502  0.45550788  0.47797390  1
  O  O58  1  0.06476903  0.68058614  0.47718056  1
  O  O59  1  0.56959311  0.68523194  0.46976029  1
  O  O60  1  0.06853308  0.64832770  0.36184975  1
  O  O61  1  0.56079670  0.64277768  0.35661263  1
  O  O62  1  0.26193244  0.88686345  0.36493865  1
  O  O63  1  0.75970374  0.87822938  0.36670740  1
  O  O64  1  0.18231345  0.48630233  0.35904254  1
  O  O65  1  0.67737749  0.48977430  0.36352451  1
  O  O66  1  0.06656933  0.49558293  0.86161545  1
  O  O67  1  0.56162604  0.48552301  0.85681186  1
  O  O68  1  0.17709634  0.87928481  0.85711078  1
  O  O69  1  0.68349926  0.87776193  0.85950268  1
  O  O70  1  0.25965838  0.63638398  0.86624253  1
  O  O71  1  0.76207164  0.63685319  0.86590829  1
  O  O72  1  0.99132393  0.80663070  0.41478656  1
  O  O73  1  0.48817168  0.80561131  0.41365138  1
  O  O74  1  0.39664113  0.98566954  0.41023948  1
  O  O75  1  0.89538563  0.97962623  0.41076387  1
  O  O76  1  0.08349001  0.19025051  0.41497166  1
  O  O77  1  0.58274941  0.18824754  0.41483543  1
  O  O78  1  0.99655903  0.17899763  0.91179713  1
  O  O79  1  0.49530526  0.18133518  0.91420642  1
  O  O80  1  0.08691258  0.99717141  0.91430177  1
  O  O81  1  0.58351543  0.97511904  0.91494733  1
  O  O82  1  0.39658522  0.79189880  0.91177497  1
  O  O83  1  0.89679984  0.80741792  0.91182443  1
  O  O84  1  0.48611673  0.16647685  0.58436083  1
  O  O85  1  0.98397466  0.16962867  0.58555674  1
  O  O86  1  0.08847640  0.02193144  0.58764016  1
  O  O87  1  0.59318895  0.04154853  0.58898422  1
  O  O88  1  0.41605894  0.79779952  0.58354710  1
  O  O89  1  0.91956024  0.81843547  0.59010191  1
  O  O90  1  0.48330882  0.80358498  0.08634736  1
  O  O91  1  0.98399402  0.80418485  0.08505174  1
  O  O92  1  0.41419895  0.02833332  0.08571196  1
  O  O93  1  0.91514345  0.03038385  0.08437354  1
  O  O94  1  0.08864020  0.15294818  0.08746113  1
  O  O95  1  0.58822611  0.15360403  0.08877722  1
  O  O96  1  0.33245725  0.15073356  0.74391399  1
  O  O97  1  0.82423477  0.14253382  0.74865537  1
  O  O98  1  0.22934163  0.31678960  0.74271461  1
  O  O99  1  0.72630954  0.31461893  0.74242656  1
  O  O100  1  0.42626905  0.50789173  0.74673245  1
  O  O101  1  0.92249930  0.51480473  0.74856805  1
  O  O102  1  0.33325935  0.51423776  0.24537039  1
  O  O103  1  0.83447496  0.51591886  0.24479644  1
  O  O104  1  0.42516801  0.34153318  0.24631773  1
  O  O105  1  0.92518294  0.34086833  0.24650574  1
  O  O106  1  0.23008290  0.13553091  0.24081183  1
  O  O107  1  0.73048640  0.13480153  0.24067197  1
  O  O108  1  0.31373625  0.49497634  0.92163923  1
  O  O109  1  0.82436881  0.51058145  0.92269829  1
  O  O110  1  0.42666053  0.38156147  0.92312525  1
  O  O111  1  0.92773830  0.37222875  0.92611570  1
  O  O112  1  0.25047924  0.15494738  0.92279887  1
  O  O113  1  0.75437922  0.14747312  0.92427825  1
  O  O114  1  0.32411709  0.13858657  0.42094874  1
  O  O115  1  0.82403094  0.13619795  0.42001324  1
  O  O116  1  0.25387684  0.35986547  0.42355677  1
  O  O117  1  0.75438332  0.36149292  0.41993615  1
  O  O118  1  0.42400069  0.47538058  0.42232871  1
  O  O119  1  0.92673170  0.47475226  0.41982950  1
  O  O120  1  0.17150296  0.49201519  0.08360134  1
  O  O121  1  0.67102225  0.49092294  0.08567125  1
  O  O122  1  0.06460095  0.66319710  0.07969552  1
  O  O123  1  0.56485130  0.66503035  0.08092385  1
  O  O124  1  0.26371542  0.87250385  0.07847286  1
  O  O125  1  0.76469588  0.87317765  0.07818594  1
  O  O126  1  0.16220777  0.84112679  0.58453542  1
  O  O127  1  0.67600791  0.86221755  0.58071602  1
  O  O128  1  0.26524008  0.65806880  0.57746007  1
  O  O129  1  0.75477742  0.66503567  0.57919730  1
  O  O130  1  0.06340752  0.47261748  0.57645557  1
  O  O131  1  0.56507397  0.46486492  0.58015504  1
  O  O132  1  0.14816187  0.83490831  0.25255881  1
  O  O133  1  0.64860850  0.83495309  0.25235028  1
  O  O134  1  0.25839528  0.69438683  0.25452305  1
  O  O135  1  0.75836502  0.69347818  0.25532530  1
  O  O136  1  0.08890719  0.48626780  0.25501280  1
  O  O137  1  0.58934015  0.48552520  0.25483858  1
  O  O138  1  0.15523129  0.46943884  0.75215720  1
  O  O139  1  0.64606036  0.45736425  0.75154769  1
  O  O140  1  0.09127859  0.69774671  0.75213953  1
  O  O141  1  0.59014490  0.69344316  0.75449533  1
  O  O142  1  0.25982188  0.82346982  0.75485704  1
  O  O143  1  0.75622978  0.81349339  0.75260523  1
loop_
_geom_bond_atom_site_label_1
_geom_bond_atom_site_label_2
_geom_bond_distance
_geom_bond_site_symmetry_2
Na0 O34 2.383226 1_555
Na0 O102 2.390235 1_555
Na0 O136 2.499236 1_555
Na0 O134 2.597348 1_555
Na0 O106 2.731255 1_555
Na0 O20 2.921599 1_555
Na0 O64 3.013227 1_555
Na1 O35 2.305846 1_555
Na1 O103 2.405043 1_555
Na1 O137 2.481144 1_555
Na1 O135 2.583496 1_555
Na1 O107 2.749841 1_555
Na1 O21 2.936990 1_555
Na2 O105 2.317687 1_555
Na2 O103 2.552367 1_555
Na2 O132 2.604421 1_655
Na2 O136 2.737098 1_655
Na2 O60 2.828167 1_655
Na2 O3 2.843286 1_555
Na2 O31 2.976087 1_555
Na3 O104 2.312133 1_555
Na3 O102 2.590321 1_555
Na3 O133 2.592944 1_555
Na3 O61 2.652697 1_555
Na3 O137 2.729651 1_555
Na3 O2 2.883351 1_555
Na3 O30 2.956609 1_555
Na4 O100 2.337739 1_555
Na4 O139 2.560083 1_555
Na4 O67 2.574261 1_555
Na4 O96 2.616713 1_555
Na4 O10 2.626755 1_555
Na4 O141 2.791635 1_555
Na5 O96 2.367722 1_565
Na5 O140 2.445062 1_555
Na5 O26 2.447454 1_565
Na5 O142 2.597579 1_555
Na5 O98 2.658631 1_565
Na5 O68 2.853171 1_555
Na6 O97 2.267162 1_565
Na6 O27 2.452443 1_565
Na6 O141 2.474905 1_555
Na6 O143 2.637294 1_555
Na6 O99 2.653541 1_565
Na6 O69 2.942896 1_555
Na6 O17 2.958240 1_555
Na7 O87 2.456506 1_555
Na7 O131 2.555571 1_555
Na7 O57 2.572172 1_555
Na7 O129 2.585352 1_555
Na7 O43 2.787359 1_555
Na7 O84 2.854333 1_555
Na7 O29 2.861731 1_555
Na7 O15 2.988844 1_555
Na8 O126 2.342116 1_555
Na8 O89 2.506992 1_455
Na8 O58 2.527182 1_555
Na8 O86 2.537671 1_565
Na8 O130 2.709887 1_555
Na9 O129 2.373688 1_555
Na9 O127 2.449925 1_555
Na9 O85 2.645393 1_565
Na9 O89 2.665406 1_555
Na9 O13 2.706691 1_555
Na10 O110 2.395696 1_555
Na10 O81 2.413140 1_555
Na10 O8 2.468014 1_555
Na10 O82 2.553317 1_555
Na10 O67 2.881461 1_555
Na11 O9 2.471817 1_555
Na11 O111 2.481791 1_555
Na11 O80 2.584721 1_655
Na11 O83 2.696706 1_555
Na11 O66 2.789026 1_655
Na11 O109 2.818973 1_555
Na11 O52 2.889791 1_655
Na12 O78 2.357610 1_555
Na12 O11 2.380791 1_555
Na12 O113 2.481955 1_555
Na12 O83 2.691556 1_545
Na12 O111 2.721551 1_555
Na12 O69 2.915482 1_545
Na13 O80 2.392143 1_545
Na13 O78 2.600718 1_455
Na13 O108 2.608568 1_555
Na13 O50 2.647330 1_555
Na13 O112 2.658977 1_555
Na13 O36 2.832144 1_556
Na13 O6 2.973586 1_555
Na14 O118 2.427256 1_555
Na14 O4 2.435818 1_555
Na14 O77 2.452869 1_555
Na14 O74 2.703355 1_545
Na14 O114 2.786693 1_555
Na14 O61 2.889005 1_555
Na15 O119 2.369702 1_555
Na15 O5 2.437572 1_555
Na15 O76 2.461888 1_655
Na15 O75 2.696375 1_545
Na15 O115 2.729033 1_555
Na15 O60 2.918420 1_655
Na15 O47 2.958099 1_555
Na16 O73 2.269163 1_555
Na16 O2 2.411020 1_555
Na16 O116 2.477866 1_555
Na16 O74 2.700759 1_555
Na16 O118 2.726627 1_555
Na16 O64 2.895911 1_555
Na17 O72 2.276932 1_555
Na17 O117 2.473926 1_555
Na17 O3 2.517257 1_555
Na17 O75 2.619970 1_555
Na17 O119 2.753208 1_555
Na17 O45 2.849331 1_555
Na17 O65 3.004811 1_555
Na18 O86 2.371734 1_555
Na18 O76 2.401720 1_555
Na18 O72 2.536084 1_445
Na18 O89 2.881763 1_445
Na18 O85 2.891949 1_455
Na19 O73 2.412854 1_555
Na19 O77 2.444137 1_565
Na19 O87 2.487281 1_565
Na19 O88 2.807921 1_555
Na19 O84 2.947983 1_565
Na20 O94 2.381188 1_555
Na20 O80 2.465228 1_544
Na20 O78 2.656520 1_454
Na20 O91 2.683731 1_445
Na20 O93 2.722609 1_455
Na21 O79 2.384302 1_555
Na21 O81 2.438307 1_545
Na21 O95 2.481353 1_556
Na21 O92 2.861669 1_556
Na22 O110 2.507734 1_555
Na22 O96 2.562433 1_555
Na22 O100 2.563203 1_555
Na22 O112 2.672376 1_555
Na22 O108 2.835004 1_555
Na22 O98 3.009531 1_555
Na23 O101 2.288933 1_555
Na23 O97 2.395782 1_555
Na23 O111 2.743848 1_555
Na23 O99 2.930625 1_555
Na23 O113 2.943744 1_555
Na23 O109 2.978897 1_555
Na24 O104 2.433659 1_555
Na24 O102 2.562694 1_555
Na24 O118 2.658100 1_555
Na24 O114 2.775984 1_555
Na24 O116 2.807854 1_555
Na24 O106 2.847266 1_555
Na25 O105 2.508019 1_555
Na25 O119 2.573619 1_555
Na25 O103 2.637374 1_555
Na25 O117 2.666705 1_555
Na25 O115 2.705051 1_555
Na25 O107 2.892385 1_555
Na26 O120 2.286336 1_555
Na26 O134 2.563560 1_555
Na26 O124 2.672505 1_555
Na26 O136 2.701549 1_555
Na26 O122 2.919923 1_555
Na26 O132 2.960666 1_555
Na27 O121 2.267286 1_555
Na27 O135 2.577082 1_555
Na27 O125 2.687665 1_555
Na27 O137 2.689906 1_555
Na27 O123 2.901469 1_555
Na27 O133 2.937168 1_555
Na28 O142 2.416798 1_555
Na28 O140 2.486833 1_555
Na28 O126 2.545412 1_555
Na28 O138 2.674107 1_555
Na28 O128 2.810205 1_555
Na29 O143 2.413939 1_555
Na29 O127 2.542131 1_555
Na29 O129 2.560540 1_555
Na29 O141 2.604405 1_555
Na29 O139 2.798570 1_555
Na29 O131 2.953012 1_555
O0 S0 1.483156 1_545
O0 Y0 2.242942 1_545
O1 S1 1.485275 1_545
O1 Y1 2.237774 1_555
O2 Si0 1.627040 1_555
O2 Y1 2.199079 1_565
O3 Si1 1.627760 1_555
O3 Y0 2.188567 1_655
O4 Si3 1.613382 1_555
O4 Y1 2.188561 1_555
O5 Si2 1.612019 1_655
O5 Y0 2.197111 1_645
O6 S2 1.495416 1_555
O6 Y2 2.262097 1_445
O7 S3 1.469073 1_555
O7 Y3 2.273793 1_555
O8 Si5 1.604719 1_555
O8 Y3 2.231471 1_565
O9 Si4 1.617495 1_655
O9 Y2 2.149221 1_555
O10 Si6 1.608852 1_545
O10 Y3 2.140543 1_555
O11 Si7 1.621743 1_545
O11 Y2 2.144823 1_545
O12 Si6 1.674849 1_555
O12 Zr1 1.993387 1_555
O13 Si7 1.678992 1_555
O13 Zr0 2.051006 1_555
O14 S2 1.486326 1_555
O14 Zr0 2.293311 1_445
O15 S3 1.509384 1_555
O15 Zr1 2.265408 1_545
O16 Si4 1.685649 1_555
O16 Zr0 1.988973 1_455
O17 Si5 1.689666 1_555
O17 Zr1 1.965533 1_555
O18 Si0 1.656309 1_555
O18 Zr3 2.044813 1_565
O19 Si1 1.663550 1_555
O19 Zr2 2.041775 1_565
O20 Si2 1.674060 1_555
O20 Zr2 1.989996 1_455
O21 Si3 1.670515 1_555
O21 Zr3 1.995327 1_555
O22 S0 1.493953 1_555
O22 Zr2 2.278271 1_465
O23 S1 1.492257 1_555
O23 Zr3 2.275686 1_565
O24 S4 1.473690 1_555
O24 Y4 2.248744 1_555
O25 S5 1.474063 1_555
O25 Y5 2.248725 1_555
O26 Si8 1.609892 1_555
O26 Y4 2.160651 1_555
O27 Si9 1.616357 1_555
O27 Y5 2.213062 1_555
O28 S6 1.464611 1_555
O28 Y4 2.276962 1_555
O29 Si10 1.598382 1_555
O29 Y5 2.136572 1_555
O30 S7 1.492387 1_555
O30 Y6 2.208649 1_555
O31 S8 1.487600 1_555
O31 Y7 2.226144 1_555
O32 S9 1.472382 1_555
O32 Y6 2.253787 1_555
O33 S10 1.475762 1_555
O33 Y7 2.250411 1_555
O34 Si11 1.629024 1_555
O34 Y6 2.139633 1_555
O35 Si12 1.626322 1_555
O35 Y7 2.142530 1_555
O36 Si11 1.691005 1_555
O36 Zr4 2.037531 1_554
O37 Si12 1.691135 1_555
O37 Zr5 1.983312 1_554
O38 S7 1.493038 1_555
O38 Zr4 2.386311 1_554
O39 S8 1.493668 1_555
O39 Zr5 2.381279 1_554
O40 S9 1.502667 1_555
O40 Zr4 2.156647 1_554
O41 S10 1.504394 1_555
O41 Zr5 2.217013 1_554
O42 Si8 1.695469 1_555
O42 Zr6 1.991392 1_555
O43 Si9 1.686888 1_555
O43 Zr7 2.019365 1_555
O44 S6 1.511235 1_555
O44 Zr6 2.197475 1_555
O45 Si10 1.687642 1_555
O45 Zr7 2.006193 1_555
O46 S4 1.497575 1_555
O46 Zr6 2.358929 1_555
O47 S5 1.496176 1_555
O47 Zr7 2.373291 1_555
O48 S11 1.468306 1_555
O48 Y8 2.277611 1_556
O49 S12 1.466686 1_555
O49 Y9 2.301199 1_556
O50 Si13 1.616633 1_555
O50 Y8 2.110384 1_556
O51 Si14 1.603887 1_555
O51 Y9 2.064200 1_556
O52 Si15 1.601543 1_555
O52 Y8 2.160397 1_556
O53 Si16 1.593805 1_555
O53 Y9 2.142687 1_556
O54 S13 1.471485 1_555
O54 Y10 2.250219 1_555
O55 S14 1.473553 1_555
O55 Y11 2.303718 1_555
O56 Si17 1.598920 1_555
O56 Y10 2.118823 1_555
O57 Si18 1.611460 1_555
O57 Y11 2.201351 1_555
O58 Si19 1.623019 1_555
O58 Y10 2.133230 1_555
O59 Si20 1.599598 1_555
O59 Y11 2.092927 1_555
O60 Si19 1.683192 1_555
O60 Zr8 2.074945 1_555
O61 Si20 1.684976 1_555
O61 Zr9 2.093354 1_555
O62 S13 1.478614 1_555
O62 Zr8 2.353070 1_555
O63 S14 1.489061 1_555
O63 Zr9 2.315794 1_555
O64 Si17 1.683480 1_555
O64 Zr8 2.006487 1_555
O65 Si18 1.685934 1_555
O65 Zr9 1.995590 1_555
O66 Si13 1.673701 1_555
O66 Zr10 2.052886 1_555
O67 Si14 1.692263 1_555
O67 Zr11 2.089162 1_555
O68 Si15 1.669956 1_555
O68 Zr10 2.007452 1_555
O69 Si16 1.694163 1_555
O69 Zr11 1.996710 1_555
O70 S11 1.483313 1_555
O70 Zr10 2.375853 1_555
O71 S12 1.479110 1_555
O71 Zr11 2.348896 1_555
O72 Si19 1.627334 1_655
O72 Y0 2.247714 1_655
O73 Si20 1.629123 1_555
O73 Y1 2.249613 1_565
O74 S13 1.480825 1_555
O74 Y1 2.339770 1_565
O75 S14 1.488809 1_555
O75 Y0 2.331730 1_655
O76 Si17 1.615009 1_555
O76 Y0 2.255400 1_545
O77 Si18 1.620502 1_555
O77 Y1 2.247633 1_555
O78 Si13 1.634955 1_655
O78 Y2 2.252886 1_545
O79 Si14 1.611493 1_555
O79 Y3 2.186874 1_555
O80 Si15 1.642451 1_555
O80 Y2 2.310830 1_455
O81 Si16 1.614405 1_555
O81 Y3 2.291498 1_565
O82 S11 1.469083 1_555
O82 Y3 2.325309 1_565
O83 S12 1.491861 1_555
O83 Y2 2.359909 1_555
O84 S4 1.486093 1_555
O84 Zr1 2.416160 1_545
O85 S5 1.488291 1_555
O85 Zr0 2.396195 1_545
O86 Si8 1.661899 1_555
O86 Zr0 2.139077 1_445
O87 Si9 1.668097 1_555
O87 Zr1 2.125184 1_545
O88 S6 1.498634 1_555
O88 Zr1 2.249154 1_555
O89 Si10 1.661902 1_555
O89 Zr0 2.068128 1_555
O90 S7 1.485970 1_555
O90 Zr3 2.337860 1_565
O91 S8 1.488969 1_555
O91 Zr2 2.364840 1_565
O92 S9 1.496389 1_555
O92 Zr3 2.218146 1_555
O93 S10 1.503964 1_555
O93 Zr2 2.228363 1_555
O94 Si11 1.673938 1_555
O94 Zr2 2.071005 1_455
O95 Si12 1.664058 1_555
O95 Zr3 2.055794 1_555
O96 Si6 1.649668 1_545
O96 Y4 2.170513 1_555
O97 Si7 1.632108 1_545
O97 Y5 2.259155 1_555
O98 S2 1.481710 1_555
O98 Y4 2.295368 1_555
O99 S3 1.469990 1_555
O99 Y5 2.327210 1_555
O100 Si5 1.623641 1_555
O100 Y4 2.252090 1_555
O101 Si4 1.601693 1_655
O101 Y5 2.191785 1_555
O102 Si0 1.654960 1_555
O102 Y6 2.214514 1_555
O103 Si1 1.653506 1_555
O103 Y7 2.206215 1_555
O104 Si3 1.623627 1_555
O104 Y6 2.266670 1_555
O105 Si2 1.623058 1_655
O105 Y7 2.268486 1_555
O106 S0 1.473472 1_545
O106 Y6 2.335272 1_555
O107 S1 1.472276 1_545
O107 Y7 2.325330 1_555
O108 S11 1.516075 1_555
O108 Zr4 2.253776 1_555
O109 S12 1.502838 1_555
O109 Zr5 2.200800 1_555
O110 Si14 1.689197 1_555
O110 Zr4 2.092009 1_555
O111 Si13 1.665850 1_655
O111 Zr5 2.159043 1_555
O112 Si15 1.671807 1_545
O112 Zr4 2.010042 1_555
O113 Si16 1.682227 1_545
O113 Zr5 2.000623 1_555
O114 S13 1.498149 1_545
O114 Zr6 2.221330 1_555
O115 S14 1.487451 1_545
O115 Zr7 2.374602 1_555
O116 Si17 1.672666 1_555
O116 Zr6 2.017323 1_555
O117 Si18 1.666344 1_555
O117 Zr7 2.045463 1_555
O118 Si20 1.683799 1_555
O118 Zr6 2.147286 1_555
O119 Si19 1.676132 1_655
O119 Zr7 2.159617 1_555
O120 Si11 1.623326 1_555
O120 Y8 2.216705 1_555
O121 Si12 1.616449 1_555
O121 Y9 2.209316 1_555
O122 S8 1.474662 1_455
O122 Y8 2.307115 1_555
O123 S7 1.473454 1_555
O123 Y9 2.308706 1_555
O124 S9 1.463819 1_565
O124 Y8 2.422520 1_555
O125 S10 1.458141 1_565
O125 Y9 2.446953 1_555
O126 Si8 1.642936 1_565
O126 Y10 2.223016 1_555
O127 Si9 1.620679 1_565
O127 Y11 2.198687 1_555
O128 S6 1.470374 1_555
O128 Y10 2.398739 1_555
O129 Si10 1.623071 1_555
O129 Y11 2.302258 1_555
O130 S5 1.478520 1_455
O130 Y10 2.316039 1_555
O131 S4 1.490000 1_555
O131 Y11 2.327869 1_555
O132 S0 1.481987 1_555
O132 Zr8 2.370227 1_555
O133 S1 1.480688 1_555
O133 Zr9 2.364034 1_555
O134 Si0 1.657747 1_555
O134 Zr8 2.097242 1_555
O135 Si1 1.658661 1_555
O135 Zr9 2.111115 1_555
O136 Si2 1.684659 1_555
O136 Zr8 2.046135 1_555
O137 Si3 1.682675 1_555
O137 Zr9 2.053583 1_555
O138 S2 1.472791 1_555
O138 Zr10 2.371972 1_555
O139 S3 1.486304 1_555
O139 Zr11 2.410929 1_555
O140 Si4 1.672397 1_555
O140 Zr10 2.042038 1_555
O141 Si5 1.677200 1_555
O141 Zr11 2.056985 1_555
O142 Si6 1.648430 1_555
O142 Zr10 2.128816 1_555
O143 Si7 1.669904 1_555
O143 Zr11 2.100496 1_555
