# generated using pymatgen
data_LaMnGe
_symmetry_space_group_name_H-M   'P 1'
_cell_length_a   4.37578600
_cell_length_b   4.37578600
_cell_length_c   7.10035000
_cell_angle_alpha   90.00000000
_cell_angle_beta   90.00000000
_cell_angle_gamma   90.00000000
_symmetry_Int_Tables_number   1
_chemical_formula_structural   LaMnGe
_chemical_formula_sum   'La2 Mn2 Ge2'
_cell_volume   135.95397376
_cell_formula_units_Z   2
loop_
 _symmetry_equiv_pos_site_id
 _symmetry_equiv_pos_as_xyz
  1  'x, y, z'
loop_
 _atom_site_type_symbol
 _atom_site_label
 _atom_site_symmetry_multiplicity
 _atom_site_fract_x
 _atom_site_fract_y
 _atom_site_fract_z
 _atom_site_occupancy
  La  La0  1  0.00000000  0.50000000  0.32370400  1
  La  La1  1  0.50000000  0.00000000  0.67629600  1
  Mn  Mn0  1  0.50000000  0.50000000  0.00000000  1
  Mn  Mn1  1  0.00000000  0.00000000  0.00000000  1
  Ge  Ge0  1  0.50000000  0.00000000  0.20036300  1
  Ge  Ge1  1  0.00000000  0.50000000  0.79963700  1
loop_
_geom_bond_atom_site_label_1
_geom_bond_atom_site_label_2
_geom_bond_distance
_geom_bond_site_symmetry_2
La0 Mn1 3.173259 1_565
La0 Mn0 3.173259 1_555
La0 Mn0 3.173259 1_455
La0 Mn1 3.173259 1_555
La1 Mn1 3.173259 1_656
La1 Mn0 3.173259 1_556
La1 Mn1 3.173259 1_556
La1 Mn0 3.173259 1_546
Ge0 Mn1 2.609751 1_655
Ge0 Mn0 2.609751 1_555
Ge0 Mn1 2.609751 1_555
Ge0 Mn0 2.609751 1_545
Ge0 La0 3.215698 1_545
Ge0 La0 3.215698 1_645
Ge0 La0 3.215698 1_555
Ge0 La0 3.215698 1_655
Ge0 La1 3.379291 1_555
Ge1 Mn1 2.609751 1_566
Ge1 Mn0 2.609751 1_556
Ge1 Mn1 2.609751 1_556
Ge1 Mn0 2.609751 1_456
Ge1 La1 3.215698 1_455
Ge1 La1 3.215698 1_465
Ge1 La1 3.215698 1_565
Ge1 La1 3.215698 1_555
Ge1 La0 3.379291 1_555
