# generated using pymatgen
data_Na3MgBiO4
_symmetry_space_group_name_H-M   'P 1'
_cell_length_a   6.34069675
_cell_length_b   3.40064511
_cell_length_c   6.77402369
_cell_angle_alpha   89.99996096
_cell_angle_beta   82.67889069
_cell_angle_gamma   90.00001126
_symmetry_Int_Tables_number   1
_chemical_formula_structural   Na3MgBiO4
_chemical_formula_sum   'Na3 Mg1 Bi1 O4'
_cell_volume   144.87382782
_cell_formula_units_Z   1
loop_
 _symmetry_equiv_pos_site_id
 _symmetry_equiv_pos_as_xyz
  1  'x, y, z'
loop_
 _atom_site_type_symbol
 _atom_site_label
 _atom_site_symmetry_multiplicity
 _atom_site_fract_x
 _atom_site_fract_y
 _atom_site_fract_z
 _atom_site_occupancy
  Na  Na0  1  0.64048469  1.00000000  0.56104325  1
  Na  Na1  1  0.94817728  0.50000000  0.24809144  1
  Na  Na2  1  0.08822303  1.00000000  0.77185021  1
  Mg  Mg0  1  0.29641787  0.50000000  0.45774672  1
  Bi  Bi0  1  0.51760885  0.50000000  0.01413475  1
  O  O0  1  0.73258060  1.00000000  0.90813905  1
  O  O1  1  0.33148851  0.50000000  0.74566296  1
  O  O2  1  0.13826652  0.00000000  0.39962060  1
  O  O3  1  0.59841964  0.50000000  0.33121102  1
loop_
_geom_bond_atom_site_label_1
_geom_bond_atom_site_label_2
_geom_bond_distance
_geom_bond_site_symmetry_2
Na0 O3 2.343495 1_565
Na0 O3 2.343497 1_555
Na0 O0 2.493839 1_555
Na0 O1 2.769355 1_555
Na0 O1 2.769356 1_565
Na1 O3 2.217434 1_555
Na1 O2 2.390141 1_655
Na1 O2 2.390142 1_665
Na2 O1 2.287367 1_565
Na2 O1 2.287368 1_555
Na2 O0 2.325268 1_455
Na2 O2 2.500939 1_565
Mg0 O1 1.990943 1_555
Mg0 O3 1.995807 1_555
Mg0 O2 2.037732 1_565
Mg0 O2 2.037732 1_555
Bi0 O0 2.239458 1_554
Bi0 O0 2.239459 1_544
Bi0 O3 2.270779 1_555
Bi0 O1 2.290662 1_554
