# generated using pymatgen
data_NbCoB2
_symmetry_space_group_name_H-M   'P 1'
_cell_length_a   3.16509088
_cell_length_b   5.92631588
_cell_length_c   8.15847511
_cell_angle_alpha   90.00000000
_cell_angle_beta   90.00000000
_cell_angle_gamma   90.00000000
_symmetry_Int_Tables_number   1
_chemical_formula_structural   NbCoB2
_chemical_formula_sum   'Nb4 Co4 B8'
_cell_volume   153.03119642
_cell_formula_units_Z   4
loop_
 _symmetry_equiv_pos_site_id
 _symmetry_equiv_pos_as_xyz
  1  'x, y, z'
loop_
 _atom_site_type_symbol
 _atom_site_label
 _atom_site_symmetry_multiplicity
 _atom_site_fract_x
 _atom_site_fract_y
 _atom_site_fract_z
 _atom_site_occupancy
  Nb  Nb0  1  0.25000000  0.63674836  0.36778608  1
  Nb  Nb1  1  0.75000000  0.36325164  0.63221392  1
  Nb  Nb2  1  0.25000000  0.13674836  0.13221392  1
  Nb  Nb3  1  0.75000000  0.86325164  0.86778608  1
  Co  Co0  1  0.75000000  0.00937141  0.38759769  1
  Co  Co1  1  0.75000000  0.50937141  0.11240231  1
  Co  Co2  1  0.25000000  0.99062859  0.61240231  1
  Co  Co3  1  0.25000000  0.49062859  0.88759769  1
  B  B0  1  0.25000000  0.66535096  0.67167259  1
  B  B1  1  0.75000000  0.33464904  0.32832741  1
  B  B2  1  0.25000000  0.16535096  0.82832741  1
  B  B3  1  0.75000000  0.83464904  0.17167259  1
  B  B4  1  0.25000000  0.72926955  0.07675818  1
  B  B5  1  0.75000000  0.77073045  0.57675818  1
  B  B6  1  0.25000000  0.22926955  0.42324182  1
  B  B7  1  0.75000000  0.27073045  0.92324182  1
loop_
_geom_bond_atom_site_label_1
_geom_bond_atom_site_label_2
_geom_bond_distance
_geom_bond_site_symmetry_2
B0 B5 1.869250 1_555
B0 B5 1.869250 1_455
B0 Co2 1.987422 1_555
B0 Co3 2.043399 1_555
B0 Nb1 2.411097 1_555
B0 Nb1 2.411097 1_455
B0 Nb0 2.485038 1_555
B0 Nb3 2.537700 1_455
B0 Nb3 2.537700 1_555
B1 B6 1.869250 1_555
B1 B6 1.869250 1_655
B1 Co0 1.987422 1_555
B1 Co1 2.043399 1_555
B1 Nb0 2.411097 1_555
B1 Nb0 2.411097 1_655
B1 Nb1 2.485038 1_555
B1 Nb2 2.537700 1_655
B1 Nb2 2.537700 1_555
B2 B7 1.869250 1_455
B2 B7 1.869250 1_555
B2 Co3 1.987422 1_555
B2 Co2 2.043399 1_545
B2 Nb3 2.411097 1_445
B2 Nb3 2.411097 1_545
B2 Nb2 2.485038 1_556
B2 Nb1 2.537700 1_555
B2 Nb1 2.537700 1_455
B3 B4 1.869250 1_655
B3 B4 1.869250 1_555
B3 Co1 1.987422 1_555
B3 Co0 2.043399 1_565
B3 Nb2 2.411097 1_665
B3 Nb2 2.411097 1_565
B3 Nb3 2.485038 1_554
B3 Nb0 2.537700 1_555
B3 Nb0 2.537700 1_655
B4 Co1 2.070582 1_455
B4 Co1 2.070582 1_555
B4 Co3 2.093273 1_554
B4 Nb0 2.436832 1_555
B4 Nb2 2.456866 1_565
B4 Nb3 2.457963 1_454
B4 Nb3 2.457963 1_554
B5 Co2 2.070582 1_655
B5 Co2 2.070582 1_555
B5 Co0 2.093273 1_565
B5 Nb3 2.436832 1_555
B5 Nb1 2.456866 1_555
B5 Nb0 2.457963 1_555
B5 Nb0 2.457963 1_655
B6 Co0 2.070582 1_555
B6 Co0 2.070582 1_455
B6 Co2 2.093273 1_545
B6 Nb2 2.436832 1_555
B6 Nb0 2.456866 1_555
B6 Nb1 2.457963 1_455
B6 Nb1 2.457963 1_555
B7 Co3 2.070582 1_555
B7 Co3 2.070582 1_655
B7 Co1 2.093273 1_556
B7 Nb1 2.436832 1_555
B7 Nb3 2.456866 1_545
B7 Nb2 2.457963 1_656
B7 Nb2 2.457963 1_556
