# generated using pymatgen
data_BaEuMgFe2O5
_symmetry_space_group_name_H-M   'P 1'
_cell_length_a   4.03859499
_cell_length_b   4.03859907
_cell_length_c   9.90365204
_cell_angle_alpha   90.00000000
_cell_angle_beta   90.00000000
_cell_angle_gamma   90.00000000
_symmetry_Int_Tables_number   1
_chemical_formula_structural   BaEuMgFe2O5
_chemical_formula_sum   'Ba1 Eu1 Mg1 Fe2 O5'
_cell_volume   161.53119885
_cell_formula_units_Z   1
loop_
 _symmetry_equiv_pos_site_id
 _symmetry_equiv_pos_as_xyz
  1  'x, y, z'
loop_
 _atom_site_type_symbol
 _atom_site_label
 _atom_site_symmetry_multiplicity
 _atom_site_fract_x
 _atom_site_fract_y
 _atom_site_fract_z
 _atom_site_occupancy
  Ba  Ba0  1  -0.00000000  0.00000000  0.95075822  1
  Eu  Eu0  1  -0.00000000  0.00000000  0.59654777  1
  Mg  Mg0  1  -0.00000000  0.00000000  0.27837494  1
  Fe  Fe0  1  0.50000000  0.50000000  0.19223583  1
  Fe  Fe1  1  0.50000000  0.50000000  0.76404314  1
  O  O0  1  0.50000000  0.00000000  0.72870480  1
  O  O1  1  0.50000000  0.00000000  0.26731724  1
  O  O2  1  -0.00000000  0.50000000  0.72870280  1
  O  O3  1  -0.00000000  0.50000000  0.26731924  1
  O  O4  1  0.50000000  0.50000000  0.98432902  1
loop_
_geom_bond_atom_site_label_1
_geom_bond_atom_site_label_2
_geom_bond_distance
_geom_bond_site_symmetry_2
Ba0 O4 2.875008 1_555
Ba0 O4 2.875008 1_445
Ba0 O4 2.875008 1_545
Ba0 O4 2.875008 1_455
Ba0 O0 2.985595 1_555
Ba0 O0 2.985595 1_455
Ba0 O2 2.985611 1_545
Ba0 O2 2.985611 1_555
Eu0 O2 2.406361 1_555
Eu0 O2 2.406361 1_545
Eu0 O0 2.406370 1_555
Eu0 O0 2.406370 1_455
Mg0 O1 2.022265 1_455
Mg0 O1 2.022265 1_555
Mg0 O3 2.022266 1_545
Mg0 O3 2.022266 1_555
Fe0 O4 2.059037 1_554
Fe0 O1 2.151855 1_565
Fe0 O1 2.151855 1_555
Fe0 O3 2.151860 1_555
Fe0 O3 2.151860 1_655
Fe1 O0 2.049404 1_565
Fe1 O0 2.049404 1_555
Fe1 O2 2.049405 1_655
Fe1 O2 2.049405 1_555
Fe1 O4 2.181635 1_555
