# generated using pymatgen
data_MgBHO3
_symmetry_space_group_name_H-M   'P 1'
_cell_length_a   10.49283700
_cell_length_b   3.17566100
_cell_length_c   12.68830044
_cell_angle_alpha   84.18267331
_cell_angle_beta   90.00000000
_cell_angle_gamma   90.00000000
_symmetry_Int_Tables_number   1
_chemical_formula_structural   MgBHO3
_chemical_formula_sum   'Mg8 B8 H8 O24'
_cell_volume   420.61830094
_cell_formula_units_Z   8
loop_
 _symmetry_equiv_pos_site_id
 _symmetry_equiv_pos_as_xyz
  1  'x, y, z'
loop_
 _atom_site_type_symbol
 _atom_site_label
 _atom_site_symmetry_multiplicity
 _atom_site_fract_x
 _atom_site_fract_y
 _atom_site_fract_z
 _atom_site_occupancy
  Mg  Mg0  1  0.07930200  0.70698200  0.08816200  1
  Mg  Mg1  1  0.57930200  0.29301800  0.41183800  1
  Mg  Mg2  1  0.92069800  0.29301800  0.91183800  1
  Mg  Mg3  1  0.42069800  0.70698200  0.58816200  1
  Mg  Mg4  1  0.36242900  0.23272200  0.99510200  1
  Mg  Mg5  1  0.86242900  0.76727800  0.50489800  1
  Mg  Mg6  1  0.63757100  0.76727800  0.00489800  1
  Mg  Mg7  1  0.13757100  0.23272200  0.49510200  1
  B  B0  1  0.16799000  0.75948300  0.86171200  1
  B  B1  1  0.66799000  0.24051700  0.63828800  1
  B  B2  1  0.83201000  0.24051700  0.13828800  1
  B  B3  1  0.33201000  0.75948300  0.36171200  1
  B  B4  1  0.04808600  0.62739400  0.69296900  1
  B  B5  1  0.54808600  0.37260600  0.80703100  1
  B  B6  1  0.95191400  0.37260600  0.30703100  1
  B  B7  1  0.45191400  0.62739400  0.19296900  1
  H  H0  1  0.24350000  0.13778900  0.16183400  1
  H  H1  1  0.74350000  0.86221100  0.33816600  1
  H  H2  1  0.75650000  0.86221100  0.83816600  1
  H  H3  1  0.25650000  0.13778900  0.66183400  1
  H  H4  1  0.11820900  0.68326900  0.30671500  1
  H  H5  1  0.61820900  0.31673100  0.19328500  1
  H  H6  1  0.88179100  0.31673100  0.69328500  1
  H  H7  1  0.38179100  0.68326900  0.80671500  1
  O  O0  1  0.06250800  0.77752600  0.92394300  1
  O  O1  1  0.56250800  0.22247400  0.57605700  1
  O  O2  1  0.93749200  0.22247400  0.07605700  1
  O  O3  1  0.43749200  0.77752600  0.42394300  1
  O  O4  1  0.29154200  0.76902700  0.89837500  1
  O  O5  1  0.79154200  0.23097300  0.60162500  1
  O  O6  1  0.70845800  0.23097300  0.10162500  1
  O  O7  1  0.20845800  0.76902700  0.39837500  1
  O  O8  1  0.15398900  0.73146900  0.75146500  1
  O  O9  1  0.65398900  0.26853100  0.74853500  1
  O  O10  1  0.84601100  0.26853100  0.24853500  1
  O  O11  1  0.34601100  0.73146900  0.25146500  1
  O  O12  1  0.45013700  0.60153300  0.75367100  1
  O  O13  1  0.95013700  0.39846700  0.74632900  1
  O  O14  1  0.54986300  0.39846700  0.24632900  1
  O  O15  1  0.04986300  0.60153300  0.25367100  1
  O  O16  1  0.04375900  0.72015500  0.58540700  1
  O  O17  1  0.54375900  0.27984500  0.91459300  1
  O  O18  1  0.95624100  0.27984500  0.41459300  1
  O  O19  1  0.45624100  0.72015500  0.08540700  1
  O  O20  1  0.29472700  0.20395900  0.59172400  1
  O  O21  1  0.79472700  0.79604100  0.90827600  1
  O  O22  1  0.70527300  0.79604100  0.40827600  1
  O  O23  1  0.20527300  0.20395900  0.09172400  1
loop_
_geom_bond_atom_site_label_1
_geom_bond_atom_site_label_2
_geom_bond_distance
_geom_bond_site_symmetry_2
Mg0 O23 2.062632 1_565
Mg0 O23 2.070345 1_555
Mg0 O0 2.080445 1_554
Mg0 O15 2.115447 1_555
Mg0 O2 2.157081 1_455
Mg0 O2 2.206036 1_465
Mg1 O22 2.062632 1_545
Mg1 O22 2.070345 1_555
Mg1 O1 2.080445 1_555
Mg1 O14 2.115447 1_555
Mg1 O3 2.157081 1_555
Mg1 O3 2.206036 1_545
Mg2 O21 2.062632 1_545
Mg2 O21 2.070345 1_555
Mg2 O2 2.080445 1_556
Mg2 O13 2.115447 1_555
Mg2 O0 2.157081 1_655
Mg2 O0 2.206036 1_645
Mg3 O20 2.062632 1_565
Mg3 O20 2.070345 1_555
Mg3 O3 2.080445 1_555
Mg3 O12 2.115447 1_555
Mg3 O1 2.157081 1_555
Mg3 O1 2.206036 1_565
Mg4 O23 2.051313 1_556
Mg4 O4 2.129887 1_555
Mg4 O19 2.133847 1_546
Mg4 O4 2.143418 1_545
Mg4 O17 2.157557 1_555
Mg4 O19 2.244427 1_556
Mg5 O22 2.051313 1_555
Mg5 O5 2.129887 1_555
Mg5 O18 2.133847 1_565
Mg5 O5 2.143418 1_565
Mg5 O16 2.157557 1_655
Mg5 O18 2.244427 1_555
Mg6 O21 2.051313 1_554
Mg6 O6 2.129887 1_555
Mg6 O17 2.133847 1_564
Mg6 O6 2.143418 1_565
Mg6 O19 2.157557 1_555
Mg6 O17 2.244427 1_554
Mg7 O20 2.051313 1_555
Mg7 O7 2.129887 1_555
Mg7 O16 2.133847 1_545
Mg7 O7 2.143418 1_545
Mg7 O18 2.157557 1_455
Mg7 O16 2.244427 1_555
B0 O0 1.364166 1_555
B0 O4 1.378717 1_555
B0 O8 1.418273 1_555
B1 O1 1.364166 1_555
B1 O5 1.378717 1_555
B1 O9 1.418273 1_555
B2 O2 1.364166 1_555
B2 O6 1.378717 1_555
B2 O10 1.418273 1_555
B3 O3 1.364166 1_555
B3 O7 1.378717 1_555
B3 O11 1.418273 1_555
B4 O16 1.367465 1_555
B4 O13 1.394071 1_455
B4 O8 1.394511 1_555
B5 O17 1.367465 1_555
B5 O12 1.394071 1_555
B5 O9 1.394511 1_555
B6 O18 1.367465 1_555
B6 O15 1.394071 1_655
B6 O10 1.394511 1_555
B7 O19 1.367465 1_555
B7 O14 1.394071 1_555
B7 O11 1.394511 1_555
H0 O23 0.979029 1_555
H1 O22 0.979029 1_555
H2 O21 0.979029 1_555
H3 O20 0.979029 1_555
H4 O15 1.034439 1_555
H4 O7 1.545223 1_555
H5 O14 1.034439 1_555
H5 O6 1.545223 1_555
H6 O13 1.034439 1_555
H6 O5 1.545223 1_555
H7 O12 1.034439 1_555
H7 O4 1.545223 1_555
