# generated using pymatgen
data_MgMn2(FeO4)2
_symmetry_space_group_name_H-M   'P 1'
_cell_length_a   4.83763732
_cell_length_b   5.68474809
_cell_length_c   4.96802258
_cell_angle_alpha   89.98450711
_cell_angle_beta   87.48422064
_cell_angle_gamma   89.98802024
_symmetry_Int_Tables_number   1
_chemical_formula_structural   MgMn2(FeO4)2
_chemical_formula_sum   'Mg1 Mn2 Fe2 O8'
_cell_volume   136.49265411
_cell_formula_units_Z   1
loop_
 _symmetry_equiv_pos_site_id
 _symmetry_equiv_pos_as_xyz
  1  'x, y, z'
loop_
 _atom_site_type_symbol
 _atom_site_label
 _atom_site_symmetry_multiplicity
 _atom_site_fract_x
 _atom_site_fract_y
 _atom_site_fract_z
 _atom_site_occupancy
  Mg  Mg0  1  0.49997200  0.09817900  0.25013200  1
  Mn  Mn0  1  0.99999300  0.85950900  0.74998200  1
  Mn  Mn1  1  0.99995900  0.14205200  0.24996000  1
  Fe  Fe0  1  0.50022100  0.38464200  0.75005700  1
  Fe  Fe1  1  0.49983700  0.62728400  0.24993500  1
  O  O0  1  0.21880300  0.11550400  0.56462000  1
  O  O1  1  0.22284900  0.88876300  0.07785100  1
  O  O2  1  0.26946800  0.63117800  0.58540300  1
  O  O3  1  0.27904700  0.36235100  0.09124000  1
  O  O4  1  0.73064700  0.63115300  0.91466300  1
  O  O5  1  0.72093200  0.36234200  0.40868800  1
  O  O6  1  0.78100200  0.11549000  0.93533900  1
  O  O7  1  0.77726900  0.88869700  0.42213100  1
loop_
_geom_bond_atom_site_label_1
_geom_bond_atom_site_label_2
_geom_bond_distance
_geom_bond_site_symmetry_2
Mg0 O7 2.011771 1_545
Mg0 O1 2.012215 1_545
Mg0 O3 2.023207 1_555
Mg0 O5 2.023220 1_555
Mg0 O0 2.028382 1_555
Mg0 O6 2.029059 1_554
Mn0 O4 1.989695 1_555
Mn0 O2 1.989739 1_655
Mn0 O7 1.998796 1_555
Mn0 O1 1.999380 1_656
Mn0 O0 2.000161 1_665
Mn0 O6 2.000578 1_565
Mn1 O0 1.931943 1_655
Mn1 O6 1.932208 1_554
Mn1 O7 1.971197 1_545
Mn1 O1 1.971316 1_645
Mn1 O5 1.979520 1_555
Mn1 O3 1.979821 1_655
Fe0 O5 1.968086 1_555
Fe0 O3 1.968411 1_556
Fe0 O4 1.989077 1_555
Fe0 O2 1.989556 1_555
Fe0 O6 2.267496 1_555
Fe0 O0 2.270396 1_555
Fe1 O2 1.963931 1_555
Fe1 O4 1.964255 1_554
Fe1 O3 2.026309 1_555
Fe1 O5 2.026620 1_555
Fe1 O1 2.198853 1_555
Fe1 O7 2.200868 1_555
