# generated using pymatgen
data_YMgAg(WO4)2
_symmetry_space_group_name_H-M   'P 1'
_cell_length_a   5.49208167
_cell_length_b   6.26757373
_cell_length_c   5.96513604
_cell_angle_alpha   108.05754663
_cell_angle_beta   117.72107956
_cell_angle_gamma   90.26385676
_symmetry_Int_Tables_number   1
_chemical_formula_structural   YMgAg(WO4)2
_chemical_formula_sum   'Y1 Mg1 Ag1 W2 O8'
_cell_volume   170.08971325
_cell_formula_units_Z   1
loop_
 _symmetry_equiv_pos_site_id
 _symmetry_equiv_pos_as_xyz
  1  'x, y, z'
loop_
 _atom_site_type_symbol
 _atom_site_label
 _atom_site_symmetry_multiplicity
 _atom_site_fract_x
 _atom_site_fract_y
 _atom_site_fract_z
 _atom_site_occupancy
  Y  Y0  1  0.59609215  0.67640910  0.08367917  1
  Mg  Mg0  1  0.05042936  0.94193716  0.00215136  1
  Ag  Ag0  1  0.21279272  0.48851915  0.27195588  1
  W  W0  1  0.86036185  0.32309268  0.58803718  1
  W  W1  1  0.36946135  0.04976756  0.60957912  1
  O  O0  1  0.12972891  0.61907388  0.84065788  1
  O  O1  1  0.65184212  0.45775605  0.33724287  1
  O  O2  1  0.11535650  0.12810409  0.79378848  1
  O  O3  1  0.53612498  0.01548455  0.35750937  1
  O  O4  1  0.61724641  0.90674773  0.84069012  1
  O  O5  1  0.05349263  0.81043307  0.30022768  1
  O  O6  1  0.09997981  0.22816078  0.39911214  1
  O  O7  1  0.65309020  0.35592521  0.80271275  1
loop_
_geom_bond_atom_site_label_1
_geom_bond_atom_site_label_2
_geom_bond_distance
_geom_bond_site_symmetry_2
Mg0 O2 2.083510 1_564
Mg0 O4 2.089978 1_454
Mg0 O0 2.098203 1_554
Mg0 O5 2.173006 1_555
Mg0 O6 2.379464 1_565
Mg0 O3 2.437975 1_565
Ag0 O5 2.192542 1_555
Ag0 O6 2.194825 1_555
Ag0 O1 2.276043 1_555
O0 W0 2.017029 1_455
O0 Y0 2.237218 1_556
O1 W0 1.860032 1_555
O1 Y0 2.262220 1_555
O2 W0 2.075503 1_455
O2 W1 2.120049 1_555
O3 W1 2.055932 1_555
O3 W0 2.196737 1_555
O3 Y0 2.376523 1_545
O4 W1 1.894189 1_565
O4 Y0 2.377180 1_556
O5 W1 1.986840 1_565
O5 Y0 2.230188 1_455
O6 W1 2.042933 1_555
O6 W0 2.080194 1_455
O7 W0 2.042799 1_555
O7 W1 2.090020 1_555
O7 Y0 2.312687 1_556
