# generated using pymatgen
data_Lu6UO12
_symmetry_space_group_name_H-M   'P 1'
_cell_length_a   6.37267859
_cell_length_b   6.37267823
_cell_length_c   6.37267798
_cell_angle_alpha   99.24071044
_cell_angle_beta   99.24070626
_cell_angle_gamma   99.24070101
_symmetry_Int_Tables_number   1
_chemical_formula_structural   Lu6UO12
_chemical_formula_sum   'Lu6 U1 O12'
_cell_volume   247.47089004
_cell_formula_units_Z   1
loop_
 _symmetry_equiv_pos_site_id
 _symmetry_equiv_pos_as_xyz
  1  'x, y, z'
loop_
 _atom_site_type_symbol
 _atom_site_label
 _atom_site_symmetry_multiplicity
 _atom_site_fract_x
 _atom_site_fract_y
 _atom_site_fract_z
 _atom_site_occupancy
  Lu  Lu0  1  0.67334471  0.39088755  0.85442328  1
  Lu  Lu1  1  0.39088755  0.85442328  0.67334471  1
  Lu  Lu2  1  0.85442328  0.67334471  0.39088755  1
  Lu  Lu3  1  0.32665529  0.60911245  0.14557672  1
  Lu  Lu4  1  0.60911245  0.14557672  0.32665529  1
  Lu  Lu5  1  0.14557672  0.32665529  0.60911245  1
  U  U0  1  0.00000000  -0.00000000  -0.00000000  1
  O  O0  1  0.42285804  0.17789892  0.58521997  1
  O  O1  1  0.17789892  0.58521997  0.42285804  1
  O  O2  1  0.58521997  0.42285804  0.17789892  1
  O  O3  1  0.57714196  0.82210108  0.41478003  1
  O  O4  1  0.82210108  0.41478003  0.57714196  1
  O  O5  1  0.41478003  0.57714196  0.82210108  1
  O  O6  1  0.05043142  0.91375483  0.68626692  1
  O  O7  1  0.31373308  0.94956858  0.08624517  1
  O  O8  1  0.08624517  0.31373308  0.94956858  1
  O  O9  1  0.94956858  0.08624517  0.31373308  1
  O  O10  1  0.68626692  0.05043142  0.91375483  1
  O  O11  1  0.91375483  0.68626692  0.05043142  1
loop_
_geom_bond_atom_site_label_1
_geom_bond_atom_site_label_2
_geom_bond_distance
_geom_bond_site_symmetry_2
Lu0 O4 2.149942 1_555
Lu0 O5 2.182653 1_555
Lu0 O2 2.209061 1_556
Lu0 O0 2.238364 1_555
Lu0 O11 2.270410 1_556
Lu0 O10 2.273285 1_555
Lu0 O8 2.744429 1_655
Lu1 O5 2.149942 1_555
Lu1 O3 2.182653 1_555
Lu1 O0 2.209061 1_565
Lu1 O1 2.238364 1_555
Lu1 O10 2.270410 1_565
Lu1 O6 2.273285 1_555
Lu1 O7 2.744428 1_556
Lu2 O3 2.149942 1_555
Lu2 O4 2.182653 1_555
Lu2 O1 2.209061 1_655
Lu2 O2 2.238365 1_555
Lu2 O6 2.270410 1_655
Lu2 O11 2.273285 1_555
Lu2 O9 2.744429 1_565
Lu3 O1 2.149942 1_555
Lu3 O2 2.182653 1_555
Lu3 O5 2.209061 1_554
Lu3 O3 2.238364 1_555
Lu3 O8 2.270410 1_554
Lu3 O7 2.273285 1_555
Lu3 O11 2.744429 1_455
Lu4 O2 2.149942 1_555
Lu4 O0 2.182653 1_555
Lu4 O3 2.209061 1_545
Lu4 O4 2.238364 1_555
Lu4 O7 2.270410 1_545
Lu4 O9 2.273285 1_555
Lu4 O10 2.744428 1_554
Lu5 O0 2.149942 1_555
Lu5 O1 2.182653 1_555
Lu5 O4 2.209061 1_455
Lu5 O5 2.238365 1_555
Lu5 O9 2.270410 1_455
Lu5 O8 2.273285 1_555
Lu5 O6 2.744429 1_545
O6 U0 2.076733 1_566
O7 U0 2.076734 1_565
O8 U0 2.076734 1_556
O9 U0 2.076733 1_655
O10 U0 2.076734 1_656
O11 U0 2.076734 1_665
