# generated using pymatgen
data_Na2CoH8(SO6)2
_symmetry_space_group_name_H-M   'P 1'
_cell_length_a   8.36713700
_cell_length_b   5.57960400
_cell_length_c   11.18358109
_cell_angle_alpha   80.24924057
_cell_angle_beta   90.00000000
_cell_angle_gamma   90.00000000
_symmetry_Int_Tables_number   1
_chemical_formula_structural   Na2CoH8(SO6)2
_chemical_formula_sum   'Na4 Co2 H16 S4 O24'
_cell_volume   514.56647905
_cell_formula_units_Z   2
loop_
 _symmetry_equiv_pos_site_id
 _symmetry_equiv_pos_as_xyz
  1  'x, y, z'
loop_
 _atom_site_type_symbol
 _atom_site_label
 _atom_site_symmetry_multiplicity
 _atom_site_fract_x
 _atom_site_fract_y
 _atom_site_fract_z
 _atom_site_occupancy
  Na  Na0  1  0.92909400  0.37931200  0.86148000  1
  Na  Na1  1  0.07090600  0.62068800  0.13852000  1
  Na  Na2  1  0.57090600  0.37931200  0.36148000  1
  Na  Na3  1  0.42909400  0.62068800  0.63852000  1
  Co  Co0  1  0.50000000  0.50000000  0.00000000  1
  Co  Co1  1  0.00000000  0.50000000  0.50000000  1
  H  H0  1  0.27426400  0.25770200  0.51373900  1
  H  H1  1  0.77426400  0.74229800  0.98626100  1
  H  H2  1  0.72573600  0.74229800  0.48626100  1
  H  H3  1  0.22573600  0.25770200  0.01373900  1
  H  H4  1  0.19770700  0.17198600  0.63981400  1
  H  H5  1  0.69770700  0.82801400  0.86018600  1
  H  H6  1  0.80229300  0.82801400  0.36018600  1
  H  H7  1  0.30229300  0.17198600  0.13981400  1
  H  H8  1  0.86477700  0.73122700  0.65443700  1
  H  H9  1  0.36477700  0.26877300  0.84556300  1
  H  H10  1  0.05462700  0.73590400  0.68132300  1
  H  H11  1  0.55462700  0.26409600  0.81867700  1
  H  H12  1  0.94537300  0.26409600  0.31867700  1
  H  H13  1  0.44537300  0.73590400  0.18132300  1
  H  H14  1  0.13522300  0.26877300  0.34556300  1
  H  H15  1  0.63522300  0.73122700  0.15443700  1
  S  S0  1  0.21376600  0.87392100  0.86413700  1
  S  S1  1  0.28623400  0.87392100  0.36413700  1
  S  S2  1  0.78623400  0.12607900  0.13586300  1
  S  S3  1  0.71376600  0.12607900  0.63586300  1
  O  O0  1  0.58647400  0.28722800  0.57734200  1
  O  O1  1  0.08647400  0.71277200  0.92265800  1
  O  O2  1  0.12819200  0.81270800  0.42329000  1
  O  O3  1  0.91352600  0.28722800  0.07734200  1
  O  O4  1  0.87180800  0.18729200  0.57671000  1
  O  O5  1  0.37180800  0.81270800  0.92329000  1
  O  O6  1  0.32169400  0.13524800  0.37302600  1
  O  O7  1  0.82169400  0.86475200  0.12697400  1
  O  O8  1  0.67830600  0.86475200  0.62697400  1
  O  O9  1  0.41352600  0.71277200  0.42265800  1
  O  O10  1  0.03581600  0.36890300  0.33768300  1
  O  O11  1  0.53581600  0.63109700  0.16231700  1
  O  O12  1  0.96418400  0.63109700  0.66231700  1
  O  O13  1  0.46418400  0.36890300  0.83768300  1
  O  O14  1  0.28444900  0.32045800  0.07885700  1
  O  O15  1  0.78444900  0.67954200  0.42114300  1
  O  O16  1  0.71555100  0.67954200  0.92114300  1
  O  O17  1  0.21555100  0.32045800  0.57885700  1
  O  O18  1  0.22430400  0.85694800  0.73119900  1
  O  O19  1  0.72430400  0.14305200  0.76880100  1
  O  O20  1  0.77569600  0.14305200  0.26880100  1
  O  O21  1  0.27569600  0.85694800  0.23119900  1
  O  O22  1  0.62819200  0.18729200  0.07671000  1
  O  O23  1  0.17830600  0.13524800  0.87302600  1
loop_
_geom_bond_atom_site_label_1
_geom_bond_atom_site_label_2
_geom_bond_distance
_geom_bond_site_symmetry_2
Na0 O3 2.385108 1_556
Na0 O12 2.441523 1_555
Na0 O1 2.468818 1_655
Na0 O23 2.481850 1_655
Na0 O19 2.492180 1_555
Na0 O16 2.611983 1_555
Na1 O1 2.385108 1_554
Na1 O10 2.441523 1_555
Na1 O3 2.468818 1_455
Na1 O7 2.481850 1_455
Na1 O21 2.492180 1_555
Na1 O14 2.611983 1_555
Na2 O0 2.385108 1_555
Na2 O11 2.441523 1_555
Na2 O9 2.468818 1_555
Na2 O6 2.481850 1_555
Na2 O20 2.492180 1_555
Na2 O15 2.611983 1_555
Na3 O9 2.385108 1_555
Na3 O13 2.441523 1_555
Na3 O0 2.468818 1_555
Na3 O8 2.481850 1_555
Na3 O18 2.492180 1_555
Na3 O17 2.611983 1_555
Co0 O11 2.090426 1_555
Co0 O13 2.090426 1_554
Co0 O5 2.103263 1_554
Co0 O22 2.103263 1_555
Co0 O14 2.175965 1_555
Co0 O16 2.175965 1_554
Co1 O10 2.090426 1_555
Co1 O12 2.090426 1_455
Co1 O4 2.103263 1_455
Co1 O2 2.103263 1_555
Co1 O17 2.175965 1_555
Co1 O15 2.175965 1_455
H0 O17 0.990288 1_555
H1 O16 0.990288 1_555
H2 O15 0.990288 1_555
H3 O14 0.990288 1_555
H4 O17 0.990963 1_555
H5 O16 0.990963 1_555
H6 O15 0.990963 1_555
H7 O14 0.990963 1_555
H8 O12 0.997512 1_555
H8 O8 1.733836 1_555
H9 O13 0.997512 1_555
H9 O23 1.733836 1_555
H10 O12 1.000960 1_455
H10 O18 1.706004 1_555
H11 O13 1.000960 1_555
H11 O19 1.706004 1_555
H12 O10 1.000960 1_655
H12 O20 1.706004 1_555
H13 O11 1.000960 1_555
H13 O21 1.706004 1_555
H14 O10 0.997512 1_555
H14 O6 1.733836 1_555
H15 O11 0.997512 1_555
H15 O7 1.733836 1_555
O0 S3 1.473719 1_555
O1 S0 1.473719 1_555
O2 S1 1.492109 1_555
O3 S2 1.473719 1_555
O4 S3 1.492109 1_555
O5 S0 1.492109 1_555
O6 S1 1.507670 1_545
O7 S2 1.507670 1_565
O8 S3 1.507670 1_565
O9 S1 1.473719 1_555
O18 S0 1.508237 1_555
O19 S3 1.508237 1_555
O20 S2 1.508237 1_555
O21 S1 1.508237 1_555
O22 S2 1.492109 1_555
O23 S0 1.507670 1_545
