# generated using pymatgen
data_Na6Mg(NiO3)2
_symmetry_space_group_name_H-M   'P 1'
_cell_length_a   6.16388004
_cell_length_b   6.63373816
_cell_length_c   6.40931591
_cell_angle_alpha   59.82080703
_cell_angle_beta   89.37871182
_cell_angle_gamma   89.00588808
_symmetry_Int_Tables_number   1
_chemical_formula_structural   Na6Mg(NiO3)2
_chemical_formula_sum   'Na6 Mg1 Ni2 O6'
_cell_volume   226.51715831
_cell_formula_units_Z   1
loop_
 _symmetry_equiv_pos_site_id
 _symmetry_equiv_pos_as_xyz
  1  'x, y, z'
loop_
 _atom_site_type_symbol
 _atom_site_label
 _atom_site_symmetry_multiplicity
 _atom_site_fract_x
 _atom_site_fract_y
 _atom_site_fract_z
 _atom_site_occupancy
  Na  Na0  1  0.21525924  0.64950055  0.46971903  1
  Na  Na1  1  0.12724233  0.65993366  0.00585569  1
  Na  Na2  1  0.21848660  0.12074038  0.80605370  1
  Na  Na3  1  0.78151340  0.87925962  0.19394630  1
  Na  Na4  1  0.87275767  0.34006634  0.99414431  1
  Na  Na5  1  0.78474076  0.35049945  0.53028097  1
  Mg  Mg0  1  0.00000000  0.00000000  0.50000000  1
  Ni  Ni0  1  0.36770066  0.15849295  0.32177815  1
  Ni  Ni1  1  0.63229934  0.84150705  0.67822185  1
  O  O0  1  0.14554652  0.04678536  0.18076426  1
  O  O1  1  0.14733042  0.34732321  0.38785938  1
  O  O2  1  0.31896018  0.86055172  0.66364600  1
  O  O3  1  0.68103982  0.13944828  0.33635300  1
  O  O4  1  0.85266958  0.65267679  0.61214062  1
  O  O5  1  0.85445348  0.95321464  0.81923574  1
loop_
_geom_bond_atom_site_label_1
_geom_bond_atom_site_label_2
_geom_bond_distance
_geom_bond_site_symmetry_2
Na0 O1 2.358002 1_555
Na0 O0 2.372963 1_565
Na0 O2 2.389880 1_555
Na0 O4 2.408775 1_455
Na1 O2 2.245418 1_554
Na1 O1 2.281062 1_555
Na1 O5 2.373497 1_454
Na2 O0 2.238372 1_556
Na2 O1 2.363872 1_555
Na2 O2 2.393818 1_545
Na2 O5 2.503015 1_445
Na3 O5 2.238372 1_554
Na3 O4 2.363872 1_555
Na3 O3 2.393813 1_565
Na3 O0 2.503015 1_665
Na4 O3 2.245414 1_556
Na4 O4 2.281062 1_555
Na4 O0 2.373497 1_656
Na5 O4 2.358002 1_555
Na5 O5 2.372963 1_545
Na5 O3 2.389885 1_555
Na5 O1 2.408775 1_655
Mg0 O0 2.102145 1_555
Mg0 O5 2.102145 1_445
Mg0 O2 2.197096 1_545
Mg0 O3 2.197098 1_455
Mg0 O1 2.245752 1_555
Mg0 O4 2.245752 1_445
Ni0 O3 1.933524 1_555
Ni0 O0 1.994115 1_555
Ni0 O1 2.013824 1_555
Ni0 O2 2.109488 1_545
Ni1 O2 1.933524 1_555
Ni1 O5 1.994115 1_555
Ni1 O4 2.013824 1_555
Ni1 O3 2.109492 1_565
