# generated using pymatgen
data_B9H11
_symmetry_space_group_name_H-M   'P 1'
_cell_length_a   10.88819072
_cell_length_b   10.91071931
_cell_length_c   12.24990556
_cell_angle_alpha   89.99996181
_cell_angle_beta   90.00016129
_cell_angle_gamma   90.00004268
_symmetry_Int_Tables_number   1
_chemical_formula_structural   B9H11
_chemical_formula_sum   'B72 H88'
_cell_volume   1455.26419178
_cell_formula_units_Z   8
loop_
 _symmetry_equiv_pos_site_id
 _symmetry_equiv_pos_as_xyz
  1  'x, y, z'
loop_
 _atom_site_type_symbol
 _atom_site_label
 _atom_site_symmetry_multiplicity
 _atom_site_fract_x
 _atom_site_fract_y
 _atom_site_fract_z
 _atom_site_occupancy
  B  B0  1  0.49373504  0.92586383  0.46828910  1
  B  B1  1  0.49373497  0.57413555  0.03171061  1
  B  B2  1  0.00626483  0.42586394  0.53171088  1
  B  B3  1  0.00626495  0.07413592  0.96829005  1
  B  B4  1  0.50626507  0.07413611  0.53171078  1
  B  B5  1  0.50626496  0.42586434  0.96828938  1
  B  B6  1  0.99373493  0.57413613  0.46828901  1
  B  B7  1  0.99373489  0.92586421  0.03171033  1
  B  B8  1  0.60311982  0.93433274  0.35713339  1
  B  B9  1  0.60312013  0.56566845  0.14286757  1
  B  B10  1  0.89687957  0.43433240  0.64286634  1
  B  B11  1  0.89687933  0.06566849  0.85713272  1
  B  B12  1  0.39688025  0.06566723  0.64286652  1
  B  B13  1  0.39687983  0.43433141  0.85713250  1
  B  B14  1  0.10312023  0.56566784  0.35713339  1
  B  B15  1  0.10312054  0.93433181  0.14286783  1
  B  B16  1  0.76585978  0.99641188  0.39556022  1
  B  B17  1  0.76585983  0.50358969  0.10444054  1
  B  B18  1  0.73414036  0.49641231  0.60443978  1
  B  B19  1  0.73413988  0.00358880  0.89555924  1
  B  B20  1  0.23414024  0.00358804  0.60443971  1
  B  B21  1  0.23414040  0.49641034  0.89555918  1
  B  B22  1  0.26585898  0.50358773  0.39556063  1
  B  B23  1  0.26585987  0.99641118  0.10444103  1
  B  B24  1  0.79421914  0.04476974  0.53269582  1
  B  B25  1  0.79421793  0.45523138  0.96730559  1
  B  B26  1  0.70578125  0.54477068  0.46730556  1
  B  B27  1  0.70578105  0.95523027  0.03269441  1
  B  B28  1  0.20578092  0.95523020  0.46730407  1
  B  B29  1  0.20578230  0.54476842  0.03269404  1
  B  B30  1  0.29421741  0.45522943  0.53269398  1
  B  B31  1  0.29421877  0.04476953  0.96730586  1
  B  B32  1  0.66981949  0.14246238  0.56617317  1
  B  B33  1  0.66981923  0.35753876  0.93382766  1
  B  B34  1  0.83017923  0.64246274  0.43382712  1
  B  B35  1  0.83018015  0.85753811  0.06617219  1
  B  B36  1  0.33018060  0.85753755  0.43382670  1
  B  B37  1  0.33018087  0.64246116  0.06617222  1
  B  B38  1  0.16982068  0.35753801  0.56617236  1
  B  B39  1  0.16981970  0.14246177  0.93382800  1
  B  B40  1  0.49967794  0.05741702  0.38556378  1
  B  B41  1  0.49967892  0.44258358  0.11443678  1
  B  B42  1  0.00032186  0.55741706  0.61443563  1
  B  B43  1  0.00032074  0.94258404  0.88556349  1
  B  B44  1  0.50032216  0.94258292  0.61443610  1
  B  B45  1  0.50032115  0.55741625  0.88556321  1
  B  B46  1  0.99967762  0.44258289  0.38556403  1
  B  B47  1  0.99967909  0.05741637  0.11443689  1
  B  B48  1  0.64922671  0.08707325  0.34023489  1
  B  B49  1  0.64922777  0.41292726  0.15976565  1
  B  B50  1  0.85077335  0.58707307  0.65976477  1
  B  B51  1  0.85077282  0.91292742  0.84023486  1
  B  B52  1  0.35077339  0.91292665  0.65976499  1
  B  B53  1  0.35077245  0.58707273  0.84023418  1
  B  B54  1  0.14922643  0.41292678  0.34023600  1
  B  B55  1  0.14922718  0.08707274  0.15976547  1
  B  B56  1  0.74777410  0.15247179  0.43941023  1
  B  B57  1  0.74777488  0.34752921  0.06059032  1
  B  B58  1  0.75222681  0.65247074  0.56058934  1
  B  B59  1  0.75222549  0.84752827  0.93940940  1
  B  B60  1  0.25222600  0.84752814  0.56058966  1
  B  B61  1  0.25222546  0.65247059  0.93940954  1
  B  B62  1  0.24777362  0.34752888  0.43941064  1
  B  B63  1  0.24777462  0.15247160  0.06059088  1
  B  B64  1  0.58612622  0.17686497  0.44839915  1
  B  B65  1  0.58612634  0.32313506  0.05160232  1
  B  B66  1  0.91387381  0.67686485  0.55160056  1
  B  B67  1  0.91387322  0.82313559  0.94839833  1
  B  B68  1  0.41387390  0.82313491  0.55160075  1
  B  B69  1  0.41387382  0.67686483  0.94839758  1
  B  B70  1  0.08612619  0.32313552  0.44839948  1
  B  B71  1  0.08612684  0.17686456  0.05160189  1
  H  H0  1  0.76759038  0.93543164  0.48869458  1
  H  H1  1  0.76758936  0.56456911  0.01130600  1
  H  H2  1  0.73240876  0.43543176  0.51130561  1
  H  H3  1  0.73240973  0.06456864  0.98869370  1
  H  H4  1  0.23240966  0.06456830  0.51130537  1
  H  H5  1  0.23241070  0.43543068  0.98869364  1
  H  H6  1  0.26759109  0.56456856  0.48869443  1
  H  H7  1  0.26759006  0.93543120  0.01130670  1
  H  H8  1  0.70475894  0.03496716  0.60524677  1
  H  H9  1  0.70475903  0.46503385  0.89475403  1
  H  H10  1  0.79524036  0.53496761  0.39475341  1
  H  H11  1  0.79524019  0.96503285  0.10524607  1
  H  H12  1  0.29524119  0.96503279  0.39475316  1
  H  H13  1  0.29524125  0.53496596  0.10524576  1
  H  H14  1  0.20475953  0.46503259  0.60524679  1
  H  H15  1  0.20475962  0.03496674  0.89475426  1
  H  H16  1  0.59943492  0.86591823  0.44496644  1
  H  H17  1  0.59943521  0.63408029  0.05503286  1
  H  H18  1  0.90056476  0.36591814  0.55503365  1
  H  H19  1  0.90056458  0.13408034  0.94496746  1
  H  H20  1  0.40056517  0.13408171  0.55503343  1
  H  H21  1  0.40056473  0.36591958  0.94496723  1
  H  H22  1  0.09943504  0.63408188  0.44496623  1
  H  H23  1  0.09943546  0.86591982  0.05503286  1
  H  H24  1  0.59374268  0.86670421  0.28190923  1
  H  H25  1  0.59374482  0.63329854  0.21809002  1
  H  H26  1  0.90625626  0.36670400  0.71809097  1
  H  H27  1  0.90625457  0.13329885  0.78190998  1
  H  H28  1  0.40625738  0.13329570  0.71809064  1
  H  H29  1  0.40625505  0.36670128  0.78191006  1
  H  H30  1  0.09374363  0.63329596  0.28190889  1
  H  H31  1  0.09374545  0.86670138  0.21809041  1
  H  H32  1  0.85006997  0.95890073  0.34423610  1
  H  H33  1  0.85006999  0.54110267  0.15576450  1
  H  H34  1  0.64992931  0.45890130  0.65576487  1
  H  H35  1  0.64992920  0.04110115  0.84423514  1
  H  H36  1  0.14993012  0.04109909  0.65576381  1
  H  H37  1  0.14992989  0.45889737  0.84423543  1
  H  H38  1  0.35007088  0.54109880  0.34423499  1
  H  H39  1  0.81252768  0.23423576  0.41203495  1
  H  H40  1  0.35007045  0.95889854  0.15576520  1
  H  H41  1  0.88815133  0.46507063  0.91969987  1
  H  H42  1  0.61184451  0.53493256  0.41970222  1
  H  H43  1  0.61184763  0.96506885  0.08029847  1
  H  H44  1  0.11184679  0.96506763  0.41970176  1
  H  H45  1  0.11184823  0.53492915  0.08029949  1
  H  H46  1  0.38815601  0.46506759  0.58029800  1
  H  H47  1  0.38815228  0.03493086  0.91970184  1
  H  H48  1  0.67600325  0.21038551  0.64147743  1
  H  H49  1  0.67600062  0.28961681  0.85852288  1
  H  H50  1  0.82399499  0.71038714  0.35852304  1
  H  H51  1  0.82399778  0.78961579  0.14147684  1
  H  H52  1  0.32399686  0.78961446  0.35852246  1
  H  H53  1  0.32399922  0.71038307  0.14147714  1
  H  H54  1  0.17600498  0.28961259  0.64147714  1
  H  H55  1  0.17600199  0.21038389  0.85852315  1
  H  H56  1  0.41637499  0.08582906  0.32891871  1
  H  H57  1  0.41637421  0.41417093  0.17108304  1
  H  H58  1  0.08362494  0.58582889  0.67108090  1
  H  H59  1  0.08362554  0.91417153  0.82891706  1
  H  H60  1  0.58362512  0.91417091  0.67108118  1
  H  H61  1  0.58362570  0.58582887  0.82891712  1
  H  H62  1  0.91637507  0.41417116  0.32891904  1
  H  H63  1  0.91637446  0.08582869  0.17108326  1
  H  H64  1  0.66190042  0.11689575  0.24772771  1
  H  H65  1  0.66190222  0.38310523  0.25227373  1
  H  H66  1  0.83809988  0.61689511  0.75227234  1
  H  H67  1  0.83809761  0.88310542  0.74772598  1
  H  H68  1  0.33809968  0.88310417  0.75227220  1
  H  H69  1  0.33809791  0.61689467  0.74772631  1
  H  H70  1  0.16190026  0.38310475  0.24772754  1
  H  H71  1  0.16190245  0.11689482  0.25227415  1
  H  H72  1  0.04677465  0.27817004  0.05729153  1
  H  H73  1  0.04677474  0.22183016  0.44270814  1
  H  H74  1  0.45322586  0.77816935  0.94270834  1
  H  H75  1  0.45322556  0.72182996  0.55729158  1
  H  H76  1  0.95322543  0.72183009  0.94270858  1
  H  H77  1  0.95322533  0.77816973  0.55729175  1
  H  H78  1  0.54677426  0.22183047  0.05729167  1
  H  H79  1  0.54677454  0.27817002  0.44270829  1
  H  H80  1  0.31252921  0.23423548  0.08796658  1
  H  H81  1  0.31252724  0.26576399  0.41203416  1
  H  H82  1  0.18747052  0.73423494  0.91203367  1
  H  H83  1  0.18747238  0.76576418  0.58796491  1
  H  H84  1  0.68747090  0.76576445  0.91203341  1
  H  H85  1  0.68747236  0.73423652  0.58796606  1
  H  H86  1  0.81252935  0.26576506  0.08796634  1
  H  H87  1  0.88815336  0.03493233  0.58029814  1
loop_
_geom_bond_atom_site_label_1
_geom_bond_atom_site_label_2
_geom_bond_distance
_geom_bond_site_symmetry_2
B0 H16 1.354228 1_555
B1 H17 1.354224 1_555
B2 H18 1.354231 1_455
B3 H19 1.354225 1_455
B4 H20 1.354229 1_555
B5 H21 1.354224 1_555
B6 H22 1.354231 1_655
B7 H23 1.354227 1_655
B8 H24 1.184917 1_555
B8 H16 1.310137 1_555
B9 H25 1.184910 1_555
B9 H17 1.310137 1_555
B10 H26 1.184919 1_555
B10 H18 1.310133 1_555
B11 H27 1.184913 1_555
B11 H19 1.310139 1_555
B12 H28 1.184916 1_555
B12 H20 1.310138 1_555
B13 H29 1.184910 1_555
B13 H21 1.310137 1_555
B14 H30 1.184916 1_555
B14 H22 1.310133 1_555
B15 H31 1.184912 1_555
B15 H23 1.310142 1_555
B16 H32 1.184691 1_555
B16 H0 1.320853 1_555
B17 H33 1.184693 1_555
B17 H1 1.320850 1_555
B18 H34 1.184703 1_555
B18 H2 1.320854 1_555
B19 H35 1.184696 1_555
B19 H3 1.320853 1_555
B20 H36 1.184689 1_555
B20 H4 1.320853 1_555
B21 H37 1.184695 1_555
B21 H5 1.320851 1_555
B22 H38 1.184714 1_555
B22 H6 1.320851 1_555
B23 H40 1.184697 1_555
B23 H7 1.320852 1_555
B24 H87 1.182208 1_555
B24 H8 1.322913 1_555
B24 H0 1.340800 1_545
B25 H41 1.182226 1_555
B25 H9 1.322904 1_555
B25 H1 1.340793 1_556
B26 H42 1.182239 1_555
B26 H10 1.322915 1_555
B26 H2 1.340799 1_555
B27 H43 1.182215 1_555
B27 H11 1.322907 1_555
B27 H3 1.340800 1_564
B28 H44 1.182208 1_555
B28 H12 1.322913 1_555
B28 H4 1.340800 1_565
B29 H45 1.182230 1_555
B29 H13 1.322906 1_555
B29 H5 1.340792 1_554
B30 H46 1.182261 1_555
B30 H14 1.322910 1_555
B30 H6 1.340795 1_555
B31 H47 1.182216 1_555
B31 H15 1.322907 1_555
B31 H7 1.340800 1_546
B32 H48 1.185200 1_555
B32 H8 1.322651 1_555
B33 H49 1.185196 1_555
B33 H9 1.322651 1_555
B34 H50 1.185207 1_555
B34 H10 1.322649 1_555
B35 H51 1.185197 1_555
B35 H11 1.322650 1_555
B36 H52 1.185200 1_555
B36 H12 1.322651 1_555
B37 H53 1.185197 1_555
B37 H13 1.322651 1_555
B38 H54 1.185220 1_555
B38 H14 1.322647 1_555
B39 H55 1.185198 1_555
B39 H15 1.322652 1_555
B40 H56 1.183330 1_555
B41 H57 1.183357 1_555
B42 H58 1.183331 1_555
B43 H59 1.183359 1_555
B44 H60 1.183330 1_555
B45 H61 1.183355 1_555
B46 H62 1.183325 1_555
B47 H63 1.183357 1_555
B48 H64 1.187042 1_555
B49 H65 1.187052 1_555
B50 H66 1.187046 1_555
B51 H67 1.187062 1_555
B52 H68 1.187043 1_555
B53 H69 1.187049 1_555
B54 H70 1.187057 1_555
B55 H71 1.187060 1_555
B56 H39 1.185496 1_555
B57 H86 1.185505 1_555
B58 H85 1.185522 1_555
B59 H84 1.185502 1_555
B60 H83 1.185496 1_555
B61 H82 1.185509 1_555
B62 H81 1.185509 1_555
B63 H80 1.185502 1_555
B64 H79 1.187501 1_555
B65 H78 1.187496 1_555
B66 H77 1.187498 1_555
B67 H76 1.187507 1_555
B68 H75 1.187500 1_555
B69 H74 1.187495 1_555
B70 H73 1.187503 1_555
B71 H72 1.187506 1_555
