# generated using pymatgen
data_MgHg2(WO4)2
_symmetry_space_group_name_H-M   'P 1'
_cell_length_a   5.44964059
_cell_length_b   6.25871320
_cell_length_c   6.70648219
_cell_angle_alpha   117.81490127
_cell_angle_beta   111.37661427
_cell_angle_gamma   90.00000068
_symmetry_Int_Tables_number   1
_chemical_formula_structural   MgHg2(WO4)2
_chemical_formula_sum   'Mg1 Hg2 W2 O8'
_cell_volume   184.33487418
_cell_formula_units_Z   1
loop_
 _symmetry_equiv_pos_site_id
 _symmetry_equiv_pos_as_xyz
  1  'x, y, z'
loop_
 _atom_site_type_symbol
 _atom_site_label
 _atom_site_symmetry_multiplicity
 _atom_site_fract_x
 _atom_site_fract_y
 _atom_site_fract_z
 _atom_site_occupancy
  Mg  Mg0  1  0.75000000  0.59659140  1.00000000  1
  Hg  Hg0  1  0.05240421  0.15242729  0.59201781  1
  Hg  Hg1  1  0.44759579  0.56040948  0.40798219  1
  W  W0  1  0.25000000  0.84197433  0.00000000  1
  W  W1  1  0.75000000  0.12772495  1.00000000  1
  O  O0  1  0.96991461  0.44677257  0.22435478  1
  O  O1  1  0.53008539  0.22241779  0.77564522  1
  O  O2  1  0.98086408  0.54159214  0.79602923  1
  O  O3  1  0.51913592  0.74556291  0.20397077  1
  O  O4  1  0.00549543  0.95997456  0.19297260  1
  O  O5  1  0.49450457  0.76700096  0.80702740  1
  O  O6  1  0.98559368  0.99252341  0.81207719  1
  O  O7  1  0.51440632  0.18044621  0.18792281  1
loop_
_geom_bond_atom_site_label_1
_geom_bond_atom_site_label_2
_geom_bond_distance
_geom_bond_site_symmetry_2
Mg0 O2 2.094702 1_555
Mg0 O3 2.094702 1_556
Mg0 O0 2.140456 1_556
Mg0 O1 2.140456 1_555
Mg0 O5 2.173838 1_555
Mg0 O4 2.173843 1_656
Hg0 O6 2.254396 1_445
Hg0 O4 2.274024 1_545
Hg0 O2 2.288085 1_455
Hg0 O1 2.375839 1_555
Hg1 O7 2.254396 1_555
Hg1 O5 2.274024 1_555
Hg1 O3 2.288085 1_555
Hg1 O0 2.375839 1_455
O0 W1 1.889205 1_554
O1 W1 1.889205 1_555
O2 W0 1.922038 1_656
O3 W0 1.922038 1_555
O4 W0 2.088272 1_555
O4 W1 2.161076 1_464
O5 W0 2.088272 1_556
O5 W1 2.161080 1_565
O6 W1 2.033994 1_565
O6 W0 2.082500 1_656
O7 W1 2.033994 1_554
O7 W0 2.082500 1_545
