# generated using pymatgen
data_MgCr2(AgO4)2
_symmetry_space_group_name_H-M   'P 1'
_cell_length_a   5.44167089
_cell_length_b   5.44167089
_cell_length_c   7.35390278
_cell_angle_alpha   91.73214151
_cell_angle_beta   91.73214151
_cell_angle_gamma   71.08837396
_symmetry_Int_Tables_number   1
_chemical_formula_structural   MgCr2(AgO4)2
_chemical_formula_sum   'Mg1 Cr2 Ag2 O8'
_cell_volume   205.86508121
_cell_formula_units_Z   1
loop_
 _symmetry_equiv_pos_site_id
 _symmetry_equiv_pos_as_xyz
  1  'x, y, z'
loop_
 _atom_site_type_symbol
 _atom_site_label
 _atom_site_symmetry_multiplicity
 _atom_site_fract_x
 _atom_site_fract_y
 _atom_site_fract_z
 _atom_site_occupancy
  Mg  Mg0  1  0.50000000  0.50000000  0.00000000  1
  Cr  Cr0  1  0.34379900  0.34379900  0.26853600  1
  Cr  Cr1  1  0.65620100  0.65620100  0.73146400  1
  Ag  Ag0  1  0.00000000  0.00000000  0.00000000  1
  Ag  Ag1  1  0.00000000  0.00000000  0.50000000  1
  O  O0  1  0.25579700  0.66939900  0.23936300  1
  O  O1  1  0.33060100  0.74420300  0.76063700  1
  O  O2  1  0.75610900  0.75610900  0.54889600  1
  O  O3  1  0.24779200  0.24779200  0.06466700  1
  O  O4  1  0.75220800  0.75220800  0.93533300  1
  O  O5  1  0.24389100  0.24389100  0.45110400  1
  O  O6  1  0.74420300  0.33060100  0.76063700  1
  O  O7  1  0.66939900  0.25579700  0.23936300  1
loop_
_geom_bond_atom_site_label_1
_geom_bond_atom_site_label_2
_geom_bond_distance
_geom_bond_site_symmetry_2
Mg0 O0 2.227868 1_555
Mg0 O6 2.227868 1_554
Mg0 O7 2.227868 1_555
Mg0 O1 2.227868 1_554
Mg0 O4 2.300690 1_554
Mg0 O3 2.300690 1_555
Cr0 O5 1.635095 1_555
Cr0 O3 1.695820 1_555
Cr0 O0 1.697475 1_555
Cr0 O7 1.697475 1_555
Cr1 O2 1.635095 1_555
Cr1 O4 1.695820 1_555
Cr1 O1 1.697475 1_555
Cr1 O6 1.697475 1_555
Ag0 O4 2.227910 1_444
Ag0 O3 2.227910 1_555
Ag0 O1 2.587005 1_544
Ag0 O6 2.587005 1_454
Ag0 O7 2.587005 1_455
Ag0 O0 2.587005 1_545
Ag1 O5 2.202623 1_555
Ag1 O2 2.202623 1_445
Ag1 O7 2.679059 1_455
Ag1 O0 2.679059 1_545
Ag1 O6 2.679059 1_455
Ag1 O1 2.679059 1_545
