# generated using pymatgen
data_NaCaAl(SO4)3
_symmetry_space_group_name_H-M   'P 1'
_cell_length_a   8.80674606
_cell_length_b   8.80674578
_cell_length_c   22.27951562
_cell_angle_alpha   90.00000000
_cell_angle_beta   90.00000000
_cell_angle_gamma   120.00000105
_symmetry_Int_Tables_number   1
_chemical_formula_structural   NaCaAl(SO4)3
_chemical_formula_sum   'Na6 Ca6 Al6 S18 O72'
_cell_volume   1496.46755545
_cell_formula_units_Z   6
loop_
 _symmetry_equiv_pos_site_id
 _symmetry_equiv_pos_as_xyz
  1  'x, y, z'
loop_
 _atom_site_type_symbol
 _atom_site_label
 _atom_site_symmetry_multiplicity
 _atom_site_fract_x
 _atom_site_fract_y
 _atom_site_fract_z
 _atom_site_occupancy
  Na  Na0  1  -0.00000000  -0.00000000  0.50212449  1
  Na  Na1  1  -0.00000000  -0.00000000  0.00212449  1
  Na  Na2  1  0.66666700  0.33333300  0.83545749  1
  Na  Na3  1  0.66666700  0.33333300  0.33545749  1
  Na  Na4  1  0.33333300  0.66666700  0.16879149  1
  Na  Na5  1  0.33333300  0.66666700  0.66879149  1
  Ca  Ca0  1  -0.00000000  -0.00000000  0.35819260  1
  Ca  Ca1  1  -0.00000000  -0.00000000  0.85819260  1
  Ca  Ca2  1  0.66666700  0.33333300  0.69152560  1
  Ca  Ca3  1  0.66666700  0.33333300  0.19152560  1
  Ca  Ca4  1  0.33333300  0.66666700  0.02485960  1
  Ca  Ca5  1  0.33333300  0.66666700  0.52485960  1
  Al  Al0  1  -0.00000000  -0.00000000  0.64827498  1
  Al  Al1  1  -0.00000000  -0.00000000  0.14827498  1
  Al  Al2  1  0.66666700  0.33333300  0.98160798  1
  Al  Al3  1  0.66666700  0.33333300  0.48160798  1
  Al  Al4  1  0.33333300  0.66666700  0.31494198  1
  Al  Al5  1  0.33333300  0.66666700  0.81494198  1
  S  S0  1  0.27442571  0.96765953  0.24967485  1
  S  S1  1  0.69323381  0.72557429  0.24967485  1
  S  S2  1  0.03234047  0.30676619  0.24967485  1
  S  S3  1  0.27442571  0.30676619  0.74967485  1
  S  S4  1  0.03234047  0.72557429  0.74967485  1
  S  S5  1  0.69323381  0.96765953  0.74967485  1
  S  S6  1  0.94109271  0.30099253  0.58300785  1
  S  S7  1  0.35990081  0.05890729  0.58300785  1
  S  S8  1  0.69900747  0.64009919  0.58300785  1
  S  S9  1  0.94109271  0.64009919  0.08300785  1
  S  S10  1  0.69900747  0.05890729  0.08300785  1
  S  S11  1  0.35990081  0.30099253  0.08300785  1
  S  S12  1  0.60775871  0.63432653  0.91634185  1
  S  S13  1  0.02656681  0.39224129  0.91634185  1
  S  S14  1  0.36567347  0.97343319  0.91634185  1
  S  S15  1  0.60775871  0.97343319  0.41634185  1
  S  S16  1  0.36567347  0.39224129  0.41634185  1
  S  S17  1  0.02656681  0.63432653  0.41634185  1
  O  O0  1  0.20320843  0.99618849  0.30424722  1
  O  O1  1  0.79298006  0.79679157  0.30424722  1
  O  O2  1  0.00381151  0.20701994  0.30424722  1
  O  O3  1  0.20320843  0.20701994  0.80424722  1
  O  O4  1  0.00381151  0.79679157  0.80424722  1
  O  O5  1  0.79298006  0.99618849  0.80424722  1
  O  O6  1  0.78797775  0.95351218  0.69533936  1
  O  O7  1  0.16553443  0.21202225  0.69533936  1
  O  O8  1  0.04648782  0.83446557  0.69533936  1
  O  O9  1  0.78797775  0.83446557  0.19533936  1
  O  O10  1  0.04648782  0.21202225  0.19533936  1
  O  O11  1  0.16553443  0.95351218  0.19533936  1
  O  O12  1  0.86987543  0.32952149  0.63758022  1
  O  O13  1  0.45964706  0.13012457  0.63758022  1
  O  O14  1  0.67047851  0.54035294  0.63758022  1
  O  O15  1  0.86987543  0.54035294  0.13758022  1
  O  O16  1  0.67047851  0.13012457  0.13758022  1
  O  O17  1  0.45964706  0.32952149  0.13758022  1
  O  O18  1  0.45464475  0.28684518  0.02867236  1
  O  O19  1  0.83220143  0.54535525  0.02867236  1
  O  O20  1  0.71315482  0.16779857  0.02867236  1
  O  O21  1  0.45464475  0.16779857  0.52867236  1
  O  O22  1  0.71315482  0.54535525  0.52867236  1
  O  O23  1  0.83220143  0.28684518  0.52867236  1
  O  O24  1  0.53654143  0.66285549  0.97091422  1
  O  O25  1  0.12631306  0.46345857  0.97091422  1
  O  O26  1  0.33714451  0.87368694  0.97091422  1
  O  O27  1  0.53654143  0.87368694  0.47091422  1
  O  O28  1  0.33714451  0.46345857  0.47091422  1
  O  O29  1  0.12631306  0.66285549  0.47091422  1
  O  O30  1  0.12131075  0.62017918  0.36200636  1
  O  O31  1  0.49886743  0.87868925  0.36200636  1
  O  O32  1  0.37982082  0.50113257  0.36200636  1
  O  O33  1  0.12131075  0.50113257  0.86200636  1
  O  O34  1  0.37982082  0.87868925  0.86200636  1
  O  O35  1  0.49886743  0.62017918  0.86200636  1
  O  O36  1  0.98515409  0.77565270  0.41014608  1
  O  O37  1  0.79049860  0.01484591  0.41014608  1
  O  O38  1  0.22434730  0.20950140  0.41014608  1
  O  O39  1  0.98515409  0.20950140  0.91014608  1
  O  O40  1  0.22434730  0.01484591  0.91014608  1
  O  O41  1  0.79049860  0.77565270  0.91014608  1
  O  O42  1  0.93934064  0.12847963  0.58772846  1
  O  O43  1  0.18913899  0.06065936  0.58772846  1
  O  O44  1  0.87152037  0.81086101  0.58772846  1
  O  O45  1  0.93934064  0.81086101  0.08772846  1
  O  O46  1  0.87152037  0.06065936  0.08772846  1
  O  O47  1  0.18913899  0.12847963  0.08772846  1
  O  O48  1  0.65182109  0.10898570  0.74347908  1
  O  O49  1  0.45716560  0.34817891  0.74347908  1
  O  O50  1  0.89101430  0.54283440  0.74347908  1
  O  O51  1  0.65182109  0.54283440  0.24347908  1
  O  O52  1  0.89101430  0.34817891  0.24347908  1
  O  O53  1  0.45716560  0.10898570  0.24347908  1
  O  O54  1  0.60600764  0.46181263  0.92106146  1
  O  O55  1  0.85580599  0.39399236  0.92106146  1
  O  O56  1  0.53818737  0.14419401  0.92106146  1
  O  O57  1  0.60600764  0.14419401  0.42106146  1
  O  O58  1  0.53818737  0.39399236  0.42106146  1
  O  O59  1  0.85580599  0.46181263  0.42106146  1
  O  O60  1  0.31848709  0.44231970  0.07681308  1
  O  O61  1  0.12383160  0.68151291  0.07681308  1
  O  O62  1  0.55768030  0.87616840  0.07681308  1
  O  O63  1  0.31848709  0.87616840  0.57681308  1
  O  O64  1  0.55768030  0.68151291  0.57681308  1
  O  O65  1  0.12383160  0.44231970  0.57681308  1
  O  O66  1  0.27267364  0.79514663  0.25439546  1
  O  O67  1  0.52247199  0.72732636  0.25439546  1
  O  O68  1  0.20485337  0.47752801  0.25439546  1
  O  O69  1  0.27267364  0.47752801  0.75439546  1
  O  O70  1  0.20485337  0.72732636  0.75439546  1
  O  O71  1  0.52247199  0.79514663  0.75439546  1
loop_
_geom_bond_atom_site_label_1
_geom_bond_atom_site_label_2
_geom_bond_distance
_geom_bond_site_symmetry_2
Na0 O44 2.409890 1_445
Na0 O42 2.409890 1_455
Na0 O43 2.409890 1_555
Na0 O36 2.803890 1_445
Na0 O38 2.803890 1_555
Na0 O37 2.803890 1_455
Na1 O45 2.409890 1_445
Na1 O47 2.409890 1_555
Na1 O46 2.409890 1_455
Na1 O41 2.803890 1_444
Na1 O40 2.803890 1_554
Na1 O39 2.803890 1_454
Na2 O56 2.409890 1_555
Na2 O54 2.409890 1_555
Na2 O55 2.409890 1_555
Na2 O48 2.803890 1_555
Na2 O50 2.803890 1_555
Na2 O49 2.803890 1_555
Na3 O57 2.409890 1_555
Na3 O59 2.409890 1_555
Na3 O58 2.409890 1_555
Na3 O53 2.803890 1_555
Na3 O52 2.803890 1_555
Na3 O51 2.803890 1_555
Na4 O68 2.409890 1_555
Na4 O66 2.409890 1_555
Na4 O67 2.409890 1_555
Na4 O60 2.803890 1_555
Na4 O62 2.803890 1_555
Na4 O61 2.803890 1_555
Na5 O69 2.409890 1_555
Na5 O71 2.409890 1_555
Na5 O70 2.409890 1_555
Na5 O65 2.803890 1_555
Na5 O64 2.803890 1_555
Na5 O63 2.803890 1_555
Ca0 O2 2.169883 1_555
Ca0 O1 2.169883 1_445
Ca0 O0 2.169883 1_545
Ca0 O36 2.236569 1_445
Ca0 O38 2.236569 1_555
Ca0 O37 2.236569 1_455
Ca1 O3 2.169883 1_555
Ca1 O4 2.169883 1_545
Ca1 O5 2.169883 1_445
Ca1 O41 2.236569 1_445
Ca1 O40 2.236569 1_555
Ca1 O39 2.236569 1_455
Ca2 O14 2.169883 1_555
Ca2 O13 2.169883 1_555
Ca2 O12 2.169883 1_555
Ca2 O48 2.236569 1_555
Ca2 O50 2.236569 1_555
Ca2 O49 2.236569 1_555
Ca3 O15 2.169883 1_555
Ca3 O16 2.169883 1_555
Ca3 O17 2.169883 1_555
Ca3 O53 2.236569 1_555
Ca3 O52 2.236569 1_555
Ca3 O51 2.236569 1_555
Ca4 O26 2.169883 1_554
Ca4 O25 2.169883 1_554
Ca4 O24 2.169883 1_554
Ca4 O60 2.236569 1_555
Ca4 O62 2.236569 1_555
Ca4 O61 2.236569 1_555
Ca5 O27 2.169883 1_555
Ca5 O28 2.169883 1_555
Ca5 O29 2.169883 1_555
Ca5 O65 2.236569 1_555
Ca5 O64 2.236569 1_555
Ca5 O63 2.236569 1_555
Al0 O7 1.997297 1_555
Al0 O8 1.997297 1_545
Al0 O6 1.997297 1_445
Al0 O44 1.997438 1_445
Al0 O42 1.997438 1_455
Al0 O43 1.997438 1_555
Al1 O10 1.997297 1_555
Al1 O9 1.997297 1_445
Al1 O11 1.997297 1_545
Al1 O45 1.997438 1_445
Al1 O47 1.997438 1_555
Al1 O46 1.997438 1_455
Al2 O19 1.997297 1_556
Al2 O20 1.997297 1_556
Al2 O18 1.997297 1_556
Al2 O56 1.997438 1_555
Al2 O54 1.997438 1_555
Al2 O55 1.997438 1_555
Al3 O22 1.997297 1_555
Al3 O21 1.997297 1_555
Al3 O23 1.997297 1_555
Al3 O57 1.997438 1_555
Al3 O59 1.997438 1_555
Al3 O58 1.997438 1_555
Al4 O31 1.997297 1_555
Al4 O32 1.997297 1_555
Al4 O30 1.997297 1_555
Al4 O68 1.997438 1_555
Al4 O66 1.997438 1_555
Al4 O67 1.997438 1_555
Al5 O34 1.997297 1_555
Al5 O33 1.997297 1_555
Al5 O35 1.997297 1_555
Al5 O69 1.997438 1_555
Al5 O71 1.997438 1_555
Al5 O70 1.997438 1_555
O0 S0 1.446498 1_555
O1 S1 1.446498 1_555
O2 S2 1.446498 1_555
O3 S3 1.446498 1_555
O4 S4 1.446498 1_555
O5 S5 1.446498 1_555
O6 S5 1.510350 1_555
O7 S3 1.510350 1_555
O8 S4 1.510350 1_555
O9 S1 1.510350 1_555
O10 S2 1.510350 1_555
O11 S0 1.510350 1_555
O12 S6 1.446498 1_555
O13 S7 1.446498 1_555
O14 S8 1.446498 1_555
O15 S9 1.446498 1_555
O16 S10 1.446498 1_555
O17 S11 1.446498 1_555
O18 S11 1.510350 1_555
O19 S9 1.510350 1_555
O20 S10 1.510350 1_555
O21 S7 1.510350 1_555
O22 S8 1.510350 1_555
O23 S6 1.510350 1_555
O24 S12 1.446498 1_555
O25 S13 1.446498 1_555
O26 S14 1.446498 1_555
O27 S15 1.446498 1_555
O28 S16 1.446498 1_555
O29 S17 1.446498 1_555
O30 S17 1.510350 1_555
O31 S15 1.510350 1_555
O32 S16 1.510350 1_555
O33 S13 1.510350 1_555
O34 S14 1.510350 1_555
O35 S12 1.510350 1_555
O36 S17 1.468021 1_655
O37 S15 1.468030 1_545
O38 S16 1.468027 1_555
O39 S13 1.468029 1_655
O40 S14 1.468021 1_545
O41 S12 1.468027 1_555
O42 S6 1.515276 1_555
O43 S7 1.515284 1_555
O44 S8 1.515280 1_555
O45 S9 1.515284 1_555
O46 S10 1.515276 1_555
O47 S11 1.515280 1_555
O48 S5 1.468021 1_545
O49 S3 1.468030 1_555
O50 S4 1.468027 1_655
O51 S1 1.468029 1_555
O52 S2 1.468021 1_655
O53 S0 1.468027 1_545
O54 S12 1.515287 1_555
O55 S13 1.515270 1_655
O56 S14 1.515279 1_545
O57 S15 1.515270 1_545
O58 S16 1.515287 1_555
O59 S17 1.515279 1_655
O60 S11 1.468033 1_555
O61 S9 1.468016 1_455
O62 S10 1.468021 1_565
O63 S7 1.468016 1_565
O64 S8 1.468033 1_555
O65 S6 1.468021 1_455
O66 S0 1.515276 1_555
O67 S1 1.515284 1_555
O68 S2 1.515280 1_555
O69 S3 1.515284 1_555
O70 S4 1.515276 1_555
O71 S5 1.515280 1_555
