# generated using pymatgen
data_MgTe2Mo2W2(Se2S)2
_symmetry_space_group_name_H-M   'P 1'
_cell_length_a   6.67045200
_cell_length_b   6.67093276
_cell_length_c   91.53020024
_cell_angle_alpha   90.00746224
_cell_angle_beta   89.99999374
_cell_angle_gamma   119.99761603
_symmetry_Int_Tables_number   1
_chemical_formula_structural   MgTe2Mo2W2(Se2S)2
_chemical_formula_sum   'Mg8 Te16 Mo16 W16 Se32 S16'
_cell_volume   3527.33979741
_cell_formula_units_Z   8
loop_
 _symmetry_equiv_pos_site_id
 _symmetry_equiv_pos_as_xyz
  1  'x, y, z'
loop_
 _atom_site_type_symbol
 _atom_site_label
 _atom_site_symmetry_multiplicity
 _atom_site_fract_x
 _atom_site_fract_y
 _atom_site_fract_z
 _atom_site_occupancy
  Mg  Mg0_0  1  0.49997300  0.49994600  0.28015550  1
  Mg  Mg0_1  1  0.49997300  0.49994600  0.78015550  1
  Mg  Mg0_2  1  0.49997300  0.99994600  0.28015550  1
  Mg  Mg0_3  1  0.49997300  0.99994600  0.78015550  1
  Mg  Mg0_4  1  0.99997300  0.49994600  0.28015550  1
  Mg  Mg0_5  1  0.99997300  0.49994600  0.78015550  1
  Mg  Mg0_6  1  0.99997300  0.99994600  0.28015550  1
  Mg  Mg0_7  1  0.99997300  0.99994600  0.78015550  1
  Te  Te0_0  1  0.33333050  0.16666100  0.02600600  1
  Te  Te0_1  1  0.33333050  0.16666100  0.52600600  1
  Te  Te0_2  1  0.33333050  0.66666100  0.02600600  1
  Te  Te0_3  1  0.33333050  0.66666100  0.52600600  1
  Te  Te0_4  1  0.83333050  0.16666100  0.02600600  1
  Te  Te0_5  1  0.83333050  0.16666100  0.52600600  1
  Te  Te0_6  1  0.83333050  0.66666100  0.02600600  1
  Te  Te0_7  1  0.83333050  0.66666100  0.52600600  1
  Te  Te1_0  1  0.33332450  0.16664850  0.06752250  1
  Te  Te1_1  1  0.33332450  0.16664850  0.56752250  1
  Te  Te1_2  1  0.33332450  0.66664850  0.06752250  1
  Te  Te1_3  1  0.33332450  0.66664850  0.56752250  1
  Te  Te1_4  1  0.83332450  0.16664850  0.06752250  1
  Te  Te1_5  1  0.83332450  0.16664850  0.56752250  1
  Te  Te1_6  1  0.83332450  0.66664850  0.06752250  1
  Te  Te1_7  1  0.83332450  0.66664850  0.56752250  1
  Mo  Mo0_0  1  0.16666800  0.33333550  0.04677550  1
  Mo  Mo0_1  1  0.16666800  0.33333550  0.54677550  1
  Mo  Mo0_2  1  0.16666800  0.83333550  0.04677550  1
  Mo  Mo0_3  1  0.16666800  0.83333550  0.54677550  1
  Mo  Mo0_4  1  0.66666800  0.33333550  0.04677550  1
  Mo  Mo0_5  1  0.66666800  0.33333550  0.54677550  1
  Mo  Mo0_6  1  0.66666800  0.83333550  0.04677550  1
  Mo  Mo0_7  1  0.66666800  0.83333550  0.54677550  1
  Mo  Mo1_0  1  0.33329650  0.16659300  0.14100300  1
  Mo  Mo1_1  1  0.33329650  0.16659300  0.64100300  1
  Mo  Mo1_2  1  0.33329650  0.66659300  0.14100300  1
  Mo  Mo1_3  1  0.33329650  0.66659300  0.64100300  1
  Mo  Mo1_4  1  0.83329650  0.16659300  0.14100300  1
  Mo  Mo1_5  1  0.83329650  0.16659300  0.64100300  1
  Mo  Mo1_6  1  0.83329650  0.66659300  0.14100300  1
  Mo  Mo1_7  1  0.83329650  0.66659300  0.64100300  1
  W  W0_0  1  0.16666350  0.33332700  0.23090900  1
  W  W0_1  1  0.16666350  0.33332700  0.73090900  1
  W  W0_2  1  0.16666350  0.83332700  0.23090900  1
  W  W0_3  1  0.16666350  0.83332700  0.73090900  1
  W  W0_4  1  0.66666350  0.33332700  0.23090900  1
  W  W0_5  1  0.66666350  0.33332700  0.73090900  1
  W  W0_6  1  0.66666350  0.83332700  0.23090900  1
  W  W0_7  1  0.66666350  0.83332700  0.73090900  1
  W  W1_0  1  0.33337300  0.16674700  0.33256300  1
  W  W1_1  1  0.33337300  0.16674700  0.83256300  1
  W  W1_2  1  0.33337300  0.66674700  0.33256300  1
  W  W1_3  1  0.33337300  0.66674700  0.83256300  1
  W  W1_4  1  0.83337300  0.16674700  0.33256300  1
  W  W1_5  1  0.83337300  0.16674700  0.83256300  1
  W  W1_6  1  0.83337300  0.66674700  0.33256300  1
  W  W1_7  1  0.83337300  0.66674700  0.83256300  1
  Se  Se0_0  1  0.16669700  0.33339350  0.15927350  1
  Se  Se0_1  1  0.16669700  0.33339350  0.65927350  1
  Se  Se0_2  1  0.16669700  0.83339350  0.15927350  1
  Se  Se0_3  1  0.16669700  0.83339350  0.65927350  1
  Se  Se0_4  1  0.66669700  0.33339350  0.15927350  1
  Se  Se0_5  1  0.66669700  0.33339350  0.65927350  1
  Se  Se0_6  1  0.66669700  0.83339350  0.15927350  1
  Se  Se0_7  1  0.66669700  0.83339350  0.65927350  1
  Se  Se1_0  1  0.16673900  0.33347750  0.35089050  1
  Se  Se1_1  1  0.16673900  0.33347750  0.85089050  1
  Se  Se1_2  1  0.16673900  0.83347750  0.35089050  1
  Se  Se1_3  1  0.16673900  0.83347750  0.85089050  1
  Se  Se1_4  1  0.66673900  0.33347750  0.35089050  1
  Se  Se1_5  1  0.66673900  0.33347750  0.85089050  1
  Se  Se1_6  1  0.66673900  0.83347750  0.35089050  1
  Se  Se1_7  1  0.66673900  0.83347750  0.85089050  1
  Se  Se2_0  1  0.16657200  0.33314400  0.12276250  1
  Se  Se2_1  1  0.16657200  0.33314400  0.62276250  1
  Se  Se2_2  1  0.16657200  0.83314400  0.12276250  1
  Se  Se2_3  1  0.16657200  0.83314400  0.62276250  1
  Se  Se2_4  1  0.66657200  0.33314400  0.12276250  1
  Se  Se2_5  1  0.66657200  0.33314400  0.62276250  1
  Se  Se2_6  1  0.66657200  0.83314400  0.12276250  1
  Se  Se2_7  1  0.66657200  0.83314400  0.62276250  1
  Se  Se3_0  1  0.16671200  0.33342450  0.31407550  1
  Se  Se3_1  1  0.16671200  0.33342450  0.81407550  1
  Se  Se3_2  1  0.16671200  0.83342450  0.31407550  1
  Se  Se3_3  1  0.16671200  0.83342450  0.81407550  1
  Se  Se3_4  1  0.66671200  0.33342450  0.31407550  1
  Se  Se3_5  1  0.66671200  0.33342450  0.81407550  1
  Se  Se3_6  1  0.66671200  0.83342450  0.31407550  1
  Se  Se3_7  1  0.66671200  0.83342450  0.81407550  1
  S  S0_0  1  0.33330650  0.16661250  0.21430300  1
  S  S0_1  1  0.33330650  0.16661250  0.71430300  1
  S  S0_2  1  0.33330650  0.66661250  0.21430300  1
  S  S0_3  1  0.33330650  0.66661250  0.71430300  1
  S  S0_4  1  0.83330650  0.16661250  0.21430300  1
  S  S0_5  1  0.83330650  0.16661250  0.71430300  1
  S  S0_6  1  0.83330650  0.66661250  0.21430300  1
  S  S0_7  1  0.83330650  0.66661250  0.71430300  1
  S  S1_0  1  0.33334550  0.16669100  0.24764700  1
  S  S1_1  1  0.33334550  0.16669100  0.74764700  1
  S  S1_2  1  0.33334550  0.66669100  0.24764700  1
  S  S1_3  1  0.33334550  0.66669100  0.74764700  1
  S  S1_4  1  0.83334550  0.16669100  0.24764700  1
  S  S1_5  1  0.83334550  0.16669100  0.74764700  1
  S  S1_6  1  0.83334550  0.66669100  0.24764700  1
  S  S1_7  1  0.83334550  0.66669100  0.74764700  1
loop_
_geom_bond_atom_site_label_1
_geom_bond_atom_site_label_2
_geom_bond_distance
_geom_bond_site_symmetry_2
Mg0_0 Mg0_4 3.335226 1_455
Mg0_0 Mg0_4 3.335226 1_555
Mg0_0 Mg0_6 3.335466 1_555
Mg0_0 Mg0_2 3.335466 1_555
Mg0_0 Mg0_6 3.335466 1_445
Mg0_0 Mg0_2 3.335466 1_545
Mg0_1 Mg0_5 3.335226 1_555
Mg0_1 Mg0_5 3.335226 1_455
Mg0_1 Mg0_7 3.335466 1_555
Mg0_1 Mg0_3 3.335466 1_555
Mg0_1 Mg0_3 3.335466 1_545
Mg0_1 Mg0_7 3.335466 1_445
Mg0_2 Mg0_6 3.335226 1_555
Mg0_2 Mg0_6 3.335226 1_455
Mg0_2 Mg0_4 3.335466 1_455
Mg0_2 Mg0_4 3.335466 1_565
Mg0_3 Mg0_7 3.335226 1_555
Mg0_3 Mg0_7 3.335226 1_455
Mg0_3 Mg0_5 3.335466 1_565
Mg0_3 Mg0_5 3.335466 1_455
Mg0_4 Mg0_6 3.335466 1_555
Mg0_4 Mg0_6 3.335466 1_545
Mg0_5 Mg0_7 3.335466 1_555
Mg0_5 Mg0_7 3.335466 1_545
Mo0_0 Te1_2 2.704290 1_555
Mo0_0 Te1_4 2.704622 1_455
Mo0_0 Te1_0 2.704622 1_555
Mo0_0 Te0_0 2.705838 1_555
Mo0_0 Te0_4 2.705840 1_455
Mo0_0 Te0_2 2.706195 1_555
Mo0_1 Te1_3 2.704290 1_555
Mo0_1 Te1_5 2.704622 1_455
Mo0_1 Te1_1 2.704622 1_555
Mo0_1 Te0_1 2.705838 1_555
Mo0_1 Te0_5 2.705840 1_455
Mo0_1 Te0_3 2.706195 1_555
Mo0_2 Te1_0 2.704290 1_565
Mo0_2 Te1_6 2.704622 1_455
Mo0_2 Te1_2 2.704622 1_555
Mo0_2 Te0_2 2.705838 1_555
Mo0_2 Te0_6 2.705840 1_455
Mo0_2 Te0_0 2.706195 1_565
Mo0_3 Te1_1 2.704290 1_565
Mo0_3 Te1_7 2.704622 1_455
Mo0_3 Te1_3 2.704622 1_555
Mo0_3 Te0_3 2.705838 1_555
Mo0_3 Te0_7 2.705840 1_455
Mo0_3 Te0_1 2.706195 1_565
Mo0_4 Te1_6 2.704290 1_555
Mo0_4 Te1_0 2.704622 1_555
Mo0_4 Te1_4 2.704622 1_555
Mo0_4 Te0_4 2.705838 1_555
Mo0_4 Te0_0 2.705840 1_555
Mo0_4 Te0_6 2.706195 1_555
Mo0_5 Te1_7 2.704290 1_555
Mo0_5 Te1_1 2.704622 1_555
Mo0_5 Te1_5 2.704622 1_555
Mo0_5 Te0_5 2.705838 1_555
Mo0_5 Te0_1 2.705840 1_555
Mo0_5 Te0_7 2.706195 1_555
Mo0_6 Te1_4 2.704290 1_565
Mo0_6 Te1_2 2.704622 1_555
Mo0_6 Te1_6 2.704622 1_555
Mo0_6 Te0_6 2.705838 1_555
Mo0_6 Te0_2 2.705840 1_555
Mo0_6 Te0_4 2.706195 1_565
Mo0_7 Te1_5 2.704290 1_565
Mo0_7 Te1_3 2.704622 1_555
Mo0_7 Te1_7 2.704622 1_555
Mo0_7 Te0_7 2.705838 1_555
Mo0_7 Te0_3 2.705840 1_555
Mo0_7 Te0_5 2.706195 1_565
Mo1_0 Se2_4 2.548471 1_555
Mo1_0 Se2_0 2.548471 1_555
Mo1_0 Se2_2 2.549049 1_545
Mo1_0 Se0_2 2.550139 1_545
Mo1_0 Se0_0 2.550624 1_555
Mo1_0 Se0_4 2.550627 1_555
Mo1_1 Se2_5 2.548471 1_555
Mo1_1 Se2_1 2.548471 1_555
Mo1_1 Se2_3 2.549049 1_545
Mo1_1 Se0_3 2.550139 1_545
Mo1_1 Se0_1 2.550624 1_555
Mo1_1 Se0_5 2.550627 1_555
Mo1_2 Se2_6 2.548471 1_555
Mo1_2 Se2_2 2.548471 1_555
Mo1_2 Se2_0 2.549049 1_555
Mo1_2 Se0_0 2.550139 1_555
Mo1_2 Se0_2 2.550624 1_555
Mo1_2 Se0_6 2.550627 1_555
Mo1_3 Se2_7 2.548471 1_555
Mo1_3 Se2_3 2.548471 1_555
Mo1_3 Se2_1 2.549049 1_555
Mo1_3 Se0_1 2.550139 1_555
Mo1_3 Se0_3 2.550624 1_555
Mo1_3 Se0_7 2.550627 1_555
Mo1_4 Se2_0 2.548471 1_655
Mo1_4 Se2_4 2.548471 1_555
Mo1_4 Se2_6 2.549049 1_545
Mo1_4 Se0_6 2.550139 1_545
Mo1_4 Se0_4 2.550624 1_555
Mo1_4 Se0_0 2.550627 1_655
Mo1_5 Se2_1 2.548471 1_655
Mo1_5 Se2_5 2.548471 1_555
Mo1_5 Se2_7 2.549049 1_545
Mo1_5 Se0_7 2.550139 1_545
Mo1_5 Se0_5 2.550624 1_555
Mo1_5 Se0_1 2.550627 1_655
Mo1_6 Se2_2 2.548471 1_655
Mo1_6 Se2_6 2.548471 1_555
Mo1_6 Se2_4 2.549049 1_555
Mo1_6 Se0_4 2.550139 1_555
Mo1_6 Se0_6 2.550624 1_555
Mo1_6 Se0_2 2.550627 1_655
Mo1_7 Se2_3 2.548471 1_655
Mo1_7 Se2_7 2.548471 1_555
Mo1_7 Se2_5 2.549049 1_555
Mo1_7 Se0_5 2.550139 1_555
Mo1_7 Se0_7 2.550624 1_555
Mo1_7 Se0_3 2.550627 1_655
Se1_0 W1_2 2.553869 1_555
Se1_0 W1_0 2.553893 1_555
Se1_0 W1_4 2.553900 1_455
Se1_1 W1_3 2.553869 1_555
Se1_1 W1_1 2.553893 1_555
Se1_1 W1_5 2.553900 1_455
Se1_2 W1_0 2.553869 1_565
Se1_2 W1_2 2.553893 1_555
Se1_2 W1_6 2.553900 1_455
Se1_3 W1_1 2.553869 1_565
Se1_3 W1_3 2.553893 1_555
Se1_3 W1_7 2.553900 1_455
Se1_4 W1_6 2.553869 1_555
Se1_4 W1_4 2.553893 1_555
Se1_4 W1_0 2.553900 1_555
Se1_5 W1_7 2.553869 1_555
Se1_5 W1_5 2.553893 1_555
Se1_5 W1_1 2.553900 1_555
Se1_6 W1_4 2.553869 1_565
Se1_6 W1_6 2.553893 1_555
Se1_6 W1_2 2.553900 1_555
Se1_7 W1_5 2.553869 1_565
Se1_7 W1_7 2.553893 1_555
Se1_7 W1_3 2.553900 1_555
Se3_0 W1_2 2.563362 1_555
Se3_0 W1_0 2.563614 1_555
Se3_0 W1_4 2.563616 1_455
Se3_1 W1_3 2.563362 1_555
Se3_1 W1_1 2.563614 1_555
Se3_1 W1_5 2.563616 1_455
Se3_2 W1_0 2.563362 1_565
Se3_2 W1_2 2.563614 1_555
Se3_2 W1_6 2.563616 1_455
Se3_3 W1_1 2.563362 1_565
Se3_3 W1_3 2.563614 1_555
Se3_3 W1_7 2.563616 1_455
Se3_4 W1_6 2.563362 1_555
Se3_4 W1_4 2.563614 1_555
Se3_4 W1_0 2.563616 1_555
Se3_5 W1_7 2.563362 1_555
Se3_5 W1_5 2.563614 1_555
Se3_5 W1_1 2.563616 1_555
Se3_6 W1_4 2.563362 1_565
Se3_6 W1_6 2.563614 1_555
Se3_6 W1_2 2.563616 1_555
Se3_7 W1_5 2.563362 1_565
Se3_7 W1_7 2.563614 1_555
Se3_7 W1_3 2.563616 1_555
S0_0 W0_4 2.453248 1_555
S0_0 W0_0 2.453250 1_555
S0_0 W0_2 2.453302 1_545
S0_1 W0_5 2.453248 1_555
S0_1 W0_1 2.453250 1_555
S0_1 W0_3 2.453302 1_545
S0_2 W0_6 2.453248 1_555
S0_2 W0_2 2.453250 1_555
S0_2 W0_0 2.453302 1_555
S0_3 W0_7 2.453248 1_555
S0_3 W0_3 2.453250 1_555
S0_3 W0_1 2.453302 1_555
S0_4 W0_0 2.453248 1_655
S0_4 W0_4 2.453250 1_555
S0_4 W0_6 2.453302 1_545
S0_5 W0_1 2.453248 1_655
S0_5 W0_5 2.453250 1_555
S0_5 W0_7 2.453302 1_545
S0_6 W0_2 2.453248 1_655
S0_6 W0_6 2.453250 1_555
S0_6 W0_4 2.453302 1_555
S0_7 W0_3 2.453248 1_655
S0_7 W0_7 2.453250 1_555
S0_7 W0_5 2.453302 1_555
S1_0 W0_4 2.460755 1_555
S1_0 W0_0 2.460755 1_555
S1_0 W0_2 2.460801 1_545
S1_1 W0_5 2.460755 1_555
S1_1 W0_1 2.460755 1_555
S1_1 W0_3 2.460801 1_545
S1_2 W0_6 2.460755 1_555
S1_2 W0_2 2.460755 1_555
S1_2 W0_0 2.460801 1_555
S1_3 W0_7 2.460755 1_555
S1_3 W0_3 2.460755 1_555
S1_3 W0_1 2.460801 1_555
S1_4 W0_0 2.460755 1_655
S1_4 W0_4 2.460755 1_555
S1_4 W0_6 2.460801 1_545
S1_5 W0_1 2.460755 1_655
S1_5 W0_5 2.460755 1_555
S1_5 W0_7 2.460801 1_545
S1_6 W0_2 2.460755 1_655
S1_6 W0_6 2.460755 1_555
S1_6 W0_4 2.460801 1_555
S1_7 W0_3 2.460755 1_655
S1_7 W0_7 2.460755 1_555
S1_7 W0_5 2.460801 1_555
