# generated using pymatgen
data_NaLa2Sc2PS5O24
_symmetry_space_group_name_H-M   'P 1'
_cell_length_a   9.05086216
_cell_length_b   9.05154707
_cell_length_c   24.29771290
_cell_angle_alpha   89.92775497
_cell_angle_beta   90.13512716
_cell_angle_gamma   119.79671589
_symmetry_Int_Tables_number   1
_chemical_formula_structural   NaLa2Sc2PS5O24
_chemical_formula_sum   'Na3 La6 Sc6 P3 S15 O72'
_cell_volume   1727.40257663
_cell_formula_units_Z   3
loop_
 _symmetry_equiv_pos_site_id
 _symmetry_equiv_pos_as_xyz
  1  'x, y, z'
loop_
 _atom_site_type_symbol
 _atom_site_label
 _atom_site_symmetry_multiplicity
 _atom_site_fract_x
 _atom_site_fract_y
 _atom_site_fract_z
 _atom_site_occupancy
  Na  Na0  1  0.99861678  0.98372473  0.99424864  1
  Na  Na1  1  0.65083884  0.33138823  0.83908644  1
  Na  Na2  1  0.67815726  0.33167345  0.33729027  1
  La  La0  1  0.99966308  0.98897648  0.84710616  1
  La  La1  1  -0.00013267  0.00772533  0.15978298  1
  La  La2  1  0.67442268  0.33480422  0.19356892  1
  La  La3  1  0.65682214  0.33474055  0.97741301  1
  La  La4  1  0.34175992  0.67425961  0.01724015  1
  La  La5  1  0.34157964  0.67546857  0.80553362  1
  Sc  Sc0  1  0.99874659  0.00710031  0.35838711  1
  Sc  Sc1  1  0.00114016  0.00010091  0.64081225  1
  Sc  Sc2  1  0.66509070  0.33219962  0.67427615  1
  Sc  Sc3  1  0.66719233  0.33344505  0.48389996  1
  Sc  Sc4  1  0.33320679  0.66674438  0.51838438  1
  Sc  Sc5  1  0.32708409  0.65929592  0.32231264  1
  P  P0  1  0.00605196  0.30050400  0.26388156  1
  P  P1  1  0.64105510  0.66890082  0.91303839  1
  P  P2  1  0.33171178  0.97204437  0.91285763  1
  S  S0  1  0.29089977  0.98961653  0.26404404  1
  S  S1  1  0.69772045  0.70870168  0.26416743  1
  S  S2  1  0.30321740  0.28161591  0.73842373  1
  S  S3  1  0.97715106  0.69266220  0.73724210  1
  S  S4  1  0.72161521  0.02492707  0.73815404  1
  S  S5  1  0.95667872  0.33598939  0.57993447  1
  S  S6  1  0.37976284  0.04382151  0.57967793  1
  S  S7  1  0.66421269  0.62066014  0.57981421  1
  S  S8  1  0.96777961  0.64411403  0.08485117  1
  S  S9  1  0.67780189  0.03470217  0.08463725  1
  S  S10  1  0.35506849  0.32446813  0.08672421  1
  S  S11  1  0.03066390  0.36143506  0.91311479  1
  S  S12  1  0.61673814  0.95740093  0.41931969  1
  S  S13  1  0.34142268  0.38233548  0.41971698  1
  S  S14  1  0.04150918  0.66077220  0.41968514  1
  O  O0  1  0.18774339  0.00691600  0.30822130  1
  O  O1  1  0.82023364  0.80826543  0.30837544  1
  O  O2  1  0.98675431  0.17234014  0.30978207  1
  O  O3  1  0.24387774  0.18987419  0.79142872  1
  O  O4  1  0.94275681  0.74934144  0.79047875  1
  O  O5  1  0.81188074  0.05553672  0.79137318  1
  O  O6  1  0.82279599  0.00899234  0.69272042  1
  O  O7  1  0.18723023  0.18006000  0.69264850  1
  O  O8  1  -0.00530313  0.81250991  0.69240334  1
  O  O9  1  0.75965648  0.78928564  0.20972564  1
  O  O10  1  0.02524082  0.23501182  0.20737821  1
  O  O11  1  0.20773822  0.96682711  0.20972286  1
  O  O12  1  0.88358818  0.37771474  0.62809842  1
  O  O13  1  0.49387648  0.11562047  0.62819464  1
  O  O14  1  0.62133094  0.50586628  0.62809740  1
  O  O15  1  0.86798853  0.55061662  0.13489096  1
  O  O16  1  0.68574451  0.13477341  0.13465806  1
  O  O17  1  0.45033698  0.31901128  0.13635317  1
  O  O18  1  0.44149057  0.31676158  0.03579614  1
  O  O19  1  0.87230904  0.55608385  0.03420276  1
  O  O20  1  0.68260047  0.12777650  0.03394352  1
  O  O21  1  0.45784578  0.16229901  0.53201996  1
  O  O22  1  0.70459385  0.54257861  0.53206388  1
  O  O23  1  0.83839626  0.29556421  0.53196869  1
  O  O24  1  0.54552813  0.65048719  0.96738396  1
  O  O25  1  0.11159827  0.44927475  0.96513978  1
  O  O26  1  0.33848782  0.88626060  0.96696221  1
  O  O27  1  0.53655739  0.84728436  0.46836092  1
  O  O28  1  0.31069032  0.46320712  0.46836635  1
  O  O29  1  0.15265247  0.69005029  0.46860871  1
  O  O30  1  0.11576307  0.62183636  0.37122711  1
  O  O31  1  0.50463038  0.88384269  0.37081970  1
  O  O32  1  0.38086138  0.49520166  0.37121215  1
  O  O33  1  0.13241607  0.45460161  0.86418540  1
  O  O34  1  0.31197031  0.86289896  0.86124966  1
  O  O35  1  0.54358820  0.67810579  0.86179281  1
  O  O36  1  0.02349561  0.81166213  0.41005780  1
  O  O37  1  0.78604537  0.97390052  0.41024545  1
  O  O38  1  0.19012346  0.21347550  0.41022084  1
  O  O39  1  0.01257586  0.18959121  0.91542530  1
  O  O40  1  0.17764524  0.00157871  0.91676667  1
  O  O41  1  0.81628810  0.83337751  0.91682609  1
  O  O42  1  0.97615999  0.18553669  0.59119297  1
  O  O43  1  0.21055820  0.02542662  0.59090521  1
  O  O44  1  0.81441245  0.78951234  0.59125940  1
  O  O45  1  0.98749236  0.81761369  0.08476227  1
  O  O46  1  0.83025693  0.01262919  0.08383769  1
  O  O47  1  0.18298998  0.16939576  0.08593652  1
  O  O48  1  0.69996214  0.17557175  0.72818727  1
  O  O49  1  0.47558722  0.30246039  0.72870174  1
  O  O50  1  0.82592245  0.52258491  0.72666061  1
  O  O51  1  0.67895341  0.53515701  0.26415691  1
  O  O52  1  0.84314969  0.31685149  0.26418182  1
  O  O53  1  0.46111705  0.14755603  0.26371482  1
  O  O54  1  0.66754879  0.51349565  0.90603897  1
  O  O55  1  0.85978571  0.34554111  0.90765458  1
  O  O56  1  0.49716766  0.14579651  0.90680158  1
  O  O57  1  0.63728220  0.13161611  0.42874781  1
  O  O58  1  0.49506731  0.36249802  0.42925589  1
  O  O59  1  0.86888862  0.50587157  0.42897252  1
  O  O60  1  0.34122857  0.47844535  0.08825127  1
  O  O61  1  0.13372689  0.65342955  0.08673385  1
  O  O62  1  0.52224079  0.86840576  0.08775968  1
  O  O63  1  0.36188738  0.87523656  0.56693530  1
  O  O64  1  0.51360493  0.63906372  0.56685925  1
  O  O65  1  0.12489035  0.48644835  0.56722983  1
  O  O66  1  0.31014052  0.83958913  0.27420155  1
  O  O67  1  0.53192908  0.69735937  0.27400644  1
  O  O68  1  0.16495609  0.47351921  0.27536103  1
  O  O69  1  0.31388253  0.44872334  0.74071696  1
  O  O70  1  0.13199542  0.67936368  0.73988632  1
  O  O71  1  0.55367579  0.86938390  0.73973151  1
loop_
_geom_bond_atom_site_label_1
_geom_bond_atom_site_label_2
_geom_bond_distance
_geom_bond_site_symmetry_2
Na0 O41 2.423632 1_555
Na0 O40 2.439134 1_665
Na0 O39 2.629547 1_665
Na0 O45 2.636265 1_556
Na0 O46 2.746311 1_566
Na0 O47 2.788712 1_666
Na1 O54 2.268092 1_555
Na1 O56 2.268329 1_555
Na1 O55 2.472545 1_555
Na2 O52 2.369752 1_555
Na2 O51 2.555128 1_555
Na2 O53 2.563103 1_555
Na2 O57 2.771661 1_555
Na2 O59 2.777457 1_555
Na2 O58 2.880222 1_555
La0 O40 2.297358 1_665
La0 O41 2.300450 1_555
La0 O4 2.399407 1_555
La0 O39 2.421243 1_665
La0 O3 2.456781 1_665
La0 O5 2.467822 1_565
La1 O10 2.271075 1_555
La1 O47 2.388494 1_555
La1 O46 2.412020 1_455
La1 O11 2.414425 1_545
La1 O9 2.417203 1_445
La1 O45 2.472210 1_445
La2 O15 2.349776 1_555
La2 O16 2.351437 1_555
La2 O52 2.352833 1_555
La2 O17 2.401177 1_555
La2 O51 2.483090 1_555
La2 O53 2.502199 1_555
La3 O54 2.339342 1_555
La3 O56 2.344392 1_555
La3 O18 2.352539 1_556
La3 O19 2.415091 1_556
La3 O20 2.424236 1_556
La3 O55 2.468364 1_555
La4 O26 2.286044 1_554
La4 O24 2.306671 1_554
La4 O62 2.415354 1_555
La4 O25 2.422224 1_554
La4 O61 2.468463 1_555
La4 O60 2.470302 1_555
La5 O35 2.270895 1_555
La5 O34 2.289565 1_555
La5 O33 2.419851 1_555
La5 O71 2.445586 1_555
La5 O70 2.489151 1_555
La5 O69 2.500084 1_555
O0 S0 1.482862 1_545
O0 Sc0 2.103456 1_455
O1 S1 1.482968 1_555
O1 Sc0 2.105357 1_565
O2 P0 1.554484 1_655
O2 Sc0 1.949321 1_555
O3 S2 1.481225 1_555
O4 S3 1.481764 1_555
O5 S4 1.478951 1_555
O6 S4 1.488138 1_555
O6 Sc1 2.083684 1_655
O7 S2 1.490676 1_555
O7 Sc1 2.084463 1_555
O8 S3 1.488494 1_455
O8 Sc1 2.086746 1_565
O9 S1 1.480136 1_555
O10 P0 1.540111 1_555
O11 S0 1.480831 1_555
O12 S5 1.484211 1_555
O12 Sc2 2.130513 1_555
O13 S6 1.485887 1_555
O13 Sc2 2.115724 1_555
O14 S7 1.484888 1_555
O14 Sc2 2.121105 1_555
O15 S8 1.501064 1_555
O16 S9 1.496818 1_555
O17 S10 1.495771 1_555
O18 S10 1.485581 1_555
O19 S8 1.486342 1_555
O20 S9 1.479897 1_555
O21 S6 1.495969 1_555
O21 Sc3 2.108481 1_555
O22 S7 1.496661 1_555
O22 Sc3 2.105794 1_555
O23 S5 1.498049 1_555
O23 Sc3 2.097922 1_555
O24 P1 1.542912 1_555
O25 S11 1.478514 1_555
O26 P2 1.542488 1_555
O27 S12 1.490704 1_555
O27 Sc4 2.133455 1_555
O28 S13 1.488823 1_555
O28 Sc4 2.131677 1_555
O29 S14 1.491791 1_555
O29 Sc4 2.123771 1_555
O30 S14 1.484037 1_555
O30 Sc5 2.133281 1_555
O31 S12 1.478681 1_555
O31 Sc5 2.203072 1_555
O32 S13 1.482102 1_555
O32 Sc5 2.136833 1_555
O33 S11 1.484417 1_555
O34 P2 1.551444 1_555
O35 P1 1.550211 1_555
O36 S14 1.472072 1_555
O36 Sc0 2.267758 1_465
O37 S12 1.480931 1_555
O37 Sc0 2.195371 1_565
O38 S13 1.477784 1_555
O38 Sc0 2.203597 1_455
O39 S11 1.481934 1_555
O40 P2 1.547937 1_545
O41 P1 1.547032 1_555
O42 S5 1.482558 1_555
O42 Sc1 2.166273 1_655
O43 S6 1.481860 1_555
O43 Sc1 2.166546 1_555
O44 S7 1.481780 1_555
O44 Sc1 2.175744 1_665
O45 S8 1.489847 1_555
O46 S9 1.489432 1_555
O47 S10 1.491147 1_555
O48 S4 1.490268 1_555
O48 Sc2 2.064827 1_555
O49 S2 1.494785 1_555
O49 Sc2 2.077017 1_555
O50 S3 1.488182 1_555
O50 Sc2 2.052423 1_555
O51 S1 1.493732 1_555
O52 P0 1.553287 1_655
O53 S0 1.492790 1_545
O54 P1 1.549559 1_555
O55 S11 1.486002 1_655
O56 P2 1.548366 1_545
O57 S12 1.510966 1_545
O57 Sc3 2.172431 1_555
O58 S13 1.505428 1_555
O58 Sc3 2.157667 1_555
O59 S14 1.510473 1_655
O59 Sc3 2.173526 1_555
O60 S10 1.460554 1_555
O61 S8 1.462506 1_455
O62 S9 1.465535 1_565
O63 S6 1.485317 1_565
O63 Sc4 2.130202 1_555
O64 S7 1.486094 1_555
O64 Sc4 2.124316 1_555
O65 S5 1.486070 1_455
O65 Sc4 2.138782 1_555
O66 S0 1.472865 1_555
O66 Sc5 2.072758 1_555
O67 S1 1.472372 1_555
O67 Sc5 2.075609 1_555
O68 P0 1.536078 1_555
O68 Sc5 1.956267 1_555
O69 S2 1.468128 1_555
O70 S3 1.466276 1_455
O71 S4 1.472192 1_565
