# generated using pymatgen
data_Ba2YMgRuO6
_symmetry_space_group_name_H-M   'P 1'
_cell_length_a   6.57221862
_cell_length_b   6.59341316
_cell_length_c   6.59341246
_cell_angle_alpha   53.88129194
_cell_angle_beta   53.90670276
_cell_angle_gamma   53.90670406
_symmetry_Int_Tables_number   1
_chemical_formula_structural   Ba2YMgRuO6
_chemical_formula_sum   'Ba2 Y1 Mg1 Ru1 O6'
_cell_volume   173.22615423
_cell_formula_units_Z   1
loop_
 _symmetry_equiv_pos_site_id
 _symmetry_equiv_pos_as_xyz
  1  'x, y, z'
loop_
 _atom_site_type_symbol
 _atom_site_label
 _atom_site_symmetry_multiplicity
 _atom_site_fract_x
 _atom_site_fract_y
 _atom_site_fract_z
 _atom_site_occupancy
  Ba  Ba0  1  0.79919494  0.80032557  0.80032557  1
  Ba  Ba1  1  0.25977272  0.25833114  0.25833114  1
  Y  Y0  1  0.00833720  0.00762809  0.00762809  1
  Mg  Mg0  1  0.63206669  0.62554481  0.62554481  1
  Ru  Ru0  1  0.48018792  0.47953734  0.47953734  1
  O  O0  1  0.25128599  0.73794470  0.73794470  1
  O  O1  1  0.25326634  0.72008995  0.25598179  1
  O  O2  1  0.73957121  0.24757300  0.73751084  1
  O  O3  1  0.25326634  0.25598179  0.72008995  1
  O  O4  1  0.71889643  0.25453276  0.25453276  1
  O  O5  1  0.73957121  0.73751084  0.24757300  1
loop_
_geom_bond_atom_site_label_1
_geom_bond_atom_site_label_2
_geom_bond_distance
_geom_bond_site_symmetry_2
Ba0 O5 2.531979 1_556
Ba0 O2 2.531980 1_565
Ba0 O0 2.546828 1_655
Ba0 Mg0 2.900161 1_555
Ba0 O1 3.134659 1_655
Ba0 O3 3.134659 1_655
Ba0 O1 3.137136 1_556
Ba0 O3 3.137136 1_565
Ba0 O4 3.141257 1_565
Ba0 O4 3.141257 1_556
Ba1 O4 2.988142 1_555
Ba1 O2 2.995107 1_455
Ba1 O5 2.995108 1_455
Ba1 O0 3.000322 1_554
Ba1 O0 3.000322 1_545
Ba1 O2 3.001043 1_554
Ba1 O5 3.001043 1_545
Ba1 O3 3.010522 1_555
Ba1 O1 3.010522 1_555
Mg0 O5 1.904180 1_555
Mg0 O2 1.904180 1_555
Mg0 O0 1.907487 1_555
O0 Ru0 2.334821 1_555
O0 Y0 2.431098 1_566
O1 Ru0 1.989826 1_555
O1 Y0 2.171862 1_565
O2 Ru0 2.327216 1_555
O2 Y0 2.426362 1_656
O3 Ru0 1.989826 1_555
O3 Y0 2.171862 1_556
O4 Ru0 1.993332 1_555
O4 Y0 2.178559 1_655
O5 Ru0 2.327216 1_555
O5 Y0 2.426362 1_665
