# generated using pymatgen
data_La2Hf2SiS5O24
_symmetry_space_group_name_H-M   'P 1'
_cell_length_a   9.24485679
_cell_length_b   9.29874700
_cell_length_c   23.88613638
_cell_angle_alpha   90.10529013
_cell_angle_beta   90.04719057
_cell_angle_gamma   119.86328926
_symmetry_Int_Tables_number   1
_chemical_formula_structural   La2Hf2SiS5O24
_chemical_formula_sum   'La6 Hf6 Si3 S15 O72'
_cell_volume   1780.72224844
_cell_formula_units_Z   3
loop_
 _symmetry_equiv_pos_site_id
 _symmetry_equiv_pos_as_xyz
  1  'x, y, z'
loop_
 _atom_site_type_symbol
 _atom_site_label
 _atom_site_symmetry_multiplicity
 _atom_site_fract_x
 _atom_site_fract_y
 _atom_site_fract_z
 _atom_site_occupancy
  La  La0  1  0.99233144  0.00236880  0.36761954  1
  La  La1  1  0.00205653  0.00262666  0.86338987  1
  La  La2  1  0.68115205  0.33771729  0.68025943  1
  La  La3  1  0.65546655  0.33585013  0.18364748  1
  La  La4  1  0.65272284  0.32921570  0.98793415  1
  La  La5  1  0.33100707  0.66383126  0.80230178  1
  Hf  Hf0  1  -0.00011808  0.00622060  0.63796686  1
  Hf  Hf1  1  0.00727968  0.00636118  0.14947133  1
  Hf  Hf2  1  0.67538673  0.32224973  0.47867165  1
  Hf  Hf3  1  0.33331798  0.66234776  0.02434398  1
  Hf  Hf4  1  0.33752263  0.66958012  0.52264235  1
  Hf  Hf5  1  0.34050653  0.67494431  0.31444223  1
  Si  Si0  1  0.96698806  0.33402036  0.57923332  1
  Si  Si1  1  0.35247341  0.33061870  0.08420201  1
  Si  Si2  1  0.59746627  0.95179597  0.41923570  1
  S  S0  1  0.27576432  0.97673929  0.25139946  1
  S  S1  1  0.70170578  0.72117969  0.25155141  1
  S  S2  1  0.01762460  0.29651573  0.25028588  1
  S  S3  1  0.27521767  0.27350561  0.74390610  1
  S  S4  1  -0.00049413  0.72721452  0.74485288  1
  S  S5  1  0.72401722  0.99759173  0.74456549  1
  S  S6  1  0.36531557  0.03502655  0.57904393  1
  S  S7  1  0.67016086  0.63554864  0.57974462  1
  S  S8  1  0.98299084  0.65354427  0.08461438  1
  S  S9  1  0.67081392  0.01672091  0.08446798  1
  S  S10  1  0.61117374  0.66779618  0.92069488  1
  S  S11  1  0.05439682  0.39137552  0.92123716  1
  S  S12  1  0.33552517  0.94302359  0.92046217  1
  S  S13  1  0.35874312  0.40816397  0.41945316  1
  S  S14  1  0.04842048  0.64409391  0.41915579  1
  O  O0  1  0.20431952  0.00835127  0.30120936  1
  O  O1  1  0.80517577  0.79765429  0.30134328  1
  O  O2  1  0.98731522  0.19443034  0.30068959  1
  O  O3  1  0.19942853  0.18521318  0.79683759  1
  O  O4  1  0.99127813  0.80657801  0.79768137  1
  O  O5  1  0.81440303  0.01233880  0.79728426  1
  O  O6  1  0.82035962  0.99079995  0.69515041  1
  O  O7  1  0.17081132  0.17631734  0.69456406  1
  O  O8  1  0.00600194  0.82730840  0.69524473  1
  O  O9  1  0.78090492  0.82617223  0.20142758  1
  O  O10  1  0.03822934  0.20575426  0.20084965  1
  O  O11  1  0.16655994  0.95450369  0.20141548  1
  O  O12  1  0.89849558  0.37881153  0.63474210  1
  O  O13  1  0.46589846  0.09219731  0.63020013  1
  O  O14  1  0.62657778  0.53463280  0.63068179  1
  O  O15  1  0.91688462  0.53829132  0.13211410  1
  O  O16  1  0.62531587  0.08561128  0.13225264  1
  O  O17  1  0.48040929  0.37652895  0.13656202  1
  O  O18  1  0.42870494  0.28378638  0.03059433  1
  O  O19  1  0.87373107  0.58761059  0.03534399  1
  O  O20  1  0.71768392  0.12725606  0.03569018  1
  O  O21  1  0.44836041  0.15407165  0.53236155  1
  O  O22  1  0.70279131  0.55313471  0.53268522  1
  O  O23  1  0.82772938  0.30012010  0.52850063  1
  O  O24  1  0.51421402  0.67488527  0.96949293  1
  O  O25  1  0.15919633  0.49005286  0.96982592  1
  O  O26  1  0.32925243  0.84264008  0.96963397  1
  O  O27  1  0.49903829  0.83478760  0.47162039  1
  O  O28  1  0.33240135  0.48850560  0.46875278  1
  O  O29  1  0.15297754  0.66477229  0.46828018  1
  O  O30  1  0.12435290  0.61768997  0.36729521  1
  O  O31  1  0.48419403  0.85759066  0.36200155  1
  O  O32  1  0.37501988  0.50600212  0.36725970  1
  O  O33  1  0.12993665  0.47877713  0.86805416  1
  O  O34  1  0.34291239  0.86283863  0.86765864  1
  O  O35  1  0.52124110  0.65366514  0.86783508  1
  O  O36  1  0.03364410  0.79318225  0.41371693  1
  O  O37  1  0.78006969  0.97230234  0.41326304  1
  O  O38  1  0.21156638  0.24206422  0.41361339  1
  O  O39  1  0.05006226  0.22992554  0.92196536  1
  O  O40  1  0.18121493  0.95414271  0.92117625  1
  O  O41  1  0.77303234  0.82427294  0.92133708  1
  O  O42  1  0.98200884  0.16639438  0.59250134  1
  O  O43  1  0.19744670  0.01911430  0.58860760  1
  O  O44  1  0.82229686  0.80186348  0.59032830  1
  O  O45  1  0.00157248  0.81775381  0.10012914  1
  O  O46  1  0.81194579  0.98918566  0.09988685  1
  O  O47  1  0.17059881  0.17205524  0.10279564  1
  O  O48  1  0.69980811  0.14123205  0.73996341  1
  O  O49  1  0.44133731  0.29379994  0.73812814  1
  O  O50  1  0.85045982  0.56180063  0.74156032  1
  O  O51  1  0.67680022  0.55338112  0.24320838  1
  O  O52  1  0.87712433  0.32364101  0.23829334  1
  O  O53  1  0.44618420  0.11308699  0.24070799  1
  O  O54  1  0.63544130  0.52408496  0.92597067  1
  O  O55  1  0.88761856  0.36977042  0.92744379  1
  O  O56  1  0.48496371  0.10837447  0.92437698  1
  O  O57  1  0.61353312  0.13558189  0.43059015  1
  O  O58  1  0.51187889  0.39812291  0.42781299  1
  O  O59  1  0.87980575  0.49406290  0.42673116  1
  O  O60  1  0.32511856  0.48735650  0.06847457  1
  O  O61  1  0.15360617  0.68391268  0.07070214  1
  O  O62  1  0.52569706  0.85087357  0.07010460  1
  O  O63  1  0.33401060  0.86583425  0.56562765  1
  O  O64  1  0.53022392  0.66633131  0.56682932  1
  O  O65  1  0.14939015  0.48362844  0.56143273  1
  O  O66  1  0.27967520  0.81705783  0.25888603  1
  O  O67  1  0.53223911  0.70663465  0.25998980  1
  O  O68  1  0.17436577  0.45919896  0.25771431  1
  O  O69  1  0.28026738  0.43532880  0.74353738  1
  O  O70  1  0.15391004  0.71598289  0.74452354  1
  O  O71  1  0.56203908  0.84119348  0.74413623  1
loop_
_geom_bond_atom_site_label_1
_geom_bond_atom_site_label_2
_geom_bond_distance
_geom_bond_site_symmetry_2
La0 O37 2.139118 1_545
La0 O38 2.402345 1_655
La0 O1 2.414101 1_545
La0 O2 2.416689 1_555
La0 O36 2.426724 1_645
La0 O0 2.501415 1_655
La1 O40 2.365149 1_545
La1 O4 2.367490 1_445
La1 O5 2.379725 1_455
La1 O41 2.380253 1_445
La1 O3 2.380894 1_555
La1 O39 2.382395 1_555
La2 O12 2.146140 1_555
La2 O50 2.381757 1_555
La2 O48 2.392626 1_555
La2 O14 2.436540 1_555
La2 O13 2.462451 1_555
La2 O49 2.469456 1_555
La3 O17 2.152990 1_555
La3 O51 2.397116 1_555
La3 O53 2.432151 1_555
La3 O52 2.478641 1_555
La3 O16 2.518388 1_555
La3 O15 2.526338 1_555
La4 O18 2.153994 1_556
La4 O56 2.395846 1_555
La4 O54 2.407776 1_555
La4 O55 2.477353 1_555
La4 O20 2.513676 1_556
La4 O19 2.515444 1_556
La5 O70 2.368504 1_555
La5 O34 2.379056 1_555
La5 O69 2.387547 1_555
La5 O33 2.390067 1_555
La5 O35 2.390349 1_555
La5 O71 2.391133 1_555
Hf0 O42 1.917233 1_455
Hf0 O7 2.079897 1_555
Hf0 O6 2.099559 1_445
Hf0 O44 2.117377 1_445
Hf0 O43 2.127524 1_555
Hf0 O8 2.178248 1_545
Hf1 O47 1.894461 1_555
Hf1 O45 2.089946 1_545
Hf1 O46 2.097109 1_445
Hf1 O10 2.118588 1_555
Hf1 O11 2.155601 1_545
Hf1 O9 2.290690 1_445
Hf2 O57 1.913648 1_555
Hf2 O23 1.931134 1_555
Hf2 O59 2.160441 1_555
Hf2 O21 2.288774 1_555
Hf2 O58 2.306663 1_555
Hf2 O22 2.405347 1_555
Hf3 O60 1.910045 1_555
Hf3 O25 2.067459 1_554
Hf3 O62 2.077470 1_555
Hf3 O24 2.082535 1_554
Hf3 O61 2.088214 1_555
Hf3 O26 2.142549 1_554
Hf4 O27 1.949451 1_555
Hf4 O65 1.971538 1_555
Hf4 O64 2.083085 1_555
Hf4 O28 2.099232 1_555
Hf4 O63 2.106603 1_555
Hf4 O29 2.125803 1_555
Hf5 O31 1.919182 1_555
Hf5 O67 2.098924 1_555
Hf5 O66 2.137492 1_555
Hf5 O32 2.160355 1_555
Hf5 O30 2.194906 1_555
Hf5 O68 2.266680 1_555
O0 S0 1.459989 1_545
O1 S1 1.467251 1_555
O2 S2 1.472747 1_655
O3 S3 1.481861 1_555
O4 S4 1.481672 1_655
O5 S5 1.478602 1_545
O6 S5 1.499317 1_555
O7 S3 1.504319 1_555
O8 S4 1.490806 1_555
O9 S1 1.488812 1_555
O10 S2 1.516496 1_555
O11 S0 1.508868 1_555
O12 Si0 1.610713 1_555
O13 S6 1.464182 1_555
O14 S7 1.466879 1_555
O15 S8 1.470609 1_555
O16 S9 1.468501 1_555
O17 Si1 1.624225 1_555
O18 Si1 1.622042 1_555
O19 S8 1.469655 1_555
O20 S9 1.470850 1_555
O21 S6 1.489216 1_555
O22 S7 1.472899 1_555
O23 Si0 1.678447 1_555
O24 S10 1.492226 1_555
O25 S11 1.495502 1_555
O26 S12 1.484728 1_555
O27 Si2 1.611960 1_555
O28 S13 1.477341 1_555
O29 S14 1.469821 1_555
O30 S14 1.503169 1_555
O31 Si2 1.677092 1_555
O32 S13 1.507559 1_555
O33 S11 1.483917 1_555
O34 S12 1.482841 1_555
O35 S10 1.480399 1_555
O36 S14 1.465160 1_555
O37 Si2 1.608249 1_555
O38 S13 1.470502 1_555
O39 S11 1.481872 1_555
O40 S12 1.480886 1_555
O41 S10 1.479218 1_555
O42 Si0 1.663311 1_555
O43 S6 1.501524 1_555
O44 S7 1.505203 1_555
O45 S8 1.494990 1_455
O46 S9 1.495260 1_565
O47 Si1 1.653211 1_555
O48 S5 1.464378 1_545
O49 S3 1.457746 1_555
O50 S4 1.469497 1_655
O51 S1 1.472522 1_555
O52 S2 1.469270 1_655
O53 S0 1.472245 1_545
O54 S10 1.466677 1_555
O55 S11 1.460008 1_655
O56 S12 1.471503 1_545
O57 Si2 1.661825 1_545
O58 S13 1.477867 1_555
O59 S14 1.498212 1_655
O60 Si1 1.642619 1_555
O61 S8 1.495235 1_455
O62 S9 1.494239 1_565
O63 S6 1.485331 1_565
O64 S7 1.489698 1_555
O65 Si0 1.620751 1_455
O66 S0 1.514086 1_555
O67 S1 1.517581 1_555
O68 S2 1.495074 1_555
O69 S3 1.482103 1_555
O70 S4 1.482244 1_555
O71 S5 1.479415 1_555
