# generated using pymatgen
data_Na8La3NbSi4(PO12)2
_symmetry_space_group_name_H-M   'P 1'
_cell_length_a   9.66504166
_cell_length_b   9.67693515
_cell_length_c   23.07629547
_cell_angle_alpha   90.18252408
_cell_angle_beta   89.96284988
_cell_angle_gamma   119.95444050
_symmetry_Int_Tables_number   1
_chemical_formula_structural   Na8La3NbSi4(PO12)2
_chemical_formula_sum   'Na24 La9 Nb3 Si12 P6 O72'
_cell_volume   1869.97163561
_cell_formula_units_Z   3
loop_
 _symmetry_equiv_pos_site_id
 _symmetry_equiv_pos_as_xyz
  1  'x, y, z'
loop_
 _atom_site_type_symbol
 _atom_site_label
 _atom_site_symmetry_multiplicity
 _atom_site_fract_x
 _atom_site_fract_y
 _atom_site_fract_z
 _atom_site_occupancy
  Na  Na0  1  0.62946051  0.99704056  0.25713212  1
  Na  Na1  1  0.36888407  0.37123925  0.25263390  1
  Na  Na2  1  0.00248964  0.63018632  0.25232729  1
  Na  Na3  1  0.63761757  0.64626009  0.73984333  1
  Na  Na4  1  0.00494665  0.35806487  0.74322720  1
  Na  Na5  1  0.35645142  -0.00094127  0.75042438  1
  Na  Na6  1  0.29769503  0.34210180  0.57916777  1
  Na  Na7  1  0.03732339  0.69901448  0.57522532  1
  Na  Na8  1  0.66427407  0.95586509  0.57464948  1
  Na  Na9  1  0.29506477  0.95687626  0.07345422  1
  Na  Na10  1  0.65595483  0.69439569  0.07623262  1
  Na  Na11  1  0.04609628  0.34738988  0.07630431  1
  Na  Na12  1  0.97932259  0.67826283  0.91190537  1
  Na  Na13  1  0.70405508  0.03398231  0.91032155  1
  Na  Na14  1  0.31988995  0.29296746  0.90972450  1
  Na  Na15  1  0.97765982  0.31001091  0.42019554  1
  Na  Na16  1  0.34063044  0.02867468  0.42172089  1
  Na  Na17  1  0.68732767  0.66656350  0.41966730  1
  Na  Na18  1  0.99606076  0.99874488  0.49866435  1
  Na  Na19  1  0.00466432  0.99978720  0.99598783  1
  Na  Na20  1  0.65825950  0.32367101  0.82933276  1
  Na  Na21  1  0.66396911  0.33089479  0.33863557  1
  Na  Na22  1  0.32465968  0.65721543  0.16605713  1
  Na  Na23  1  0.33289390  0.65658165  0.66125147  1
  La  La0  1  0.00084356  0.99979883  0.34878418  1
  La  La1  1  0.99931432  0.00229794  0.84463810  1
  La  La2  1  0.99278476  0.00404358  0.65111877  1
  La  La3  1  0.00316182  0.99887121  0.14416741  1
  La  La4  1  0.66653626  0.33426658  0.68116797  1
  La  La5  1  0.66676499  0.33620736  0.17857990  1
  La  La6  1  0.33161647  0.66456643  0.00830030  1
  La  La7  1  0.33338742  0.66365394  0.51125749  1
  La  La8  1  0.33344523  0.66573741  0.32643514  1
  Nb  Nb0  1  0.66485309  0.33836194  0.97837922  1
  Nb  Nb1  1  0.67274284  0.33955660  0.48505812  1
  Nb  Nb2  1  0.33755838  0.66527852  0.82296378  1
  Si  Si0  1  0.31185328  0.32372806  0.75478788  1
  Si  Si1  1  0.67320700  0.98671143  0.75511151  1
  Si  Si2  1  0.96403945  0.32909496  0.58455638  1
  Si  Si3  1  0.67274465  0.63654132  0.58435689  1
  Si  Si4  1  0.96023207  0.63206143  0.07961093  1
  Si  Si5  1  0.36708322  0.32871553  0.08000560  1
  Si  Si6  1  0.63337056  0.65535626  0.92019777  1
  Si  Si7  1  0.02158753  0.36874311  0.91920271  1
  Si  Si8  1  0.34484711  0.97622247  0.92011062  1
  Si  Si9  1  0.64828053  0.99186504  0.41900464  1
  Si  Si10  1  0.34413938  0.35087690  0.41853344  1
  Si  Si11  1  0.00984554  0.65836757  0.41905777  1
  P  P0  1  0.30944207  0.99166590  0.24891025  1
  P  P1  1  0.68420342  0.69195929  0.24878114  1
  P  P2  1  0.00591996  0.31395702  0.24879980  1
  P  P3  1  0.01885091  0.69106166  0.75459979  1
  P  P4  1  0.36728722  0.04114786  0.58112733  1
  P  P5  1  0.67373756  0.04618330  0.07706891  1
  O  O0  1  0.22112087  -0.00291017  0.30367781  1
  O  O1  1  0.77575116  0.78177427  0.30374405  1
  O  O2  1  0.00526854  0.22292256  0.30358474  1
  O  O3  1  0.23450757  0.21113980  0.81097185  1
  O  O4  1  0.99166221  0.76609547  0.80877703  1
  O  O5  1  0.78368778  0.01798525  0.81166467  1
  O  O6  1  0.75328424  0.94921190  0.69817008  1
  O  O7  1  0.19616451  0.24261124  0.69750235  1
  O  O8  1  0.04265813  0.79694575  0.70063602  1
  O  O9  1  0.77635229  0.78714162  0.19403407  1
  O  O10  1  0.00882498  0.22181464  0.19376750  1
  O  O11  1  0.21330557  0.98797685  0.19414242  1
  O  O12  1  0.88931145  0.33364183  0.64682804  1
  O  O13  1  0.44479550  0.11019362  0.64005070  1
  O  O14  1  0.66184545  0.55349979  0.64621635  1
  O  O15  1  0.88618182  0.54463249  0.14090327  1
  O  O16  1  0.66435900  0.11680426  0.13561081  1
  O  O17  1  0.45130984  0.33530175  0.14144966  1
  O  O18  1  0.49170188  0.32649372  0.02618303  1
  O  O19  1  0.83462473  0.50608560  0.02558135  1
  O  O20  1  0.67310825  0.15696490  0.02635327  1
  O  O21  1  0.48109012  0.15014555  0.53116677  1
  O  O22  1  0.66508889  0.50668475  0.53203950  1
  O  O23  1  0.84020865  0.33287541  0.53227197  1
  O  O24  1  0.57485731  0.69068456  0.98057480  1
  O  O25  1  0.11474643  0.42946542  0.97997781  1
  O  O26  1  0.31315339  0.88340878  0.98063708  1
  O  O27  1  0.56728428  0.87060403  0.47318532  1
  O  O28  1  0.30360564  0.43181215  0.47293898  1
  O  O29  1  0.12778632  0.69588223  0.47403807  1
  O  O30  1  0.08354754  0.61934018  0.36110770  1
  O  O31  1  0.53667256  0.91630738  0.36062451  1
  O  O32  1  0.38207023  0.46361130  0.36061649  1
  O  O33  1  0.14189254  0.50414001  0.86831553  1
  O  O34  1  0.35879807  0.85595187  0.86867312  1
  O  O35  1  0.49630969  0.63934568  0.86927433  1
  O  O36  1  0.96669620  0.80022495  0.41440155  1
  O  O37  1  0.83298652  0.03208693  0.41421859  1
  O  O38  1  0.19899041  0.16689837  0.41397298  1
  O  O39  1  0.98904331  0.18869211  0.90931349  1
  O  O40  1  0.19773441  0.00923155  0.90996669  1
  O  O41  1  0.81450048  0.79416111  0.90786652  1
  O  O42  1  0.96554731  0.16103467  0.57573334  1
  O  O43  1  0.20610005  0.03906002  0.57550826  1
  O  O44  1  0.84436615  0.80210587  0.57635231  1
  O  O45  1  0.95338546  0.79769786  0.07241332  1
  O  O46  1  0.83422805  0.04545828  0.07195969  1
  O  O47  1  0.19748620  0.16043703  0.07203750  1
  O  O48  1  0.63588644  0.13352259  0.75050715  1
  O  O49  1  0.49732538  0.36472124  0.75096762  1
  O  O50  1  0.87828608  0.51798300  0.74961046  1
  O  O51  1  0.66580671  0.52258883  0.25132082  1
  O  O52  1  0.85442880  0.33154368  0.25156613  1
  O  O53  1  0.48023204  0.14046787  0.25078222  1
  O  O54  1  0.62605855  0.47714476  0.92153828  1
  O  O55  1  0.84802748  0.36941846  0.92020364  1
  O  O56  1  0.52036832  0.14900741  0.92150519  1
  O  O57  1  0.65438395  0.16598397  0.43039992  1
  O  O58  1  0.51086492  0.34232943  0.42966326  1
  O  O59  1  0.83372484  0.48959501  0.42988231  1
  O  O60  1  0.34855022  0.48718223  0.07809720  1
  O  O61  1  0.14085257  0.65972265  0.07717555  1
  O  O62  1  0.52917310  0.87627711  0.07431380  1
  O  O63  1  0.34355994  0.87099758  0.57727275  1
  O  O64  1  0.51770548  0.66216716  0.58046958  1
  O  O65  1  0.14166805  0.48815008  0.58098431  1
  O  O66  1  0.32120324  0.83648672  0.24775048  1
  O  O67  1  0.51573027  0.67718859  0.24737005  1
  O  O68  1  0.15960737  0.48221651  0.24740054  1
  O  O69  1  0.31236872  0.49732580  0.76591404  1
  O  O70  1  0.17903885  0.68636733  0.76161623  1
  O  O71  1  0.49781501  0.81618767  0.76589324  1
loop_
_geom_bond_atom_site_label_1
_geom_bond_atom_site_label_2
_geom_bond_distance
_geom_bond_site_symmetry_2
Na0 O53 2.455341 1_565
Na0 O31 2.535281 1_555
Na0 O66 2.591003 1_555
Na0 O67 2.727178 1_555
Na0 O52 2.862848 1_565
Na0 O16 2.991641 1_565
Na1 O51 2.486854 1_555
Na1 O67 2.569131 1_555
Na1 O32 2.626209 1_555
Na1 O68 2.725694 1_555
Na1 O17 2.758050 1_555
Na1 O53 2.923407 1_555
Na2 O52 2.503947 1_455
Na2 O68 2.557222 1_555
Na2 O30 2.648106 1_555
Na2 O66 2.710201 1_555
Na2 O15 2.760655 1_455
Na2 O51 2.879233 1_455
Na3 O49 2.375276 1_555
Na3 O14 2.392804 1_555
Na3 O71 2.665060 1_555
Na3 O6 2.740953 1_555
Na3 O69 2.792794 1_555
Na4 O50 2.409412 1_455
Na4 O12 2.447363 1_455
Na4 O69 2.630095 1_555
Na4 O70 2.785399 1_555
Na4 O7 2.798048 1_555
Na5 O48 2.340469 1_555
Na5 O70 2.643102 1_545
Na5 O13 2.733232 1_555
Na5 O71 2.746798 1_545
Na5 O8 2.900005 1_545
Na6 O65 2.530045 1_555
Na6 O28 2.594215 1_555
Na6 O43 2.607012 1_555
Na6 O64 2.745547 1_555
Na6 O42 2.786439 1_455
Na6 O7 2.901126 1_555
Na7 O29 2.498216 1_555
Na7 O44 2.516265 1_455
Na7 O63 2.571567 1_555
Na7 O65 2.693580 1_555
Na7 O43 2.851060 1_565
Na7 O8 3.034796 1_555
Na8 O64 2.466561 1_555
Na8 O27 2.501976 1_555
Na8 O42 2.578324 1_565
Na8 O63 2.782855 1_555
Na8 O44 2.798550 1_555
Na8 O6 2.988088 1_555
Na9 O26 2.288573 1_554
Na9 O61 2.493791 1_555
Na9 O47 2.574189 1_565
Na9 O62 2.736947 1_555
Na9 O45 2.863362 1_455
Na9 O11 2.949700 1_555
Na10 O24 2.337096 1_554
Na10 O45 2.530093 1_555
Na10 O62 2.599138 1_555
Na10 O60 2.626968 1_555
Na10 O9 2.914621 1_555
Na10 O46 2.945517 1_565
Na11 O25 2.344192 1_554
Na11 O60 2.535303 1_555
Na11 O46 2.600698 1_455
Na11 O61 2.685075 1_555
Na11 O47 2.840019 1_555
Na11 O10 2.921720 1_555
Na12 O41 2.364160 1_555
Na12 O4 2.512265 1_555
Na12 O55 2.606743 1_555
Na12 O40 2.822241 1_665
Na12 O54 2.976681 1_555
Na12 O33 2.991786 1_655
Na12 O19 3.051121 1_556
Na13 O39 2.389743 1_555
Na13 O5 2.431843 1_555
Na13 O56 2.535424 1_555
Na13 O55 2.830171 1_555
Na14 O40 2.386558 1_555
Na14 O3 2.416514 1_555
Na14 O54 2.595865 1_555
Na14 O39 2.832143 1_455
Na14 O56 2.909932 1_555
Na15 O37 2.334486 1_555
Na15 O57 2.722634 1_555
Na15 O59 2.723345 1_555
Na15 O2 2.869112 1_655
Na15 O30 2.971828 1_655
Na16 O38 2.350648 1_555
Na16 O58 2.638756 1_555
Na16 O57 2.641340 1_555
Na16 O21 2.827599 1_555
Na16 O0 2.914443 1_555
Na17 O36 2.343352 1_555
Na17 O59 2.722695 1_555
Na17 O58 2.732533 1_555
Na17 O1 2.862506 1_555
Na17 O32 2.936028 1_555
Na18 O42 2.482001 1_565
Na18 O44 2.493333 1_555
Na18 O43 2.574321 1_665
Na18 O37 2.627069 1_565
Na18 O36 2.642814 1_555
Na18 O38 2.672516 1_665
Na19 O47 2.462393 1_566
Na19 O45 2.496662 1_456
Na19 O46 2.588572 1_466
Na19 O40 2.693861 1_565
Na19 O39 2.768437 1_465
Na19 O41 2.792766 1_455
Na20 O48 2.514592 1_555
Na20 O49 2.544142 1_555
Na20 O56 2.631887 1_555
Na20 O55 2.673098 1_555
Na20 O54 2.696387 1_555
Na20 O50 2.732445 1_555
Na21 O58 2.602379 1_555
Na21 O57 2.629268 1_555
Na21 O59 2.636615 1_555
Na21 O53 2.715202 1_555
Na21 O52 2.722017 1_555
Na21 O51 2.737165 1_555
Na22 O68 2.500944 1_555
Na22 O66 2.569337 1_555
Na22 O67 2.571829 1_555
Na22 O60 2.690394 1_555
Na22 O61 2.722402 1_555
Na22 O62 2.953252 1_555
Na23 O65 2.545644 1_555
Na23 O64 2.562894 1_555
Na23 O63 2.807682 1_555
Na23 O69 2.822317 1_555
Na23 O70 2.842123 1_555
Na23 O71 2.877488 1_555
La0 O38 2.332608 1_565
La0 O37 2.347275 1_465
La0 O36 2.347977 1_455
La0 O0 2.381054 1_565
La0 O1 2.381138 1_455
La0 O2 2.381968 1_565
La1 O5 2.294333 1_555
La1 O3 2.296766 1_655
La1 O39 2.377436 1_555
La1 O4 2.394578 1_545
La1 O41 2.408079 1_545
La1 O40 2.414439 1_655
La2 O6 2.364852 1_545
La2 O7 2.407171 1_655
La2 O42 2.412535 1_555
La2 O44 2.456740 1_545
La2 O8 2.556239 1_645
La2 O43 2.590608 1_655
La3 O11 2.384086 1_555
La3 O45 2.410023 1_455
La3 O47 2.412997 1_565
La3 O10 2.415350 1_565
La3 O9 2.419520 1_455
La3 O46 2.527648 1_465
La4 O14 2.293550 1_555
La4 O12 2.296677 1_555
La4 O13 2.354547 1_555
La4 O49 2.414698 1_555
La4 O48 2.422027 1_555
La4 O50 2.489270 1_555
La5 O17 2.248242 1_555
La5 O15 2.249129 1_555
La5 O16 2.329984 1_555
La5 O51 2.463352 1_555
La5 O52 2.492935 1_555
La5 O53 2.494039 1_555
La6 O25 2.286204 1_554
La6 O26 2.304397 1_554
La6 O24 2.325043 1_554
La6 O61 2.416215 1_555
La6 O60 2.421981 1_555
La6 O62 2.498213 1_555
La7 O28 2.289306 1_555
La7 O27 2.319595 1_555
La7 O29 2.325185 1_555
La7 O64 2.398768 1_555
La7 O65 2.403700 1_555
La7 O63 2.477891 1_555
La8 O30 2.364776 1_555
La8 O31 2.365089 1_555
La8 O32 2.365818 1_555
La8 O67 2.499452 1_555
La8 O66 2.501154 1_555
La8 O68 2.511329 1_555
Nb0 O18 1.958883 1_556
Nb0 O19 1.960788 1_556
Nb0 O54 2.044368 1_555
Nb0 O56 2.112327 1_555
Nb0 O20 2.113203 1_556
Nb0 O55 2.120142 1_555
Nb1 O59 1.975686 1_555
Nb1 O22 1.976028 1_555
Nb1 O23 1.979450 1_555
Nb1 O58 2.031592 1_555
Nb1 O57 2.032924 1_555
Nb1 O21 2.131250 1_555
Nb2 O35 1.986853 1_555
Nb2 O71 2.004218 1_555
Nb2 O69 2.006383 1_555
Nb2 O33 2.041107 1_555
Nb2 O34 2.041787 1_555
Nb2 O70 2.170251 1_555
O0 P0 1.540009 1_545
O1 P1 1.540599 1_555
O2 P2 1.541401 1_555
O3 Si0 1.619019 1_555
O4 P3 1.530891 1_655
O5 Si1 1.616011 1_545
O6 Si1 1.653293 1_555
O7 Si0 1.653098 1_555
O8 P3 1.557520 1_555
O9 P1 1.557054 1_555
O10 P2 1.557668 1_555
O11 P0 1.558852 1_555
O12 Si2 1.618188 1_555
O13 P4 1.533681 1_555
O14 Si3 1.617760 1_555
O15 Si4 1.621782 1_555
O16 P5 1.534952 1_555
O17 Si5 1.620586 1_555
O18 Si5 1.737103 1_555
O19 Si4 1.740344 1_555
O20 P5 1.591685 1_555
O21 P4 1.580846 1_555
O22 Si3 1.714556 1_555
O23 Si2 1.713281 1_555
O24 Si6 1.602168 1_555
O25 Si7 1.609635 1_555
O26 Si8 1.607498 1_555
O27 Si9 1.625958 1_555
O28 Si10 1.625612 1_555
O29 Si11 1.620669 1_555
O30 Si11 1.643943 1_555
O31 Si9 1.649581 1_555
O32 Si10 1.649253 1_555
O33 Si7 1.712980 1_555
O34 Si8 1.711541 1_555
O35 Si6 1.719201 1_555
O36 Si11 1.625606 1_655
O37 Si9 1.629950 1_545
O38 Si10 1.628988 1_555
O39 Si7 1.623898 1_655
O40 Si8 1.622636 1_545
O41 Si6 1.613521 1_555
O42 Si2 1.645631 1_555
O43 P4 1.553392 1_555
O44 Si3 1.643172 1_555
O45 Si4 1.645823 1_555
O46 P5 1.559049 1_555
O47 Si5 1.644789 1_555
O48 Si1 1.634774 1_545
O49 Si0 1.633532 1_555
O50 P3 1.546233 1_655
O51 P1 1.559137 1_555
O52 P2 1.557393 1_655
O53 P0 1.557613 1_545
O54 Si6 1.690746 1_555
O55 Si7 1.680881 1_655
O56 Si8 1.685743 1_545
O57 Si9 1.676181 1_545
O58 Si10 1.674282 1_555
O59 Si11 1.689110 1_655
O60 Si5 1.631043 1_555
O61 Si4 1.629608 1_455
O62 P5 1.537827 1_565
O63 P4 1.547125 1_565
O64 Si3 1.638998 1_555
O65 Si2 1.638606 1_455
O66 P0 1.561672 1_555
O67 P1 1.562200 1_555
O68 P2 1.563210 1_555
O69 Si0 1.696139 1_555
O70 P3 1.579835 1_555
O71 Si1 1.693261 1_555
