# generated using pymatgen
data_Li3V2(PO4)3
_symmetry_space_group_name_H-M   'P 1'
_cell_length_a   8.44165413
_cell_length_b   8.44165413
_cell_length_c   8.60236836
_cell_angle_alpha   61.92053176
_cell_angle_beta   61.92053176
_cell_angle_gamma   63.29817339
_symmetry_Int_Tables_number   1
_chemical_formula_structural   Li3V2(PO4)3
_chemical_formula_sum   'Li6 V4 P6 O24'
_cell_volume   456.31256545
_cell_formula_units_Z   2
loop_
 _symmetry_equiv_pos_site_id
 _symmetry_equiv_pos_as_xyz
  1  'x, y, z'
loop_
 _atom_site_type_symbol
 _atom_site_label
 _atom_site_symmetry_multiplicity
 _atom_site_fract_x
 _atom_site_fract_y
 _atom_site_fract_z
 _atom_site_occupancy
  Li  Li0  1  0.76354900  0.84027700  0.64088500  1
  Li  Li1  1  0.84027700  0.76354900  0.14088500  1
  Li  Li2  1  0.00000000  0.50000000  0.50000000  1
  Li  Li3  1  0.15972300  0.23645100  0.85911500  1
  Li  Li4  1  0.50000000  0.00000000  0.00000000  1
  Li  Li5  1  0.23645100  0.15972300  0.35911500  1
  V  V0  1  0.36472100  0.85708600  0.85215200  1
  V  V1  1  0.85708600  0.36472100  0.35215200  1
  V  V2  1  0.14291400  0.63527900  0.64784800  1
  V  V3  1  0.63527900  0.14291400  0.14784800  1
  P  P0  1  0.74519700  0.55412100  0.96596400  1
  P  P1  1  0.04421100  0.95578900  0.25000000  1
  P  P2  1  0.55412100  0.74519700  0.46596400  1
  P  P3  1  0.44587900  0.25480300  0.53403600  1
  P  P4  1  0.95578900  0.04421100  0.75000000  1
  P  P5  1  0.25480300  0.44587900  0.03403600  1
  O  O0  1  0.87591800  0.98395900  0.20238800  1
  O  O1  1  0.98395900  0.87591800  0.70238800  1
  O  O2  1  0.90224700  0.56020800  0.77025900  1
  O  O3  1  0.59427400  0.74884200  0.92943000  1
  O  O4  1  0.81286700  0.54474900  0.10965000  1
  O  O5  1  0.68145700  0.38475100  0.03064700  1
  O  O6  1  0.22901500  0.94572400  0.08069100  1
  O  O7  1  0.56020800  0.90224700  0.27025900  1
  O  O8  1  0.74884200  0.59427400  0.42943000  1
  O  O9  1  0.54474900  0.81286700  0.60965000  1
  O  O10  1  0.38475100  0.68145700  0.53064700  1
  O  O11  1  0.94572400  0.22901500  0.58069100  1
  O  O12  1  0.05427600  0.77098500  0.41930900  1
  O  O13  1  0.61524900  0.31854300  0.46935300  1
  O  O14  1  0.45525100  0.18713300  0.39035000  1
  O  O15  1  0.25115800  0.40572600  0.57057000  1
  O  O16  1  0.43979200  0.09775300  0.72974100  1
  O  O17  1  0.77098500  0.05427600  0.91930900  1
  O  O18  1  0.31854300  0.61524900  0.96935300  1
  O  O19  1  0.18713300  0.45525100  0.89035000  1
  O  O20  1  0.40572600  0.25115800  0.07057000  1
  O  O21  1  0.09775300  0.43979200  0.22974100  1
  O  O22  1  0.01604100  0.12408200  0.29761200  1
  O  O23  1  0.12408200  0.01604100  0.79761200  1
loop_
_geom_bond_atom_site_label_1
_geom_bond_atom_site_label_2
_geom_bond_distance
_geom_bond_site_symmetry_2
Li0 O9 2.108811 1_555
Li0 O2 2.112124 1_555
Li0 O3 2.155794 1_555
Li0 O12 2.313906 1_655
Li0 O1 2.326375 1_555
Li1 O4 2.108811 1_555
Li1 O7 2.112124 1_555
Li1 O8 2.155794 1_555
Li1 O17 2.313906 1_564
Li1 O0 2.326375 1_555
Li2 O8 2.176594 1_455
Li2 O15 2.176594 1_555
Li2 O12 2.252202 1_555
Li2 O11 2.252202 1_455
Li2 O21 2.296453 1_555
Li2 O2 2.296453 1_455
Li3 O19 2.108811 1_555
Li3 O16 2.112124 1_555
Li3 O15 2.155794 1_555
Li3 O6 2.313906 1_546
Li3 O23 2.326375 1_555
Li4 O20 2.176594 1_555
Li4 O3 2.176594 1_544
Li4 O6 2.252202 1_545
Li4 O17 2.252202 1_554
Li4 O16 2.296453 1_554
Li4 O7 2.296453 1_545
Li5 O14 2.108811 1_555
Li5 O21 2.112124 1_555
Li5 O20 2.155794 1_555
Li5 O11 2.313906 1_455
Li5 O22 2.326375 1_555
O0 P1 1.547604 1_655
O0 V3 2.000526 1_565
O1 P4 1.547604 1_565
O1 V2 2.000526 1_655
O2 P0 1.572637 1_555
O2 V2 2.037855 1_655
O3 P0 1.559635 1_555
O3 V0 2.020279 1_555
O4 P0 1.546740 1_554
O4 V1 2.009839 1_555
O5 P0 1.517877 1_554
O5 V3 1.934881 1_555
O6 P1 1.555841 1_555
O6 V0 2.057084 1_554
O7 P2 1.572637 1_555
O7 V3 2.037855 1_565
O8 P2 1.559635 1_555
O8 V1 2.020279 1_555
O9 P2 1.546740 1_555
O9 V0 2.009839 1_555
O10 P2 1.517877 1_555
O10 V2 1.934881 1_555
O11 P4 1.555841 1_555
O11 V1 2.057084 1_555
O12 P1 1.555841 1_555
O12 V2 2.057084 1_555
O13 P3 1.517877 1_555
O13 V1 1.934881 1_555
O14 P3 1.546740 1_555
O14 V3 2.009839 1_555
O15 P3 1.559635 1_555
O15 V2 2.020279 1_555
O16 P3 1.572637 1_555
O16 V0 2.037855 1_545
O17 P4 1.555841 1_555
O17 V3 2.057084 1_556
O18 P5 1.517877 1_556
O18 V0 1.934881 1_555
O19 P5 1.546740 1_556
O19 V2 2.009839 1_555
O20 P5 1.559635 1_555
O20 V3 2.020279 1_555
O21 P5 1.572637 1_555
O21 V1 2.037855 1_455
O22 P1 1.547604 1_545
O22 V1 2.000526 1_455
O23 P4 1.547604 1_455
O23 V0 2.000526 1_545
