# generated using pymatgen
data_La3NbSiS5O24
_symmetry_space_group_name_H-M   'P 1'
_cell_length_a   9.48497277
_cell_length_b   9.49142488
_cell_length_c   24.18552587
_cell_angle_alpha   90.06806020
_cell_angle_beta   90.18161872
_cell_angle_gamma   119.93958761
_symmetry_Int_Tables_number   1
_chemical_formula_structural   La3NbSiS5O24
_chemical_formula_sum   'La9 Nb3 Si3 S15 O72'
_cell_volume   1886.74551596
_cell_formula_units_Z   3
loop_
 _symmetry_equiv_pos_site_id
 _symmetry_equiv_pos_as_xyz
  1  'x, y, z'
loop_
 _atom_site_type_symbol
 _atom_site_label
 _atom_site_symmetry_multiplicity
 _atom_site_fract_x
 _atom_site_fract_y
 _atom_site_fract_z
 _atom_site_occupancy
  La  La0  1  0.01110031  0.00355327  0.35404279  1
  La  La1  1  0.99211533  0.99700321  0.86290557  1
  La  La2  1  0.99883389  0.99850986  0.65271558  1
  La  La3  1  0.01098424  0.99489243  0.14177090  1
  La  La4  1  0.66815621  0.33439255  0.69510413  1
  La  La5  1  0.65848511  0.32463799  0.19523205  1
  La  La6  1  0.66504055  0.33099191  0.47262549  1
  La  La7  1  0.33656669  0.66157655  0.02399501  1
  La  La8  1  0.33387921  0.66641617  0.52748868  1
  Nb  Nb0  1  0.67315738  0.33702459  0.97314775  1
  Nb  Nb1  1  0.33250823  0.67338750  0.31049751  1
  Nb  Nb2  1  0.33211077  0.65661164  0.82389286  1
  Si  Si0  1  0.28551185  0.98519562  0.25075314  1
  Si  Si1  1  0.61291855  0.64457756  0.91901189  1
  Si  Si2  1  0.03598711  0.38889654  0.91788918  1
  S  S0  1  0.68572999  0.71069582  0.25359921  1
  S  S1  1  0.02427557  0.31509959  0.25359229  1
  S  S2  1  0.29196075  0.31780911  0.75484324  1
  S  S3  1  0.02897841  0.71091178  0.75420642  1
  S  S4  1  0.68123598  0.97312803  0.75403086  1
  S  S5  1  0.95046362  0.32471387  0.58371343  1
  S  S6  1  0.37442259  0.05053372  0.58365674  1
  S  S7  1  0.67538670  0.62385804  0.58366374  1
  S  S8  1  0.92974503  0.60858107  0.07827377  1
  S  S9  1  0.68046072  0.06803438  0.07821843  1
  S  S10  1  0.38841501  0.32071283  0.07862215  1
  S  S11  1  0.36096400  0.96667483  0.91611974  1
  S  S12  1  0.60527203  0.94269437  0.41200296  1
  S  S13  1  0.34001349  0.39646096  0.41287338  1
  S  S14  1  0.05423180  0.65667556  0.41212902  1
  O  O0  1  0.20226239  0.00951502  0.30533585  1
  O  O1  1  0.78743959  0.78532250  0.30287514  1
  O  O2  1  0.99044008  0.21054365  0.30239386  1
  O  O3  1  0.21985344  0.20886909  0.80177257  1
  O  O4  1  0.99286727  0.78562904  0.80073500  1
  O  O5  1  0.79428119  0.01123656  0.80021778  1
  O  O6  1  0.75039918  0.94145049  0.70284287  1
  O  O7  1  0.19111988  0.24937467  0.70380496  1
  O  O8  1  0.05615236  0.81034473  0.70285882  1
  O  O9  1  0.74877316  0.81247797  0.20417982  1
  O  O10  1  0.05968240  0.24869863  0.20418656  1
  O  O11  1  0.16761310  0.94621614  0.19708658  1
  O  O12  1  0.87061433  0.34634735  0.63292585  1
  O  O13  1  0.47608654  0.13100400  0.63302208  1
  O  O14  1  0.65524590  0.52335016  0.63294817  1
  O  O15  1  0.85493455  0.51544218  0.12892472  1
  O  O16  1  0.66513647  0.14570240  0.12930898  1
  O  O17  1  0.48024748  0.33925043  0.13040298  1
  O  O18  1  0.47785898  0.30655248  0.02990303  1
  O  O19  1  0.82440008  0.51508360  0.02818985  1
  O  O20  1  0.69162743  0.17183892  0.02860116  1
  O  O21  1  0.45330135  0.14687014  0.53295961  1
  O  O22  1  0.69172922  0.54387700  0.53292054  1
  O  O23  1  0.85342460  0.30673789  0.53285792  1
  O  O24  1  0.53858948  0.68377443  0.97139327  1
  O  O25  1  0.14283661  0.47149407  0.97110293  1
  O  O26  1  0.32428687  0.86986342  0.96631639  1
  O  O27  1  0.53340659  0.85034445  0.46323284  1
  O  O28  1  0.32452222  0.47143893  0.46468591  1
  O  O29  1  0.14845712  0.67855498  0.46334341  1
  O  O30  1  0.14807214  0.64397269  0.36370242  1
  O  O31  1  0.49660563  0.84829739  0.36339426  1
  O  O32  1  0.35324343  0.50035997  0.36465151  1
  O  O33  1  0.14313173  0.52406563  0.86428970  1
  O  O34  1  0.38789465  0.87848503  0.86782804  1
  O  O35  1  0.47882088  0.62192695  0.86507138  1
  O  O36  1  0.03008701  0.79632427  0.40523677  1
  O  O37  1  0.76689043  0.96260337  0.40388870  1
  O  O38  1  0.19549766  0.23428151  0.40762600  1
  O  O39  1  0.00047063  0.21369519  0.89983334  1
  O  O40  1  0.23011034  0.99939871  0.90220667  1
  O  O41  1  0.79001831  0.77713920  0.89962533  1
  O  O42  1  0.96760961  0.17844654  0.59031604  1
  O  O43  1  0.21118632  0.03389402  0.59004545  1
  O  O44  1  0.82195448  0.78721402  0.58981379  1
  O  O45  1  0.93381879  0.76673463  0.07976737  1
  O  O46  1  0.83037471  0.05707079  0.08129421  1
  O  O47  1  0.22642714  0.17003748  0.08141686  1
  O  O48  1  0.65502178  0.11322579  0.74367860  1
  O  O49  1  0.45989926  0.35107679  0.74490943  1
  O  O50  1  0.88975903  0.54378792  0.74411123  1
  O  O51  1  0.65668628  0.54483125  0.24602731  1
  O  O52  1  0.89369684  0.35347992  0.24594759  1
  O  O53  1  0.47191501  0.12464120  0.24328367  1
  O  O54  1  0.61636271  0.46904160  0.93119514  1
  O  O55  1  0.85047987  0.37265642  0.92932930  1
  O  O56  1  0.51658439  0.12804362  0.92409901  1
  O  O57  1  0.61128691  0.10149304  0.41359463  1
  O  O58  1  0.48989105  0.38353995  0.41531285  1
  O  O59  1  0.89595965  0.50311152  0.41381116  1
  O  O60  1  0.36695227  0.46313290  0.07407580  1
  O  O61  1  0.09341466  0.63188406  0.07186373  1
  O  O62  1  0.53443839  0.90743274  0.07255149  1
  O  O63  1  0.35699839  0.88676591  0.57810874  1
  O  O64  1  0.52912642  0.64173457  0.57857352  1
  O  O65  1  0.11422432  0.47079074  0.57821292  1
  O  O66  1  0.30241869  0.81513292  0.26782651  1
  O  O67  1  0.51732466  0.69210940  0.26613650  1
  O  O68  1  0.17839647  0.47877386  0.26689275  1
  O  O69  1  0.30180381  0.48107102  0.76631453  1
  O  O70  1  0.17918754  0.70040980  0.76564193  1
  O  O71  1  0.51945673  0.82642901  0.76654644  1
loop_
_geom_bond_atom_site_label_1
_geom_bond_atom_site_label_2
_geom_bond_distance
_geom_bond_site_symmetry_2
La0 O0 2.142372 1_555
La0 O38 2.385368 1_555
La0 O36 2.406675 1_545
La0 O2 2.418087 1_455
La0 O1 2.431745 1_445
La0 O37 2.467781 1_445
La1 O41 2.200063 1_555
La1 O39 2.206017 1_665
La1 O40 2.436157 1_655
La1 O5 2.464443 1_565
La1 O4 2.508613 1_555
La1 O3 2.566575 1_665
La2 O44 2.401912 1_555
La2 O42 2.406290 1_565
La2 O43 2.410882 1_665
La2 O8 2.434358 1_655
La2 O6 2.462021 1_555
La2 O7 2.483261 1_665
La3 O11 2.210048 1_555
La3 O47 2.388271 1_565
La3 O45 2.424308 1_455
La3 O46 2.533300 1_465
La3 O10 2.677979 1_565
La3 O9 2.682023 1_455
La4 O48 2.355421 1_555
La4 O50 2.362545 1_555
La4 O49 2.388468 1_555
La4 O14 2.390783 1_555
La4 O12 2.400654 1_555
La4 O13 2.401106 1_555
La5 O53 2.179619 1_555
La5 O16 2.351936 1_555
La5 O17 2.356573 1_555
La5 O51 2.430440 1_555
La5 O52 2.434941 1_555
La5 O15 2.445609 1_555
La6 O21 2.395429 1_555
La6 O58 2.396689 1_555
La6 O22 2.398641 1_555
La6 O23 2.400566 1_555
La6 O57 2.433629 1_555
La6 O59 2.437855 1_555
La7 O25 2.222245 1_554
La7 O24 2.224352 1_554
La7 O60 2.375462 1_555
La7 O62 2.440250 1_555
La7 O26 2.470467 1_554
La7 O61 2.471368 1_555
La8 O64 2.330276 1_555
La8 O65 2.335272 1_555
La8 O63 2.335692 1_555
La8 O28 2.359720 1_555
La8 O29 2.387168 1_555
La8 O27 2.402418 1_555
Nb0 O55 1.873675 1_555
Nb0 O54 1.887619 1_555
Nb0 O19 2.061266 1_556
Nb0 O20 2.136643 1_556
Nb0 O56 2.142432 1_555
Nb0 O18 2.209413 1_556
Nb1 O66 1.827901 1_555
Nb1 O68 1.987799 1_555
Nb1 O67 1.989236 1_555
Nb1 O31 2.053886 1_555
Nb1 O30 2.078866 1_555
Nb1 O32 2.185649 1_555
Nb2 O35 1.867054 1_555
Nb2 O33 1.874382 1_555
Nb2 O69 2.076471 1_555
Nb2 O34 2.173192 1_555
Nb2 O71 2.200278 1_555
Nb2 O70 2.202678 1_555
O0 Si0 1.614710 1_545
O1 S0 1.470141 1_555
O2 S1 1.472478 1_655
O3 S2 1.458417 1_555
O4 S3 1.459311 1_655
O5 S4 1.460358 1_545
O6 S4 1.501519 1_555
O7 S2 1.493631 1_555
O8 S3 1.503783 1_555
O9 S0 1.466313 1_555
O10 S1 1.466221 1_555
O11 Si0 1.627504 1_555
O12 S5 1.480802 1_555
O13 S6 1.481228 1_555
O14 S7 1.479719 1_555
O15 S8 1.472282 1_555
O16 S9 1.482338 1_555
O17 S10 1.482432 1_555
O18 S10 1.498654 1_555
O19 S8 1.535531 1_555
O20 S9 1.523627 1_555
O21 S6 1.491597 1_555
O22 S7 1.490942 1_555
O23 S5 1.491530 1_555
O24 Si1 1.583275 1_555
O25 Si2 1.579352 1_555
O26 S11 1.457904 1_555
O27 S12 1.476368 1_555
O28 S13 1.483829 1_555
O29 S14 1.477575 1_555
O30 S14 1.513909 1_555
O31 S12 1.521585 1_555
O32 S13 1.492838 1_555
O33 Si2 1.752168 1_555
O34 S11 1.530692 1_555
O35 Si1 1.755500 1_555
O36 S14 1.463000 1_555
O37 S12 1.461847 1_555
O38 S13 1.468604 1_555
O39 Si2 1.583549 1_555
O40 S11 1.460317 1_555
O41 Si1 1.587873 1_555
O42 S5 1.484928 1_555
O43 S6 1.484425 1_555
O44 S7 1.485046 1_555
O45 S8 1.482590 1_555
O46 S9 1.478273 1_555
O47 S10 1.489326 1_555
O48 S4 1.491007 1_545
O49 S2 1.481650 1_555
O50 S3 1.491885 1_655
O51 S0 1.467624 1_555
O52 S1 1.466261 1_655
O53 Si0 1.605344 1_545
O54 Si1 1.708557 1_555
O55 Si2 1.711353 1_655
O56 S11 1.517467 1_545
O57 S12 1.480028 1_545
O58 S13 1.487593 1_555
O59 S14 1.481944 1_655
O60 S10 1.468232 1_555
O61 S8 1.463483 1_455
O62 S9 1.466829 1_565
O63 S6 1.484718 1_565
O64 S7 1.484048 1_555
O65 S5 1.484846 1_455
O66 Si0 1.749629 1_555
O67 S0 1.548038 1_555
O68 S1 1.543639 1_555
O69 S2 1.530137 1_555
O70 S3 1.501868 1_555
O71 S4 1.502077 1_555
