# generated using pymatgen
data_MgV2Ni(TeO5)2
_symmetry_space_group_name_H-M   'P 1'
_cell_length_a   5.15191581
_cell_length_b   6.73942103
_cell_length_c   6.58585419
_cell_angle_alpha   89.96650160
_cell_angle_beta   65.74427537
_cell_angle_gamma   78.55173726
_symmetry_Int_Tables_number   1
_chemical_formula_structural   MgV2Ni(TeO5)2
_chemical_formula_sum   'Mg1 V2 Ni1 Te2 O10'
_cell_volume   203.49237489
_cell_formula_units_Z   1
loop_
 _symmetry_equiv_pos_site_id
 _symmetry_equiv_pos_as_xyz
  1  'x, y, z'
loop_
 _atom_site_type_symbol
 _atom_site_label
 _atom_site_symmetry_multiplicity
 _atom_site_fract_x
 _atom_site_fract_y
 _atom_site_fract_z
 _atom_site_occupancy
  Mg  Mg0  1  0.94207986  0.23698605  0.24723300  1
  V  V0  1  0.67298945  0.61341418  0.61139088  1
  V  V1  1  0.31304451  0.39687384  0.41336477  1
  Ni  Ni0  1  0.99069335  0.56204484  0.98785329  1
  Te  Te0  1  0.33198223  0.84749174  0.23607374  1
  Te  Te1  1  0.67617816  0.11726585  0.78056908  1
  O  O0  1  0.01598511  0.51189598  0.29922004  1
  O  O1  1  0.63275161  0.35995935  0.15091709  1
  O  O2  1  0.27410612  0.13075876  0.95187889  1
  O  O3  1  0.60439819  0.30773754  0.56381276  1
  O  O4  1  0.75200186  0.88752100  0.57766112  1
  O  O5  1  0.21518493  0.11713166  0.39960807  1
  O  O6  1  0.40882679  0.67756137  0.44897089  1
  O  O7  1  0.73068259  0.84864381  0.05789363  1
  O  O8  1  0.37760521  0.63958204  0.86811850  1
  O  O9  1  0.99204604  0.48471498  0.69543426  1
loop_
_geom_bond_atom_site_label_1
_geom_bond_atom_site_label_2
_geom_bond_distance
_geom_bond_site_symmetry_2
Mg0 O1 1.983567 1_555
Mg0 O2 2.000980 1_654
Mg0 O0 2.020570 1_655
Mg0 O3 2.071868 1_555
Mg0 O5 2.084993 1_655
Ni0 O9 1.992279 1_555
Ni0 O8 1.997453 1_655
Ni0 O7 2.050410 1_556
Ni0 O0 2.130135 1_656
Ni0 O1 2.403534 1_556
O0 V1 1.995459 1_555
O0 V0 2.086684 1_455
O1 V1 1.805853 1_555
O2 Te1 1.891350 1_555
O3 Te1 2.016319 1_555
O3 V1 2.111640 1_555
O3 V0 2.201754 1_555
O4 Te1 1.915503 1_565
O4 V0 1.962493 1_555
O5 Te0 1.964704 1_545
O5 V1 2.057132 1_555
O6 Te0 1.925725 1_555
O6 V0 2.035990 1_555
O6 V1 2.084002 1_555
O7 Te0 1.903206 1_555
O7 Te1 2.628262 1_564
O8 V0 1.727844 1_555
O9 V1 1.903898 1_655
O9 V0 1.985343 1_555
