# generated using pymatgen
data_Ba2NdMgCu3O7
_symmetry_space_group_name_H-M   'P 1'
_cell_length_a   3.77816112
_cell_length_b   3.98808282
_cell_length_c   14.55021586
_cell_angle_alpha   90.00000000
_cell_angle_beta   90.00000000
_cell_angle_gamma   90.00000000
_symmetry_Int_Tables_number   1
_chemical_formula_structural   Ba2NdMgCu3O7
_chemical_formula_sum   'Ba2 Nd1 Mg1 Cu3 O7'
_cell_volume   219.23711555
_cell_formula_units_Z   1
loop_
 _symmetry_equiv_pos_site_id
 _symmetry_equiv_pos_as_xyz
  1  'x, y, z'
loop_
 _atom_site_type_symbol
 _atom_site_label
 _atom_site_symmetry_multiplicity
 _atom_site_fract_x
 _atom_site_fract_y
 _atom_site_fract_z
 _atom_site_occupancy
  Ba  Ba0  1  0.50000000  0.50000000  0.78020906  1
  Ba  Ba1  1  0.50000000  0.50000000  0.08583782  1
  Nd  Nd0  1  0.50000000  0.50000000  0.52064218  1
  Mg  Mg0  1  0.50000000  0.00000000  0.27411298  1
  Cu  Cu0  1  0.00000000  0.00000000  0.64215984  1
  Cu  Cu1  1  0.00000000  0.00000000  0.41279298  1
  Cu  Cu2  1  0.00000000  0.00000000  0.93596873  1
  O  O0  1  0.00000000  0.00000000  0.80362418  1
  O  O1  1  0.00000000  0.00000000  0.20738401  1
  O  O2  1  0.00000000  0.50000000  0.63202437  1
  O  O3  1  0.00000000  0.50000000  0.41906060  1
  O  O4  1  0.50000000  0.00000000  0.61671573  1
  O  O5  1  0.50000000  0.00000000  0.40741758  1
  O  O6  1  0.00000000  0.50000000  0.97316094  1
loop_
_geom_bond_atom_site_label_1
_geom_bond_atom_site_label_2
_geom_bond_distance
_geom_bond_site_symmetry_2
Ba0 O0 2.767833 1_565
Ba0 O0 2.767833 1_665
Ba0 O0 2.767833 1_655
Ba0 O0 2.767833 1_555
Ba0 O2 2.866614 1_655
Ba0 O2 2.866614 1_555
Ba0 O4 3.104060 1_555
Ba0 O4 3.104060 1_565
Ba0 O6 3.383879 1_655
Ba0 O6 3.383879 1_555
Ba1 O6 2.501299 1_654
Ba1 O6 2.501299 1_554
Nd0 O3 2.398585 1_555
Nd0 O3 2.398585 1_655
Nd0 O4 2.435221 1_555
Nd0 O4 2.435221 1_565
Nd0 O2 2.488992 1_555
Nd0 O2 2.488992 1_655
Nd0 O5 2.586555 1_555
Nd0 O5 2.586555 1_565
Mg0 O5 1.939611 1_555
Mg0 O1 2.123985 1_555
Mg0 O1 2.123985 1_655
Cu0 O4 1.925016 1_555
Cu0 O4 1.925016 1_455
Cu0 O2 1.999487 1_545
Cu0 O2 1.999487 1_555
Cu0 O0 2.349341 1_555
Cu1 O5 1.890699 1_455
Cu1 O5 1.890699 1_555
Cu1 O3 1.996126 1_545
Cu1 O3 1.996126 1_555
Cu2 O0 1.925642 1_555
Cu2 O6 2.066168 1_555
Cu2 O6 2.066168 1_545
