# generated using pymatgen
data_BaCl2
_symmetry_space_group_name_H-M   'P 1'
_cell_length_a   4.77139779
_cell_length_b   7.91774573
_cell_length_c   9.52417321
_cell_angle_alpha   90.00000000
_cell_angle_beta   90.00000000
_cell_angle_gamma   90.00000000
_symmetry_Int_Tables_number   1
_chemical_formula_structural   BaCl2
_chemical_formula_sum   'Ba4 Cl8'
_cell_volume   359.81102034
_cell_formula_units_Z   4
loop_
 _symmetry_equiv_pos_site_id
 _symmetry_equiv_pos_as_xyz
  1  'x, y, z'
loop_
 _atom_site_type_symbol
 _atom_site_label
 _atom_site_symmetry_multiplicity
 _atom_site_fract_x
 _atom_site_fract_y
 _atom_site_fract_z
 _atom_site_occupancy
  Ba  Ba0  1  0.25000000  0.74867182  0.38297222  1
  Ba  Ba1  1  0.75000000  0.25132818  0.61702778  1
  Ba  Ba2  1  0.25000000  0.24867182  0.11702778  1
  Ba  Ba3  1  0.75000000  0.75132818  0.88297222  1
  Cl  Cl0  1  0.25000000  0.52838745  0.67083367  1
  Cl  Cl1  1  0.75000000  0.47161255  0.32916633  1
  Cl  Cl2  1  0.25000000  0.02838745  0.82916633  1
  Cl  Cl3  1  0.75000000  0.97161255  0.17083367  1
  Cl  Cl4  1  0.75000000  0.85632718  0.57044650  1
  Cl  Cl5  1  0.25000000  0.14367282  0.42955350  1
  Cl  Cl6  1  0.75000000  0.35632718  0.92955350  1
  Cl  Cl7  1  0.25000000  0.64367282  0.07044650  1
loop_
_geom_bond_atom_site_label_1
_geom_bond_atom_site_label_2
_geom_bond_distance
_geom_bond_site_symmetry_2
Ba0 Cl7 3.090469 1_555
Ba0 Cl4 3.099398 1_555
Ba0 Cl4 3.099398 1_455
Ba0 Cl5 3.158827 1_565
Ba0 Cl0 3.249412 1_555
Ba0 Cl1 3.281223 1_555
Ba0 Cl1 3.281223 1_455
Ba0 Cl3 3.590215 1_555
Ba0 Cl3 3.590215 1_455
Ba1 Cl6 3.090469 1_555
Ba1 Cl5 3.099398 1_655
Ba1 Cl5 3.099398 1_555
Ba1 Cl4 3.158827 1_545
Ba1 Cl1 3.249412 1_555
Ba1 Cl0 3.281223 1_555
Ba1 Cl0 3.281223 1_655
Ba1 Cl2 3.590215 1_555
Ba1 Cl2 3.590215 1_655
Ba2 Cl5 3.090469 1_555
Ba2 Cl6 3.099398 1_454
Ba2 Cl6 3.099398 1_554
Ba2 Cl7 3.158827 1_555
Ba2 Cl2 3.249412 1_554
Ba2 Cl3 3.281223 1_545
Ba2 Cl3 3.281223 1_445
Ba2 Cl1 3.590215 1_455
Ba2 Cl1 3.590215 1_555
Ba3 Cl4 3.090469 1_555
Ba3 Cl7 3.099398 1_656
Ba3 Cl7 3.099398 1_556
Ba3 Cl6 3.158827 1_555
Ba3 Cl3 3.249412 1_556
Ba3 Cl2 3.281223 1_565
Ba3 Cl2 3.281223 1_665
Ba3 Cl0 3.590215 1_555
Ba3 Cl0 3.590215 1_655
