# generated using pymatgen
data_MgMn3CuO8
_symmetry_space_group_name_H-M   'P 1'
_cell_length_a   5.95888412
_cell_length_b   5.89778117
_cell_length_c   5.95878864
_cell_angle_alpha   60.75009740
_cell_angle_beta   58.78767100
_cell_angle_gamma   60.74620879
_symmetry_Int_Tables_number   1
_chemical_formula_structural   MgMn3CuO8
_chemical_formula_sum   'Mg1 Mn3 Cu1 O8'
_cell_volume   148.28366244
_cell_formula_units_Z   1
loop_
 _symmetry_equiv_pos_site_id
 _symmetry_equiv_pos_as_xyz
  1  'x, y, z'
loop_
 _atom_site_type_symbol
 _atom_site_label
 _atom_site_symmetry_multiplicity
 _atom_site_fract_x
 _atom_site_fract_y
 _atom_site_fract_z
 _atom_site_occupancy
  Mg  Mg0  1  0.88393600  0.86752100  0.88385200  1
  Mn  Mn0  1  0.49721400  0.49778000  0.00585800  1
  Mn  Mn1  1  0.49836500  0.00474500  0.49838500  1
  Mn  Mn2  1  0.00583700  0.49783100  0.49722400  1
  Cu  Cu0  1  0.49910800  0.49704000  0.49912900  1
  O  O0  1  0.24674600  0.28990100  0.24674400  1
  O  O1  1  0.69712800  0.26959100  0.24721600  1
  O  O2  1  0.26054400  0.70420800  0.26059400  1
  O  O3  1  0.24714900  0.26960300  0.69721200  1
  O  O4  1  0.75012200  0.73670200  0.29415600  1
  O  O5  1  0.74328400  0.28315600  0.74320700  1
  O  O6  1  0.29418400  0.73670600  0.75006100  1
  O  O7  1  0.75138300  0.72021600  0.75136200  1
loop_
_geom_bond_atom_site_label_1
_geom_bond_atom_site_label_2
_geom_bond_distance
_geom_bond_site_symmetry_2
Mg0 O6 1.986149 1_655
Mg0 O4 1.986462 1_556
Mg0 O7 1.997293 1_555
Mg0 O5 2.031299 1_565
Mn0 O1 1.901581 1_555
Mn0 O0 1.907710 1_555
Mn0 O2 1.919477 1_555
Mn0 O6 1.979574 1_554
Mn0 O7 1.982917 1_554
Mn0 O5 1.986275 1_554
Mn1 O1 1.941398 1_555
Mn1 O3 1.941559 1_555
Mn1 O6 1.974934 1_545
Mn1 O4 1.975011 1_545
Mn1 O0 2.173975 1_555
Mn1 O7 2.184549 1_545
Mn2 O3 1.901677 1_555
Mn2 O0 1.907835 1_555
Mn2 O2 1.919278 1_555
Mn2 O4 1.979343 1_455
Mn2 O7 1.982445 1_455
Mn2 O5 1.986178 1_455
Cu0 O1 2.007513 1_555
Cu0 O3 2.007751 1_555
Cu0 O6 2.052063 1_555
Cu0 O4 2.052511 1_555
Cu0 O2 2.057548 1_555
Cu0 O5 2.104786 1_555
