# generated using pymatgen
data_MgCu2GeS4
_symmetry_space_group_name_H-M   'P 1'
_cell_length_a   5.90865241
_cell_length_b   5.32695631
_cell_length_c   6.60037982
_cell_angle_alpha   113.79930114
_cell_angle_beta   116.58976567
_cell_angle_gamma   89.99998623
_symmetry_Int_Tables_number   1
_chemical_formula_structural   MgCu2GeS4
_chemical_formula_sum   'Mg1 Cu2 Ge1 S4'
_cell_volume   165.78421590
_cell_formula_units_Z   1
loop_
 _symmetry_equiv_pos_site_id
 _symmetry_equiv_pos_as_xyz
  1  'x, y, z'
loop_
 _atom_site_type_symbol
 _atom_site_label
 _atom_site_symmetry_multiplicity
 _atom_site_fract_x
 _atom_site_fract_y
 _atom_site_fract_z
 _atom_site_occupancy
  Mg  Mg0  1  0.00000000  0.50000000  0.00000000  1
  Cu  Cu0  1  0.74582800  0.24582800  0.49165700  1
  Cu  Cu1  1  0.25417200  0.75417200  0.50834300  1
  Ge  Ge0  1  0.50000000  0.50000000  0.00000000  1
  S  S0  1  0.85634900  0.86253700  0.25371700  1
  S  S1  1  0.60263400  0.13746300  0.74628300  1
  S  S2  1  0.39736700  0.39117800  0.25371700  1
  S  S3  1  0.14365100  0.60882200  0.74628300  1
loop_
_geom_bond_atom_site_label_1
_geom_bond_atom_site_label_2
_geom_bond_distance
_geom_bond_site_symmetry_2
Mg0 S1 2.432427 1_454
Mg0 S0 2.432434 1_455
Mg0 S2 2.432436 1_555
Mg0 S3 2.432440 1_554
Cu0 S2 2.322043 1_555
Cu0 S0 2.322046 1_545
Cu0 S1 2.435057 1_555
Cu0 S3 2.435077 1_655
Cu0 Mg0 2.677518 1_656
Cu1 S3 2.322044 1_555
Cu1 S1 2.322051 1_565
Cu1 S0 2.435068 1_455
Cu1 S2 2.435069 1_555
Cu1 Mg0 2.677518 1_555
Ge0 S0 2.280506 1_555
Ge0 S3 2.280511 1_554
Ge0 S1 2.280512 1_554
Ge0 S2 2.280515 1_555
