# generated using pymatgen
data_Sr2Ge
_symmetry_space_group_name_H-M   'P 1'
_cell_length_a   5.18214656
_cell_length_b   8.13943776
_cell_length_c   9.58536429
_cell_angle_alpha   90.00000000
_cell_angle_beta   90.00000000
_cell_angle_gamma   90.00000000
_symmetry_Int_Tables_number   1
_chemical_formula_structural   Sr2Ge
_chemical_formula_sum   'Sr8 Ge4'
_cell_volume   404.30835940
_cell_formula_units_Z   4
loop_
 _symmetry_equiv_pos_site_id
 _symmetry_equiv_pos_as_xyz
  1  'x, y, z'
loop_
 _atom_site_type_symbol
 _atom_site_label
 _atom_site_symmetry_multiplicity
 _atom_site_fract_x
 _atom_site_fract_y
 _atom_site_fract_z
 _atom_site_occupancy
  Sr  Sr0  1  0.75000000  0.34844979  0.91990238  1
  Sr  Sr1  1  0.25000000  0.65154921  0.08009762  1
  Sr  Sr2  1  0.75000000  0.84845079  0.58009762  1
  Sr  Sr3  1  0.25000000  0.15155021  0.41990238  1
  Sr  Sr4  1  0.25000000  0.01625452  0.82555130  1
  Sr  Sr5  1  0.75000000  0.98374548  0.17444870  1
  Sr  Sr6  1  0.25000000  0.51625452  0.67444870  1
  Sr  Sr7  1  0.75000000  0.48374548  0.32555130  1
  Ge  Ge0  1  0.25000000  0.75345907  0.40078871  1
  Ge  Ge1  1  0.75000000  0.24654093  0.59921129  1
  Ge  Ge2  1  0.25000000  0.25345907  0.09921129  1
  Ge  Ge3  1  0.75000000  0.74654093  0.90078871  1
loop_
_geom_bond_atom_site_label_1
_geom_bond_atom_site_label_2
_geom_bond_distance
_geom_bond_site_symmetry_2
Ge0 Sr1 3.183891 1_555
Ge0 Sr2 3.203988 1_555
Ge0 Sr2 3.203988 1_455
Ge0 Sr3 3.245414 1_565
Ge0 Sr6 3.257063 1_555
Ge0 Sr7 3.471768 1_555
Ge0 Sr7 3.471768 1_455
Ge1 Sr0 3.183889 1_555
Ge1 Sr3 3.203986 1_555
Ge1 Sr3 3.203986 1_655
Ge1 Sr2 3.245405 1_545
Ge1 Sr7 3.257063 1_555
Ge1 Sr6 3.471768 1_655
Ge1 Sr6 3.471768 1_555
Ge2 Sr3 3.183889 1_555
Ge2 Sr0 3.203986 1_454
Ge2 Sr0 3.203986 1_554
Ge2 Sr1 3.245405 1_555
Ge2 Sr4 3.257063 1_554
Ge2 Sr5 3.471768 1_445
Ge2 Sr5 3.471768 1_545
Ge3 Sr2 3.183891 1_555
Ge3 Sr1 3.203988 1_556
Ge3 Sr1 3.203988 1_656
Ge3 Sr0 3.245414 1_555
Ge3 Sr5 3.257063 1_556
Ge3 Sr4 3.471768 1_565
Ge3 Sr4 3.471768 1_665
