# generated using pymatgen
data_MgMn4O8
_symmetry_space_group_name_H-M   'P 1'
_cell_length_a   3.11060817
_cell_length_b   7.66330404
_cell_length_c   7.65701155
_cell_angle_alpha   87.76390649
_cell_angle_beta   78.30315243
_cell_angle_gamma   78.29767165
_symmetry_Int_Tables_number   1
_chemical_formula_structural   MgMn4O8
_chemical_formula_sum   'Mg1 Mn4 O8'
_cell_volume   175.01850041
_cell_formula_units_Z   1
loop_
 _symmetry_equiv_pos_site_id
 _symmetry_equiv_pos_as_xyz
  1  'x, y, z'
loop_
 _atom_site_type_symbol
 _atom_site_label
 _atom_site_symmetry_multiplicity
 _atom_site_fract_x
 _atom_site_fract_y
 _atom_site_fract_z
 _atom_site_occupancy
  Mg  Mg0  1  0.25688400  0.50004400  0.50007600  1
  Mn  Mn0  1  0.70890800  0.16541000  0.52393000  1
  Mn  Mn1  1  0.12518200  0.47713700  0.16571600  1
  Mn  Mn2  1  0.76765500  0.52295000  0.83431600  1
  Mn  Mn3  1  0.39823900  0.83459200  0.47595600  1
  O  O0  1  0.82592200  0.69521500  0.62387700  1
  O  O1  1  0.47351700  0.37503400  0.69772800  1
  O  O2  1  0.54616700  0.62491300  0.30225200  1
  O  O3  1  0.14544700  0.30474200  0.37622300  1
  O  O4  1  0.22493300  0.04607700  0.62722000  1
  O  O5  1  0.73000200  0.37299000  0.04627100  1
  O  O6  1  0.89820600  0.95384900  0.37268300  1
  O  O7  1  0.14894000  0.62704600  0.95375400  1
loop_
_geom_bond_atom_site_label_1
_geom_bond_atom_site_label_2
_geom_bond_distance
_geom_bond_site_symmetry_2
Mg0 O1 1.923742 1_555
Mg0 O2 1.924412 1_555
Mg0 O3 1.927174 1_555
Mg0 O0 1.927359 1_455
Mn0 O4 1.935834 1_555
Mn0 O6 1.949141 1_545
Mn0 O4 1.975134 1_655
Mn0 O3 2.033306 1_655
Mn0 O1 2.045052 1_555
Mn0 O3 2.332717 1_555
Mn1 O5 1.939884 1_555
Mn1 O7 1.949263 1_554
Mn1 O5 1.973652 1_455
Mn1 O2 2.029992 1_455
Mn1 O3 2.046617 1_555
Mn1 O2 2.310700 1_555
Mn2 O7 1.939052 1_655
Mn2 O5 1.949431 1_556
Mn2 O7 1.974138 1_555
Mn2 O1 2.029049 1_555
Mn2 O0 2.045633 1_555
Mn2 O1 2.313316 1_655
Mn3 O6 1.935328 1_455
Mn3 O4 1.948742 1_565
Mn3 O6 1.975018 1_555
Mn3 O0 2.033140 1_555
Mn3 O2 2.044842 1_555
Mn3 O0 2.335024 1_455
