# generated using pymatgen
data_NaCa2Sn2PS5O24
_symmetry_space_group_name_H-M   'P 1'
_cell_length_a   8.97063897
_cell_length_b   9.00499381
_cell_length_c   23.46393180
_cell_angle_alpha   89.82855708
_cell_angle_beta   89.88667671
_cell_angle_gamma   120.07085180
_symmetry_Int_Tables_number   1
_chemical_formula_structural   NaCa2Sn2PS5O24
_chemical_formula_sum   'Na3 Ca6 Sn6 P3 S15 O72'
_cell_volume   1640.29612542
_cell_formula_units_Z   3
loop_
 _symmetry_equiv_pos_site_id
 _symmetry_equiv_pos_as_xyz
  1  'x, y, z'
loop_
 _atom_site_type_symbol
 _atom_site_label
 _atom_site_symmetry_multiplicity
 _atom_site_fract_x
 _atom_site_fract_y
 _atom_site_fract_z
 _atom_site_occupancy
  Na  Na0  1  0.67354307  0.33415348  0.83052022  1
  Na  Na1  1  0.65714572  0.33486611  0.33305956  1
  Na  Na2  1  0.34010184  0.67456029  0.16522035  1
  Ca  Ca0  1  0.00025605  0.00356885  0.85682897  1
  Ca  Ca1  1  0.66677210  0.33275871  0.68315020  1
  Ca  Ca2  1  0.66269489  0.33379629  0.19094247  1
  Ca  Ca3  1  0.66679309  0.33469391  0.48709521  1
  Ca  Ca4  1  0.33065619  0.66344748  0.01866918  1
  Ca  Ca5  1  0.33452635  0.66720229  0.52364789  1
  Sn  Sn0  1  0.00067863  0.99470637  0.35207197  1
  Sn  Sn1  1  0.99923612  0.99978237  0.65050556  1
  Sn  Sn2  1  0.99840685  0.99143011  0.14898538  1
  Sn  Sn3  1  0.67253278  0.33376280  0.98141633  1
  Sn  Sn4  1  0.34001003  0.67526801  0.31447254  1
  Sn  Sn5  1  0.32472567  0.66073073  0.81533388  1
  P  P0  1  0.28237019  0.98946988  0.25237003  1
  P  P1  1  0.70770719  0.71763564  0.25249595  1
  P  P2  1  0.03390114  0.37983477  0.91700867  1
  S  S0  1  0.01150741  0.29230533  0.25206365  1
  S  S1  1  0.29156288  0.30092775  0.75159674  1
  S  S2  1  0.00910689  0.71004123  0.75199000  1
  S  S3  1  0.69580138  0.98732092  0.75248359  1
  S  S4  1  0.96436605  0.32044948  0.58579917  1
  S  S5  1  0.35671826  0.03518404  0.58583619  1
  S  S6  1  0.67947097  0.64352988  0.58590982  1
  S  S7  1  0.95554357  0.63218772  0.08532904  1
  S  S8  1  0.67896251  0.04431850  0.08611541  1
  S  S9  1  0.36644604  0.32117451  0.08486460  1
  S  S10  1  0.61910652  0.65160685  0.91666148  1
  S  S11  1  0.34800709  0.96737287  0.91684824  1
  S  S12  1  0.63485426  0.96362960  0.41212834  1
  S  S13  1  0.32618868  0.36922839  0.41073520  1
  S  S14  1  0.04134026  0.66931984  0.41182276  1
  O  O0  1  0.19640540  0.01636954  0.30535901  1
  O  O1  1  0.81549824  0.80768738  0.30570579  1
  O  O2  1  0.98798237  0.18752293  0.30366270  1
  O  O3  1  0.21049359  0.19596619  0.80173054  1
  O  O4  1  0.98619759  0.79107264  0.80213677  1
  O  O5  1  0.80124441  0.01045269  0.80218297  1
  O  O6  1  0.77343740  0.95988488  0.69882809  1
  O  O7  1  0.18521852  0.22234136  0.69840127  1
  O  O8  1  0.03509842  0.81521267  0.69846339  1
  O  O9  1  0.78651215  0.82949835  0.19698863  1
  O  O10  1  0.03876213  0.21525522  0.19907691  1
  O  O11  1  0.17316726  0.96205676  0.19686539  1
  O  O12  1  0.88488965  0.34466996  0.63705597  1
  O  O13  1  0.46134321  0.11483606  0.63678183  1
  O  O14  1  0.65432548  0.53881631  0.63699036  1
  O  O15  1  0.87335902  0.52758884  0.13547927  1
  O  O16  1  0.65591164  0.12691060  0.13585053  1
  O  O17  1  0.47117432  0.34328819  0.13480467  1
  O  O18  1  0.44573129  0.29512864  0.03097547  1
  O  O19  1  0.85104209  0.55386239  0.03174186  1
  O  O20  1  0.70434246  0.14782273  0.03195457  1
  O  O21  1  0.43026730  0.14125013  0.53417355  1
  O  O22  1  0.71246318  0.57084459  0.53436904  1
  O  O23  1  0.85825193  0.28865325  0.53443794  1
  O  O24  1  0.54235367  0.67383510  0.96796528  1
  O  O25  1  0.13442800  0.46464935  0.97011327  1
  O  O26  1  0.33192800  0.87166416  0.96845426  1
  O  O27  1  0.55640070  0.85768049  0.46177945  1
  O  O28  1  0.30102836  0.44630064  0.46094579  1
  O  O29  1  0.14474366  0.69376919  0.46164817  1
  O  O30  1  0.12367458  0.64390331  0.35784991  1
  O  O31  1  0.52632781  0.88318372  0.35843044  1
  O  O32  1  0.35371194  0.47910347  0.35699596  1
  O  O33  1  0.11343801  0.49841607  0.86127779  1
  O  O34  1  0.38486411  0.89191322  0.86429328  1
  O  O35  1  0.50905518  0.62092337  0.86390637  1
  O  O36  1  0.03080517  0.83099824  0.40531560  1
  O  O37  1  0.80836314  0.97646120  0.40430560  1
  O  O38  1  0.16336839  0.19779586  0.40305434  1
  O  O39  1  0.00559835  0.20482211  0.90757113  1
  O  O40  1  0.19994672  0.98779952  0.90851953  1
  O  O41  1  0.79131209  0.79363184  0.90815173  1
  O  O42  1  0.97480081  0.15724101  0.59340811  1
  O  O43  1  0.18236812  0.02430362  0.59358425  1
  O  O44  1  0.84242646  0.81767639  0.59345519  1
  O  O45  1  0.96405583  0.80467671  0.08930055  1
  O  O46  1  0.84355554  0.03583012  0.09118006  1
  O  O47  1  0.19152556  0.15917128  0.09042030  1
  O  O48  1  0.66943071  0.13453304  0.74618991  1
  O  O49  1  0.46584699  0.32745871  0.74536952  1
  O  O50  1  0.86209676  0.53594157  0.74610405  1
  O  O51  1  0.69055376  0.54226641  0.24997896  1
  O  O52  1  0.85965625  0.31199497  0.24815322  1
  O  O53  1  0.46198785  0.14311776  0.24984050  1
  O  O54  1  0.62684946  0.48499835  0.92137912  1
  O  O55  1  0.84724010  0.36636590  0.92097729  1
  O  O56  1  0.50973777  0.14663093  0.92105887  1
  O  O57  1  0.65667745  0.13576872  0.41418352  1
  O  O58  1  0.47656515  0.34578209  0.41247798  1
  O  O59  1  0.86729713  0.51954031  0.41328497  1
  O  O60  1  0.34207736  0.46968933  0.07942065  1
  O  O61  1  0.13084245  0.66087455  0.08018366  1
  O  O62  1  0.53112722  0.87020492  0.08048550  1
  O  O63  1  0.32948382  0.86347060  0.57829712  1
  O  O64  1  0.53391298  0.67008345  0.57830936  1
  O  O65  1  0.13706680  0.46517940  0.57806725  1
  O  O66  1  0.28921858  0.81769728  0.25656313  1
  O  O67  1  0.52405517  0.70189491  0.25621378  1
  O  O68  1  0.17200582  0.46587580  0.25624554  1
  O  O69  1  0.30226347  0.47444742  0.75636237  1
  O  O70  1  0.17494619  0.70325292  0.75606259  1
  O  O71  1  0.52148781  0.82325632  0.75820263  1
loop_
_geom_bond_atom_site_label_1
_geom_bond_atom_site_label_2
_geom_bond_distance
_geom_bond_site_symmetry_2
Na0 O55 2.565303 1_555
Na0 O50 2.640314 1_555
Na0 O56 2.646378 1_555
Na0 O48 2.665167 1_555
Na0 O54 2.673875 1_555
Na0 O49 2.714736 1_555
Na1 O58 2.501012 1_555
Na1 O59 2.598833 1_555
Na1 O51 2.606343 1_555
Na1 O57 2.609533 1_555
Na1 O53 2.619835 1_555
Na1 O52 2.770329 1_555
Na2 O62 2.633140 1_555
Na2 O67 2.636702 1_555
Na2 O66 2.658115 1_555
Na2 O61 2.702718 1_555
Na2 O68 2.736860 1_555
Na2 O60 2.740738 1_555
Ca0 O39 2.151819 1_555
Ca0 O3 2.220900 1_555
Ca0 O5 2.225881 1_455
Ca0 O40 2.227697 1_545
Ca0 O41 2.227946 1_445
Ca0 O4 2.257838 1_445
Ca1 O12 2.188691 1_555
Ca1 O14 2.196516 1_555
Ca1 O13 2.197117 1_555
Ca1 O49 2.298983 1_555
Ca1 O48 2.324174 1_555
Ca1 O50 2.326675 1_555
Ca2 O17 2.202166 1_555
Ca2 O53 2.231071 1_555
Ca2 O15 2.232047 1_555
Ca2 O16 2.246466 1_555
Ca2 O51 2.247718 1_555
Ca2 O52 2.306035 1_555
Ca3 O21 2.243184 1_555
Ca3 O22 2.250160 1_555
Ca3 O23 2.252574 1_555
Ca3 O59 2.444449 1_555
Ca3 O57 2.449477 1_555
Ca3 O58 2.483721 1_555
Ca4 O25 2.112712 1_554
Ca4 O24 2.200677 1_554
Ca4 O26 2.206639 1_554
Ca4 O61 2.290133 1_555
Ca4 O60 2.291635 1_555
Ca4 O62 2.339962 1_555
Ca5 O64 2.192628 1_555
Ca5 O65 2.196689 1_555
Ca5 O63 2.205321 1_555
Ca5 O29 2.342614 1_555
Ca5 O27 2.358680 1_555
Ca5 O28 2.373195 1_555
O0 P0 1.544163 1_545
O0 Sn0 1.992510 1_545
O1 P1 1.541559 1_555
O1 Sn0 1.998464 1_655
O2 S0 1.480975 1_655
O2 Sn0 2.122461 1_645
O3 S1 1.451595 1_555
O4 S2 1.453830 1_655
O5 S3 1.451328 1_545
O6 S3 1.517203 1_555
O6 Sn1 2.185575 1_555
O7 S1 1.517320 1_555
O7 Sn1 2.175574 1_445
O8 S2 1.516288 1_555
O8 Sn1 2.158294 1_455
O9 P1 1.576586 1_555
O9 Sn2 2.052347 1_555
O10 S0 1.503623 1_555
O10 Sn2 2.204439 1_445
O11 P0 1.575232 1_555
O11 Sn2 2.051970 1_455
O12 S4 1.468447 1_555
O13 S5 1.469433 1_555
O14 S6 1.468183 1_555
O15 S7 1.452389 1_555
O16 S8 1.454688 1_555
O17 S9 1.453835 1_555
O18 S9 1.524827 1_555
O18 Sn3 2.211686 1_554
O19 S7 1.518092 1_555
O19 Sn3 2.174353 1_554
O20 S8 1.521404 1_555
O20 Sn3 2.181619 1_554
O21 S5 1.474927 1_555
O22 S6 1.475121 1_555
O23 S4 1.474427 1_555
O24 S10 1.448970 1_555
O25 P2 1.506349 1_555
O26 S11 1.448556 1_555
O27 S12 1.442227 1_555
O28 S13 1.442726 1_555
O29 S14 1.441134 1_555
O30 S14 1.539205 1_555
O30 Sn4 2.079196 1_555
O31 S12 1.537413 1_555
O31 Sn4 2.060383 1_555
O32 S13 1.541546 1_555
O32 Sn4 2.082920 1_555
O33 P2 1.607404 1_555
O33 Sn5 2.024155 1_555
O34 S11 1.523239 1_555
O34 Sn5 2.199064 1_555
O35 S10 1.522085 1_555
O35 Sn5 2.181897 1_555
O36 S14 1.512792 1_555
O36 Sn0 2.048563 1_555
O37 S12 1.512679 1_555
O37 Sn0 2.052261 1_655
O38 S13 1.513960 1_555
O38 Sn0 2.061741 1_545
O39 P2 1.482753 1_555
O40 S11 1.442836 1_555
O41 S10 1.441965 1_555
O42 S4 1.528723 1_555
O42 Sn1 2.038302 1_545
O43 S5 1.527759 1_555
O43 Sn1 2.038978 1_445
O44 S6 1.527363 1_555
O44 Sn1 2.041741 1_555
O45 S7 1.519596 1_555
O45 Sn2 2.093041 1_555
O46 S8 1.521109 1_555
O46 Sn2 2.118951 1_545
O47 S9 1.520344 1_555
O47 Sn2 2.127658 1_445
O48 S3 1.465721 1_545
O49 S1 1.465379 1_555
O50 S2 1.464988 1_655
O51 P1 1.509340 1_555
O52 S0 1.462152 1_655
O53 P0 1.509666 1_545
O54 S10 1.539959 1_555
O54 Sn3 2.134763 1_555
O55 P2 1.619573 1_655
O55 Sn3 2.020184 1_555
O56 S11 1.541076 1_545
O56 Sn3 2.129390 1_555
O57 S12 1.462829 1_545
O58 S13 1.466822 1_555
O59 S14 1.465311 1_655
O60 S9 1.464494 1_555
O61 S7 1.464979 1_455
O62 S8 1.467194 1_565
O63 S5 1.450925 1_565
O64 S6 1.451729 1_555
O65 S4 1.451089 1_455
O66 P0 1.581273 1_555
O66 Sn4 2.067980 1_555
O67 P1 1.583419 1_555
O67 Sn4 2.060177 1_555
O68 S0 1.507262 1_555
O68 Sn4 2.206598 1_555
O69 S1 1.521196 1_555
O69 Sn5 2.108420 1_555
O70 S2 1.522411 1_555
O70 Sn5 2.099018 1_555
O71 S3 1.526011 1_555
O71 Sn5 2.108215 1_555
