# generated using pymatgen
data_Ba2NdMgRuO6
_symmetry_space_group_name_H-M   'P 1'
_cell_length_a   6.03963551
_cell_length_b   6.69190928
_cell_length_c   6.03963523
_cell_angle_alpha   63.17516848
_cell_angle_beta   60.00000161
_cell_angle_gamma   63.17518829
_symmetry_Int_Tables_number   1
_chemical_formula_structural   Ba2NdMgRuO6
_chemical_formula_sum   'Ba2 Nd1 Mg1 Ru1 O6'
_cell_volume   180.43101470
_cell_formula_units_Z   1
loop_
 _symmetry_equiv_pos_site_id
 _symmetry_equiv_pos_as_xyz
  1  'x, y, z'
loop_
 _atom_site_type_symbol
 _atom_site_label
 _atom_site_symmetry_multiplicity
 _atom_site_fract_x
 _atom_site_fract_y
 _atom_site_fract_z
 _atom_site_occupancy
  Ba  Ba0  1  0.68765677  0.93703069  0.68765677  1
  Ba  Ba1  1  0.23265803  0.30202890  0.23265603  1
  Nd  Nd0  1  0.03091159  0.90726524  0.03091159  1
  Mg  Mg0  1  0.86396823  0.40809530  0.86396823  1
  Ru  Ru0  1  0.50497602  0.48507193  0.50497602  1
  O  O0  1  0.75031718  0.25521391  0.75031818  1
  O  O1  1  0.24415072  0.25521391  0.75031818  1
  O  O2  1  0.27916642  0.68995574  0.75171143  1
  O  O3  1  0.75031718  0.25521491  0.24414972  1
  O  O4  1  0.75171043  0.68995473  0.27916742  1
  O  O5  1  0.27916742  0.68995473  0.27916742  1
loop_
_geom_bond_atom_site_label_1
_geom_bond_atom_site_label_2
_geom_bond_distance
_geom_bond_site_symmetry_2
Ba0 O0 2.533363 1_565
Ba0 O1 2.533367 1_565
Ba0 O3 2.533373 1_565
Ba1 O2 2.879586 1_554
Ba1 O5 2.879591 1_555
Ba1 O4 2.879594 1_455
Ba1 O0 3.031700 1_554
Ba1 O3 3.031702 1_555
Ba1 O1 3.031703 1_554
Ba1 O3 3.031714 1_455
Ba1 O1 3.031715 1_555
Ba1 O0 3.031718 1_455
Nd0 O2 2.218853 1_554
Nd0 O5 2.218862 1_555
Nd0 O4 2.218862 1_455
Nd0 O0 2.629601 1_464
Nd0 O1 2.629601 1_564
Nd0 O3 2.629604 1_465
Mg0 O3 1.930725 1_556
Mg0 O0 1.930731 1_555
Mg0 O1 1.930731 1_655
O0 Ru0 2.199731 1_555
O1 Ru0 2.199731 1_555
O2 Ru0 2.021019 1_555
O3 Ru0 2.199731 1_555
O4 Ru0 2.021009 1_555
O5 Ru0 2.021009 1_555
