# generated using pymatgen
data_Na2MgGe3P4(SO12)2
_symmetry_space_group_name_H-M   'P 1'
_cell_length_a   8.40167891
_cell_length_b   8.40867317
_cell_length_c   21.93897141
_cell_angle_alpha   89.78929543
_cell_angle_beta   89.88501904
_cell_angle_gamma   119.86708293
_symmetry_Int_Tables_number   1
_chemical_formula_structural   Na2MgGe3P4(SO12)2
_chemical_formula_sum   'Na6 Mg3 Ge9 P12 S6 O72'
_cell_volume   1344.04365728
_cell_formula_units_Z   3
loop_
 _symmetry_equiv_pos_site_id
 _symmetry_equiv_pos_as_xyz
  1  'x, y, z'
loop_
 _atom_site_type_symbol
 _atom_site_label
 _atom_site_symmetry_multiplicity
 _atom_site_fract_x
 _atom_site_fract_y
 _atom_site_fract_z
 _atom_site_occupancy
  Na  Na0  1  0.00020451  0.99488953  0.50416743  1
  Na  Na1  1  0.00537617  0.99914066  0.00153201  1
  Na  Na2  1  0.66410165  0.32979406  0.83207312  1
  Na  Na3  1  0.66724327  0.33323973  0.33708017  1
  Na  Na4  1  0.32997075  0.66290658  0.16808652  1
  Na  Na5  1  0.34081466  0.66857057  0.66538507  1
  Mg  Mg0  1  0.99861795  0.99965873  0.64540467  1
  Mg  Mg1  1  0.00454124  0.99976195  0.14369141  1
  Mg  Mg2  1  0.33332729  0.66808532  0.31769298  1
  Ge  Ge0  1  0.00205039  0.00101976  0.35970973  1
  Ge  Ge1  1  0.00186996  0.00915997  0.85215585  1
  Ge  Ge2  1  0.64517085  0.31766106  0.68450290  1
  Ge  Ge3  1  0.66989668  0.34375053  0.18400570  1
  Ge  Ge4  1  0.66466593  0.33877908  0.97709372  1
  Ge  Ge5  1  0.66122410  0.33558849  0.47949020  1
  Ge  Ge6  1  0.32560239  0.65763901  0.01774060  1
  Ge  Ge7  1  0.34283509  0.67326787  0.51711872  1
  Ge  Ge8  1  0.33992372  0.66771682  0.81475167  1
  P  P0  1  0.28795349  0.29170728  0.75014792  1
  P  P1  1  0.70977342  0.00102603  0.74968001  1
  P  P2  1  0.37789976  0.04084584  0.58088324  1
  P  P3  1  0.66342784  0.61748078  0.58215343  1
  P  P4  1  0.95455471  0.61757080  0.08080331  1
  P  P5  1  0.38273341  0.33801200  0.08105255  1
  P  P6  1  0.62324479  0.67095565  0.91690730  1
  P  P7  1  0.04467501  0.37866299  0.91613577  1
  P  P8  1  0.33192843  0.95264106  0.91683344  1
  P  P9  1  0.62385533  0.96142746  0.41604547  1
  P  P10  1  0.33488730  0.37983922  0.41656864  1
  P  P11  1  0.04253622  0.66231757  0.41723188  1
  S  S0  1  0.29306434  0.00292309  0.24897021  1
  S  S1  1  0.71154476  0.71097135  0.24922691  1
  S  S2  1  0.99681490  0.28853100  0.24860604  1
  S  S3  1  0.00027948  0.70842977  0.75084681  1
  S  S4  1  0.95390017  0.33750976  0.58255097  1
  S  S5  1  0.66236910  0.04532059  0.08199440  1
  O  O0  1  0.21565368  0.04030780  0.30566651  1
  O  O1  1  0.82535729  0.78705219  0.30551714  1
  O  O2  1  0.96026905  0.17448892  0.30547974  1
  O  O3  1  0.21181739  0.17152233  0.80972441  1
  O  O4  1  0.96341782  0.78577694  0.80785034  1
  O  O5  1  0.82618534  0.03865750  0.80961975  1
  O  O6  1  0.78445527  0.96081353  0.69414019  1
  O  O7  1  0.17683171  0.21479239  0.69416426  1
  O  O8  1  0.03532746  0.81812853  0.69673730  1
  O  O9  1  0.79527526  0.81753675  0.19443675  1
  O  O10  1  0.02018481  0.20421816  0.19426943  1
  O  O11  1  0.18488045  0.97845068  0.19480559  1
  O  O12  1  0.87467805  0.37355183  0.63924963  1
  O  O13  1  0.49904329  0.11522645  0.64008623  1
  O  O14  1  0.62456788  0.49579275  0.64142163  1
  O  O15  1  0.87765857  0.49523267  0.13992843  1
  O  O16  1  0.62451829  0.12269773  0.13855650  1
  O  O17  1  0.50287337  0.37787757  0.13997816  1
  O  O18  1  0.46888231  0.30061845  0.02436707  1
  O  O19  1  0.83510294  0.52741942  0.02411952  1
  O  O20  1  0.69617331  0.15943153  0.02635790  1
  O  O21  1  0.47077547  0.16282506  0.52492467  1
  O  O22  1  0.69778505  0.53097169  0.52543704  1
  O  O23  1  0.84129919  0.30651862  0.52723520  1
  O  O24  1  0.54174554  0.70880481  0.97473156  1
  O  O25  1  0.16275757  0.45463890  0.97417584  1
  O  O26  1  0.29445484  0.83385741  0.97518462  1
  O  O27  1  0.54915073  0.83988932  0.47448787  1
  O  O28  1  0.29229352  0.45726651  0.47502754  1
  O  O29  1  0.16372693  0.70493776  0.47529270  1
  O  O30  1  0.11285696  0.62679463  0.35935843  1
  O  O31  1  0.51456289  0.88980749  0.35918647  1
  O  O32  1  0.37147710  0.48714259  0.35900497  1
  O  O33  1  0.12681059  0.50141195  0.85966277  1
  O  O34  1  0.37116241  0.87140175  0.85993394  1
  O  O35  1  0.50191102  0.62759048  0.86023100  1
  O  O36  1  0.02030937  0.83716436  0.41119101  1
  O  O37  1  0.81884477  0.98048642  0.41009374  1
  O  O38  1  0.16132285  0.18326495  0.41121478  1
  O  O39  1  0.02602247  0.18742637  0.90971766  1
  O  O40  1  0.15941306  0.97155043  0.90913220  1
  O  O41  1  0.81528198  0.84054008  0.90883042  1
  O  O42  1  0.97220561  0.17592441  0.58780978  1
  O  O43  1  0.19405584  0.02612382  0.58713412  1
  O  O44  1  0.82879457  0.80405171  0.58753162  1
  O  O45  1  0.97050790  0.80245846  0.08665439  1
  O  O46  1  0.82388971  0.02677131  0.08833341  1
  O  O47  1  0.19479292  0.17366891  0.08680654  1
  O  O48  1  0.69131836  0.17763066  0.74386980  1
  O  O49  1  0.48544874  0.31561571  0.74555203  1
  O  O50  1  0.83644181  0.52255420  0.74580475  1
  O  O51  1  0.69720303  0.52170122  0.24490453  1
  O  O52  1  0.82173946  0.30199882  0.24392363  1
  O  O53  1  0.48153418  0.17567712  0.24345449  1
  O  O54  1  0.64114362  0.49677796  0.92306419  1
  O  O55  1  0.85190282  0.35730511  0.92400852  1
  O  O56  1  0.50597587  0.14402142  0.92434189  1
  O  O57  1  0.65214948  0.15517701  0.42683871  1
  O  O58  1  0.50269563  0.35272910  0.42514228  1
  O  O59  1  0.84914008  0.49457913  0.42706434  1
  O  O60  1  0.37462221  0.51881514  0.07475547  1
  O  O61  1  0.14710814  0.63288424  0.07516778  1
  O  O62  1  0.49308759  0.86329355  0.07675460  1
  O  O63  1  0.36522780  0.85003474  0.57481271  1
  O  O64  1  0.48195317  0.62501634  0.57555206  1
  O  O65  1  0.13631025  0.50722769  0.57714303  1
  O  O66  1  0.31661461  0.84344077  0.25523641  1
  O  O67  1  0.52766065  0.68542751  0.25507077  1
  O  O68  1  0.15570279  0.47150957  0.25461205  1
  O  O69  1  0.30853651  0.48466927  0.76042576  1
  O  O70  1  0.16813061  0.69082601  0.75927584  1
  O  O71  1  0.51410907  0.83140140  0.76010289  1
loop_
_geom_bond_atom_site_label_1
_geom_bond_atom_site_label_2
_geom_bond_distance
_geom_bond_site_symmetry_2
Na0 O43 2.371516 1_565
Na0 O44 2.379107 1_455
Na0 O42 2.472936 1_465
Na0 O36 2.487960 1_555
Na0 O38 2.515891 1_565
Na0 O37 2.535088 1_455
Na1 O45 2.408544 1_455
Na1 O47 2.427425 1_565
Na1 O40 2.475889 1_554
Na1 O39 2.509140 1_564
Na1 O46 2.519900 1_465
Na1 O41 2.525305 1_454
Na2 O49 2.388543 1_555
Na2 O48 2.396205 1_555
Na2 O50 2.436138 1_555
Na2 O56 2.490353 1_555
Na2 O55 2.502786 1_555
Na2 O54 2.506505 1_555
Na3 O58 2.426510 1_555
Na3 O57 2.433905 1_555
Na3 O59 2.457678 1_555
Na3 O51 2.498243 1_555
Na3 O52 2.502748 1_555
Na3 O53 2.526441 1_555
Na4 O68 2.440656 1_555
Na4 O67 2.477586 1_555
Na4 O66 2.482517 1_555
Na4 O61 2.491953 1_555
Na4 O60 2.503845 1_555
Na4 O62 2.529129 1_555
Na5 O64 2.419284 1_555
Na5 O63 2.446044 1_555
Na5 O65 2.500321 1_555
Na5 O71 2.521952 1_555
Na5 O69 2.523639 1_555
Na5 O70 2.577645 1_555
Mg0 O6 1.972769 1_555
Mg0 O7 1.995402 1_665
Mg0 O43 2.001387 1_665
Mg0 O44 2.009592 1_555
Mg0 O8 2.037410 1_655
Mg0 O42 2.039017 1_565
Mg1 O11 1.964964 1_555
Mg1 O47 1.975201 1_565
Mg1 O45 1.986027 1_455
Mg1 O9 1.993721 1_455
Mg1 O10 1.998446 1_565
Mg1 O46 2.044241 1_465
Mg2 O32 1.927655 1_555
Mg2 O30 1.933273 1_555
Mg2 O31 1.952892 1_555
Mg2 O66 2.064836 1_555
Mg2 O67 2.080135 1_555
Mg2 O68 2.107806 1_555
Ge0 O37 1.829748 1_445
Ge0 O38 1.841811 1_555
Ge0 O36 1.843176 1_545
Ge0 O0 2.033146 1_555
Ge0 O2 2.040898 1_455
Ge0 O1 2.053545 1_445
Ge1 O3 1.851333 1_555
Ge1 O5 1.865357 1_455
Ge1 O39 1.896025 1_555
Ge1 O41 1.944044 1_445
Ge1 O40 1.958353 1_545
Ge1 O4 1.996924 1_445
Ge2 O13 1.813818 1_555
Ge2 O14 1.848060 1_555
Ge2 O49 1.888011 1_555
Ge2 O48 1.917959 1_555
Ge2 O12 2.002745 1_555
Ge2 O50 2.151208 1_555
Ge3 O15 1.836903 1_555
Ge3 O17 1.840924 1_555
Ge3 O51 1.936676 1_555
Ge3 O16 1.975833 1_555
Ge3 O52 1.981963 1_555
Ge3 O53 1.988331 1_555
Ge4 O18 1.830120 1_556
Ge4 O19 1.840295 1_556
Ge4 O54 1.860121 1_555
Ge4 O55 1.898035 1_555
Ge4 O56 1.909026 1_555
Ge4 O20 1.974657 1_556
Ge5 O22 1.822205 1_555
Ge5 O21 1.825394 1_555
Ge5 O58 1.847355 1_555
Ge5 O59 1.866014 1_555
Ge5 O57 1.881359 1_555
Ge5 O23 1.954158 1_555
Ge6 O25 1.841282 1_554
Ge6 O26 1.874244 1_554
Ge6 O61 1.886583 1_555
Ge6 O60 1.888661 1_555
Ge6 O24 1.893449 1_554
Ge6 O62 2.060816 1_555
Ge7 O27 1.845918 1_555
Ge7 O28 1.891480 1_555
Ge7 O29 1.892158 1_555
Ge7 O63 1.892907 1_555
Ge7 O64 1.910163 1_555
Ge7 O65 2.063659 1_555
Ge8 O35 1.849850 1_555
Ge8 O71 1.856934 1_555
Ge8 O69 1.862699 1_555
Ge8 O34 1.884329 1_555
Ge8 O33 1.902964 1_555
Ge8 O70 1.971538 1_555
O0 S0 1.507400 1_555
O1 S1 1.499999 1_555
O2 S2 1.505701 1_555
O3 P0 1.575416 1_555
O4 S3 1.512600 1_655
O5 P1 1.576696 1_555
O6 P1 1.484592 1_565
O7 P0 1.485768 1_555
O8 S3 1.437640 1_555
O9 S1 1.450372 1_555
O10 S2 1.451265 1_455
O11 S0 1.449287 1_565
O12 S4 1.510809 1_555
O13 P2 1.578414 1_555
O14 P3 1.581177 1_555
O15 P4 1.575784 1_555
O16 S5 1.508232 1_555
O17 P5 1.572859 1_555
O18 P5 1.547666 1_555
O19 P4 1.543558 1_555
O20 S5 1.486540 1_555
O21 P2 1.535531 1_555
O22 P3 1.541137 1_555
O23 S4 1.482243 1_555
O24 P6 1.547913 1_555
O25 P7 1.547118 1_555
O26 P8 1.552852 1_555
O27 P9 1.559036 1_555
O28 P10 1.559863 1_555
O29 P11 1.559762 1_555
O30 P11 1.491953 1_555
O31 P9 1.490395 1_555
O32 P10 1.489060 1_555
O33 P7 1.534383 1_555
O34 P8 1.537039 1_555
O35 P6 1.535072 1_555
O36 P11 1.576746 1_555
O37 P9 1.569732 1_555
O38 P10 1.572852 1_555
O39 P7 1.543037 1_555
O40 P8 1.544333 1_555
O41 P6 1.540620 1_555
O42 S4 1.445726 1_555
O43 P2 1.492815 1_555
O44 P3 1.495511 1_555
O45 P4 1.498469 1_555
O46 S5 1.447981 1_555
O47 P5 1.497842 1_555
O48 P1 1.572757 1_555
O49 P0 1.571869 1_555
O50 S3 1.486263 1_655
O51 S1 1.538368 1_555
O52 S2 1.534091 1_555
O53 S0 1.529423 1_555
O54 P6 1.550455 1_555
O55 P7 1.547311 1_655
O56 P8 1.553805 1_545
O57 P9 1.544064 1_545
O58 P10 1.547881 1_555
O59 P11 1.545915 1_655
O60 P5 1.561015 1_555
O61 P4 1.562260 1_455
O62 S5 1.487468 1_565
O63 P2 1.560412 1_565
O64 P3 1.564198 1_555
O65 S4 1.489672 1_455
O66 S0 1.455833 1_565
O67 S1 1.455300 1_555
O68 S2 1.457130 1_455
O69 P0 1.561030 1_555
O70 S3 1.501205 1_555
O71 P1 1.565213 1_565
