# generated using pymatgen
data_BaB4O7
_symmetry_space_group_name_H-M   'P 1'
_cell_length_a   8.27009557
_cell_length_b   10.58421085
_cell_length_c   13.08056046
_cell_angle_alpha   75.14091617
_cell_angle_beta   90.00000000
_cell_angle_gamma   90.00000000
_symmetry_Int_Tables_number   1
_chemical_formula_structural   BaB4O7
_chemical_formula_sum   'Ba8 B32 O56'
_cell_volume   1106.68478268
_cell_formula_units_Z   8
loop_
 _symmetry_equiv_pos_site_id
 _symmetry_equiv_pos_as_xyz
  1  'x, y, z'
loop_
 _atom_site_type_symbol
 _atom_site_label
 _atom_site_symmetry_multiplicity
 _atom_site_fract_x
 _atom_site_fract_y
 _atom_site_fract_z
 _atom_site_occupancy
  Ba  Ba0  1  0.61700143  0.10533082  0.29631157  1
  Ba  Ba1  1  0.11700143  0.89466918  0.20368843  1
  Ba  Ba2  1  0.38299857  0.89466918  0.70368843  1
  Ba  Ba3  1  0.88299857  0.10533082  0.79631157  1
  Ba  Ba4  1  0.23936670  0.46062958  0.39460570  1
  Ba  Ba5  1  0.73936670  0.53937042  0.10539430  1
  Ba  Ba6  1  0.76063330  0.53937042  0.60539430  1
  Ba  Ba7  1  0.26063330  0.46062958  0.89460570  1
  B  B0  1  0.71517576  0.01126826  0.55221980  1
  B  B1  1  0.08993266  0.13738978  0.49318448  1
  B  B2  1  0.58993266  0.86261022  0.00681552  1
  B  B3  1  0.91006734  0.86261022  0.50681552  1
  B  B4  1  0.41006734  0.13738978  0.99318448  1
  B  B5  1  0.82525847  0.39653363  0.39279083  1
  B  B6  1  0.32525847  0.60346637  0.10720917  1
  B  B7  1  0.17474153  0.60346637  0.60720917  1
  B  B8  1  0.67474153  0.39653363  0.89279083  1
  B  B9  1  0.21517576  0.98873174  0.94778020  1
  B  B10  1  0.28482424  0.98873174  0.44778020  1
  B  B11  1  0.78482424  0.01126826  0.05221980  1
  B  B12  1  0.30691613  0.18196032  0.80579767  1
  B  B13  1  0.80691613  0.81803968  0.69420233  1
  B  B14  1  0.69308387  0.81803968  0.19420233  1
  B  B15  1  0.19308387  0.18196032  0.30579767  1
  B  B16  1  0.63380944  0.24653625  0.51542940  1
  B  B17  1  0.13380944  0.75346375  0.98457060  1
  B  B18  1  0.36619056  0.75346375  0.48457060  1
  B  B19  1  0.86619056  0.24653625  0.01542940  1
  B  B20  1  0.38077390  0.27833930  0.61872942  1
  B  B21  1  0.88077390  0.72166070  0.88127058  1
  B  B22  1  0.61922610  0.72166070  0.38127058  1
  B  B23  1  0.11922610  0.27833930  0.11872942  1
  B  B24  1  0.13435573  0.36745119  0.68843215  1
  B  B25  1  0.63435573  0.63254881  0.81156785  1
  B  B26  1  0.86564427  0.63254881  0.31156785  1
  B  B27  1  0.36564427  0.36745119  0.18843215  1
  B  B28  1  0.91551581  0.28805297  0.57388128  1
  B  B29  1  0.41551581  0.71194703  0.92611872  1
  B  B30  1  0.08448419  0.71194703  0.42611872  1
  B  B31  1  0.58448419  0.28805297  0.07388128  1
  O  O0  1  0.25061771  0.36108821  0.60561751  1
  O  O1  1  0.80703195  0.31606465  0.90656029  1
  O  O2  1  0.30703195  0.68393535  0.59343971  1
  O  O3  1  0.19296805  0.68393535  0.09343971  1
  O  O4  1  0.69296805  0.31606465  0.40656029  1
  O  O5  1  0.41586512  0.20429643  0.88953352  1
  O  O6  1  0.91586512  0.79570357  0.61046648  1
  O  O7  1  0.58413488  0.79570357  0.11046648  1
  O  O8  1  0.74549603  0.25865299  0.59735569  1
  O  O9  1  0.24549603  0.74134701  0.90264431  1
  O  O10  1  0.25450397  0.74134701  0.40264431  1
  O  O11  1  0.75450397  0.25865299  0.09735569  1
  O  O12  1  0.60608065  0.10800111  0.51443156  1
  O  O13  1  0.10608065  0.89199889  0.98556844  1
  O  O14  1  0.39391935  0.89199889  0.48556844  1
  O  O15  1  0.89391935  0.10800111  0.01443156  1
  O  O16  1  0.47812198  0.30346264  0.53140817  1
  O  O17  1  0.97812198  0.69653736  0.96859183  1
  O  O18  1  0.52187802  0.69653736  0.46859183  1
  O  O19  1  0.02187802  0.30346264  0.03140817  1
  O  O20  1  0.40191422  0.18137200  0.71017900  1
  O  O21  1  0.90191422  0.81862800  0.78982100  1
  O  O22  1  0.59808578  0.81862800  0.28982100  1
  O  O23  1  0.09808578  0.18137200  0.21017900  1
  O  O24  1  0.22821543  0.04921972  0.84255079  1
  O  O25  1  0.72821543  0.95078028  0.65744921  1
  O  O26  1  0.77178457  0.95078028  0.15744921  1
  O  O27  1  0.27178457  0.04921972  0.34255079  1
  O  O28  1  0.64432002  0.49231148  0.80098930  1
  O  O29  1  0.14432002  0.50768852  0.69901070  1
  O  O30  1  0.35567998  0.50768852  0.19901070  1
  O  O31  1  0.85567998  0.49231148  0.30098930  1
  O  O32  1  0.08413488  0.20429643  0.38953352  1
  O  O33  1  0.75061771  0.63891179  0.89438249  1
  O  O34  1  0.74938229  0.63891179  0.39438249  1
  O  O35  1  0.24938229  0.36108821  0.10561751  1
  O  O36  1  0.19572598  0.03056594  0.52328498  1
  O  O37  1  0.69572598  0.96943406  0.97671502  1
  O  O38  1  0.80427402  0.96943406  0.47671502  1
  O  O39  1  0.30427402  0.03056594  0.02328498  1
  O  O40  1  0.52838506  0.33751088  0.16185443  1
  O  O41  1  0.50521451  0.83358173  0.92749945  1
  O  O42  1  0.99478549  0.83358173  0.42749945  1
  O  O43  1  0.49478549  0.16641827  0.07250055  1
  O  O44  1  0.18054972  0.27928721  0.78878410  1
  O  O45  1  0.68054972  0.72071279  0.71121590  1
  O  O46  1  0.81945028  0.72071279  0.21121590  1
  O  O47  1  0.31945028  0.27928721  0.28878410  1
  O  O48  1  0.56712504  0.38830101  0.97423082  1
  O  O49  1  0.06712504  0.61169899  0.52576918  1
  O  O50  1  0.43287496  0.61169899  0.02576918  1
  O  O51  1  0.93287496  0.38830101  0.47423082  1
  O  O52  1  0.97161494  0.33751088  0.66185443  1
  O  O53  1  0.47161494  0.66248912  0.83814557  1
  O  O54  1  0.02838506  0.66248912  0.33814557  1
  O  O55  1  0.00521451  0.16641827  0.57250055  1
loop_
_geom_bond_atom_site_label_1
_geom_bond_atom_site_label_2
_geom_bond_distance
_geom_bond_site_symmetry_2
Ba0 O40 2.729958 1_555
Ba0 O12 2.861935 1_555
Ba0 O38 2.880149 1_545
Ba0 O11 2.921185 1_555
Ba0 O27 2.947065 1_555
Ba0 O43 3.006576 1_555
Ba0 O4 3.016461 1_555
Ba0 O26 3.022850 1_545
Ba0 O47 3.059758 1_555
Ba0 O22 3.061396 1_545
Ba1 O54 2.729958 1_555
Ba1 O13 2.861935 1_554
Ba1 O39 2.880149 1_565
Ba1 O10 2.921185 1_555
Ba1 O26 2.947065 1_455
Ba1 O42 3.006576 1_455
Ba1 O3 3.016461 1_555
Ba1 O27 3.022850 1_565
Ba1 O46 3.059758 1_455
Ba1 O23 3.061396 1_565
Ba2 O53 2.729958 1_555
Ba2 O14 2.861935 1_555
Ba2 O36 2.880149 1_565
Ba2 O9 2.921185 1_555
Ba2 O25 2.947065 1_555
Ba2 O41 3.006576 1_555
Ba2 O2 3.016461 1_555
Ba2 O24 3.022850 1_565
Ba2 O45 3.059758 1_555
Ba2 O20 3.061396 1_565
Ba3 O52 2.729958 1_555
Ba3 O15 2.861935 1_556
Ba3 O37 2.880149 1_545
Ba3 O8 2.921185 1_555
Ba3 O24 2.947065 1_655
Ba3 O55 3.006576 1_655
Ba3 O1 3.016461 1_555
Ba3 O25 3.022850 1_545
Ba3 O44 3.059758 1_655
Ba3 O21 3.061396 1_545
Ba4 O30 2.658133 1_555
Ba4 O0 2.691771 1_555
Ba4 O54 2.710230 1_555
Ba4 O47 2.720526 1_555
Ba4 O51 2.772490 1_455
Ba4 O16 2.888144 1_555
Ba4 O49 2.989367 1_555
Ba4 O10 3.002470 1_555
Ba4 O32 3.017556 1_555
Ba5 O31 2.658133 1_555
Ba5 O33 2.691771 1_554
Ba5 O40 2.710230 1_555
Ba5 O46 2.720526 1_555
Ba5 O50 2.772490 1_555
Ba5 O17 2.888144 1_554
Ba5 O48 2.989367 1_554
Ba5 O11 3.002470 1_555
Ba5 O7 3.017556 1_555
Ba6 O28 2.658133 1_555
Ba6 O34 2.691771 1_555
Ba6 O52 2.710230 1_555
Ba6 O45 2.720526 1_555
Ba6 O49 2.772490 1_655
Ba6 O18 2.888144 1_555
Ba6 O51 2.989367 1_555
Ba6 O8 3.002470 1_555
Ba6 O6 3.017556 1_555
Ba7 O29 2.658133 1_555
Ba7 O35 2.691771 1_556
Ba7 O53 2.710230 1_555
Ba7 O44 2.720526 1_555
Ba7 O48 2.772490 1_555
Ba7 O19 2.888144 1_556
Ba7 O50 2.989367 1_556
Ba7 O9 3.002470 1_555
Ba7 O5 3.017556 1_555
B0 O12 1.359054 1_555
B0 O25 1.365349 1_545
B0 O38 1.392386 1_545
B1 O55 1.350989 1_555
B1 O32 1.359991 1_555
B1 O36 1.403763 1_555
B2 O41 1.350989 1_554
B2 O7 1.359991 1_555
B2 O37 1.403763 1_554
B3 O42 1.350989 1_555
B3 O6 1.359991 1_555
B3 O38 1.403763 1_555
B4 O43 1.350989 1_556
B4 O5 1.359991 1_555
B4 O39 1.403763 1_556
B5 O4 1.369712 1_555
B5 O51 1.373647 1_555
B5 O31 1.381510 1_555
B6 O3 1.369712 1_555
B6 O50 1.373647 1_555
B6 O30 1.381510 1_555
B7 O2 1.369712 1_555
B7 O49 1.373647 1_555
B7 O29 1.381510 1_555
B8 O1 1.369712 1_555
B8 O48 1.373647 1_555
B8 O28 1.381510 1_555
B9 O13 1.359054 1_555
B9 O24 1.365349 1_565
B9 O39 1.392386 1_566
B10 O14 1.359054 1_555
B10 O27 1.365349 1_565
B10 O36 1.392386 1_565
B11 O15 1.359054 1_555
B11 O26 1.365349 1_545
B11 O37 1.392386 1_544
B12 O44 1.444045 1_555
B12 O20 1.478389 1_555
B12 O5 1.483321 1_555
B12 O24 1.510702 1_555
B13 O45 1.444045 1_555
B13 O21 1.478389 1_555
B13 O6 1.483321 1_555
B13 O25 1.510702 1_555
B14 O46 1.444045 1_555
B14 O22 1.478389 1_555
B14 O7 1.483321 1_555
B14 O26 1.510702 1_555
B15 O47 1.444045 1_555
B15 O23 1.478389 1_555
B15 O32 1.483321 1_555
B15 O27 1.510702 1_555
B16 O8 1.445163 1_555
B16 O16 1.459141 1_555
B16 O12 1.487470 1_555
B16 O4 1.507115 1_555
B17 O9 1.445163 1_555
B17 O17 1.459141 1_455
B17 O13 1.487470 1_555
B17 O3 1.507115 1_556
B18 O10 1.445163 1_555
B18 O18 1.459141 1_555
B18 O14 1.487470 1_555
B18 O2 1.507115 1_555
B19 O11 1.445163 1_555
B19 O19 1.459141 1_655
B19 O15 1.487470 1_555
B19 O1 1.507115 1_554
B20 O16 1.366648 1_555
B20 O0 1.370438 1_555
B20 O20 1.373011 1_555
B21 O17 1.366648 1_555
B21 O33 1.370438 1_555
B21 O21 1.373011 1_555
B22 O18 1.366648 1_555
B22 O34 1.370438 1_555
B22 O22 1.373011 1_555
B23 O19 1.366648 1_555
B23 O35 1.370438 1_555
B23 O23 1.373011 1_555
B24 O52 1.445402 1_455
B24 O44 1.453117 1_555
B24 O0 1.462835 1_555
B24 O29 1.527884 1_555
B25 O53 1.445402 1_555
B25 O45 1.453117 1_555
B25 O33 1.462835 1_555
B25 O28 1.527884 1_555
B26 O54 1.445402 1_655
B26 O46 1.453117 1_555
B26 O34 1.462835 1_555
B26 O31 1.527884 1_555
B27 O40 1.445402 1_555
B27 O47 1.453117 1_555
B27 O35 1.462835 1_555
B27 O30 1.527884 1_555
B28 O8 1.455737 1_555
B28 O52 1.456852 1_555
B28 O51 1.461557 1_555
B28 O55 1.489953 1_655
B29 O9 1.455737 1_555
B29 O53 1.456852 1_555
B29 O50 1.461557 1_556
B29 O41 1.489953 1_555
B30 O10 1.455737 1_555
B30 O54 1.456852 1_555
B30 O49 1.461557 1_555
B30 O42 1.489953 1_455
B31 O11 1.455737 1_555
B31 O40 1.456852 1_555
B31 O48 1.461557 1_554
B31 O43 1.489953 1_555
