# generated using pymatgen
data_LiMn6PO12
_symmetry_space_group_name_H-M   'P 1'
_cell_length_a   11.57319751
_cell_length_b   11.57319751
_cell_length_c   11.57319751
_cell_angle_alpha   131.76089452
_cell_angle_beta   131.76089452
_cell_angle_gamma   70.60693116
_symmetry_Int_Tables_number   1
_chemical_formula_structural   LiMn6PO12
_chemical_formula_sum   'Li4 Mn24 P4 O48'
_cell_volume   844.98843169
_cell_formula_units_Z   4
loop_
 _symmetry_equiv_pos_site_id
 _symmetry_equiv_pos_as_xyz
  1  'x, y, z'
loop_
 _atom_site_type_symbol
 _atom_site_label
 _atom_site_symmetry_multiplicity
 _atom_site_fract_x
 _atom_site_fract_y
 _atom_site_fract_z
 _atom_site_occupancy
  Li  Li0  1  0.25000000  0.25000000  0.00000000  1
  Li  Li1  1  0.00000000  0.50000000  0.50000000  1
  Li  Li2  1  0.75000000  0.75000000  0.00000000  1
  Li  Li3  1  0.50000000  0.00000000  0.50000000  1
  Mn  Mn0  1  0.87500000  0.62500000  0.75000000  1
  Mn  Mn1  1  0.87500000  0.12500000  0.25000000  1
  Mn  Mn2  1  0.98448800  0.51551200  0.00000000  1
  Mn  Mn3  1  0.12500000  0.39809700  0.77309700  1
  Mn  Mn4  1  0.87500000  0.12500000  0.75000000  1
  Mn  Mn5  1  0.12500000  0.89809700  0.27309700  1
  Mn  Mn6  1  0.87500000  0.62500000  0.25000000  1
  Mn  Mn7  1  0.01551200  0.01551200  0.53102400  1
  Mn  Mn8  1  0.10190300  0.37500000  0.22690300  1
  Mn  Mn9  1  0.37500000  0.62500000  0.25000000  1
  Mn  Mn10  1  0.37500000  0.12500000  0.75000000  1
  Mn  Mn11  1  0.14809700  0.87500000  0.77309700  1
  Mn  Mn12  1  0.23448800  0.26551200  0.50000000  1
  Mn  Mn13  1  0.48448800  0.48448800  0.46897600  1
  Mn  Mn14  1  0.37500000  0.12500000  0.25000000  1
  Mn  Mn15  1  0.62500000  0.35190300  0.22690300  1
  Mn  Mn16  1  0.37500000  0.62500000  0.75000000  1
  Mn  Mn17  1  0.62500000  0.85190300  0.72690300  1
  Mn  Mn18  1  0.26551200  0.76551200  0.03102400  1
  Mn  Mn19  1  0.51551200  0.98448800  0.00000000  1
  Mn  Mn20  1  0.60190300  0.37500000  0.72690300  1
  Mn  Mn21  1  0.64809700  0.87500000  0.27309700  1
  Mn  Mn22  1  0.73448800  0.23448800  0.96897600  1
  Mn  Mn23  1  0.76551200  0.73448800  0.50000000  1
  P  P0  1  0.25000000  0.75000000  0.50000000  1
  P  P1  1  0.00000000  0.00000000  0.00000000  1
  P  P2  1  0.75000000  0.25000000  0.50000000  1
  P  P3  1  0.50000000  0.50000000  0.00000000  1
  O  O0  1  0.88295200  0.39802700  0.68745000  1
  O  O1  1  0.96538800  0.70467700  0.02270800  1
  O  O2  1  0.96611800  0.98983900  0.31709500  1
  O  O3  1  0.89902400  0.42274500  0.18290500  1
  O  O4  1  0.01016100  0.32725500  0.97627900  1
  O  O5  1  0.17274500  0.48983900  0.02372100  1
  O  O6  1  0.18196800  0.20467700  0.73928900  1
  O  O7  1  0.05732100  0.03461200  0.73928900  1
  O  O8  1  0.95467700  0.71538800  0.52270800  1
  O  O9  1  0.10197300  0.61704800  0.31255000  1
  O  O10  1  0.94550200  0.13295200  0.98492500  1
  O  O11  1  0.21057700  0.89802700  0.51507500  1
  O  O12  1  0.38295200  0.69550200  0.48492500  1
  O  O13  1  0.03942300  0.05449800  0.18745000  1
  O  O14  1  0.14802700  0.96057700  0.01507500  1
  O  O15  1  0.30449800  0.78942300  0.68745000  1
  O  O16  1  0.19267900  0.43196800  0.47729200  1
  O  O17  1  0.29532300  0.31803200  0.26071100  1
  O  O18  1  0.06803200  0.30732100  0.52270800  1
  O  O19  1  0.46538800  0.44267900  0.26071100  1
  O  O20  1  0.46611800  0.14902400  0.97627900  1
  O  O21  1  0.07725500  0.60097600  0.81709500  1
  O  O22  1  0.35097600  0.03388200  0.02372100  1
  O  O23  1  0.23983900  0.71611800  0.81709500  1
  O  O24  1  0.39902400  0.21611800  0.47627900  1
  O  O25  1  0.51016100  0.53388200  0.68290500  1
  O  O26  1  0.67274500  0.64902400  0.68290500  1
  O  O27  1  0.28388200  0.10097600  0.52372100  1
  O  O28  1  0.68196800  0.94267900  0.97729200  1
  O  O29  1  0.28461200  0.80732100  0.23928900  1
  O  O30  1  0.45467700  0.93196800  0.23928900  1
  O  O31  1  0.55732100  0.81803200  0.02270800  1
  O  O32  1  0.44550200  0.46057700  0.81255000  1
  O  O33  1  0.60197300  0.28942300  0.48492500  1
  O  O34  1  0.71057700  0.19550200  0.31255000  1
  O  O35  1  0.36704800  0.55449800  0.01507500  1
  O  O36  1  0.53942300  0.35197300  0.98492500  1
  O  O37  1  0.80449800  0.11704800  0.51507500  1
  O  O38  1  0.64802700  0.63295200  0.18745000  1
  O  O39  1  0.69267900  0.21538800  0.76071100  1
  O  O40  1  0.79532300  0.53461200  0.97729200  1
  O  O41  1  0.56803200  0.04532300  0.76071100  1
  O  O42  1  0.57725500  0.76016100  0.47627900  1
  O  O43  1  0.73983900  0.92274500  0.52372100  1
  O  O44  1  0.85097600  0.82725500  0.31709500  1
  O  O45  1  0.78388200  0.26016100  0.18290500  1
  O  O46  1  0.78461200  0.54532300  0.47729200  1
  O  O47  1  0.86704800  0.85197300  0.81255000  1
loop_
_geom_bond_atom_site_label_1
_geom_bond_atom_site_label_2
_geom_bond_distance
_geom_bond_site_symmetry_2
Li0 O17 2.236192 1_555
Li0 O19 2.236192 1_555
Li0 O7 2.236192 1_554
Li0 O6 2.236192 1_554
Li0 O5 2.498623 1_555
Li0 O4 2.498623 1_554
Li0 O20 2.498623 1_554
Li0 O22 2.498623 1_555
Li1 O16 2.236185 1_555
Li1 O18 2.236185 1_555
Li1 O8 2.236197 1_455
Li1 O46 2.236197 1_455
Li1 O23 2.498624 1_555
Li1 O45 2.498624 1_455
Li1 O21 2.498634 1_555
Li1 O3 2.498634 1_455
Li2 O28 2.236185 1_554
Li2 O31 2.236185 1_555
Li2 O1 2.236197 1_555
Li2 O40 2.236197 1_554
Li2 O2 2.498624 1_555
Li2 O25 2.498624 1_554
Li2 O44 2.498634 1_555
Li2 O26 2.498634 1_554
Li3 O30 2.236192 1_545
Li3 O41 2.236192 1_555
Li3 O39 2.236192 1_555
Li3 O29 2.236192 1_545
Li3 O43 2.498623 1_545
Li3 O24 2.498623 1_555
Li3 O42 2.498623 1_545
Li3 O27 2.498623 1_555
Mn0 O21 1.895674 1_655
Mn0 O26 1.895674 1_555
Mn0 O46 2.066812 1_555
Mn0 O1 2.066812 1_556
Mn0 O47 2.197236 1_555
Mn0 O0 2.197236 1_555
Mn1 O2 1.895685 1_545
Mn1 O45 1.895685 1_555
Mn1 O18 2.066821 1_655
Mn1 O28 2.066821 1_544
Mn1 O13 2.197236 1_655
Mn1 O34 2.197236 1_555
Mn2 O5 1.947449 1_655
Mn2 O4 1.947449 1_654
Mn2 O40 1.974928 1_554
Mn2 O1 1.974928 1_555
Mn2 O0 2.271900 1_554
Mn2 O9 2.271900 1_655
Mn3 O6 1.948192 1_555
Mn3 O18 1.948202 1_555
Mn3 O21 1.999538 1_555
Mn3 O5 1.999542 1_556
Mn3 O35 2.265264 1_556
Mn3 O0 2.265264 1_455
Mn4 O4 1.895678 1_655
Mn4 O43 1.895678 1_545
Mn4 O7 2.066822 1_655
Mn4 O39 2.066822 1_555
Mn4 O10 2.197236 1_555
Mn4 O37 2.197236 1_555
Mn5 O29 1.948192 1_555
Mn5 O1 1.948193 1_455
Mn5 O27 1.999542 1_565
Mn5 O2 1.999548 1_455
Mn5 O11 2.265264 1_555
Mn5 O13 2.265264 1_565
Mn6 O3 1.895674 1_555
Mn6 O44 1.895674 1_555
Mn6 O8 2.066812 1_555
Mn6 O40 2.066812 1_554
Mn6 O38 2.197236 1_555
Mn6 O9 2.197236 1_655
Mn7 O2 1.947438 1_445
Mn7 O44 1.947451 1_445
Mn7 O6 1.974922 1_555
Mn7 O7 1.974922 1_555
Mn7 O11 2.271900 1_545
Mn7 O37 2.271900 1_455
Mn8 O17 1.948192 1_555
Mn8 O16 1.948202 1_555
Mn8 O3 1.999538 1_455
Mn8 O4 1.999542 1_554
Mn8 O9 2.265264 1_555
Mn8 O10 2.265264 1_454
Mn9 O42 1.895678 1_555
Mn9 O5 1.895678 1_555
Mn9 O19 2.066822 1_555
Mn9 O29 2.066822 1_555
Mn9 O35 2.197236 1_555
Mn9 O12 2.197236 1_555
Mn10 O27 1.895678 1_555
Mn10 O20 1.895678 1_555
Mn10 O6 2.066822 1_555
Mn10 O41 2.066822 1_555
Mn10 O36 2.197236 1_555
Mn10 O11 2.197236 1_545
Mn11 O7 1.948192 1_565
Mn11 O8 1.948193 1_455
Mn11 O22 1.999542 1_566
Mn11 O23 1.999548 1_555
Mn11 O15 2.265264 1_555
Mn11 O14 2.265264 1_556
Mn12 O27 1.947449 1_555
Mn12 O24 1.947449 1_555
Mn12 O18 1.974915 1_555
Mn12 O16 1.974915 1_555
Mn12 O32 2.271900 1_555
Mn12 O13 2.271900 1_555
Mn13 O25 1.947438 1_555
Mn13 O26 1.947451 1_555
Mn13 O17 1.974922 1_555
Mn13 O19 1.974922 1_555
Mn13 O33 2.271900 1_555
Mn13 O12 2.271900 1_555
Mn14 O24 1.895678 1_555
Mn14 O22 1.895678 1_555
Mn14 O17 2.066822 1_555
Mn14 O30 2.066822 1_545
Mn14 O33 2.197236 1_555
Mn14 O14 2.197236 1_545
Mn15 O19 1.948192 1_555
Mn15 O46 1.948193 1_555
Mn15 O20 1.999542 1_554
Mn15 O45 1.999548 1_555
Mn15 O34 2.265264 1_555
Mn15 O36 2.265264 1_554
Mn16 O25 1.895685 1_555
Mn16 O23 1.895685 1_555
Mn16 O31 2.066821 1_556
Mn16 O16 2.066821 1_555
Mn16 O15 2.197236 1_555
Mn16 O32 2.197236 1_555
Mn17 O41 1.948192 1_565
Mn17 O28 1.948202 1_555
Mn17 O26 1.999538 1_555
Mn17 O42 1.999542 1_555
Mn17 O47 2.265264 1_555
Mn17 O12 2.265264 1_555
Mn18 O23 1.947438 1_554
Mn18 O21 1.947451 1_554
Mn18 O29 1.974922 1_555
Mn18 O30 1.974922 1_555
Mn18 O14 2.271900 1_555
Mn18 O35 2.271900 1_555
Mn19 O22 1.947449 1_565
Mn19 O20 1.947449 1_564
Mn19 O31 1.974915 1_555
Mn19 O28 1.974915 1_554
Mn19 O15 2.271900 1_554
Mn19 O34 2.271900 1_565
Mn20 O39 1.948192 1_555
Mn20 O40 1.948193 1_555
Mn20 O24 1.999542 1_555
Mn20 O25 1.999548 1_555
Mn20 O33 2.265264 1_555
Mn20 O32 2.265264 1_555
Mn21 O30 1.948192 1_555
Mn21 O31 1.948202 1_555
Mn21 O44 1.999538 1_555
Mn21 O43 1.999542 1_555
Mn21 O38 2.265264 1_555
Mn21 O37 2.265264 1_565
Mn22 O45 1.947438 1_556
Mn22 O3 1.947451 1_556
Mn22 O41 1.974922 1_555
Mn22 O39 1.974922 1_555
Mn22 O36 2.271900 1_555
Mn22 O10 2.271900 1_555
Mn23 O42 1.947449 1_555
Mn23 O43 1.947449 1_555
Mn23 O46 1.974928 1_555
Mn23 O8 1.974928 1_555
Mn23 O47 2.271900 1_555
Mn23 O38 2.271900 1_555
O0 P2 1.536978 1_555
O9 P0 1.536978 1_555
O10 P1 1.536978 1_656
O11 P0 1.536978 1_555
O12 P0 1.536978 1_555
O13 P1 1.536978 1_555
O14 P1 1.536978 1_565
O15 P0 1.536978 1_555
O32 P3 1.536978 1_556
O33 P2 1.536978 1_555
O34 P2 1.536978 1_555
O35 P3 1.536978 1_555
O36 P3 1.536978 1_556
O37 P2 1.536978 1_555
O38 P3 1.536978 1_555
O47 P1 1.536978 1_666
