# generated using pymatgen
data_CrB
_symmetry_space_group_name_H-M   'P 1'
_cell_length_a   2.90195057
_cell_length_b   2.90339431
_cell_length_c   4.16061840
_cell_angle_alpha   110.42091999
_cell_angle_beta   90.00000000
_cell_angle_gamma   90.00000000
_symmetry_Int_Tables_number   1
_chemical_formula_structural   CrB
_chemical_formula_sum   'Cr2 B2'
_cell_volume   32.85225495
_cell_formula_units_Z   2
loop_
 _symmetry_equiv_pos_site_id
 _symmetry_equiv_pos_as_xyz
  1  'x, y, z'
loop_
 _atom_site_type_symbol
 _atom_site_label
 _atom_site_symmetry_multiplicity
 _atom_site_fract_x
 _atom_site_fract_y
 _atom_site_fract_z
 _atom_site_occupancy
  Cr  Cr0  1  0.75000000  0.14537805  0.29075711  1
  Cr  Cr1  1  0.25000000  0.85462195  0.70924289  1
  B  B0  1  0.75000000  0.43505866  0.87011632  1
  B  B1  1  0.25000000  0.56494134  0.12988368  1
loop_
_geom_bond_atom_site_label_1
_geom_bond_atom_site_label_2
_geom_bond_distance
_geom_bond_site_symmetry_2
B0 B1 1.769530 1_656
B0 B1 1.769530 1_556
B0 Cr1 2.146210 1_545
B0 Cr1 2.146210 1_645
B0 Cr1 2.146211 1_655
B0 Cr1 2.146211 1_555
B0 Cr0 2.190312 1_566
B0 Cr0 2.190317 1_556
B0 Cr0 2.259004 1_555
B1 Cr0 2.146210 1_565
B1 Cr0 2.146210 1_465
B1 Cr0 2.146211 1_455
B1 Cr0 2.146211 1_555
B1 Cr1 2.190312 1_544
B1 Cr1 2.190317 1_554
B1 Cr1 2.259004 1_555
