# generated using pymatgen
data_Ca2RuO4
_symmetry_space_group_name_H-M   'P 1'
_cell_length_a   5.38544485
_cell_length_b   5.42263810
_cell_length_c   12.09252077
_cell_angle_alpha   90.00000000
_cell_angle_beta   90.00000000
_cell_angle_gamma   90.00000000
_symmetry_Int_Tables_number   1
_chemical_formula_structural   Ca2RuO4
_chemical_formula_sum   'Ca8 Ru4 O16'
_cell_volume   353.14173466
_cell_formula_units_Z   4
loop_
 _symmetry_equiv_pos_site_id
 _symmetry_equiv_pos_as_xyz
  1  'x, y, z'
loop_
 _atom_site_type_symbol
 _atom_site_label
 _atom_site_symmetry_multiplicity
 _atom_site_fract_x
 _atom_site_fract_y
 _atom_site_fract_z
 _atom_site_occupancy
  Ca  Ca0  1  0.51071210  0.04436803  0.15072747  1
  Ca  Ca1  1  0.01071210  0.45563197  0.84927253  1
  Ca  Ca2  1  0.48928790  0.54436803  0.34927253  1
  Ca  Ca3  1  0.98928790  0.95563197  0.65072747  1
  Ca  Ca4  1  0.48928790  0.95563197  0.84927253  1
  Ca  Ca5  1  0.98928790  0.54436803  0.15072747  1
  Ca  Ca6  1  0.51071210  0.45563197  0.65072747  1
  Ca  Ca7  1  0.01071210  0.04436803  0.34927253  1
  Ru  Ru0  1  0.50000000  -0.00000000  0.50000000  1
  Ru  Ru1  1  0.00000000  0.50000000  0.50000000  1
  Ru  Ru2  1  0.50000000  0.50000000  0.00000000  1
  Ru  Ru3  1  0.00000000  -0.00000000  0.00000000  1
  O  O0  1  0.69844203  0.30029617  0.47775279  1
  O  O1  1  0.19844203  0.19970383  0.52224721  1
  O  O2  1  0.30155797  0.80029617  0.02224721  1
  O  O3  1  0.80155797  0.69970383  0.97775279  1
  O  O4  1  0.30155797  0.69970383  0.52224721  1
  O  O5  1  0.80155797  0.80029617  0.47775279  1
  O  O6  1  0.69844203  0.19970383  0.97775279  1
  O  O7  1  0.19844203  0.30029617  0.02224721  1
  O  O8  1  0.44217250  0.98432883  0.33391983  1
  O  O9  1  0.94217250  0.51567117  0.66608017  1
  O  O10  1  0.55782750  0.48432883  0.16608017  1
  O  O11  1  0.05782750  0.01567117  0.83391983  1
  O  O12  1  0.55782750  0.01567117  0.66608017  1
  O  O13  1  0.05782750  0.48432883  0.33391983  1
  O  O14  1  0.44217250  0.51567117  0.83391983  1
  O  O15  1  0.94217250  0.98432883  0.16608017  1
loop_
_geom_bond_atom_site_label_1
_geom_bond_atom_site_label_2
_geom_bond_distance
_geom_bond_site_symmetry_2
Ca0 O8 2.269275 1_545
Ca0 O2 2.331151 1_545
Ca0 O15 2.353637 1_545
Ca0 O10 2.406376 1_555
Ca0 O6 2.471208 1_554
Ca0 O7 2.677311 1_555
Ca1 O9 2.269275 1_455
Ca1 O3 2.331151 1_455
Ca1 O14 2.353637 1_555
Ca1 O11 2.406376 1_555
Ca1 O7 2.471208 1_556
Ca1 O6 2.677311 1_455
Ca2 O10 2.269275 1_555
Ca2 O0 2.331151 1_555
Ca2 O13 2.353637 1_555
Ca2 O8 2.406376 1_555
Ca2 O4 2.471208 1_555
Ca2 O5 2.677311 1_555
Ca3 O11 2.269275 1_665
Ca3 O1 2.331151 1_665
Ca3 O12 2.353637 1_565
Ca3 O9 2.406376 1_555
Ca3 O5 2.471208 1_555
Ca3 O4 2.677311 1_655
Ca4 O12 2.269275 1_565
Ca4 O6 2.331151 1_565
Ca4 O11 2.353637 1_565
Ca4 O14 2.406376 1_555
Ca4 O2 2.471208 1_556
Ca4 O3 2.677311 1_555
Ca5 O13 2.269275 1_655
Ca5 O7 2.331151 1_655
Ca5 O10 2.353637 1_555
Ca5 O15 2.406376 1_555
Ca5 O3 2.471208 1_554
Ca5 O2 2.677311 1_655
Ca6 O14 2.269275 1_555
Ca6 O4 2.331151 1_555
Ca6 O9 2.353637 1_555
Ca6 O12 2.406376 1_555
Ca6 O0 2.471208 1_555
Ca6 O1 2.677311 1_555
Ca7 O15 2.269275 1_445
Ca7 O5 2.331151 1_445
Ca7 O8 2.353637 1_545
Ca7 O13 2.406376 1_555
Ca7 O1 2.471208 1_555
Ca7 O0 2.677311 1_455
O0 Ru0 1.966258 1_555
O0 Ru1 1.970418 1_655
O1 Ru1 1.966258 1_555
O1 Ru0 1.970418 1_555
O2 Ru2 1.966258 1_555
O2 Ru3 1.970418 1_565
O3 Ru3 1.966258 1_666
O3 Ru2 1.970418 1_556
O4 Ru0 1.966258 1_565
O4 Ru1 1.970418 1_555
O5 Ru1 1.966258 1_655
O5 Ru0 1.970418 1_565
O6 Ru2 1.966258 1_556
O6 Ru3 1.970418 1_656
O7 Ru3 1.966258 1_555
O7 Ru2 1.970418 1_555
O8 Ru0 2.034106 1_565
O9 Ru1 2.034106 1_655
O10 Ru2 2.034106 1_555
O11 Ru3 2.034106 1_556
O12 Ru0 2.034106 1_555
O13 Ru1 2.034106 1_555
O14 Ru2 2.034106 1_556
O15 Ru3 2.034106 1_665
