# generated using pymatgen
data_Na3HfZrSi2PO12
_symmetry_space_group_name_H-M   'P 1'
_cell_length_a   15.90440851
_cell_length_b   9.16365736
_cell_length_c   9.15142695
_cell_angle_alpha   89.98448477
_cell_angle_beta   124.87576468
_cell_angle_gamma   90.00580608
_symmetry_Int_Tables_number   1
_chemical_formula_structural   Na3HfZrSi2PO12
_chemical_formula_sum   'Na12 Hf4 Zr4 Si8 P4 O48'
_cell_volume   1094.20209282
_cell_formula_units_Z   4
loop_
 _symmetry_equiv_pos_site_id
 _symmetry_equiv_pos_as_xyz
  1  'x, y, z'
loop_
 _atom_site_type_symbol
 _atom_site_label
 _atom_site_symmetry_multiplicity
 _atom_site_fract_x
 _atom_site_fract_y
 _atom_site_fract_z
 _atom_site_occupancy
  Na  Na0  1  0.24176923  0.77816757  0.99520681  1
  Na  Na1  1  0.74123506  0.72322610  0.49418089  1
  Na  Na2  1  0.74089109  0.27730325  0.99398528  1
  Na  Na3  1  0.24191237  0.22266907  0.49516432  1
  Na  Na4  1  0.50273847  0.11124479  0.75098011  1
  Na  Na5  1  0.50319072  0.88671542  0.25315666  1
  Na  Na6  1  0.00279488  0.61172967  0.75104398  1
  Na  Na7  1  0.00376498  0.39051100  0.25345917  1
  Na  Na8  1  0.80661340  0.93749690  0.21176485  1
  Na  Na9  1  0.80708372  0.06218523  0.71220152  1
  Na  Na10  1  0.30850828  0.43736182  0.21521930  1
  Na  Na11  1  0.30707146  0.56339186  0.71070386  1
  Hf  Hf0  1  0.10552246  0.75067804  0.56023356  1
  Hf  Hf1  1  0.60585170  0.25017989  0.56065159  1
  Hf  Hf2  1  0.39582329  0.75524791  0.43704566  1
  Hf  Hf3  1  0.60535033  0.74975944  0.06022799  1
  Zr  Zr0  1  0.89520847  0.74423059  0.93633255  1
  Zr  Zr1  1  0.89473285  0.25592349  0.43587051  1
  Zr  Zr2  1  0.10586499  0.24951817  0.06041104  1
  Zr  Zr3  1  0.39486367  0.24339322  0.93590538  1
  Si  Si0  1  0.35514388  0.89357302  0.75824111  1
  Si  Si1  1  0.64755141  0.89726354  0.74381843  1
  Si  Si2  1  0.64793781  0.10251581  0.24397523  1
  Si  Si3  1  0.35600983  0.10374476  0.26120239  1
  Si  Si4  1  0.85424164  0.39439131  0.76031068  1
  Si  Si5  1  0.14862949  0.39801764  0.74262904  1
  Si  Si6  1  0.14909253  0.60461051  0.24432491  1
  Si  Si7  1  0.85476502  0.60605869  0.26046571  1
  P  P0  1  0.00103600  0.95780946  0.74377665  1
  P  P1  1  0.00106953  0.04047789  0.24602856  1
  P  P2  1  0.50204997  0.46081445  0.74551774  1
  P  P3  1  0.50161739  0.54044247  0.24664060  1
  O  O0  1  0.15335906  0.57844708  0.74360702  1
  O  O1  1  0.84957298  0.57322577  0.75205520  1
  O  O2  1  0.84946795  0.42706910  0.25235968  1
  O  O3  1  0.15435249  0.42392637  0.24654495  1
  O  O4  1  0.65226698  0.07798387  0.74343793  1
  O  O5  1  0.35076100  0.07286771  0.75210571  1
  O  O6  1  0.35138099  0.92471642  0.25683737  1
  O  O7  1  0.65186976  0.92185813  0.24343699  1
  O  O8  1  0.43869909  0.55281807  0.57343477  1
  O  O9  1  0.56049827  0.56258570  0.90820832  1
  O  O10  1  0.56020795  0.43730009  0.40803073  1
  O  O11  1  0.43602165  0.45004475  0.07379723  1
  O  O12  1  0.93885793  0.04932161  0.57225069  1
  O  O13  1  0.05891169  0.05951184  0.90743912  1
  O  O14  1  0.05737995  0.93702414  0.40754067  1
  O  O15  1  0.93961697  0.95088091  0.07265522  1
  O  O16  1  0.25638232  0.82034450  0.74140828  1
  O  O17  1  0.74829670  0.83915989  0.75380355  1
  O  O18  1  0.74822093  0.16093750  0.25307814  1
  O  O19  1  0.25845585  0.17949361  0.24627546  1
  O  O20  1  0.75641197  0.31922557  0.74402829  1
  O  O21  1  0.24844868  0.33849067  0.75106733  1
  O  O22  1  0.25042517  0.66301194  0.25621787  1
  O  O23  1  0.75648094  0.68090496  0.24341388  1
  O  O24  1  0.36085636  0.83948827  0.59282009  1
  O  O25  1  0.64840846  0.85535403  0.92018294  1
  O  O26  1  0.64865379  0.14543072  0.41977028  1
  O  O27  1  0.35957167  0.15577580  0.09273204  1
  O  O28  1  0.86008047  0.33876351  0.59555341  1
  O  O29  1  0.15052915  0.35505087  0.91977962  1
  O  O30  1  0.14800726  0.64739364  0.41833291  1
  O  O31  1  0.85996415  0.66028187  0.09436442  1
  O  O32  1  0.46102312  0.83522699  0.94051029  1
  O  O33  1  0.54186875  0.83504845  0.56518820  1
  O  O34  1  0.54283914  0.16471220  0.06428887  1
  O  O35  1  0.46213156  0.16345051  0.44095022  1
  O  O36  1  0.96055493  0.33795420  0.94353309  1
  O  O37  1  0.04264216  0.33693676  0.56447156  1
  O  O38  1  0.04365157  0.66427644  0.06337401  1
  O  O39  1  0.96153939  0.66285276  0.44203676  1
  O  O40  1  0.07903862  0.85617267  0.74468886  1
  O  O41  1  0.92280640  0.86202538  0.75111940  1
  O  O42  1  0.92268250  0.13639718  0.25245659  1
  O  O43  1  0.08011705  0.14291507  0.25012333  1
  O  O44  1  0.57869853  0.35866494  0.74303588  1
  O  O45  1  0.42449085  0.36472667  0.75462483  1
  O  O46  1  0.42545927  0.63760532  0.25925956  1
  O  O47  1  0.57810164  0.64169262  0.24309235  1
loop_
_geom_bond_atom_site_label_1
_geom_bond_atom_site_label_2
_geom_bond_distance
_geom_bond_site_symmetry_2
Na0 O40 2.383126 1_555
Na0 O6 2.408964 1_556
Na0 O16 2.492944 1_555
Na0 O22 2.541777 1_556
Na0 O0 2.632005 1_555
Na0 O46 2.821192 1_556
Na1 O47 2.398435 1_555
Na1 O1 2.403345 1_555
Na1 O23 2.472350 1_555
Na1 O17 2.546061 1_555
Na1 O7 2.620538 1_555
Na1 O41 2.778764 1_555
Na2 O44 2.389324 1_555
Na2 O2 2.405859 1_556
Na2 O20 2.467033 1_555
Na2 O18 2.540706 1_556
Na2 O4 2.624096 1_555
Na2 O42 2.792819 1_556
Na3 O43 2.363449 1_555
Na3 O5 2.398726 1_555
Na3 O19 2.469714 1_555
Na3 O21 2.518844 1_555
Na3 O3 2.625267 1_555
Na3 O45 2.807229 1_555
Na4 O4 2.437456 1_555
Na4 O5 2.448369 1_555
Na4 O35 2.568969 1_555
Na4 O44 2.589424 1_555
Na4 O34 2.603313 1_556
Na4 O45 2.644512 1_555
Na5 O7 2.437943 1_555
Na5 O6 2.458683 1_555
Na5 O47 2.568168 1_555
Na5 O32 2.581650 1_554
Na5 O33 2.597527 1_555
Na5 O46 2.611666 1_555
Na6 O0 2.453255 1_555
Na6 O1 2.467528 1_455
Na6 O39 2.554249 1_455
Na6 O40 2.563475 1_555
Na6 O38 2.588524 1_556
Na6 O41 2.623113 1_455
Na7 O3 2.450911 1_555
Na7 O2 2.471111 1_455
Na7 O36 2.553478 1_454
Na7 O43 2.581931 1_555
Na7 O37 2.590552 1_555
Na7 O42 2.659206 1_455
Na8 O18 2.366465 1_565
Na8 O42 2.466178 1_565
Na8 O25 2.518023 1_554
Na8 O23 2.551798 1_555
Na8 O7 2.641452 1_555
Na8 O12 2.902303 1_565
Na9 O17 2.366899 1_545
Na9 O41 2.475735 1_545
Na9 O26 2.525980 1_555
Na9 O20 2.559600 1_555
Na9 O4 2.640164 1_555
Na9 O15 2.900278 1_546
Na10 O22 2.380552 1_555
Na10 O46 2.476220 1_555
Na10 O29 2.534540 1_554
Na10 O19 2.560529 1_555
Na10 O3 2.629098 1_555
Na10 O8 2.896921 1_555
Na10 O11 2.966960 1_555
Na11 O21 2.376168 1_555
Na11 O45 2.470864 1_555
Na11 O30 2.531779 1_555
Na11 O16 2.555963 1_555
Na11 O0 2.632149 1_555
Hf0 O30 2.010709 1_555
Hf0 O39 2.056472 1_455
Hf0 O14 2.056749 1_555
Hf0 O16 2.089080 1_555
Hf0 O0 2.103474 1_555
Hf0 O40 2.185288 1_555
Hf1 O26 2.012830 1_555
Hf1 O35 2.047692 1_555
Hf1 O10 2.063349 1_555
Hf1 O20 2.086928 1_555
Hf1 O4 2.102289 1_555
Hf1 O44 2.187665 1_555
Hf2 O24 1.960796 1_555
Hf2 O33 2.047019 1_555
Hf2 O6 2.072866 1_555
Hf2 O22 2.103446 1_555
Hf2 O8 2.118858 1_555
Hf2 O46 2.215737 1_555
Hf3 O25 2.012636 1_554
Hf3 O32 2.051015 1_554
Hf3 O9 2.062116 1_554
Hf3 O23 2.092266 1_555
Hf3 O7 2.104318 1_555
Hf3 O47 2.190292 1_555
O0 Si5 1.654890 1_555
O1 Si4 1.640230 1_555
O1 Zr0 2.104225 1_555
O2 Si7 1.641872 1_555
O2 Zr1 2.101052 1_555
O3 Si6 1.657381 1_555
O3 Zr2 2.132963 1_555
O4 Si1 1.657842 1_545
O5 Si0 1.644063 1_545
O5 Zr3 2.101195 1_555
O6 Si3 1.641670 1_565
O7 Si2 1.656787 1_565
O8 P2 1.546248 1_555
O9 P2 1.538949 1_555
O10 P3 1.539009 1_555
O11 P3 1.545947 1_555
O11 Zr3 2.159475 1_554
O12 P0 1.539285 1_645
O12 Zr1 2.152171 1_555
O13 P0 1.543713 1_545
O13 Zr2 2.086758 1_556
O14 P1 1.539831 1_565
O15 P1 1.540730 1_665
O15 Zr0 2.152804 1_554
O16 Si0 1.632298 1_555
O17 Si1 1.640701 1_555
O17 Zr0 2.131339 1_555
O18 Si2 1.638688 1_555
O18 Zr1 2.127997 1_555
O19 Si3 1.632650 1_555
O19 Zr2 2.115096 1_555
O20 Si4 1.628569 1_555
O21 Si5 1.638241 1_555
O21 Zr3 2.130324 1_555
O22 Si6 1.641611 1_555
O23 Si7 1.630768 1_555
O24 Si0 1.644171 1_555
O25 Si1 1.651404 1_555
O26 Si2 1.649949 1_555
O27 Si3 1.645294 1_555
O27 Zr3 1.984941 1_554
O28 Si4 1.643890 1_555
O28 Zr1 1.984234 1_555
O29 Si5 1.651608 1_555
O29 Zr2 2.034899 1_556
O30 Si6 1.649721 1_555
O31 Si7 1.645493 1_555
O31 Zr0 1.980888 1_554
O32 Si0 1.640528 1_555
O33 Si1 1.637249 1_555
O34 Si2 1.636828 1_555
O34 Zr3 2.068035 1_554
O35 Si3 1.636812 1_555
O36 Si4 1.641761 1_555
O36 Zr2 2.077225 1_656
O37 Si5 1.634105 1_555
O37 Zr1 2.074625 1_455
O38 Si6 1.636250 1_555
O38 Zr0 2.079244 1_454
O39 Si7 1.639831 1_555
O40 P0 1.547562 1_555
O41 P0 1.555092 1_655
O41 Zr0 2.253985 1_555
O42 P1 1.553844 1_655
O42 Zr1 2.251445 1_555
O43 P1 1.552104 1_555
O43 Zr2 2.224456 1_555
O44 P2 1.547488 1_555
O45 P2 1.556009 1_555
O45 Zr3 2.259053 1_555
O46 P3 1.559953 1_555
O47 P3 1.544847 1_555
