# generated using pymatgen
data_CsI3F16
_symmetry_space_group_name_H-M   'P 1'
_cell_length_a   14.40090307
_cell_length_b   14.40090307
_cell_length_c   14.40090307
_cell_angle_alpha   90.00000000
_cell_angle_beta   90.00000000
_cell_angle_gamma   90.00000000
_symmetry_Int_Tables_number   1
_chemical_formula_structural   CsI3F16
_chemical_formula_sum   'Cs8 I24 F128'
_cell_volume   2986.54581702
_cell_formula_units_Z   8
loop_
 _symmetry_equiv_pos_site_id
 _symmetry_equiv_pos_as_xyz
  1  'x, y, z'
loop_
 _atom_site_type_symbol
 _atom_site_label
 _atom_site_symmetry_multiplicity
 _atom_site_fract_x
 _atom_site_fract_y
 _atom_site_fract_z
 _atom_site_occupancy
  Cs  Cs0  1  0.00000000  -0.00000000  0.00000000  1
  Cs  Cs1  1  0.50000000  0.50000000  0.50000000  1
  Cs  Cs2  1  0.00000000  0.50000000  0.50000000  1
  Cs  Cs3  1  0.50000000  -0.00000000  0.00000000  1
  Cs  Cs4  1  -0.00000000  -0.00000000  0.50000000  1
  Cs  Cs5  1  -0.00000000  0.50000000  0.00000000  1
  Cs  Cs6  1  0.50000000  -0.00000000  0.50000000  1
  Cs  Cs7  1  0.50000000  0.50000000  0.00000000  1
  I  I0  1  0.24935170  0.46788390  0.25370226  1
  I  I1  1  0.25064830  0.75370226  0.03211610  1
  I  I2  1  0.25064830  0.24629774  0.96788390  1
  I  I3  1  0.24629774  0.03211610  0.74935170  1
  I  I4  1  0.75370226  0.03211610  0.25064830  1
  I  I5  1  0.96788390  0.25064830  0.24629774  1
  I  I6  1  0.03211610  0.74935170  0.24629774  1
  I  I7  1  0.25370226  0.24935170  0.46788390  1
  I  I8  1  0.46788390  0.25370226  0.24935170  1
  I  I9  1  0.53211610  0.74629774  0.24935170  1
  I  I10  1  0.25370226  0.75064830  0.53211610  1
  I  I11  1  0.53211610  0.25370226  0.75064830  1
  I  I12  1  0.74629774  0.75064830  0.46788390  1
  I  I13  1  0.74629774  0.24935170  0.53211610  1
  I  I14  1  0.46788390  0.74629774  0.75064830  1
  I  I15  1  0.24935170  0.53211610  0.74629774  1
  I  I16  1  0.75064830  0.46788390  0.74629774  1
  I  I17  1  0.75064830  0.53211610  0.25370226  1
  I  I18  1  0.03211610  0.25064830  0.75370226  1
  I  I19  1  0.96788390  0.74935170  0.75370226  1
  I  I20  1  0.24629774  0.96788390  0.25064830  1
  I  I21  1  0.75370226  0.96788390  0.74935170  1
  I  I22  1  0.74935170  0.24629774  0.03211610  1
  I  I23  1  0.74935170  0.75370226  0.96788390  1
  F  F0  1  0.26791066  0.59424457  0.22919627  1
  F  F1  1  0.23208934  0.72919627  0.90575543  1
  F  F2  1  0.23208934  0.27080373  0.09424457  1
  F  F3  1  0.27080373  0.90575543  0.76791066  1
  F  F4  1  0.72919627  0.90575543  0.23208934  1
  F  F5  1  0.09424457  0.23208934  0.27080373  1
  F  F6  1  0.90575543  0.76791066  0.27080373  1
  F  F7  1  0.22919627  0.26791066  0.59424457  1
  F  F8  1  0.59424457  0.22919627  0.26791066  1
  F  F9  1  0.40575543  0.77080373  0.26791066  1
  F  F10  1  0.22919627  0.73208934  0.40575543  1
  F  F11  1  0.40575543  0.22919627  0.73208934  1
  F  F12  1  0.77080373  0.73208934  0.59424457  1
  F  F13  1  0.77080373  0.26791066  0.40575543  1
  F  F14  1  0.59424457  0.77080373  0.73208934  1
  F  F15  1  0.26791066  0.40575543  0.77080373  1
  F  F16  1  0.73208934  0.59424457  0.77080373  1
  F  F17  1  0.73208934  0.40575543  0.22919627  1
  F  F18  1  0.90575543  0.23208934  0.72919627  1
  F  F19  1  0.09424457  0.76791066  0.72919627  1
  F  F20  1  0.27080373  0.09424457  0.23208934  1
  F  F21  1  0.72919627  0.09424457  0.76791066  1
  F  F22  1  0.76791066  0.27080373  0.90575543  1
  F  F23  1  0.76791066  0.72919627  0.09424457  1
  F  F24  1  0.36442209  0.45694558  0.18443117  1
  F  F25  1  0.13557791  0.68443117  0.04305442  1
  F  F26  1  0.13557791  0.31556883  0.95694558  1
  F  F27  1  0.31556883  0.04305442  0.86442209  1
  F  F28  1  0.68443117  0.04305442  0.13557791  1
  F  F29  1  0.95694558  0.13557791  0.31556883  1
  F  F30  1  0.04305442  0.86442209  0.31556883  1
  F  F31  1  0.18443117  0.36442209  0.45694558  1
  F  F32  1  0.45694558  0.18443117  0.36442209  1
  F  F33  1  0.54305442  0.81556883  0.36442209  1
  F  F34  1  0.18443117  0.63557791  0.54305442  1
  F  F35  1  0.54305442  0.18443117  0.63557791  1
  F  F36  1  0.81556883  0.63557791  0.45694558  1
  F  F37  1  0.81556883  0.36442209  0.54305442  1
  F  F38  1  0.45694558  0.81556883  0.63557791  1
  F  F39  1  0.36442209  0.54305442  0.81556883  1
  F  F40  1  0.63557791  0.45694558  0.81556883  1
  F  F41  1  0.63557791  0.54305442  0.18443117  1
  F  F42  1  0.04305442  0.13557791  0.68443117  1
  F  F43  1  0.95694558  0.86442209  0.68443117  1
  F  F44  1  0.31556883  0.95694558  0.13557791  1
  F  F45  1  0.68443117  0.95694558  0.86442209  1
  F  F46  1  0.86442209  0.31556883  0.04305442  1
  F  F47  1  0.86442209  0.68443117  0.95694558  1
  F  F48  1  0.13854597  0.51609083  0.31514519  1
  F  F49  1  0.36145403  0.81514519  0.98390917  1
  F  F50  1  0.36145403  0.18485481  0.01609083  1
  F  F51  1  0.18485481  0.98390917  0.63854597  1
  F  F52  1  0.81514519  0.98390917  0.36145403  1
  F  F53  1  0.01609083  0.36145403  0.18485481  1
  F  F54  1  0.98390917  0.63854597  0.18485481  1
  F  F55  1  0.31514519  0.13854597  0.51609083  1
  F  F56  1  0.51609083  0.31514519  0.13854597  1
  F  F57  1  0.48390917  0.68485481  0.13854597  1
  F  F58  1  0.31514519  0.86145403  0.48390917  1
  F  F59  1  0.48390917  0.31514519  0.86145403  1
  F  F60  1  0.68485481  0.86145403  0.51609083  1
  F  F61  1  0.68485481  0.13854597  0.48390917  1
  F  F62  1  0.51609083  0.68485481  0.86145403  1
  F  F63  1  0.13854597  0.48390917  0.68485481  1
  F  F64  1  0.86145403  0.51609083  0.68485481  1
  F  F65  1  0.86145403  0.48390917  0.31514519  1
  F  F66  1  0.98390917  0.36145403  0.81514519  1
  F  F67  1  0.01609083  0.63854597  0.81514519  1
  F  F68  1  0.18485481  0.01609083  0.36145403  1
  F  F69  1  0.81514519  0.01609083  0.63854597  1
  F  F70  1  0.63854597  0.18485481  0.98390917  1
  F  F71  1  0.63854597  0.81514519  0.01609083  1
  F  F72  1  0.32003958  0.50050182  0.36254895  1
  F  F73  1  0.17996042  0.86254895  0.99949818  1
  F  F74  1  0.17996042  0.13745105  0.00050182  1
  F  F75  1  0.13745105  0.99949818  0.82003958  1
  F  F76  1  0.86254895  0.99949818  0.17996042  1
  F  F77  1  0.00050182  0.17996042  0.13745105  1
  F  F78  1  0.99949818  0.82003958  0.13745105  1
  F  F79  1  0.36254895  0.32003958  0.50050182  1
  F  F80  1  0.50050182  0.36254895  0.32003958  1
  F  F81  1  0.49949818  0.63745105  0.32003958  1
  F  F82  1  0.36254895  0.67996042  0.49949818  1
  F  F83  1  0.49949818  0.36254895  0.67996042  1
  F  F84  1  0.63745105  0.67996042  0.50050182  1
  F  F85  1  0.63745105  0.32003958  0.49949818  1
  F  F86  1  0.50050182  0.63745105  0.67996042  1
  F  F87  1  0.32003958  0.49949818  0.63745105  1
  F  F88  1  0.67996042  0.50050182  0.63745105  1
  F  F89  1  0.67996042  0.49949818  0.36254895  1
  F  F90  1  0.99949818  0.17996042  0.86254895  1
  F  F91  1  0.00050182  0.82003958  0.86254895  1
  F  F92  1  0.13745105  0.00050182  0.17996042  1
  F  F93  1  0.86254895  0.00050182  0.82003958  1
  F  F94  1  0.82003958  0.13745105  0.99949818  1
  F  F95  1  0.82003958  0.86254895  0.00050182  1
  F  F96  1  0.18415116  0.47637311  0.13533119  1
  F  F97  1  0.31584884  0.63533119  0.02362689  1
  F  F98  1  0.31584884  0.36466881  0.97637311  1
  F  F99  1  0.36466881  0.02362689  0.68415116  1
  F  F100  1  0.63533119  0.02362689  0.31584884  1
  F  F101  1  0.97637311  0.31584884  0.36466881  1
  F  F102  1  0.02362689  0.68415116  0.36466881  1
  F  F103  1  0.13533119  0.18415116  0.47637311  1
  F  F104  1  0.47637311  0.13533119  0.18415116  1
  F  F105  1  0.52362689  0.86466881  0.18415116  1
  F  F106  1  0.13533119  0.81584884  0.52362689  1
  F  F107  1  0.52362689  0.13533119  0.81584884  1
  F  F108  1  0.86466881  0.81584884  0.47637311  1
  F  F109  1  0.86466881  0.18415116  0.52362689  1
  F  F110  1  0.47637311  0.86466881  0.81584884  1
  F  F111  1  0.18415116  0.52362689  0.86466881  1
  F  F112  1  0.81584884  0.47637311  0.86466881  1
  F  F113  1  0.81584884  0.52362689  0.13533119  1
  F  F114  1  0.02362689  0.31584884  0.63533119  1
  F  F115  1  0.97637311  0.68415116  0.63533119  1
  F  F116  1  0.36466881  0.97637311  0.31584884  1
  F  F117  1  0.63533119  0.97637311  0.68415116  1
  F  F118  1  0.68415116  0.36466881  0.02362689  1
  F  F119  1  0.68415116  0.63533119  0.97637311  1
  F  F120  1  0.69172831  0.30827169  0.69172831  1
  F  F121  1  0.80827169  0.19172831  0.19172831  1
  F  F122  1  0.80827169  0.80827169  0.80827169  1
  F  F123  1  0.19172831  0.19172831  0.80827169  1
  F  F124  1  0.69172831  0.69172831  0.30827169  1
  F  F125  1  0.30827169  0.69172831  0.69172831  1
  F  F126  1  0.30827169  0.30827169  0.30827169  1
  F  F127  1  0.19172831  0.80827169  0.19172831  1
loop_
_geom_bond_atom_site_label_1
_geom_bond_atom_site_label_2
_geom_bond_distance
_geom_bond_site_symmetry_2
Cs0 F78 3.261059 1_445
Cs0 F93 3.261059 1_454
Cs0 F90 3.261059 1_454
Cs0 F76 3.261059 1_445
Cs0 F95 3.261059 1_445
Cs0 F77 3.261059 1_555
Cs0 F74 3.261059 1_555
Cs0 F91 3.261059 1_544
Cs0 F94 3.261059 1_454
Cs0 F75 3.261059 1_544
Cs0 F73 3.261059 1_544
Cs0 F92 3.261059 1_555
Cs1 F83 3.261059 1_555
Cs1 F87 3.261059 1_555
Cs1 F80 3.261059 1_555
Cs1 F81 3.261059 1_555
Cs1 F86 3.261059 1_555
Cs1 F85 3.261059 1_555
Cs1 F89 3.261059 1_555
Cs1 F79 3.261059 1_555
Cs1 F84 3.261059 1_555
Cs1 F88 3.261059 1_555
Cs1 F72 3.261059 1_555
Cs1 F82 3.261059 1_555
Cs2 F101 3.308587 1_455
Cs2 F102 3.308587 1_555
Cs2 F115 3.308587 1_455
Cs2 F114 3.308587 1_555
Cs2 F48 3.334834 1_555
Cs2 F65 3.334834 1_455
Cs2 F63 3.334834 1_555
Cs2 F64 3.334834 1_455
Cs2 F36 3.354202 1_455
Cs2 F37 3.354202 1_455
Cs2 F34 3.354202 1_555
Cs2 F31 3.354202 1_555
Cs3 F107 3.308587 1_554
Cs3 F104 3.308587 1_555
Cs3 F110 3.308587 1_544
Cs3 F105 3.308587 1_545
Cs3 F50 3.334834 1_555
Cs3 F71 3.334834 1_545
Cs3 F70 3.334834 1_554
Cs3 F49 3.334834 1_544
Cs3 F28 3.354202 1_555
Cs3 F45 3.354202 1_544
Cs3 F27 3.354202 1_554
Cs3 F44 3.354202 1_545
Cs4 F106 3.308587 1_545
Cs4 F103 3.308587 1_555
Cs4 F109 3.308587 1_455
Cs4 F108 3.308587 1_445
Cs4 F51 3.334834 1_545
Cs4 F52 3.334834 1_445
Cs4 F69 3.334834 1_455
Cs4 F68 3.334834 1_555
Cs4 F43 3.354202 1_445
Cs4 F30 3.354202 1_545
Cs4 F42 3.354202 1_555
Cs4 F29 3.354202 1_455
Cs5 F113 3.308587 1_455
Cs5 F96 3.308587 1_555
Cs5 F111 3.308587 1_554
Cs5 F112 3.308587 1_454
Cs5 F54 3.334834 1_455
Cs5 F67 3.334834 1_554
Cs5 F66 3.334834 1_454
Cs5 F53 3.334834 1_555
Cs5 F46 3.354202 1_455
Cs5 F47 3.354202 1_454
Cs5 F25 3.354202 1_555
Cs5 F26 3.354202 1_554
Cs6 F116 3.308587 1_545
Cs6 F99 3.308587 1_555
Cs6 F117 3.308587 1_545
Cs6 F100 3.308587 1_555
Cs6 F55 3.334834 1_555
Cs6 F58 3.334834 1_545
Cs6 F61 3.334834 1_555
Cs6 F60 3.334834 1_545
Cs6 F38 3.354202 1_545
Cs6 F33 3.354202 1_545
Cs6 F35 3.354202 1_555
Cs6 F32 3.354202 1_555
Cs7 F98 3.308587 1_554
Cs7 F118 3.308587 1_555
Cs7 F119 3.308587 1_554
Cs7 F97 3.308587 1_555
Cs7 F56 3.334834 1_555
Cs7 F59 3.334834 1_554
Cs7 F57 3.334834 1_555
Cs7 F62 3.334834 1_554
Cs7 F40 3.354202 1_554
Cs7 F39 3.354202 1_554
Cs7 F41 3.354202 1_555
Cs7 F24 3.354202 1_555
F0 I0 1.872782 1_555
F1 I1 1.872782 1_556
F2 I2 1.872782 1_554
F3 I3 1.872782 1_565
F4 I4 1.872782 1_565
F5 I5 1.872782 1_455
F6 I6 1.872782 1_655
F7 I7 1.872782 1_555
F8 I8 1.872782 1_555
F9 I9 1.872782 1_555
F10 I10 1.872782 1_555
F11 I11 1.872782 1_555
F12 I12 1.872782 1_555
F13 I13 1.872782 1_555
F14 I14 1.872782 1_555
F15 I15 1.872782 1_555
F16 I16 1.872782 1_555
F17 I17 1.872782 1_555
F18 I18 1.872782 1_655
F19 I19 1.872782 1_455
F20 I20 1.872782 1_545
F21 I21 1.872782 1_545
F22 I22 1.872782 1_556
F23 I23 1.872782 1_554
F24 I0 1.940616 1_555
F25 I1 1.940616 1_555
F26 I2 1.940616 1_555
F27 I3 1.940616 1_555
F28 I4 1.940616 1_555
F29 I5 1.940616 1_555
F30 I6 1.940616 1_555
F31 I7 1.940616 1_555
F32 I8 1.940616 1_555
F33 I9 1.940616 1_555
F34 I10 1.940616 1_555
F35 I11 1.940616 1_555
F36 I12 1.940616 1_555
F37 I13 1.940616 1_555
F38 I14 1.940616 1_555
F39 I15 1.940616 1_555
F40 I16 1.940616 1_555
F41 I17 1.940616 1_555
F42 I18 1.940616 1_555
F43 I19 1.940616 1_555
F44 I20 1.940616 1_555
F45 I21 1.940616 1_555
F46 I22 1.940616 1_555
F47 I23 1.940616 1_555
F48 I0 1.952215 1_555
F49 I1 1.952215 1_556
F50 I2 1.952215 1_554
F51 I3 1.952215 1_565
F52 I4 1.952215 1_565
F53 I5 1.952215 1_455
F54 I6 1.952215 1_655
F55 I7 1.952215 1_555
F56 I8 1.952215 1_555
F57 I9 1.952215 1_555
F58 I10 1.952215 1_555
F59 I11 1.952215 1_555
F60 I12 1.952215 1_555
F61 I13 1.952215 1_555
F62 I14 1.952215 1_555
F63 I15 1.952215 1_555
F64 I16 1.952215 1_555
F65 I17 1.952215 1_555
F66 I18 1.952215 1_655
F67 I19 1.952215 1_455
F68 I20 1.952215 1_545
F69 I21 1.952215 1_545
F70 I22 1.952215 1_556
F71 I23 1.952215 1_554
F72 I0 1.927157 1_555
F73 I1 1.927157 1_556
F74 I2 1.927157 1_554
F75 I3 1.927157 1_565
F76 I4 1.927157 1_565
F77 I5 1.927157 1_455
F78 I6 1.927157 1_655
F79 I7 1.927157 1_555
F80 I8 1.927157 1_555
F81 I9 1.927157 1_555
F82 I10 1.927157 1_555
F83 I11 1.927157 1_555
F84 I12 1.927157 1_555
F85 I13 1.927157 1_555
F86 I14 1.927157 1_555
F87 I15 1.927157 1_555
F88 I16 1.927157 1_555
F89 I17 1.927157 1_555
F90 I18 1.927157 1_655
F91 I19 1.927157 1_455
F92 I20 1.927157 1_545
F93 I21 1.927157 1_545
F94 I22 1.927157 1_556
F95 I23 1.927157 1_554
F96 I0 1.949974 1_555
F97 I1 1.949974 1_555
F98 I2 1.949974 1_555
F99 I3 1.949974 1_555
F100 I4 1.949974 1_555
F101 I5 1.949974 1_555
F102 I6 1.949974 1_555
F103 I7 1.949974 1_555
F104 I8 1.949974 1_555
F105 I9 1.949974 1_555
F106 I10 1.949974 1_555
F107 I11 1.949974 1_555
F108 I12 1.949974 1_555
F109 I13 1.949974 1_555
F110 I14 1.949974 1_555
F111 I15 1.949974 1_555
F112 I16 1.949974 1_555
F113 I17 1.949974 1_555
F114 I18 1.949974 1_555
F115 I19 1.949974 1_555
F116 I20 1.949974 1_555
F117 I21 1.949974 1_555
F118 I22 1.949974 1_555
F119 I23 1.949974 1_555
F120 I16 2.573109 1_555
F120 I11 2.573109 1_555
F120 I13 2.573109 1_555
F121 I4 2.573109 1_555
F121 I22 2.573109 1_555
F121 I5 2.573109 1_555
F122 I19 2.573109 1_555
F122 I23 2.573109 1_555
F122 I21 2.573109 1_555
F123 I2 2.573109 1_555
F123 I3 2.573109 1_555
F123 I18 2.573109 1_555
F124 I9 2.573109 1_555
F124 I17 2.573109 1_555
F124 I12 2.573109 1_555
F125 I10 2.573109 1_555
F125 I14 2.573109 1_555
F125 I15 2.573109 1_555
F126 I8 2.573109 1_555
F126 I0 2.573109 1_555
F126 I7 2.573109 1_555
F127 I6 2.573109 1_555
F127 I1 2.573109 1_555
F127 I20 2.573109 1_555
