# generated using pymatgen
data_Na2HfZnSi(SO6)2
_symmetry_space_group_name_H-M   'P 1'
_cell_length_a   8.96494125
_cell_length_b   8.99665023
_cell_length_c   22.80599779
_cell_angle_alpha   89.18778533
_cell_angle_beta   90.00000000
_cell_angle_gamma   119.88347780
_symmetry_Int_Tables_number   1
_chemical_formula_structural   Na2HfZnSi(SO6)2
_chemical_formula_sum   'Na12 Hf6 Zn6 Si6 S12 O72'
_cell_volume   1594.62539557
_cell_formula_units_Z   6
loop_
 _symmetry_equiv_pos_site_id
 _symmetry_equiv_pos_as_xyz
  1  'x, y, z'
loop_
 _atom_site_type_symbol
 _atom_site_label
 _atom_site_symmetry_multiplicity
 _atom_site_fract_x
 _atom_site_fract_y
 _atom_site_fract_z
 _atom_site_occupancy
  Na  Na0  1  0.99626708  0.63443426  0.23862640  1
  Na  Na1  1  0.63816718  0.63443426  0.73862640  1
  Na  Na2  1  0.65163334  0.95196643  0.57607901  1
  Na  Na3  1  0.30033409  0.95196643  0.07607901  1
  Na  Na4  1  0.69300504  0.02546465  0.90669904  1
  Na  Na5  1  0.33245860  0.02546465  0.40669904  1
  Na  Na6  1  0.97463537  0.98519231  0.49117739  1
  Na  Na7  1  0.01055694  0.98519231  0.99117739  1
  Na  Na8  1  0.65468673  0.30701085  0.82487518  1
  Na  Na9  1  0.65232512  0.30701085  0.32487518  1
  Na  Na10  1  0.32807600  0.65532040  0.15937291  1
  Na  Na11  1  0.32724341  0.65532040  0.65937291  1
  Hf  Hf0  1  0.99272628  0.99345716  0.64719484  1
  Hf  Hf1  1  0.00073088  0.99345716  0.14719484  1
  Hf  Hf2  1  0.66894147  0.34155577  0.98094229  1
  Hf  Hf3  1  0.67261531  0.34155577  0.48094229  1
  Hf  Hf4  1  0.34558072  0.68551921  0.31443798  1
  Hf  Hf5  1  0.33993749  0.68551921  0.81443798  1
  Zn  Zn0  1  0.99741938  0.00582903  0.34912680  1
  Zn  Zn1  1  0.00840966  0.00582903  0.84912680  1
  Zn  Zn2  1  0.66281802  0.32342525  0.68331467  1
  Zn  Zn3  1  0.66060823  0.32342525  0.18331467  1
  Zn  Zn4  1  0.29333818  0.66473395  0.01560644  1
  Zn  Zn5  1  0.37139477  0.66473395  0.51560644  1
  Si  Si0  1  0.30014600  0.01228491  0.25366808  1
  Si  Si1  1  0.71213891  0.01228491  0.75366808  1
  Si  Si2  1  0.66253886  0.61949030  0.58921255  1
  Si  Si3  1  0.95695244  0.61949030  0.08921255  1
  Si  Si4  1  0.32618078  0.96972423  0.91945494  1
  Si  Si5  1  0.64354245  0.96972423  0.41945494  1
  S  S0  1  0.70625768  0.70758691  0.25188656  1
  S  S1  1  0.00264419  0.29474724  0.25110672  1
  S  S2  1  0.29210305  0.29474724  0.75110672  1
  S  S3  1  0.00132923  0.70758691  0.75188656  1
  S  S4  1  0.96530661  0.33895144  0.58379441  1
  S  S5  1  0.37111109  0.04045037  0.58315206  1
  S  S6  1  0.66934028  0.04045037  0.08315206  1
  S  S7  1  0.37364583  0.33895144  0.08379441  1
  S  S8  1  0.61733955  0.66294299  0.91857814  1
  S  S9  1  0.04140341  0.37404282  0.91855007  1
  S  S10  1  0.33263841  0.37404282  0.41855007  1
  S  S11  1  0.04560244  0.66294299  0.41857814  1
  O  O0  1  0.20833468  0.02237660  0.31357078  1
  O  O1  1  0.81022757  0.79063149  0.30329152  1
  O  O2  1  0.98113330  0.19378923  0.30408602  1
  O  O3  1  0.21265593  0.19378923  0.80408602  1
  O  O4  1  0.98040392  0.79063149  0.80329152  1
  O  O5  1  0.81404192  0.02237660  0.81357078  1
  O  O6  1  0.80554784  0.97563032  0.69614440  1
  O  O7  1  0.19020873  0.20923487  0.69746456  1
  O  O8  1  0.03275943  0.81805322  0.69733581  1
  O  O9  1  0.78529379  0.81805322  0.19733581  1
  O  O10  1  0.01902613  0.20923487  0.19746456  1
  O  O11  1  0.17008248  0.97563032  0.19614440  1
  O  O12  1  0.88562826  0.35690989  0.63681424  1
  O  O13  1  0.48239275  0.11841441  0.63379841  1
  O  O14  1  0.65064429  0.51764888  0.64924710  1
  O  O15  1  0.86700559  0.51764888  0.14924710  1
  O  O16  1  0.63602266  0.11841441  0.13379841  1
  O  O17  1  0.47128262  0.35690989  0.13681424  1
  O  O18  1  0.45463053  0.30103192  0.03151485  1
  O  O19  1  0.83798444  0.52395165  0.03128372  1
  O  O20  1  0.69037854  0.14541293  0.02797761  1
  O  O21  1  0.45503539  0.14541293  0.52797761  1
  O  O22  1  0.68596821  0.52395165  0.53128372  1
  O  O23  1  0.84640238  0.30103192  0.53151485  1
  O  O24  1  0.52625680  0.67741519  0.96914820  1
  O  O25  1  0.14309037  0.45037415  0.97097057  1
  O  O26  1  0.31179990  0.86917225  0.98053330  1
  O  O27  1  0.55737135  0.86917225  0.48053330  1
  O  O28  1  0.30728278  0.45037415  0.47097057  1
  O  O29  1  0.15115738  0.67741519  0.46914820  1
  O  O30  1  0.12210879  0.63773689  0.36261795  1
  O  O31  1  0.50486930  0.86825434  0.36439321  1
  O  O32  1  0.35292723  0.47885335  0.36464508  1
  O  O33  1  0.12592512  0.47885335  0.86464508  1
  O  O34  1  0.36338404  0.86825434  0.86439321  1
  O  O35  1  0.51562710  0.63773689  0.86261795  1
  O  O36  1  0.02800559  0.81672229  0.41310023  1
  O  O37  1  0.83013045  0.98944128  0.40877951  1
  O  O38  1  0.19028833  0.19651769  0.41450811  1
  O  O39  1  0.00622936  0.19651769  0.91450811  1
  O  O40  1  0.15931084  0.98944128  0.90877951  1
  O  O41  1  0.78871669  0.81672229  0.91310023  1
  O  O42  1  0.97779919  0.17571516  0.58825831  1
  O  O43  1  0.20314021  0.03768699  0.58877794  1
  O  O44  1  0.83896857  0.81977668  0.58997290  1
  O  O45  1  0.98080811  0.81977668  0.08997290  1
  O  O46  1  0.83454677  0.03768699  0.08877794  1
  O  O47  1  0.19791598  0.17571516  0.08825831  1
  O  O48  1  0.68143121  0.17226117  0.74326731  1
  O  O49  1  0.46970744  0.32576041  0.74702699  1
  O  O50  1  0.84857083  0.53837032  0.74594183  1
  O  O51  1  0.68980049  0.53837032  0.24594183  1
  O  O52  1  0.85605397  0.32576041  0.24702699  1
  O  O53  1  0.49083096  0.17226117  0.24326731  1
  O  O54  1  0.63715952  0.50628319  0.92212708  1
  O  O55  1  0.86636763  0.36405346  0.92239433  1
  O  O56  1  0.51502850  0.15538976  0.92215449  1
  O  O57  1  0.64036227  0.15538976  0.42215449  1
  O  O58  1  0.49768683  0.36405346  0.42239433  1
  O  O59  1  0.86912468  0.50628319  0.42212708  1
  O  O60  1  0.35326177  0.48747667  0.07317213  1
  O  O61  1  0.15382265  0.65427659  0.08489457  1
  O  O62  1  0.52437567  0.86516919  0.07733002  1
  O  O63  1  0.34079252  0.86516919  0.57733002  1
  O  O64  1  0.50045293  0.65427659  0.58489457  1
  O  O65  1  0.13421391  0.48747667  0.57317213  1
  O  O66  1  0.29988011  0.82312076  0.25653810  1
  O  O67  1  0.52942868  0.68837541  0.25586029  1
  O  O68  1  0.16531063  0.46928090  0.25420201  1
  O  O69  1  0.30396927  0.46928090  0.75420201  1
  O  O70  1  0.15894573  0.68837541  0.75586029  1
  O  O71  1  0.52323965  0.82312076  0.75653810  1
loop_
_geom_bond_atom_site_label_1
_geom_bond_atom_site_label_2
_geom_bond_distance
_geom_bond_site_symmetry_2
Na0 O15 2.334365 1_555
Na0 O52 2.415604 1_555
Na0 O66 2.423337 1_655
Na0 O51 2.439889 1_555
Na0 O68 2.619030 1_655
Na0 O11 2.817567 1_655
Na1 O14 2.334368 1_555
Na1 O49 2.415604 1_555
Na1 O71 2.423344 1_555
Na1 O50 2.439898 1_555
Na1 O69 2.619038 1_555
Na1 O6 2.817567 1_555
Na2 O64 2.327622 1_555
Na2 O27 2.331487 1_555
Na2 O63 2.491404 1_555
Na2 O44 2.512945 1_555
Na2 O42 2.613406 1_565
Na2 O23 2.896443 1_565
Na2 O13 2.932079 1_565
Na2 O6 3.028344 1_555
Na3 O61 2.327622 1_555
Na3 O26 2.331484 1_554
Na3 O62 2.491387 1_555
Na3 O45 2.512953 1_455
Na3 O47 2.613413 1_565
Na3 O18 2.896443 1_565
Na3 O16 2.932079 1_565
Na3 O11 3.028348 1_555
Na4 O5 2.391815 1_555
Na4 O41 2.425351 1_545
Na4 O56 2.430320 1_555
Na4 O39 2.446777 1_655
Na4 O55 2.671336 1_555
Na4 O34 2.745444 1_545
Na5 O0 2.391811 1_555
Na5 O36 2.425344 1_545
Na5 O57 2.430336 1_555
Na5 O38 2.446770 1_555
Na5 O58 2.671335 1_555
Na5 O31 2.745444 1_545
Na6 O37 2.293098 1_555
Na6 O36 2.548715 1_655
Na6 O38 2.579286 1_665
Na6 O44 2.621424 1_555
Na6 O42 2.810675 1_565
Na6 O43 2.905134 1_665
Na7 O40 2.293098 1_555
Na7 O41 2.548715 1_455
Na7 O39 2.579286 1_565
Na7 O45 2.621424 1_456
Na7 O47 2.810675 1_566
Na7 O46 2.905134 1_466
Na8 O48 2.311845 1_555
Na8 O49 2.490146 1_555
Na8 O56 2.561761 1_555
Na8 O50 2.623517 1_555
Na8 O55 2.805857 1_555
Na8 O54 2.924278 1_555
Na9 O53 2.311845 1_555
Na9 O52 2.490146 1_555
Na9 O57 2.561761 1_555
Na9 O51 2.623517 1_555
Na9 O58 2.805857 1_555
Na9 O59 2.924278 1_555
Na10 O61 2.304644 1_555
Na10 O60 2.572902 1_555
Na10 O62 2.598326 1_555
Na10 O68 2.659220 1_555
Na10 O67 2.769958 1_555
Na10 O66 2.780007 1_555
Na11 O64 2.304644 1_555
Na11 O65 2.572902 1_555
Na11 O63 2.598326 1_555
Na11 O69 2.659220 1_555
Na11 O70 2.769958 1_555
Na11 O71 2.780007 1_555
Hf0 O6 1.953080 1_555
Hf0 O44 1.989017 1_555
Hf0 O8 2.107099 1_655
Hf0 O42 2.160869 1_565
Hf0 O43 2.174524 1_665
Hf0 O7 2.203548 1_665
Hf1 O11 1.953080 1_555
Hf1 O45 1.989017 1_455
Hf1 O9 2.107099 1_455
Hf1 O47 2.160869 1_565
Hf1 O46 2.174524 1_465
Hf1 O10 2.203548 1_565
Hf2 O19 1.970488 1_556
Hf2 O56 2.065768 1_555
Hf2 O54 2.107390 1_555
Hf2 O18 2.108216 1_556
Hf2 O20 2.141442 1_556
Hf2 O55 2.142850 1_555
Hf3 O22 1.970488 1_555
Hf3 O57 2.065768 1_555
Hf3 O59 2.107390 1_555
Hf3 O23 2.108216 1_555
Hf3 O21 2.141443 1_555
Hf3 O58 2.142850 1_555
Hf4 O31 1.937432 1_555
Hf4 O66 1.975620 1_555
Hf4 O67 2.111561 1_555
Hf4 O30 2.129371 1_555
Hf4 O32 2.198654 1_555
Hf4 O68 2.286148 1_555
Hf5 O34 1.937432 1_555
Hf5 O71 1.975620 1_555
Hf5 O70 2.111561 1_555
Hf5 O35 2.129371 1_555
Hf5 O33 2.198654 1_555
Hf5 O69 2.286148 1_555
O0 Si0 1.621737 1_555
O0 Zn0 1.992754 1_455
O1 S0 1.460227 1_555
O1 Zn0 2.115904 1_565
O2 S1 1.454776 1_655
O2 Zn0 2.032918 1_555
O3 S2 1.454776 1_555
O3 Zn1 2.032918 1_555
O4 S3 1.460227 1_655
O4 Zn1 2.115904 1_665
O5 Si1 1.621737 1_555
O5 Zn1 1.992754 1_655
O6 Si1 1.678833 1_565
O7 S2 1.499772 1_555
O8 S3 1.516817 1_555
O9 S0 1.516817 1_555
O10 S1 1.499772 1_555
O11 Si0 1.678833 1_565
O12 S4 1.455671 1_555
O12 Zn2 2.143978 1_555
O13 S5 1.465283 1_555
O13 Zn2 2.092758 1_555
O14 Si2 1.610123 1_555
O14 Zn2 1.954576 1_555
O15 Si3 1.610123 1_555
O15 Zn3 1.954576 1_555
O16 S6 1.465283 1_555
O16 Zn3 2.092758 1_555
O17 S7 1.455671 1_555
O17 Zn3 2.143978 1_555
O18 S7 1.524264 1_555
O19 Si3 1.655407 1_555
O20 S6 1.516402 1_555
O21 S5 1.516402 1_555
O22 Si2 1.655407 1_555
O23 S4 1.524264 1_555
O24 S8 1.457398 1_555
O24 Zn4 2.292371 1_556
O25 S9 1.459902 1_555
O25 Zn4 2.009209 1_556
O26 Si4 1.619677 1_555
O26 Zn4 1.924844 1_556
O27 Si5 1.619677 1_555
O27 Zn5 1.924844 1_555
O28 S10 1.459902 1_555
O28 Zn5 2.009209 1_555
O29 S11 1.457398 1_555
O29 Zn5 2.292371 1_555
O30 S11 1.521118 1_555
O31 Si5 1.690379 1_555
O32 S10 1.493243 1_555
O33 S9 1.493243 1_555
O34 Si4 1.690379 1_555
O35 S8 1.521118 1_555
O36 S11 1.472123 1_555
O36 Zn0 2.343675 1_465
O37 Si5 1.609948 1_555
O37 Zn0 1.973758 1_565
O38 S10 1.470059 1_555
O38 Zn0 2.296258 1_455
O39 S9 1.470062 1_555
O39 Zn1 2.296258 1_555
O40 Si4 1.609939 1_555
O40 Zn1 1.973758 1_565
O41 S8 1.472128 1_555
O41 Zn1 2.343675 1_665
O42 S4 1.529473 1_555
O43 S5 1.499088 1_555
O44 Si2 1.705806 1_555
O45 Si3 1.705809 1_555
O46 S6 1.499079 1_555
O47 S7 1.529478 1_555
O48 Si1 1.608923 1_555
O48 Zn2 1.979958 1_555
O49 S2 1.475882 1_555
O49 Zn2 2.268472 1_555
O50 S3 1.462812 1_655
O50 Zn2 2.328516 1_555
O51 S0 1.462816 1_555
O51 Zn3 2.328516 1_555
O52 S1 1.475873 1_655
O52 Zn3 2.268472 1_555
O53 Si0 1.608928 1_555
O53 Zn3 1.979958 1_555
O54 S8 1.506945 1_555
O55 S9 1.528841 1_655
O56 Si4 1.686752 1_545
O57 Si5 1.686743 1_545
O58 S10 1.528859 1_555
O59 S11 1.506935 1_655
O60 S7 1.453182 1_555
O60 Zn4 2.312924 1_555
O61 Si3 1.634423 1_455
O61 Zn4 1.987143 1_555
O62 S6 1.468708 1_565
O62 Zn4 2.423515 1_555
O63 S5 1.468702 1_565
O63 Zn5 2.423515 1_555
O64 Si2 1.634441 1_555
O64 Zn5 1.987143 1_555
O65 S4 1.453171 1_455
O65 Zn5 2.312924 1_555
O66 Si0 1.700988 1_565
O67 S0 1.509194 1_555
O68 S1 1.522683 1_555
O69 S2 1.522687 1_555
O70 S3 1.509185 1_555
O71 Si1 1.700993 1_565
