# generated using pymatgen
data_MgCo3NiO8
_symmetry_space_group_name_H-M   'P 1'
_cell_length_a   5.78733375
_cell_length_b   5.77776028
_cell_length_c   5.89245098
_cell_angle_alpha   60.64132454
_cell_angle_beta   119.41870575
_cell_angle_gamma   119.96504700
_symmetry_Int_Tables_number   1
_chemical_formula_structural   MgCo3NiO8
_chemical_formula_sum   'Mg1 Co3 Ni1 O8'
_cell_volume   140.63295656
_cell_formula_units_Z   1
loop_
 _symmetry_equiv_pos_site_id
 _symmetry_equiv_pos_as_xyz
  1  'x, y, z'
loop_
 _atom_site_type_symbol
 _atom_site_label
 _atom_site_symmetry_multiplicity
 _atom_site_fract_x
 _atom_site_fract_y
 _atom_site_fract_z
 _atom_site_occupancy
  Mg  Mg0  1  0.00000000  0.00000000  0.00000000  1
  Co  Co0  1  0.50000000  0.50000000  0.00000000  1
  Co  Co1  1  0.50000000  0.00000000  0.00000000  1
  Co  Co2  1  0.00000000  0.50000000  0.00000000  1
  Ni  Ni0  1  0.50000000  0.50000000  0.50000000  1
  O  O0  1  0.75187300  0.70864500  0.79485500  1
  O  O1  1  0.75189400  0.24839900  0.79479300  1
  O  O2  1  0.26910700  0.73243100  0.80435800  1
  O  O3  1  0.29019700  0.24830200  0.79368600  1
  O  O4  1  0.70980300  0.75169800  0.20631400  1
  O  O5  1  0.73089300  0.26756900  0.19564200  1
  O  O6  1  0.24810600  0.75160100  0.20520700  1
  O  O7  1  0.24812700  0.29135500  0.20514500  1
loop_
_geom_bond_atom_site_label_1
_geom_bond_atom_site_label_2
_geom_bond_distance
_geom_bond_site_symmetry_2
Mg0 O7 2.057267 1_555
Mg0 O0 2.057267 1_444
Mg0 O1 2.057890 1_454
Mg0 O6 2.057890 1_545
Mg0 O3 2.060438 1_554
Mg0 O4 2.060438 1_445
Co0 O7 1.893675 1_555
Co0 O0 1.893675 1_554
Co0 O3 1.893836 1_554
Co0 O4 1.893836 1_555
Co0 O5 1.918145 1_555
Co0 O2 1.918145 1_554
Co1 O1 1.893951 1_554
Co1 O6 1.893951 1_545
Co1 O3 1.894785 1_554
Co1 O4 1.894785 1_545
Co1 O2 1.917064 1_544
Co1 O5 1.917064 1_555
Co2 O6 1.889415 1_555
Co2 O1 1.889415 1_454
Co2 O7 1.889885 1_555
Co2 O0 1.889885 1_454
Co2 O5 1.927280 1_455
Co2 O2 1.927280 1_554
Ni0 O7 2.099301 1_555
Ni0 O0 2.099301 1_555
Ni0 O1 2.099765 1_555
Ni0 O6 2.099765 1_555
Ni0 O4 2.101542 1_555
Ni0 O3 2.101542 1_555
