# generated using pymatgen
data_Na4HfSi3SnO12
_symmetry_space_group_name_H-M   'P 1'
_cell_length_a   9.15383605
_cell_length_b   9.15383573
_cell_length_c   22.87647108
_cell_angle_alpha   90.00000000
_cell_angle_beta   90.00000000
_cell_angle_gamma   120.00000114
_symmetry_Int_Tables_number   1
_chemical_formula_structural   Na4HfSi3SnO12
_chemical_formula_sum   'Na24 Hf6 Si18 Sn6 O72'
_cell_volume   1660.06809113
_cell_formula_units_Z   6
loop_
 _symmetry_equiv_pos_site_id
 _symmetry_equiv_pos_as_xyz
  1  'x, y, z'
loop_
 _atom_site_type_symbol
 _atom_site_label
 _atom_site_symmetry_multiplicity
 _atom_site_fract_x
 _atom_site_fract_y
 _atom_site_fract_z
 _atom_site_occupancy
  Na  Na0  1  0.63439292  0.00004734  0.25001608  1
  Na  Na1  1  0.36565443  0.36560708  0.25001608  1
  Na  Na2  1  0.99995266  0.63434557  0.25001608  1
  Na  Na3  1  0.63424349  0.63409388  0.74975557  1
  Na  Na4  1  0.99985039  0.36575651  0.74975557  1
  Na  Na5  1  0.36590612  0.00014961  0.74975557  1
  Na  Na6  1  0.30058251  0.33330961  0.58332045  1
  Na  Na7  1  0.03272810  0.69941749  0.58332045  1
  Na  Na8  1  0.66669039  0.96727190  0.58332045  1
  Na  Na9  1  0.30067243  0.96772680  0.08352444  1
  Na  Na10  1  0.66705537  0.69932757  0.08352444  1
  Na  Na11  1  0.03227320  0.33294463  0.08352444  1
  Na  Na12  1  0.96775716  0.66665096  0.91666614  1
  Na  Na13  1  0.69889280  0.03224284  0.91666614  1
  Na  Na14  1  0.33334904  0.30110720  0.91666614  1
  Na  Na15  1  0.96740433  0.30052931  0.41671306  1
  Na  Na16  1  0.33312397  0.03259567  0.41671306  1
  Na  Na17  1  0.69947069  0.66687603  0.41671306  1
  Na  Na18  1  0.00000000  0.00000000  0.50000446  1
  Na  Na19  1  0.00000000  0.00000000  0.00022891  1
  Na  Na20  1  0.66666700  0.33333300  0.83311002  1
  Na  Na21  1  0.66666700  0.33333300  0.33351242  1
  Na  Na22  1  0.33333300  0.66666700  0.16671137  1
  Na  Na23  1  0.33333300  0.66666700  0.66643802  1
  Hf  Hf0  1  0.00000000  0.00000000  0.85120230  1
  Hf  Hf1  1  0.66666700  0.33333300  0.18514812  1
  Hf  Hf2  1  0.66666700  0.33333300  0.98227859  1
  Hf  Hf3  1  0.33333300  0.66666700  0.01802494  1
  Hf  Hf4  1  0.33333300  0.66666700  0.31505143  1
  Hf  Hf5  1  0.33333300  0.66666700  0.81501428  1
  Si  Si0  1  0.29019242  0.99998443  0.25004360  1
  Si  Si1  1  0.70979201  0.70980758  0.25004360  1
  Si  Si2  1  0.00001557  0.29020799  0.25004360  1
  Si  Si3  1  0.29257304  0.29120163  0.74930780  1
  Si  Si4  1  0.99862860  0.70742696  0.74930780  1
  Si  Si5  1  0.70879837  0.00137140  0.74930780  1
  Si  Si6  1  0.95820288  0.33336014  0.58331559  1
  Si  Si7  1  0.37515826  0.04179712  0.58331559  1
  Si  Si8  1  0.66663986  0.62484174  0.58331559  1
  Si  Si9  1  0.95916283  0.62677956  0.08384151  1
  Si  Si10  1  0.66761773  0.04083717  0.08384151  1
  Si  Si11  1  0.37322044  0.33238227  0.08384151  1
  Si  Si12  1  0.62568556  0.66661952  0.91664078  1
  Si  Si13  1  0.04093296  0.37431444  0.91664078  1
  Si  Si14  1  0.33338048  0.95906704  0.91664078  1
  Si  Si15  1  0.62560184  0.95934352  0.41685036  1
  Si  Si16  1  0.33374067  0.37439816  0.41685036  1
  Si  Si17  1  0.04065648  0.66625933  0.41685036  1
  Sn  Sn0  1  0.00000000  0.00000000  0.35135525  1
  Sn  Sn1  1  0.00000000  0.00000000  0.64857897  1
  Sn  Sn2  1  0.00000000  0.00000000  0.14887586  1
  Sn  Sn3  1  0.66666700  0.33333300  0.68436706  1
  Sn  Sn4  1  0.66666700  0.33333300  0.48227502  1
  Sn  Sn5  1  0.33333300  0.66666700  0.51778753  1
  O  O0  1  0.21044781  0.03914752  0.30791939  1
  O  O1  1  0.82869972  0.78955219  0.30791939  1
  O  O2  1  0.96085248  0.17130028  0.30791939  1
  O  O3  1  0.20756135  0.17141740  0.80664997  1
  O  O4  1  0.96385604  0.79243865  0.80664997  1
  O  O5  1  0.82858260  0.03614396  0.80664997  1
  O  O6  1  0.78952060  0.96114572  0.69196660  1
  O  O7  1  0.17162512  0.21047940  0.69196660  1
  O  O8  1  0.03885428  0.82837488  0.69196660  1
  O  O9  1  0.78932244  0.82855925  0.19211369  1
  O  O10  1  0.03923681  0.21067756  0.19211369  1
  O  O11  1  0.17144075  0.96076319  0.19211369  1
  O  O12  1  0.87817299  0.37267792  0.64110254  1
  O  O13  1  0.49450594  0.12182701  0.64110254  1
  O  O14  1  0.62732208  0.50549406  0.64110254  1
  O  O15  1  0.87314958  0.50462742  0.14046638  1
  O  O16  1  0.63147884  0.12685042  0.14046638  1
  O  O17  1  0.49537258  0.36852116  0.14046638  1
  O  O18  1  0.45903741  0.29752984  0.02669464  1
  O  O19  1  0.83849343  0.54096259  0.02669464  1
  O  O20  1  0.70247016  0.16150657  0.02669464  1
  O  O21  1  0.45530607  0.16127192  0.52556403  1
  O  O22  1  0.70596685  0.54469393  0.52556403  1
  O  O23  1  0.83872808  0.29403315  0.52556403  1
  O  O24  1  0.53988969  0.70194701  0.97358336  1
  O  O25  1  0.16205632  0.46011031  0.97358336  1
  O  O26  1  0.29805299  0.83794368  0.97358336  1
  O  O27  1  0.54469578  0.83902345  0.47443008  1
  O  O28  1  0.29432667  0.45530422  0.47443008  1
  O  O29  1  0.16097655  0.70567333  0.47443008  1
  O  O30  1  0.12594764  0.63069410  0.35983639  1
  O  O31  1  0.50474546  0.87405236  0.35983639  1
  O  O32  1  0.36930590  0.49525454  0.35983639  1
  O  O33  1  0.12691338  0.49547545  0.85971360  1
  O  O34  1  0.36856107  0.87308662  0.85971360  1
  O  O35  1  0.50452455  0.63143893  0.85971360  1
  O  O36  1  0.02341092  0.83627351  0.41050577  1
  O  O37  1  0.81286259  0.97658908  0.41050577  1
  O  O38  1  0.16372649  0.18713741  0.41050577  1
  O  O39  1  0.02330094  0.18807569  0.90999775  1
  O  O40  1  0.16477475  0.97669906  0.90999775  1
  O  O41  1  0.81192431  0.83522525  0.90999775  1
  O  O42  1  0.97635278  0.16378621  0.58947183  1
  O  O43  1  0.18743343  0.02364722  0.58947183  1
  O  O44  1  0.83621379  0.81256657  0.58947183  1
  O  O45  1  0.97624959  0.81387477  0.08951931  1
  O  O46  1  0.83762518  0.02375041  0.08951931  1
  O  O47  1  0.18612523  0.16237482  0.08951931  1
  O  O48  1  0.69068297  0.17105404  0.74377797  1
  O  O49  1  0.48037207  0.30931703  0.74377797  1
  O  O50  1  0.82894596  0.51962793  0.74377797  1
  O  O51  1  0.69046729  0.52262073  0.24354526  1
  O  O52  1  0.83215444  0.30953271  0.24354526  1
  O  O53  1  0.47737927  0.16784556  0.24354526  1
  O  O54  1  0.64338212  0.49810092  0.92334575  1
  O  O55  1  0.85471980  0.35661788  0.92334575  1
  O  O56  1  0.50189908  0.14528020  0.92334575  1
  O  O57  1  0.64292778  0.14669789  0.42286715  1
  O  O58  1  0.50377111  0.35707222  0.42286715  1
  O  O59  1  0.85330211  0.49622889  0.42286715  1
  O  O60  1  0.35629765  0.50118290  0.07678664  1
  O  O61  1  0.14488424  0.64370235  0.07678664  1
  O  O62  1  0.49881710  0.85511576  0.07678664  1
  O  O63  1  0.35699744  0.85396077  0.57712770  1
  O  O64  1  0.49696233  0.64300256  0.57712770  1
  O  O65  1  0.14603923  0.50303767  0.57712770  1
  O  O66  1  0.30950971  0.83193940  0.25653565  1
  O  O67  1  0.52242869  0.69049029  0.25653565  1
  O  O68  1  0.16806060  0.47757131  0.25653565  1
  O  O69  1  0.31016499  0.47738650  0.75649498  1
  O  O70  1  0.16722051  0.68983501  0.75649498  1
  O  O71  1  0.52261350  0.83277949  0.75649498  1
loop_
_geom_bond_atom_site_label_1
_geom_bond_atom_site_label_2
_geom_bond_distance
_geom_bond_site_symmetry_2
Na0 O52 2.489238 1_555
Na0 O67 2.489569 1_545
Na0 O53 2.579655 1_555
Na0 O66 2.580333 1_545
Na0 O16 2.767593 1_555
Na0 O31 2.771556 1_545
Na0 O9 2.907972 1_545
Na0 O2 2.908218 1_555
Na1 O53 2.489245 1_555
Na1 O68 2.489578 1_555
Na1 O51 2.579663 1_555
Na1 O67 2.580333 1_555
Na1 O17 2.767596 1_555
Na1 O32 2.771558 1_555
Na1 O10 2.907972 1_555
Na1 O0 2.908218 1_555
Na2 O51 2.489237 1_555
Na2 O66 2.489571 1_655
Na2 O52 2.579663 1_555
Na2 O68 2.580325 1_655
Na2 O15 2.767595 1_555
Na2 O30 2.771554 1_655
Na2 O11 2.907972 1_655
Na2 O1 2.908218 1_555
Na3 O50 2.482048 1_555
Na3 O71 2.496836 1_555
Na3 O69 2.574202 1_555
Na3 O49 2.579461 1_555
Na3 O14 2.737405 1_555
Na3 O35 2.776546 1_555
Na3 O6 2.911261 1_555
Na3 O4 2.919798 1_555
Na4 O48 2.482041 1_555
Na4 O69 2.496828 1_655
Na4 O70 2.574202 1_655
Na4 O50 2.579453 1_555
Na4 O12 2.737401 1_555
Na4 O33 2.776545 1_655
Na4 O7 2.911261 1_655
Na4 O5 2.919798 1_555
Na5 O49 2.482040 1_555
Na5 O70 2.496829 1_545
Na5 O71 2.574194 1_545
Na5 O48 2.579461 1_555
Na5 O13 2.737403 1_555
Na5 O34 2.776543 1_545
Na5 O8 2.911261 1_545
Na5 O3 2.919798 1_555
Na6 O43 2.488292 1_555
Na6 O64 2.488376 1_555
Na6 O42 2.575059 1_455
Na6 O65 2.575485 1_555
Na6 O7 2.740041 1_555
Na6 O28 2.742172 1_555
Na6 O21 2.908971 1_555
Na6 O14 2.909124 1_555
Na7 O44 2.488300 1_455
Na7 O65 2.488362 1_555
Na7 O43 2.575059 1_565
Na7 O63 2.575469 1_555
Na7 O8 2.740043 1_555
Na7 O29 2.742164 1_555
Na7 O22 2.908971 1_455
Na7 O12 2.909124 1_455
Na8 O42 2.488293 1_565
Na8 O63 2.488379 1_555
Na8 O44 2.575051 1_555
Na8 O64 2.575469 1_555
Na8 O6 2.740039 1_555
Na8 O27 2.742168 1_555
Na8 O23 2.908971 1_565
Na8 O13 2.909124 1_565
Na9 O47 2.482188 1_565
Na9 O62 2.499171 1_555
Na9 O61 2.573940 1_555
Na9 O45 2.576638 1_455
Na9 O11 2.738432 1_555
Na9 O26 2.776511 1_554
Na9 O18 2.920505 1_565
Na9 O16 2.928721 1_565
Na10 O45 2.482180 1_555
Na10 O60 2.499185 1_555
Na10 O62 2.573956 1_555
Na10 O46 2.576637 1_565
Na10 O9 2.738430 1_555
Na10 O24 2.776518 1_554
Na10 O19 2.920506 1_555
Na10 O17 2.928721 1_555
Na11 O46 2.482181 1_455
Na11 O61 2.499188 1_555
Na11 O60 2.573941 1_555
Na11 O47 2.576630 1_555
Na11 O10 2.738428 1_555
Na11 O25 2.776514 1_554
Na11 O20 2.920506 1_455
Na11 O15 2.928721 1_455
Na12 O55 2.492321 1_555
Na12 O40 2.492443 1_655
Na12 O54 2.576663 1_555
Na12 O41 2.576903 1_555
Na12 O19 2.774537 1_556
Na12 O4 2.775319 1_555
Na12 O26 2.924822 1_655
Na12 O33 2.925413 1_655
Na13 O56 2.492304 1_555
Na13 O41 2.492450 1_545
Na13 O55 2.576662 1_555
Na13 O39 2.576911 1_655
Na13 O20 2.774534 1_556
Na13 O5 2.775323 1_555
Na13 O24 2.924822 1_545
Na13 O34 2.925413 1_545
Na14 O54 2.492318 1_555
Na14 O39 2.492441 1_555
Na14 O56 2.576678 1_555
Na14 O40 2.576911 1_545
Na14 O18 2.774541 1_556
Na14 O3 2.775321 1_555
Na14 O25 2.924822 1_555
Na14 O35 2.925413 1_555
Na15 O59 2.488159 1_555
Na15 O38 2.488465 1_655
Na15 O37 2.572843 1_545
Na15 O57 2.577272 1_555
Na15 O23 2.742558 1_555
Na15 O2 2.743392 1_555
Na15 O28 2.909706 1_655
Na15 O30 2.923551 1_655
Na16 O57 2.488176 1_555
Na16 O36 2.488458 1_545
Na16 O38 2.572835 1_555
Na16 O58 2.577272 1_555
Na16 O21 2.742562 1_555
Na16 O0 2.743389 1_555
Na16 O29 2.909706 1_545
Na16 O31 2.923551 1_545
Na17 O58 2.488173 1_555
Na17 O37 2.488456 1_555
Na17 O36 2.572843 1_655
Na17 O59 2.577288 1_555
Na17 O22 2.742566 1_555
Na17 O1 2.743391 1_555
Na17 O27 2.909706 1_555
Na17 O32 2.923551 1_555
Na18 O38 2.608675 1_555
Na18 O36 2.608675 1_545
Na18 O37 2.608675 1_445
Na18 O44 2.609249 1_445
Na18 O42 2.609249 1_455
Na18 O43 2.609249 1_555
Na19 O45 2.598474 1_445
Na19 O47 2.598474 1_555
Na19 O46 2.598474 1_455
Na19 O39 2.627364 1_554
Na19 O41 2.627364 1_444
Na19 O40 2.627364 1_544
Na20 O50 2.599584 1_555
Na20 O48 2.599584 1_555
Na20 O49 2.599584 1_555
Na20 O56 2.627353 1_555
Na20 O54 2.627353 1_555
Na20 O55 2.627353 1_555
Na21 O57 2.602523 1_555
Na21 O59 2.602523 1_555
Na21 O58 2.602523 1_555
Na21 O51 2.628337 1_555
Na21 O53 2.628337 1_555
Na21 O52 2.628337 1_555
Na22 O68 2.624639 1_555
Na22 O66 2.624639 1_555
Na22 O67 2.624639 1_555
Na22 O60 2.624728 1_555
Na22 O62 2.624728 1_555
Na22 O61 2.624728 1_555
Na23 O63 2.605605 1_555
Na23 O65 2.605605 1_555
Na23 O64 2.605605 1_555
Na23 O69 2.631338 1_555
Na23 O71 2.631338 1_555
Na23 O70 2.631338 1_555
Hf0 O4 2.032129 1_445
Hf0 O3 2.032129 1_555
Hf0 O5 2.032129 1_455
Hf0 O39 2.109823 1_555
Hf0 O41 2.109823 1_445
Hf0 O40 2.109823 1_545
Hf1 O16 2.027870 1_555
Hf1 O15 2.027870 1_555
Hf1 O17 2.027870 1_555
Hf1 O51 2.111145 1_555
Hf1 O53 2.111145 1_555
Hf1 O52 2.111145 1_555
Hf2 O19 2.032054 1_556
Hf2 O20 2.032054 1_556
Hf2 O18 2.032054 1_556
Hf2 O56 2.111713 1_555
Hf2 O54 2.111713 1_555
Hf2 O55 2.111713 1_555
Hf3 O25 2.025427 1_554
Hf3 O26 2.025427 1_554
Hf3 O24 2.025427 1_554
Hf3 O60 2.112895 1_555
Hf3 O62 2.112895 1_555
Hf3 O61 2.112895 1_555
Hf4 O31 2.033907 1_555
Hf4 O32 2.033907 1_555
Hf4 O30 2.033907 1_555
Hf4 O68 2.111448 1_555
Hf4 O66 2.111448 1_555
Hf4 O67 2.111448 1_555
Hf5 O34 2.027469 1_555
Hf5 O33 2.027469 1_555
Hf5 O35 2.027469 1_555
Hf5 O69 2.114647 1_555
Hf5 O71 2.114647 1_555
Hf5 O70 2.114647 1_555
O0 Si0 1.635854 1_545
O0 Sn0 2.033834 1_555
O1 Si1 1.635855 1_555
O1 Sn0 2.033834 1_665
O2 Si2 1.635855 1_655
O2 Sn0 2.033834 1_655
O3 Si3 1.635655 1_555
O4 Si4 1.635655 1_555
O5 Si5 1.635655 1_555
O6 Si5 1.635358 1_565
O6 Sn1 2.034344 1_665
O7 Si3 1.635358 1_555
O7 Sn1 2.034344 1_555
O8 Si4 1.635358 1_455
O8 Sn1 2.034344 1_565
O9 Si1 1.636004 1_555
O9 Sn2 2.033190 1_665
O10 Si2 1.636004 1_555
O10 Sn2 2.033190 1_555
O11 Si0 1.636004 1_555
O11 Sn2 2.033190 1_565
O12 Si6 1.636292 1_555
O12 Sn3 2.039718 1_555
O13 Si7 1.636292 1_555
O13 Sn3 2.039718 1_555
O14 Si8 1.636292 1_555
O14 Sn3 2.039718 1_555
O15 Si9 1.633347 1_555
O16 Si10 1.633347 1_555
O17 Si11 1.633347 1_555
O18 Si11 1.636636 1_555
O19 Si9 1.636636 1_555
O20 Si10 1.636636 1_555
O21 Si7 1.636278 1_555
O21 Sn4 2.038970 1_555
O22 Si8 1.636278 1_555
O22 Sn4 2.038970 1_555
O23 Si6 1.636278 1_555
O23 Sn4 2.038970 1_555
O24 Si12 1.634694 1_555
O25 Si13 1.634694 1_555
O26 Si14 1.634694 1_555
O27 Si15 1.637355 1_555
O27 Sn5 2.040547 1_555
O28 Si16 1.637355 1_555
O28 Sn5 2.040547 1_555
O29 Si17 1.637355 1_555
O29 Sn5 2.040547 1_555
O30 Si17 1.634278 1_555
O31 Si15 1.634278 1_555
O32 Si16 1.634278 1_555
O33 Si13 1.634804 1_555
O34 Si14 1.634804 1_555
O35 Si12 1.634804 1_555
O36 Si17 1.647325 1_555
O36 Sn0 2.108153 1_565
O37 Si15 1.647334 1_555
O37 Sn0 2.108153 1_665
O38 Si16 1.647330 1_555
O38 Sn0 2.108153 1_555
O39 Si13 1.637171 1_555
O40 Si14 1.637162 1_555
O41 Si12 1.637167 1_555
O42 Si6 1.647670 1_555
O42 Sn1 2.108922 1_655
O43 Si7 1.647679 1_555
O43 Sn1 2.108922 1_555
O44 Si8 1.647675 1_555
O44 Sn1 2.108922 1_665
O45 Si9 1.645173 1_555
O45 Sn2 2.103202 1_665
O46 Si10 1.645164 1_555
O46 Sn2 2.103202 1_655
O47 Si11 1.645169 1_555
O47 Sn2 2.103202 1_555
O48 Si5 1.647315 1_555
O48 Sn3 2.104451 1_555
O49 Si3 1.647324 1_555
O49 Sn3 2.104451 1_555
O50 Si4 1.647320 1_555
O50 Sn3 2.104451 1_555
O51 Si1 1.638991 1_555
O52 Si2 1.638982 1_655
O53 Si0 1.638987 1_545
O54 Si12 1.636840 1_555
O55 Si13 1.636821 1_655
O56 Si14 1.636829 1_545
O57 Si15 1.647229 1_545
O57 Sn4 2.107532 1_555
O58 Si16 1.647247 1_555
O58 Sn4 2.107532 1_555
O59 Si17 1.647237 1_655
O59 Sn4 2.107532 1_555
O60 Si11 1.636143 1_555
O61 Si9 1.636125 1_455
O62 Si10 1.636133 1_565
O63 Si7 1.648712 1_565
O63 Sn5 2.111324 1_555
O64 Si8 1.648730 1_555
O64 Sn5 2.111324 1_555
O65 Si6 1.648720 1_455
O65 Sn5 2.111324 1_555
O66 Si0 1.640599 1_555
O67 Si1 1.640608 1_555
O68 Si2 1.640604 1_555
O69 Si3 1.638039 1_555
O70 Si4 1.638030 1_455
O71 Si5 1.638035 1_565
