# generated using pymatgen
data_Na4ZnSiSn(PO6)2
_symmetry_space_group_name_H-M   'P 1'
_cell_length_a   9.11559541
_cell_length_b   9.13457818
_cell_length_c   22.04070041
_cell_angle_alpha   89.92826865
_cell_angle_beta   90.00000000
_cell_angle_gamma   119.93128007
_symmetry_Int_Tables_number   1
_chemical_formula_structural   Na4ZnSiSn(PO6)2
_chemical_formula_sum   'Na24 Zn6 Si6 Sn6 P12 O72'
_cell_volume   1590.48444834
_cell_formula_units_Z   6
loop_
 _symmetry_equiv_pos_site_id
 _symmetry_equiv_pos_as_xyz
  1  'x, y, z'
loop_
 _atom_site_type_symbol
 _atom_site_label
 _atom_site_symmetry_multiplicity
 _atom_site_fract_x
 _atom_site_fract_y
 _atom_site_fract_z
 _atom_site_occupancy
  Na  Na0  1  0.63384480  0.01346813  0.24896384  1
  Na  Na1  1  0.37348408  0.35557669  0.24890754  1
  Na  Na2  1  0.99005263  0.62861941  0.24340646  1
  Na  Na3  1  0.63856678  0.62861941  0.74340646  1
  Na  Na4  1  0.98209261  0.35557669  0.74890754  1
  Na  Na5  1  0.37962333  0.01346813  0.74896384  1
  Na  Na6  1  0.31038348  0.35044857  0.58237369  1
  Na  Na7  1  0.03520333  0.69254647  0.57961943  1
  Na  Na8  1  0.65203469  0.95066813  0.57964191  1
  Na  Na9  1  0.29863444  0.95066813  0.07964191  1
  Na  Na10  1  0.65734414  0.69254647  0.07961943  1
  Na  Na11  1  0.04006609  0.35044857  0.08237369  1
  Na  Na12  1  0.97677626  0.68474564  0.91734719  1
  Na  Na13  1  0.70449971  0.02843481  0.91035310  1
  Na  Na14  1  0.31948386  0.28812591  0.91382906  1
  Na  Na15  1  0.96864105  0.28812591  0.41382906  1
  Na  Na16  1  0.32393411  0.02843481  0.41035310  1
  Na  Na17  1  0.70796838  0.68474564  0.41734719  1
  Na  Na18  1  0.99177336  0.99566457  0.49430192  1
  Na  Na19  1  0.00389121  0.99566457  0.99430192  1
  Na  Na20  1  0.66480077  0.32618111  0.82767836  1
  Na  Na21  1  0.66138135  0.32618111  0.32767836  1
  Na  Na22  1  0.32723258  0.66898221  0.16120605  1
  Na  Na23  1  0.34174863  0.66898221  0.66120605  1
  Zn  Zn0  1  0.00050911  0.00041210  0.34789842  1
  Zn  Zn1  1  0.99990299  0.00041210  0.84789842  1
  Zn  Zn2  1  0.66634995  0.33052735  0.68140978  1
  Zn  Zn3  1  0.66417840  0.33052735  0.18140978  1
  Zn  Zn4  1  0.32344258  0.67059474  0.01484424  1
  Zn  Zn5  1  0.34715116  0.67059474  0.51484424  1
  Si  Si0  1  0.29799654  0.00055390  0.25262473  1
  Si  Si1  1  0.70255736  0.00055390  0.75262473  1
  Si  Si2  1  0.66750839  0.62822799  0.58618796  1
  Si  Si3  1  0.96072060  0.62822799  0.08618796  1
  Si  Si4  1  0.33325563  0.96807683  0.91895883  1
  Si  Si5  1  0.63482019  0.96807683  0.41895883  1
  Sn  Sn0  1  0.99441391  0.99571465  0.65059124  1
  Sn  Sn1  1  0.00130073  0.99571465  0.15059124  1
  Sn  Sn2  1  0.66688658  0.33349286  0.98409838  1
  Sn  Sn3  1  0.66660727  0.33349286  0.48409838  1
  Sn  Sn4  1  0.33549281  0.67359509  0.31744853  1
  Sn  Sn5  1  0.33810128  0.67359509  0.81744853  1
  P  P0  1  0.70158073  0.70489445  0.25233152  1
  P  P1  1  0.00410646  0.29661701  0.25214577  1
  P  P2  1  0.29251055  0.29661701  0.75214577  1
  P  P3  1  0.00331372  0.70489445  0.75233152  1
  P  P4  1  0.96414932  0.33249258  0.58503854  1
  P  P5  1  0.36698005  0.03815465  0.58580645  1
  P  P6  1  0.67117559  0.03815465  0.08580645  1
  P  P7  1  0.36834426  0.33249258  0.08503854  1
  P  P8  1  0.62431791  0.66175682  0.91952761  1
  P  P9  1  0.03888834  0.37362112  0.91852706  1
  P  P10  1  0.33473177  0.37362112  0.41852706  1
  P  P11  1  0.03743790  0.66175682  0.41952761  1
  O  O0  1  0.21342022  0.03282346  0.31153010  1
  O  O1  1  0.80996436  0.78748957  0.30792245  1
  O  O2  1  0.97522960  0.18683242  0.30767738  1
  O  O3  1  0.21160282  0.18683242  0.80767738  1
  O  O4  1  0.97752521  0.78748957  0.80792245  1
  O  O5  1  0.81940324  0.03282346  0.81153010  1
  O  O6  1  0.78197280  0.95818800  0.69092891  1
  O  O7  1  0.18056665  0.21712694  0.69326289  1
  O  O8  1  0.04420426  0.82070184  0.69397238  1
  O  O9  1  0.77649757  0.82070184  0.19397238  1
  O  O10  1  0.03656029  0.21712694  0.19326289  1
  O  O11  1  0.17621520  0.95818800  0.19092891  1
  O  O12  1  0.88218424  0.35785034  0.64134251  1
  O  O13  1  0.47841589  0.11728075  0.64114944  1
  O  O14  1  0.63841610  0.51137228  0.64471010  1
  O  O15  1  0.87295718  0.51137228  0.14471010  1
  O  O16  1  0.63886586  0.11728075  0.14114944  1
  O  O17  1  0.47566710  0.35785034  0.14134251  1
  O  O18  1  0.44467314  0.29227540  0.02712941  1
  O  O19  1  0.83946407  0.54815905  0.02408204  1
  O  O20  1  0.70679969  0.15128050  0.02708056  1
  O  O21  1  0.44448182  0.15128050  0.52708056  1
  O  O22  1  0.70869598  0.54815905  0.52408204  1
  O  O23  1  0.84760326  0.29227540  0.52712941  1
  O  O24  1  0.53949049  0.68537941  0.97495836  1
  O  O25  1  0.14873939  0.45399614  0.97392111  1
  O  O26  1  0.30000479  0.85270431  0.97816494  1
  O  O27  1  0.55269852  0.85270431  0.47816494  1
  O  O28  1  0.30525575  0.45399614  0.47392111  1
  O  O29  1  0.14588793  0.68537941  0.47495836  1
  O  O30  1  0.11317090  0.62414290  0.36061586  1
  O  O31  1  0.51124378  0.88912253  0.35758995  1
  O  O32  1  0.36817774  0.48661372  0.35976323  1
  O  O33  1  0.11843498  0.48661372  0.85976323  1
  O  O34  1  0.37787775  0.88912253  0.85758995  1
  O  O35  1  0.51097099  0.62414290  0.86061586  1
  O  O36  1  0.01606137  0.81802508  0.41312805  1
  O  O37  1  0.82305846  0.99123987  0.41194201  1
  O  O38  1  0.18127622  0.19466160  0.41297108  1
  O  O39  1  0.01338537  0.19466160  0.91297108  1
  O  O40  1  0.16818141  0.99123987  0.91194201  1
  O  O41  1  0.80196371  0.81802508  0.91312805  1
  O  O42  1  0.98323349  0.16980218  0.58823125  1
  O  O43  1  0.19051702  0.03187839  0.58992638  1
  O  O44  1  0.84659802  0.81749723  0.58691982  1
  O  O45  1  0.97089921  0.81749723  0.08691982  1
  O  O46  1  0.84136137  0.03187839  0.08992638  1
  O  O47  1  0.18656869  0.16980218  0.08823125  1
  O  O48  1  0.67758387  0.16466679  0.74597437  1
  O  O49  1  0.47175969  0.32173238  0.74650976  1
  O  O50  1  0.84672368  0.52814897  0.74570458  1
  O  O51  1  0.68142628  0.52814897  0.24570458  1
  O  O52  1  0.84997369  0.32173238  0.24650976  1
  O  O53  1  0.48708392  0.16466679  0.24597437  1
  O  O54  1  0.64029628  0.49733776  0.92132564  1
  O  O55  1  0.86066676  0.36346400  0.92127008  1
  O  O56  1  0.51218340  0.15730878  0.92216205  1
  O  O57  1  0.64512638  0.15730878  0.42216205  1
  O  O58  1  0.50279824  0.36346400  0.42127008  1
  O  O59  1  0.85704247  0.49733776  0.42132564  1
  O  O60  1  0.35046135  0.48990714  0.07762552  1
  O  O61  1  0.14892120  0.65024911  0.08158874  1
  O  O62  1  0.52104804  0.85807652  0.07908281  1
  O  O63  1  0.33702748  0.85807652  0.57908281  1
  O  O64  1  0.50132691  0.65024911  0.58158874  1
  O  O65  1  0.13944479  0.48990714  0.57762552  1
  O  O66  1  0.30633882  0.82067056  0.25380053  1
  O  O67  1  0.51966350  0.68591226  0.25530708  1
  O  O68  1  0.17262383  0.47388804  0.25566103  1
  O  O69  1  0.30126321  0.47388804  0.75566103  1
  O  O70  1  0.16624776  0.68591226  0.75530708  1
  O  O71  1  0.51433074  0.82067056  0.75380053  1
loop_
_geom_bond_atom_site_label_1
_geom_bond_atom_site_label_2
_geom_bond_distance
_geom_bond_site_symmetry_2
Na0 O53 2.354837 1_555
Na0 O52 2.505389 1_555
Na0 O16 2.549354 1_555
Na0 O66 2.603533 1_545
Na0 O67 2.635644 1_545
Na0 O31 2.645323 1_545
Na0 O9 2.924190 1_545
Na0 O2 2.992300 1_555
Na1 O53 2.433104 1_555
Na1 O51 2.439986 1_555
Na1 O17 2.543492 1_555
Na1 O68 2.552958 1_555
Na1 O67 2.624737 1_555
Na1 O32 2.733143 1_555
Na1 O0 2.902246 1_555
Na1 O10 2.943472 1_555
Na2 O15 2.425592 1_555
Na2 O52 2.433310 1_555
Na2 O51 2.486541 1_555
Na2 O66 2.529064 1_655
Na2 O68 2.680819 1_655
Na2 O30 2.824994 1_655
Na2 O11 2.858965 1_655
Na3 O14 2.425594 1_555
Na3 O49 2.433309 1_555
Na3 O50 2.486550 1_555
Na3 O71 2.529071 1_555
Na3 O69 2.680827 1_555
Na3 O35 2.824998 1_555
Na3 O6 2.858965 1_555
Na4 O48 2.433097 1_555
Na4 O50 2.439979 1_555
Na4 O12 2.543489 1_555
Na4 O69 2.552949 1_655
Na4 O70 2.624736 1_655
Na4 O33 2.733140 1_655
Na4 O5 2.902246 1_555
Na4 O7 2.943472 1_655
Na5 O48 2.354844 1_555
Na5 O49 2.505387 1_555
Na5 O13 2.549356 1_555
Na5 O71 2.603525 1_545
Na5 O70 2.635645 1_545
Na5 O34 2.645321 1_545
Na5 O8 2.924190 1_545
Na5 O3 2.992300 1_555
Na6 O64 2.402642 1_555
Na6 O65 2.458111 1_555
Na6 O43 2.552547 1_555
Na6 O28 2.578599 1_555
Na6 O42 2.592614 1_455
Na6 O7 2.722384 1_555
Na6 O21 2.917911 1_555
Na6 O14 2.934034 1_555
Na7 O63 2.388433 1_555
Na7 O65 2.467100 1_555
Na7 O44 2.498625 1_455
Na7 O29 2.531781 1_555
Na7 O43 2.699324 1_565
Na7 O8 2.764271 1_555
Na7 O22 2.860600 1_455
Na7 O12 2.979503 1_455
Na8 O64 2.378521 1_555
Na8 O27 2.412384 1_555
Na8 O63 2.556817 1_555
Na8 O44 2.608355 1_555
Na8 O42 2.669771 1_565
Na8 O6 2.709860 1_555
Na8 O23 2.948640 1_565
Na8 O13 3.011264 1_565
Na9 O61 2.378521 1_555
Na9 O26 2.412380 1_554
Na9 O62 2.556799 1_555
Na9 O45 2.608364 1_455
Na9 O47 2.669778 1_565
Na9 O11 2.709864 1_555
Na9 O18 2.948640 1_565
Na9 O16 3.011264 1_565
Na10 O62 2.388448 1_555
Na10 O60 2.467114 1_555
Na10 O45 2.498617 1_555
Na10 O24 2.531788 1_554
Na10 O46 2.699324 1_565
Na10 O9 2.764269 1_555
Na10 O19 2.860600 1_555
Na10 O17 2.979503 1_555
Na11 O61 2.402645 1_555
Na11 O60 2.458094 1_555
Na11 O46 2.552548 1_455
Na11 O25 2.578596 1_554
Na11 O47 2.592606 1_555
Na11 O10 2.722382 1_555
Na11 O20 2.917911 1_455
Na11 O15 2.934034 1_455
Na12 O41 2.442511 1_555
Na12 O40 2.453814 1_655
Na12 O55 2.576863 1_555
Na12 O4 2.585649 1_555
Na12 O19 2.663061 1_556
Na12 O54 2.665683 1_555
Na12 O26 2.885509 1_655
Na12 O33 2.981918 1_655
Na13 O5 2.408486 1_555
Na13 O39 2.443499 1_655
Na13 O41 2.488155 1_545
Na13 O56 2.566528 1_555
Na13 O55 2.665421 1_555
Na13 O20 2.804009 1_556
Na13 O34 2.838870 1_545
Na14 O40 2.350796 1_545
Na14 O39 2.477427 1_555
Na14 O3 2.528755 1_555
Na14 O56 2.577076 1_555
Na14 O54 2.579778 1_555
Na14 O18 2.738045 1_556
Na14 O35 2.913409 1_555
Na14 O25 2.971663 1_555
Na15 O37 2.350797 1_545
Na15 O38 2.477435 1_655
Na15 O2 2.528757 1_555
Na15 O57 2.577060 1_555
Na15 O59 2.579764 1_555
Na15 O23 2.738038 1_555
Na15 O30 2.913409 1_655
Na15 O28 2.971663 1_655
Na16 O0 2.408482 1_555
Na16 O38 2.443491 1_555
Na16 O36 2.488149 1_545
Na16 O57 2.566544 1_555
Na16 O58 2.665422 1_555
Na16 O21 2.804012 1_555
Na16 O31 2.838870 1_545
Na17 O36 2.442520 1_655
Na17 O37 2.453813 1_555
Na17 O58 2.576861 1_555
Na17 O1 2.585650 1_555
Na17 O22 2.663065 1_555
Na17 O59 2.665698 1_555
Na17 O27 2.885509 1_555
Na17 O32 2.981918 1_555
Na18 O37 2.366483 1_555
Na18 O36 2.499762 1_655
Na18 O38 2.521893 1_665
Na18 O44 2.531711 1_555
Na18 O42 2.637068 1_565
Na18 O43 2.690235 1_665
Na19 O40 2.366483 1_555
Na19 O41 2.499762 1_455
Na19 O39 2.521893 1_565
Na19 O45 2.531711 1_456
Na19 O47 2.637068 1_566
Na19 O46 2.690235 1_466
Na20 O48 2.368844 1_555
Na20 O49 2.495502 1_555
Na20 O50 2.521238 1_555
Na20 O56 2.549924 1_555
Na20 O55 2.637041 1_555
Na20 O54 2.666673 1_555
Na21 O53 2.368844 1_555
Na21 O52 2.495502 1_555
Na21 O51 2.521239 1_555
Na21 O57 2.549924 1_555
Na21 O58 2.637041 1_555
Na21 O59 2.666673 1_555
Na22 O61 2.339624 1_555
Na22 O62 2.515562 1_555
Na22 O66 2.528177 1_555
Na22 O60 2.543106 1_555
Na22 O68 2.642082 1_555
Na22 O67 2.670702 1_555
Na23 O64 2.339624 1_555
Na23 O63 2.515562 1_555
Na23 O71 2.528177 1_555
Na23 O65 2.543106 1_555
Na23 O69 2.642082 1_555
Na23 O70 2.670702 1_555
O0 Si0 1.610788 1_555
O0 Zn0 1.980640 1_555
O1 P0 1.518244 1_555
O1 Zn0 2.051627 1_665
O2 P1 1.518728 1_655
O2 Zn0 2.031395 1_655
O3 P2 1.518728 1_555
O3 Zn1 2.031395 1_455
O4 P3 1.518244 1_655
O4 Zn1 2.051627 1_565
O5 Si1 1.610788 1_555
O5 Zn1 1.980640 1_555
O6 Si1 1.674461 1_565
O6 Sn0 1.998720 1_555
O7 P2 1.586131 1_555
O7 Sn0 2.105817 1_445
O8 P3 1.586064 1_555
O8 Sn0 2.096714 1_455
O9 P0 1.586064 1_555
O9 Sn1 2.096714 1_655
O10 P1 1.586131 1_555
O10 Sn1 2.105817 1_545
O11 Si0 1.674461 1_565
O11 Sn1 1.998720 1_555
O12 P4 1.524912 1_555
O12 Zn2 2.054870 1_555
O13 P5 1.520430 1_555
O13 Zn2 2.047155 1_555
O14 Si2 1.608589 1_555
O14 Zn2 1.965825 1_555
O15 Si3 1.608589 1_555
O15 Zn3 1.965825 1_555
O16 P6 1.520430 1_555
O16 Zn3 2.047155 1_555
O17 P7 1.524912 1_555
O17 Zn3 2.054870 1_555
O18 P7 1.582534 1_555
O18 Sn2 2.093421 1_554
O19 Si3 1.681134 1_555
O19 Sn2 2.005610 1_554
O20 P6 1.584433 1_555
O20 Sn2 2.097752 1_554
O21 P5 1.584433 1_555
O21 Sn3 2.097752 1_555
O22 Si2 1.681134 1_555
O22 Sn3 2.005610 1_555
O23 P4 1.582534 1_555
O23 Sn3 2.093421 1_555
O24 P8 1.517985 1_555
O24 Zn4 2.098552 1_556
O25 P9 1.516902 1_555
O25 Zn4 2.030873 1_556
O26 Si4 1.607233 1_555
O26 Zn4 1.953901 1_556
O27 Si5 1.607233 1_555
O27 Zn5 1.953901 1_555
O28 P10 1.516902 1_555
O28 Zn5 2.030873 1_555
O29 P11 1.517985 1_555
O29 Zn5 2.098552 1_555
O30 P11 1.586961 1_555
O30 Sn4 2.074065 1_555
O31 Si5 1.676411 1_555
O31 Sn4 2.020453 1_555
O32 P10 1.586955 1_555
O32 Sn4 2.092770 1_555
O33 P9 1.586955 1_555
O33 Sn5 2.092770 1_555
O34 Si4 1.676412 1_555
O34 Sn5 2.020453 1_555
O35 P8 1.586961 1_555
O35 Sn5 2.074065 1_555
O36 P11 1.540303 1_555
O36 Zn0 2.256646 1_565
O37 Si5 1.628074 1_555
O37 Zn0 2.116725 1_665
O38 P10 1.537075 1_555
O38 Zn0 2.238163 1_555
O39 P9 1.537078 1_555
O39 Zn1 2.238163 1_455
O40 Si4 1.628065 1_555
O40 Zn1 2.116725 1_465
O41 P8 1.540308 1_555
O41 Zn1 2.256646 1_565
O42 P4 1.581601 1_555
O42 Sn0 2.141160 1_545
O43 P5 1.583343 1_555
O43 Sn0 2.121805 1_445
O44 Si2 1.684613 1_555
O44 Sn0 2.062020 1_555
O45 Si3 1.684617 1_555
O45 Sn1 2.062020 1_655
O46 P6 1.583334 1_555
O46 Sn1 2.121805 1_645
O47 P7 1.581606 1_555
O47 Sn1 2.141160 1_545
O48 Si1 1.631142 1_555
O48 Zn2 2.116697 1_555
O49 P2 1.537447 1_555
O49 Zn2 2.251474 1_555
O50 P3 1.538266 1_655
O50 Zn2 2.239372 1_555
O51 P0 1.538270 1_555
O51 Zn3 2.239372 1_555
O52 P1 1.537438 1_655
O52 Zn3 2.251474 1_555
O53 Si0 1.631148 1_555
O53 Zn3 2.116697 1_555
O54 P8 1.580075 1_555
O54 Sn2 2.137704 1_555
O55 P9 1.581500 1_655
O55 Sn2 2.151574 1_555
O56 Si4 1.685226 1_545
O56 Sn2 2.045234 1_555
O57 Si5 1.685218 1_545
O57 Sn3 2.045234 1_555
O58 P10 1.581518 1_555
O58 Sn3 2.151573 1_555
O59 P11 1.580065 1_655
O59 Sn3 2.137704 1_555
O60 P7 1.534338 1_555
O60 Zn4 2.258211 1_555
O61 Si3 1.627717 1_455
O61 Zn4 2.105656 1_555
O62 P6 1.534525 1_565
O62 Zn4 2.260499 1_555
O63 P5 1.534519 1_565
O63 Zn5 2.260499 1_555
O64 Si2 1.627735 1_555
O64 Zn5 2.105656 1_555
O65 P4 1.534328 1_455
O65 Zn5 2.258211 1_555
O66 Si0 1.682561 1_565
O66 Sn4 2.048194 1_555
O67 P0 1.580286 1_555
O67 Sn4 2.125594 1_555
O68 P1 1.582991 1_555
O68 Sn4 2.165671 1_555
O69 P2 1.582995 1_555
O69 Sn5 2.165671 1_555
O70 P3 1.580277 1_555
O70 Sn5 2.125594 1_555
O71 Si1 1.682566 1_565
O71 Sn5 2.048194 1_555
