# generated using pymatgen
data_In(FeO2)2
_symmetry_space_group_name_H-M   'P 1'
_cell_length_a   8.51624605
_cell_length_b   8.51624631
_cell_length_c   8.51624574
_cell_angle_alpha   23.42125419
_cell_angle_beta   23.42125119
_cell_angle_gamma   23.42124795
_symmetry_Int_Tables_number   1
_chemical_formula_structural   In(FeO2)2
_chemical_formula_sum   'In1 Fe2 O4'
_cell_volume   85.68928286
_cell_formula_units_Z   1
loop_
 _symmetry_equiv_pos_site_id
 _symmetry_equiv_pos_as_xyz
  1  'x, y, z'
loop_
 _atom_site_type_symbol
 _atom_site_label
 _atom_site_symmetry_multiplicity
 _atom_site_fract_x
 _atom_site_fract_y
 _atom_site_fract_z
 _atom_site_occupancy
  In  In0  1  0.00217300  0.00217300  0.00217300  1
  Fe  Fe0  1  0.78715000  0.78715100  0.78715200  1
  Fe  Fe1  1  0.21118200  0.21118100  0.21118200  1
  O  O0  1  0.70758100  0.70758100  0.70758000  1
  O  O1  1  0.29057000  0.29056900  0.29057100  1
  O  O2  1  0.87114700  0.87114900  0.87114700  1
  O  O3  1  0.13019300  0.13019700  0.13019500  1
loop_
_geom_bond_atom_site_label_1
_geom_bond_atom_site_label_2
_geom_bond_distance
_geom_bond_site_symmetry_2
In0 O0 2.215766 1_445
In0 O0 2.215769 1_544
In0 O0 2.215769 1_454
In0 O1 2.286791 1_554
In0 O1 2.286794 1_455
In0 O1 2.286797 1_545
Fe0 O0 1.976300 1_555
Fe0 O3 2.010451 1_656
Fe0 O3 2.010460 1_566
Fe0 O3 2.010461 1_665
Fe0 O2 2.086238 1_555
Fe1 O1 1.971780 1_555
Fe1 O2 2.002861 1_544
Fe1 O2 2.002862 1_445
Fe1 O2 2.002870 1_454
Fe1 O3 2.011478 1_555
