# generated using pymatgen
data_Er2MgCr2O8
_symmetry_space_group_name_H-M   'P 1'
_cell_length_a   5.92165709
_cell_length_b   6.21512820
_cell_length_c   5.92153699
_cell_angle_alpha   104.14929828
_cell_angle_beta   106.20886784
_cell_angle_gamma   116.25196562
_symmetry_Int_Tables_number   1
_chemical_formula_structural   Er2MgCr2O8
_chemical_formula_sum   'Er2 Mg1 Cr2 O8'
_cell_volume   169.69811197
_cell_formula_units_Z   1
loop_
 _symmetry_equiv_pos_site_id
 _symmetry_equiv_pos_as_xyz
  1  'x, y, z'
loop_
 _atom_site_type_symbol
 _atom_site_label
 _atom_site_symmetry_multiplicity
 _atom_site_fract_x
 _atom_site_fract_y
 _atom_site_fract_z
 _atom_site_occupancy
  Er  Er0  1  0.12747000  0.92486600  0.26340500  1
  Er  Er1  1  0.83837500  0.07501900  0.70251600  1
  Mg  Mg0  1  0.25992200  0.49995900  0.25997100  1
  Cr  Cr0  1  0.37939800  0.63385400  0.78658900  1
  Cr  Cr1  1  0.65260500  0.36604700  0.24530500  1
  O  O0  1  0.75121600  0.71158700  0.38495000  1
  O  O1  1  0.35301900  0.79777300  0.56270100  1
  O  O2  1  0.74964900  0.80308200  0.91558600  1
  O  O3  1  0.83584500  0.33454300  0.06547700  1
  O  O4  1  0.61255900  0.19706700  0.44658400  1
  O  O5  1  0.17331400  0.28833600  0.53958100  1
  O  O6  1  0.26471000  0.20224400  0.05515700  1
  O  O7  1  0.23108200  0.66561900  0.00133900  1
loop_
_geom_bond_atom_site_label_1
_geom_bond_atom_site_label_2
_geom_bond_distance
_geom_bond_site_symmetry_2
Er0 O2 2.233328 1_454
Er0 O5 2.292332 1_565
Er0 O4 2.313953 1_565
Er0 O6 2.347873 1_565
Er0 O7 2.358906 1_555
Er0 O1 2.417657 1_555
Er0 O0 2.447101 1_455
Er1 O4 2.233437 1_555
Er1 O0 2.292346 1_545
Er1 O2 2.313337 1_545
Er1 O1 2.346930 1_545
Er1 O3 2.359198 1_556
Er1 O6 2.417230 1_656
Er1 O5 2.447441 1_655
Mg0 O6 1.965688 1_555
Mg0 O1 1.966428 1_555
Mg0 O3 2.052372 1_455
Mg0 O7 2.053088 1_555
Mg0 O5 2.382514 1_555
Mg0 O0 2.382972 1_555
Cr0 O7 1.755451 1_556
Cr0 O2 1.768899 1_555
Cr0 O5 1.841113 1_555
Cr0 O1 1.872285 1_555
Cr1 O3 1.755208 1_555
Cr1 O4 1.768970 1_555
Cr1 O0 1.841107 1_555
Cr1 O6 1.872794 1_555
