# generated using pymatgen
data_RbEuS2
_symmetry_space_group_name_H-M   'P 1'
_cell_length_a   7.95474972
_cell_length_b   7.95474972
_cell_length_c   7.95475044
_cell_angle_alpha   30.84578205
_cell_angle_beta   30.84578205
_cell_angle_gamma   30.84577405
_symmetry_Int_Tables_number   1
_chemical_formula_structural   RbEuS2
_chemical_formula_sum   'Rb1 Eu1 S2'
_cell_volume   117.36373096
_cell_formula_units_Z   1
loop_
 _symmetry_equiv_pos_site_id
 _symmetry_equiv_pos_as_xyz
  1  'x, y, z'
loop_
 _atom_site_type_symbol
 _atom_site_label
 _atom_site_symmetry_multiplicity
 _atom_site_fract_x
 _atom_site_fract_y
 _atom_site_fract_z
 _atom_site_occupancy
  Rb  Rb0  1  0.00000000  0.00000000  -0.00000000  1
  Eu  Eu0  1  0.50000000  0.50000000  0.50000000  1
  S  S0  1  0.76859673  0.76859673  0.76859673  1
  S  S1  1  0.23140327  0.23140327  0.23140327  1
loop_
_geom_bond_atom_site_label_1
_geom_bond_atom_site_label_2
_geom_bond_distance
_geom_bond_site_symmetry_2
Rb0 S0 3.365428 1_544
Rb0 S0 3.365428 1_454
Rb0 S1 3.365428 1_545
Rb0 S1 3.365428 1_455
Rb0 S0 3.365429 1_445
Rb0 S1 3.365429 1_554
Eu0 S1 2.851091 1_565
Eu0 S1 2.851091 1_655
Eu0 S0 2.851091 1_545
Eu0 S0 2.851091 1_455
Eu0 S1 2.851092 1_556
Eu0 S0 2.851092 1_554
