# generated using pymatgen
data_Al3Fe2Si3
_symmetry_space_group_name_H-M   'P 1'
_cell_length_a   8.35758500
_cell_length_b   7.13622500
_cell_length_c   15.63509402
_cell_angle_alpha   66.76315851
_cell_angle_beta   90.00000000
_cell_angle_gamma   90.00000000
_symmetry_Int_Tables_number   1
_chemical_formula_structural   Al3Fe2Si3
_chemical_formula_sum   'Al24 Fe16 Si24'
_cell_volume   856.85927825
_cell_formula_units_Z   8
loop_
 _symmetry_equiv_pos_site_id
 _symmetry_equiv_pos_as_xyz
  1  'x, y, z'
loop_
 _atom_site_type_symbol
 _atom_site_label
 _atom_site_symmetry_multiplicity
 _atom_site_fract_x
 _atom_site_fract_y
 _atom_site_fract_z
 _atom_site_occupancy
  Al  Al0  1  0.87784800  0.92547400  0.27705800  1
  Al  Al1  1  0.37784800  0.07452600  0.22294200  1
  Al  Al2  1  0.12215200  0.07452600  0.72294200  1
  Al  Al3  1  0.62215200  0.92547400  0.77705800  1
  Al  Al4  1  0.37675500  0.62402700  0.32476300  1
  Al  Al5  1  0.87675500  0.37597300  0.17523700  1
  Al  Al6  1  0.62324500  0.37597300  0.67523700  1
  Al  Al7  1  0.12324500  0.62402700  0.82476300  1
  Al  Al8  1  0.88644900  0.10286300  0.94394100  1
  Al  Al9  1  0.38644900  0.89713700  0.55605900  1
  Al  Al10  1  0.11355100  0.89713700  0.05605900  1
  Al  Al11  1  0.61355100  0.10286300  0.44394100  1
  Al  Al12  1  0.36283500  0.10079400  0.94977200  1
  Al  Al13  1  0.86283500  0.89920600  0.55022800  1
  Al  Al14  1  0.63716500  0.89920600  0.05022800  1
  Al  Al15  1  0.13716500  0.10079400  0.44977200  1
  Al  Al16  1  0.79493700  0.48971000  0.82220100  1
  Al  Al17  1  0.29493700  0.51029000  0.67779900  1
  Al  Al18  1  0.20506300  0.51029000  0.17779900  1
  Al  Al19  1  0.70506300  0.48971000  0.32220100  1
  Al  Al20  1  0.45285200  0.49238100  0.83120900  1
  Al  Al21  1  0.95285200  0.50761900  0.66879100  1
  Al  Al22  1  0.54714800  0.50761900  0.16879100  1
  Al  Al23  1  0.04714800  0.49238100  0.33120900  1
  Fe  Fe0  1  0.87658500  0.70432200  0.03018800  1
  Fe  Fe1  1  0.37658500  0.29567800  0.46981200  1
  Fe  Fe2  1  0.12341500  0.29567800  0.96981200  1
  Fe  Fe3  1  0.62341500  0.70432200  0.53018800  1
  Fe  Fe4  1  0.37346900  0.70220300  0.03464300  1
  Fe  Fe5  1  0.87346900  0.29779700  0.46535700  1
  Fe  Fe6  1  0.62653100  0.29779700  0.96535700  1
  Fe  Fe7  1  0.12653100  0.70220300  0.53464300  1
  Fe  Fe8  1  0.86313600  0.17487600  0.77113900  1
  Fe  Fe9  1  0.36313600  0.82512400  0.72886100  1
  Fe  Fe10  1  0.13686400  0.82512400  0.22886100  1
  Fe  Fe11  1  0.63686400  0.17487600  0.27113900  1
  Fe  Fe12  1  0.38284900  0.17170000  0.77286100  1
  Fe  Fe13  1  0.88284900  0.82830000  0.72713900  1
  Fe  Fe14  1  0.61715100  0.82830000  0.22713900  1
  Fe  Fe15  1  0.11715100  0.17170000  0.27286100  1
  Si  Si0  1  0.87885700  0.63908500  0.46641100  1
  Si  Si1  1  0.37885700  0.36091500  0.03358900  1
  Si  Si2  1  0.12114300  0.36091500  0.53358900  1
  Si  Si3  1  0.62114300  0.63908500  0.96641100  1
  Si  Si4  1  0.37238600  0.61103900  0.48921900  1
  Si  Si5  1  0.87238600  0.38896100  0.01078100  1
  Si  Si6  1  0.62761400  0.38896100  0.51078100  1
  Si  Si7  1  0.12761400  0.61103900  0.98921900  1
  Si  Si8  1  0.88902000  0.83131800  0.87323200  1
  Si  Si9  1  0.38902000  0.16868200  0.62676800  1
  Si  Si10  1  0.11098000  0.16868200  0.12676800  1
  Si  Si11  1  0.61098000  0.83131800  0.37323200  1
  Si  Si12  1  0.35436900  0.83047400  0.87578200  1
  Si  Si13  1  0.85436900  0.16952600  0.62421800  1
  Si  Si14  1  0.64563100  0.16952600  0.12421800  1
  Si  Si15  1  0.14563100  0.83047400  0.37578200  1
  Si  Si16  1  0.87821500  0.18356600  0.34844900  1
  Si  Si17  1  0.37821500  0.81643400  0.15155100  1
  Si  Si18  1  0.12178500  0.81643400  0.65155100  1
  Si  Si19  1  0.62178500  0.18356600  0.84844900  1
  Si  Si20  1  0.37525100  0.26280900  0.32760400  1
  Si  Si21  1  0.87525100  0.73719100  0.17239600  1
  Si  Si22  1  0.62474900  0.73719100  0.67239600  1
  Si  Si23  1  0.12474900  0.26280900  0.82760400  1
loop_
_geom_bond_atom_site_label_1
_geom_bond_atom_site_label_2
_geom_bond_distance
_geom_bond_site_symmetry_2
Al0 Fe10 2.488501 1_655
Al0 Si21 2.493702 1_555
Al0 Si16 2.502068 1_565
Al0 Fe14 2.502852 1_555
Al0 Si11 2.624858 1_555
Al0 Fe15 2.645901 1_665
Al0 Si15 2.650509 1_655
Al0 Fe11 2.665074 1_565
Al0 Si0 2.857881 1_555
Al0 Si14 3.037487 1_565
Al1 Fe11 2.488501 1_555
Al1 Si20 2.493702 1_555
Al1 Si17 2.502068 1_545
Al1 Fe15 2.502852 1_555
Al1 Si10 2.624858 1_555
Al1 Fe14 2.645901 1_545
Al1 Si14 2.650509 1_555
Al1 Fe10 2.665074 1_545
Al1 Si1 2.857881 1_555
Al1 Si15 3.037487 1_545
Al2 Fe8 2.488501 1_455
Al2 Si23 2.493702 1_555
Al2 Si18 2.502068 1_545
Al2 Fe12 2.502852 1_555
Al2 Si9 2.624858 1_555
Al2 Fe13 2.645901 1_445
Al2 Si13 2.650509 1_455
Al2 Fe9 2.665074 1_545
Al2 Si2 2.857881 1_555
Al2 Si12 3.037487 1_545
Al3 Fe9 2.488501 1_555
Al3 Si22 2.493702 1_555
Al3 Si19 2.502068 1_565
Al3 Fe13 2.502852 1_555
Al3 Si8 2.624858 1_555
Al3 Fe12 2.645901 1_565
Al3 Si12 2.650509 1_555
Al3 Fe8 2.665074 1_565
Al3 Si3 2.857881 1_555
Al3 Si13 3.037487 1_565
Al4 Si17 2.507104 1_555
Al4 Si4 2.536411 1_555
Al4 Fe1 2.537824 1_555
Al4 Si20 2.560564 1_555
Al4 Fe10 2.574781 1_555
Al4 Fe14 2.595319 1_555
Al4 Si15 2.732272 1_555
Al4 Si11 2.734799 1_555
Al5 Si16 2.507104 1_555
Al5 Si5 2.536411 1_555
Al5 Fe0 2.537824 1_555
Al5 Si21 2.560564 1_555
Al5 Fe11 2.574781 1_555
Al5 Fe15 2.595319 1_655
Al5 Si14 2.732272 1_555
Al5 Si10 2.734799 1_655
Al6 Si19 2.507104 1_555
Al6 Si6 2.536411 1_555
Al6 Fe3 2.537824 1_555
Al6 Si22 2.560564 1_555
Al6 Fe8 2.574781 1_555
Al6 Fe12 2.595319 1_555
Al6 Si13 2.732272 1_555
Al6 Si9 2.734799 1_555
Al7 Si18 2.507104 1_555
Al7 Si7 2.536411 1_555
Al7 Fe2 2.537824 1_555
Al7 Si23 2.560564 1_555
Al7 Fe9 2.574781 1_555
Al7 Fe13 2.595319 1_455
Al7 Si12 2.732272 1_555
Al7 Si8 2.734799 1_455
Al8 Fe2 2.533441 1_655
Al8 Fe8 2.550701 1_555
Al8 Si8 2.582288 1_545
Al8 Si19 2.602893 1_555
Al8 Fe0 2.624455 1_546
Al8 Si23 2.634323 1_655
Al8 Si5 2.637782 1_556
Al8 Fe6 2.670886 1_555
Al9 Fe3 2.533441 1_555
Al9 Fe9 2.550701 1_555
Al9 Si9 2.582288 1_565
Al9 Si18 2.602893 1_555
Al9 Fe1 2.624455 1_565
Al9 Si22 2.634323 1_555
Al9 Si4 2.637782 1_555
Al9 Fe7 2.670886 1_555
Al10 Fe0 2.533441 1_455
Al10 Fe10 2.550701 1_555
Al10 Si10 2.582288 1_565
Al10 Si17 2.602893 1_555
Al10 Al8 2.607691 1_464
Al10 Fe2 2.624455 1_564
Al10 Si21 2.634323 1_455
Al10 Si7 2.637782 1_554
Al10 Fe4 2.670886 1_555
Al10 Al12 2.703457 1_564
Al10 Al18 2.771780 1_555
Al11 Fe1 2.533441 1_555
Al11 Fe11 2.550701 1_555
Al11 Si11 2.582288 1_545
Al11 Si16 2.602893 1_555
Al11 Al9 2.607691 1_545
Al11 Fe3 2.624455 1_545
Al11 Si20 2.634323 1_555
Al11 Si6 2.637782 1_555
Al11 Fe5 2.670886 1_555
Al11 Al13 2.703457 1_545
Al11 Al19 2.771780 1_555
Al12 Fe2 2.525877 1_555
Al12 Si19 2.608439 1_555
Al12 Si12 2.612560 1_545
Al12 Fe12 2.613522 1_555
Al12 Fe4 2.623213 1_546
Al12 Si1 2.664694 1_556
Al12 Fe6 2.676402 1_555
Al12 Si23 2.683666 1_555
Al12 Al20 2.779174 1_555
Al12 Al14 2.830224 1_546
Al12 Si17 3.005962 1_546
Al13 Fe3 2.525877 1_555
Al13 Si18 2.608439 1_655
Al13 Si13 2.612560 1_565
Al13 Fe13 2.613522 1_555
Al13 Fe5 2.623213 1_565
Al13 Si0 2.664694 1_555
Al13 Fe7 2.676402 1_655
Al13 Si22 2.683666 1_555
Al13 Al21 2.779174 1_555
Al13 Al15 2.830224 1_665
Al13 Si16 3.005962 1_565
Al14 Fe0 2.525877 1_555
Al14 Si17 2.608439 1_555
Al14 Si14 2.612560 1_565
Al14 Fe14 2.613522 1_555
Al14 Fe6 2.623213 1_564
Al14 Si3 2.664694 1_554
Al14 Fe4 2.676402 1_555
Al14 Si21 2.683666 1_555
Al14 Al8 2.703457 1_564
Al14 Al22 2.779174 1_555
Al14 Si19 3.005962 1_564
Al15 Fe1 2.525877 1_555
Al15 Si16 2.608439 1_455
Al15 Si15 2.612560 1_545
Al15 Fe15 2.613522 1_555
Al15 Fe7 2.623213 1_545
Al15 Si2 2.664694 1_555
Al15 Fe5 2.676402 1_455
Al15 Si20 2.683666 1_555
Al15 Al9 2.703457 1_545
Al15 Al23 2.779174 1_555
Al15 Si18 3.005962 1_545
Al16 Fe13 2.398636 1_555
Al16 Si19 2.515575 1_555
Al16 Fe6 2.539214 1_555
Al16 Al21 2.696196 1_555
Al16 Si22 2.713691 1_555
Al16 Fe8 2.724954 1_555
Al16 Al8 2.771780 1_555
Al16 Si5 2.820752 1_556
Al16 Al20 2.862905 1_555
Al16 Al7 2.911947 1_655
Al16 Si8 2.955077 1_555
Al17 Fe12 2.398636 1_555
Al17 Si18 2.515575 1_555
Al17 Fe7 2.539214 1_555
Al17 Al20 2.696196 1_555
Al17 Si23 2.713691 1_555
Al17 Fe9 2.724954 1_555
Al17 Al9 2.771780 1_555
Al17 Si4 2.820752 1_555
Al17 Al21 2.862905 1_455
Al17 Al6 2.911947 1_555
Al17 Si9 2.955077 1_555
Al18 Fe15 2.398636 1_555
Al18 Si17 2.515575 1_555
Al18 Fe4 2.539214 1_555
Al18 Al23 2.696196 1_555
Al18 Si20 2.713691 1_555
Al18 Fe10 2.724954 1_555
Al18 Si7 2.820752 1_554
Al18 Al22 2.862905 1_555
Al18 Al5 2.911947 1_455
Al18 Si10 2.955077 1_555
Al19 Fe14 2.398636 1_555
Al19 Si16 2.515575 1_555
Al19 Fe5 2.539214 1_555
Al19 Al22 2.696196 1_555
Al19 Si21 2.713691 1_555
Al19 Fe11 2.724954 1_555
Al19 Si6 2.820752 1_555
Al19 Al23 2.862905 1_655
Al19 Al4 2.911947 1_555
Al19 Si11 2.955077 1_555
Al20 Fe9 2.400633 1_555
Al20 Fe6 2.477133 1_555
Al20 Si19 2.540459 1_555
Al20 Si22 2.803331 1_555
Al20 Fe12 2.838817 1_555
Al20 Si12 2.882889 1_555
Al21 Fe8 2.400633 1_555
Al21 Fe7 2.477133 1_655
Al21 Si18 2.540459 1_655
Al21 Si23 2.803331 1_655
Al21 Fe13 2.838817 1_555
Al21 Si13 2.882889 1_555
Al22 Fe11 2.400633 1_555
Al22 Fe4 2.477133 1_555
Al22 Si17 2.540459 1_555
Al22 Si20 2.803331 1_555
Al22 Fe14 2.838817 1_555
Al22 Si14 2.882889 1_555
Al23 Fe10 2.400633 1_555
Al23 Fe5 2.477133 1_455
Al23 Si16 2.540459 1_455
Al23 Si21 2.803331 1_455
Al23 Fe15 2.838817 1_555
Al23 Si15 2.882889 1_555
Fe0 Si8 2.258199 1_554
Fe0 Si21 2.326012 1_555
Fe0 Si7 2.364636 1_654
Fe0 Si5 2.386801 1_555
Fe0 Si3 2.476907 1_554
Fe1 Si9 2.258199 1_555
Fe1 Si20 2.326012 1_555
Fe1 Si6 2.364636 1_555
Fe1 Si4 2.386801 1_555
Fe1 Si2 2.476907 1_555
Fe2 Si10 2.258199 1_556
Fe2 Si23 2.326012 1_555
Fe2 Si5 2.364636 1_456
Fe2 Si7 2.386801 1_555
Fe2 Si1 2.476907 1_556
Fe3 Si11 2.258199 1_555
Fe3 Si22 2.326012 1_555
Fe3 Si4 2.364636 1_555
Fe3 Si6 2.386801 1_555
Fe3 Si0 2.476907 1_555
Fe4 Si17 2.276604 1_555
Fe4 Si12 2.288811 1_554
Fe4 Si7 2.348239 1_554
Fe4 Si1 2.442472 1_555
Fe4 Si3 2.450480 1_554
Fe5 Si16 2.276604 1_555
Fe5 Si13 2.288811 1_555
Fe5 Si6 2.348239 1_555
Fe5 Si0 2.442472 1_555
Fe5 Si2 2.450480 1_655
Fe6 Si19 2.276604 1_555
Fe6 Si14 2.288811 1_556
Fe6 Si5 2.348239 1_556
Fe6 Si3 2.442472 1_555
Fe6 Si1 2.450480 1_556
Fe7 Si18 2.276604 1_555
Fe7 Si15 2.288811 1_555
Fe7 Si4 2.348239 1_555
Fe7 Si2 2.442472 1_555
Fe7 Si0 2.450480 1_455
Fe8 Si13 2.313613 1_555
Fe8 Si8 2.348962 1_545
Fe8 Si19 2.364912 1_555
Fe8 Si23 2.528018 1_655
Fe9 Si12 2.313613 1_555
Fe9 Si9 2.348962 1_565
Fe9 Si18 2.364912 1_555
Fe9 Si22 2.528018 1_555
Fe10 Si15 2.313613 1_555
Fe10 Si10 2.348962 1_565
Fe10 Si17 2.364912 1_555
Fe10 Si21 2.528018 1_455
Fe11 Si14 2.313613 1_555
Fe11 Si11 2.348962 1_545
Fe11 Si16 2.364912 1_555
Fe11 Si20 2.528018 1_555
Fe12 Si9 2.293340 1_555
Fe12 Si19 2.338925 1_555
Fe12 Si12 2.341738 1_545
Fe12 Si23 2.499494 1_555
Fe13 Si8 2.293340 1_555
Fe13 Si18 2.338925 1_655
Fe13 Si13 2.341738 1_565
Fe13 Si22 2.499494 1_555
Fe14 Si11 2.293340 1_555
Fe14 Si17 2.338925 1_555
Fe14 Si14 2.341738 1_565
Fe14 Si21 2.499494 1_555
Fe15 Si10 2.293340 1_555
Fe15 Si16 2.338925 1_455
Fe15 Si15 2.341738 1_545
Fe15 Si20 2.499494 1_555
Si0 Si6 2.664451 1_555
Si0 Si15 2.705037 1_655
Si1 Si7 2.664451 1_554
Si1 Si14 2.705037 1_555
Si2 Si4 2.664451 1_555
Si3 Si5 2.664451 1_556
Si4 Si6 2.598795 1_555
Si5 Si7 2.598795 1_654
Si6 Si9 2.736174 1_555
Si7 Si8 2.736174 1_455
Si10 Si5 2.736174 1_455
Si11 Si4 2.736174 1_555
Si12 Si7 2.645335 1_555
Si12 Si3 2.705037 1_555
Si13 Si6 2.645335 1_555
Si13 Si2 2.705037 1_655
Si14 Si5 2.645335 1_555
Si15 Si4 2.645335 1_555
