# generated using pymatgen
data_Li3Bi
_symmetry_space_group_name_H-M   'P 1'
_cell_length_a   4.80645600
_cell_length_b   4.80645600
_cell_length_c   8.53544200
_cell_angle_alpha   90.00000000
_cell_angle_beta   90.00000000
_cell_angle_gamma   119.99999999
_symmetry_Int_Tables_number   1
_chemical_formula_structural   Li3Bi
_chemical_formula_sum   'Li6 Bi2'
_cell_volume   170.76803827
_cell_formula_units_Z   2
loop_
 _symmetry_equiv_pos_site_id
 _symmetry_equiv_pos_as_xyz
  1  'x, y, z'
loop_
 _atom_site_type_symbol
 _atom_site_label
 _atom_site_symmetry_multiplicity
 _atom_site_fract_x
 _atom_site_fract_y
 _atom_site_fract_z
 _atom_site_occupancy
  Li  Li0  1  0.33333300  0.66666700  0.91214700  1
  Li  Li1  1  0.66666700  0.33333300  0.41214700  1
  Li  Li2  1  0.00000000  0.00000000  0.25000000  1
  Li  Li3  1  0.00000000  0.00000000  0.75000000  1
  Li  Li4  1  0.33333300  0.66666700  0.58785300  1
  Li  Li5  1  0.66666700  0.33333300  0.08785300  1
  Bi  Bi0  1  0.66666700  0.33333300  0.75000000  1
  Bi  Bi1  1  0.33333300  0.66666700  0.25000000  1
loop_
_geom_bond_atom_site_label_1
_geom_bond_atom_site_label_2
_geom_bond_distance
_geom_bond_site_symmetry_2
Li0 Li4 2.767993 1_555
Li0 Li3 3.100984 1_565
Li0 Li3 3.100988 1_665
Li0 Li3 3.100988 1_555
Li0 Li5 3.154337 1_456
Li0 Li5 3.154337 1_566
Li0 Li5 3.154344 1_556
Li1 Li5 2.767993 1_555
Li1 Li2 3.100984 1_655
Li1 Li2 3.100988 1_555
Li1 Li2 3.100988 1_665
Li1 Li4 3.154337 1_655
Li1 Li4 3.154337 1_545
Li1 Li4 3.154344 1_555
Li2 Li5 3.100984 1_455
Li2 Li5 3.100988 1_555
Li2 Li5 3.100988 1_445
Li3 Li4 3.100984 1_545
Li3 Li4 3.100988 1_445
Li3 Li4 3.100988 1_555
Bi0 Li3 2.775006 1_655
Bi0 Li3 2.775010 1_555
Bi0 Li3 2.775010 1_665
Bi0 Li5 2.883725 1_556
Bi0 Li1 2.883725 1_555
Bi0 Li0 3.100984 1_655
Bi0 Li4 3.100984 1_655
Bi0 Li0 3.100984 1_545
Bi0 Li4 3.100984 1_545
Bi0 Li0 3.100992 1_555
Bi0 Li4 3.100992 1_555
Bi1 Li2 2.775006 1_565
Bi1 Li2 2.775010 1_665
Bi1 Li2 2.775010 1_555
Bi1 Li4 2.883725 1_555
Bi1 Li0 2.883725 1_554
Bi1 Li5 3.100984 1_455
Bi1 Li1 3.100984 1_455
Bi1 Li5 3.100984 1_565
Bi1 Li1 3.100984 1_565
Bi1 Li1 3.100992 1_555
Bi1 Li5 3.100992 1_555
