# generated using pymatgen
data_Mn4Be3Ge3SeO12
_symmetry_space_group_name_H-M   'P 1'
_cell_length_a   8.61585000
_cell_length_b   8.61585000
_cell_length_c   8.61585000
_cell_angle_alpha   90.00000000
_cell_angle_beta   90.00000000
_cell_angle_gamma   90.00000000
_symmetry_Int_Tables_number   1
_chemical_formula_structural   Mn4Be3Ge3SeO12
_chemical_formula_sum   'Mn8 Be6 Ge6 Se2 O24'
_cell_volume   639.57928352
_cell_formula_units_Z   2
loop_
 _symmetry_equiv_pos_site_id
 _symmetry_equiv_pos_as_xyz
  1  'x, y, z'
loop_
 _atom_site_type_symbol
 _atom_site_label
 _atom_site_symmetry_multiplicity
 _atom_site_fract_x
 _atom_site_fract_y
 _atom_site_fract_z
 _atom_site_occupancy
  Mn  Mn0  1  0.67392100  0.67392100  0.67392100  1
  Mn  Mn1  1  0.82607900  0.17392100  0.82607900  1
  Mn  Mn2  1  0.17392100  0.82607900  0.82607900  1
  Mn  Mn3  1  0.82607900  0.82607900  0.17392100  1
  Mn  Mn4  1  0.67392100  0.32607900  0.32607900  1
  Mn  Mn5  1  0.32607900  0.32607900  0.67392100  1
  Mn  Mn6  1  0.17392100  0.17392100  0.17392100  1
  Mn  Mn7  1  0.32607900  0.67392100  0.32607900  1
  Be  Be0  1  0.25000000  0.50000000  0.00000000  1
  Be  Be1  1  0.50000000  0.00000000  0.75000000  1
  Be  Be2  1  0.50000000  0.00000000  0.25000000  1
  Be  Be3  1  0.00000000  0.25000000  0.50000000  1
  Be  Be4  1  0.00000000  0.75000000  0.50000000  1
  Be  Be5  1  0.75000000  0.50000000  0.00000000  1
  Ge  Ge0  1  0.25000000  0.00000000  0.50000000  1
  Ge  Ge1  1  0.50000000  0.75000000  0.00000000  1
  Ge  Ge2  1  0.50000000  0.25000000  0.00000000  1
  Ge  Ge3  1  0.00000000  0.50000000  0.25000000  1
  Ge  Ge4  1  0.00000000  0.50000000  0.75000000  1
  Ge  Ge5  1  0.75000000  0.00000000  0.50000000  1
  Se  Se0  1  0.00000000  0.00000000  0.00000000  1
  Se  Se1  1  0.50000000  0.50000000  0.50000000  1
  O  O0  1  0.13606000  0.85282400  0.58759900  1
  O  O1  1  0.63606000  0.08759900  0.35282400  1
  O  O2  1  0.91240100  0.64717600  0.63606000  1
  O  O3  1  0.08759900  0.64717600  0.36394000  1
  O  O4  1  0.64717600  0.63606000  0.91240100  1
  O  O5  1  0.35282400  0.36394000  0.91240100  1
  O  O6  1  0.86394000  0.85282400  0.41240100  1
  O  O7  1  0.86394000  0.14717600  0.58759900  1
  O  O8  1  0.63606000  0.91240100  0.64717600  1
  O  O9  1  0.14717600  0.58759900  0.86394000  1
  O  O10  1  0.58759900  0.13606000  0.85282400  1
  O  O11  1  0.58759900  0.86394000  0.14717600  1
  O  O12  1  0.85282400  0.41240100  0.86394000  1
  O  O13  1  0.41240100  0.86394000  0.85282400  1
  O  O14  1  0.13606000  0.14717600  0.41240100  1
  O  O15  1  0.36394000  0.91240100  0.35282400  1
  O  O16  1  0.36394000  0.08759900  0.64717600  1
  O  O17  1  0.85282400  0.58759900  0.13606000  1
  O  O18  1  0.91240100  0.35282400  0.36394000  1
  O  O19  1  0.64717600  0.36394000  0.08759900  1
  O  O20  1  0.35282400  0.63606000  0.08759900  1
  O  O21  1  0.41240100  0.13606000  0.14717600  1
  O  O22  1  0.14717600  0.41240100  0.13606000  1
  O  O23  1  0.08759900  0.35282400  0.63606000  1
loop_
_geom_bond_atom_site_label_1
_geom_bond_atom_site_label_2
_geom_bond_distance
_geom_bond_site_symmetry_2
Mn0 O8 2.093163 1_555
Mn0 O2 2.093163 1_555
Mn0 O4 2.093163 1_555
Mn0 Se1 2.595439 1_555
Mn1 O12 2.093163 1_555
Mn1 O10 2.093163 1_555
Mn1 O7 2.093163 1_555
Mn1 Se0 2.595439 1_656
Mn2 O13 2.093163 1_555
Mn2 O0 2.093163 1_555
Mn2 O9 2.093163 1_555
Mn2 Se0 2.595439 1_566
Mn3 O6 2.093163 1_555
Mn3 O17 2.093163 1_555
Mn3 O11 2.093163 1_555
Mn3 Se0 2.595439 1_665
Mn4 O18 2.093163 1_555
Mn4 O1 2.093163 1_555
Mn4 O19 2.093163 1_555
Mn4 Se1 2.595439 1_555
Mn5 O5 2.093163 1_555
Mn5 O23 2.093163 1_555
Mn5 O16 2.093163 1_555
Mn5 Se1 2.595439 1_555
Mn6 O22 2.093163 1_555
Mn6 O21 2.093163 1_555
Mn6 O14 2.093163 1_555
Mn6 Se0 2.595439 1_555
Mn7 O15 2.093163 1_555
Mn7 O20 2.093163 1_555
Mn7 O3 2.093163 1_555
Mn7 Se1 2.595439 1_555
Be0 O20 1.651879 1_555
Be0 O5 1.651879 1_554
Be0 O9 1.651879 1_554
Be0 O22 1.651879 1_555
Be1 O10 1.651879 1_555
Be1 O13 1.651879 1_545
Be1 O16 1.651879 1_555
Be1 O8 1.651879 1_545
Be2 O1 1.651879 1_555
Be2 O15 1.651879 1_545
Be2 O11 1.651879 1_545
Be2 O21 1.651879 1_555
Be3 O23 1.651879 1_555
Be3 O18 1.651879 1_455
Be3 O7 1.651879 1_455
Be3 O14 1.651879 1_555
Be4 O0 1.651879 1_555
Be4 O6 1.651879 1_455
Be4 O3 1.651879 1_555
Be4 O2 1.651879 1_455
Be5 O17 1.651879 1_555
Be5 O12 1.651879 1_554
Be5 O19 1.651879 1_555
Be5 O4 1.651879 1_554
Ge0 O16 1.772368 1_555
Ge0 O14 1.772368 1_555
Ge0 O0 1.772368 1_545
Ge0 O15 1.772368 1_545
Ge1 O11 1.772368 1_555
Ge1 O4 1.772368 1_554
Ge1 O20 1.772368 1_555
Ge1 O13 1.772368 1_554
Ge2 O19 1.772368 1_555
Ge2 O21 1.772368 1_555
Ge2 O10 1.772368 1_554
Ge2 O5 1.772368 1_554
Ge3 O3 1.772368 1_555
Ge3 O22 1.772368 1_555
Ge3 O17 1.772368 1_455
Ge3 O18 1.772368 1_455
Ge4 O9 1.772368 1_555
Ge4 O2 1.772368 1_455
Ge4 O23 1.772368 1_555
Ge4 O12 1.772368 1_455
Ge5 O7 1.772368 1_555
Ge5 O8 1.772368 1_545
Ge5 O1 1.772368 1_555
Ge5 O6 1.772368 1_545
