# generated using pymatgen
data_Na2Mg2SiGe2S5O24
_symmetry_space_group_name_H-M   'P 1'
_cell_length_a   8.56176611
_cell_length_b   8.54827794
_cell_length_c   22.11415697
_cell_angle_alpha   89.94955681
_cell_angle_beta   89.56089765
_cell_angle_gamma   120.11868586
_symmetry_Int_Tables_number   1
_chemical_formula_structural   Na2Mg2SiGe2S5O24
_chemical_formula_sum   'Na6 Mg6 Si3 Ge6 S15 O72'
_cell_volume   1399.91973654
_cell_formula_units_Z   3
loop_
 _symmetry_equiv_pos_site_id
 _symmetry_equiv_pos_as_xyz
  1  'x, y, z'
loop_
 _atom_site_type_symbol
 _atom_site_label
 _atom_site_symmetry_multiplicity
 _atom_site_fract_x
 _atom_site_fract_y
 _atom_site_fract_z
 _atom_site_occupancy
  Na  Na0  1  0.00247370  0.00197027  0.49825218  1
  Na  Na1  1  0.99734354  0.99091861  0.99925497  1
  Na  Na2  1  0.66752524  0.31565126  0.82529354  1
  Na  Na3  1  0.65047447  0.32157860  0.33591642  1
  Na  Na4  1  0.31675857  0.66968036  0.16550640  1
  Na  Na5  1  0.34114062  0.67266060  0.66450032  1
  Mg  Mg0  1  0.01405525  0.00484233  0.35148372  1
  Mg  Mg1  1  0.99684908  0.00139059  0.85245733  1
  Mg  Mg2  1  0.66636478  0.32828437  0.68532199  1
  Mg  Mg3  1  0.66287446  0.33079159  0.48366311  1
  Mg  Mg4  1  0.32431918  0.66749929  0.02393382  1
  Mg  Mg5  1  0.33499365  0.67045687  0.52182237  1
  Si  Si0  1  0.30057094  0.00167015  0.25122439  1
  Si  Si1  1  0.71003484  0.00327887  0.75378156  1
  Si  Si2  1  0.94967562  0.62032989  0.08571075  1
  Ge  Ge0  1  0.98488832  0.99394804  0.65023717  1
  Ge  Ge1  1  0.01046608  0.97897309  0.15075605  1
  Ge  Ge2  1  0.66950528  0.32753455  0.18648431  1
  Ge  Ge3  1  0.67626147  0.34810113  0.98110825  1
  Ge  Ge4  1  0.33353417  0.68161208  0.31758160  1
  Ge  Ge5  1  0.33979928  0.67210299  0.81032854  1
  S  S0  1  0.70628151  0.70669116  0.25041796  1
  S  S1  1  0.00200746  0.28675349  0.24848527  1
  S  S2  1  0.28669572  0.29242557  0.75082951  1
  S  S3  1  0.00398052  0.71213562  0.75140810  1
  S  S4  1  0.96217932  0.32741220  0.58478491  1
  S  S5  1  0.36014159  0.03873362  0.58651016  1
  S  S6  1  0.67442645  0.63264635  0.58485857  1
  S  S7  1  0.67682703  0.05036855  0.08373292  1
  S  S8  1  0.37725318  0.32736101  0.08419783  1
  S  S9  1  0.61819157  0.65808550  0.91868573  1
  S  S10  1  0.04343468  0.38067437  0.91771117  1
  S  S11  1  0.34110406  0.96425790  0.91838134  1
  S  S12  1  0.62626795  0.95974380  0.41616727  1
  S  S13  1  0.33367638  0.38610900  0.41467397  1
  S  S14  1  0.03942806  0.66262702  0.41707417  1
  O  O0  1  0.22666509  0.04927988  0.30921932  1
  O  O1  1  0.81526510  0.79072362  0.30283158  1
  O  O2  1  0.96661609  0.17773306  0.30209594  1
  O  O3  1  0.21295366  0.18493282  0.80551390  1
  O  O4  1  0.98884179  0.79688061  0.80610460  1
  O  O5  1  0.81816535  0.02501171  0.81321042  1
  O  O6  1  0.79175313  0.95203546  0.69141363  1
  O  O7  1  0.17343058  0.21208227  0.69537745  1
  O  O8  1  0.05089573  0.83015620  0.69543069  1
  O  O9  1  0.78199738  0.82299836  0.19355659  1
  O  O10  1  0.02950684  0.20316561  0.19171656  1
  O  O11  1  0.17492419  0.95317622  0.18951695  1
  O  O12  1  0.87837883  0.34845119  0.63910314  1
  O  O13  1  0.46840380  0.12333636  0.63948798  1
  O  O14  1  0.65405516  0.52842106  0.63933280  1
  O  O15  1  0.84846011  0.49241535  0.14456593  1
  O  O16  1  0.63188832  0.12331576  0.13836343  1
  O  O17  1  0.48394742  0.34884243  0.13895382  1
  O  O18  1  0.45091969  0.28202078  0.02857430  1
  O  O19  1  0.82365261  0.53933438  0.02411151  1
  O  O20  1  0.70727647  0.16520707  0.02802639  1
  O  O21  1  0.43455248  0.14363738  0.53026489  1
  O  O22  1  0.69790306  0.55225348  0.52943531  1
  O  O23  1  0.85565289  0.29839772  0.52979866  1
  O  O24  1  0.53032352  0.67628882  0.97220875  1
  O  O25  1  0.14659874  0.47086148  0.97087321  1
  O  O26  1  0.31969920  0.85779805  0.97213801  1
  O  O27  1  0.53680117  0.84805237  0.46863714  1
  O  O28  1  0.31820049  0.47713728  0.46746892  1
  O  O29  1  0.15279132  0.68627761  0.46852218  1
  O  O30  1  0.12049208  0.63153805  0.35806187  1
  O  O31  1  0.51425154  0.88068606  0.35789044  1
  O  O32  1  0.36544243  0.50047804  0.35543030  1
  O  O33  1  0.12118703  0.49088712  0.86017639  1
  O  O34  1  0.37216953  0.88578098  0.86148197  1
  O  O35  1  0.51033497  0.62853146  0.86205961  1
  O  O36  1  0.02308058  0.82466942  0.41021492  1
  O  O37  1  0.80204575  0.97213242  0.40745138  1
  O  O38  1  0.16647785  0.21160729  0.40946290  1
  O  O39  1  0.02461991  0.20149007  0.91388623  1
  O  O40  1  0.18430200  0.98873844  0.91204235  1
  O  O41  1  0.80338435  0.80959143  0.91401898  1
  O  O42  1  0.97985171  0.15788773  0.58962358  1
  O  O43  1  0.17559260  0.02526240  0.59350951  1
  O  O44  1  0.85022323  0.81590916  0.58825463  1
  O  O45  1  0.95434936  0.81816714  0.09128525  1
  O  O46  1  0.84903058  0.05143863  0.09160729  1
  O  O47  1  0.19033671  0.16676117  0.09033350  1
  O  O48  1  0.67547800  0.16731836  0.74398030  1
  O  O49  1  0.47074107  0.33085221  0.74137869  1
  O  O50  1  0.84182995  0.53770172  0.74305425  1
  O  O51  1  0.69256699  0.52655683  0.24297023  1
  O  O52  1  0.84047285  0.31057438  0.24189629  1
  O  O53  1  0.50393453  0.18015435  0.23807700  1
  O  O54  1  0.62480323  0.48082840  0.92122950  1
  O  O55  1  0.85535154  0.36164427  0.92106625  1
  O  O56  1  0.51264575  0.14952243  0.92327823  1
  O  O57  1  0.64171351  0.13861066  0.41980025  1
  O  O58  1  0.49496780  0.36653564  0.41641585  1
  O  O59  1  0.86120743  0.49857055  0.42049170  1
  O  O60  1  0.36977216  0.49195656  0.07683105  1
  O  O61  1  0.14473688  0.64322472  0.08290353  1
  O  O62  1  0.52439079  0.86863866  0.07670572  1
  O  O63  1  0.33093828  0.85388106  0.58070295  1
  O  O64  1  0.52194371  0.66674589  0.58028456  1
  O  O65  1  0.14698503  0.48349217  0.57907605  1
  O  O66  1  0.32262271  0.81869765  0.25783353  1
  O  O67  1  0.52010185  0.67786380  0.25474508  1
  O  O68  1  0.16583267  0.46937452  0.25257825  1
  O  O69  1  0.28884718  0.47144113  0.75651890  1
  O  O70  1  0.16535298  0.68350158  0.75608287  1
  O  O71  1  0.50326663  0.81123034  0.75691615  1
loop_
_geom_bond_atom_site_label_1
_geom_bond_atom_site_label_2
_geom_bond_distance
_geom_bond_site_symmetry_2
Na0 O44 2.462571 1_445
Na0 O42 2.480844 1_455
Na0 O36 2.527215 1_545
Na0 O43 2.535051 1_555
Na0 O38 2.542560 1_555
Na0 O37 2.579966 1_445
Na1 O45 2.428134 1_556
Na1 O41 2.486583 1_555
Na1 O40 2.502975 1_655
Na1 O39 2.534564 1_665
Na1 O47 2.571021 1_666
Na1 O46 2.583109 1_566
Na2 O48 2.221407 1_555
Na2 O50 2.499409 1_555
Na2 O56 2.555583 1_555
Na2 O49 2.562491 1_555
Na2 O55 2.577873 1_555
Na2 O54 2.672101 1_555
Na3 O58 2.359610 1_555
Na3 O57 2.401673 1_555
Na3 O53 2.498192 1_555
Na3 O59 2.521825 1_555
Na3 O51 2.602589 1_555
Na3 O52 2.660849 1_555
Na4 O61 2.294518 1_555
Na4 O66 2.394963 1_555
Na4 O68 2.458618 1_555
Na4 O62 2.610639 1_555
Na4 O67 2.619357 1_555
Na4 O60 2.653897 1_555
Na5 O64 2.429353 1_555
Na5 O71 2.429859 1_555
Na5 O63 2.444310 1_555
Na5 O65 2.510505 1_555
Na5 O70 2.543439 1_555
Na5 O69 2.550881 1_555
Mg0 O0 1.900196 1_555
Mg0 O2 2.036769 1_455
Mg0 O36 2.045092 1_545
Mg0 O38 2.045915 1_555
Mg0 O1 2.075968 1_445
Mg0 O37 2.088177 1_445
Mg1 O5 1.861327 1_555
Mg1 O4 1.998903 1_545
Mg1 O3 2.004256 1_655
Mg1 O39 2.104430 1_655
Mg1 O41 2.126305 1_545
Mg1 O40 2.128407 1_645
Mg2 O48 1.920480 1_555
Mg2 O13 2.004692 1_555
Mg2 O12 2.006638 1_555
Mg2 O14 2.037615 1_555
Mg2 O49 2.085081 1_555
Mg2 O50 2.103794 1_555
Mg3 O22 2.033875 1_555
Mg3 O21 2.066523 1_555
Mg3 O23 2.079860 1_555
Mg3 O59 2.099520 1_555
Mg3 O57 2.106060 1_555
Mg3 O58 2.200977 1_555
Mg4 O61 1.938112 1_555
Mg4 O25 1.995389 1_554
Mg4 O26 2.005438 1_554
Mg4 O24 2.064179 1_554
Mg4 O62 2.081063 1_555
Mg4 O60 2.088429 1_555
Mg5 O28 1.990990 1_555
Mg5 O27 2.001667 1_555
Mg5 O29 2.020085 1_555
Mg5 O65 2.032683 1_555
Mg5 O63 2.052485 1_555
Mg5 O64 2.077750 1_555
Ge0 O6 1.753176 1_555
Ge0 O44 1.947117 1_555
Ge0 O42 1.954670 1_565
Ge0 O43 1.959768 1_665
Ge0 O8 2.019631 1_655
Ge0 O7 2.021492 1_665
Ge1 O11 1.759475 1_555
Ge1 O45 1.788874 1_455
Ge1 O9 1.962614 1_455
Ge1 O10 2.052232 1_565
Ge1 O47 2.053683 1_565
Ge1 O46 2.211471 1_465
Ge2 O15 1.732648 1_555
Ge2 O53 1.754652 1_555
Ge2 O16 1.930790 1_555
Ge2 O52 1.976214 1_555
Ge2 O17 1.994400 1_555
Ge2 O51 2.040624 1_555
Ge3 O19 1.766341 1_556
Ge3 O54 1.934626 1_555
Ge3 O55 1.979359 1_555
Ge3 O20 2.002338 1_556
Ge3 O18 2.004337 1_556
Ge3 O56 2.030810 1_555
Ge4 O66 1.799100 1_555
Ge4 O31 1.861680 1_555
Ge4 O30 1.871458 1_555
Ge4 O32 1.896952 1_555
Ge4 O67 2.121531 1_555
Ge4 O68 2.200331 1_555
Ge5 O71 1.752171 1_555
Ge5 O69 1.951711 1_555
Ge5 O70 1.962800 1_555
Ge5 O35 2.037135 1_555
Ge5 O33 2.042951 1_555
Ge5 O34 2.047742 1_555
O0 Si0 1.567731 1_555
O1 S0 1.440661 1_555
O2 S1 1.440490 1_655
O3 S2 1.452403 1_555
O4 S3 1.448452 1_655
O5 Si1 1.570108 1_555
O6 Si1 1.696313 1_565
O7 S2 1.505708 1_555
O8 S3 1.514937 1_555
O9 S0 1.525897 1_555
O10 S1 1.519172 1_555
O11 Si0 1.663492 1_565
O12 S4 1.451440 1_555
O13 S5 1.449184 1_555
O14 S6 1.454074 1_555
O15 Si2 1.633961 1_555
O16 S7 1.493783 1_555
O17 S8 1.477641 1_555
O18 S8 1.515046 1_555
O19 Si2 1.665431 1_555
O20 S7 1.511733 1_555
O21 S5 1.472974 1_555
O22 S6 1.466696 1_555
O23 S4 1.470531 1_555
O24 S9 1.447510 1_555
O25 S10 1.445943 1_555
O26 S11 1.449951 1_555
O27 S12 1.447462 1_555
O28 S13 1.445284 1_555
O29 S14 1.448360 1_555
O30 S14 1.557953 1_555
O31 S12 1.551574 1_555
O32 S13 1.572146 1_555
O33 S10 1.518248 1_555
O34 S11 1.509791 1_555
O35 S9 1.506262 1_555
O36 S14 1.468284 1_555
O37 S12 1.465900 1_555
O38 S13 1.465418 1_555
O39 S10 1.460162 1_555
O40 S11 1.466471 1_555
O41 S9 1.462333 1_555
O42 S4 1.534400 1_555
O43 S5 1.532136 1_555
O44 S6 1.536493 1_555
O45 Si2 1.676119 1_555
O46 S7 1.481407 1_555
O47 S8 1.501882 1_555
O48 Si1 1.586712 1_555
O49 S2 1.452566 1_555
O50 S3 1.453201 1_655
O51 S0 1.493754 1_555
O52 S1 1.503699 1_655
O53 Si0 1.664152 1_555
O54 S9 1.545416 1_555
O55 S10 1.536346 1_655
O56 S11 1.531443 1_545
O57 S12 1.469439 1_545
O58 S13 1.472808 1_555
O59 S14 1.466708 1_655
O60 S8 1.449315 1_555
O61 Si2 1.581661 1_455
O62 S7 1.452437 1_565
O63 S5 1.476580 1_565
O64 S6 1.477658 1_555
O65 S4 1.475675 1_455
O66 Si0 1.673260 1_565
O67 S0 1.488021 1_555
O68 S1 1.489057 1_555
O69 S2 1.526432 1_555
O70 S3 1.523500 1_555
O71 Si1 1.707372 1_565
