# generated using pymatgen
data_K8MgCo2(Mo4O15)2
_symmetry_space_group_name_H-M   'P 1'
_cell_length_a   10.34623262
_cell_length_b   10.29422311
_cell_length_c   8.73065134
_cell_angle_alpha   89.88931187
_cell_angle_beta   90.19980385
_cell_angle_gamma   120.06705412
_symmetry_Int_Tables_number   1
_chemical_formula_structural   K8MgCo2(Mo4O15)2
_chemical_formula_sum   'K8 Mg1 Co2 Mo8 O30'
_cell_volume   804.74187312
_cell_formula_units_Z   1
loop_
 _symmetry_equiv_pos_site_id
 _symmetry_equiv_pos_as_xyz
  1  'x, y, z'
loop_
 _atom_site_type_symbol
 _atom_site_label
 _atom_site_symmetry_multiplicity
 _atom_site_fract_x
 _atom_site_fract_y
 _atom_site_fract_z
 _atom_site_occupancy
  K  K0  1  0.09776300  0.68167700  0.13804200  1
  K  K1  1  0.58601500  0.90361600  0.13981600  1
  K  K2  1  0.42687600  0.10771100  0.84948300  1
  K  K3  1  0.99900800  0.00036800  0.98304300  1
  K  K4  1  0.89164200  0.32011200  0.84867900  1
  K  K5  1  0.68045200  0.57309200  0.84864000  1
  K  K6  1  0.31829800  0.41448800  0.13919200  1
  K  K7  1  0.99748900  0.00094000  0.64233600  1
  Mg  Mg0  1  0.00496400  0.99857900  0.31727200  1
  Co  Co0  1  0.33294100  0.66595800  0.46286900  1
  Co  Co1  1  0.66710000  0.33372000  0.49335900  1
  Mo  Mo0  1  0.98921400  0.31081100  0.37247400  1
  Mo  Mo1  1  0.01131300  0.68186200  0.62699200  1
  Mo  Mo2  1  0.32409400  0.01015800  0.37184700  1
  Mo  Mo3  1  0.66725100  0.33384900  0.14531900  1
  Mo  Mo4  1  0.66727900  0.98901000  0.62880900  1
  Mo  Mo5  1  0.33307900  0.66634000  0.82901600  1
  Mo  Mo6  1  0.68809500  0.67829000  0.37296800  1
  Mo  Mo7  1  0.31950700  0.33002500  0.62696400  1
  O  O0  1  0.48270500  0.82031600  0.64321900  1
  O  O1  1  0.67597800  0.49771800  0.33657400  1
  O  O2  1  0.76167700  0.98717400  0.45780300  1
  O  O3  1  0.50625600  0.65524500  0.33756000  1
  O  O4  1  0.17936200  0.51167700  0.92091900  1
  O  O5  1  0.14920700  0.49291200  0.33711200  1
  O  O6  1  0.28161200  0.01026300  0.56726500  1
  O  O7  1  0.34507700  0.84929100  0.33792000  1
  O  O8  1  0.51436400  0.34315700  0.05326300  1
  O  O9  1  0.84852800  0.49622100  0.62653800  1
  O  O10  1  0.33561300  0.51494800  0.64156100  1
  O  O11  1  0.82237500  0.32460900  0.33602200  1
  O  O12  1  0.98963500  0.26963600  0.56859800  1
  O  O13  1  0.73008400  0.72009700  0.56888100  1
  O  O14  1  0.33300500  0.82003600  0.92212900  1
  O  O15  1  0.82900100  0.48730600  0.05304000  1
  O  O16  1  0.18266800  0.00151000  0.23268100  1
  O  O17  1  0.01251400  0.78241500  0.45708100  1
  O  O18  1  0.65755700  0.17138300  0.05251600  1
  O  O19  1  0.77865300  0.00216700  0.79247900  1
  O  O20  1  0.99756400  0.17540000  0.23696400  1
  O  O21  1  0.50453000  0.17830100  0.33616200  1
  O  O22  1  0.50459900  0.35335000  0.62663600  1
  O  O23  1  0.17803900  0.66387100  0.64172800  1
  O  O24  1  0.21983500  0.23154300  0.45689000  1
  O  O25  1  0.64643900  0.15316700  0.62891400  1
  O  O26  1  0.82234500  0.82166500  0.23661000  1
  O  O27  1  0.99838000  0.77792600  0.79203500  1
  O  O28  1  0.48636800  0.66606900  0.92205300  1
  O  O29  1  0.22365100  0.22002400  0.79173200  1
loop_
_geom_bond_atom_site_label_1
_geom_bond_atom_site_label_2
_geom_bond_distance
_geom_bond_site_symmetry_2
K0 O15 2.588960 1_455
K0 O14 2.837929 1_554
K0 O5 2.845491 1_555
K0 O7 2.850658 1_555
K0 O4 2.978777 1_554
K0 O16 3.066243 1_565
K0 O17 3.249108 1_555
K1 O18 2.584226 1_565
K1 O3 2.842081 1_555
K1 O28 2.852261 1_554
K1 O7 2.854415 1_555
K1 O14 2.986557 1_554
K1 O26 3.074778 1_555
K1 O2 3.187164 1_555
K2 O14 2.688946 1_545
K2 O8 2.768794 1_556
K2 O18 2.770462 1_556
K2 O6 2.794487 1_555
K2 O25 2.837184 1_555
K2 O29 2.904860 1_555
K2 O22 2.963194 1_555
K3 O19 2.825212 1_555
K3 O27 2.832715 1_545
K3 O29 2.837442 1_655
K3 O20 2.864269 1_556
K3 O26 2.875617 1_546
K3 O16 2.882693 1_656
K4 O4 2.693986 1_655
K4 O18 2.771418 1_556
K4 O15 2.775494 1_556
K4 O12 2.797754 1_555
K4 O9 2.835086 1_555
K4 O19 2.913439 1_555
K4 O25 2.946342 1_555
K5 O28 2.701167 1_555
K5 O15 2.767921 1_556
K5 O8 2.770651 1_556
K5 O13 2.781236 1_555
K5 O22 2.837671 1_555
K5 O27 2.927050 1_555
K5 O9 2.969607 1_555
K6 O8 2.592745 1_555
K6 O3 2.843815 1_555
K6 O4 2.848410 1_554
K6 O5 2.853056 1_555
K6 O28 2.969234 1_554
K6 O20 3.102543 1_455
K6 O24 3.217934 1_555
K7 O19 2.625676 1_555
K7 O29 2.639136 1_655
K7 O27 2.643535 1_545
K7 Mg0 2.839826 1_645
K7 O17 2.840213 1_645
K7 O24 2.843905 1_655
K7 O2 2.862724 1_545
K7 O12 2.879215 1_555
K7 O13 2.898939 1_545
K7 O6 2.968257 1_655
Mg0 O16 1.969891 1_565
Mg0 O26 1.982497 1_455
Mg0 O20 1.986216 1_465
Co0 O7 2.126768 1_555
Co0 O5 2.142947 1_555
Co0 O3 2.153318 1_555
Co0 O10 2.210119 1_555
Co0 O0 2.220504 1_555
Co0 O23 2.233883 1_555
Co1 O25 2.120393 1_555
Co1 O9 2.125951 1_555
Co1 O21 2.137353 1_555
Co1 O1 2.137484 1_555
Co1 O22 2.139265 1_555
Co1 O11 2.154872 1_555
Mo0 O12 1.763693 1_555
Mo0 O5 1.800413 1_655
Mo0 O11 1.828317 1_555
Mo0 O20 1.864945 1_555
Mo1 O27 1.792084 1_455
Mo1 O17 1.803746 1_555
Mo1 O9 1.806516 1_455
Mo1 O23 1.828909 1_555
Mo2 O6 1.763453 1_555
Mo2 O7 1.799941 1_545
Mo2 O21 1.828188 1_555
Mo2 O16 1.866199 1_555
Mo3 O8 1.816575 1_555
Mo3 O18 1.816658 1_555
Mo3 O15 1.816775 1_555
Mo3 O21 2.341476 1_555
Mo3 O11 2.343230 1_555
Mo3 O1 2.345032 1_555
Mo4 O2 1.792215 1_555
Mo4 O19 1.794689 1_565
Mo4 O25 1.807555 1_565
Mo4 O0 1.831975 1_555
Mo5 O14 1.780548 1_555
Mo5 O28 1.780595 1_555
Mo5 O4 1.781785 1_555
Mo5 O0 2.255894 1_555
Mo5 O10 2.271357 1_555
Mo5 O23 2.277814 1_555
Mo6 O13 1.763490 1_555
Mo6 O3 1.800090 1_555
Mo6 O1 1.827701 1_555
Mo6 O26 1.864262 1_555
Mo7 O29 1.792641 1_555
Mo7 O24 1.800994 1_555
Mo7 O22 1.806708 1_555
Mo7 O10 1.830514 1_555
