# generated using pymatgen
data_MgCo5O8
_symmetry_space_group_name_H-M   'P 1'
_cell_length_a   5.87342861
_cell_length_b   5.86613333
_cell_length_c   5.87545332
_cell_angle_alpha   89.98310382
_cell_angle_beta   60.04652102
_cell_angle_gamma   60.02658589
_symmetry_Int_Tables_number   1
_chemical_formula_structural   MgCo5O8
_chemical_formula_sum   'Mg1 Co5 O8'
_cell_volume   143.32201094
_cell_formula_units_Z   1
loop_
 _symmetry_equiv_pos_site_id
 _symmetry_equiv_pos_as_xyz
  1  'x, y, z'
loop_
 _atom_site_type_symbol
 _atom_site_label
 _atom_site_symmetry_multiplicity
 _atom_site_fract_x
 _atom_site_fract_y
 _atom_site_fract_z
 _atom_site_occupancy
  Mg  Mg0  1  0.75244700  0.12362000  0.87058400  1
  Co  Co0  1  0.51240600  0.49234800  0.48089300  1
  Co  Co1  1  0.51057000  0.99530200  0.48089300  1
  Co  Co2  1  0.27216900  0.86399000  0.09090100  1
  Co  Co3  1  0.01354200  0.49412800  0.48088400  1
  Co  Co4  1  0.01405300  0.49298400  0.97812400  1
  O  O0  1  0.03156500  0.69504300  0.22440500  1
  O  O1  1  0.96909000  0.27336300  0.22450300  1
  O  O2  1  0.54945300  0.72508300  0.67560900  1
  O  O3  1  0.54865800  0.75709200  0.22375100  1
  O  O4  1  0.47621300  0.23048000  0.73519700  1
  O  O5  1  0.47519200  0.26261400  0.28569700  1
  O  O6  1  0.05788000  0.71207700  0.73431700  1
  O  O7  1  0.99533400  0.29258900  0.73447900  1
loop_
_geom_bond_atom_site_label_1
_geom_bond_atom_site_label_2
_geom_bond_distance
_geom_bond_site_symmetry_2
Mg0 O6 1.981645 1_645
Mg0 O4 1.982493 1_555
Mg0 O7 1.982497 1_555
Mg0 O5 1.993382 1_556
Co0 O6 1.897053 1_555
Co0 O1 1.907216 1_555
Co0 O5 1.929972 1_555
Co0 O2 1.940733 1_555
Co0 O4 2.155273 1_555
Co0 O3 2.178899 1_555
Co1 O4 1.896952 1_565
Co1 O3 1.907007 1_555
Co1 O5 1.930988 1_565
Co1 O2 1.942108 1_555
Co1 O7 2.155199 1_465
Co1 O0 2.179064 1_655
Co2 O1 1.971352 1_465
Co2 O0 1.971439 1_555
Co2 O3 1.971712 1_555
Co2 O2 1.994240 1_554
Co3 O7 1.896152 1_455
Co3 O0 1.906685 1_555
Co3 O5 1.930787 1_555
Co3 O2 1.941953 1_455
Co3 O6 2.154222 1_555
Co3 O1 2.178559 1_455
Co4 O7 1.931464 1_455
Co4 O6 1.931665 1_555
Co4 O4 1.931977 1_555
Co4 O0 1.944434 1_556
Co4 O1 1.944773 1_456
Co4 O3 1.945599 1_456
