# generated using pymatgen
data_Ba2Mg(TiS3)2
_symmetry_space_group_name_H-M   'P 1'
_cell_length_a   7.54942235
_cell_length_b   6.84174162
_cell_length_c   5.88057228
_cell_angle_alpha   90.00000054
_cell_angle_beta   73.64082612
_cell_angle_gamma   116.94469034
_symmetry_Int_Tables_number   1
_chemical_formula_structural   Ba2Mg(TiS3)2
_chemical_formula_sum   'Ba2 Mg1 Ti2 S6'
_cell_volume   256.89569263
_cell_formula_units_Z   1
loop_
 _symmetry_equiv_pos_site_id
 _symmetry_equiv_pos_as_xyz
  1  'x, y, z'
loop_
 _atom_site_type_symbol
 _atom_site_label
 _atom_site_symmetry_multiplicity
 _atom_site_fract_x
 _atom_site_fract_y
 _atom_site_fract_z
 _atom_site_occupancy
  Ba  Ba0  1  0.22395271  0.61197686  0.64717675  1
  Ba  Ba1  1  0.75750457  0.37875179  0.29612008  1
  Mg  Mg0  1  0.54967383  0.77483691  0.02238588  1
  Ti  Ti0  1  0.02658541  0.01329271  0.99207892  1
  Ti  Ti1  1  0.02534531  0.01267265  0.48344158  1
  S  S0  1  0.82835737  0.15477088  0.80293990  1
  S  S1  1  0.69648821  0.84824360  0.35513020  1
  S  S2  1  0.18954335  0.35126244  0.17395454  1
  S  S3  1  0.82835737  0.67358750  0.80293990  1
  S  S4  1  0.18954335  0.83827991  0.17395454  1
  S  S5  1  0.31427851  0.15713976  0.63529471  1
loop_
_geom_bond_atom_site_label_1
_geom_bond_atom_site_label_2
_geom_bond_distance
_geom_bond_site_symmetry_2
Ba0 S0 3.088019 1_455
Ba0 S3 3.088019 1_455
Ba0 S1 3.100220 1_555
Ba0 S4 3.313688 1_555
Ba0 S2 3.313695 1_555
Ba0 S4 3.460061 1_556
Ba0 S2 3.460067 1_556
Ba0 S5 3.471300 1_565
Ba0 S5 3.471300 1_555
Ba1 S5 3.019293 1_555
Ba1 S4 3.228897 1_655
Ba1 S2 3.228897 1_655
Ba1 S0 3.303704 1_554
Ba1 S3 3.303711 1_554
Ba1 S1 3.449833 1_555
Ba1 S1 3.449833 1_545
Ba1 S0 3.627402 1_555
Ba1 S3 3.627408 1_555
Mg0 S1 2.454936 1_555
Mg0 S3 2.522490 1_554
Mg0 S0 2.522494 1_564
Mg0 S4 2.842361 1_555
Mg0 S2 2.842365 1_555
S0 Ti1 2.534383 1_655
S0 Ti0 2.581465 1_655
S1 Ti0 2.548744 1_664
S1 Ti1 2.553962 1_665
S2 Ti0 2.483405 1_554
S2 Ti1 2.518329 1_555
S3 Ti1 2.534379 1_665
S3 Ti0 2.581461 1_665
S4 Ti0 2.483410 1_564
S4 Ti1 2.518334 1_565
S5 Ti0 2.362983 1_555
S5 Ti1 2.382374 1_555
