# generated using pymatgen
data_K3CuO2
_symmetry_space_group_name_H-M   'P 1'
_cell_length_a   8.58254840
_cell_length_b   8.58254840
_cell_length_c   13.17235860
_cell_angle_alpha   90.00000000
_cell_angle_beta   90.00000000
_cell_angle_gamma   90.00000000
_symmetry_Int_Tables_number   1
_chemical_formula_structural   K3CuO2
_chemical_formula_sum   'K24 Cu8 O16'
_cell_volume   970.27773959
_cell_formula_units_Z   8
loop_
 _symmetry_equiv_pos_site_id
 _symmetry_equiv_pos_as_xyz
  1  'x, y, z'
loop_
 _atom_site_type_symbol
 _atom_site_label
 _atom_site_symmetry_multiplicity
 _atom_site_fract_x
 _atom_site_fract_y
 _atom_site_fract_z
 _atom_site_occupancy
  K  K0  1  0.06341096  0.46514485  0.49981416  1
  K  K1  1  0.76647858  0.35222319  0.64339084  1
  K  K2  1  0.23352142  0.64777681  0.14339084  1
  K  K3  1  0.85222319  0.73352142  0.39339084  1
  K  K4  1  0.64777681  0.23352142  0.85660916  1
  K  K5  1  0.14777681  0.26647858  0.89339084  1
  K  K6  1  0.73352142  0.85222319  0.60660916  1
  K  K7  1  0.26647858  0.14777681  0.10660916  1
  K  K8  1  0.94259879  0.94259879  0.00000000  1
  K  K9  1  0.55740121  0.44259879  0.25000000  1
  K  K10  1  0.44259879  0.55740121  0.75000000  1
  K  K11  1  0.05740121  0.05740121  0.50000000  1
  K  K12  1  0.52509257  0.52509257  0.00000000  1
  K  K13  1  0.97490743  0.02509257  0.25000000  1
  K  K14  1  0.02509257  0.97490743  0.75000000  1
  K  K15  1  0.47490743  0.47490743  0.50000000  1
  K  K16  1  0.46514485  0.06341096  0.50018584  1
  K  K17  1  0.96514485  0.43658904  0.24981416  1
  K  K18  1  0.03485515  0.56341096  0.74981416  1
  K  K19  1  0.43658904  0.96514485  0.75018584  1
  K  K20  1  0.56341096  0.03485515  0.25018584  1
  K  K21  1  0.53485515  0.93658904  0.00018584  1
  K  K22  1  0.35222319  0.76647858  0.35660916  1
  K  K23  1  0.93658904  0.53485515  0.99981416  1
  Cu  Cu0  1  0.73292069  0.73645767  0.16656182  1
  Cu  Cu1  1  0.26707931  0.26354233  0.66656182  1
  Cu  Cu2  1  0.73645767  0.73292069  0.83343818  1
  Cu  Cu3  1  0.23645767  0.76707931  0.91656182  1
  Cu  Cu4  1  0.76354233  0.23292069  0.41656182  1
  Cu  Cu5  1  0.76707931  0.23645767  0.08343818  1
  Cu  Cu6  1  0.23292069  0.76354233  0.58343818  1
  Cu  Cu7  1  0.26354233  0.26707931  0.33343818  1
  O  O0  1  0.76292028  0.02340166  0.41691131  1
  O  O1  1  0.23707972  0.97659834  0.91691131  1
  O  O2  1  0.02340166  0.76292028  0.58308869  1
  O  O3  1  0.52340166  0.73707972  0.16691131  1
  O  O4  1  0.47659834  0.26292028  0.66691131  1
  O  O5  1  0.73707972  0.52340166  0.83308869  1
  O  O6  1  0.26292028  0.47659834  0.33308869  1
  O  O7  1  0.97659834  0.23707972  0.08308869  1
  O  O8  1  0.76749207  0.44207003  0.42085166  1
  O  O9  1  0.26749207  0.05792997  0.32914834  1
  O  O10  1  0.73250793  0.94207003  0.82914834  1
  O  O11  1  0.05792997  0.26749207  0.67085166  1
  O  O12  1  0.94207003  0.73250793  0.17085166  1
  O  O13  1  0.23250793  0.55792997  0.92085166  1
  O  O14  1  0.44207003  0.76749207  0.57914834  1
  O  O15  1  0.55792997  0.23250793  0.07914834  1
loop_
_geom_bond_atom_site_label_1
_geom_bond_atom_site_label_2
_geom_bond_distance
_geom_bond_site_symmetry_2
K0 O8 2.751608 1_455
K0 O6 2.786536 1_555
K0 O2 2.802251 1_555
K0 O11 2.820590 1_555
K1 O4 2.621666 1_555
K1 O11 2.629954 1_655
K1 O5 2.909622 1_555
K1 O8 3.031105 1_555
K2 O3 2.621666 1_555
K2 O12 2.629954 1_455
K2 O6 2.909622 1_555
K2 O13 3.031105 1_554
K3 O0 2.621666 1_565
K3 O8 2.629954 1_555
K3 O2 2.909622 1_655
K3 O12 3.031105 1_555
K4 O5 2.621666 1_555
K4 O10 2.629954 1_545
K4 O4 2.909622 1_555
K4 O15 3.031105 1_556
K5 O1 2.621666 1_545
K5 O13 2.629954 1_555
K5 O7 2.909622 1_456
K5 O11 3.031105 1_555
K6 O2 2.621666 1_655
K6 O14 2.629954 1_555
K6 O0 2.909622 1_565
K6 O10 3.031105 1_555
K7 O7 2.621666 1_455
K7 O15 2.629954 1_555
K7 O1 2.909622 1_544
K7 O9 3.031105 1_555
K8 O1 2.769613 1_654
K8 O7 2.769613 1_565
K8 O10 2.883762 1_554
K8 O12 2.883762 1_555
K9 O6 2.769613 1_555
K9 O3 2.769613 1_555
K9 O15 2.883762 1_555
K9 O8 2.883762 1_555
K10 O5 2.769613 1_555
K10 O4 2.769613 1_555
K10 O14 2.883762 1_555
K10 O13 2.883762 1_555
K11 O2 2.769613 1_545
K11 O0 2.769613 1_455
K11 O11 2.883762 1_555
K11 O9 2.883762 1_555
K12 O15 2.733517 1_555
K12 O13 2.733517 1_554
K12 O3 2.853822 1_555
K12 O5 2.853822 1_554
K13 O12 2.733517 1_545
K13 O9 2.733517 1_655
K13 O0 2.853822 1_555
K13 O7 2.853822 1_555
K14 O10 2.733517 1_455
K14 O11 2.733517 1_565
K14 O2 2.853822 1_555
K14 O1 2.853822 1_555
K15 O14 2.733517 1_555
K15 O8 2.733517 1_555
K15 O6 2.853822 1_555
K15 O4 2.853822 1_555
K16 O14 2.751608 1_545
K16 O4 2.786536 1_555
K16 O0 2.802251 1_555
K16 O9 2.820590 1_555
K17 O12 2.751608 1_555
K17 O7 2.786536 1_555
K17 O6 2.802251 1_655
K17 O8 2.820590 1_555
K18 O11 2.751608 1_555
K18 O2 2.786536 1_555
K18 O5 2.802251 1_455
K18 O13 2.820590 1_555
K19 O10 2.751608 1_555
K19 O1 2.786536 1_555
K19 O4 2.802251 1_565
K19 O14 2.820590 1_555
K20 O9 2.751608 1_555
K20 O0 2.786536 1_555
K20 O3 2.802251 1_545
K20 O15 2.820590 1_555
K21 O15 2.751608 1_565
K21 O3 2.786536 1_555
K21 O1 2.802251 1_554
K21 O10 2.820590 1_554
K22 O6 2.621666 1_555
K22 O9 2.629954 1_565
K22 O3 2.909622 1_555
K22 O14 3.031105 1_555
K23 O13 2.751608 1_655
K23 O5 2.786536 1_555
K23 O7 2.802251 1_556
K23 O12 2.820590 1_556
Cu0 O12 1.796243 1_555
Cu0 O3 1.798221 1_555
Cu0 K3 3.158549 1_555
Cu1 O11 1.796243 1_555
Cu1 O4 1.798221 1_555
Cu1 K5 3.158549 1_555
Cu2 O10 1.796243 1_555
Cu2 O5 1.798221 1_555
Cu2 K6 3.158549 1_555
Cu3 O13 1.796243 1_555
Cu3 O1 1.798221 1_555
Cu3 K2 3.158549 1_556
Cu4 O8 1.796243 1_555
Cu4 O0 1.798221 1_555
Cu4 K1 3.158549 1_555
Cu5 O15 1.796243 1_555
Cu5 O7 1.798221 1_555
Cu5 K4 3.158549 1_554
Cu6 O14 1.796243 1_555
Cu6 O2 1.798221 1_555
Cu6 K22 3.158549 1_555
Cu7 O9 1.796243 1_555
Cu7 O6 1.798221 1_555
Cu7 K7 3.158549 1_555
