# generated using pymatgen
data_Mn2ZnO4
_symmetry_space_group_name_H-M   'P 1'
_cell_length_a   2.88589608
_cell_length_b   8.11560638
_cell_length_c   7.98029764
_cell_angle_alpha   73.46919938
_cell_angle_beta   79.77285013
_cell_angle_gamma   79.42348587
_symmetry_Int_Tables_number   1
_chemical_formula_structural   Mn2ZnO4
_chemical_formula_sum   'Mn4 Zn2 O8'
_cell_volume   174.57091544
_cell_formula_units_Z   2
loop_
 _symmetry_equiv_pos_site_id
 _symmetry_equiv_pos_as_xyz
  1  'x, y, z'
loop_
 _atom_site_type_symbol
 _atom_site_label
 _atom_site_symmetry_multiplicity
 _atom_site_fract_x
 _atom_site_fract_y
 _atom_site_fract_z
 _atom_site_occupancy
  Mn  Mn0  1  0.61084500  0.17501400  0.60913400  1
  Mn  Mn1  1  0.14471200  0.50874100  0.19905700  1
  Mn  Mn2  1  0.85164500  0.46833600  0.83305600  1
  Mn  Mn3  1  0.38392400  0.80205800  0.42311300  1
  Zn  Zn0  1  0.29179600  0.16086300  0.23666800  1
  Zn  Zn1  1  0.70318500  0.81624100  0.79558400  1
  O  O0  1  0.85848600  0.70086900  0.58227000  1
  O  O1  1  0.44708400  0.33405400  0.77972700  1
  O  O2  1  0.54902000  0.64284200  0.25268000  1
  O  O3  1  0.13640400  0.27620300  0.44996000  1
  O  O4  1  0.14216200  0.00633000  0.72711000  1
  O  O5  1  0.75886300  0.35322800  0.12843100  1
  O  O6  1  0.85242700  0.97075100  0.30518900  1
  O  O7  1  0.23772100  0.62380500  0.90363900  1
loop_
_geom_bond_atom_site_label_1
_geom_bond_atom_site_label_2
_geom_bond_distance
_geom_bond_site_symmetry_2
Mn0 O3 1.941086 1_655
Mn0 O3 1.942636 1_555
Mn0 O4 2.020894 1_555
Mn0 O4 2.029823 1_655
Mn0 O1 2.071272 1_555
Mn1 O2 1.907202 1_555
Mn1 O2 1.907838 1_455
Mn1 O5 2.068996 1_555
Mn1 O5 2.072196 1_455
Mn1 O7 2.261967 1_554
Mn1 O3 2.328184 1_555
Mn2 O1 1.907444 1_655
Mn2 O1 1.907691 1_555
Mn2 O7 2.068249 1_555
Mn2 O7 2.072187 1_655
Mn2 O5 2.261700 1_556
Mn2 O0 2.327551 1_555
Mn3 O0 1.940773 1_455
Mn3 O0 1.942806 1_555
Mn3 O6 2.020510 1_555
Mn3 O6 2.030055 1_455
Mn3 O2 2.071348 1_555
O0 Zn1 2.111270 1_555
O3 Zn0 2.110945 1_555
O4 Zn1 2.053625 1_545
O4 Zn1 2.067673 1_445
O5 Zn0 2.090855 1_655
O5 Zn0 2.142857 1_555
O6 Zn0 2.053008 1_565
O6 Zn0 2.068593 1_665
O7 Zn1 2.093770 1_455
O7 Zn1 2.139961 1_555
