# generated using pymatgen
data_ErSeClO3
_symmetry_space_group_name_H-M   'P 1'
_cell_length_a   6.96103600
_cell_length_b   7.30294200
_cell_length_c   8.80097400
_cell_angle_alpha   90.00000000
_cell_angle_beta   90.00000000
_cell_angle_gamma   90.00000000
_symmetry_Int_Tables_number   1
_chemical_formula_structural   ErSeClO3
_chemical_formula_sum   'Er4 Se4 Cl4 O12'
_cell_volume   447.40668538
_cell_formula_units_Z   4
loop_
 _symmetry_equiv_pos_site_id
 _symmetry_equiv_pos_as_xyz
  1  'x, y, z'
loop_
 _atom_site_type_symbol
 _atom_site_label
 _atom_site_symmetry_multiplicity
 _atom_site_fract_x
 _atom_site_fract_y
 _atom_site_fract_z
 _atom_site_occupancy
  Er  Er0  1  0.25000000  0.60188300  0.96044100  1
  Er  Er1  1  0.75000000  0.39811700  0.03955900  1
  Er  Er2  1  0.25000000  0.10188300  0.53955900  1
  Er  Er3  1  0.75000000  0.89811700  0.46044100  1
  Se  Se0  1  0.25000000  0.20986100  0.13310300  1
  Se  Se1  1  0.75000000  0.79013900  0.86689700  1
  Se  Se2  1  0.75000000  0.29013900  0.63310300  1
  Se  Se3  1  0.25000000  0.70986100  0.36689700  1
  Cl  Cl0  1  0.75000000  0.56298700  0.31675400  1
  Cl  Cl1  1  0.75000000  0.06298700  0.18324600  1
  Cl  Cl2  1  0.25000000  0.43701300  0.68324600  1
  Cl  Cl3  1  0.25000000  0.93701300  0.81675400  1
  O  O0  1  0.92812200  0.63972700  0.93247900  1
  O  O1  1  0.42812200  0.36027300  0.06752100  1
  O  O2  1  0.57187800  0.13972700  0.56752100  1
  O  O3  1  0.07187800  0.86027300  0.43247900  1
  O  O4  1  0.07187800  0.36027300  0.06752100  1
  O  O5  1  0.57187800  0.63972700  0.93247900  1
  O  O6  1  0.42812200  0.86027300  0.43247900  1
  O  O7  1  0.75000000  0.74907300  0.67678500  1
  O  O8  1  0.25000000  0.75092700  0.17678500  1
  O  O9  1  0.75000000  0.24907300  0.82321500  1
  O  O10  1  0.25000000  0.25092700  0.32321500  1
  O  O11  1  0.92812200  0.13972700  0.56752100  1
loop_
_geom_bond_atom_site_label_1
_geom_bond_atom_site_label_2
_geom_bond_distance
_geom_bond_site_symmetry_2
Er0 O8 2.193195 1_556
Er0 O5 2.270958 1_555
Er0 O0 2.270958 1_455
Er0 O1 2.353477 1_556
Er0 O4 2.353477 1_556
Er1 O9 2.193195 1_554
Er1 O4 2.270958 1_655
Er1 O1 2.270958 1_555
Er1 O0 2.353477 1_554
Er1 O5 2.353477 1_554
Er2 O10 2.193195 1_555
Er2 O11 2.270958 1_455
Er2 O2 2.270958 1_555
Er2 O6 2.353477 1_545
Er2 O3 2.353477 1_545
Er3 O7 2.193195 1_555
Er3 O3 2.270958 1_655
Er3 O6 2.270958 1_555
Er3 O11 2.353477 1_565
Er3 O2 2.353477 1_565
Cl0 Er1 2.720530 1_555
Cl0 Er3 2.754835 1_555
Cl1 Er3 2.720530 1_545
Cl1 Er1 2.754835 1_555
Cl2 Er0 2.720530 1_555
Cl2 Er2 2.754835 1_555
Cl3 Er2 2.720530 1_565
Cl3 Er0 2.754835 1_555
O0 Se1 1.754173 1_555
O1 Se0 1.754173 1_555
O2 Se2 1.754173 1_555
O3 Se3 1.754173 1_555
O4 Se0 1.754173 1_555
O5 Se1 1.754173 1_555
O6 Se3 1.754173 1_555
O7 Se1 1.699836 1_555
O8 Se3 1.699836 1_555
O9 Se2 1.699836 1_555
O10 Se0 1.699836 1_555
O11 Se2 1.754173 1_555
