# generated using pymatgen
data_Y2MgCr2O8
_symmetry_space_group_name_H-M   'P 1'
_cell_length_a   6.08134031
_cell_length_b   6.08133971
_cell_length_c   6.20755118
_cell_angle_alpha   105.67163910
_cell_angle_beta   105.67164080
_cell_angle_gamma   116.54848579
_symmetry_Int_Tables_number   1
_chemical_formula_structural   Y2MgCr2O8
_chemical_formula_sum   'Y2 Mg1 Cr2 O8'
_cell_volume   176.19878184
_cell_formula_units_Z   1
loop_
 _symmetry_equiv_pos_site_id
 _symmetry_equiv_pos_as_xyz
  1  'x, y, z'
loop_
 _atom_site_type_symbol
 _atom_site_label
 _atom_site_symmetry_multiplicity
 _atom_site_fract_x
 _atom_site_fract_y
 _atom_site_fract_z
 _atom_site_occupancy
  Y  Y0  1  0.12549000  0.87451000  0.25000000  1
  Y  Y1  1  0.90352500  0.09647500  0.75000000  1
  Mg  Mg0  1  0.61470400  0.38529600  0.75000000  1
  Cr  Cr0  1  0.35086100  0.64913900  0.75000000  1
  Cr  Cr1  1  0.62659000  0.37341000  0.25000000  1
  O  O0  1  0.81464400  0.73917400  0.42468500  1
  O  O1  1  0.38442800  0.84694700  0.58361300  1
  O  O2  1  0.72027000  0.77211400  0.90730500  1
  O  O3  1  0.79528200  0.36297600  0.05071600  1
  O  O4  1  0.63702400  0.20471800  0.44928400  1
  O  O5  1  0.22788600  0.27973000  0.59269500  1
  O  O6  1  0.15305300  0.61557200  0.91638700  1
  O  O7  1  0.26082600  0.18535600  0.07531500  1
loop_
_geom_bond_atom_site_label_1
_geom_bond_atom_site_label_2
_geom_bond_distance
_geom_bond_site_symmetry_2
Mg0 O3 1.967647 1_556
Mg0 O4 1.967647 1_555
Mg0 O2 1.992409 1_555
Mg0 O5 1.992410 1_555
Mg0 O1 2.653232 1_545
Mg0 O6 2.653232 1_655
Cr0 O1 1.766679 1_555
Cr0 O6 1.766679 1_555
Cr0 O5 1.864968 1_555
Cr0 O2 1.864968 1_555
Cr1 O0 1.784495 1_555
Cr1 O7 1.784495 1_555
Cr1 O4 1.813331 1_555
Cr1 O3 1.813331 1_555
O0 Y1 2.254198 1_565
O0 Y0 2.371813 1_655
O1 Y0 2.336270 1_555
O1 Y1 2.538611 1_565
O2 Y1 2.397890 1_565
O2 Y0 2.462994 1_656
O3 Y0 2.496953 1_655
O3 Y1 2.554916 1_554
O4 Y0 2.496953 1_545
O4 Y1 2.554916 1_555
O5 Y1 2.397890 1_455
O5 Y0 2.462994 1_545
O6 Y0 2.336270 1_556
O6 Y1 2.538610 1_455
O7 Y1 2.254198 1_454
O7 Y0 2.371813 1_545
