# generated using pymatgen
data_Ti2Nb2Si3(SO8)3
_symmetry_space_group_name_H-M   'P 1'
_cell_length_a   8.80795945
_cell_length_b   8.81423214
_cell_length_c   22.72222840
_cell_angle_alpha   89.88867984
_cell_angle_beta   90.27025838
_cell_angle_gamma   119.88068188
_symmetry_Int_Tables_number   1
_chemical_formula_structural   Ti2Nb2Si3(SO8)3
_chemical_formula_sum   'Ti6 Nb6 Si9 S9 O72'
_cell_volume   1529.52779860
_cell_formula_units_Z   3
loop_
 _symmetry_equiv_pos_site_id
 _symmetry_equiv_pos_as_xyz
  1  'x, y, z'
loop_
 _atom_site_type_symbol
 _atom_site_label
 _atom_site_symmetry_multiplicity
 _atom_site_fract_x
 _atom_site_fract_y
 _atom_site_fract_z
 _atom_site_occupancy
  Ti  Ti0  1  0.98643971  0.01319490  0.35772694  1
  Ti  Ti1  1  0.01960564  0.01920872  0.85263228  1
  Ti  Ti2  1  0.67090750  0.34037660  0.69171684  1
  Ti  Ti3  1  0.68228740  0.34996048  0.18594372  1
  Ti  Ti4  1  0.31565040  0.66490169  0.02441556  1
  Ti  Ti5  1  0.35158235  0.67217971  0.52938544  1
  Nb  Nb0  1  0.98817170  0.00931852  0.64203410  1
  Nb  Nb1  1  0.01091002  0.01503163  0.13911527  1
  Nb  Nb2  1  0.65572252  0.33740845  0.97454580  1
  Nb  Nb3  1  0.67744252  0.33336756  0.47962094  1
  Nb  Nb4  1  0.33306872  0.67170134  0.30976472  1
  Nb  Nb5  1  0.34243391  0.67866984  0.80582704  1
  Si  Si0  1  0.99120209  0.28451563  0.24994666  1
  Si  Si1  1  0.29176736  0.28558338  0.74889042  1
  Si  Si2  1  0.72403775  0.01362403  0.75181932  1
  Si  Si3  1  0.96136708  0.34902979  0.58601069  1
  Si  Si4  1  0.67040598  0.61492163  0.58543576  1
  Si  Si5  1  0.95130068  0.61806310  0.08262322  1
  Si  Si6  1  0.39307001  0.34991650  0.08403944  1
  Si  Si7  1  0.32400605  0.94579822  0.91726612  1
  Si  Si8  1  0.61470618  0.94975562  0.41895221  1
  S  S0  1  0.28676894  0.00561749  0.25080073  1
  S  S1  1  0.71656325  0.71384108  0.25101824  1
  S  S2  1  0.99645232  0.71442513  0.75061782  1
  S  S3  1  0.38128235  0.04596811  0.58400363  1
  S  S4  1  0.66132077  0.04593453  0.08334448  1
  S  S5  1  0.62156450  0.67527751  0.91667108  1
  S  S6  1  0.04774076  0.37936363  0.91726449  1
  S  S7  1  0.33051212  0.37872505  0.41680603  1
  S  S8  1  0.04881339  0.67344285  0.41644216  1
  O  O0  1  0.20236805  0.02434955  0.30340607  1
  O  O1  1  0.82414160  0.79410340  0.30407861  1
  O  O2  1  0.97123309  0.16107941  0.30740677  1
  O  O3  1  0.19779693  0.16363644  0.80752762  1
  O  O4  1  0.97218928  0.79528680  0.80382301  1
  O  O5  1  0.84040162  0.02619366  0.80909047  1
  O  O6  1  0.80293800  0.96684603  0.69297523  1
  O  O7  1  0.16345208  0.18868116  0.69283632  1
  O  O8  1  0.03383274  0.82164695  0.69745572  1
  O  O9  1  0.78959540  0.82182332  0.19829064  1
  O  O10  1  0.02583472  0.18865474  0.19403735  1
  O  O11  1  0.17409538  0.96676977  0.19719449  1
  O  O12  1  0.86058542  0.36770023  0.64091632  1
  O  O13  1  0.49079511  0.12139777  0.63574520  1
  O  O14  1  0.63466187  0.49123283  0.64124860  1
  O  O15  1  0.86262168  0.49604670  0.14125563  1
  O  O16  1  0.63579303  0.12558949  0.13664062  1
  O  O17  1  0.50668044  0.36044231  0.14192415  1
  O  O18  1  0.47418315  0.30303584  0.02616620  1
  O  O19  1  0.82923893  0.52363047  0.02569995  1
  O  O20  1  0.70049680  0.15693539  0.03073505  1
  O  O21  1  0.46189414  0.15683337  0.52947469  1
  O  O22  1  0.68942716  0.52069773  0.52496522  1
  O  O23  1  0.83302424  0.30394847  0.52584384  1
  O  O24  1  0.53864732  0.69334690  0.96950995  1
  O  O25  1  0.15677764  0.45884405  0.97076419  1
  O  O26  1  0.30762401  0.82581173  0.97460484  1
  O  O27  1  0.51812010  0.82466293  0.47383640  1
  O  O28  1  0.29576663  0.45386888  0.46861796  1
  O  O29  1  0.15504392  0.69837637  0.46815398  1
  O  O30  1  0.12976591  0.63884237  0.36239987  1
  O  O31  1  0.49601362  0.85361564  0.35943068  1
  O  O32  1  0.35686659  0.49007363  0.36312608  1
  O  O33  1  0.12454619  0.48821011  0.86496872  1
  O  O34  1  0.35704318  0.85230642  0.86028581  1
  O  O35  1  0.50810557  0.63493487  0.86354107  1
  O  O36  1  0.02881704  0.82598175  0.40383435  1
  O  O37  1  0.80875761  0.97052672  0.40515145  1
  O  O38  1  0.17625172  0.20088252  0.40573265  1
  O  O39  1  0.02777186  0.20354162  0.91029535  1
  O  O40  1  0.15566351  0.96925593  0.90574275  1
  O  O41  1  0.79658515  0.82223959  0.90829564  1
  O  O42  1  0.97874114  0.17206474  0.59055961  1
  O  O43  1  0.20575318  0.02570841  0.58981597  1
  O  O44  1  0.84432907  0.80580802  0.59327100  1
  O  O45  1  0.96944146  0.80796457  0.09779554  1
  O  O46  1  0.82172801  0.02569522  0.09240752  1
  O  O47  1  0.19750065  0.17083680  0.09354334  1
  O  O48  1  0.69486596  0.17538663  0.73856091  1
  O  O49  1  0.48220497  0.30873555  0.73840700  1
  O  O50  1  0.84347478  0.53914094  0.74446238  1
  O  O51  1  0.69246380  0.53674050  0.24375810  1
  O  O52  1  0.82013666  0.30219848  0.23850046  1
  O  O53  1  0.46124478  0.15275017  0.24194001  1
  O  O54  1  0.63738146  0.50952317  0.92310662  1
  O  O55  1  0.87041793  0.35907129  0.92637995  1
  O  O56  1  0.50228402  0.13856916  0.92818432  1
  O  O57  1  0.63703506  0.14331086  0.42580117  1
  O  O58  1  0.48648754  0.35955705  0.42257088  1
  O  O59  1  0.87170887  0.51281490  0.42177475  1
  O  O60  1  0.36607099  0.51225463  0.06924803  1
  O  O61  1  0.14408219  0.64096482  0.07344968  1
  O  O62  1  0.51179238  0.86990541  0.07527401  1
  O  O63  1  0.36134587  0.87055044  0.57338719  1
  O  O64  1  0.50004818  0.64029633  0.57313828  1
  O  O65  1  0.14824953  0.51360525  0.56752595  1
  O  O66  1  0.30181313  0.84041118  0.25860251  1
  O  O67  1  0.53570150  0.69199163  0.25982697  1
  O  O68  1  0.16538350  0.47578388  0.26346607  1
  O  O69  1  0.30269878  0.47277157  0.76426618  1
  O  O70  1  0.15402504  0.69008410  0.75905697  1
  O  O71  1  0.52903718  0.83449770  0.76020796  1
loop_
_geom_bond_atom_site_label_1
_geom_bond_atom_site_label_2
_geom_bond_distance
_geom_bond_site_symmetry_2
Nb0 O42 1.882532 1_555
Nb0 O6 1.883982 1_545
Nb0 O7 1.942607 1_655
Nb0 O44 1.944368 1_545
Nb0 O43 2.201450 1_655
Nb0 O8 2.265814 1_645
Nb1 O47 1.849574 1_555
Nb1 O45 1.919692 1_445
Nb1 O10 1.929268 1_555
Nb1 O46 2.012651 1_455
Nb1 O11 2.139533 1_545
Nb1 O9 2.283881 1_445
Nb2 O18 1.886252 1_556
Nb2 O56 1.908286 1_555
Nb2 O19 1.967771 1_556
Nb2 O54 1.982224 1_555
Nb2 O55 2.114043 1_555
Nb2 O20 2.220014 1_556
Nb3 O23 1.840556 1_555
Nb3 O22 1.905516 1_555
Nb3 O57 1.959149 1_555
Nb3 O21 2.092556 1_555
Nb3 O59 2.115112 1_555
Nb3 O58 2.219839 1_555
Nb4 O31 1.898206 1_555
Nb4 O68 1.929065 1_555
Nb4 O66 2.009159 1_555
Nb4 O67 2.050668 1_555
Nb4 O30 2.054973 1_555
Nb4 O32 2.097949 1_555
Nb5 O71 1.850294 1_555
Nb5 O69 1.917966 1_555
Nb5 O34 1.923475 1_555
Nb5 O70 2.010655 1_555
Nb5 O35 2.130298 1_555
Nb5 O33 2.261114 1_555
O0 S0 1.462915 1_555
O0 Ti0 2.232863 1_455
O1 S1 1.475309 1_555
O1 Ti0 2.121518 1_565
O2 Si0 1.650846 1_555
O2 Ti0 1.786358 1_555
O3 Si1 1.653483 1_555
O3 Ti1 1.775838 1_555
O4 S2 1.474025 1_555
O4 Ti1 2.117246 1_665
O5 Si2 1.622049 1_555
O5 Ti1 1.885712 1_655
O6 Si2 1.654425 1_565
O7 Si1 1.630312 1_555
O8 S2 1.466295 1_455
O9 S1 1.465570 1_555
O10 Si0 1.638747 1_455
O11 S0 1.495804 1_565
O12 Si3 1.590066 1_555
O12 Ti2 1.948788 1_555
O13 S3 1.451906 1_555
O13 Ti2 2.190701 1_555
O14 Si4 1.597626 1_555
O14 Ti2 1.896998 1_555
O15 Si5 1.645875 1_555
O15 Ti3 1.784455 1_555
O16 S4 1.474179 1_555
O16 Ti3 2.128654 1_555
O17 Si6 1.623406 1_555
O17 Ti3 1.878514 1_555
O18 Si6 1.647893 1_555
O19 Si5 1.618965 1_555
O20 S4 1.472501 1_555
O21 S3 1.518709 1_555
O22 Si4 1.658617 1_555
O23 Si3 1.686647 1_555
O24 S5 1.457787 1_555
O24 Ti4 2.237948 1_556
O25 S6 1.487552 1_555
O25 Ti4 2.050167 1_556
O26 Si7 1.637417 1_555
O26 Ti4 1.841325 1_556
O27 Si8 1.601478 1_555
O27 Ti5 1.896763 1_555
O28 S7 1.458334 1_555
O28 Ti5 2.216364 1_555
O29 S8 1.445742 1_555
O29 Ti5 2.315188 1_555
O30 S8 1.528297 1_555
O31 Si8 1.657887 1_555
O32 S7 1.508604 1_555
O33 S6 1.465115 1_555
O34 Si7 1.639107 1_555
O35 S5 1.489547 1_555
O36 S8 1.467918 1_555
O36 Ti0 2.136160 1_465
O37 Si8 1.657181 1_555
O37 Ti0 1.783198 1_565
O38 S7 1.497587 1_555
O38 Ti0 1.988900 1_455
O39 S6 1.478781 1_555
O39 Ti1 2.062195 1_555
O40 Si7 1.616003 1_555
O40 Ti1 1.896411 1_565
O41 S5 1.450086 1_555
O41 Ti1 2.255967 1_665
O42 Si3 1.644437 1_555
O43 S3 1.471856 1_555
O44 Si4 1.624726 1_555
O45 Si5 1.637481 1_555
O46 S4 1.522713 1_555
O47 Si6 1.672838 1_555
O48 Si2 1.597609 1_555
O48 Ti2 1.894729 1_555
O49 Si1 1.604514 1_555
O49 Ti2 1.876017 1_555
O50 S2 1.465241 1_555
O50 Ti2 2.038065 1_555
O51 S1 1.476322 1_555
O51 Ti3 2.074706 1_555
O52 Si0 1.610072 1_555
O52 Ti3 1.889772 1_555
O53 S0 1.449199 1_555
O53 Ti3 2.252490 1_555
O54 S5 1.541780 1_555
O55 S6 1.496274 1_655
O56 Si7 1.659466 1_545
O57 Si8 1.624776 1_545
O58 S7 1.470574 1_555
O59 S8 1.501035 1_655
O60 Si6 1.597926 1_555
O60 Ti4 1.905523 1_555
O61 Si5 1.621447 1_455
O61 Ti4 1.807425 1_555
O62 S4 1.462292 1_565
O62 Ti4 2.112818 1_555
O63 S3 1.486673 1_565
O63 Ti5 1.979998 1_555
O64 Si4 1.646149 1_555
O64 Ti5 1.769232 1_555
O65 Si3 1.617145 1_455
O65 Ti5 1.851457 1_555
O66 S0 1.536372 1_565
O67 S1 1.520541 1_555
O68 Si0 1.646430 1_455
O69 Si1 1.642316 1_555
O70 S2 1.517589 1_455
O71 Si2 1.667051 1_565
