# generated using pymatgen
data_Na2Hf4Mg4SiS11O48
_symmetry_space_group_name_H-M   'P 1'
_cell_length_a   17.58819718
_cell_length_b   8.80288177
_cell_length_c   22.85485004
_cell_angle_alpha   89.90824121
_cell_angle_beta   89.98222369
_cell_angle_gamma   119.98619000
_symmetry_Int_Tables_number   1
_chemical_formula_structural   Na2Hf4Mg4SiS11O48
_chemical_formula_sum   'Na6 Hf12 Mg12 Si3 S33 O144'
_cell_volume   3064.88869733
_cell_formula_units_Z   3
loop_
 _symmetry_equiv_pos_site_id
 _symmetry_equiv_pos_as_xyz
  1  'x, y, z'
loop_
 _atom_site_type_symbol
 _atom_site_label
 _atom_site_symmetry_multiplicity
 _atom_site_fract_x
 _atom_site_fract_y
 _atom_site_fract_z
 _atom_site_occupancy
  Na  Na0  1  0.99588934  0.98400322  0.49121549  1
  Na  Na1  1  0.49830361  0.00365986  0.99975168  1
  Na  Na2  1  0.33203536  0.32592600  0.83719123  1
  Na  Na3  1  0.84172066  0.34310915  0.83194749  1
  Na  Na4  1  0.33772669  0.33248047  0.32990211  1
  Na  Na5  1  0.84084114  0.34262657  0.34114954  1
  Hf  Hf0  1  0.49974674  0.00839482  0.35602812  1
  Hf  Hf1  1  0.49683108  0.00523658  0.85465695  1
  Hf  Hf2  1  0.99988020  0.99598718  0.64879773  1
  Hf  Hf3  1  0.50031080  0.00189971  0.63964350  1
  Hf  Hf4  1  0.00044513  0.00110441  0.14498906  1
  Hf  Hf5  1  0.50046106  0.00909175  0.14929120  1
  Hf  Hf6  1  0.16329685  0.66457988  0.01911686  1
  Hf  Hf7  1  0.66437234  0.65535205  0.02191836  1
  Hf  Hf8  1  0.16054594  0.66605163  0.52086864  1
  Hf  Hf9  1  0.15840244  0.66158112  0.31294080  1
  Hf  Hf10  1  0.66648492  0.66247142  0.31172365  1
  Hf  Hf11  1  0.66444594  0.65979220  0.81156868  1
  Mg  Mg0  1  0.99798721  0.99221350  0.35599202  1
  Mg  Mg1  1  0.00403446  0.00315677  0.85471648  1
  Mg  Mg2  1  0.33135739  0.33154458  0.68399135  1
  Mg  Mg3  1  0.83570423  0.33758989  0.68159010  1
  Mg  Mg4  1  0.33552174  0.33114394  0.18639499  1
  Mg  Mg5  1  0.83481974  0.33477118  0.18534446  1
  Mg  Mg6  1  0.33344076  0.32840944  0.97909447  1
  Mg  Mg7  1  0.83807535  0.33800612  0.98160421  1
  Mg  Mg8  1  0.33604964  0.33772646  0.48271089  1
  Mg  Mg9  1  0.83581032  0.33728654  0.47978758  1
  Mg  Mg10  1  0.66891973  0.67154559  0.52264894  1
  Mg  Mg11  1  0.16190266  0.66284848  0.81046176  1
  Si  Si0  1  0.49472617  0.29518622  0.25090617  1
  Si  Si1  1  0.51555548  0.37570199  0.91698247  1
  Si  Si2  1  0.01242781  0.66619582  0.41729868  1
  S  S0  1  0.14515451  0.00629246  0.25094867  1
  S  S1  1  0.64817256  0.00612116  0.25033905  1
  S  S2  1  0.35428456  0.70587079  0.25081425  1
  S  S3  1  0.85744729  0.70800629  0.25067387  1
  S  S4  1  0.99677328  0.28405966  0.25109569  1
  S  S5  1  0.14748443  0.29211292  0.75214799  1
  S  S6  1  0.64736757  0.28708642  0.74898111  1
  S  S7  1  0.99788265  0.70465026  0.75286804  1
  S  S8  1  0.49791268  0.70764657  0.74929914  1
  S  S9  1  0.35245855  -0.00044772  0.74864675  1
  S  S10  1  0.85659240  0.00771057  0.75225755  1
  S  S11  1  0.47794827  0.34172858  0.58310469  1
  S  S12  1  0.97622391  0.32860664  0.58379499  1
  S  S13  1  0.19066236  0.04880232  0.58336345  1
  S  S14  1  0.69298640  0.04568140  0.58306133  1
  S  S15  1  0.33186022  0.61637100  0.58330116  1
  S  S16  1  0.83137112  0.62036276  0.58337913  1
  S  S17  1  0.47600299  0.62225984  0.08246615  1
  S  S18  1  0.97579605  0.61932198  0.08366109  1
  S  S19  1  0.33249672  0.04383436  0.08227936  1
  S  S20  1  0.83296183  0.04856836  0.08359887  1
  S  S21  1  0.19201880  0.33534679  0.08324286  1
  S  S22  1  0.69140091  0.32988928  0.08295269  1
  S  S23  1  0.30840465  0.66008162  0.91526962  1
  S  S24  1  0.81452672  0.66814053  0.91637367  1
  S  S25  1  0.01951811  0.37375142  0.91434933  1
  S  S26  1  0.16622084  0.95711232  0.91413156  1
  S  S27  1  0.66952741  0.96081298  0.91660778  1
  S  S28  1  0.31034338  0.95899191  0.41715910  1
  S  S29  1  0.81128614  0.95792106  0.41819710  1
  S  S30  1  0.16890684  0.37620356  0.41661811  1
  S  S31  1  0.66849491  0.37969121  0.41912218  1
  S  S32  1  0.52083915  0.66194118  0.41807067  1
  O  O0  1  0.10301843  0.02917676  0.30206400  1
  O  O1  1  0.60389617  0.02767552  0.30234975  1
  O  O2  1  0.41114093  0.79059662  0.30274308  1
  O  O3  1  0.91161466  0.79055899  0.30157206  1
  O  O4  1  0.48582086  0.16605140  0.30619583  1
  O  O5  1  0.98562617  0.17834545  0.30251008  1
  O  O6  1  0.10537388  0.17870177  0.80299812  1
  O  O7  1  0.60344287  0.17732129  0.80220022  1
  O  O8  1  0.48698425  0.79333137  0.80266118  1
  O  O9  1  0.98312025  0.78915864  0.80330532  1
  O  O10  1  0.41157274  0.02808685  0.80189171  1
  O  O11  1  0.91053558  0.03097582  0.80342073  1
  O  O12  1  0.39890619  0.97713197  0.69759745  1
  O  O13  1  0.89665042  0.97783830  0.69835240  1
  O  O14  1  0.09086626  0.20254306  0.69816814  1
  O  O15  1  0.59071329  0.20404113  0.69782292  1
  O  O16  1  0.00979751  0.81652479  0.69849938  1
  O  O17  1  0.51102280  0.81999922  0.69776925  1
  O  O18  1  0.39786298  0.81740411  0.19785636  1
  O  O19  1  0.89818380  0.81835520  0.19653934  1
  O  O20  1  0.00990293  0.20080467  0.19723166  1
  O  O21  1  0.51307144  0.20037823  0.19391696  1
  O  O22  1  0.08874811  0.97352306  0.19713661  1
  O  O23  1  0.59207265  0.97353205  0.19729294  1
  O  O24  1  0.43722430  0.36374211  0.63605769  1
  O  O25  1  0.93974399  0.35817981  0.63688178  1
  O  O26  1  0.24121907  0.12564660  0.63622190  1
  O  O27  1  0.74418403  0.12539287  0.63636576  1
  O  O28  1  0.31864059  0.51308607  0.63597430  1
  O  O29  1  0.82054144  0.51921430  0.63707024  1
  O  O30  1  0.43906255  0.51977142  0.13541469  1
  O  O31  1  0.93838092  0.51338643  0.13605573  1
  O  O32  1  0.31865076  0.11717080  0.13531627  1
  O  O33  1  0.81822353  0.12437092  0.13609305  1
  O  O34  1  0.24433027  0.36578843  0.13589217  1
  O  O35  1  0.74100740  0.35171491  0.13598370  1
  O  O36  1  0.22862892  0.30221836  0.03090997  1
  O  O37  1  0.72997765  0.30518230  0.02980290  1
  O  O38  1  0.42344797  0.54560055  0.02999828  1
  O  O39  1  0.92310578  0.54674216  0.03118538  1
  O  O40  1  0.34924825  0.15099747  0.03002698  1
  O  O41  1  0.84943298  0.15549485  0.03117807  1
  O  O42  1  0.22782727  0.15347430  0.53047390  1
  O  O43  1  0.72877506  0.15709084  0.53142074  1
  O  O44  1  0.34917377  0.54371907  0.53100701  1
  O  O45  1  0.85085400  0.54725338  0.53182074  1
  O  O46  1  0.42180625  0.30025458  0.53134475  1
  O  O47  1  0.92381212  0.29792115  0.53158605  1
  O  O48  1  0.27059253  0.69467009  0.96914826  1
  O  O49  1  0.77056237  0.69313150  0.96921747  1
  O  O50  1  0.07534244  0.46270696  0.96888289  1
  O  O51  1  0.58104695  0.46854997  0.97335692  1
  O  O52  1  0.15548085  0.84467135  0.96877301  1
  O  O53  1  0.65554998  0.85131510  0.96915912  1
  O  O54  1  0.27049273  0.84951604  0.46968444  1
  O  O55  1  0.77004854  0.84585368  0.46930225  1
  O  O56  1  0.15910368  0.46564721  0.46940090  1
  O  O57  1  0.65204845  0.45743160  0.46959053  1
  O  O58  1  0.07971117  0.68766626  0.47279963  1
  O  O59  1  0.57421898  0.69064316  0.46941576  1
  O  O60  1  0.06766365  0.64292479  0.36038386  1
  O  O61  1  0.56371197  0.63859042  0.36409953  1
  O  O62  1  0.25744264  0.87328988  0.36391539  1
  O  O63  1  0.75709168  0.87001835  0.36381065  1
  O  O64  1  0.18353774  0.49057368  0.36354733  1
  O  O65  1  0.68031664  0.48683689  0.36463715  1
  O  O66  1  0.06167860  0.48811923  0.86398219  1
  O  O67  1  0.56968952  0.49574265  0.85968539  1
  O  O68  1  0.18206627  0.87360482  0.86383036  1
  O  O69  1  0.68150664  0.87757079  0.86342293  1
  O  O70  1  0.25804459  0.64453864  0.86332375  1
  O  O71  1  0.75591633  0.64094680  0.86418103  1
  O  O72  1  0.01354815  0.84828615  0.41377562  1
  O  O73  1  0.51166070  0.81960172  0.40656085  1
  O  O74  1  0.39754221  0.97038097  0.41032159  1
  O  O75  1  0.89961712  0.98111720  0.40976805  1
  O  O76  1  0.08835353  0.20868698  0.40985764  1
  O  O77  1  0.58844813  0.20136393  0.40872477  1
  O  O78  1  0.01271016  0.20259632  0.90944764  1
  O  O79  1  0.51281725  0.18412488  0.91033693  1
  O  O80  1  0.08591450  0.96604927  0.90956387  1
  O  O81  1  0.58728772  0.97082890  0.90929172  1
  O  O82  1  0.39990815  0.82252711  0.91050371  1
  O  O83  1  0.89881858  0.82287720  0.90814068  1
  O  O84  1  0.48722611  0.17799884  0.59334285  1
  O  O85  1  0.98912994  0.17203303  0.59194726  1
  O  O86  1  0.09892403  0.02180368  0.59055318  1
  O  O87  1  0.60126353  0.02606103  0.59397472  1
  O  O88  1  0.41135835  0.79749070  0.59243782  1
  O  O89  1  0.91346314  0.80477119  0.59245130  1
  O  O90  1  0.48965747  0.80513069  0.08916138  1
  O  O91  1  0.98859142  0.79954607  0.09291840  1
  O  O92  1  0.41127059  0.01605585  0.08910332  1
  O  O93  1  0.91138753  0.02495294  0.09321365  1
  O  O94  1  0.10107845  0.18007483  0.09331332  1
  O  O95  1  0.59978223  0.17145289  0.08789676  1
  O  O96  1  0.34753976  0.16034065  0.74302580  1
  O  O97  1  0.84467409  0.15975975  0.74347022  1
  O  O98  1  0.23477964  0.30903068  0.74278839  1
  O  O99  1  0.73387967  0.30553404  0.74371802  1
  O  O100  1  0.42177863  0.53323019  0.74329255  1
  O  O101  1  0.91923957  0.52998895  0.74356894  1
  O  O102  1  0.34368420  0.53283522  0.24324166  1
  O  O103  1  0.84510899  0.53182298  0.24144791  1
  O  O104  1  0.40939043  0.31144510  0.24638833  1
  O  O105  1  0.92106139  0.30917648  0.24236967  1
  O  O106  1  0.23137001  0.16002471  0.24123462  1
  O  O107  1  0.73410895  0.16209053  0.24294243  1
  O  O108  1  0.31870186  0.50744282  0.92412760  1
  O  O109  1  0.81858568  0.50559135  0.92302687  1
  O  O110  1  0.42117452  0.35482428  0.92008488  1
  O  O111  1  0.93224451  0.35807342  0.92372031  1
  O  O112  1  0.24332763  0.13142964  0.92410232  1
  O  O113  1  0.74540968  0.13605951  0.92292226  1
  O  O114  1  0.32090713  0.13356339  0.42302184  1
  O  O115  1  0.81509060  0.12832780  0.42261045  1
  O  O116  1  0.24750116  0.35893856  0.42284202  1
  O  O117  1  0.74437639  0.35547517  0.42303918  1
  O  O118  1  0.43244226  0.50587230  0.42204863  1
  O  O119  1  0.92152262  0.48643064  0.42029344  1
  O  O120  1  0.17831189  0.48902951  0.07319638  1
  O  O121  1  0.68030090  0.48784822  0.07694501  1
  O  O122  1  0.06593798  0.64424543  0.07468444  1
  O  O123  1  0.56717835  0.64844020  0.07415796  1
  O  O124  1  0.25529122  0.86382133  0.07312152  1
  O  O125  1  0.75642667  0.86918463  0.07423045  1
  O  O126  1  0.18063925  0.87053396  0.57627083  1
  O  O127  1  0.67772307  0.86856519  0.57516013  1
  O  O128  1  0.25617302  0.64364248  0.57445679  1
  O  O129  1  0.75649598  0.64655852  0.57538522  1
  O  O130  1  0.06715417  0.48284435  0.57601063  1
  O  O131  1  0.56593382  0.48927372  0.57452742  1
  O  O132  1  0.15460593  0.84629297  0.25652538  1
  O  O133  1  0.65607279  0.84830260  0.25827483  1
  O  O134  1  0.26931136  0.69839269  0.25843580  1
  O  O135  1  0.77004098  0.69590995  0.25671883  1
  O  O136  1  0.07936174  0.45956001  0.25521085  1
  O  O137  1  0.58553078  0.48011478  0.26079393  1
  O  O138  1  0.15406853  0.46359338  0.75763234  1
  O  O139  1  0.65480798  0.46204175  0.75677619  1
  O  O140  1  0.07759543  0.69324291  0.75742075  1
  O  O141  1  0.57996762  0.69871487  0.75665692  1
  O  O142  1  0.26892780  0.84338900  0.75782140  1
  O  O143  1  0.76830631  0.84543410  0.75885165  1
loop_
_geom_bond_atom_site_label_1
_geom_bond_atom_site_label_2
_geom_bond_distance
_geom_bond_site_symmetry_2
Na0 O72 2.243563 1_655
Na0 O75 2.508372 1_555
Na0 O76 2.604862 1_665
Na0 O89 2.764821 1_555
Na0 O86 2.819834 1_665
Na0 O85 2.874498 1_565
Na1 O79 2.519705 1_555
Na1 O92 2.586717 1_556
Na1 O95 2.608115 1_556
Na1 O82 2.636718 1_545
Na1 O90 2.641158 1_546
Na1 O81 2.694318 1_545
Na2 O110 2.390949 1_555
Na2 O112 2.574530 1_555
Na2 O108 2.634478 1_555
Na2 O96 2.690305 1_555
Na2 O98 2.711495 1_555
Na2 O100 2.744669 1_555
Na3 O101 2.527995 1_555
Na3 O111 2.597099 1_555
Na3 O97 2.605941 1_555
Na3 O109 2.671181 1_555
Na3 O99 2.674049 1_555
Na3 O113 2.722882 1_555
Na4 O104 2.345004 1_555
Na4 O102 2.616943 1_555
Na4 O118 2.647815 1_555
Na4 O106 2.661596 1_555
Na4 O114 2.674499 1_555
Na4 O116 2.730086 1_555
Na5 O119 2.258610 1_555
Na5 O115 2.522741 1_555
Na5 O117 2.566068 1_555
Na5 O105 2.754926 1_555
Na5 O103 2.799023 1_555
Na5 O107 2.849456 1_555
Hf0 O4 1.902124 1_555
Hf0 O77 2.031911 1_555
Hf0 O74 2.068594 1_545
Hf0 O73 2.117035 1_545
Hf0 O1 2.139283 1_555
Hf0 O2 2.147006 1_545
Hf1 O79 1.934503 1_555
Hf1 O10 2.011275 1_555
Hf1 O82 2.091269 1_545
Hf1 O7 2.097999 1_555
Hf1 O8 2.146186 1_545
Hf1 O81 2.159584 1_545
Hf2 O16 2.021458 1_655
Hf2 O14 2.058977 1_665
Hf2 O89 2.062211 1_555
Hf2 O13 2.076757 1_555
Hf2 O85 2.100513 1_565
Hf2 O86 2.111896 1_665
Hf3 O87 1.976861 1_555
Hf3 O84 1.981741 1_555
Hf3 O88 2.010660 1_545
Hf3 O12 2.142845 1_545
Hf3 O15 2.154837 1_555
Hf3 O17 2.158515 1_545
Hf4 O94 2.053068 1_555
Hf4 O93 2.055933 1_455
Hf4 O91 2.060341 1_445
Hf4 O20 2.063538 1_555
Hf4 O22 2.066067 1_545
Hf4 O19 2.076391 1_445
Hf5 O21 1.886046 1_555
Hf5 O18 2.069946 1_545
Hf5 O23 2.098082 1_545
Hf5 O92 2.110452 1_555
Hf5 O95 2.135315 1_555
Hf5 O90 2.194393 1_545
Hf6 O52 2.016961 1_554
Hf6 O50 2.031967 1_554
Hf6 O122 2.066071 1_555
Hf6 O120 2.094639 1_555
Hf6 O124 2.095012 1_555
Hf6 O48 2.105637 1_554
Hf7 O51 1.918745 1_554
Hf7 O121 2.059492 1_555
Hf7 O123 2.060577 1_555
Hf7 O49 2.103822 1_554
Hf7 O125 2.134493 1_555
Hf7 O53 2.171363 1_554
Hf8 O58 1.880210 1_555
Hf8 O130 2.057075 1_555
Hf8 O126 2.083268 1_555
Hf8 O56 2.111494 1_555
Hf8 O54 2.141719 1_555
Hf8 O128 2.167922 1_555
Hf9 O60 1.867097 1_555
Hf9 O136 2.091285 1_555
Hf9 O132 2.100632 1_555
Hf9 O64 2.111690 1_555
Hf9 O62 2.151280 1_555
Hf9 O134 2.197115 1_555
Hf10 O137 1.918696 1_555
Hf10 O65 2.069352 1_555
Hf10 O61 2.088661 1_555
Hf10 O63 2.095836 1_555
Hf10 O135 2.108523 1_555
Hf10 O133 2.120130 1_555
Hf11 O67 1.913208 1_555
Hf11 O71 2.080619 1_555
Hf11 O139 2.083116 1_555
Hf11 O141 2.099701 1_555
Hf11 O143 2.113640 1_555
Hf11 O69 2.145281 1_555
Mg0 O72 1.940538 1_655
Mg0 O3 2.078107 1_555
Mg0 O75 2.083958 1_555
Mg0 O0 2.105705 1_665
Mg0 O5 2.139120 1_565
Mg0 O76 2.157377 1_665
Mg1 O6 2.049797 1_555
Mg1 O80 2.054756 1_545
Mg1 O9 2.092684 1_445
Mg1 O78 2.099909 1_555
Mg1 O83 2.119135 1_445
Mg1 O11 2.131083 1_455
Mg2 O26 2.031163 1_555
Mg2 O28 2.039625 1_555
Mg2 O24 2.053722 1_555
Mg2 O98 2.095622 1_555
Mg2 O96 2.143646 1_555
Mg2 O100 2.169076 1_555
Mg3 O29 2.020841 1_555
Mg3 O25 2.022889 1_555
Mg3 O27 2.037224 1_555
Mg3 O101 2.134315 1_555
Mg3 O97 2.171512 1_555
Mg3 O99 2.189785 1_555
Mg4 O104 1.955403 1_555
Mg4 O30 2.097853 1_555
Mg4 O106 2.104733 1_555
Mg4 O32 2.108866 1_555
Mg4 O34 2.118183 1_555
Mg4 O102 2.147925 1_555
Mg5 O31 2.046756 1_555
Mg5 O33 2.061337 1_555
Mg5 O35 2.064949 1_555
Mg5 O103 2.092674 1_555
Mg5 O105 2.095721 1_555
Mg5 O107 2.117036 1_555
Mg6 O110 1.973089 1_555
Mg6 O40 2.073582 1_556
Mg6 O112 2.087935 1_555
Mg6 O36 2.103999 1_556
Mg6 O38 2.120811 1_556
Mg6 O108 2.128717 1_555
Mg7 O39 2.039088 1_556
Mg7 O41 2.054254 1_556
Mg7 O111 2.056695 1_555
Mg7 O37 2.088118 1_556
Mg7 O109 2.141396 1_555
Mg7 O113 2.174433 1_555
Mg8 O46 2.028904 1_555
Mg8 O44 2.036662 1_555
Mg8 O42 2.086257 1_555
Mg8 O118 2.114461 1_555
Mg8 O116 2.150305 1_555
Mg8 O114 2.166002 1_555
Mg9 O119 1.964639 1_555
Mg9 O45 2.102114 1_555
Mg9 O47 2.110259 1_555
Mg9 O43 2.111972 1_555
Mg9 O117 2.133533 1_555
Mg9 O115 2.135870 1_555
Mg10 O127 2.051973 1_555
Mg10 O129 2.052461 1_555
Mg10 O55 2.066206 1_555
Mg10 O131 2.085356 1_555
Mg10 O57 2.135318 1_555
Mg10 O59 2.136174 1_555
Mg11 O140 2.033840 1_555
Mg11 O66 2.061987 1_555
Mg11 O138 2.078150 1_555
Mg11 O68 2.098894 1_555
Mg11 O142 2.125716 1_555
Mg11 O70 2.148964 1_555
O0 S0 1.450525 1_555
O1 S1 1.484347 1_555
O2 S2 1.490930 1_555
O3 S3 1.449239 1_555
O4 Si0 1.652523 1_555
O5 S4 1.448862 1_555
O6 S5 1.467151 1_555
O7 S6 1.503125 1_555
O8 S8 1.496988 1_555
O9 S7 1.464672 1_555
O10 S9 1.538072 1_555
O11 S10 1.454871 1_555
O12 S9 1.492945 1_565
O13 S10 1.506333 1_565
O14 S5 1.534400 1_555
O15 S6 1.472992 1_555
O16 S7 1.532133 1_455
O17 S8 1.478676 1_555
O18 S2 1.503253 1_555
O19 S3 1.512483 1_555
O20 S4 1.509247 1_455
O21 Si0 1.664178 1_555
O22 S0 1.515206 1_565
O23 S1 1.498199 1_565
O24 S11 1.467719 1_555
O25 S12 1.455681 1_555
O26 S13 1.452493 1_555
O27 S14 1.469429 1_555
O28 S15 1.454286 1_555
O29 S16 1.470271 1_555
O30 S17 1.452787 1_555
O31 S18 1.455725 1_555
O32 S19 1.450809 1_555
O33 S20 1.458466 1_555
O34 S21 1.456540 1_555
O35 S22 1.449474 1_555
O36 S21 1.455528 1_555
O37 S22 1.459818 1_555
O38 S17 1.458603 1_555
O39 S18 1.454890 1_555
O40 S19 1.456441 1_555
O41 S20 1.459066 1_555
O42 S13 1.459910 1_555
O43 S14 1.459371 1_555
O44 S15 1.458452 1_555
O45 S16 1.463816 1_555
O46 S11 1.466112 1_555
O47 S12 1.448910 1_555
O48 S23 1.501470 1_555
O49 S24 1.508396 1_555
O50 S25 1.538173 1_555
O51 Si1 1.648673 1_555
O52 S26 1.544006 1_555
O53 S27 1.480306 1_555
O54 S28 1.477052 1_555
O55 S29 1.464261 1_555
O56 S30 1.497846 1_555
O57 S31 1.443131 1_555
O58 Si2 1.680261 1_555
O59 S32 1.444601 1_555
O60 Si2 1.696114 1_555
O61 S32 1.512465 1_555
O62 S28 1.489175 1_555
O63 S29 1.522796 1_555
O64 S30 1.512597 1_555
O65 S31 1.511135 1_555
O66 S25 1.462216 1_555
O67 Si1 1.651391 1_555
O68 S26 1.465259 1_555
O69 S27 1.488584 1_555
O70 S23 1.446642 1_555
O71 S24 1.515874 1_555
O72 Si2 1.595066 1_555
O73 S32 1.498080 1_555
O74 S28 1.494229 1_555
O75 S29 1.474794 1_555
O76 S30 1.455401 1_555
O77 S31 1.514955 1_555
O78 S25 1.455034 1_555
O79 Si1 1.670053 1_555
O80 S26 1.457128 1_555
O81 S27 1.501841 1_555
O82 S23 1.531599 1_555
O83 S24 1.438460 1_555
O84 S11 1.546849 1_555
O85 S12 1.515878 1_555
O86 S13 1.517663 1_555
O87 S14 1.554247 1_555
O88 S15 1.521038 1_555
O89 S16 1.556048 1_555
O90 S17 1.512245 1_555
O91 S18 1.502193 1_555
O92 S19 1.530480 1_555
O93 S20 1.510240 1_555
O94 S21 1.514265 1_555
O95 S22 1.519038 1_555
O96 S9 1.466005 1_555
O97 S10 1.468128 1_555
O98 S5 1.482032 1_555
O99 S6 1.452210 1_555
O100 S8 1.454297 1_555
O101 S7 1.482495 1_555
O102 S2 1.449787 1_555
O103 S3 1.470225 1_555
O104 Si0 1.580705 1_555
O105 S4 1.468413 1_555
O106 S0 1.458651 1_555
O107 S1 1.457029 1_555
O108 S23 1.456575 1_555
O109 S24 1.475505 1_555
O110 Si1 1.577754 1_555
O111 S25 1.486284 1_655
O112 S26 1.472055 1_545
O113 S27 1.457637 1_545
O114 S28 1.459210 1_545
O115 S29 1.471400 1_545
O116 S30 1.471132 1_555
O117 S31 1.455699 1_555
O118 S32 1.475595 1_555
O119 Si2 1.592392 1_655
O120 S21 1.505355 1_555
O121 S22 1.503728 1_555
O122 S18 1.501927 1_455
O123 S17 1.513601 1_555
O124 S19 1.499711 1_565
O125 S20 1.492620 1_565
O126 S13 1.498093 1_565
O127 S14 1.455377 1_565
O128 S15 1.479880 1_555
O129 S16 1.457531 1_555
O130 S12 1.503791 1_455
O131 S11 1.452599 1_555
O132 S0 1.503696 1_565
O133 S1 1.474587 1_565
O134 S2 1.473004 1_555
O135 S3 1.493308 1_555
O136 S4 1.504315 1_455
O137 Si0 1.629237 1_555
O138 S5 1.460705 1_555
O139 S6 1.490047 1_555
O140 S7 1.458530 1_455
O141 S8 1.493591 1_555
O142 S9 1.439531 1_565
O143 S10 1.502138 1_565
