# generated using pymatgen
data_Mg4Nb2(SO4)9
_symmetry_space_group_name_H-M   'P 1'
_cell_length_a   8.71413008
_cell_length_b   8.71412980
_cell_length_c   22.43734139
_cell_angle_alpha   90.00000000
_cell_angle_beta   90.00000000
_cell_angle_gamma   120.00000106
_symmetry_Int_Tables_number   1
_chemical_formula_structural   Mg4Nb2(SO4)9
_chemical_formula_sum   'Mg8 Nb4 S18 O72'
_cell_volume   1475.53693910
_cell_formula_units_Z   2
loop_
 _symmetry_equiv_pos_site_id
 _symmetry_equiv_pos_as_xyz
  1  'x, y, z'
loop_
 _atom_site_type_symbol
 _atom_site_label
 _atom_site_symmetry_multiplicity
 _atom_site_fract_x
 _atom_site_fract_y
 _atom_site_fract_z
 _atom_site_occupancy
  Mg  Mg0  1  0.00000000  0.00000000  0.35305078  1
  Mg  Mg1  1  0.00000000  0.00000000  0.85305078  1
  Mg  Mg2  1  0.00000000  0.00000000  0.64523006  1
  Mg  Mg3  1  0.00000000  0.00000000  0.14523006  1
  Mg  Mg4  1  0.66666700  0.33333300  0.68750078  1
  Mg  Mg5  1  0.66666700  0.33333300  0.18750078  1
  Mg  Mg6  1  0.33333300  0.66666700  0.02202532  1
  Mg  Mg7  1  0.33333300  0.66666700  0.52202532  1
  Nb  Nb0  1  0.66666700  0.33333300  0.98169089  1
  Nb  Nb1  1  0.66666700  0.33333300  0.48169089  1
  Nb  Nb2  1  0.33333300  0.66666700  0.30786700  1
  Nb  Nb3  1  0.33333300  0.66666700  0.80786700  1
  S  S0  1  0.28975117  0.00867968  0.24976157  1
  S  S1  1  0.71892851  0.71024883  0.24976157  1
  S  S2  1  0.99132032  0.28107149  0.24976157  1
  S  S3  1  0.28975117  0.28107149  0.74976157  1
  S  S4  1  0.99132032  0.71024883  0.74976157  1
  S  S5  1  0.71892851  0.00867968  0.74976157  1
  S  S6  1  0.96206975  0.33502775  0.58605864  1
  S  S7  1  0.37295900  0.03793025  0.58605864  1
  S  S8  1  0.66497225  0.62704100  0.58605864  1
  S  S9  1  0.96206975  0.62704100  0.08605864  1
  S  S10  1  0.66497225  0.03793025  0.08605864  1
  S  S11  1  0.37295900  0.33502775  0.08605864  1
  S  S12  1  0.62493576  0.67184622  0.91783328  1
  S  S13  1  0.04690945  0.37506424  0.91783328  1
  S  S14  1  0.32815378  0.95309055  0.91783328  1
  S  S15  1  0.62493576  0.95309055  0.41783328  1
  S  S16  1  0.32815378  0.37506424  0.41783328  1
  S  S17  1  0.04690945  0.67184622  0.41783328  1
  O  O0  1  0.20965189  0.02819912  0.30407861  1
  O  O1  1  0.81854723  0.79034811  0.30407861  1
  O  O2  1  0.97180088  0.18145277  0.30407861  1
  O  O3  1  0.20965189  0.18145277  0.80407861  1
  O  O4  1  0.97180088  0.79034811  0.80407861  1
  O  O5  1  0.81854723  0.02819912  0.80407861  1
  O  O6  1  0.78538428  0.96314940  0.69702611  1
  O  O7  1  0.17776512  0.21461572  0.69702611  1
  O  O8  1  0.03685060  0.82223488  0.69702611  1
  O  O9  1  0.78538428  0.82223488  0.19702611  1
  O  O10  1  0.03685060  0.21461572  0.19702611  1
  O  O11  1  0.17776512  0.96314940  0.19702611  1
  O  O12  1  0.87393947  0.36437127  0.63604095  1
  O  O13  1  0.49043279  0.12606053  0.63604095  1
  O  O14  1  0.63562873  0.50956721  0.63604095  1
  O  O15  1  0.87393947  0.50956721  0.13604095  1
  O  O16  1  0.63562873  0.12606053  0.13604095  1
  O  O17  1  0.49043279  0.36437127  0.13604095  1
  O  O18  1  0.46667164  0.30535503  0.02929164  1
  O  O19  1  0.83868438  0.53332836  0.02929164  1
  O  O20  1  0.69464497  0.16131562  0.02929164  1
  O  O21  1  0.46667164  0.16131562  0.52929164  1
  O  O22  1  0.69464497  0.53332836  0.52929164  1
  O  O23  1  0.83868438  0.30535503  0.52929164  1
  O  O24  1  0.54064787  0.69520191  0.96981966  1
  O  O25  1  0.15455304  0.45935213  0.96981966  1
  O  O26  1  0.30479809  0.84544696  0.96981966  1
  O  O27  1  0.54064787  0.84544696  0.46981966  1
  O  O28  1  0.30479809  0.45935213  0.46981966  1
  O  O29  1  0.15455304  0.69520191  0.46981966  1
  O  O30  1  0.12729498  0.63484962  0.36318569  1
  O  O31  1  0.50755364  0.87270502  0.36318569  1
  O  O32  1  0.36515038  0.49244636  0.36318569  1
  O  O33  1  0.12729498  0.49244636  0.86318569  1
  O  O34  1  0.36515038  0.87270502  0.86318569  1
  O  O35  1  0.50755364  0.63484962  0.86318569  1
  O  O36  1  0.02232013  0.82193035  0.40718068  1
  O  O37  1  0.79961023  0.97767987  0.40718068  1
  O  O38  1  0.17806965  0.20038977  0.40718068  1
  O  O39  1  0.02232013  0.20038977  0.90718068  1
  O  O40  1  0.17806965  0.97767987  0.90718068  1
  O  O41  1  0.79961023  0.82193035  0.90718068  1
  O  O42  1  0.97107534  0.17324123  0.58998240  1
  O  O43  1  0.20216588  0.02892466  0.58998240  1
  O  O44  1  0.82675877  0.79783412  0.58998240  1
  O  O45  1  0.97107534  0.79783412  0.08998240  1
  O  O46  1  0.82675877  0.02892466  0.08998240  1
  O  O47  1  0.20216588  0.17324123  0.08998240  1
  O  O48  1  0.68540602  0.15426540  0.74193663  1
  O  O49  1  0.46886039  0.31459398  0.74193663  1
  O  O50  1  0.84573460  0.53113961  0.74193663  1
  O  O51  1  0.68540602  0.53113961  0.24193663  1
  O  O52  1  0.84573460  0.31459398  0.24193663  1
  O  O53  1  0.46886039  0.15426540  0.24193663  1
  O  O54  1  0.63936000  0.50599381  0.92484960  1
  O  O55  1  0.86663481  0.36064000  0.92484960  1
  O  O56  1  0.49400619  0.13336519  0.92484960  1
  O  O57  1  0.63936000  0.13336519  0.42484960  1
  O  O58  1  0.49400619  0.36064000  0.42484960  1
  O  O59  1  0.86663481  0.50599381  0.42484960  1
  O  O60  1  0.36057782  0.49111157  0.07316413  1
  O  O61  1  0.13053275  0.63942218  0.07316413  1
  O  O62  1  0.50888843  0.86946725  0.07316413  1
  O  O63  1  0.36057782  0.86946725  0.57316413  1
  O  O64  1  0.50888843  0.63942218  0.57316413  1
  O  O65  1  0.13053275  0.49111157  0.57316413  1
  O  O66  1  0.30904597  0.83936339  0.26066880  1
  O  O67  1  0.53031641  0.69095403  0.26066880  1
  O  O68  1  0.16063661  0.46968359  0.26066880  1
  O  O69  1  0.30904597  0.46968359  0.76066880  1
  O  O70  1  0.16063661  0.69095403  0.76066880  1
  O  O71  1  0.53031641  0.83936339  0.76066880  1
loop_
_geom_bond_atom_site_label_1
_geom_bond_atom_site_label_2
_geom_bond_distance
_geom_bond_site_symmetry_2
Mg0 O1 2.038752 1_445
Mg0 O2 2.038752 1_455
Mg0 O0 2.038752 1_555
Mg0 O38 2.054889 1_555
Mg0 O37 2.054889 1_445
Mg0 O36 2.054889 1_545
Mg1 O4 2.038752 1_445
Mg1 O3 2.038752 1_555
Mg1 O5 2.038752 1_455
Mg1 O39 2.054889 1_555
Mg1 O41 2.054889 1_445
Mg1 O40 2.054889 1_545
Mg2 O44 2.063906 1_445
Mg2 O43 2.063906 1_555
Mg2 O42 2.063906 1_455
Mg2 O7 2.085857 1_555
Mg2 O8 2.085857 1_545
Mg2 O6 2.085857 1_445
Mg3 O45 2.063906 1_445
Mg3 O47 2.063906 1_555
Mg3 O46 2.063906 1_455
Mg3 O10 2.085857 1_555
Mg3 O9 2.085857 1_445
Mg3 O11 2.085857 1_545
Mg4 O13 2.044538 1_555
Mg4 O12 2.044538 1_555
Mg4 O14 2.044538 1_555
Mg4 O50 2.051386 1_555
Mg4 O49 2.051386 1_555
Mg4 O48 2.051386 1_555
Mg5 O16 2.044538 1_555
Mg5 O15 2.044538 1_555
Mg5 O17 2.044538 1_555
Mg5 O51 2.051386 1_555
Mg5 O53 2.051386 1_555
Mg5 O52 2.051386 1_555
Mg6 O62 2.019025 1_555
Mg6 O60 2.019025 1_555
Mg6 O61 2.019025 1_555
Mg6 O25 2.061160 1_554
Mg6 O26 2.061160 1_554
Mg6 O24 2.061160 1_554
Mg7 O63 2.019025 1_555
Mg7 O65 2.019025 1_555
Mg7 O64 2.019025 1_555
Mg7 O28 2.061160 1_555
Mg7 O27 2.061160 1_555
Mg7 O29 2.061160 1_555
Nb0 O20 1.952573 1_556
Nb0 O19 1.952573 1_556
Nb0 O18 1.952573 1_556
Nb0 O56 2.074849 1_555
Nb0 O54 2.074849 1_555
Nb0 O55 2.074849 1_555
Nb1 O23 1.952573 1_555
Nb1 O21 1.952573 1_555
Nb1 O22 1.952573 1_555
Nb1 O57 2.074849 1_555
Nb1 O59 2.074849 1_555
Nb1 O58 2.074849 1_555
Nb2 O68 1.936361 1_555
Nb2 O67 1.936361 1_555
Nb2 O66 1.936361 1_555
Nb2 O31 2.084051 1_555
Nb2 O32 2.084051 1_555
Nb2 O30 2.084051 1_555
Nb3 O69 1.936361 1_555
Nb3 O71 1.936361 1_555
Nb3 O70 1.936361 1_555
Nb3 O34 2.084051 1_555
Nb3 O33 2.084051 1_555
Nb3 O35 2.084051 1_555
O0 S0 1.456076 1_555
O1 S1 1.456076 1_555
O2 S2 1.456076 1_555
O3 S3 1.456076 1_555
O4 S4 1.456076 1_555
O5 S5 1.456076 1_555
O6 S5 1.456917 1_565
O7 S3 1.456917 1_555
O8 S4 1.456917 1_455
O9 S1 1.456917 1_555
O10 S2 1.456917 1_455
O11 S0 1.456917 1_565
O12 S6 1.452324 1_555
O13 S7 1.452324 1_555
O14 S8 1.452324 1_555
O15 S9 1.452324 1_555
O16 S10 1.452324 1_555
O17 S11 1.452324 1_555
O18 S11 1.602250 1_555
O19 S9 1.602250 1_555
O20 S10 1.602250 1_555
O21 S7 1.602250 1_555
O22 S8 1.602250 1_555
O23 S6 1.602250 1_555
O24 S12 1.446018 1_555
O25 S13 1.446018 1_555
O26 S14 1.446018 1_555
O27 S15 1.446018 1_555
O28 S16 1.446018 1_555
O29 S17 1.446018 1_555
O30 S17 1.524432 1_555
O31 S15 1.524432 1_555
O32 S16 1.524432 1_555
O33 S13 1.524432 1_555
O34 S14 1.524432 1_555
O35 S12 1.524432 1_555
O36 S17 1.446983 1_555
O37 S15 1.446992 1_555
O38 S16 1.446988 1_555
O39 S13 1.446992 1_555
O40 S14 1.446983 1_555
O41 S12 1.446988 1_555
O42 S6 1.453329 1_555
O43 S7 1.453337 1_555
O44 S8 1.453333 1_555
O45 S9 1.453337 1_555
O46 S10 1.453329 1_555
O47 S11 1.453333 1_555
O48 S5 1.447839 1_555
O49 S3 1.447847 1_555
O50 S4 1.447844 1_555
O51 S1 1.447847 1_555
O52 S2 1.447839 1_555
O53 S0 1.447844 1_555
O54 S12 1.520204 1_555
O55 S13 1.520186 1_655
O56 S14 1.520194 1_545
O57 S15 1.520186 1_545
O58 S16 1.520204 1_555
O59 S17 1.520194 1_655
O60 S11 1.446395 1_555
O61 S9 1.446378 1_455
O62 S10 1.446386 1_565
O63 S7 1.446378 1_565
O64 S8 1.446395 1_555
O65 S6 1.446386 1_455
O66 S0 1.585300 1_565
O67 S1 1.585308 1_555
O68 S2 1.585305 1_455
O69 S3 1.585308 1_555
O70 S4 1.585300 1_455
O71 S5 1.585305 1_565
