# generated using pymatgen
data_MgZr3SiS5O24
_symmetry_space_group_name_H-M   'P 1'
_cell_length_a   8.96818291
_cell_length_b   8.96205540
_cell_length_c   23.07166327
_cell_angle_alpha   89.88009789
_cell_angle_beta   89.90269572
_cell_angle_gamma   120.02909786
_symmetry_Int_Tables_number   1
_chemical_formula_structural   MgZr3SiS5O24
_chemical_formula_sum   'Mg3 Zr9 Si3 S15 O72'
_cell_volume   1605.42887272
_cell_formula_units_Z   3
loop_
 _symmetry_equiv_pos_site_id
 _symmetry_equiv_pos_as_xyz
  1  'x, y, z'
loop_
 _atom_site_type_symbol
 _atom_site_label
 _atom_site_symmetry_multiplicity
 _atom_site_fract_x
 _atom_site_fract_y
 _atom_site_fract_z
 _atom_site_occupancy
  Mg  Mg0  1  0.99924673  0.99940594  0.35323506  1
  Mg  Mg1  1  0.66330359  0.33983416  0.68841341  1
  Mg  Mg2  1  0.66631661  0.33357302  0.18702303  1
  Zr  Zr0  1  0.00880415  0.00870483  0.85741448  1
  Zr  Zr1  1  0.99138448  0.99137803  0.64497600  1
  Zr  Zr2  1  0.00069520  0.00108868  0.14436778  1
  Zr  Zr3  1  0.66617771  0.32734045  0.97367814  1
  Zr  Zr4  1  0.66997639  0.34535420  0.48061735  1
  Zr  Zr5  1  0.32278616  0.66363744  0.01858558  1
  Zr  Zr6  1  0.34013790  0.66740287  0.52513157  1
  Zr  Zr7  1  0.33348815  0.66751525  0.30942688  1
  Zr  Zr8  1  0.32485942  0.66930440  0.81212470  1
  Si  Si0  1  0.66786312  0.61785716  0.58743777  1
  Si  Si1  1  0.04524820  0.37797181  0.91624240  1
  Si  Si2  1  0.33163356  0.95380483  0.91597398  1
  S  S0  1  0.29147775  0.00669975  0.25096932  1
  S  S1  1  0.71490137  0.70845308  0.25100747  1
  S  S2  1  0.99353228  0.28522830  0.25101907  1
  S  S3  1  0.29532206  0.29044045  0.74881229  1
  S  S4  1  0.99354979  0.70451921  0.74955104  1
  S  S5  1  0.70947325  0.00548148  0.74952365  1
  S  S6  1  0.95266727  0.33285725  0.58492277  1
  S  S7  1  0.38061557  0.04806129  0.58497208  1
  S  S8  1  0.95234899  0.61881797  0.08546200  1
  S  S9  1  0.66499270  0.04566126  0.08549948  1
  S  S10  1  0.38228902  0.33595640  0.08545435  1
  S  S11  1  0.62176745  0.66752659  0.91640015  1
  S  S12  1  0.62711147  0.95648592  0.41581287  1
  S  S13  1  0.32757778  0.37235832  0.41582927  1
  S  S14  1  0.04516925  0.67195285  0.41587937  1
  O  O0  1  0.20799758  0.02770793  0.30220638  1
  O  O1  1  0.81940616  0.79177679  0.30208399  1
  O  O2  1  0.97222161  0.18017274  0.30223074  1
  O  O3  1  0.20784723  0.18044705  0.80101638  1
  O  O4  1  0.97056702  0.78923849  0.80091929  1
  O  O5  1  0.81757742  0.02760858  0.80089387  1
  O  O6  1  0.79470263  0.97483265  0.69755372  1
  O  O7  1  0.18034817  0.20763810  0.69786190  1
  O  O8  1  0.02811334  0.82092975  0.69785643  1
  O  O9  1  0.79237193  0.82204828  0.19830383  1
  O  O10  1  0.02946341  0.20778319  0.19839515  1
  O  O11  1  0.17830714  0.97043631  0.19842359  1
  O  O12  1  0.87632599  0.36159491  0.63552355  1
  O  O13  1  0.48718549  0.12059256  0.63539923  1
  O  O14  1  0.63325624  0.49699817  0.64052738  1
  O  O15  1  0.87314326  0.51379957  0.13682397  1
  O  O16  1  0.64059455  0.12644167  0.13653435  1
  O  O17  1  0.48588635  0.35828527  0.13677041  1
  O  O18  1  0.45424633  0.30312375  0.03259906  1
  O  O19  1  0.84857160  0.54751518  0.03272114  1
  O  O20  1  0.69871705  0.15276631  0.03267288  1
  O  O21  1  0.45930182  0.15224516  0.53087684  1
  O  O22  1  0.69665906  0.53409118  0.52650249  1
  O  O23  1  0.84700611  0.30322989  0.53098429  1
  O  O24  1  0.54471887  0.69634196  0.96917437  1
  O  O25  1  0.16466952  0.46307966  0.97358852  1
  O  O26  1  0.30486240  0.83745176  0.97367336  1
  O  O27  1  0.54074587  0.84622686  0.46775375  1
  O  O28  1  0.30391268  0.45752622  0.46765104  1
  O  O29  1  0.15135663  0.69457599  0.46770481  1
  O  O30  1  0.12877646  0.64006221  0.36418709  1
  O  O31  1  0.51108859  0.87071247  0.36440002  1
  O  O32  1  0.36118278  0.48858614  0.36441174  1
  O  O33  1  0.13544612  0.49811450  0.85990279  1
  O  O34  1  0.36908027  0.86829170  0.85992228  1
  O  O35  1  0.51445889  0.63617837  0.86453365  1
  O  O36  1  0.02392471  0.82037379  0.40615031  1
  O  O37  1  0.79516926  0.97335479  0.40647321  1
  O  O38  1  0.17799698  0.20366995  0.40658682  1
  O  O39  1  0.01907204  0.18822999  0.90694440  1
  O  O40  1  0.16297888  0.97112186  0.90667811  1
  O  O41  1  0.79357423  0.81919132  0.90802868  1
  O  O42  1  0.97778467  0.18210992  0.59134498  1
  O  O43  1  0.20670933  0.02736474  0.59157316  1
  O  O44  1  0.83473003  0.81342277  0.59258520  1
  O  O45  1  0.97584604  0.79703123  0.09408676  1
  O  O46  1  0.82235149  0.02604672  0.09398382  1
  O  O47  1  0.20394659  0.17922400  0.09420402  1
  O  O48  1  0.69171029  0.15540160  0.73924582  1
  O  O49  1  0.46190544  0.30396859  0.74173163  1
  O  O50  1  0.84675141  0.53512474  0.74080612  1
  O  O51  1  0.68993904  0.53752146  0.24025651  1
  O  O52  1  0.84756377  0.30999537  0.24021556  1
  O  O53  1  0.46266743  0.15258551  0.24023372  1
  O  O54  1  0.64069072  0.51487933  0.92584243  1
  O  O55  1  0.85992480  0.36224594  0.92732989  1
  O  O56  1  0.49656251  0.14301252  0.92710420  1
  O  O57  1  0.64015899  0.12614228  0.42463543  1
  O  O58  1  0.48459742  0.35707172  0.42422125  1
  O  O59  1  0.87405036  0.51127011  0.42349557  1
  O  O60  1  0.35865388  0.48607076  0.07717981  1
  O  O61  1  0.12774574  0.64337917  0.07772041  1
  O  O62  1  0.51773216  0.87102555  0.07657932  1
  O  O63  1  0.35575673  0.87216157  0.57337868  1
  O  O64  1  0.50318497  0.64580165  0.57135191  1
  O  O65  1  0.12625394  0.48678818  0.57339935  1
  O  O66  1  0.30697353  0.84616501  0.25938222  1
  O  O67  1  0.53895837  0.69276425  0.25949688  1
  O  O68  1  0.15389775  0.46103370  0.25946878  1
  O  O69  1  0.31064850  0.46146242  0.75766744  1
  O  O70  1  0.15394170  0.69423159  0.75572791  1
  O  O71  1  0.54081239  0.84563137  0.75654207  1
loop_
_geom_bond_atom_site_label_1
_geom_bond_atom_site_label_2
_geom_bond_distance
_geom_bond_site_symmetry_2
Mg0 O2 2.110452 1_565
Mg0 O36 2.112340 1_655
Mg0 O1 2.113853 1_555
Mg0 O0 2.114527 1_665
Mg0 O37 2.115738 1_555
Mg0 O38 2.124876 1_665
Mg1 O14 1.910893 1_555
Mg1 O49 2.070884 1_555
Mg1 O50 2.089186 1_555
Mg1 O48 2.141670 1_555
Mg1 O13 2.182170 1_555
Mg1 O12 2.189741 1_555
Mg2 O17 2.091798 1_555
Mg2 O15 2.092132 1_555
Mg2 O16 2.106516 1_555
Mg2 O53 2.119610 1_555
Mg2 O51 2.125295 1_555
Mg2 O52 2.131276 1_555
O0 S0 1.460264 1_555
O1 S1 1.460014 1_555
O2 S2 1.460646 1_555
O3 S3 1.501880 1_555
O3 Zr0 2.117164 1_555
O4 S4 1.477534 1_555
O4 Zr0 2.241049 1_665
O5 S5 1.482027 1_555
O5 Zr0 2.228839 1_655
O6 S5 1.518473 1_565
O6 Zr1 2.082057 1_555
O7 S3 1.495867 1_555
O7 Zr1 2.201499 1_445
O8 S4 1.508928 1_455
O8 Zr1 2.104193 1_455
O9 S1 1.510531 1_555
O9 Zr2 2.144052 1_665
O10 S2 1.511855 1_455
O10 Zr2 2.141065 1_555
O11 S0 1.510337 1_565
O11 Zr2 2.147400 1_565
O12 S6 1.439799 1_555
O13 S7 1.440382 1_555
O14 Si0 1.557728 1_555
O15 S8 1.455323 1_555
O16 S9 1.455899 1_555
O17 S10 1.457261 1_555
O18 S10 1.476141 1_555
O18 Zr3 2.254914 1_554
O19 S8 1.472085 1_555
O19 Zr3 2.283241 1_554
O20 S9 1.483778 1_555
O20 Zr3 2.198856 1_554
O21 S7 1.503366 1_555
O21 Zr4 2.149632 1_555
O22 Si0 1.674510 1_555
O22 Zr4 1.908483 1_555
O23 S6 1.506866 1_555
O23 Zr4 2.148904 1_555
O24 S11 1.484498 1_555
O24 Zr5 2.180355 1_556
O25 Si1 1.634241 1_555
O25 Zr5 1.944489 1_556
O26 Si2 1.630851 1_555
O26 Zr5 1.941780 1_556
O27 S12 1.496088 1_555
O27 Zr6 2.157503 1_555
O28 S13 1.490713 1_555
O28 Zr6 2.191451 1_555
O29 S14 1.479637 1_555
O29 Zr6 2.258320 1_555
O30 S14 1.509678 1_555
O30 Zr7 2.136812 1_555
O31 S12 1.512633 1_555
O31 Zr7 2.138984 1_555
O32 S13 1.504172 1_555
O32 Zr7 2.152590 1_555
O33 Si1 1.619293 1_555
O33 Zr8 1.957700 1_555
O34 Si2 1.622578 1_555
O34 Zr8 1.963548 1_555
O35 S11 1.473684 1_555
O35 Zr8 2.225346 1_555
O36 S14 1.452084 1_555
O37 S12 1.453122 1_555
O38 S13 1.450187 1_555
O39 Si1 1.610871 1_555
O39 Zr0 1.939768 1_555
O40 Si2 1.610505 1_555
O40 Zr0 1.946001 1_565
O41 S11 1.469901 1_555
O41 Zr0 2.162610 1_665
O42 S6 1.483840 1_555
O42 Zr1 2.160585 1_545
O43 S7 1.483091 1_555
O43 Zr1 2.172100 1_445
O44 Si0 1.643702 1_555
O44 Zr1 1.936391 1_555
O45 S8 1.516419 1_555
O45 Zr2 2.083671 1_665
O46 S9 1.519820 1_555
O46 Zr2 2.079119 1_655
O47 S10 1.523491 1_555
O47 Zr2 2.069607 1_555
O48 S5 1.449091 1_555
O49 S3 1.446055 1_555
O50 S4 1.442363 1_555
O51 S1 1.454954 1_555
O52 S2 1.454911 1_555
O53 S0 1.454681 1_555
O54 S11 1.476151 1_555
O54 Zr3 2.114888 1_555
O55 Si1 1.616030 1_655
O55 Zr3 1.925799 1_555
O56 Si2 1.619219 1_545
O56 Zr3 1.922336 1_555
O57 S12 1.479952 1_545
O57 Zr4 2.255066 1_555
O58 S13 1.494368 1_555
O58 Zr4 2.156267 1_555
O59 S14 1.498612 1_655
O59 Zr4 2.134768 1_555
O60 S10 1.475050 1_555
O60 Zr5 2.228960 1_555
O61 S8 1.485592 1_455
O61 Zr5 2.151034 1_555
O62 S9 1.472927 1_565
O62 Zr5 2.251087 1_555
O63 S7 1.502188 1_565
O63 Zr6 2.092357 1_555
O64 Si0 1.659291 1_555
O64 Zr6 1.897508 1_555
O65 S6 1.498288 1_455
O65 Zr6 2.101706 1_555
O66 S0 1.525104 1_565
O66 Zr7 2.080227 1_555
O67 S1 1.524680 1_555
O67 Zr7 2.085215 1_555
O68 S2 1.524172 1_455
O68 Zr7 2.092630 1_555
O69 S3 1.483367 1_555
O69 Zr8 2.199361 1_555
O70 S4 1.493737 1_455
O70 Zr8 2.107315 1_555
O71 S5 1.481828 1_565
O71 Zr8 2.193728 1_555
