# generated using pymatgen
data_Na4ZrZn3P2(SO6)4
_symmetry_space_group_name_H-M   'P 1'
_cell_length_a   8.92863504
_cell_length_b   8.92073769
_cell_length_c   22.53109871
_cell_angle_alpha   90.21270953
_cell_angle_beta   90.24223503
_cell_angle_gamma   120.13279268
_symmetry_Int_Tables_number   1
_chemical_formula_structural   Na4ZrZn3P2(SO6)4
_chemical_formula_sum   'Na12 Zr3 Zn9 P6 S12 O72'
_cell_volume   1552.03813504
_cell_formula_units_Z   3
loop_
 _symmetry_equiv_pos_site_id
 _symmetry_equiv_pos_as_xyz
  1  'x, y, z'
loop_
 _atom_site_type_symbol
 _atom_site_label
 _atom_site_symmetry_multiplicity
 _atom_site_fract_x
 _atom_site_fract_y
 _atom_site_fract_z
 _atom_site_occupancy
  Na  Na0  1  0.63173440  0.99637671  0.25451995  1
  Na  Na1  1  0.36358148  0.36453768  0.24975258  1
  Na  Na2  1  0.30532989  0.33849971  0.59331543  1
  Na  Na3  1  0.66796344  0.96049320  0.58353731  1
  Na  Na4  1  0.97779519  0.67989140  0.91072194  1
  Na  Na5  1  0.32221592  0.29586188  0.90705459  1
  Na  Na6  1  0.98368458  0.97555649  0.49632664  1
  Na  Na7  1  0.98595935  0.00129018  0.99744869  1
  Na  Na8  1  0.65751960  0.31787146  0.82140040  1
  Na  Na9  1  0.68386749  0.34029069  0.33157689  1
  Na  Na10  1  0.31698722  0.66546166  0.16016734  1
  Na  Na11  1  0.32506234  0.66065234  0.66561184  1
  Zr  Zr0  1  0.66673345  0.32802784  0.98182899  1
  Zr  Zr1  1  0.66922847  0.33895317  0.47943641  1
  Zr  Zr2  1  0.33664901  0.66258299  0.81367060  1
  Zn  Zn0  1  0.98748124  0.99434043  0.35165335  1
  Zn  Zn1  1  0.99833205  0.00761293  0.84755636  1
  Zn  Zn2  1  0.99685697  0.99082378  0.65637454  1
  Zn  Zn3  1  0.00095812  0.99653126  0.14938195  1
  Zn  Zn4  1  0.65621192  0.34518552  0.68595955  1
  Zn  Zn5  1  0.67492388  0.34055981  0.17829592  1
  Zn  Zn6  1  0.33946460  0.67067922  0.01134932  1
  Zn  Zn7  1  0.34735980  0.67359661  0.51054370  1
  Zn  Zn8  1  0.33347593  0.67790572  0.32446759  1
  P  P0  1  0.29550210  0.28935614  0.74897191  1
  P  P1  1  0.66762725  0.63373669  0.58504199  1
  P  P2  1  0.63379532  0.67483556  0.92010825  1
  P  P3  1  0.04251997  0.37092187  0.91917919  1
  P  P4  1  0.32777842  0.95631112  0.91835603  1
  P  P5  1  0.63734472  0.96451893  0.41567118  1
  S  S0  1  0.29177172  0.99836681  0.25003304  1
  S  S1  1  0.70515855  0.70175475  0.24910017  1
  S  S2  1  0.00142363  0.29663755  0.24964023  1
  S  S3  1  0.99708109  0.70028199  0.75121985  1
  S  S4  1  0.70496828  0.00584670  0.74732067  1
  S  S5  1  0.96403316  0.33780193  0.58520363  1
  S  S6  1  0.37136639  0.03586689  0.58407469  1
  S  S7  1  0.96883637  0.63554600  0.08521676  1
  S  S8  1  0.66626358  0.03139518  0.08835534  1
  S  S9  1  0.36532262  0.33294231  0.08670051  1
  S  S10  1  0.32680872  0.36656527  0.41504288  1
  S  S11  1  0.04409891  0.67172773  0.41640051  1
  O  O0  1  0.20964973  0.02461907  0.30286259  1
  O  O1  1  0.80705748  0.77990675  0.30356553  1
  O  O2  1  0.97134723  0.18660430  0.30256167  1
  O  O3  1  0.20884812  0.19050076  0.80614387  1
  O  O4  1  0.98034304  0.78020938  0.80668570  1
  O  O5  1  0.80736861  0.01912827  0.80025565  1
  O  O6  1  0.77525499  0.97757028  0.69128928  1
  O  O7  1  0.19115967  0.21022987  0.69079386  1
  O  O8  1  0.01907031  0.80343064  0.69784022  1
  O  O9  1  0.78572451  0.81024450  0.19612234  1
  O  O10  1  0.03046069  0.21667532  0.19596887  1
  O  O11  1  0.19286606  0.97940928  0.19499304  1
  O  O12  1  0.88004262  0.35474792  0.63816391  1
  O  O13  1  0.48233564  0.11591894  0.63661530  1
  O  O14  1  0.63288479  0.51561672  0.63814296  1
  O  O15  1  0.88250409  0.52985507  0.13799589  1
  O  O16  1  0.64900106  0.11294606  0.14388227  1
  O  O17  1  0.46628540  0.34888497  0.14173686  1
  O  O18  1  0.46181235  0.31858119  0.03344093  1
  O  O19  1  0.86173353  0.54358501  0.03013978  1
  O  O20  1  0.68120229  0.14603081  0.03631872  1
  O  O21  1  0.46278507  0.14776542  0.53040228  1
  O  O22  1  0.68627546  0.54035870  0.52820958  1
  O  O23  1  0.85302057  0.31596666  0.53089702  1
  O  O24  1  0.55610465  0.70093512  0.97608079  1
  O  O25  1  0.15427391  0.45125813  0.97440709  1
  O  O26  1  0.29748478  0.84709424  0.97357559  1
  O  O27  1  0.55195789  0.86271882  0.47258722  1
  O  O28  1  0.30890153  0.44839968  0.46972220  1
  O  O29  1  0.14320358  0.68478815  0.47044740  1
  O  O30  1  0.11381778  0.63874678  0.36184102  1
  O  O31  1  0.53157121  0.88898968  0.35761673  1
  O  O32  1  0.35138254  0.46966985  0.36071773  1
  O  O33  1  0.12688585  0.49142200  0.86429145  1
  O  O34  1  0.35750133  0.87143170  0.86291634  1
  O  O35  1  0.51142205  0.63467663  0.86506095  1
  O  O36  1  0.02503423  0.82628271  0.41222896  1
  O  O37  1  0.81983027  0.98705763  0.41239644  1
  O  O38  1  0.17771615  0.18972268  0.41064897  1
  O  O39  1  0.01700255  0.19012933  0.91015531  1
  O  O40  1  0.17222205  0.98467838  0.91085759  1
  O  O41  1  0.81825565  0.82229573  0.90983252  1
  O  O42  1  0.97744433  0.17697472  0.58519552  1
  O  O43  1  0.20287665  0.02999497  0.58638234  1
  O  O44  1  0.82940979  0.81718349  0.58892416  1
  O  O45  1  0.97698746  0.80548639  0.08674995  1
  O  O46  1  0.82724855  0.02245787  0.08825024  1
  O  O47  1  0.19449168  0.17194211  0.08667106  1
  O  O48  1  0.68635144  0.16049537  0.74372156  1
  O  O49  1  0.47833868  0.31224646  0.74713131  1
  O  O50  1  0.84681590  0.52270852  0.74696348  1
  O  O51  1  0.67876426  0.52221567  0.24352783  1
  O  O52  1  0.84166539  0.31136200  0.24361978  1
  O  O53  1  0.47108240  0.15905450  0.24656590  1
  O  O54  1  0.64274208  0.50037843  0.92509268  1
  O  O55  1  0.86228091  0.36287512  0.92454264  1
  O  O56  1  0.49308590  0.14350759  0.92379974  1
  O  O57  1  0.65482660  0.15047760  0.42208214  1
  O  O58  1  0.48985557  0.35292460  0.41998485  1
  O  O59  1  0.86277146  0.51319200  0.42105748  1
  O  O60  1  0.35064772  0.48953364  0.08190365  1
  O  O61  1  0.14097762  0.65255810  0.08043390  1
  O  O62  1  0.50971987  0.86022007  0.08172070  1
  O  O63  1  0.35166477  0.86191128  0.57639829  1
  O  O64  1  0.50027051  0.64881724  0.57787523  1
  O  O65  1  0.13983199  0.49040093  0.57815377  1
  O  O66  1  0.31715179  0.84509910  0.25427145  1
  O  O67  1  0.52708748  0.68250907  0.25346111  1
  O  O68  1  0.15988666  0.47104582  0.25648207  1
  O  O69  1  0.31524553  0.47721210  0.75352753  1
  O  O70  1  0.15937070  0.68638872  0.75469301  1
  O  O71  1  0.52582785  0.84644732  0.75281548  1
loop_
_geom_bond_atom_site_label_1
_geom_bond_atom_site_label_2
_geom_bond_distance
_geom_bond_site_symmetry_2
Na0 O66 2.429946 1_555
Na0 O67 2.466960 1_555
Na0 O52 2.488020 1_565
Na0 O53 2.507060 1_565
Na0 O31 2.507434 1_555
Na0 O16 2.679675 1_565
Na0 O2 2.835201 1_565
Na0 O9 2.944468 1_555
Na1 O51 2.438889 1_555
Na1 O68 2.443293 1_555
Na1 O67 2.454338 1_555
Na1 O53 2.460215 1_555
Na1 O17 2.632159 1_555
Na1 O32 2.688815 1_555
Na1 O10 2.841401 1_555
Na1 O0 2.893508 1_555
Na2 O43 2.429646 1_555
Na2 O64 2.447132 1_555
Na2 O7 2.457369 1_555
Na2 O65 2.479107 1_555
Na2 O42 2.537437 1_455
Na2 O14 2.719129 1_555
Na2 O28 2.950647 1_555
Na3 O44 2.361553 1_555
Na3 O64 2.409289 1_555
Na3 O42 2.450963 1_565
Na3 O63 2.505282 1_555
Na3 O6 2.581868 1_555
Na3 O27 2.671629 1_555
Na3 O13 2.900218 1_565
Na3 O23 2.996076 1_565
Na4 O41 2.336685 1_555
Na4 O40 2.380575 1_655
Na4 O55 2.497837 1_555
Na4 O4 2.508295 1_555
Na4 O54 2.611689 1_555
Na4 O33 2.817609 1_655
Na4 O26 2.837848 1_655
Na4 O19 2.928236 1_556
Na5 O39 2.396313 1_555
Na5 O40 2.403563 1_545
Na5 O3 2.467157 1_555
Na5 O56 2.529400 1_555
Na5 O54 2.535039 1_555
Na5 O35 2.791548 1_555
Na6 O37 2.419848 1_555
Na6 O36 2.445537 1_655
Na6 O44 2.517630 1_555
Na6 O38 2.666542 1_665
Na6 O43 2.681036 1_665
Na6 O42 2.704736 1_565
Na7 O41 2.497970 1_545
Na7 O39 2.518617 1_655
Na7 O46 2.553349 1_556
Na7 O40 2.620471 1_645
Na7 O47 2.631586 1_656
Na7 O45 2.644384 1_546
Na8 O49 2.293098 1_555
Na8 O48 2.334271 1_555
Na8 O50 2.440160 1_555
Na8 O56 2.767751 1_555
Na8 O55 2.850335 1_555
Na8 O54 2.883826 1_555
Na9 O52 2.522683 1_555
Na9 O59 2.543866 1_555
Na9 O51 2.582424 1_555
Na9 O57 2.584949 1_555
Na9 O53 2.598932 1_555
Na9 O58 2.684164 1_555
Na10 O61 2.345903 1_555
Na10 O60 2.473930 1_555
Na10 O62 2.480037 1_555
Na10 O66 2.652532 1_555
Na10 O68 2.701088 1_555
Na10 O67 2.763778 1_555
Na11 O65 2.520553 1_555
Na11 O69 2.547705 1_555
Na11 O64 2.560580 1_555
Na11 O70 2.575359 1_555
Na11 O71 2.604581 1_555
Na11 O63 2.631140 1_555
O0 S0 1.478861 1_545
O0 Zn0 2.167728 1_445
O1 S1 1.472112 1_555
O1 Zn0 2.074647 1_555
O2 S2 1.484628 1_655
O2 Zn0 2.108715 1_545
O3 P0 1.538650 1_555
O3 Zn1 2.003149 1_455
O4 S3 1.481363 1_555
O4 Zn1 2.155638 1_565
O5 S4 1.467459 1_555
O5 Zn1 2.053003 1_555
O6 S4 1.488124 1_565
O6 Zn2 2.080066 1_555
O7 P0 1.551446 1_555
O7 Zn2 2.002543 1_445
O8 S3 1.469887 1_455
O8 Zn2 2.012371 1_455
O9 S1 1.481811 1_555
O9 Zn3 2.094632 1_655
O10 S2 1.490072 1_555
O10 Zn3 2.119158 1_545
O11 S0 1.478367 1_555
O11 Zn3 2.065060 1_555
O12 S5 1.459156 1_555
O12 Zn4 2.238011 1_555
O13 S6 1.471887 1_555
O13 Zn4 2.147047 1_555
O14 P1 1.523908 1_555
O14 Zn4 1.960565 1_555
O15 S7 1.477717 1_555
O15 Zn5 1.998609 1_555
O16 S8 1.491866 1_555
O16 Zn5 2.071855 1_555
O17 S9 1.493669 1_555
O17 Zn5 2.068971 1_555
O18 S9 1.522182 1_555
O18 Zr0 2.137982 1_554
O19 S7 1.523868 1_555
O19 Zr0 2.126235 1_554
O20 S8 1.520352 1_555
O20 Zr0 2.093781 1_554
O21 S6 1.524581 1_555
O21 Zr1 2.121596 1_555
O22 P1 1.579374 1_555
O22 Zr1 2.041622 1_555
O23 S5 1.520427 1_555
O23 Zr1 2.098298 1_555
O24 P2 1.514328 1_555
O24 Zn6 1.983994 1_556
O25 P3 1.523989 1_555
O25 Zn6 1.996246 1_556
O26 P4 1.522366 1_555
O26 Zn6 1.985201 1_556
O27 P5 1.540204 1_555
O27 Zn7 1.960719 1_555
O28 S10 1.479345 1_555
O28 Zn7 2.071387 1_555
O29 S11 1.471657 1_555
O29 Zn7 2.078056 1_555
O30 S11 1.474066 1_555
O30 Zn8 2.001469 1_555
O31 P5 1.549506 1_555
O31 Zn8 1.966336 1_555
O32 S10 1.483347 1_555
O32 Zn8 2.109916 1_555
O33 P3 1.567509 1_555
O33 Zr2 2.073592 1_555
O34 P4 1.549706 1_555
O34 Zr2 2.090816 1_555
O35 P2 1.566110 1_555
O35 Zr2 2.052966 1_555
O36 S11 1.474858 1_555
O36 Zn0 2.176881 1_455
O37 P5 1.540407 1_555
O37 Zn0 2.009563 1_555
O38 S10 1.469642 1_555
O38 Zn0 2.163596 1_445
O39 P3 1.524016 1_555
O39 Zn1 2.092010 1_455
O40 P4 1.540408 1_555
O40 Zn1 2.188372 1_465
O41 P2 1.525395 1_555
O41 Zn1 2.157439 1_565
O42 S5 1.498392 1_555
O42 Zn2 2.380345 1_545
O43 S6 1.479926 1_555
O43 Zn2 2.318613 1_445
O44 P1 1.548156 1_555
O44 Zn2 2.140649 1_555
O45 S7 1.481061 1_555
O45 Zn3 2.134263 1_655
O46 S8 1.479019 1_555
O46 Zn3 2.168099 1_645
O47 S9 1.479799 1_555
O47 Zn3 2.180186 1_545
O48 S4 1.472550 1_555
O48 Zn4 2.222334 1_555
O49 P0 1.540896 1_555
O49 Zn4 2.015244 1_555
O50 S3 1.477340 1_555
O50 Zn4 2.133428 1_555
O51 S1 1.501928 1_555
O51 Zn5 2.171052 1_555
O52 S2 1.502315 1_655
O52 Zn5 2.196404 1_555
O53 S0 1.523750 1_545
O53 Zn5 2.320271 1_555
O54 P2 1.602205 1_555
O54 Zr0 2.094481 1_555
O55 P3 1.579649 1_655
O55 Zr0 2.070778 1_555
O56 P4 1.582559 1_545
O56 Zr0 2.056052 1_555
O57 P5 1.592230 1_545
O57 Zr1 2.068516 1_555
O58 S10 1.524174 1_555
O58 Zr1 2.135020 1_555
O59 S11 1.528390 1_655
O59 Zr1 2.114225 1_555
O60 S9 1.471385 1_555
O60 Zn6 2.308255 1_555
O61 S7 1.471157 1_455
O61 Zn6 2.308094 1_555
O62 S8 1.470160 1_565
O62 Zn6 2.250072 1_555
O63 S6 1.480762 1_565
O63 Zn7 2.222911 1_555
O64 P1 1.573835 1_555
O64 Zn7 2.121862 1_555
O65 S5 1.483418 1_455
O65 Zn7 2.329531 1_555
O66 S0 1.497243 1_555
O66 Zn8 2.231827 1_555
O67 S1 1.514726 1_555
O67 Zn8 2.345672 1_555
O68 S2 1.494153 1_555
O68 Zn8 2.289376 1_555
O69 P0 1.597477 1_555
O69 Zr2 2.066692 1_555
O70 S3 1.516766 1_455
O70 Zr2 2.153628 1_555
O71 S4 1.521543 1_565
O71 Zr2 2.162880 1_555
