# generated using pymatgen
data_MgMn6(O5F)2
_symmetry_space_group_name_H-M   'P 1'
_cell_length_a   8.08295639
_cell_length_b   5.87255469
_cell_length_c   5.68612391
_cell_angle_alpha   69.62093600
_cell_angle_beta   66.09755411
_cell_angle_gamma   64.38539122
_symmetry_Int_Tables_number   1
_chemical_formula_structural   MgMn6(O5F)2
_chemical_formula_sum   'Mg1 Mn6 O10 F2'
_cell_volume   217.54945419
_cell_formula_units_Z   1
loop_
 _symmetry_equiv_pos_site_id
 _symmetry_equiv_pos_as_xyz
  1  'x, y, z'
loop_
 _atom_site_type_symbol
 _atom_site_label
 _atom_site_symmetry_multiplicity
 _atom_site_fract_x
 _atom_site_fract_y
 _atom_site_fract_z
 _atom_site_occupancy
  Mg  Mg0  1  0.49648345  0.51599745  0.00018854  1
  Mn  Mn0  1  0.86415245  0.68948834  0.69356286  1
  Mn  Mn1  1  0.66991762  0.32353187  0.37305308  1
  Mn  Mn2  1  0.31905345  0.66809783  0.63431783  1
  Mn  Mn3  1  0.13073404  0.30803303  0.32173910  1
  Mn  Mn4  1  0.51943567  0.01108083  0.02731645  1
  Mn  Mn5  1  0.97978206  0.03204350  0.98411565  1
  O  O0  1  0.66524172  0.02410062  0.65775890  1
  O  O1  1  0.32573804  0.35943191  0.97644523  1
  O  O2  1  0.58918624  0.54923469  0.59881836  1
  O  O3  1  0.94411305  0.21074340  0.23840136  1
  O  O4  1  0.69225092  0.15066060  0.11085331  1
  O  O5  1  0.04436320  0.79966012  0.75662315  1
  O  O6  1  0.39200034  0.45490717  0.41120945  1
  O  O7  1  0.32875934  0.97261418  0.36456490  1
  O  O8  1  0.66974980  0.64496713  0.04732288  1
  O  O9  1  0.99788725  0.32824185  0.68662301  1
  F  F0  1  0.28985853  0.85743865  0.90677959  1
  F  F1  1  0.98869983  0.69496783  0.29363934  1
loop_
_geom_bond_atom_site_label_1
_geom_bond_atom_site_label_2
_geom_bond_distance
_geom_bond_site_symmetry_2
Mg0 O8 1.992371 1_555
Mg0 O1 2.025577 1_554
Mg0 O2 2.058784 1_554
Mg0 O6 2.093467 1_555
Mg0 O4 2.105746 1_555
Mn0 O9 1.926529 1_555
Mn0 O0 1.934612 1_565
Mn0 O8 2.002814 1_556
Mn0 O5 2.017086 1_655
Mn1 O2 1.894458 1_555
Mn1 O3 1.909392 1_555
Mn1 O0 1.933787 1_555
Mn1 O6 1.977802 1_555
Mn1 O4 1.990872 1_555
Mn1 O8 2.135067 1_555
Mn2 O6 1.840175 1_555
Mn2 O5 1.910512 1_555
Mn2 O7 1.915790 1_555
Mn2 O2 1.928393 1_555
Mn2 O1 2.148887 1_555
Mn3 O9 1.930732 1_455
Mn3 O7 1.938302 1_545
Mn3 O1 1.980205 1_554
Mn3 O3 2.083118 1_455
Mn4 O7 1.925627 1_545
Mn4 O0 1.941549 1_554
Mn4 O8 1.948014 1_545
Mn4 O1 1.976218 1_554
Mn4 O4 2.155824 1_555
Mn5 O3 1.931944 1_556
Mn5 O5 1.968361 1_645
Mn5 O9 1.969452 1_555
Mn5 O4 1.999652 1_556
F0 Mg0 2.042945 1_556
F0 Mn2 2.090175 1_555
F0 Mn5 2.173784 1_465
F1 Mn3 2.036442 1_655
F1 Mn0 2.075464 1_555
F1 Mn5 2.138740 1_564
