# generated using pymatgen
data_BaYMgMnCuO5
_symmetry_space_group_name_H-M   'P 1'
_cell_length_a   3.63356371
_cell_length_b   4.62878674
_cell_length_c   9.20252410
_cell_angle_alpha   90.00049795
_cell_angle_beta   89.99556803
_cell_angle_gamma   90.00029709
_symmetry_Int_Tables_number   1
_chemical_formula_structural   BaYMgMnCuO5
_chemical_formula_sum   'Ba1 Y1 Mg1 Mn1 Cu1 O5'
_cell_volume   154.77717453
_cell_formula_units_Z   1
loop_
 _symmetry_equiv_pos_site_id
 _symmetry_equiv_pos_as_xyz
  1  'x, y, z'
loop_
 _atom_site_type_symbol
 _atom_site_label
 _atom_site_symmetry_multiplicity
 _atom_site_fract_x
 _atom_site_fract_y
 _atom_site_fract_z
 _atom_site_occupancy
  Ba  Ba0  1  -0.00004734  0.00001125  0.83076667  1
  Y  Y0  1  -0.00010750  0.00004048  0.40766040  1
  Mg  Mg0  1  -0.00009600  0.49999938  0.10516606  1
  Mn  Mn0  1  0.50005045  0.50000585  0.62069926  1
  Cu  Cu0  1  0.50020478  0.50010096  0.33727607  1
  O  O0  1  0.00004974  0.50000250  0.70594751  1
  O  O1  1  0.50002333  0.00000522  0.59577272  1
  O  O2  1  0.00002822  0.49994124  0.32984653  1
  O  O3  1  0.49996028  0.99991904  0.26870016  1
  O  O4  1  0.49992804  0.49997008  0.01108162  1
loop_
_geom_bond_atom_site_label_1
_geom_bond_atom_site_label_2
_geom_bond_distance
_geom_bond_site_symmetry_2
Ba0 O0 2.583733 1_555
Ba0 O0 2.583788 1_545
Ba0 O1 2.824348 1_455
Ba0 O1 2.824463 1_555
Mg0 O4 2.012525 1_455
Mg0 O4 2.012562 1_555
Mg0 O2 2.067628 1_555
Mn0 O0 1.978869 1_555
Mn0 O0 1.978976 1_655
Mn0 O1 2.325732 1_565
Mn0 O1 2.325734 1_555
Cu0 O2 1.817422 1_655
Cu0 O2 1.818714 1_555
Cu0 O3 2.398082 1_555
Cu0 O3 2.399696 1_545
O1 Y0 2.509027 1_655
O1 Y0 2.509910 1_555
O2 Y0 2.422209 1_555
O2 Y0 2.423075 1_565
O3 Y0 2.221588 1_665
O3 Y0 2.221829 1_565
