# generated using pymatgen
data_MgV3CoO8
_symmetry_space_group_name_H-M   'P 1'
_cell_length_a   6.50511908
_cell_length_b   6.50511891
_cell_length_c   6.87727831
_cell_angle_alpha   73.38800284
_cell_angle_beta   106.61199568
_cell_angle_gamma   145.69081060
_symmetry_Int_Tables_number   1
_chemical_formula_structural   MgV3CoO8
_chemical_formula_sum   'Mg1 V3 Co1 O8'
_cell_volume   156.52304042
_cell_formula_units_Z   1
loop_
 _symmetry_equiv_pos_site_id
 _symmetry_equiv_pos_as_xyz
  1  'x, y, z'
loop_
 _atom_site_type_symbol
 _atom_site_label
 _atom_site_symmetry_multiplicity
 _atom_site_fract_x
 _atom_site_fract_y
 _atom_site_fract_z
 _atom_site_occupancy
  Mg  Mg0  1  0.81877200  0.18122800  0.99443600  1
  V  V0  1  0.40511600  0.59488400  0.30813900  1
  V  V1  1  0.59452000  0.40548000  0.70716000  1
  V  V2  1  0.28810100  0.71189900  0.66261900  1
  Co  Co0  1  0.69132100  0.30867900  0.28638400  1
  O  O0  1  0.12250800  0.87749200  0.67814700  1
  O  O1  1  0.24840800  0.75159200  0.36670200  1
  O  O2  1  0.35584600  0.64415400  0.00550500  1
  O  O3  1  0.44695900  0.55304100  0.64145700  1
  O  O4  1  0.55428700  0.44571300  0.37647800  1
  O  O5  1  0.64462200  0.35537800  0.97188400  1
  O  O6  1  0.76327700  0.23672300  0.69093800  1
  O  O7  1  0.86834700  0.13165300  0.29014900  1
loop_
_geom_bond_atom_site_label_1
_geom_bond_atom_site_label_2
_geom_bond_distance
_geom_bond_site_symmetry_2
Mg0 O7 1.940554 1_556
Mg0 O2 1.969413 1_546
Mg0 O2 1.969413 1_656
Mg0 O6 1.992698 1_555
Mg0 O5 2.123694 1_555
Co0 O4 1.979277 1_555
Co0 O1 2.062898 1_545
Co0 O1 2.062898 1_655
Co0 O5 2.064897 1_554
Co0 O7 2.193081 1_555
O0 V1 1.970732 1_565
O0 V1 1.970732 1_455
O0 V2 2.092994 1_555
O1 V2 1.945306 1_555
O1 V0 2.104006 1_555
O2 V0 1.985981 1_555
O2 V2 2.254242 1_554
O3 V1 1.753049 1_555
O3 V2 2.023151 1_555
O3 V0 2.193577 1_555
O4 V0 1.771495 1_555
O4 V1 2.177489 1_555
O5 V1 1.738937 1_555
O6 V2 1.962270 1_545
O6 V2 1.962270 1_655
O6 V1 2.133930 1_555
O7 V0 1.967682 1_545
O7 V0 1.967682 1_655
