# generated using pymatgen
data_MgTi2Al4O10
_symmetry_space_group_name_H-M   'P 1'
_cell_length_a   3.67606970
_cell_length_b   5.25869804
_cell_length_c   9.76660143
_cell_angle_alpha   90.74576784
_cell_angle_beta   89.99840318
_cell_angle_gamma   110.45849166
_symmetry_Int_Tables_number   1
_chemical_formula_structural   MgTi2Al4O10
_chemical_formula_sum   'Mg1 Ti2 Al4 O10'
_cell_volume   176.87592275
_cell_formula_units_Z   1
loop_
 _symmetry_equiv_pos_site_id
 _symmetry_equiv_pos_as_xyz
  1  'x, y, z'
loop_
 _atom_site_type_symbol
 _atom_site_label
 _atom_site_symmetry_multiplicity
 _atom_site_fract_x
 _atom_site_fract_y
 _atom_site_fract_z
 _atom_site_occupancy
  Mg  Mg0  1  0.49516700  0.98962300  0.27175000  1
  Ti  Ti0  1  0.12504800  0.24944000  0.05753300  1
  Ti  Ti1  1  0.88745900  0.77433100  0.56742200  1
  Al  Al0  1  0.16284700  0.32504700  0.44311100  1
  Al  Al1  1  0.18619600  0.37195600  0.76094800  1
  Al  Al2  1  0.79658400  0.59239600  0.24803500  1
  Al  Al3  1  0.86508700  0.72948000  0.92211500  1
  O  O0  1  0.07767100  0.15486700  0.60943500  1
  O  O1  1  0.04106700  0.08154900  0.87618200  1
  O  O2  1  0.27955200  0.55840800  0.26381600  1
  O  O3  1  0.32718100  0.65370400  0.54994900  1
  O  O4  1  0.29962900  0.59869800  0.92655400  1
  O  O5  1  0.64543500  0.29020600  0.12334000  1
  O  O6  1  0.67763800  0.35459600  0.40408200  1
  O  O7  1  0.75931400  0.51813700  0.75512100  1
  O  O8  1  0.91993300  0.83910900  0.10587200  1
  O  O9  1  0.97204700  0.94345500  0.36473600  1
loop_
_geom_bond_atom_site_label_1
_geom_bond_atom_site_label_2
_geom_bond_distance
_geom_bond_site_symmetry_2
Mg0 O9 2.064028 1_555
Mg0 O9 2.064216 1_455
Mg0 O5 2.086582 1_565
Mg0 O2 2.124938 1_555
Mg0 O6 2.199881 1_565
Mg0 O8 2.553314 1_455
Mg0 O8 2.553377 1_555
Al0 O0 1.838369 1_555
Al0 O6 1.883143 1_455
Al0 O6 1.883239 1_555
Al0 O3 1.914154 1_555
Al0 O9 2.020092 1_445
Al0 O2 2.108135 1_555
Al1 O0 1.813784 1_555
Al1 O1 1.832657 1_555
Al1 O4 1.952918 1_555
Al1 O7 1.975130 1_455
Al1 O7 1.975307 1_555
Al2 O2 1.852132 1_655
Al2 O2 1.852398 1_555
Al2 O8 1.858017 1_555
Al2 O5 1.910395 1_555
Al2 O6 1.935212 1_555
Al2 O9 2.058181 1_555
Al3 O1 1.797736 1_665
Al3 O8 1.867009 1_556
Al3 O7 1.922804 1_555
Al3 O4 1.948165 1_655
Al3 O4 1.948620 1_555
O0 Ti1 1.913707 1_445
O1 Ti0 1.944395 1_556
O2 Ti0 2.508219 1_555
O3 Ti1 1.938409 1_555
O3 Ti1 1.938655 1_455
O4 Ti0 2.158393 1_556
O5 Ti0 1.956551 1_655
O5 Ti0 1.956610 1_555
O6 Ti1 2.594243 1_555
O7 Ti1 2.240117 1_555
O8 Ti0 2.082468 1_665
O9 Ti1 2.158420 1_555
