# generated using pymatgen
data_MgCu2(SbO3)4
_symmetry_space_group_name_H-M   'P 1'
_cell_length_a   5.00225626
_cell_length_b   5.01884439
_cell_length_c   9.46157834
_cell_angle_alpha   90.02168310
_cell_angle_beta   89.97932339
_cell_angle_gamma   89.72678507
_symmetry_Int_Tables_number   1
_chemical_formula_structural   MgCu2(SbO3)4
_chemical_formula_sum   'Mg1 Cu2 Sb4 O12'
_cell_volume   237.53535465
_cell_formula_units_Z   1
loop_
 _symmetry_equiv_pos_site_id
 _symmetry_equiv_pos_as_xyz
  1  'x, y, z'
loop_
 _atom_site_type_symbol
 _atom_site_label
 _atom_site_symmetry_multiplicity
 _atom_site_fract_x
 _atom_site_fract_y
 _atom_site_fract_z
 _atom_site_occupancy
  Mg  Mg0  1  0.49975700  0.00010200  0.75355100  1
  Cu  Cu0  1  0.99999000  0.99994200  0.00041300  1
  Cu  Cu1  1  0.49997000  0.50006900  0.49898100  1
  Sb  Sb0  1  0.49990800  0.50015700  0.85180700  1
  Sb  Sb1  1  0.00009400  0.99991500  0.31920000  1
  Sb  Sb2  1  0.50011700  0.49987600  0.18043600  1
  Sb  Sb3  1  0.99987300  0.00016300  0.64744400  1
  O  O0  1  0.69929800  0.70743400  0.67564700  1
  O  O1  1  0.30051700  0.29275500  0.67566600  1
  O  O2  1  0.70367200  0.70160700  0.32819800  1
  O  O3  1  0.20156800  0.79654800  0.17108900  1
  O  O4  1  0.79881300  0.20306500  0.17102500  1
  O  O5  1  0.79459200  0.20090500  0.82489700  1
  O  O6  1  0.31861600  0.30684000  0.00826300  1
  O  O7  1  0.19401700  0.81669900  0.49087300  1
  O  O8  1  0.80599700  0.18332700  0.49086500  1
  O  O9  1  0.68161900  0.69299800  0.00830500  1
  O  O10  1  0.29653100  0.29821000  0.32819500  1
  O  O11  1  0.20505200  0.79938900  0.82514500  1
loop_
_geom_bond_atom_site_label_1
_geom_bond_atom_site_label_2
_geom_bond_distance
_geom_bond_site_symmetry_2
Mg0 O11 1.913323 1_545
Mg0 O5 1.913342 1_555
Mg0 O1 1.918608 1_555
Mg0 O0 1.918808 1_545
Cu0 O4 2.155368 1_565
Cu0 O3 2.158516 1_655
Cu0 O11 2.191575 1_654
Cu0 O5 2.196211 1_564
Cu0 O9 2.222255 1_555
Cu0 O6 2.222999 1_665
Cu1 O2 2.163872 1_555
Cu1 O10 2.164005 1_555
Cu1 O7 2.202374 1_555
Cu1 O8 2.202956 1_555
Cu1 O0 2.209330 1_555
Cu1 O1 2.209680 1_555
O0 Sb3 2.124003 1_565
O0 Sb0 2.205693 1_555
O1 Sb3 2.123790 1_455
O1 Sb0 2.205805 1_555
O2 Sb2 2.006548 1_555
O2 Sb1 2.113895 1_655
O3 Sb1 2.002344 1_555
O3 Sb2 2.105726 1_555
O4 Sb1 2.002781 1_645
O4 Sb2 2.106669 1_555
O5 Sb0 2.114658 1_555
O5 Sb3 2.208190 1_555
O6 Sb0 1.990882 1_554
O6 Sb2 2.103547 1_555
O7 Sb3 1.993728 1_465
O7 Sb1 2.102057 1_555
O8 Sb3 1.993481 1_555
O8 Sb1 2.101748 1_645
O9 Sb0 1.990912 1_554
O9 Sb2 2.103502 1_555
O10 Sb2 2.006463 1_555
O10 Sb1 2.113897 1_545
O11 Sb0 2.115167 1_555
O11 Sb3 2.210954 1_465
