# generated using pymatgen
data_Be2Fe
_symmetry_space_group_name_H-M   'P 1'
_cell_length_a   4.18834927
_cell_length_b   4.18834883
_cell_length_c   6.79926708
_cell_angle_alpha   89.99999941
_cell_angle_beta   90.00000061
_cell_angle_gamma   119.99882555
_symmetry_Int_Tables_number   1
_chemical_formula_structural   Be2Fe
_chemical_formula_sum   'Be8 Fe4'
_cell_volume   103.29602470
_cell_formula_units_Z   4
loop_
 _symmetry_equiv_pos_site_id
 _symmetry_equiv_pos_as_xyz
  1  'x, y, z'
loop_
 _atom_site_type_symbol
 _atom_site_label
 _atom_site_symmetry_multiplicity
 _atom_site_fract_x
 _atom_site_fract_y
 _atom_site_fract_z
 _atom_site_occupancy
  Be  Be0  1  0.00000003  -0.00000003  0.99999906  1
  Be  Be1  1  0.00000003  -0.00000003  0.49999998  1
  Be  Be2  1  0.82971170  0.65942203  0.25000037  1
  Be  Be3  1  0.17029563  0.82970437  0.75000010  1
  Be  Be4  1  0.65941940  0.82971092  0.75000011  1
  Be  Be5  1  0.34057797  0.17028830  0.25000037  1
  Be  Be6  1  0.82970545  0.17029455  0.25000037  1
  Be  Be7  1  0.17028908  0.34058060  0.75000011  1
  Fe  Fe0  1  0.33333345  0.66666655  0.06146797  1
  Fe  Fe1  1  0.66666640  0.33333360  0.56148582  1
  Fe  Fe2  1  0.66666641  0.33333359  0.93852158  1
  Fe  Fe3  1  0.33333346  0.66666654  0.43852517  1
loop_
_geom_bond_atom_site_label_1
_geom_bond_atom_site_label_2
_geom_bond_distance
_geom_bond_site_symmetry_2
Be0 Be7 2.101310 1_555
Be0 Be4 2.101310 1_445
Be0 Be2 2.101317 1_446
Be0 Be5 2.101317 1_556
Be0 Be3 2.101319 1_545
Be0 Be6 2.101328 1_456
Be0 Fe0 2.453983 1_546
Be0 Fe2 2.453994 1_455
Be0 Fe0 2.454024 1_556
Be0 Fe0 2.454025 1_446
Be0 Fe2 2.454034 1_445
Be0 Fe2 2.454034 1_555
Be1 Be2 2.101308 1_445
Be1 Be5 2.101308 1_555
Be1 Be7 2.101316 1_555
Be1 Be4 2.101316 1_445
Be1 Be6 2.101319 1_455
Be1 Be3 2.101326 1_545
Be1 Fe3 2.453990 1_545
Be1 Fe1 2.454004 1_455
Be1 Fe3 2.454031 1_555
Be1 Fe3 2.454031 1_445
Be1 Fe1 2.454043 1_445
Be1 Fe1 2.454043 1_555
Be2 Be6 2.048623 1_555
Be2 Be5 2.048699 1_555
Be2 Be5 2.139724 1_665
Be2 Be6 2.139725 1_565
Be2 Fe2 2.425742 1_554
Be2 Fe1 2.425782 1_555
Be2 Fe3 2.455472 1_655
Be2 Fe3 2.455474 1_555
Be2 Fe0 2.455499 1_655
Be2 Fe0 2.455501 1_555
Be3 Be7 2.048607 1_555
Be3 Be4 2.048607 1_555
Be3 Be7 2.139742 1_565
Be3 Be4 2.139742 1_455
Be3 Fe0 2.425645 1_556
Be3 Fe3 2.425687 1_555
Be3 Fe1 2.455468 1_565
Be3 Fe1 2.455468 1_455
Be3 Fe2 2.455493 1_565
Be3 Fe2 2.455493 1_455
Be4 Be7 2.048685 1_555
Be4 Be7 2.139739 1_665
Be4 Fe0 2.425673 1_556
Be4 Fe3 2.425715 1_555
Be4 Fe1 2.455433 1_565
Be4 Fe1 2.455438 1_555
Be4 Fe2 2.455458 1_565
Be4 Fe2 2.455464 1_555
Be5 Be6 2.048624 1_555
Be5 Be6 2.139726 1_455
Be5 Fe2 2.425743 1_554
Be5 Fe1 2.425782 1_555
Be5 Fe3 2.455471 1_545
Be5 Fe3 2.455474 1_555
Be5 Fe0 2.455498 1_545
Be5 Fe0 2.455501 1_555
Be6 Fe2 2.425714 1_554
Be6 Fe1 2.425754 1_555
Be6 Fe3 2.455505 1_545
Be6 Fe3 2.455505 1_655
Be6 Fe0 2.455532 1_545
Be6 Fe0 2.455532 1_655
Be7 Fe0 2.425673 1_556
Be7 Fe3 2.425715 1_555
Be7 Fe1 2.455433 1_455
Be7 Fe1 2.455438 1_555
Be7 Fe2 2.455459 1_455
Be7 Fe2 2.455464 1_555
Fe0 Fe2 2.558544 1_554
Fe0 Fe2 2.558588 1_564
Fe0 Fe2 2.558588 1_454
Fe0 Fe3 2.563713 1_555
Fe1 Fe3 2.558575 1_555
Fe1 Fe3 2.558620 1_545
Fe1 Fe3 2.558620 1_655
Fe1 Fe2 2.563567 1_555
