# generated using pymatgen
data_Mo3S4
_symmetry_space_group_name_H-M   'P 1'
_cell_length_a   6.49357983
_cell_length_b   6.49357983
_cell_length_c   6.49357997
_cell_angle_alpha   91.32476057
_cell_angle_beta   91.32476057
_cell_angle_gamma   91.32475724
_symmetry_Int_Tables_number   1
_chemical_formula_structural   Mo3S4
_chemical_formula_sum   'Mo6 S8'
_cell_volume   273.58904782
_cell_formula_units_Z   2
loop_
 _symmetry_equiv_pos_site_id
 _symmetry_equiv_pos_as_xyz
  1  'x, y, z'
loop_
 _atom_site_type_symbol
 _atom_site_label
 _atom_site_symmetry_multiplicity
 _atom_site_fract_x
 _atom_site_fract_y
 _atom_site_fract_z
 _atom_site_occupancy
  Mo  Mo0  1  0.21212600  0.40535700  0.55050800  1
  Mo  Mo1  1  0.55050800  0.21212600  0.40535700  1
  Mo  Mo2  1  0.40535700  0.55050800  0.21212600  1
  Mo  Mo3  1  0.78787400  0.59464300  0.44949200  1
  Mo  Mo4  1  0.44949200  0.78787400  0.59464300  1
  Mo  Mo5  1  0.59464300  0.44949200  0.78787400  1
  S  S0  1  0.38829200  0.13303200  0.73277600  1
  S  S1  1  0.73277600  0.38829200  0.13303200  1
  S  S2  1  0.13303200  0.73277600  0.38829200  1
  S  S3  1  0.61170800  0.86696800  0.26722400  1
  S  S4  1  0.26722400  0.61170800  0.86696800  1
  S  S5  1  0.86696800  0.26722400  0.61170800  1
  S  S6  1  0.22104100  0.22104100  0.22104100  1
  S  S7  1  0.77895900  0.77895900  0.77895900  1
loop_
_geom_bond_atom_site_label_1
_geom_bond_atom_site_label_2
_geom_bond_distance
_geom_bond_site_symmetry_2
Mo0 S6 2.429712 1_555
Mo0 S5 2.439403 1_455
Mo0 S4 2.441897 1_555
Mo0 S0 2.442188 1_555
Mo0 S2 2.454136 1_555
Mo1 S6 2.429712 1_555
Mo1 S3 2.439403 1_545
Mo1 S5 2.441897 1_555
Mo1 S1 2.442188 1_555
Mo1 S0 2.454136 1_555
Mo2 S6 2.429712 1_555
Mo2 S4 2.439403 1_554
Mo2 S3 2.441897 1_555
Mo2 S2 2.442188 1_555
Mo2 S1 2.454136 1_555
Mo3 S7 2.429712 1_555
Mo3 S2 2.439403 1_655
Mo3 S1 2.441897 1_555
Mo3 S3 2.442188 1_555
Mo3 S5 2.454136 1_555
Mo4 S7 2.429712 1_555
Mo4 S0 2.439403 1_565
Mo4 S2 2.441897 1_555
Mo4 S4 2.442188 1_555
Mo4 S3 2.454136 1_555
Mo5 S7 2.429712 1_555
Mo5 S1 2.439403 1_556
Mo5 S0 2.441897 1_555
Mo5 S5 2.442188 1_555
Mo5 S4 2.454136 1_555
