# generated using pymatgen
data_CrCoH18(CN2)6
_symmetry_space_group_name_H-M   'P 1'
_cell_length_a   7.41601104
_cell_length_b   7.41601104
_cell_length_c   7.41601097
_cell_angle_alpha   97.23595281
_cell_angle_beta   97.23595281
_cell_angle_gamma   97.23594315
_symmetry_Int_Tables_number   1
_chemical_formula_structural   CrCoH18(CN2)6
_chemical_formula_sum   'Cr1 Co1 H18 C6 N12'
_cell_volume   397.19970858
_cell_formula_units_Z   1
loop_
 _symmetry_equiv_pos_site_id
 _symmetry_equiv_pos_as_xyz
  1  'x, y, z'
loop_
 _atom_site_type_symbol
 _atom_site_label
 _atom_site_symmetry_multiplicity
 _atom_site_fract_x
 _atom_site_fract_y
 _atom_site_fract_z
 _atom_site_occupancy
  Cr  Cr0  1  0.00000000  0.00000000  0.00000000  1
  Co  Co0  1  0.50000000  0.50000000  0.50000000  1
  H  H0  1  0.64104200  0.44281800  0.20179800  1
  H  H1  1  0.20179800  0.64104200  0.44281800  1
  H  H2  1  0.44281800  0.20179800  0.64104200  1
  H  H3  1  0.35895800  0.55718200  0.79820200  1
  H  H4  1  0.79820200  0.35895800  0.55718200  1
  H  H5  1  0.55718200  0.79820200  0.35895800  1
  H  H6  1  0.43935100  0.31337300  0.17730900  1
  H  H7  1  0.17730900  0.43935100  0.31337300  1
  H  H8  1  0.31337300  0.17730900  0.43935100  1
  H  H9  1  0.56064900  0.68662700  0.82269100  1
  H  H10  1  0.82269100  0.56064900  0.68662700  1
  H  H11  1  0.68662700  0.82269100  0.56064900  1
  H  H12  1  0.61924100  0.25201700  0.29449700  1
  H  H13  1  0.29449700  0.61924100  0.25201700  1
  H  H14  1  0.38075900  0.74798300  0.70550300  1
  H  H15  1  0.70550300  0.38075900  0.74798300  1
  H  H16  1  0.74798300  0.70550300  0.38075900  1
  H  H17  1  0.25201700  0.29449700  0.61924100  1
  C  C0  1  0.75573700  0.05267400  0.87151700  1
  C  C1  1  0.05267400  0.87151700  0.75573800  1
  C  C2  1  0.94732600  0.12848300  0.24426300  1
  C  C3  1  0.24426300  0.94732600  0.12848300  1
  C  C4  1  0.12848300  0.24426300  0.94732600  1
  C  C5  1  0.87151700  0.75573800  0.05267400  1
  N  N0  1  0.55488700  0.36314200  0.27023300  1
  N  N1  1  0.27023300  0.55488700  0.36314200  1
  N  N2  1  0.36314200  0.27023300  0.55488700  1
  N  N3  1  0.44511300  0.63685800  0.72976700  1
  N  N4  1  0.72976700  0.44511300  0.63685800  1
  N  N5  1  0.63685800  0.72976700  0.44511300  1
  N  N6  1  0.08129100  0.79184800  0.61715500  1
  N  N7  1  0.61715500  0.08129100  0.79184800  1
  N  N8  1  0.79184800  0.61715500  0.08129100  1
  N  N9  1  0.91870900  0.20815200  0.38284500  1
  N  N10  1  0.38284500  0.91870900  0.20815200  1
  N  N11  1  0.20815200  0.38284500  0.91870900  1
loop_
_geom_bond_atom_site_label_1
_geom_bond_atom_site_label_2
_geom_bond_distance
_geom_bond_site_symmetry_2
Co0 N4 1.985543 1_555
Co0 N1 1.985543 1_555
Co0 N3 1.985543 1_555
Co0 N0 1.985543 1_555
Co0 N5 1.985543 1_555
Co0 N2 1.985543 1_555
H0 N0 1.037815 1_555
H1 N1 1.037815 1_555
H2 N2 1.037815 1_555
H3 N3 1.037815 1_555
H4 N4 1.037815 1_555
H5 N5 1.037815 1_555
H6 N0 1.026048 1_555
H7 N1 1.026048 1_555
H8 N2 1.026048 1_555
H9 N3 1.026048 1_555
H10 N4 1.026048 1_555
H11 N5 1.026048 1_555
H12 N0 1.026691 1_555
H13 N1 1.026691 1_555
H14 N3 1.026691 1_555
H15 N4 1.026691 1_555
H16 N5 1.026691 1_555
H17 N2 1.026691 1_555
C0 N7 1.176394 1_555
C0 Cr0 2.044278 1_656
C1 N6 1.176400 1_555
C1 Cr0 2.044272 1_566
C2 N9 1.176394 1_555
C2 Cr0 2.044278 1_655
C3 N10 1.176394 1_555
C3 Cr0 2.044278 1_565
C4 N11 1.176394 1_555
C4 Cr0 2.044278 1_556
C5 N8 1.176400 1_555
C5 Cr0 2.044272 1_665
