# generated using pymatgen
data_Na3Ti3Ga(PO4)6
_symmetry_space_group_name_H-M   'P 1'
_cell_length_a   8.62061792
_cell_length_b   8.61910318
_cell_length_c   22.16128850
_cell_angle_alpha   90.01655089
_cell_angle_beta   89.96925268
_cell_angle_gamma   120.21851526
_symmetry_Int_Tables_number   1
_chemical_formula_structural   Na3Ti3Ga(PO4)6
_chemical_formula_sum   'Na9 Ti9 Ga3 P18 O72'
_cell_volume   1422.87110724
_cell_formula_units_Z   3
loop_
 _symmetry_equiv_pos_site_id
 _symmetry_equiv_pos_as_xyz
  1  'x, y, z'
loop_
 _atom_site_type_symbol
 _atom_site_label
 _atom_site_symmetry_multiplicity
 _atom_site_fract_x
 _atom_site_fract_y
 _atom_site_fract_z
 _atom_site_occupancy
  Na  Na0  1  0.36521987  0.36281257  0.24856149  1
  Na  Na1  1  0.63527131  0.63376788  0.74916137  1
  Na  Na2  1  0.96899096  0.30028725  0.41541107  1
  Na  Na3  1  0.00064798  0.99256784  0.49958898  1
  Na  Na4  1  0.99984391  0.99984809  0.00066252  1
  Na  Na5  1  0.66721845  0.32586523  0.83389502  1
  Na  Na6  1  0.66737401  0.33375835  0.33090779  1
  Na  Na7  1  0.33236900  0.67386879  0.16492119  1
  Na  Na8  1  0.32574885  0.66715109  0.66551875  1
  Ti  Ti0  1  -0.00025725  0.00141241  0.85411394  1
  Ti  Ti1  1  0.00172738  0.00193421  0.64501508  1
  Ti  Ti2  1  0.99827569  0.99732496  0.14535795  1
  Ti  Ti3  1  0.66679807  0.33393656  0.98098949  1
  Ti  Ti4  1  0.66016189  0.33395662  0.48136228  1
  Ti  Ti5  1  0.33418555  0.66693280  0.02176603  1
  Ti  Ti6  1  0.33289734  0.66766926  0.52081070  1
  Ti  Ti7  1  0.33447196  0.67346095  0.31171756  1
  Ti  Ti8  1  0.32740257  0.66780804  0.81464240  1
  Ga  Ga0  1  0.99966353  0.99380636  0.35087593  1
  Ga  Ga1  1  0.66800163  0.32781133  0.68500064  1
  Ga  Ga2  1  0.67263431  0.33248269  0.18456165  1
  P  P0  1  0.28896982  0.00094004  0.24988099  1
  P  P1  1  0.71438693  0.71066682  0.25040059  1
  P  P2  1  0.99288099  0.28596640  0.25106852  1
  P  P3  1  0.28907493  0.28683865  0.74972466  1
  P  P4  1  0.00119260  0.71139382  0.74933819  1
  P  P5  1  0.71308453  0.00604807  0.74971047  1
  P  P6  1  0.95388744  0.33370702  0.58369575  1
  P  P7  1  0.37883057  0.04477900  0.58464197  1
  P  P8  1  0.66549760  0.62110678  0.58508658  1
  P  P9  1  0.95439070  0.62036157  0.08404425  1
  P  P10  1  0.66677631  0.04670847  0.08416080  1
  P  P11  1  0.37937108  0.33363946  0.08469359  1
  P  P12  1  0.62083854  0.66572055  0.91648951  1
  P  P13  1  0.04433107  0.37821970  0.91750223  1
  P  P14  1  0.33325481  0.95539834  0.91736482  1
  P  P15  1  0.62299281  0.95396007  0.41681488  1
  P  P16  1  0.33453300  0.37728239  0.41578504  1
  P  P17  1  0.04584191  0.67289420  0.41667362  1
  O  O0  1  0.21132697  0.04123883  0.30624326  1
  O  O1  1  0.82512240  0.79032049  0.30730448  1
  O  O2  1  0.96686430  0.17965573  0.30980885  1
  O  O3  1  0.19889698  0.17004012  0.80593466  1
  O  O4  1  0.96723288  0.79853161  0.80529431  1
  O  O5  1  0.82930570  0.02939296  0.80607751  1
  O  O6  1  0.79784008  0.96604170  0.69434223  1
  O  O7  1  0.17029192  0.19972028  0.69368737  1
  O  O8  1  0.03117572  0.82976948  0.69334199  1
  O  O9  1  0.79975882  0.82991824  0.19409267  1
  O  O10  1  0.03416128  0.20066876  0.19601102  1
  O  O11  1  0.16942734  0.96787533  0.19379682  1
  O  O12  1  0.87596088  0.37055581  0.63969094  1
  O  O13  1  0.49269990  0.12289035  0.64069865  1
  O  O14  1  0.63115810  0.51071742  0.64272343  1
  O  O15  1  0.87755432  0.50757081  0.14041387  1
  O  O16  1  0.62879060  0.12231983  0.14038539  1
  O  O17  1  0.48884195  0.36862313  0.14249720  1
  O  O18  1  0.46830722  0.30392275  0.02838305  1
  O  O19  1  0.83693929  0.53356086  0.02718598  1
  O  O20  1  0.69725480  0.16392871  0.02728471  1
  O  O21  1  0.46650207  0.16314453  0.52768358  1
  O  O22  1  0.69588254  0.53143797  0.52876455  1
  O  O23  1  0.84063590  0.30252873  0.52557352  1
  O  O24  1  0.53289073  0.69664895  0.97184753  1
  O  O25  1  0.16272014  0.46543135  0.97283621  1
  O  O26  1  0.30233628  0.83679115  0.97264880  1
  O  O27  1  0.53243167  0.83709883  0.47272220  1
  O  O28  1  0.30138724  0.46638912  0.47123881  1
  O  O29  1  0.16229860  0.69609091  0.47276936  1
  O  O30  1  0.13144648  0.63303559  0.36121341  1
  O  O31  1  0.50353095  0.86626687  0.36064723  1
  O  O32  1  0.36493321  0.49148190  0.35841433  1
  O  O33  1  0.13351319  0.49614551  0.86060046  1
  O  O34  1  0.36263023  0.86656540  0.86054068  1
  O  O35  1  0.50801459  0.63703124  0.85848159  1
  O  O36  1  0.02749142  0.83818444  0.41107437  1
  O  O37  1  0.81180604  0.97935401  0.41133499  1
  O  O38  1  0.16316741  0.19221407  0.41105570  1
  O  O39  1  0.02669098  0.19237408  0.90939186  1
  O  O40  1  0.16525728  0.97276960  0.90896288  1
  O  O41  1  0.80836704  0.83459007  0.90930279  1
  O  O42  1  0.97349648  0.16520632  0.59007375  1
  O  O43  1  0.19142630  0.02613025  0.58946154  1
  O  O44  1  0.83499642  0.80884478  0.58972716  1
  O  O45  1  0.97403764  0.80853740  0.08943583  1
  O  O46  1  0.83483448  0.02676449  0.08993872  1
  O  O47  1  0.19065382  0.16518083  0.08977315  1
  O  O48  1  0.69428031  0.17141529  0.74457740  1
  O  O49  1  0.47832111  0.31245943  0.74448108  1
  O  O50  1  0.82974107  0.52657454  0.74405514  1
  O  O51  1  0.68299084  0.51930402  0.24350850  1
  O  O52  1  0.83038426  0.30934773  0.24397784  1
  O  O53  1  0.47553161  0.16909231  0.24299457  1
  O  O54  1  0.63997485  0.49837894  0.92325370  1
  O  O55  1  0.85829087  0.35968976  0.92303465  1
  O  O56  1  0.50165510  0.14185612  0.92314032  1
  O  O57  1  0.64393476  0.14320265  0.42321447  1
  O  O58  1  0.50341979  0.36049392  0.42360872  1
  O  O59  1  0.86104780  0.49738225  0.42358058  1
  O  O60  1  0.35782441  0.49997034  0.07527342  1
  O  O61  1  0.14285262  0.64321836  0.07495546  1
  O  O62  1  0.50049702  0.85741426  0.07493631  1
  O  O63  1  0.35686180  0.85720003  0.57532659  1
  O  O64  1  0.49961014  0.64192774  0.57524953  1
  O  O65  1  0.14350025  0.49981779  0.57515324  1
  O  O66  1  0.30528189  0.83056734  0.25688700  1
  O  O67  1  0.52300032  0.68961131  0.25638129  1
  O  O68  1  0.16971626  0.47350188  0.25682386  1
  O  O69  1  0.31065558  0.47649570  0.75639010  1
  O  O70  1  0.16976736  0.69405518  0.75650618  1
  O  O71  1  0.52781976  0.83079387  0.75672539  1
loop_
_geom_bond_atom_site_label_1
_geom_bond_atom_site_label_2
_geom_bond_distance
_geom_bond_site_symmetry_2
Na0 O53 2.303357 1_555
Na0 O68 2.324275 1_555
Na0 O51 2.369918 1_555
Na0 O67 2.440788 1_555
Na0 O17 2.570375 1_555
Na0 O32 2.675408 1_555
Na0 O0 2.715726 1_555
Na0 O10 2.728025 1_555
Na1 O50 2.288175 1_555
Na1 O71 2.313665 1_555
Na1 O49 2.395656 1_555
Na1 O69 2.423926 1_555
Na1 O14 2.578921 1_555
Na1 O35 2.664920 1_555
Na1 O6 2.757168 1_555
Na1 O4 2.768689 1_555
Na2 O38 2.290921 1_655
Na2 O59 2.318488 1_555
Na2 O37 2.392262 1_545
Na2 O57 2.428146 1_555
Na2 O2 2.556903 1_555
Na2 O23 2.683926 1_555
Na2 O30 2.754353 1_655
Na2 O28 2.768495 1_655
Na3 O36 2.445402 1_555
Na3 O44 2.501930 1_455
Na3 O43 2.505914 1_565
Na3 O37 2.510984 1_455
Na3 O38 2.519059 1_565
Na3 O42 2.576492 1_465
Na4 O45 2.504195 1_555
Na4 O47 2.505717 1_665
Na4 O46 2.514070 1_565
Na4 O41 2.547147 1_554
Na4 O39 2.552106 1_664
Na4 O40 2.559147 1_654
Na5 O48 2.460724 1_555
Na5 O56 2.486830 1_555
Na5 O55 2.494057 1_555
Na5 O49 2.530902 1_555
Na5 O50 2.545356 1_555
Na5 O54 2.556753 1_555
Na6 O52 2.454544 1_555
Na6 O51 2.472242 1_555
Na6 O53 2.486831 1_555
Na6 O57 2.567183 1_555
Na6 O58 2.568202 1_555
Na6 O59 2.574139 1_555
Na7 O62 2.504163 1_555
Na7 O61 2.506538 1_555
Na7 O66 2.519480 1_555
Na7 O60 2.563320 1_555
Na7 O67 2.570257 1_555
Na7 O68 2.580327 1_555
Na8 O70 2.497684 1_555
Na8 O65 2.505945 1_555
Na8 O63 2.511836 1_555
Na8 O69 2.561093 1_555
Na8 O64 2.572954 1_555
Na8 O71 2.576486 1_555
Ga0 O1 1.901740 1_555
Ga0 O0 1.929330 1_665
Ga0 O2 1.982725 1_565
Ga0 O36 1.990408 1_655
Ga0 O37 2.056219 1_555
Ga0 O38 2.064992 1_665
Ga1 O13 1.918613 1_555
Ga1 O12 1.921287 1_555
Ga1 O48 1.979982 1_555
Ga1 O14 1.992283 1_555
Ga1 O50 2.046457 1_555
Ga1 O49 2.051540 1_555
Ga2 O15 1.915927 1_555
Ga2 O16 1.921650 1_555
Ga2 O52 1.974317 1_555
Ga2 O17 1.993719 1_555
Ga2 O53 2.034029 1_555
Ga2 O51 2.039985 1_555
O0 P0 1.536772 1_555
O1 P1 1.521180 1_555
O2 P2 1.542079 1_555
O3 P3 1.543190 1_555
O3 Ti0 1.920194 1_555
O4 P4 1.551749 1_655
O4 Ti0 1.952632 1_665
O5 P5 1.550154 1_555
O5 Ti0 1.925797 1_655
O6 P5 1.552657 1_565
O6 Ti1 1.957235 1_665
O7 P3 1.543191 1_555
O7 Ti1 1.920483 1_555
O8 P4 1.543595 1_555
O8 Ti1 1.947778 1_565
O9 P1 1.547111 1_555
O9 Ti2 1.921046 1_555
O10 P2 1.555076 1_455
O10 Ti2 1.970028 1_445
O11 P0 1.547110 1_565
O11 Ti2 1.942293 1_455
O12 P6 1.518451 1_555
O13 P7 1.515163 1_555
O14 P8 1.530097 1_555
O15 P9 1.515262 1_555
O16 P10 1.516045 1_555
O17 P11 1.528761 1_555
O18 P11 1.551501 1_555
O18 Ti3 1.910660 1_554
O19 P9 1.552721 1_555
O19 Ti3 1.902660 1_554
O20 P10 1.552967 1_555
O20 Ti3 1.912356 1_554
O21 P7 1.558504 1_555
O21 Ti4 1.879724 1_555
O22 P8 1.557795 1_555
O22 Ti4 1.888721 1_555
O23 P6 1.556130 1_555
O23 Ti4 1.969734 1_555
O24 P12 1.534008 1_555
O24 Ti5 1.944260 1_556
O25 P13 1.529366 1_555
O25 Ti5 1.947707 1_556
O26 P14 1.530764 1_555
O26 Ti5 1.951781 1_556
O27 P15 1.538580 1_555
O27 Ti6 1.922887 1_555
O28 P16 1.549755 1_555
O28 Ti6 1.953263 1_555
O29 P17 1.546748 1_555
O29 Ti6 1.928949 1_555
O30 P17 1.557950 1_555
O30 Ti7 1.942191 1_555
O31 P15 1.548727 1_555
O31 Ti7 1.903728 1_555
O32 P16 1.547486 1_555
O32 Ti7 2.003971 1_555
O33 P13 1.558025 1_555
O33 Ti8 1.878801 1_555
O34 P14 1.558994 1_555
O34 Ti8 1.880756 1_555
O35 P12 1.555241 1_555
O35 Ti8 1.963662 1_555
O36 P17 1.515599 1_555
O37 P15 1.534019 1_555
O38 P16 1.538126 1_555
O39 P13 1.541407 1_555
O39 Ti0 1.969256 1_555
O40 P14 1.540476 1_555
O40 Ti0 1.982655 1_565
O41 P12 1.545522 1_555
O41 Ti0 1.973859 1_665
O42 P6 1.550829 1_555
O42 Ti1 1.966757 1_655
O43 P7 1.544556 1_555
O43 Ti1 1.971843 1_555
O44 P8 1.544042 1_555
O44 Ti1 1.982359 1_665
O45 P9 1.548206 1_555
O45 Ti2 1.970819 1_555
O46 P10 1.547825 1_555
O46 Ti2 1.979863 1_545
O47 P11 1.545869 1_555
O47 Ti2 1.986090 1_445
O48 P5 1.517707 1_555
O49 P3 1.536544 1_555
O50 P4 1.538153 1_655
O51 P1 1.538690 1_555
O52 P2 1.520535 1_555
O53 P0 1.537515 1_555
O54 P12 1.539374 1_555
O54 Ti3 2.007666 1_555
O55 P13 1.534478 1_655
O55 Ti3 2.013201 1_555
O56 P14 1.535663 1_545
O56 Ti3 2.009836 1_555
O57 P15 1.554568 1_545
O57 Ti4 2.037340 1_555
O58 P16 1.543703 1_555
O58 Ti4 1.956872 1_555
O59 P17 1.556832 1_655
O59 Ti4 2.041093 1_555
O60 P11 1.549716 1_555
O60 Ti5 1.953197 1_555
O61 P9 1.548027 1_455
O61 Ti5 1.952040 1_555
O62 P10 1.550625 1_565
O62 Ti5 1.941837 1_555
O63 P7 1.544035 1_565
O63 Ti6 1.957117 1_555
O64 P8 1.543847 1_555
O64 Ti6 1.973105 1_555
O65 P6 1.549723 1_455
O65 Ti6 1.957127 1_555
O66 P0 1.551859 1_565
O66 Ti7 1.928142 1_555
O67 P1 1.571929 1_555
O67 Ti7 1.983646 1_555
O68 P2 1.572458 1_455
O68 Ti7 2.001037 1_555
O69 P3 1.556393 1_555
O69 Ti8 2.041013 1_555
O70 P4 1.542167 1_555
O70 Ti8 1.967035 1_555
O71 P5 1.558230 1_565
O71 Ti8 2.039958 1_555
