# generated using pymatgen
data_Na10Mg2Si7Sn6S5O48
_symmetry_space_group_name_H-M   'P 1'
_cell_length_a   18.00688225
_cell_length_b   9.04808461
_cell_length_c   22.51205524
_cell_angle_alpha   90.11270793
_cell_angle_beta   89.65507636
_cell_angle_gamma   120.15231041
_symmetry_Int_Tables_number   1
_chemical_formula_structural   Na10Mg2Si7Sn6S5O48
_chemical_formula_sum   'Na30 Mg6 Si21 Sn18 S15 O144'
_cell_volume   3171.49598964
_cell_formula_units_Z   3
loop_
 _symmetry_equiv_pos_site_id
 _symmetry_equiv_pos_as_xyz
  1  'x, y, z'
loop_
 _atom_site_type_symbol
 _atom_site_label
 _atom_site_symmetry_multiplicity
 _atom_site_fract_x
 _atom_site_fract_y
 _atom_site_fract_z
 _atom_site_occupancy
  Na  Na0  1  0.81812002  0.01194066  0.24819286  1
  Na  Na1  1  0.18697178  0.37540407  0.24567459  1
  Na  Na2  1  0.69064327  0.35923048  0.25737493  1
  Na  Na3  1  0.99061765  0.61185929  0.25682603  1
  Na  Na4  1  0.49452511  0.63486546  0.24212794  1
  Na  Na5  1  0.31913690  0.62482023  0.74854248  1
  Na  Na6  1  0.99457333  0.35392844  0.74456387  1
  Na  Na7  1  0.49122060  0.37325723  0.75594832  1
  Na  Na8  1  0.19258450  0.02484970  0.74919589  1
  Na  Na9  1  0.68715682  0.99754674  0.74674746  1
  Na  Na10  1  0.14843207  0.32721702  0.57924636  1
  Na  Na11  1  0.01501087  0.69105601  0.58374583  1
  Na  Na12  1  0.48784563  0.66512676  0.91937974  1
  Na  Na13  1  0.99280935  0.67237459  0.92216831  1
  Na  Na14  1  0.84874990  0.03116475  0.91261428  1
  Na  Na15  1  0.49384093  0.31576967  0.42202682  1
  Na  Na16  1  0.16401372  0.02334269  0.42140512  1
  Na  Na17  1  0.34846080  0.66459722  0.41250554  1
  Na  Na18  1  0.99267161  0.00397500  0.49879186  1
  Na  Na19  1  0.51626569  0.00989460  0.49506612  1
  Na  Na20  1  0.01444876  0.02209629  0.99498961  1
  Na  Na21  1  0.50430639  0.01648035  0.99957239  1
  Na  Na22  1  0.32622000  0.31040426  0.83081649  1
  Na  Na23  1  0.83003140  0.33340358  0.83396168  1
  Na  Na24  1  0.33694604  0.34113540  0.33214980  1
  Na  Na25  1  0.83151957  0.34026955  0.33183349  1
  Na  Na26  1  0.17950549  0.67403087  0.16365903  1
  Na  Na27  1  0.66106148  0.67286293  0.16323605  1
  Na  Na28  1  0.17258483  0.68035654  0.66436547  1
  Na  Na29  1  0.67668540  0.68295901  0.66365227  1
  Mg  Mg0  1  0.33108493  0.32379331  0.68978192  1
  Mg  Mg1  1  0.83695148  0.32731835  0.68204030  1
  Mg  Mg2  1  0.33944168  0.34872357  0.18106482  1
  Mg  Mg3  1  0.83389230  0.33426224  0.18986608  1
  Mg  Mg4  1  0.16305850  0.67246457  0.01621935  1
  Mg  Mg5  1  0.66183384  0.65329475  0.51606150  1
  Si  Si0  1  0.64617176  0.99551460  0.24984446  1
  Si  Si1  1  0.35036268  0.70265547  0.25167795  1
  Si  Si2  1  0.85231345  0.71028097  0.24939224  1
  Si  Si3  1  0.00276699  0.29631884  0.24993193  1
  Si  Si4  1  0.14716392  0.30033374  0.75014466  1
  Si  Si5  1  0.50298251  0.70924568  0.75084984  1
  Si  Si6  1  0.35295644  0.99584175  0.75014543  1
  Si  Si7  1  0.85126530  0.99712585  0.75083262  1
  Si  Si8  1  0.97763840  0.33343855  0.58297856  1
  Si  Si9  1  0.18624957  0.03566480  0.58838897  1
  Si  Si10  1  0.48274982  0.62787867  0.08271778  1
  Si  Si11  1  0.80976206  0.66731925  0.91808745  1
  Si  Si12  1  0.02390004  0.38027416  0.92173388  1
  Si  Si13  1  0.51940159  0.36633268  0.91427303  1
  Si  Si14  1  0.16875718  0.96510932  0.91772260  1
  Si  Si15  1  0.66466578  0.96443571  0.91665082  1
  Si  Si16  1  0.31179598  0.95420589  0.41612735  1
  Si  Si17  1  0.16452172  0.36829621  0.41865639  1
  Si  Si18  1  0.66836983  0.37214706  0.41716896  1
  Si  Si19  1  0.01567727  0.66558357  0.41307608  1
  Si  Si20  1  0.52277198  0.66685271  0.42182502  1
  Sn  Sn0  1  0.99480164  0.99783243  0.35421197  1
  Sn  Sn1  1  0.50401706  0.99161545  0.35494730  1
  Sn  Sn2  1  0.00251631  0.01446298  0.85562753  1
  Sn  Sn3  1  0.49947702  0.00216386  0.85321311  1
  Sn  Sn4  1  0.99862290  0.01864893  0.64652615  1
  Sn  Sn5  1  0.49884264  0.99162255  0.64984782  1
  Sn  Sn6  1  0.99772245  0.00835843  0.14888499  1
  Sn  Sn7  1  0.49434319  0.96680065  0.14587728  1
  Sn  Sn8  1  0.33568016  0.32175677  0.98165813  1
  Sn  Sn9  1  0.83167820  0.33818253  0.98059080  1
  Sn  Sn10  1  0.33084067  0.32515546  0.48217932  1
  Sn  Sn11  1  0.83352420  0.33876247  0.47846314  1
  Sn  Sn12  1  0.65918008  0.65958401  0.01453151  1
  Sn  Sn13  1  0.16262102  0.66869675  0.51505755  1
  Sn  Sn14  1  0.16765882  0.66275166  0.31738888  1
  Sn  Sn15  1  0.66612914  0.66275519  0.31923182  1
  Sn  Sn16  1  0.16687043  0.67149545  0.81973576  1
  Sn  Sn17  1  0.66994851  0.67675223  0.81734511  1
  S  S0  1  0.14842685  0.00103738  0.24749832  1
  S  S1  1  0.49728364  0.28384670  0.24821116  1
  S  S2  1  0.64894806  0.29644983  0.74716185  1
  S  S3  1  0.99613871  0.70484619  0.74931321  1
  S  S4  1  0.48365200  0.32848660  0.58715185  1
  S  S5  1  0.68282533  0.03837662  0.58557208  1
  S  S6  1  0.33885811  0.63324074  0.58381981  1
  S  S7  1  0.82968716  0.62393574  0.58592877  1
  S  S8  1  0.98178943  0.63630494  0.08701048  1
  S  S9  1  0.33459686  0.03664550  0.08662266  1
  S  S10  1  0.83574604  0.04197673  0.08350302  1
  S  S11  1  0.18315351  0.32655487  0.08576983  1
  S  S12  1  0.68579401  0.33253840  0.08689539  1
  S  S13  1  0.31243536  0.66311925  0.91976391  1
  S  S14  1  0.81160175  0.96012017  0.41964164  1
  O  O0  1  0.11276850  0.03449522  0.30303992  1
  O  O1  1  0.60680443  0.05208285  0.30517960  1
  O  O2  1  0.41129212  0.78703076  0.31030273  1
  O  O3  1  0.91869797  0.79489245  0.30516512  1
  O  O4  1  0.48813787  0.19348291  0.30520528  1
  O  O5  1  0.98268358  0.16908481  0.30704495  1
  O  O6  1  0.10148671  0.15692616  0.80226386  1
  O  O7  1  0.61200256  0.18471087  0.80072384  1
  O  O8  1  0.48489485  0.79119005  0.81123835  1
  O  O9  1  0.98779816  0.78356530  0.80478032  1
  O  O10  1  0.41882184  0.03649559  0.80523931  1
  O  O11  1  0.91067235  0.03455563  0.81019362  1
  O  O12  1  0.39218873  0.94358892  0.69178635  1
  O  O13  1  0.89486932  0.96139221  0.69236135  1
  O  O14  1  0.08818386  0.23088621  0.68885627  1
  O  O15  1  0.59138445  0.21827138  0.69415437  1
  O  O16  1  0.00878817  0.81113268  0.69539593  1
  O  O17  1  0.53479096  0.85239213  0.69617300  1
  O  O18  1  0.39055154  0.82301456  0.19264554  1
  O  O19  1  0.89210429  0.84369636  0.19193415  1
  O  O20  1  0.03493100  0.22270489  0.19350117  1
  O  O21  1  0.51177104  0.19839641  0.19672695  1
  O  O22  1  0.08914344  0.96604285  0.19582186  1
  O  O23  1  0.58146475  0.94355072  0.19245976  1
  O  O24  1  0.43764402  0.33743147  0.63971868  1
  O  O25  1  0.94325943  0.37328113  0.64346393  1
  O  O26  1  0.23747578  0.12735828  0.64689873  1
  O  O27  1  0.72845505  0.12583845  0.64044498  1
  O  O28  1  0.33514236  0.53572293  0.63640458  1
  O  O29  1  0.81917475  0.51713671  0.63771995  1
  O  O30  1  0.44193829  0.53406057  0.14455074  1
  O  O31  1  0.93419523  0.53417275  0.13914714  1
  O  O32  1  0.32417611  0.12623066  0.13738779  1
  O  O33  1  0.83242371  0.13103236  0.13674019  1
  O  O34  1  0.22817174  0.32998479  0.14096926  1
  O  O35  1  0.73458689  0.34220192  0.13990009  1
  O  O36  1  0.22676384  0.30721437  0.03202787  1
  O  O37  1  0.72469347  0.30254400  0.03175286  1
  O  O38  1  0.42463102  0.53274450  0.02249436  1
  O  O39  1  0.93090572  0.55864192  0.03060635  1
  O  O40  1  0.34497497  0.13217412  0.02943040  1
  O  O41  1  0.84240406  0.13918666  0.02758508  1
  O  O42  1  0.22426101  0.15937522  0.52760214  1
  O  O43  1  0.72476239  0.14389104  0.53150422  1
  O  O44  1  0.34709102  0.55420293  0.52725345  1
  O  O45  1  0.84414603  0.54809820  0.53011238  1
  O  O46  1  0.43304524  0.30449858  0.53078208  1
  O  O47  1  0.91768979  0.31132470  0.52532844  1
  O  O48  1  0.26773739  0.68020453  0.97050407  1
  O  O49  1  0.77058216  0.71796090  0.97569097  1
  O  O50  1  0.08210877  0.46889600  0.97689869  1
  O  O51  1  0.57877224  0.44746523  0.97264981  1
  O  O52  1  0.15161435  0.84020382  0.97193506  1
  O  O53  1  0.64108947  0.83098205  0.97102864  1
  O  O54  1  0.27329011  0.82354019  0.47289135  1
  O  O55  1  0.76685006  0.85500201  0.47071151  1
  O  O56  1  0.15340536  0.45285535  0.47958029  1
  O  O57  1  0.65206233  0.46464018  0.47124127  1
  O  O58  1  0.07736745  0.71072215  0.47198250  1
  O  O59  1  0.58119181  0.69587504  0.47703645  1
  O  O60  1  0.05938241  0.64496955  0.35195839  1
  O  O61  1  0.55532800  0.62029098  0.35763160  1
  O  O62  1  0.24527363  0.88219826  0.36015369  1
  O  O63  1  0.76832326  0.88693085  0.36095053  1
  O  O64  1  0.18628057  0.48788953  0.35961020  1
  O  O65  1  0.68446018  0.47652321  0.35230798  1
  O  O66  1  0.05628182  0.49144810  0.85776512  1
  O  O67  1  0.55972534  0.48472135  0.85395638  1
  O  O68  1  0.18524185  0.89417943  0.85261662  1
  O  O69  1  0.68896700  0.89732168  0.85561319  1
  O  O70  1  0.26812969  0.64710360  0.86132651  1
  O  O71  1  0.75062078  0.62273840  0.85912730  1
  O  O72  1  0.01087902  0.84313654  0.41116057  1
  O  O73  1  0.50112773  0.82164401  0.41525314  1
  O  O74  1  0.40754335  0.98213746  0.40763409  1
  O  O75  1  0.89901009  0.97843576  0.41740690  1
  O  O76  1  0.08253940  0.17440323  0.41196482  1
  O  O77  1  0.57721088  0.18827135  0.41074219  1
  O  O78  1  0.00254310  0.18235673  0.91534442  1
  O  O79  1  0.50562980  0.17449928  0.91141202  1
  O  O80  1  0.07783853  0.96771923  0.91052069  1
  O  O81  1  0.57697598  0.97460518  0.91132608  1
  O  O82  1  0.40096021  0.81688725  0.91686360  1
  O  O83  1  0.90604585  0.83521678  0.91034134  1
  O  O84  1  0.49195660  0.16831612  0.58844067  1
  O  O85  1  0.99065560  0.16472530  0.58095553  1
  O  O86  1  0.08473041  0.00138773  0.58980976  1
  O  O87  1  0.59402970  0.02445397  0.58512358  1
  O  O88  1  0.41659966  0.81018946  0.58305680  1
  O  O89  1  0.91394010  0.79181803  0.58944059  1
  O  O90  1  0.49281640  0.82219875  0.07776239  1
  O  O91  1  0.99052124  0.81286810  0.08865893  1
  O  O92  1  0.41813945  0.03484804  0.08932059  1
  O  O93  1  0.91687669  0.02989147  0.08215969  1
  O  O94  1  0.09467730  0.16169615  0.08444452  1
  O  O95  1  0.59606594  0.18411376  0.08902155  1
  O  O96  1  0.34426476  0.16364865  0.74616597  1
  O  O97  1  0.83955884  0.16521760  0.74507062  1
  O  O98  1  0.24307119  0.33222504  0.74489217  1
  O  O99  1  0.73376118  0.31424774  0.73862200  1
  O  O100  1  0.41873958  0.52694617  0.74043684  1
  O  O101  1  0.92081250  0.53209774  0.74520738  1
  O  O102  1  0.33861187  0.51083170  0.24674041  1
  O  O103  1  0.84078079  0.52282278  0.24203577  1
  O  O104  1  0.42214203  0.30656468  0.24274320  1
  O  O105  1  0.91834061  0.31118421  0.24117659  1
  O  O106  1  0.23302573  0.15346057  0.23845696  1
  O  O107  1  0.74126065  0.15641231  0.24117286  1
  O  O108  1  0.32290734  0.50981007  0.92175050  1
  O  O109  1  0.82721066  0.50729978  0.92643249  1
  O  O110  1  0.42683892  0.36367134  0.91907313  1
  O  O111  1  0.92551172  0.36003869  0.92533983  1
  O  O112  1  0.25039372  0.16291813  0.92298495  1
  O  O113  1  0.75224839  0.14869364  0.92590327  1
  O  O114  1  0.32226243  0.14345087  0.42558866  1
  O  O115  1  0.82075201  0.13233787  0.42082678  1
  O  O116  1  0.25219325  0.35260022  0.42237334  1
  O  O117  1  0.74850966  0.33357831  0.42150498  1
  O  O118  1  0.42506394  0.48858348  0.42605357  1
  O  O119  1  0.92233689  0.49364606  0.41838534  1
  O  O120  1  0.17393355  0.47780352  0.08231845  1
  O  O121  1  0.68428184  0.49491470  0.08113314  1
  O  O122  1  0.06683190  0.65349090  0.08361543  1
  O  O123  1  0.57990990  0.64671335  0.07954433  1
  O  O124  1  0.26121362  0.86143110  0.08163005  1
  O  O125  1  0.75912197  0.86903610  0.08135554  1
  O  O126  1  0.17493061  0.84435817  0.57909739  1
  O  O127  1  0.67421100  0.86907973  0.58220602  1
  O  O128  1  0.25828241  0.64127707  0.58212390  1
  O  O129  1  0.75746340  0.65403501  0.57979264  1
  O  O130  1  0.07715377  0.50225827  0.57698319  1
  O  O131  1  0.56921289  0.48072115  0.58330380  1
  O  O132  1  0.15238242  0.84193451  0.25132996  1
  O  O133  1  0.64937534  0.81652865  0.25899035  1
  O  O134  1  0.25505672  0.68559537  0.25521194  1
  O  O135  1  0.75764455  0.69912621  0.25569260  1
  O  O136  1  0.08732125  0.48923880  0.25495471  1
  O  O137  1  0.57788923  0.45901653  0.24973131  1
  O  O138  1  0.14902438  0.48438151  0.75947791  1
  O  O139  1  0.65195283  0.46160533  0.75321446  1
  O  O140  1  0.07711010  0.69332542  0.75072415  1
  O  O141  1  0.58790229  0.68519457  0.75451666  1
  O  O142  1  0.25793678  0.81798968  0.75561744  1
  O  O143  1  0.75605496  0.82300336  0.75299043  1
loop_
_geom_bond_atom_site_label_1
_geom_bond_atom_site_label_2
_geom_bond_distance
_geom_bond_site_symmetry_2
Na0 O107 2.338823 1_555
Na0 O105 2.387938 1_555
Na0 O135 2.475612 1_545
Na0 O133 2.648346 1_545
Na0 O33 2.691974 1_555
Na0 O63 2.737138 1_545
Na0 O19 2.775909 1_545
Na0 O5 2.892251 1_555
Na1 O102 2.365887 1_555
Na1 O134 2.443444 1_555
Na1 O136 2.485099 1_555
Na1 O106 2.533168 1_555
Na1 O34 2.560619 1_555
Na1 O20 2.648810 1_555
Na1 O64 2.759880 1_555
Na1 O0 2.970202 1_555
Na2 O103 2.364280 1_555
Na2 O65 2.411011 1_555
Na2 O107 2.450540 1_555
Na2 O137 2.610269 1_555
Na2 O1 2.634015 1_555
Na2 O135 2.680964 1_555
Na2 O35 2.781990 1_555
Na3 O105 2.379918 1_555
Na3 O103 2.421928 1_555
Na3 O60 2.422041 1_655
Na3 O136 2.490933 1_655
Na3 O132 2.595907 1_655
Na3 O3 2.781108 1_555
Na3 O31 2.802177 1_555
Na4 O30 2.388182 1_555
Na4 O102 2.446234 1_555
Na4 O133 2.454958 1_555
Na4 O104 2.575513 1_555
Na4 O23 2.664687 1_555
Na4 O137 2.686608 1_555
Na4 O61 2.856216 1_555
Na4 O2 2.921362 1_555
Na5 O98 2.291142 1_555
Na5 O100 2.371779 1_555
Na5 O142 2.495288 1_555
Na5 O138 2.672133 1_555
Na5 O28 2.706007 1_555
Na5 O70 2.736188 1_555
Na5 O12 2.804376 1_555
Na5 O8 2.948838 1_555
Na6 O97 2.432849 1_555
Na6 O138 2.439823 1_655
Na6 O25 2.500780 1_555
Na6 O101 2.552230 1_555
Na6 O140 2.659746 1_655
Na6 O14 2.740043 1_655
Na6 O66 2.812456 1_655
Na6 O11 2.901707 1_555
Na7 O100 2.364276 1_555
Na7 O96 2.368854 1_555
Na7 O141 2.461998 1_555
Na7 O67 2.486172 1_555
Na7 O139 2.587172 1_555
Na7 O24 2.755927 1_555
Na7 O10 2.867163 1_555
Na8 O96 2.365157 1_555
Na8 O98 2.455748 1_555
Na8 O26 2.459660 1_555
Na8 O68 2.585732 1_545
Na8 O140 2.656375 1_545
Na8 O142 2.669228 1_545
Na8 O6 2.736121 1_555
Na9 O97 2.377096 1_565
Na9 O143 2.454463 1_555
Na9 O141 2.477104 1_555
Na9 O99 2.556054 1_565
Na9 O27 2.598005 1_565
Na9 O69 2.620918 1_555
Na9 O17 2.638271 1_555
Na9 O7 2.906924 1_565
Na10 O85 2.457105 1_455
Na10 O130 2.490302 1_555
Na10 O56 2.497956 1_555
Na10 O128 2.519101 1_555
Na10 O86 2.581860 1_555
Na10 O14 2.655510 1_555
Na10 O42 2.753091 1_555
Na11 O89 2.413206 1_455
Na11 O86 2.436861 1_565
Na11 O130 2.471992 1_555
Na11 O126 2.492310 1_555
Na11 O58 2.718427 1_555
Na11 O16 2.760194 1_555
Na11 O25 2.829500 1_455
Na11 O45 2.939015 1_455
Na12 O110 2.374125 1_555
Na12 O81 2.435866 1_555
Na12 O82 2.548742 1_555
Na12 O108 2.569857 1_555
Na12 O38 2.593914 1_556
Na12 O53 2.662736 1_555
Na12 O8 2.702582 1_555
Na12 O67 2.932409 1_555
Na13 O80 2.332759 1_655
Na13 O111 2.453459 1_555
Na13 O109 2.579674 1_555
Na13 O83 2.646099 1_555
Na13 O39 2.661868 1_556
Na13 O52 2.721741 1_655
Na13 O66 2.817557 1_655
Na13 O9 2.847527 1_555
Na14 O78 2.395884 1_655
Na14 O83 2.459075 1_545
Na14 O113 2.467546 1_555
Na14 O11 2.548615 1_555
Na14 O111 2.591662 1_555
Na14 O41 2.786748 1_556
Na14 O69 2.815920 1_545
Na14 O49 2.830739 1_545
Na15 O77 2.320158 1_555
Na15 O118 2.435251 1_555
Na15 O74 2.631000 1_545
Na15 O46 2.656992 1_555
Na15 O114 2.672298 1_555
Na15 O57 2.708485 1_555
Na15 O61 2.801955 1_555
Na15 O4 2.833512 1_555
Na16 O72 2.409323 1_545
Na16 O76 2.466794 1_555
Na16 O114 2.490329 1_555
Na16 O116 2.577795 1_555
Na16 O42 2.661881 1_555
Na16 O58 2.699905 1_545
Na16 O62 2.742157 1_545
Na16 O0 2.843627 1_555
Na17 O73 2.378590 1_555
Na17 O116 2.470877 1_555
Na17 O74 2.515521 1_555
Na17 O2 2.553524 1_555
Na17 O118 2.597292 1_555
Na17 O44 2.766937 1_555
Na17 O54 2.770228 1_555
Na17 O64 2.801156 1_555
Na18 O85 2.362155 1_555
Na18 O75 2.428707 1_545
Na18 O76 2.506826 1_655
Na18 O72 2.564635 1_645
Na18 O86 2.650841 1_655
Na18 O89 2.665677 1_545
Na19 O77 2.370741 1_555
Na19 O73 2.394014 1_545
Na19 O87 2.436440 1_555
Na19 O88 2.668926 1_545
Na19 O84 2.696721 1_555
Na19 O74 2.705636 1_545
Na20 O78 2.385482 1_555
Na20 O80 2.386488 1_545
Na20 O94 2.435120 1_556
Na20 O83 2.648975 1_445
Na20 O93 2.650524 1_456
Na20 O91 2.720558 1_446
Na21 O90 2.423575 1_546
Na21 O79 2.441330 1_555
Na21 O81 2.503256 1_545
Na21 O95 2.568260 1_556
Na21 O92 2.595601 1_556
Na21 O82 2.616034 1_545
Na22 O96 2.432354 1_555
Na22 O112 2.469139 1_555
Na22 O98 2.521057 1_555
Na22 O110 2.573883 1_555
Na22 O100 2.729425 1_555
Na22 O108 2.746202 1_555
Na23 O97 2.568235 1_555
Na23 O113 2.581872 1_555
Na23 O111 2.621100 1_555
Na23 O109 2.622573 1_555
Na23 O101 2.630381 1_555
Na23 O99 2.717207 1_555
Na24 O102 2.453573 1_555
Na24 O116 2.566354 1_555
Na24 O118 2.582461 1_555
Na24 O104 2.635306 1_555
Na24 O114 2.688299 1_555
Na24 O106 2.770419 1_555
Na25 O119 2.478817 1_555
Na25 O117 2.487225 1_555
Na25 O103 2.564187 1_555
Na25 O107 2.623901 1_555
Na25 O105 2.655439 1_555
Na25 O115 2.689719 1_555
Na26 O124 2.433782 1_555
Na26 O134 2.449400 1_555
Na26 O120 2.515144 1_555
Na26 O136 2.638058 1_555
Na26 O122 2.657421 1_555
Na26 O132 2.676532 1_555
Na27 O123 2.329191 1_555
Na27 O125 2.547806 1_555
Na27 O133 2.576637 1_555
Na27 O121 2.615102 1_555
Na27 O137 2.616663 1_555
Na27 O135 2.653257 1_555
Na28 O126 2.415723 1_555
Na28 O142 2.497630 1_555
Na28 O128 2.538758 1_555
Na28 O130 2.581815 1_555
Na28 O140 2.628787 1_555
Na28 O138 2.675279 1_555
Na29 O143 2.428655 1_555
Na29 O129 2.468934 1_555
Na29 O127 2.507644 1_555
Na29 O141 2.594894 1_555
Na29 O131 2.614759 1_555
Na29 O139 2.717322 1_555
Mg0 O26 1.983781 1_555
Mg0 O96 2.030626 1_555
Mg0 O98 2.038185 1_555
Mg0 O100 2.066215 1_555
Mg0 O24 2.168834 1_555
Mg0 O28 2.234625 1_555
Mg1 O25 1.942478 1_555
Mg1 O97 2.060336 1_555
Mg1 O27 2.110549 1_555
Mg1 O29 2.147237 1_555
Mg1 O99 2.200109 1_555
Mg1 O101 2.222661 1_555
Mg2 O30 1.942194 1_555
Mg2 O102 2.085855 1_555
Mg2 O32 2.129463 1_555
Mg2 O34 2.130235 1_555
Mg2 O104 2.211053 1_555
Mg2 O106 2.245157 1_555
Mg3 O107 1.998364 1_555
Mg3 O105 2.007819 1_555
Mg3 O103 2.021583 1_555
Mg3 O31 2.130473 1_555
Mg3 O35 2.149790 1_555
Mg3 O33 2.180657 1_555
Mg4 O50 1.900746 1_554
Mg4 O52 1.913749 1_554
Mg4 O48 2.112193 1_554
Mg4 O122 2.237044 1_555
Mg4 O124 2.280611 1_555
Mg4 O120 2.390627 1_555
Mg5 O59 1.899369 1_555
Mg5 O57 1.912168 1_555
Mg5 O55 2.113306 1_555
Mg5 O131 2.207699 1_555
Mg5 O129 2.245403 1_555
Mg5 O127 2.373683 1_555
O0 S0 1.500480 1_555
O0 Sn0 2.283319 1_445
O1 Si0 1.633290 1_545
O1 Sn1 1.985062 1_545
O2 Si1 1.643278 1_555
O2 Sn1 2.032840 1_555
O3 Si2 1.639023 1_555
O3 Sn0 1.987745 1_555
O4 S1 1.485990 1_555
O4 Sn1 2.282197 1_545
O5 Si3 1.640484 1_655
O5 Sn0 1.981160 1_545
O6 Si4 1.630660 1_555
O6 Sn2 1.988298 1_555
O7 S2 1.496036 1_555
O7 Sn3 2.201531 1_555
O8 Si5 1.654471 1_555
O8 Sn3 2.024385 1_565
O9 S3 1.480126 1_555
O9 Sn2 2.276666 1_665
O10 Si6 1.630307 1_545
O10 Sn3 1.961025 1_555
O11 Si7 1.642044 1_545
O11 Sn2 2.034077 1_655
O12 Si6 1.664496 1_555
O12 Sn5 1.977337 1_555
O13 Si7 1.641528 1_555
O13 Sn4 1.957067 1_565
O14 Si4 1.664405 1_555
O14 Sn4 2.024041 1_455
O15 S2 1.507896 1_555
O15 Sn5 2.134517 1_545
O16 S3 1.493726 1_455
O16 Sn4 2.263880 1_465
O17 Si5 1.665297 1_555
O17 Sn5 1.981450 1_555
O18 Si1 1.636504 1_555
O18 Sn7 1.957830 1_555
O19 Si2 1.664276 1_555
O19 Sn6 1.978107 1_565
O20 Si3 1.663817 1_555
O20 Sn6 1.978416 1_455
O21 S1 1.484793 1_555
O21 Sn7 2.265889 1_545
O22 S0 1.505702 1_565
O22 Sn6 2.151468 1_465
O23 Si0 1.647100 1_555
O23 Sn7 1.989288 1_555
O24 S4 1.465770 1_555
O25 Si8 1.606051 1_555
O26 Si9 1.586082 1_555
O27 S5 1.477326 1_555
O28 S6 1.458844 1_555
O29 S7 1.465270 1_555
O30 Si10 1.601222 1_555
O31 S8 1.470567 1_555
O32 S9 1.464537 1_555
O33 S10 1.460472 1_555
O34 S11 1.479522 1_555
O35 S12 1.462349 1_555
O36 S11 1.495592 1_555
O36 Sn8 2.205479 1_554
O37 S12 1.511449 1_555
O37 Sn9 2.119546 1_554
O38 Si10 1.667861 1_555
O38 Sn8 1.998518 1_554
O39 S8 1.519645 1_555
O39 Sn9 2.207749 1_554
O40 S9 1.509613 1_555
O40 Sn8 2.103548 1_554
O41 S10 1.506405 1_555
O41 Sn9 2.181228 1_554
O42 Si9 1.679021 1_555
O42 Sn10 2.017235 1_555
O43 S5 1.494149 1_555
O43 Sn11 2.209374 1_555
O44 S6 1.501888 1_555
O44 Sn10 2.190058 1_555
O45 S7 1.513168 1_555
O45 Sn11 2.146198 1_555
O46 S4 1.517242 1_555
O46 Sn10 2.233769 1_555
O47 Si8 1.639674 1_555
O47 Sn11 1.967210 1_555
O48 S13 1.445586 1_555
O49 Si11 1.643388 1_555
O49 Sn12 1.995956 1_556
O50 Si12 1.565655 1_555
O51 Si13 1.622838 1_555
O51 Sn12 1.971440 1_556
O52 Si14 1.585061 1_555
O53 Si15 1.619080 1_555
O53 Sn12 1.996899 1_556
O54 Si16 1.638062 1_555
O54 Sn13 2.003214 1_555
O55 S14 1.448778 1_555
O56 Si17 1.628784 1_555
O56 Sn13 2.036985 1_555
O57 Si18 1.583333 1_555
O58 Si19 1.648990 1_555
O58 Sn13 2.011818 1_555
O59 Si20 1.567603 1_555
O60 Si19 1.637261 1_555
O60 Sn14 2.024851 1_555
O61 Si20 1.686732 1_555
O61 Sn15 2.021409 1_555
O62 Si16 1.636483 1_555
O62 Sn14 2.010844 1_555
O63 S14 1.510658 1_555
O63 Sn15 2.155499 1_555
O64 Si17 1.632424 1_555
O64 Sn14 2.015403 1_555
O65 Si18 1.683253 1_555
O65 Sn15 2.017284 1_555
O66 Si12 1.682855 1_555
O66 Sn16 2.019481 1_555
O67 Si13 1.652548 1_555
O67 Sn17 2.039382 1_555
O68 Si14 1.682445 1_555
O68 Sn16 2.011095 1_555
O69 Si15 1.644619 1_555
O69 Sn17 2.037786 1_555
O70 S13 1.511258 1_555
O70 Sn16 2.162323 1_555
O71 Si11 1.625409 1_555
O71 Sn17 1.991297 1_555
O72 Si19 1.652263 1_555
O72 Sn0 2.026127 1_455
O73 Si20 1.638675 1_555
O73 Sn1 2.034201 1_555
O74 Si16 1.622183 1_555
O74 Sn1 2.063473 1_555
O75 S14 1.498119 1_555
O75 Sn0 2.167337 1_555
O76 Si17 1.636957 1_555
O76 Sn0 2.054186 1_445
O77 Si18 1.655825 1_555
O77 Sn1 2.033733 1_545
O78 Si12 1.638066 1_555
O78 Sn2 2.026383 1_555
O79 Si13 1.626567 1_555
O79 Sn3 1.995101 1_555
O80 Si14 1.658068 1_555
O80 Sn2 2.035705 1_565
O81 Si15 1.632306 1_555
O81 Sn3 2.023358 1_565
O82 S13 1.500697 1_555
O82 Sn3 2.236469 1_565
O83 Si11 1.641833 1_555
O83 Sn2 2.077716 1_665
O84 S4 1.530171 1_555
O84 Sn5 2.166167 1_545
O85 Si8 1.657220 1_555
O85 Sn4 2.036463 1_555
O86 Si9 1.693732 1_555
O86 Sn4 2.068190 1_455
O87 S5 1.539609 1_555
O87 Sn5 2.146930 1_545
O88 S6 1.507165 1_555
O88 Sn5 2.173407 1_555
O89 S7 1.516960 1_555
O89 Sn4 2.249051 1_565
O90 Si10 1.678395 1_555
O90 Sn7 2.005094 1_555
O91 S8 1.525052 1_555
O91 Sn6 2.178532 1_565
O92 S9 1.514160 1_555
O92 Sn7 2.180806 1_545
O93 S10 1.518904 1_555
O93 Sn6 2.173948 1_555
O94 S11 1.541797 1_555
O94 Sn6 2.149762 1_455
O95 S12 1.495286 1_555
O95 Sn7 2.285407 1_545
O96 Si6 1.605391 1_545
O97 Si7 1.642439 1_545
O98 Si4 1.605240 1_555
O99 S2 1.464517 1_555
O100 Si5 1.601847 1_555
O101 S3 1.470555 1_555
O102 Si1 1.643213 1_555
O103 Si2 1.610246 1_555
O104 S1 1.472992 1_555
O105 Si3 1.605381 1_655
O106 S0 1.466581 1_555
O107 Si0 1.606929 1_545
O108 S13 1.491602 1_555
O108 Sn8 2.274385 1_555
O109 Si11 1.639855 1_555
O109 Sn9 1.991636 1_555
O110 Si13 1.657674 1_555
O110 Sn8 2.042600 1_555
O111 Si12 1.688601 1_655
O111 Sn9 2.020168 1_555
O112 Si14 1.654229 1_545
O112 Sn8 1.992063 1_555
O113 Si15 1.634408 1_545
O113 Sn9 2.012539 1_555
O114 Si16 1.639427 1_545
O114 Sn10 2.022094 1_555
O115 S14 1.482543 1_545
O115 Sn11 2.188021 1_555
O116 Si17 1.657199 1_555
O116 Sn10 2.063373 1_555
O117 Si18 1.649696 1_555
O117 Sn11 1.985222 1_555
O118 Si20 1.689368 1_555
O118 Sn10 2.030475 1_555
O119 Si19 1.622033 1_655
O119 Sn11 2.020051 1_555
O120 S11 1.461248 1_555
O121 S12 1.488987 1_555
O121 Sn12 2.316411 1_555
O122 S8 1.460983 1_455
O123 Si10 1.671553 1_555
O123 Sn12 2.000406 1_555
O124 S9 1.472632 1_565
O125 S10 1.478569 1_565
O125 Sn12 2.385045 1_555
O126 Si9 1.651114 1_565
O126 Sn13 2.072351 1_555
O127 S5 1.461928 1_565
O128 S6 1.489486 1_555
O128 Sn13 2.402163 1_555
O129 S7 1.463811 1_555
O130 Si8 1.676507 1_455
O130 Sn13 2.057657 1_555
O131 S4 1.464733 1_555
O132 S0 1.479346 1_565
O132 Sn14 2.319080 1_555
O133 Si0 1.662451 1_555
O133 Sn15 2.073664 1_555
O134 Si1 1.645494 1_555
O134 Sn14 2.031387 1_555
O135 Si2 1.661499 1_555
O135 Sn15 2.073308 1_555
O136 Si3 1.645993 1_555
O136 Sn14 2.065720 1_555
O137 S1 1.519631 1_555
O137 Sn15 2.333871 1_555
O138 Si4 1.661652 1_555
O138 Sn16 2.063835 1_555
O139 S2 1.473978 1_555
O139 Sn17 2.310777 1_555
O140 S3 1.513612 1_455
O140 Sn16 2.327502 1_555
O141 Si5 1.651765 1_555
O141 Sn17 2.080388 1_555
O142 Si6 1.662678 1_555
O142 Sn16 2.079641 1_555
O143 Si7 1.646087 1_555
O143 Sn17 2.042879 1_555
