# generated using pymatgen
data_LaYbO3
_symmetry_space_group_name_H-M   'P 1'
_cell_length_a   5.92694100
_cell_length_b   6.13268300
_cell_length_c   8.46153000
_cell_angle_alpha   90.00000000
_cell_angle_beta   90.00000000
_cell_angle_gamma   90.00000000
_symmetry_Int_Tables_number   1
_chemical_formula_structural   LaYbO3
_chemical_formula_sum   'La4 Yb4 O12'
_cell_volume   307.56011816
_cell_formula_units_Z   4
loop_
 _symmetry_equiv_pos_site_id
 _symmetry_equiv_pos_as_xyz
  1  'x, y, z'
loop_
 _atom_site_type_symbol
 _atom_site_label
 _atom_site_symmetry_multiplicity
 _atom_site_fract_x
 _atom_site_fract_y
 _atom_site_fract_z
 _atom_site_occupancy
  La  La0  1  0.51168900  0.94509100  0.48226400  1
  La  La1  1  0.48831100  0.05490900  0.98226400  1
  La  La2  1  0.98831100  0.44509100  0.48226400  1
  La  La3  1  0.01168900  0.55490900  0.98226400  1
  Yb  Yb0  1  0.99904300  0.99438900  0.73982500  1
  Yb  Yb1  1  0.00095700  0.00561100  0.23982500  1
  Yb  Yb2  1  0.50095700  0.49438900  0.73982500  1
  Yb  Yb3  1  0.49904300  0.50561100  0.23982500  1
  O  O0  1  0.36193200  0.57942200  0.49217700  1
  O  O1  1  0.63806800  0.42057800  0.99217700  1
  O  O2  1  0.13806800  0.07942200  0.49217700  1
  O  O3  1  0.86193200  0.92057800  0.99217700  1
  O  O4  1  0.30291300  0.79512200  0.82459900  1
  O  O5  1  0.69708700  0.20487800  0.32459900  1
  O  O6  1  0.19708700  0.29512200  0.82459900  1
  O  O7  1  0.80291300  0.70487800  0.32459900  1
  O  O8  1  0.83483300  0.66105100  0.68493400  1
  O  O9  1  0.16516700  0.33894900  0.18493400  1
  O  O10  1  0.66516700  0.16105100  0.68493400  1
  O  O11  1  0.33483300  0.83894900  0.18493400  1
loop_
_geom_bond_atom_site_label_1
_geom_bond_atom_site_label_2
_geom_bond_distance
_geom_bond_site_symmetry_2
La0 O10 2.349983 1_565
La0 O5 2.350639 1_565
La0 O2 2.364190 1_565
La0 O0 2.413259 1_555
La0 O7 2.632350 1_555
La0 O11 2.802152 1_555
La0 O8 3.105381 1_555
La0 O4 3.281430 1_555
La1 O11 2.349983 1_546
La1 O4 2.350639 1_545
La1 O3 2.364190 1_545
La1 O1 2.413259 1_555
La1 O6 2.632350 1_555
La1 O10 2.802152 1_555
La1 O9 3.105381 1_556
La1 O5 3.281430 1_556
La2 O8 2.349983 1_555
La2 O7 2.350639 1_555
La2 O0 2.364190 1_655
La2 O2 2.413259 1_655
La2 O5 2.632350 1_555
La2 O9 2.802152 1_655
La2 O10 3.105381 1_555
La2 O6 3.281430 1_655
La3 O9 2.349983 1_556
La3 O6 2.350639 1_555
La3 O1 2.364190 1_455
La3 O3 2.413259 1_455
La3 O4 2.632350 1_555
La3 O8 2.802152 1_455
La3 O11 3.105381 1_556
La3 O7 3.281430 1_456
O0 Yb2 2.311265 1_555
O0 Yb3 2.329106 1_555
O1 Yb3 2.311265 1_556
O1 Yb2 2.329106 1_555
O2 Yb0 2.311265 1_445
O2 Yb1 2.329106 1_555
O3 Yb1 2.311265 1_666
O3 Yb0 2.329106 1_555
O4 Yb0 2.291637 1_455
O4 Yb2 2.300822 1_555
O5 Yb1 2.291637 1_655
O5 Yb3 2.300822 1_555
O6 Yb2 2.291637 1_555
O6 Yb0 2.300822 1_445
O7 Yb3 2.291637 1_555
O7 Yb1 2.300822 1_665
O8 Yb2 2.275145 1_555
O8 Yb0 2.311266 1_555
O9 Yb3 2.275145 1_555
O9 Yb1 2.311266 1_555
O10 Yb0 2.275145 1_545
O10 Yb2 2.311266 1_555
O11 Yb1 2.275145 1_565
O11 Yb3 2.311266 1_555
