# generated using pymatgen
data_V3As
_symmetry_space_group_name_H-M   'P 1'
_cell_length_a   4.71085568
_cell_length_b   4.71085568
_cell_length_c   4.71085568
_cell_angle_alpha   90.00000000
_cell_angle_beta   90.00000000
_cell_angle_gamma   90.00000000
_symmetry_Int_Tables_number   1
_chemical_formula_structural   V3As
_chemical_formula_sum   'V6 As2'
_cell_volume   104.54406882
_cell_formula_units_Z   2
loop_
 _symmetry_equiv_pos_site_id
 _symmetry_equiv_pos_as_xyz
  1  'x, y, z'
loop_
 _atom_site_type_symbol
 _atom_site_label
 _atom_site_symmetry_multiplicity
 _atom_site_fract_x
 _atom_site_fract_y
 _atom_site_fract_z
 _atom_site_occupancy
  V  V0  1  0.50000000  0.25000000  -0.00000000  1
  V  V1  1  0.50000000  0.75000000  -0.00000000  1
  V  V2  1  0.25000000  0.00000000  0.50000000  1
  V  V3  1  0.75000000  0.00000000  0.50000000  1
  V  V4  1  -0.00000000  0.50000000  0.25000000  1
  V  V5  1  -0.00000000  0.50000000  0.75000000  1
  As  As0  1  0.50000000  0.50000000  0.50000000  1
  As  As1  1  -0.00000000  0.00000000  -0.00000000  1
loop_
_geom_bond_atom_site_label_1
_geom_bond_atom_site_label_2
_geom_bond_distance
_geom_bond_site_symmetry_2
V0 V1 2.355428 1_545
V0 V1 2.355428 1_555
V2 V3 2.355428 1_455
V2 V3 2.355428 1_555
V4 V5 2.355428 1_554
V4 V5 2.355428 1_555
As0 V2 2.633448 1_565
As0 V4 2.633448 1_555
As0 V0 2.633448 1_556
As0 V4 2.633448 1_655
As0 V5 2.633448 1_655
As0 V1 2.633448 1_556
As0 V2 2.633448 1_555
As0 V3 2.633448 1_565
As0 V0 2.633448 1_555
As0 V5 2.633448 1_555
As0 V1 2.633448 1_555
As0 V3 2.633448 1_555
As1 V1 2.633448 1_545
As1 V4 2.633448 1_555
As1 V5 2.633448 1_544
As1 V3 2.633448 1_454
As1 V2 2.633448 1_555
As1 V2 2.633448 1_554
As1 V0 2.633448 1_555
As1 V3 2.633448 1_455
As1 V4 2.633448 1_545
As1 V0 2.633448 1_455
As1 V5 2.633448 1_554
As1 V1 2.633448 1_445
