# generated using pymatgen
data_Tl2Pt5S6
_symmetry_space_group_name_H-M   'P 1'
_cell_length_a   7.01398207
_cell_length_b   7.01098077
_cell_length_c   12.40200921
_cell_angle_alpha   63.73814361
_cell_angle_beta   90.00000000
_cell_angle_gamma   90.00000000
_symmetry_Int_Tables_number   1
_chemical_formula_structural   Tl2Pt5S6
_chemical_formula_sum   'Tl4 Pt10 S12'
_cell_volume   546.91769057
_cell_formula_units_Z   2
loop_
 _symmetry_equiv_pos_site_id
 _symmetry_equiv_pos_as_xyz
  1  'x, y, z'
loop_
 _atom_site_type_symbol
 _atom_site_label
 _atom_site_symmetry_multiplicity
 _atom_site_fract_x
 _atom_site_fract_y
 _atom_site_fract_z
 _atom_site_occupancy
  Tl  Tl0  1  0.21181281  0.66274722  0.45407066  1
  Tl  Tl1  1  0.71181281  0.33725278  0.04592934  1
  Tl  Tl2  1  0.78818719  0.33725278  0.54592934  1
  Tl  Tl3  1  0.28818719  0.66274722  0.95407066  1
  Pt  Pt0  1  0.68855097  0.49938504  0.24522687  1
  Pt  Pt1  1  0.18855097  0.50061496  0.25477313  1
  Pt  Pt2  1  0.92864901  0.99953694  0.26772720  1
  Pt  Pt3  1  0.42864901  0.00046306  0.23227280  1
  Pt  Pt4  1  0.07135099  0.00046306  0.73227280  1
  Pt  Pt5  1  0.57135099  0.99953694  0.76772720  1
  Pt  Pt6  1  -0.00000000  0.00000000  -0.00000000  1
  Pt  Pt7  1  0.50000000  0.00000000  0.50000000  1
  Pt  Pt8  1  0.31144903  0.50061496  0.75477313  1
  Pt  Pt9  1  0.81144903  0.49938504  0.74522687  1
  S  S0  1  0.15852110  0.15395267  0.11210162  1
  S  S1  1  0.65852110  0.84604733  0.38789838  1
  S  S2  1  0.84147890  0.84604733  0.88789838  1
  S  S3  1  0.34147890  0.15395267  0.61210162  1
  S  S4  1  0.06479699  0.25755005  0.80677633  1
  S  S5  1  0.56479699  0.74244995  0.69322367  1
  S  S6  1  0.94189450  0.25638907  0.33590285  1
  S  S7  1  0.44189450  0.74361093  0.16409715  1
  S  S8  1  0.05810550  0.74361093  0.66409715  1
  S  S9  1  0.55810550  0.25638907  0.83590285  1
  S  S10  1  0.43520301  0.25755005  0.30677633  1
  S  S11  1  0.93520301  0.74244995  0.19322367  1
loop_
_geom_bond_atom_site_label_1
_geom_bond_atom_site_label_2
_geom_bond_distance
_geom_bond_site_symmetry_2
Pt0 S11 2.310913 1_555
Pt0 S7 2.326513 1_555
Pt0 S10 2.338744 1_555
Pt0 S6 2.372582 1_555
Pt0 Tl1 3.148700 1_555
Pt1 S10 2.310913 1_555
Pt1 S6 2.326513 1_455
Pt1 S11 2.338744 1_455
Pt1 S7 2.372582 1_555
Pt1 Tl0 3.148700 1_555
Pt2 S6 2.305161 1_565
Pt2 S1 2.355782 1_555
Pt2 S11 2.361877 1_555
Pt2 S0 2.376483 1_665
Pt2 Tl1 3.118028 1_565
Pt2 Tl0 3.167306 1_655
Pt3 S7 2.305161 1_545
Pt3 S0 2.355782 1_555
Pt3 S10 2.361877 1_555
Pt3 S1 2.376483 1_545
Pt3 Tl0 3.118028 1_545
Pt3 Tl1 3.167306 1_555
Pt4 S8 2.305161 1_545
Pt4 S3 2.355782 1_555
Pt4 S4 2.361877 1_555
Pt4 S2 2.376483 1_445
Pt4 Tl3 3.118028 1_545
Pt4 Tl2 3.167306 1_455
Pt5 S9 2.305161 1_565
Pt5 S2 2.355782 1_555
Pt5 S5 2.361877 1_555
Pt5 S3 2.376483 1_565
Pt5 Tl2 3.118028 1_565
Pt5 Tl3 3.167306 1_555
Pt6 S11 2.319560 1_445
Pt6 S4 2.319560 1_554
Pt6 S2 2.379521 1_444
Pt6 S0 2.379521 1_555
Pt6 Tl1 3.345578 1_455
Pt6 Tl3 3.345578 1_544
Pt7 S10 2.319560 1_555
Pt7 S5 2.319560 1_545
Pt7 S1 2.379521 1_545
Pt7 S3 2.379521 1_555
Pt7 Tl0 3.345578 1_545
Pt7 Tl2 3.345578 1_555
Pt8 S4 2.310913 1_555
Pt8 S9 2.326513 1_555
Pt8 S5 2.338744 1_555
Pt8 S8 2.372582 1_555
Pt8 Tl3 3.148700 1_555
Pt9 S5 2.310913 1_555
Pt9 S8 2.326513 1_655
Pt9 S4 2.338744 1_655
Pt9 S9 2.372582 1_555
Pt9 Tl2 3.148700 1_555
S6 Tl2 3.094392 1_555
S7 Tl3 3.094392 1_554
S8 Tl0 3.094392 1_555
S9 Tl1 3.094392 1_556
