# generated using pymatgen
data_UReB3
_symmetry_space_group_name_H-M   'P 1'
_cell_length_a   5.05988306
_cell_length_b   5.05988097
_cell_length_c   5.10709883
_cell_angle_alpha   90.00011131
_cell_angle_beta   90.00000027
_cell_angle_gamma   120.00006702
_symmetry_Int_Tables_number   1
_chemical_formula_structural   UReB3
_chemical_formula_sum   'U2 Re2 B6'
_cell_volume   113.23622457
_cell_formula_units_Z   2
loop_
 _symmetry_equiv_pos_site_id
 _symmetry_equiv_pos_as_xyz
  1  'x, y, z'
loop_
 _atom_site_type_symbol
 _atom_site_label
 _atom_site_symmetry_multiplicity
 _atom_site_fract_x
 _atom_site_fract_y
 _atom_site_fract_z
 _atom_site_occupancy
  U  U0  1  0.66666685  0.33333361  0.75000118  1
  U  U1  1  0.33333254  0.66666608  0.24999879  1
  Re  Re0  1  0.00000002  0.99999957  0.49999921  1
  Re  Re1  1  1.00000089  1.00000080  0.00000030  1
  B  B0  1  0.21979211  0.43958536  0.75000068  1
  B  B1  1  0.78020333  0.21979667  0.24999995  1
  B  B2  1  0.43959457  0.21979737  0.25000030  1
  B  B3  1  0.56041492  0.78020873  0.74999911  1
  B  B4  1  0.78020309  0.56040605  0.25000086  1
  B  B5  1  0.21979268  0.78020776  0.74999962  1
loop_
_geom_bond_atom_site_label_1
_geom_bond_atom_site_label_2
_geom_bond_distance
_geom_bond_site_symmetry_2
B0 B5 1.723507 1_555
B0 B3 1.723511 1_555
B0 Re1 2.310975 1_446
B0 Re0 2.310980 1_545
B0 U0 2.572424 1_455
B0 U0 2.572431 1_555
B0 U1 2.740567 1_556
B0 U1 2.740589 1_555
B1 B2 1.723442 1_555
B1 B4 1.723444 1_555
B1 Re1 2.311006 1_545
B1 Re0 2.311009 1_645
B1 U1 2.572427 1_655
B1 U1 2.572434 1_545
B1 U0 2.740562 1_554
B1 U0 2.740571 1_555
B2 B4 1.723438 1_555
B2 Re1 2.311007 1_445
B2 Re0 2.311009 1_545
B2 U1 2.572434 1_555
B2 U1 2.572435 1_545
B2 U0 2.740561 1_554
B2 U0 2.740568 1_555
B3 B5 1.723506 1_555
B3 Re0 2.310977 1_655
B3 Re1 2.310982 1_556
B3 U0 2.572420 1_565
B3 U0 2.572432 1_555
B3 U1 2.740580 1_556
B3 U1 2.740581 1_555
B4 Re0 2.310999 1_655
B4 Re1 2.311015 1_555
B4 U1 2.572430 1_655
B4 U1 2.572437 1_555
B4 U0 2.740561 1_554
B4 U0 2.740568 1_555
B5 Re1 2.310977 1_456
B5 Re0 2.310978 1_555
B5 U0 2.572424 1_565
B5 U0 2.572424 1_455
B5 U1 2.740577 1_556
B5 U1 2.740582 1_555
