# generated using pymatgen
data_Rb4Mg(CoO3)2
_symmetry_space_group_name_H-M   'P 1'
_cell_length_a   6.19287159
_cell_length_b   7.22753063
_cell_length_c   6.29938922
_cell_angle_alpha   83.60795215
_cell_angle_beta   113.28066149
_cell_angle_gamma   105.03890997
_symmetry_Int_Tables_number   1
_chemical_formula_structural   Rb4Mg(CoO3)2
_chemical_formula_sum   'Rb4 Mg1 Co2 O6'
_cell_volume   250.11558328
_cell_formula_units_Z   1
loop_
 _symmetry_equiv_pos_site_id
 _symmetry_equiv_pos_as_xyz
  1  'x, y, z'
loop_
 _atom_site_type_symbol
 _atom_site_label
 _atom_site_symmetry_multiplicity
 _atom_site_fract_x
 _atom_site_fract_y
 _atom_site_fract_z
 _atom_site_occupancy
  Rb  Rb0  1  0.23490439  0.37404508  0.85464795  1
  Rb  Rb1  1  0.50076955  0.79127174  0.28934900  1
  Rb  Rb2  1  0.61895265  0.31725994  0.59478906  1
  Rb  Rb3  1  0.92585245  0.61493572  0.21107016  1
  Mg  Mg0  1  0.41502038  0.86807190  0.76480222  1
  Co  Co0  1  0.03225765  0.10682090  0.30347102  1
  Co  Co1  1  0.88477900  0.89532767  0.78501607  1
  O  O0  1  0.13913749  0.78177213  0.87046020  1
  O  O1  1  0.25476693  0.96367855  0.44878495  1
  O  O2  1  0.17074679  0.35043503  0.26242341  1
  O  O3  1  0.59827093  0.68289231  0.75209139  1
  O  O4  1  0.76586250  0.01192872  0.99192009  1
  O  O5  1  0.88576127  0.07489231  0.55117148  1
loop_
_geom_bond_atom_site_label_1
_geom_bond_atom_site_label_2
_geom_bond_distance
_geom_bond_site_symmetry_2
Mg0 O1 1.978192 1_555
Mg0 O3 1.992357 1_555
Mg0 O0 2.001116 1_555
Mg0 O4 2.133157 1_565
Co0 O2 1.786855 1_555
Co0 O1 1.827275 1_545
Co0 O4 2.048644 1_454
Co0 O5 2.059425 1_455
Co1 O0 1.829461 1_655
Co1 O5 1.852461 1_565
Co1 O3 1.978599 1_555
Co1 O4 2.068015 1_565
O0 Rb1 2.696743 1_556
O0 Rb3 2.939388 1_456
O0 Rb0 3.172485 1_555
O1 Rb1 2.712132 1_555
O1 Rb2 2.890649 1_565
O1 Rb3 2.917114 1_455
O2 Rb3 2.652985 1_455
O2 Rb0 2.731184 1_554
O2 Rb2 2.790215 1_555
O2 Rb1 3.290054 1_555
O3 Rb1 2.796620 1_555
O3 Rb3 2.877616 1_556
O3 Rb0 2.947068 1_555
O3 Rb2 2.973343 1_555
O4 Rb1 3.025950 1_546
O4 Rb2 3.157468 1_555
O5 Rb1 2.777557 1_545
O5 Rb2 2.800398 1_555
O5 Rb0 2.869050 1_655
