# generated using pymatgen
data_LiSb3O8
_symmetry_space_group_name_H-M   'P 1'
_cell_length_a   4.70848064
_cell_length_b   5.61959207
_cell_length_c   10.30135411
_cell_angle_alpha   83.55884214
_cell_angle_beta   90.00000000
_cell_angle_gamma   90.00000000
_symmetry_Int_Tables_number   1
_chemical_formula_structural   LiSb3O8
_chemical_formula_sum   'Li2 Sb6 O16'
_cell_volume   270.85057553
_cell_formula_units_Z   2
loop_
 _symmetry_equiv_pos_site_id
 _symmetry_equiv_pos_as_xyz
  1  'x, y, z'
loop_
 _atom_site_type_symbol
 _atom_site_label
 _atom_site_symmetry_multiplicity
 _atom_site_fract_x
 _atom_site_fract_y
 _atom_site_fract_z
 _atom_site_occupancy
  Li  Li0  1  0.50000000  -0.00000000  0.50000000  1
  Li  Li1  1  0.00000000  -0.00000000  -0.00000000  1
  Sb  Sb0  1  0.50000000  0.50000000  -0.00000000  1
  Sb  Sb1  1  0.00000000  0.50000000  0.50000000  1
  Sb  Sb2  1  0.97964543  0.76324729  0.75119440  1
  Sb  Sb3  1  0.47964543  0.23675271  0.74880560  1
  Sb  Sb4  1  0.02035457  0.23675271  0.24880560  1
  Sb  Sb5  1  0.52035457  0.76324729  0.25119440  1
  O  O0  1  0.32825177  0.76400235  0.08163760  1
  O  O1  1  0.82825177  0.23599765  0.41836240  1
  O  O2  1  0.67174823  0.23599765  0.91836240  1
  O  O3  1  0.17174823  0.76400235  0.58163760  1
  O  O4  1  0.21852846  0.52017441  0.32628621  1
  O  O5  1  0.71852846  0.47982559  0.17371379  1
  O  O6  1  0.78147154  0.47982559  0.67371379  1
  O  O7  1  0.28147154  0.52017441  0.82628621  1
  O  O8  1  0.70762130  0.71936647  0.42030260  1
  O  O9  1  0.20762130  0.28063353  0.07969740  1
  O  O10  1  0.29237870  0.28063353  0.57969740  1
  O  O11  1  0.79237870  0.71936647  0.92030260  1
  O  O12  1  0.19189014  0.01308738  0.82439289  1
  O  O13  1  0.69189014  0.98691262  0.67560711  1
  O  O14  1  0.80810986  0.98691262  0.17560711  1
  O  O15  1  0.30810986  0.01308738  0.32439289  1
loop_
_geom_bond_atom_site_label_1
_geom_bond_atom_site_label_2
_geom_bond_distance
_geom_bond_site_symmetry_2
Li0 O15 2.016021 1_555
Li0 O13 2.016021 1_545
Li0 O10 2.099348 1_555
Li0 O8 2.099348 1_545
Li0 O3 2.145837 1_545
Li0 O1 2.145837 1_555
Li1 O12 2.016021 1_554
Li1 O14 2.016021 1_445
Li1 O9 2.099348 1_555
Li1 O11 2.099348 1_444
Li1 O0 2.145837 1_545
Li1 O2 2.145837 1_454
O0 Sb0 1.960141 1_555
O0 Sb5 1.966554 1_555
O1 Sb1 1.960141 1_655
O1 Sb4 1.966554 1_655
O2 Sb0 1.960141 1_556
O2 Sb3 1.966554 1_555
O3 Sb1 1.960141 1_555
O3 Sb2 1.966554 1_455
O4 Sb1 2.056286 1_555
O4 Sb5 2.060782 1_555
O4 Sb4 2.080789 1_555
O5 Sb0 2.056286 1_555
O5 Sb4 2.060782 1_655
O5 Sb5 2.080789 1_555
O6 Sb1 2.056286 1_655
O6 Sb3 2.060782 1_555
O6 Sb2 2.080789 1_555
O7 Sb0 2.056286 1_556
O7 Sb2 2.060782 1_455
O7 Sb3 2.080789 1_555
O8 Sb5 1.943350 1_555
O8 Sb1 1.965150 1_655
O9 Sb4 1.943350 1_555
O9 Sb0 1.965150 1_555
O10 Sb3 1.943350 1_555
O10 Sb1 1.965150 1_555
O11 Sb2 1.943350 1_555
O11 Sb0 1.965150 1_556
O12 Sb2 1.943200 1_445
O12 Sb3 1.949938 1_555
O13 Sb3 1.943200 1_565
O13 Sb2 1.949938 1_555
O14 Sb4 1.943200 1_665
O14 Sb5 1.949938 1_555
O15 Sb5 1.943200 1_545
O15 Sb4 1.949938 1_555
