# generated using pymatgen
data_BaEuMgFe2O5
_symmetry_space_group_name_H-M   'P 1'
_cell_length_a   3.79550889
_cell_length_b   5.78876888
_cell_length_c   7.27251743
_cell_angle_alpha   90.00000000
_cell_angle_beta   90.00000000
_cell_angle_gamma   90.00000000
_symmetry_Int_Tables_number   1
_chemical_formula_structural   BaEuMgFe2O5
_chemical_formula_sum   'Ba1 Eu1 Mg1 Fe2 O5'
_cell_volume   159.78683490
_cell_formula_units_Z   1
loop_
 _symmetry_equiv_pos_site_id
 _symmetry_equiv_pos_as_xyz
  1  'x, y, z'
loop_
 _atom_site_type_symbol
 _atom_site_label
 _atom_site_symmetry_multiplicity
 _atom_site_fract_x
 _atom_site_fract_y
 _atom_site_fract_z
 _atom_site_occupancy
  Ba  Ba0  1  -0.00000000  0.00000000  -0.00000000  1
  Eu  Eu0  1  -0.00000000  0.00000000  0.50000000  1
  Mg  Mg0  1  -0.00000000  0.50000000  -0.00000000  1
  Fe  Fe0  1  0.50000000  0.50000000  0.29724714  1
  Fe  Fe1  1  0.50000000  0.50000000  0.70275286  1
  O  O0  1  0.50000000  0.00000000  0.72362200  1
  O  O1  1  0.50000000  0.00000000  0.27637800  1
  O  O2  1  0.00000000  0.50000000  0.72098639  1
  O  O3  1  0.00000000  0.50000000  0.27901361  1
  O  O4  1  0.50000000  0.50000000  -0.00000000  1
loop_
_geom_bond_atom_site_label_1
_geom_bond_atom_site_label_2
_geom_bond_distance
_geom_bond_site_symmetry_2
Ba0 O0 2.764313 1_454
Ba0 O0 2.764313 1_554
Ba0 O1 2.764313 1_555
Ba0 O1 2.764313 1_455
Eu0 O0 2.499261 1_455
Eu0 O1 2.499261 1_455
Eu0 O1 2.499261 1_555
Eu0 O0 2.499261 1_555
Mg0 O4 1.897754 1_455
Mg0 O4 1.897754 1_555
Mg0 O2 2.029131 1_554
Mg0 O3 2.029131 1_555
Fe0 O3 1.902382 1_655
Fe0 O3 1.902382 1_555
Fe0 O4 2.161735 1_555
Fe1 O2 1.902382 1_655
Fe1 O2 1.902382 1_555
Fe1 O4 2.161735 1_556
