# generated using pymatgen
data_CeF3
_symmetry_space_group_name_H-M   'P 1'
_cell_length_a   7.16846679
_cell_length_b   7.17142262
_cell_length_c   7.27148854
_cell_angle_alpha   90.00000000
_cell_angle_beta   90.00000000
_cell_angle_gamma   121.22862555
_symmetry_Int_Tables_number   1
_chemical_formula_structural   CeF3
_chemical_formula_sum   'Ce6 F18'
_cell_volume   319.64987393
_cell_formula_units_Z   6
loop_
 _symmetry_equiv_pos_site_id
 _symmetry_equiv_pos_as_xyz
  1  'x, y, z'
loop_
 _atom_site_type_symbol
 _atom_site_label
 _atom_site_symmetry_multiplicity
 _atom_site_fract_x
 _atom_site_fract_y
 _atom_site_fract_z
 _atom_site_occupancy
  Ce  Ce0  1  0.67610103  0.00945375  0.75000000  1
  Ce  Ce1  1  0.32389897  0.99054625  0.25000000  1
  Ce  Ce2  1  0.00931795  0.67634352  0.75000000  1
  Ce  Ce3  1  0.65711429  0.65698620  0.25000000  1
  Ce  Ce4  1  0.99068205  0.32365648  0.25000000  1
  Ce  Ce5  1  0.34288571  0.34301380  0.75000000  1
  F  F0  1  0.33411962  0.00088709  0.57994685  1
  F  F1  1  0.66588038  -0.00088709  0.07994685  1
  F  F2  1  0.66588038  -0.00088709  0.42005315  1
  F  F3  1  -0.00325466  -0.00332063  0.25000000  1
  F  F4  1  0.33279872  0.33276837  0.41987784  1
  F  F5  1  -0.00049813  0.66623113  0.07991525  1
  F  F6  1  0.66334069  0.32968381  0.25000000  1
  F  F7  1  0.66720128  0.66723163  0.58012216  1
  F  F8  1  0.67033060  0.33680643  0.75000000  1
  F  F9  1  0.00049813  0.33376887  0.92008475  1
  F  F10  1  0.66720128  0.66723163  0.91987784  1
  F  F11  1  0.33279872  0.33276837  0.08012216  1
  F  F12  1  -0.00049813  0.66623113  0.42008475  1
  F  F13  1  0.32966940  0.66319357  0.25000000  1
  F  F14  1  0.00049813  0.33376887  0.57991525  1
  F  F15  1  0.33411962  0.00088709  0.92005315  1
  F  F16  1  0.33665931  0.67031619  0.75000000  1
  F  F17  1  0.00325466  0.00332063  0.75000000  1
loop_
_geom_bond_atom_site_label_1
_geom_bond_atom_site_label_2
_geom_bond_distance
_geom_bond_site_symmetry_2
Ce0 F17 2.368292 1_655
Ce0 F8 2.369294 1_555
Ce0 F16 2.387372 1_545
Ce0 F2 2.400295 1_555
Ce0 F1 2.400295 1_556
Ce0 F14 2.595855 1_655
Ce0 F9 2.595855 1_655
Ce0 F15 2.717794 1_555
Ce0 F0 2.717794 1_555
Ce0 F7 2.718601 1_545
Ce0 F10 2.718601 1_545
Ce1 F3 2.368292 1_565
Ce1 F13 2.369294 1_555
Ce1 F6 2.387372 1_565
Ce1 F15 2.400295 1_564
Ce1 F0 2.400295 1_565
Ce1 F5 2.595855 1_555
Ce1 F12 2.595855 1_555
Ce1 F2 2.717794 1_565
Ce1 F1 2.717794 1_565
Ce1 F4 2.718601 1_565
Ce1 F11 2.718601 1_565
Ce2 F17 2.367717 1_565
Ce2 F16 2.369234 1_555
Ce2 F8 2.387184 1_455
Ce2 F5 2.400000 1_556
Ce2 F12 2.400000 1_555
Ce2 F0 2.597704 1_565
Ce2 F15 2.597704 1_565
Ce2 F7 2.716339 1_455
Ce2 F10 2.716339 1_455
Ce2 F14 2.721791 1_555
Ce2 F9 2.721791 1_555
Ce3 F13 2.370663 1_555
Ce3 F6 2.370672 1_555
Ce3 F3 2.389994 1_665
Ce3 F10 2.401545 1_554
Ce3 F7 2.401545 1_555
Ce3 F11 2.594586 1_555
Ce3 F4 2.594586 1_555
Ce3 F12 2.718329 1_655
Ce3 F5 2.718329 1_655
Ce3 F1 2.718997 1_565
Ce3 F2 2.718997 1_565
Ce4 F3 2.367717 1_655
Ce4 F6 2.369234 1_555
Ce4 F13 2.387184 1_655
Ce4 F9 2.400000 1_654
Ce4 F14 2.400000 1_655
Ce4 F1 2.597704 1_555
Ce4 F2 2.597704 1_555
Ce4 F11 2.716339 1_655
Ce4 F4 2.716339 1_655
Ce4 F12 2.721791 1_655
Ce4 F5 2.721791 1_655
Ce5 F8 2.370663 1_555
Ce5 F16 2.370672 1_555
Ce5 F17 2.389994 1_555
Ce5 F11 2.401545 1_556
Ce5 F4 2.401545 1_555
Ce5 F7 2.594586 1_555
Ce5 F10 2.594586 1_555
Ce5 F14 2.718329 1_555
Ce5 F9 2.718329 1_555
Ce5 F15 2.718997 1_555
Ce5 F0 2.718997 1_555
