# generated using pymatgen
data_MgNi2(BiO3)4
_symmetry_space_group_name_H-M   'P 1'
_cell_length_a   5.02246298
_cell_length_b   5.17258251
_cell_length_c   9.86764100
_cell_angle_alpha   90.00000000
_cell_angle_beta   90.00000000
_cell_angle_gamma   89.35702172
_symmetry_Int_Tables_number   1
_chemical_formula_structural   MgNi2(BiO3)4
_chemical_formula_sum   'Mg1 Ni2 Bi4 O12'
_cell_volume   256.33633177
_cell_formula_units_Z   1
loop_
 _symmetry_equiv_pos_site_id
 _symmetry_equiv_pos_as_xyz
  1  'x, y, z'
loop_
 _atom_site_type_symbol
 _atom_site_label
 _atom_site_symmetry_multiplicity
 _atom_site_fract_x
 _atom_site_fract_y
 _atom_site_fract_z
 _atom_site_occupancy
  Mg  Mg0  1  0.50000000  0.00000000  0.00392400  1
  Ni  Ni0  1  0.00000000  0.00000000  0.00425500  1
  Ni  Ni1  1  0.50000000  0.50000000  0.50370700  1
  Bi  Bi0  1  0.00000000  0.00000000  0.33724400  1
  Bi  Bi1  1  0.00000000  0.00000000  0.67039400  1
  Bi  Bi2  1  0.50000000  0.50000000  0.18099800  1
  Bi  Bi3  1  0.50000000  0.50000000  0.82691100  1
  O  O0  1  0.23821300  0.84426100  0.15288200  1
  O  O1  1  0.23882400  0.84509600  0.85535900  1
  O  O2  1  0.21635200  0.81023600  0.50354600  1
  O  O3  1  0.28630000  0.32123400  0.00452300  1
  O  O4  1  0.28663500  0.33235400  0.34191400  1
  O  O5  1  0.28552800  0.33361100  0.66556000  1
  O  O6  1  0.71336500  0.66764600  0.34191400  1
  O  O7  1  0.71447200  0.66638900  0.66556000  1
  O  O8  1  0.71370000  0.67876600  0.00452300  1
  O  O9  1  0.78364800  0.18976400  0.50354600  1
  O  O10  1  0.76178700  0.15573900  0.15288200  1
  O  O11  1  0.76117600  0.15490400  0.85535900  1
loop_
_geom_bond_atom_site_label_1
_geom_bond_atom_site_label_2
_geom_bond_distance
_geom_bond_site_symmetry_2
Mg0 O3 1.967976 1_555
Mg0 O8 1.967976 1_545
Mg0 O11 2.129646 1_554
Mg0 O1 2.129646 1_544
Mg0 O10 2.135874 1_555
Mg0 O0 2.135874 1_545
Ni0 O0 2.051740 1_545
Ni0 O10 2.051740 1_455
Ni0 O1 2.053753 1_544
Ni0 O11 2.053753 1_454
Ni0 O3 2.209575 1_555
Ni0 O8 2.209575 1_445
Ni1 O6 2.114250 1_555
Ni1 O4 2.114250 1_555
Ni1 O7 2.114854 1_555
Ni1 O5 2.114854 1_555
Ni1 O2 2.133856 1_555
Ni1 O9 2.133856 1_555
Bi0 O2 2.193899 1_545
Bi0 O9 2.193899 1_455
Bi0 O4 2.255118 1_555
Bi0 O6 2.255118 1_445
Bi0 O0 2.316955 1_545
Bi0 O10 2.316955 1_455
Bi1 O9 2.197932 1_455
Bi1 O2 2.197932 1_545
Bi1 O7 2.256574 1_445
Bi1 O5 2.256574 1_555
Bi1 O1 2.321732 1_545
Bi1 O11 2.321732 1_455
Bi2 O6 2.107723 1_555
Bi2 O4 2.107723 1_555
Bi2 O0 2.219036 1_555
Bi2 O10 2.219036 1_555
Bi2 O8 2.249829 1_555
Bi2 O3 2.249829 1_555
Bi3 O7 2.111116 1_555
Bi3 O5 2.111116 1_555
Bi3 O11 2.221100 1_555
Bi3 O1 2.221100 1_555
Bi3 O8 2.258524 1_556
Bi3 O3 2.258524 1_556
