# generated using pymatgen
data_Li8Pb3
_symmetry_space_group_name_H-M   'P 1'
_cell_length_a   4.73950017
_cell_length_b   4.72445560
_cell_length_c   10.97338467
_cell_angle_alpha   102.13495598
_cell_angle_beta   90.00000000
_cell_angle_gamma   120.10540233
_symmetry_Int_Tables_number   1
_chemical_formula_structural   Li8Pb3
_chemical_formula_sum   'Li8 Pb3'
_cell_volume   206.19469459
_cell_formula_units_Z   1
loop_
 _symmetry_equiv_pos_site_id
 _symmetry_equiv_pos_as_xyz
  1  'x, y, z'
loop_
 _atom_site_type_symbol
 _atom_site_label
 _atom_site_symmetry_multiplicity
 _atom_site_fract_x
 _atom_site_fract_y
 _atom_site_fract_z
 _atom_site_occupancy
  Li  Li0  1  0.91140648  0.82281196  0.73560175  1
  Li  Li1  1  0.08859352  0.17718804  0.26439825  1
  Li  Li2  1  0.82086799  0.64173698  0.46516320  1
  Li  Li3  1  0.36318469  0.72636738  0.08701499  1
  Li  Li4  1  0.63681531  0.27363262  0.91298501  1
  Li  Li5  1  0.27151490  0.54302979  0.81878705  1
  Li  Li6  1  0.72848510  0.45697021  0.18121295  1
  Li  Li7  1  0.17913201  0.35826302  0.53483680  1
  Pb  Pb0  1  0.54686675  0.09373350  0.64189681  1
  Pb  Pb1  1  0.45313325  0.90626650  0.35810319  1
  Pb  Pb2  1  0.00000000  0.00000000  -0.00000000  1
loop_
_geom_bond_atom_site_label_1
_geom_bond_atom_site_label_2
_geom_bond_distance
_geom_bond_site_symmetry_2
Li0 Pb2 2.814449 1_666
Li0 Li5 2.862233 1_665
Li0 Li5 2.874692 1_655
Li0 Li5 2.874696 1_555
Li0 Pb0 2.906498 1_555
Li0 Pb0 2.907313 1_665
Li0 Pb0 2.907317 1_565
Li1 Pb2 2.814449 1_555
Li1 Li6 2.862233 1_445
Li1 Li6 2.874692 1_455
Li1 Li6 2.874696 1_555
Li1 Pb1 2.906498 1_555
Li1 Pb1 2.907313 1_445
Li1 Pb1 2.907317 1_545
Li2 Pb1 2.949547 1_545
Li2 Pb1 2.963461 1_555
Li2 Pb1 2.963465 1_655
Li2 Li6 3.022506 1_555
Li3 Li5 2.855353 1_554
Li3 Pb2 2.880481 1_665
Li3 Pb2 2.880489 1_565
Li3 Pb1 2.885622 1_555
Li3 Pb2 2.889236 1_555
Li3 Li6 2.906826 1_555
Li3 Li6 2.906833 1_455
Li3 Li6 2.912918 1_565
Li4 Li6 2.855353 1_556
Li4 Pb2 2.880481 1_556
Li4 Pb2 2.880489 1_656
Li4 Pb0 2.885622 1_555
Li4 Pb2 2.889236 1_666
Li4 Li5 2.906826 1_555
Li4 Li5 2.906833 1_655
Li4 Li5 2.912918 1_545
Li5 Li7 3.022506 1_555
Li5 Pb0 3.310170 1_565
Li5 Pb0 3.320146 1_455
Li5 Pb0 3.320146 1_555
Li5 Pb2 3.320391 1_556
Li5 Pb2 3.354594 1_666
Li5 Pb2 3.354594 1_566
Li6 Pb1 3.310170 1_545
Li6 Pb1 3.320146 1_655
Li6 Pb1 3.320146 1_555
Li6 Pb2 3.320391 1_665
Li6 Pb2 3.354594 1_555
Li6 Pb2 3.354594 1_655
Li7 Pb0 2.949547 1_565
Li7 Pb0 2.963461 1_555
Li7 Pb0 2.963465 1_455
