# generated using pymatgen
data_MgMn3Zn2O8
_symmetry_space_group_name_H-M   'P 1'
_cell_length_a   5.38364319
_cell_length_b   5.85929348
_cell_length_c   6.03319751
_cell_angle_alpha   119.05249938
_cell_angle_beta   90.30891790
_cell_angle_gamma   90.00034018
_symmetry_Int_Tables_number   1
_chemical_formula_structural   MgMn3Zn2O8
_chemical_formula_sum   'Mg1 Mn3 Zn2 O8'
_cell_volume   166.36395385
_cell_formula_units_Z   1
loop_
 _symmetry_equiv_pos_site_id
 _symmetry_equiv_pos_as_xyz
  1  'x, y, z'
loop_
 _atom_site_type_symbol
 _atom_site_label
 _atom_site_symmetry_multiplicity
 _atom_site_fract_x
 _atom_site_fract_y
 _atom_site_fract_z
 _atom_site_occupancy
  Mg  Mg0  1  0.50000911  0.49997583  -0.00004363  1
  Mn  Mn0  1  0.50003211  0.00001567  0.00002903  1
  Mn  Mn1  1  0.00001030  0.75247103  0.00001029  1
  Mn  Mn2  1  0.00000956  0.24754132  0.00001190  1
  Zn  Zn0  1  0.66642910  0.75093018  0.50185549  1
  Zn  Zn1  1  0.33334149  0.24904233  0.49805074  1
  O  O0  1  0.16122452  0.40815832  0.81631398  1
  O  O1  1  0.83876298  0.59185479  0.18369929  1
  O  O2  1  0.17383273  0.91391568  0.82784290  1
  O  O3  1  0.82620787  0.08611731  0.17223268  1
  O  O4  1  0.37272740  0.34608752  0.22684645  1
  O  O5  1  0.37272657  0.88075921  0.22685286  1
  O  O6  1  0.62734405  0.11921858  0.77315735  1
  O  O7  1  0.62733922  0.65391024  0.77314066  1
loop_
_geom_bond_atom_site_label_1
_geom_bond_atom_site_label_2
_geom_bond_distance
_geom_bond_site_symmetry_2
Mg0 O0 2.059822 1_554
Mg0 O1 2.059923 1_555
Mg0 O6 2.089204 1_554
Mg0 O7 2.089219 1_554
Mg0 O5 2.089306 1_555
Mg0 O4 2.089319 1_555
Mn0 O4 1.941446 1_555
Mn0 O5 1.941528 1_545
Mn0 O6 1.941575 1_554
Mn0 O7 1.941674 1_544
Mn0 O3 1.971993 1_555
Mn0 O2 1.972063 1_544
Mn1 O2 1.953012 1_554
Mn1 O3 1.953097 1_465
Mn1 O0 1.972423 1_554
Mn1 O1 1.972496 1_455
Mn1 O7 2.331309 1_454
Mn1 O5 2.331441 1_555
Mn2 O2 1.953046 1_544
Mn2 O3 1.953116 1_455
Mn2 O0 1.972465 1_554
Mn2 O1 1.972499 1_455
Mn2 O6 2.331245 1_454
Mn2 O4 2.331431 1_555
O0 Zn1 1.922322 1_555
O1 Zn0 1.922397 1_555
O4 Zn1 1.988186 1_555
O5 Zn1 1.988259 1_565
O6 Zn0 1.988287 1_545
O7 Zn0 1.988377 1_555
