# generated using pymatgen
data_Na6Zr7ZnSi6(SO8)6
_symmetry_space_group_name_H-M   'P 1'
_cell_length_a   18.11155124
_cell_length_b   9.03761787
_cell_length_c   23.41786900
_cell_angle_alpha   89.96577541
_cell_angle_beta   90.08134652
_cell_angle_gamma   119.90526918
_symmetry_Int_Tables_number   1
_chemical_formula_structural   Na6Zr7ZnSi6(SO8)6
_chemical_formula_sum   'Na18 Zr21 Zn3 Si18 S18 O144'
_cell_volume   3322.77519452
_cell_formula_units_Z   3
loop_
 _symmetry_equiv_pos_site_id
 _symmetry_equiv_pos_as_xyz
  1  'x, y, z'
loop_
 _atom_site_type_symbol
 _atom_site_label
 _atom_site_symmetry_multiplicity
 _atom_site_fract_x
 _atom_site_fract_y
 _atom_site_fract_z
 _atom_site_occupancy
  Na  Na0  1  0.68610124  0.37645685  0.25093372  1
  Na  Na1  1  0.99605487  0.64340837  0.25134419  1
  Na  Na2  1  0.99710798  0.35744418  0.75124987  1
  Na  Na3  1  0.49369517  0.35957203  0.74754141  1
  Na  Na4  1  0.19166191  0.01584147  0.75126588  1
  Na  Na5  1  0.68442445  0.00805565  0.74903424  1
  Na  Na6  1  0.99835133  0.99860201  0.49228362  1
  Na  Na7  1  0.50533910  0.00134878  0.49858704  1
  Na  Na8  1  0.00891372  0.01317542  0.99851178  1
  Na  Na9  1  0.50238117  0.99075608  0.99765772  1
  Na  Na10  1  0.33095998  0.33284929  0.82644299  1
  Na  Na11  1  0.82951151  0.32821852  0.82852566  1
  Na  Na12  1  0.33352024  0.33129195  0.33019357  1
  Na  Na13  1  0.83350330  0.33317097  0.33518329  1
  Na  Na14  1  0.17062978  0.66651795  0.16552835  1
  Na  Na15  1  0.66400731  0.66442878  0.17161917  1
  Na  Na16  1  0.17561051  0.66738208  0.66931722  1
  Na  Na17  1  0.66944256  0.66413771  0.66696782  1
  Zr  Zr0  1  0.99993204  0.98748914  0.35599922  1
  Zr  Zr1  1  0.50344275  0.01031942  0.35594548  1
  Zr  Zr2  1  0.00708788  0.01958867  0.85465383  1
  Zr  Zr3  1  0.50383953  0.99901362  0.84789314  1
  Zr  Zr4  1  0.99741487  0.00486811  0.64892168  1
  Zr  Zr5  1  0.49950514  0.00119282  0.65243183  1
  Zr  Zr6  1  0.00459395  0.99731980  0.15004680  1
  Zr  Zr7  1  0.50027313  0.00133305  0.14680776  1
  Zr  Zr8  1  0.33382341  0.33707502  0.18660026  1
  Zr  Zr9  1  0.32613534  0.33181830  0.98321488  1
  Zr  Zr10  1  0.83319534  0.32453941  0.97604907  1
  Zr  Zr11  1  0.33479674  0.34474922  0.47755557  1
  Zr  Zr12  1  0.83181207  0.33145936  0.47422616  1
  Zr  Zr13  1  0.16087227  0.65659221  0.01769165  1
  Zr  Zr14  1  0.66050216  0.67356448  0.02035418  1
  Zr  Zr15  1  0.16168883  0.65673670  0.51694171  1
  Zr  Zr16  1  0.66650350  0.66910324  0.51333082  1
  Zr  Zr17  1  0.16360558  0.66188042  0.31637639  1
  Zr  Zr18  1  0.66747210  0.66391256  0.31678481  1
  Zr  Zr19  1  0.17012406  0.66985814  0.81598218  1
  Zr  Zr20  1  0.67030516  0.67795637  0.81043272  1
  Zn  Zn0  1  0.33322011  0.33876702  0.69245011  1
  Zn  Zn1  1  0.82472853  0.32434740  0.68666985  1
  Zn  Zn2  1  0.83484923  0.34369274  0.18495637  1
  Si  Si0  1  0.14872994  0.00223038  0.25162553  1
  Si  Si1  1  0.85271913  0.70596873  0.24812231  1
  Si  Si2  1  0.49898664  0.29359124  0.24999342  1
  Si  Si3  1  0.14798541  0.29647956  0.74858967  1
  Si  Si4  1  0.64944208  0.29622017  0.74935890  1
  Si  Si5  1  0.49681677  0.70333742  0.74932181  1
  Si  Si6  1  0.35271407  0.99801469  0.75033548  1
  Si  Si7  1  0.85589600  0.00503065  0.74999726  1
  Si  Si8  1  0.47689612  0.62368841  0.08325925  1
  Si  Si9  1  0.18478734  0.33462995  0.08522958  1
  Si  Si10  1  0.02087894  0.37654869  0.91512179  1
  Si  Si11  1  0.16768072  0.96059485  0.91686243  1
  Si  Si12  1  0.66259866  0.95801381  0.91580240  1
  Si  Si13  1  0.81296138  0.95609223  0.41571585  1
  Si  Si14  1  0.16547950  0.37197460  0.41575577  1
  Si  Si15  1  0.66582597  0.37638599  0.41689944  1
  Si  Si16  1  0.02080456  0.66595398  0.41716731  1
  Si  Si17  1  0.52161533  0.66853265  0.41546318  1
  S  S0  1  0.64597768  0.00085996  0.24880419  1
  S  S1  1  0.35527350  0.71221068  0.25047309  1
  S  S2  1  0.99851812  0.28981658  0.24955449  1
  S  S3  1  0.99840173  0.70838659  0.74988221  1
  S  S4  1  0.47862229  0.33330199  0.58437767  1
  S  S5  1  0.97807295  0.33458388  0.58496697  1
  S  S6  1  0.18829128  0.04144646  0.58453867  1
  S  S7  1  0.68754719  0.04122819  0.58427247  1
  S  S8  1  0.33343184  0.62465335  0.58439620  1
  S  S9  1  0.83334403  0.62150744  0.58500583  1
  S  S10  1  0.97703857  0.62158804  0.08415177  1
  S  S11  1  0.33329208  0.04202608  0.08341546  1
  S  S12  1  0.83338566  0.04563387  0.08485250  1
  S  S13  1  0.68917557  0.33455843  0.08396463  1
  S  S14  1  0.31352175  0.66880579  0.91783155  1
  S  S15  1  0.81133768  0.66626686  0.91796755  1
  S  S16  1  0.52084127  0.37529842  0.91701599  1
  S  S17  1  0.31115847  0.95632282  0.41759150  1
  O  O0  1  0.10124760  0.02769877  0.30585107  1
  O  O1  1  0.60499281  0.02720429  0.30003020  1
  O  O2  1  0.40698556  0.79137721  0.30165450  1
  O  O3  1  0.91613310  0.79453093  0.30268108  1
  O  O4  1  0.48774608  0.16852871  0.30436154  1
  O  O5  1  0.98709215  0.18920943  0.30087005  1
  O  O6  1  0.10184912  0.17104843  0.80414174  1
  O  O7  1  0.60426623  0.17047310  0.80467814  1
  O  O8  1  0.48510823  0.79574693  0.80577034  1
  O  O9  1  0.98652341  0.78760227  0.80115325  1
  O  O10  1  0.41417020  0.03004982  0.80587567  1
  O  O11  1  0.91618960  0.02978371  0.80485928  1
  O  O12  1  0.39790256  0.96556641  0.69418516  1
  O  O13  1  0.89918882  0.96969968  0.69307933  1
  O  O14  1  0.08257589  0.19866113  0.69382952  1
  O  O15  1  0.58565036  0.20791731  0.69394808  1
  O  O16  1  0.01407237  0.81848848  0.69846415  1
  O  O17  1  0.52014245  0.83331883  0.69445377  1
  O  O18  1  0.39665222  0.81664202  0.19844175  1
  O  O19  1  0.89985450  0.82566620  0.19162434  1
  O  O20  1  0.01325395  0.21296492  0.19779461  1
  O  O21  1  0.51350804  0.19325975  0.19476167  1
  O  O22  1  0.08555962  0.96222739  0.19513706  1
  O  O23  1  0.59153749  0.97613938  0.19737718  1
  O  O24  1  0.43998837  0.35537142  0.63631901  1
  O  O25  1  0.94166635  0.35971620  0.63744884  1
  O  O26  1  0.23811581  0.11700889  0.63646243  1
  O  O27  1  0.73738560  0.11654773  0.63692718  1
  O  O28  1  0.31977831  0.52018969  0.63481034  1
  O  O29  1  0.82286110  0.51943729  0.63642912  1
  O  O30  1  0.43468171  0.50706398  0.13940474  1
  O  O31  1  0.94080243  0.52103348  0.13653782  1
  O  O32  1  0.32053848  0.12014349  0.13478631  1
  O  O33  1  0.81902603  0.12354769  0.13549007  1
  O  O34  1  0.24586581  0.35890859  0.13956542  1
  O  O35  1  0.73817463  0.35741575  0.13660894  1
  O  O36  1  0.22987163  0.30450291  0.02817660  1
  O  O37  1  0.72994673  0.30857790  0.03314890  1
  O  O38  1  0.42080091  0.53322999  0.02619998  1
  O  O39  1  0.92426636  0.53731719  0.03317509  1
  O  O40  1  0.34812972  0.14777179  0.03181691  1
  O  O41  1  0.84384117  0.15070593  0.03249225  1
  O  O42  1  0.22891125  0.14684226  0.53284384  1
  O  O43  1  0.73017079  0.14784689  0.53359054  1
  O  O44  1  0.34405481  0.54180891  0.53175296  1
  O  O45  1  0.84514981  0.54197359  0.53301473  1
  O  O46  1  0.42530518  0.31158083  0.53282231  1
  O  O47  1  0.92675120  0.31232521  0.53372899  1
  O  O48  1  0.27170381  0.68966925  0.96886378  1
  O  O49  1  0.77022419  0.68871148  0.96919831  1
  O  O50  1  0.08014628  0.46523019  0.97136257  1
  O  O51  1  0.57619758  0.46035978  0.96808292  1
  O  O52  1  0.15741668  0.84102968  0.97239951  1
  O  O53  1  0.65442021  0.83958312  0.97171829  1
  O  O54  1  0.27148476  0.85077821  0.46886239  1
  O  O55  1  0.76793372  0.83927864  0.47285111  1
  O  O56  1  0.15697604  0.47255423  0.47218773  1
  O  O57  1  0.65027461  0.46251167  0.47303361  1
  O  O58  1  0.08244363  0.69350356  0.47233535  1
  O  O59  1  0.57892618  0.69901035  0.47290212  1
  O  O60  1  0.06472683  0.63784736  0.35951175  1
  O  O61  1  0.56373723  0.63547730  0.35955920  1
  O  O62  1  0.25916323  0.87995409  0.36565362  1
  O  O63  1  0.75228925  0.87165580  0.36006710  1
  O  O64  1  0.18486758  0.49867897  0.36077036  1
  O  O65  1  0.68181482  0.48444644  0.35820280  1
  O  O66  1  0.06273685  0.48771742  0.85746747  1
  O  O67  1  0.56134238  0.47814522  0.86507843  1
  O  O68  1  0.18077419  0.87173092  0.85888738  1
  O  O69  1  0.68039630  0.87340379  0.85983816  1
  O  O70  1  0.26057603  0.64093850  0.86580444  1
  O  O71  1  0.75835629  0.63545325  0.86638371  1
  O  O72  1  0.01284651  0.83506546  0.41340528  1
  O  O73  1  0.50599172  0.83064534  0.40770116  1
  O  O74  1  0.39615448  0.97246805  0.41120012  1
  O  O75  1  0.90701277  0.97987502  0.40917289  1
  O  O76  1  0.08108490  0.18960478  0.41019921  1
  O  O77  1  0.58122694  0.18500766  0.41074897  1
  O  O78  1  0.00812799  0.18529129  0.91213890  1
  O  O79  1  0.51237307  0.20425331  0.91304570  1
  O  O80  1  0.08045305  0.97085471  0.91065135  1
  O  O81  1  0.57883482  0.97825762  0.91320861  1
  O  O82  1  0.39767037  0.82276653  0.91234570  1
  O  O83  1  0.89673587  0.81608876  0.91121534  1
  O  O84  1  0.48747704  0.17662859  0.58693669  1
  O  O85  1  0.98881424  0.17967900  0.58862176  1
  O  O86  1  0.10045993  0.01893320  0.58907921  1
  O  O87  1  0.60115629  0.02443010  0.58765343  1
  O  O88  1  0.41127207  0.79714675  0.58714367  1
  O  O89  1  0.91182816  0.79579660  0.58975541  1
  O  O90  1  0.49035640  0.81718518  0.09131898  1
  O  O91  1  0.98560253  0.79429411  0.08771157  1
  O  O92  1  0.41073166  0.02346823  0.09000237  1
  O  O93  1  0.91006782  0.02844160  0.08875043  1
  O  O94  1  0.08938918  0.16530656  0.09048337  1
  O  O95  1  0.60200363  0.17912724  0.08867075  1
  O  O96  1  0.34408668  0.16652876  0.74343997  1
  O  O97  1  0.84921567  0.17712724  0.74271634  1
  O  O98  1  0.23705184  0.30228700  0.74249223  1
  O  O99  1  0.74050884  0.30611590  0.74399134  1
  O  O100  1  0.41934397  0.51300379  0.74391849  1
  O  O101  1  0.92564811  0.53544460  0.74231370  1
  O  O102  1  0.34617309  0.54073079  0.24467784  1
  O  O103  1  0.84392650  0.51352261  0.24213841  1
  O  O104  1  0.41456811  0.30994005  0.24345050  1
  O  O105  1  0.92435203  0.31603027  0.24205250  1
  O  O106  1  0.24171410  0.16783101  0.24250233  1
  O  O107  1  0.72969310  0.15796073  0.24220172  1
  O  O108  1  0.32215661  0.51425871  0.92272523  1
  O  O109  1  0.82014007  0.51114222  0.92576379  1
  O  O110  1  0.43651456  0.36053492  0.92411135  1
  O  O111  1  0.92722105  0.36154769  0.92535150  1
  O  O112  1  0.25361606  0.14932596  0.92365028  1
  O  O113  1  0.74853192  0.14659413  0.92593689  1
  O  O114  1  0.32084711  0.12797613  0.42494630  1
  O  O115  1  0.82144628  0.14411850  0.42616102  1
  O  O116  1  0.25070030  0.35337656  0.42628645  1
  O  O117  1  0.74890120  0.35308317  0.42507558  1
  O  O118  1  0.42719220  0.49549928  0.42629961  1
  O  O119  1  0.92852288  0.49642853  0.42530144  1
  O  O120  1  0.17853620  0.50912980  0.07770692  1
  O  O121  1  0.67908873  0.48663586  0.07547756  1
  O  O122  1  0.06427735  0.64412319  0.07748911  1
  O  O123  1  0.57356180  0.64443139  0.07634688  1
  O  O124  1  0.25810350  0.87007518  0.07690988  1
  O  O125  1  0.75716577  0.87116892  0.07607485  1
  O  O126  1  0.17895716  0.86760896  0.57668266  1
  O  O127  1  0.67775620  0.86766162  0.57837903  1
  O  O128  1  0.25749152  0.64766478  0.57612554  1
  O  O129  1  0.75740451  0.64418329  0.57909577  1
  O  O130  1  0.06631244  0.48765251  0.57827566  1
  O  O131  1  0.56527260  0.48649354  0.57770283  1
  O  O132  1  0.15308067  0.82282713  0.25677886  1
  O  O133  1  0.65336655  0.84723561  0.25357754  1
  O  O134  1  0.26990577  0.69637496  0.25491764  1
  O  O135  1  0.75715196  0.68051134  0.25313274  1
  O  O136  1  0.07682305  0.46632202  0.25437993  1
  O  O137  1  0.58720330  0.47578836  0.25412860  1
  O  O138  1  0.14827916  0.47706330  0.75511177  1
  O  O139  1  0.65078009  0.47646294  0.75872259  1
  O  O140  1  0.07854059  0.69644925  0.75451142  1
  O  O141  1  0.58508001  0.69114062  0.75773171  1
  O  O142  1  0.25589511  0.83063111  0.75535146  1
  O  O143  1  0.75996693  0.83797941  0.75493632  1
loop_
_geom_bond_atom_site_label_1
_geom_bond_atom_site_label_2
_geom_bond_distance
_geom_bond_site_symmetry_2
Na0 O137 2.371439 1_555
Na0 O135 2.384049 1_555
Na0 O107 2.473873 1_555
Na0 O103 2.493655 1_555
Na0 O65 2.710680 1_555
Na0 O35 2.873376 1_555
Na0 O1 2.969808 1_555
Na0 O21 3.012189 1_555
Na1 O103 2.406151 1_555
Na1 O132 2.476814 1_655
Na1 O105 2.580017 1_555
Na1 O136 2.653374 1_655
Na1 O3 2.717382 1_555
Na1 O22 2.829605 1_655
Na1 O60 2.831792 1_655
Na1 O31 2.888783 1_555
Na2 O97 2.348750 1_555
Na2 O138 2.391906 1_655
Na2 O101 2.526205 1_555
Na2 O140 2.657468 1_655
Na2 O66 2.754234 1_655
Na2 O25 2.850212 1_555
Na2 O11 2.857684 1_555
Na2 O14 2.913206 1_655
Na3 O100 2.367461 1_555
Na3 O96 2.383447 1_555
Na3 O139 2.506025 1_555
Na3 O141 2.613455 1_555
Na3 O24 2.772654 1_555
Na3 O15 2.917449 1_555
Na3 O10 2.921183 1_555
Na3 O67 2.985014 1_555
Na4 O98 2.301649 1_555
Na4 O96 2.400359 1_555
Na4 O142 2.470951 1_545
Na4 O140 2.576562 1_545
Na4 O68 2.797912 1_545
Na4 O26 2.829849 1_555
Na4 O6 2.903404 1_555
Na5 O99 2.360850 1_555
Na5 O141 2.518725 1_545
Na5 O143 2.519898 1_545
Na5 O97 2.591949 1_555
Na5 O27 2.799997 1_555
Na5 O7 2.844799 1_555
Na5 O69 2.850864 1_545
Na5 O17 2.878697 1_545
Na6 O72 2.461077 1_655
Na6 O75 2.503070 1_555
Na6 O76 2.518955 1_665
Na6 O85 2.843423 1_565
Na6 O89 2.857703 1_555
Na6 O86 2.870843 1_665
Na7 O77 2.569915 1_555
Na7 O73 2.632924 1_545
Na7 O87 2.652306 1_555
Na7 O84 2.722405 1_555
Na7 O88 2.734855 1_545
Na7 O74 2.764224 1_545
Na8 O78 2.555241 1_555
Na8 O80 2.561461 1_545
Na8 O94 2.578745 1_556
Na8 O91 2.760352 1_446
Na8 O83 2.804231 1_445
Na8 O93 2.819047 1_456
Na9 O81 2.450534 1_555
Na9 O90 2.641119 1_556
Na9 O82 2.648541 1_555
Na9 O79 2.707414 1_565
Na9 O95 2.761682 1_566
Na9 O92 2.831868 1_566
Na10 O100 2.520775 1_555
Na10 O98 2.521261 1_555
Na10 O96 2.540724 1_555
Na10 O112 2.753728 1_555
Na10 O108 2.839594 1_555
Na10 O110 2.908596 1_555
Na11 O99 2.495511 1_555
Na11 O97 2.553658 1_555
Na11 O101 2.714597 1_555
Na11 O113 2.766522 1_555
Na11 O111 2.796733 1_555
Na11 O109 2.869230 1_555
Na12 O104 2.570933 1_555
Na12 O106 2.590130 1_555
Na12 O102 2.685136 1_555
Na12 O118 2.761966 1_555
Na12 O116 2.768084 1_555
Na12 O114 2.815782 1_555
Na13 O119 2.655904 1_555
Na13 O117 2.663871 1_555
Na13 O103 2.670232 1_555
Na13 O115 2.670380 1_555
Na13 O105 2.784343 1_555
Na13 O107 2.794182 1_555
Na14 O120 2.545735 1_555
Na14 O132 2.667621 1_555
Na14 O134 2.682145 1_555
Na14 O124 2.701777 1_555
Na14 O136 2.725776 1_555
Na14 O122 2.757226 1_555
Na15 O137 2.492766 1_555
Na15 O135 2.501512 1_555
Na15 O133 2.602442 1_555
Na15 O123 2.718208 1_555
Na15 O121 2.858173 1_555
Na15 O125 2.864657 1_555
Na16 O142 2.491250 1_555
Na16 O138 2.527809 1_555
Na16 O128 2.695707 1_555
Na16 O140 2.758855 1_555
Na16 O126 2.805428 1_555
Na16 O130 2.808634 1_555
Na17 O143 2.612658 1_555
Na17 O139 2.652184 1_555
Na17 O129 2.664818 1_555
Na17 O141 2.700655 1_555
Na17 O127 2.725789 1_555
Na17 O131 2.734839 1_555
O0 Si0 1.614274 1_555
O0 Zr0 2.054029 1_445
O1 S0 1.491926 1_555
O1 Zr1 2.201672 1_555
O2 S1 1.468093 1_555
O2 Zr1 2.265723 1_565
O3 Si1 1.634792 1_555
O3 Zr0 2.064385 1_555
O4 Si2 1.646063 1_555
O4 Zr1 1.996689 1_555
O5 S2 1.457883 1_555
O5 Zr0 2.337401 1_545
O6 Si3 1.653011 1_555
O6 Zr2 1.969718 1_555
O7 Si4 1.647199 1_555
O7 Zr3 1.981569 1_545
O8 Si5 1.633587 1_555
O8 Zr3 1.960267 1_555
O9 S3 1.468246 1_555
O9 Zr2 2.308098 1_665
O10 Si6 1.639936 1_545
O10 Zr3 2.033164 1_545
O11 Si7 1.626618 1_555
O11 Zr2 2.055297 1_655
O12 Si6 1.651571 1_555
O12 Zr5 1.964665 1_565
O13 Si7 1.657260 1_565
O13 Zr4 1.943265 1_565
O14 Si3 1.667986 1_555
O14 Zr4 1.963768 1_455
O15 Si4 1.653212 1_555
O15 Zr5 1.990302 1_555
O16 S3 1.496157 1_455
O16 Zr4 2.185801 1_465
O17 Si5 1.647507 1_555
O17 Zr5 1.993127 1_565
O18 S1 1.494324 1_555
O18 Zr7 2.156557 1_565
O19 Si1 1.652322 1_555
O19 Zr6 2.005552 1_655
O20 S2 1.486473 1_455
O20 Zr6 2.184135 1_545
O21 Si2 1.674651 1_555
O21 Zr7 1.978436 1_555
O22 Si0 1.665362 1_565
O22 Zr6 1.955726 1_555
O23 S0 1.499921 1_565
O23 Zr7 2.134443 1_565
O24 S4 1.466554 1_555
O24 Zn0 2.281957 1_555
O25 S5 1.465886 1_555
O25 Zn1 2.290813 1_555
O26 S6 1.463760 1_555
O26 Zn0 2.292842 1_555
O27 S7 1.477749 1_555
O27 Zn1 2.102699 1_555
O28 S8 1.453609 1_555
O28 Zn0 2.228018 1_555
O29 S9 1.470319 1_555
O29 Zn1 2.133291 1_555
O30 Si8 1.619217 1_555
O30 Zr8 2.030748 1_555
O31 S10 1.472343 1_555
O31 Zn2 2.115202 1_555
O32 S11 1.470849 1_555
O32 Zr8 2.214845 1_555
O33 S12 1.467697 1_555
O33 Zn2 2.194477 1_555
O34 Si9 1.626426 1_555
O34 Zr8 2.024388 1_555
O35 S13 1.471216 1_555
O35 Zn2 2.138627 1_555
O36 Si9 1.658662 1_555
O36 Zr9 1.945514 1_554
O37 S13 1.480614 1_555
O37 Zr10 2.245786 1_554
O38 Si8 1.629492 1_555
O38 Zr9 2.037558 1_554
O39 S10 1.480083 1_555
O39 Zr10 2.245493 1_554
O40 S11 1.479550 1_555
O40 Zr9 2.208606 1_554
O41 S12 1.503677 1_555
O41 Zr10 2.133375 1_554
O42 S6 1.488776 1_555
O42 Zr11 2.266545 1_555
O43 S7 1.480738 1_555
O43 Zr12 2.243570 1_555
O44 S8 1.504256 1_555
O44 Zr11 2.124867 1_555
O45 S9 1.483167 1_555
O45 Zr12 2.262136 1_555
O46 S4 1.495524 1_555
O46 Zr11 2.221601 1_555
O47 S5 1.467945 1_555
O47 Zr12 2.284210 1_555
O48 S14 1.477367 1_555
O48 Zr13 2.198629 1_556
O49 S15 1.479316 1_555
O49 Zr14 2.266774 1_556
O50 Si10 1.633579 1_555
O50 Zr13 1.944772 1_556
O51 S16 1.501815 1_555
O51 Zr14 2.146252 1_556
O52 Si11 1.640848 1_555
O52 Zr13 2.002269 1_556
O53 Si12 1.650136 1_555
O53 Zr14 1.929503 1_556
O54 S17 1.478310 1_555
O54 Zr15 2.196398 1_555
O55 Si13 1.647039 1_555
O55 Zr16 1.955687 1_555
O56 Si14 1.654694 1_555
O56 Zr15 1.933037 1_555
O57 Si15 1.622990 1_555
O57 Zr16 1.979156 1_555
O58 Si16 1.642094 1_555
O58 Zr15 1.931942 1_555
O59 Si17 1.635226 1_555
O59 Zr16 1.976924 1_555
O60 Si16 1.650835 1_555
O60 Zr17 1.972740 1_555
O61 Si17 1.617309 1_555
O61 Zr18 2.030491 1_555
O62 S17 1.480596 1_555
O62 Zr17 2.192513 1_555
O63 Si13 1.627598 1_555
O63 Zr18 2.008515 1_555
O64 Si14 1.640477 1_555
O64 Zr17 1.991974 1_555
O65 Si15 1.626204 1_555
O65 Zr18 2.014067 1_555
O66 Si10 1.627523 1_555
O66 Zr19 2.060910 1_555
O67 S16 1.484134 1_555
O67 Zr20 2.289996 1_555
O68 Si11 1.654261 1_555
O68 Zr19 2.006507 1_555
O69 Si12 1.629228 1_555
O69 Zr20 2.042550 1_555
O70 S14 1.491180 1_555
O70 Zr19 2.129439 1_555
O71 S15 1.479261 1_555
O71 Zr20 2.238708 1_555
O72 Si16 1.607450 1_555
O72 Zr0 2.019342 1_455
O73 Si17 1.634807 1_555
O73 Zr1 2.044540 1_565
O74 S17 1.479907 1_555
O74 Zr1 2.216070 1_565
O75 Si13 1.614597 1_555
O75 Zr0 2.068299 1_555
O76 Si14 1.599202 1_555
O76 Zr0 2.104352 1_445
O77 Si15 1.648364 1_555
O77 Zr1 1.975796 1_555
O78 Si10 1.627275 1_555
O78 Zr2 2.007345 1_555
O79 S16 1.478348 1_555
O79 Zr3 2.347163 1_545
O80 Si11 1.634323 1_555
O80 Zr2 2.063280 1_565
O81 Si12 1.617166 1_555
O81 Zr3 2.113636 1_555
O82 S14 1.470085 1_555
O82 Zr3 2.337533 1_555
O83 S15 1.470658 1_555
O83 Zr2 2.338980 1_665
O84 S4 1.503509 1_555
O84 Zr5 2.292227 1_555
O85 S5 1.508798 1_555
O85 Zr4 2.180914 1_555
O86 S6 1.503643 1_555
O86 Zr4 2.287747 1_455
O87 S7 1.496996 1_555
O87 Zr5 2.314482 1_555
O88 S8 1.493428 1_555
O88 Zr5 2.312986 1_565
O89 S9 1.510366 1_555
O89 Zr4 2.229192 1_565
O90 Si8 1.651770 1_555
O90 Zr7 2.048022 1_565
O91 S10 1.491971 1_555
O91 Zr6 2.233473 1_655
O92 S11 1.500995 1_555
O92 Zr7 2.180984 1_555
O93 S12 1.475171 1_555
O93 Zr6 2.354413 1_645
O94 Si9 1.645035 1_555
O94 Zr6 2.070690 1_545
O95 S13 1.505632 1_555
O95 Zr7 2.209672 1_555
O96 Si6 1.614571 1_545
O96 Zn0 2.047002 1_555
O97 Si7 1.627904 1_555
O97 Zn1 2.067428 1_555
O98 Si3 1.594226 1_555
O98 Zn0 1.987071 1_555
O99 Si4 1.611731 1_555
O99 Zn1 1.977542 1_555
O100 Si5 1.592742 1_555
O100 Zn0 1.978165 1_555
O101 S3 1.468560 1_555
O101 Zn1 2.279844 1_555
O102 S1 1.480829 1_555
O102 Zr8 2.208862 1_555
O103 Si1 1.671541 1_555
O103 Zn2 1.981457 1_555
O104 Si2 1.614796 1_555
O104 Zr8 2.079151 1_555
O105 S2 1.485916 1_555
O105 Zn2 2.208067 1_555
O106 Si0 1.615273 1_555
O106 Zr8 2.072630 1_555
O107 S0 1.480716 1_555
O107 Zn2 2.249179 1_555
O108 S14 1.485273 1_555
O108 Zr9 2.201318 1_555
O109 S15 1.498903 1_555
O109 Zr10 2.163595 1_555
O110 S16 1.474963 1_555
O110 Zr9 2.338731 1_555
O111 Si10 1.650748 1_655
O111 Zr10 1.964368 1_555
O112 Si11 1.646065 1_545
O112 Zr9 2.056327 1_555
O113 Si12 1.654635 1_545
O113 Zr10 1.962894 1_555
O114 S17 1.481855 1_545
O114 Zr11 2.219959 1_555
O115 Si13 1.646541 1_545
O115 Zr12 1.963045 1_555
O116 Si14 1.651956 1_555
O116 Zr11 1.969911 1_555
O117 Si15 1.630951 1_555
O117 Zr12 1.976203 1_555
O118 Si17 1.663905 1_555
O118 Zr11 1.956438 1_555
O119 Si16 1.619962 1_655
O119 Zr12 2.000805 1_555
O120 Si9 1.645792 1_555
O120 Zr13 2.067685 1_555
O121 S13 1.487226 1_555
O121 Zr14 2.279680 1_555
O122 S10 1.497366 1_455
O122 Zr13 2.201022 1_555
O123 Si8 1.673327 1_555
O123 Zr14 1.964724 1_555
O124 S11 1.477217 1_565
O124 Zr13 2.314111 1_555
O125 S12 1.504406 1_565
O125 Zr14 2.199029 1_555
O126 S6 1.505366 1_565
O126 Zr15 2.257132 1_555
O127 S7 1.494627 1_565
O127 Zr16 2.284703 1_555
O128 S8 1.502297 1_555
O128 Zr15 2.252374 1_555
O129 S9 1.494427 1_555
O129 Zr16 2.344176 1_555
O130 S5 1.512719 1_455
O130 Zr15 2.180455 1_555
O131 S4 1.496012 1_555
O131 Zr16 2.311998 1_555
O132 Si0 1.666366 1_565
O132 Zr17 2.091233 1_555
O133 S0 1.463931 1_565
O133 Zr18 2.327928 1_555
O134 S1 1.483801 1_555
O134 Zr17 2.298709 1_555
O135 Si1 1.632810 1_555
O135 Zr18 2.155502 1_555
O136 S2 1.520744 1_455
O136 Zr17 2.220026 1_555
O137 Si2 1.627864 1_555
O137 Zr18 2.165490 1_555
O138 Si3 1.636634 1_555
O138 Zr19 2.130353 1_555
O139 Si4 1.631946 1_555
O139 Zr20 2.065634 1_555
O140 S3 1.511868 1_455
O140 Zr19 2.295995 1_555
O141 Si5 1.667692 1_555
O141 Zr20 2.024277 1_555
O142 Si6 1.653003 1_555
O142 Zr19 2.072069 1_555
O143 Si7 1.641999 1_565
O143 Zr20 2.019796 1_555
