# generated using pymatgen
data_MgFe6O7F5
_symmetry_space_group_name_H-M   'P 1'
_cell_length_a   5.17638781
_cell_length_b   5.22729175
_cell_length_c   8.87615836
_cell_angle_alpha   87.57865331
_cell_angle_beta   92.16980611
_cell_angle_gamma   102.03149804
_symmetry_Int_Tables_number   1
_chemical_formula_structural   MgFe6O7F5
_chemical_formula_sum   'Mg1 Fe6 O7 F5'
_cell_volume   234.58604399
_cell_formula_units_Z   1
loop_
 _symmetry_equiv_pos_site_id
 _symmetry_equiv_pos_as_xyz
  1  'x, y, z'
loop_
 _atom_site_type_symbol
 _atom_site_label
 _atom_site_symmetry_multiplicity
 _atom_site_fract_x
 _atom_site_fract_y
 _atom_site_fract_z
 _atom_site_occupancy
  Mg  Mg0  1  0.52875973  0.05108931  0.64605976  1
  Fe  Fe0  1  0.96080097  0.01290115  0.01944253  1
  Fe  Fe1  1  0.02820961  0.02232908  0.34448005  1
  Fe  Fe2  1  0.00900691  0.95879832  0.67413304  1
  Fe  Fe3  1  0.56445787  0.40143298  0.16405652  1
  Fe  Fe4  1  0.45418465  0.52893657  0.84710180  1
  Fe  Fe5  1  0.40891260  0.55941538  0.49967716  1
  O  O0  1  0.22461340  0.84267378  0.50456123  1
  O  O1  1  0.29624321  0.27952394  0.00184934  1
  O  O2  1  0.32036492  0.32522611  0.33549968  1
  O  O3  1  0.30109015  0.30044686  0.67209081  1
  O  O4  1  0.70808738  0.67165563  0.00681751  1
  O  O5  1  0.65520647  0.71378838  0.66924001  1
  O  O6  1  0.81127204  0.16683832  0.17931827  1
  F  F0  1  0.15933756  0.84504893  0.18067294  1
  F  F1  1  0.23341196  0.80245658  0.84109113  1
  F  F2  1  0.71738613  0.69129460  0.34835329  1
  F  F3  1  0.78999454  0.15618896  0.82930167  1
  F  F4  1  0.81476691  0.16995210  0.50054127  1
loop_
_geom_bond_atom_site_label_1
_geom_bond_atom_site_label_2
_geom_bond_distance
_geom_bond_site_symmetry_2
Mg0 O3 1.956468 1_555
Mg0 O5 2.004944 1_545
Mg0 O0 2.119866 1_545
Fe0 O6 1.923466 1_555
Fe0 O4 1.984611 1_545
Fe0 O1 1.993760 1_655
Fe1 O2 1.949507 1_555
Fe1 O0 2.027413 1_545
Fe1 O6 2.028846 1_455
Fe2 O5 2.004258 1_455
Fe2 O3 2.085510 1_565
Fe2 O0 2.089586 1_555
Fe3 O6 1.944338 1_555
Fe3 O2 1.988831 1_555
Fe3 O1 1.990971 1_555
Fe3 O4 1.992512 1_555
Fe4 O1 1.934996 1_556
Fe4 O4 1.957860 1_556
Fe4 O5 2.021180 1_555
Fe4 O3 2.033875 1_555
Fe5 O2 1.923162 1_555
Fe5 O0 1.924020 1_555
Fe5 O3 2.015119 1_555
Fe5 O5 2.017479 1_555
F0 Fe1 1.970877 1_565
F0 Fe0 2.008121 1_465
F1 Fe4 2.005796 1_555
F1 Fe2 2.092001 1_555
F1 Mg0 2.491029 1_565
F1 Fe0 2.582835 1_466
F2 Fe1 2.103014 1_665
F2 Fe5 2.110523 1_555
F2 Fe3 2.282495 1_555
F3 Fe0 2.060930 1_556
F3 Mg0 2.091675 1_555
F3 Fe2 2.229990 1_645
F4 Mg0 1.984875 1_555
F4 Fe1 2.072847 1_655
F4 Fe2 2.192043 1_645
