# generated using pymatgen
data_Na10Zr4Si9Sn4(SO16)3
_symmetry_space_group_name_H-M   'P 1'
_cell_length_a   18.16554628
_cell_length_b   9.09309639
_cell_length_c   22.94116523
_cell_angle_alpha   90.00839307
_cell_angle_beta   90.06065419
_cell_angle_gamma   119.88594663
_symmetry_Int_Tables_number   1
_chemical_formula_structural   Na10Zr4Si9Sn4(SO16)3
_chemical_formula_sum   'Na30 Zr12 Si27 Sn12 S9 O144'
_cell_volume   3285.51887113
_cell_formula_units_Z   3
loop_
 _symmetry_equiv_pos_site_id
 _symmetry_equiv_pos_as_xyz
  1  'x, y, z'
loop_
 _atom_site_type_symbol
 _atom_site_label
 _atom_site_symmetry_multiplicity
 _atom_site_fract_x
 _atom_site_fract_y
 _atom_site_fract_z
 _atom_site_occupancy
  Na  Na0  1  0.32192381  0.99970615  0.24936291  1
  Na  Na1  1  0.82086287  0.99868890  0.24945829  1
  Na  Na2  1  0.18356699  0.98914077  0.74755768  1
  Na  Na3  1  0.68421353  0.99496860  0.74726670  1
  Na  Na4  1  0.01701487  0.70356831  0.58098153  1
  Na  Na5  1  0.51742067  0.70562332  0.57989392  1
  Na  Na6  1  0.01605140  0.32935525  0.08061220  1
  Na  Na7  1  0.51723769  0.32761371  0.07983275  1
  Na  Na8  1  0.48369230  0.66596777  0.91369704  1
  Na  Na9  1  0.34977164  0.03106373  0.91541924  1
  Na  Na10  1  0.85138549  0.04121369  0.91340471  1
  Na  Na11  1  0.16519872  0.30623309  0.91931452  1
  Na  Na12  1  0.48508402  0.30542707  0.41437241  1
  Na  Na13  1  0.98432671  0.30435481  0.41400730  1
  Na  Na14  1  0.16569256  0.02834438  0.41872201  1
  Na  Na15  1  0.66608073  0.02726460  0.41896247  1
  Na  Na16  1  0.34896455  0.66731214  0.41669014  1
  Na  Na17  1  0.84992244  0.66815491  0.41535834  1
  Na  Na18  1  0.00033521  0.00082891  0.50163594  1
  Na  Na19  1  0.50183140  0.00184631  0.50092131  1
  Na  Na20  1  0.00493623  0.99838341  0.00205409  1
  Na  Na21  1  0.50626375  0.01040524  0.99792390  1
  Na  Na22  1  0.34316362  0.34259620  0.83198637  1
  Na  Na23  1  0.84459861  0.34583708  0.83319776  1
  Na  Na24  1  0.34013609  0.35154132  0.33152045  1
  Na  Na25  1  0.83927739  0.35109406  0.33064924  1
  Na  Na26  1  0.17208984  0.65881972  0.16496468  1
  Na  Na27  1  0.67360860  0.65847899  0.16681983  1
  Na  Na28  1  0.17627423  0.67590131  0.66690554  1
  Na  Na29  1  0.67698163  0.67538885  0.66583088  1
  Zr  Zr0  1  0.49538945  0.99595790  0.35165321  1
  Zr  Zr1  1  0.49332973  0.98449031  0.64801861  1
  Zr  Zr2  1  0.49731821  0.00905717  0.14607190  1
  Zr  Zr3  1  0.33314202  0.33385580  0.68655154  1
  Zr  Zr4  1  0.83485592  0.33490884  0.68737271  1
  Zr  Zr5  1  0.32983382  0.33600374  0.18499038  1
  Zr  Zr6  1  0.32719128  0.32156492  0.97943224  1
  Zr  Zr7  1  0.32712218  0.33071181  0.48174128  1
  Zr  Zr8  1  0.82928127  0.33404098  0.48200323  1
  Zr  Zr9  1  0.67494468  0.67759645  0.51873007  1
  Zr  Zr10  1  0.16483256  0.65321985  0.31339237  1
  Zr  Zr11  1  0.66632017  0.65435657  0.31370619  1
  Si  Si0  1  0.35237603  0.70306203  0.24975659  1
  Si  Si1  1  0.85608716  0.70532549  0.24901685  1
  Si  Si2  1  0.99855516  0.29490797  0.24844282  1
  Si  Si3  1  0.50001534  0.30026825  0.24947484  1
  Si  Si4  1  0.00060008  0.70562106  0.75209052  1
  Si  Si5  1  0.49930055  0.70474144  0.75206623  1
  Si  Si6  1  0.35148361  0.99622554  0.75318650  1
  Si  Si7  1  0.85399154  0.99539520  0.75222302  1
  Si  Si8  1  0.18259345  0.03464392  0.58519539  1
  Si  Si9  1  0.68448276  0.03819693  0.58513445  1
  Si  Si10  1  0.32815977  0.62377809  0.58251775  1
  Si  Si11  1  0.83235200  0.62769769  0.58442029  1
  Si  Si12  1  0.32791322  0.03162525  0.08331051  1
  Si  Si13  1  0.83051674  0.03693761  0.08416171  1
  Si  Si14  1  0.18275223  0.33160764  0.08256256  1
  Si  Si15  1  0.69000602  0.33748446  0.08208729  1
  Si  Si16  1  0.31192147  0.66710830  0.91460167  1
  Si  Si17  1  0.01997379  0.37897144  0.91740369  1
  Si  Si18  1  0.52513291  0.37792751  0.91713125  1
  Si  Si19  1  0.16119205  0.95026131  0.91648987  1
  Si  Si20  1  0.66688763  0.95979120  0.91665234  1
  Si  Si21  1  0.31174812  0.95865441  0.41478769  1
  Si  Si22  1  0.81473653  0.96283817  0.41329688  1
  Si  Si23  1  0.16351347  0.37317360  0.41778455  1
  Si  Si24  1  0.66552833  0.37304797  0.41805319  1
  Si  Si25  1  0.02229878  0.66930131  0.41765736  1
  Si  Si26  1  0.52100675  0.66511285  0.41803309  1
  Sn  Sn0  1  0.99569997  0.99674179  0.35121864  1
  Sn  Sn1  1  0.99874665  0.99780767  0.85172351  1
  Sn  Sn2  1  0.49735140  0.99835785  0.85395266  1
  Sn  Sn3  1  0.99492586  0.98140818  0.64923606  1
  Sn  Sn4  1  0.99641047  0.00769559  0.14715395  1
  Sn  Sn5  1  0.83187426  0.33717560  0.18494358  1
  Sn  Sn6  1  0.82987567  0.31986061  0.98194234  1
  Sn  Sn7  1  0.17188785  0.67052073  0.01695697  1
  Sn  Sn8  1  0.66882918  0.66870360  0.01941370  1
  Sn  Sn9  1  0.17224494  0.67529323  0.51777994  1
  Sn  Sn10  1  0.16574486  0.67057943  0.81677750  1
  Sn  Sn11  1  0.66485338  0.67479615  0.81382324  1
  S  S0  1  0.14378294  0.99964538  0.24953721  1
  S  S1  1  0.64743270  0.00156356  0.24984591  1
  S  S2  1  0.14363399  0.29172281  0.74931631  1
  S  S3  1  0.64484505  0.29396958  0.75117930  1
  S  S4  1  0.47992180  0.33317379  0.58304077  1
  S  S5  1  0.98117673  0.33012057  0.58352634  1
  S  S6  1  0.48029320  0.62530836  0.08241782  1
  S  S7  1  0.97888081  0.62642307  0.08273000  1
  S  S8  1  0.81253055  0.66396023  0.91613608  1
  O  O0  1  0.10711721  0.02622068  0.30403046  1
  O  O1  1  0.60823025  0.02311268  0.30334233  1
  O  O2  1  0.40739991  0.78739598  0.30963729  1
  O  O3  1  0.91123969  0.78362788  0.30983142  1
  O  O4  1  0.48658510  0.18053108  0.30694717  1
  O  O5  1  0.98055293  0.17486630  0.30723270  1
  O  O6  1  0.10803847  0.18924803  0.80385343  1
  O  O7  1  0.60687608  0.18580648  0.80375794  1
  O  O8  1  0.48894148  0.79484073  0.81076746  1
  O  O9  1  0.98543923  0.79853985  0.80802801  1
  O  O10  1  0.40957732  0.03375582  0.81204697  1
  O  O11  1  0.90887855  0.02931274  0.81269518  1
  O  O12  1  0.40111234  0.97803149  0.69667980  1
  O  O13  1  0.90045389  0.97395976  0.69465211  1
  O  O14  1  0.09036130  0.20904804  0.69787587  1
  O  O15  1  0.59311217  0.21634175  0.69868056  1
  O  O16  1  0.02424888  0.82679043  0.69316894  1
  O  O17  1  0.51782460  0.82781353  0.69459570  1
  O  O18  1  0.40423443  0.82959865  0.19533999  1
  O  O19  1  0.90206732  0.83142569  0.19335158  1
  O  O20  1  0.01665429  0.21460381  0.19015428  1
  O  O21  1  0.51283942  0.20759000  0.19157403  1
  O  O22  1  0.09095436  0.97623961  0.19761054  1
  O  O23  1  0.59500081  0.98189622  0.19764738  1
  O  O24  1  0.43694718  0.35663622  0.63422347  1
  O  O25  1  0.93846377  0.35604402  0.63464473  1
  O  O26  1  0.24180887  0.12464642  0.64235713  1
  O  O27  1  0.74281450  0.12871121  0.64276995  1
  O  O28  1  0.32157919  0.50589279  0.63819156  1
  O  O29  1  0.82590083  0.50884606  0.63950676  1
  O  O30  1  0.43841513  0.51627309  0.13370754  1
  O  O31  1  0.94084132  0.51747649  0.13526868  1
  O  O32  1  0.32055499  0.12830369  0.14149587  1
  O  O33  1  0.81820346  0.12566643  0.14288391  1
  O  O34  1  0.24427715  0.36112141  0.13818211  1
  O  O35  1  0.74874183  0.37205604  0.13977051  1
  O  O36  1  0.22732416  0.30946923  0.02372691  1
  O  O37  1  0.73390000  0.31357303  0.02352272  1
  O  O38  1  0.43025473  0.55092993  0.02899549  1
  O  O39  1  0.92541295  0.55046132  0.02992986  1
  O  O40  1  0.34834765  0.15713399  0.02650124  1
  O  O41  1  0.85490857  0.16026702  0.02622253  1
  O  O42  1  0.22755464  0.14616198  0.52622068  1
  O  O43  1  0.73118512  0.14912823  0.52629949  1
  O  O44  1  0.34889556  0.54442525  0.52441503  1
  O  O45  1  0.85113551  0.54633155  0.52575082  1
  O  O46  1  0.42907301  0.30724268  0.52944820  1
  O  O47  1  0.93047909  0.30518871  0.52976764  1
  O  O48  1  0.27390227  0.71293234  0.97173410  1
  O  O49  1  0.77475015  0.69709931  0.96874005  1
  O  O50  1  0.07867716  0.45260700  0.97640426  1
  O  O51  1  0.57942920  0.45981338  0.97738521  1
  O  O52  1  0.14533354  0.83271769  0.97331630  1
  O  O53  1  0.64784290  0.83143741  0.97208769  1
  O  O54  1  0.27326721  0.83354843  0.47102624  1
  O  O55  1  0.77109743  0.83720116  0.46934545  1
  O  O56  1  0.14078368  0.45400704  0.47373028  1
  O  O57  1  0.64555991  0.45874359  0.47337188  1
  O  O58  1  0.07945540  0.70662905  0.47748348  1
  O  O59  1  0.57779648  0.69894703  0.47713378  1
  O  O60  1  0.06717459  0.63386617  0.36257420  1
  O  O61  1  0.56725824  0.63269330  0.36263649  1
  O  O62  1  0.25309844  0.88123078  0.35674024  1
  O  O63  1  0.75536340  0.88383617  0.35587398  1
  O  O64  1  0.18624504  0.49684936  0.36120415  1
  O  O65  1  0.68666588  0.49613528  0.36123625  1
  O  O66  1  0.06320432  0.49005485  0.85935558  1
  O  O67  1  0.56907151  0.50289685  0.86097154  1
  O  O68  1  0.18584459  0.88433555  0.85741861  1
  O  O69  1  0.69114858  0.88633844  0.85821241  1
  O  O70  1  0.24798317  0.61841347  0.85881462  1
  O  O71  1  0.76039884  0.63586742  0.86348146  1
  O  O72  1  0.01463466  0.84199631  0.41020373  1
  O  O73  1  0.51273933  0.83574969  0.41089043  1
  O  O74  1  0.40719438  0.98086577  0.41072039  1
  O  O75  1  0.90877861  0.97822965  0.41157584  1
  O  O76  1  0.08133879  0.18244100  0.40852457  1
  O  O77  1  0.58424843  0.18341857  0.41021919  1
  O  O78  1  0.00795888  0.18293851  0.91108991  1
  O  O79  1  0.51064776  0.18556886  0.91131940  1
  O  O80  1  0.08164936  0.98969015  0.91058413  1
  O  O81  1  0.57985495  0.97000180  0.91016449  1
  O  O82  1  0.40675959  0.83606294  0.91103052  1
  O  O83  1  0.89699315  0.82347752  0.91203971  1
  O  O84  1  0.49043862  0.18326156  0.58966253  1
  O  O85  1  0.99128460  0.18032205  0.59040311  1
  O  O86  1  0.08821344  0.02123082  0.59015152  1
  O  O87  1  0.59025581  0.02182427  0.58886892  1
  O  O88  1  0.41602786  0.81053427  0.58848522  1
  O  O89  1  0.92018322  0.81466045  0.58735060  1
  O  O90  1  0.49194121  0.79773082  0.08953242  1
  O  O91  1  0.98932865  0.79787024  0.08969040  1
  O  O92  1  0.41683888  0.02158786  0.08752374  1
  O  O93  1  0.91806534  0.02288813  0.08719161  1
  O  O94  1  0.08863544  0.15589303  0.08843666  1
  O  O95  1  0.59474025  0.16800893  0.08797914  1
  O  O96  1  0.33583178  0.15959872  0.74590229  1
  O  O97  1  0.83664148  0.15616019  0.74605338  1
  O  O98  1  0.22806964  0.30300080  0.74432517  1
  O  O99  1  0.72963235  0.30563630  0.74600225  1
  O  O100  1  0.41599371  0.51782315  0.74487382  1
  O  O101  1  0.91671878  0.51869530  0.74512526  1
  O  O102  1  0.34129672  0.51514962  0.24444574  1
  O  O103  1  0.84480307  0.51558119  0.24380329  1
  O  O104  1  0.40993564  0.30001153  0.24439309  1
  O  O105  1  0.90753658  0.29584123  0.24298721  1
  O  O106  1  0.22989586  0.15183892  0.24488928  1
  O  O107  1  0.73353896  0.15507913  0.24625905  1
  O  O108  1  0.32448273  0.50152287  0.92188270  1
  O  O109  1  0.82454412  0.51569624  0.92275604  1
  O  O110  1  0.43070597  0.36272760  0.92270673  1
  O  O111  1  0.92345873  0.35480362  0.92368596  1
  O  O112  1  0.24720363  0.14164816  0.92267603  1
  O  O113  1  0.75374798  0.14599019  0.92186944  1
  O  O114  1  0.32457683  0.14850658  0.42320088  1
  O  O115  1  0.82713423  0.15166902  0.42289304  1
  O  O116  1  0.24790064  0.35222345  0.42344469  1
  O  O117  1  0.75097954  0.35533436  0.42293726  1
  O  O118  1  0.42654484  0.49587964  0.42300531  1
  O  O119  1  0.92844808  0.50074918  0.42377111  1
  O  O120  1  0.16590182  0.49392769  0.07854233  1
  O  O121  1  0.67219650  0.50026486  0.07757692  1
  O  O122  1  0.06254021  0.63634861  0.07728693  1
  O  O123  1  0.56433225  0.63437119  0.07951801  1
  O  O124  1  0.24227873  0.84658335  0.07908319  1
  O  O125  1  0.74540820  0.85026538  0.07699476  1
  O  O126  1  0.16688109  0.83920601  0.57962968  1
  O  O127  1  0.66884453  0.84394624  0.58076109  1
  O  O128  1  0.24233144  0.63728750  0.57891141  1
  O  O129  1  0.74713574  0.64196046  0.58089909  1
  O  O130  1  0.06426840  0.48968465  0.57951046  1
  O  O131  1  0.56283540  0.49011127  0.57940248  1
  O  O132  1  0.15486513  0.84985047  0.25378342  1
  O  O133  1  0.65772852  0.85092042  0.25325572  1
  O  O134  1  0.26244443  0.70471754  0.25262497  1
  O  O135  1  0.76538241  0.70431649  0.25365042  1
  O  O136  1  0.08048707  0.48413047  0.25397560  1
  O  O137  1  0.58333610  0.48775886  0.25258520  1
  O  O138  1  0.15363598  0.46279231  0.75403294  1
  O  O139  1  0.65626694  0.46599411  0.75755703  1
  O  O140  1  0.08791612  0.69257658  0.75651952  1
  O  O141  1  0.58851914  0.69614652  0.75371695  1
  O  O142  1  0.25673126  0.82426136  0.75571622  1
  O  O143  1  0.75896368  0.82085305  0.75617965  1
loop_
_geom_bond_atom_site_label_1
_geom_bond_atom_site_label_2
_geom_bond_distance
_geom_bond_site_symmetry_2
Na0 O134 2.340958 1_555
Na0 O104 2.382350 1_565
Na0 O132 2.637477 1_555
Na0 O106 2.650138 1_565
Na0 O62 2.730734 1_555
Na0 O32 2.742501 1_565
Na0 O18 2.910748 1_555
Na0 O4 2.912994 1_565
Na1 O135 2.345606 1_555
Na1 O105 2.358602 1_565
Na1 O133 2.574369 1_555
Na1 O107 2.606107 1_565
Na1 O63 2.689779 1_555
Na1 O33 2.714660 1_565
Na1 O5 2.845732 1_565
Na1 O19 2.895737 1_555
Na2 O140 2.380110 1_555
Na2 O96 2.404645 1_565
Na2 O142 2.456533 1_555
Na2 O98 2.550507 1_565
Na2 O26 2.677564 1_565
Na2 O68 2.702186 1_555
Na2 O16 2.801094 1_555
Na3 O141 2.391758 1_555
Na3 O97 2.402460 1_565
Na3 O99 2.517773 1_565
Na3 O143 2.556221 1_555
Na3 O27 2.659934 1_565
Na3 O69 2.755689 1_555
Na3 O17 2.884365 1_555
Na3 O7 3.016157 1_565
Na4 O126 2.363827 1_555
Na4 O89 2.430461 1_455
Na4 O130 2.486804 1_555
Na4 O86 2.517318 1_565
Na4 O58 2.626635 1_555
Na4 O16 2.783597 1_555
Na4 O45 2.903020 1_455
Na4 O25 3.008155 1_455
Na5 O127 2.387631 1_555
Na5 O88 2.468410 1_555
Na5 O131 2.476322 1_555
Na5 O87 2.503630 1_565
Na5 O59 2.614548 1_555
Na5 O17 2.854781 1_555
Na5 O44 2.942735 1_555
Na5 O24 3.023706 1_555
Na6 O120 2.364820 1_555
Na6 O93 2.452441 1_455
Na6 O122 2.482435 1_555
Na6 O94 2.516103 1_555
Na6 O50 2.646022 1_554
Na6 O20 2.723285 1_555
Na6 O41 2.827753 1_455
Na6 O31 2.949068 1_455
Na7 O121 2.446927 1_555
Na7 O92 2.458480 1_555
Na7 O123 2.476790 1_555
Na7 O95 2.481743 1_555
Na7 O51 2.626440 1_554
Na7 O21 2.771871 1_555
Na7 O40 2.926510 1_555
Na7 O30 2.995281 1_555
Na8 O81 2.426683 1_555
Na8 O110 2.434763 1_555
Na8 O108 2.515382 1_555
Na8 O82 2.550099 1_555
Na8 O8 2.616891 1_555
Na8 O38 2.833249 1_556
Na8 O67 2.891822 1_555
Na8 O53 2.910282 1_555
Na9 O82 2.460763 1_545
Na9 O112 2.525487 1_555
Na9 O79 2.536164 1_555
Na9 O10 2.604565 1_555
Na9 O110 2.620214 1_555
Na9 O40 2.799599 1_556
Na9 O48 2.822865 1_545
Na9 O68 2.906856 1_545
Na10 O113 2.403308 1_555
Na10 O78 2.469996 1_655
Na10 O111 2.485867 1_555
Na10 O83 2.498411 1_545
Na10 O11 2.560870 1_555
Na10 O41 2.793646 1_556
Na10 O69 2.822368 1_545
Na10 O49 3.000744 1_545
Na11 O78 2.501752 1_555
Na11 O80 2.504843 1_545
Na11 O108 2.531453 1_555
Na11 O112 2.585794 1_555
Na11 O36 2.640700 1_556
Na11 O70 2.827970 1_555
Na11 O50 2.836496 1_555
Na11 O6 2.849309 1_555
Na12 O118 2.450462 1_555
Na12 O114 2.536464 1_555
Na12 O77 2.544961 1_555
Na12 O74 2.560717 1_545
Na12 O4 2.719244 1_555
Na12 O46 2.833265 1_555
Na12 O61 2.840888 1_555
Na12 O57 2.866120 1_555
Na13 O119 2.465072 1_555
Na13 O115 2.484643 1_555
Na13 O76 2.509518 1_655
Na13 O75 2.573851 1_545
Na13 O5 2.703640 1_555
Na13 O56 2.818450 1_655
Na13 O47 2.832381 1_555
Na13 O60 2.854104 1_655
Na14 O72 2.409218 1_545
Na14 O114 2.528102 1_555
Na14 O76 2.550536 1_555
Na14 O116 2.555770 1_555
Na14 O42 2.699267 1_555
Na14 O0 2.833576 1_555
Na14 O58 2.875396 1_545
Na14 O62 2.907457 1_545
Na15 O73 2.447614 1_545
Na15 O77 2.523709 1_555
Na15 O115 2.558979 1_555
Na15 O117 2.588600 1_555
Na15 O43 2.716105 1_555
Na15 O1 2.845323 1_555
Na15 O59 2.915483 1_545
Na15 O63 2.922077 1_545
Na16 O74 2.502350 1_555
Na16 O116 2.522358 1_555
Na16 O118 2.574108 1_555
Na16 O73 2.583504 1_555
Na16 O2 2.683628 1_555
Na16 O44 2.712111 1_555
Na16 O54 2.793587 1_555
Na16 O64 2.861071 1_555
Na17 O75 2.469123 1_555
Na17 O117 2.501557 1_555
Na17 O119 2.559818 1_555
Na17 O72 2.598600 1_655
Na17 O3 2.654230 1_555
Na17 O45 2.768817 1_555
Na17 O55 2.853731 1_555
Na17 O65 2.855201 1_555
Na18 O89 2.530442 1_445
Na18 O86 2.530654 1_555
Na18 O75 2.594048 1_445
Na18 O72 2.631980 1_545
Na18 O76 2.653548 1_555
Na18 O85 2.665540 1_455
Na19 O87 2.527085 1_555
Na19 O88 2.607027 1_545
Na19 O77 2.615621 1_555
Na19 O73 2.623831 1_545
Na19 O74 2.634272 1_545
Na19 O84 2.692363 1_555
Na20 O94 2.472435 1_565
Na20 O80 2.543130 1_554
Na20 O93 2.590664 1_465
Na20 O91 2.633231 1_455
Na20 O78 2.661498 1_564
Na20 O83 2.742516 1_454
Na21 O79 2.523004 1_555
Na21 O81 2.543697 1_545
Na21 O95 2.569422 1_556
Na21 O82 2.624887 1_545
Na21 O92 2.654427 1_556
Na21 O90 2.779429 1_546
Na22 O100 2.487722 1_555
Na22 O96 2.542520 1_555
Na22 O110 2.568408 1_555
Na22 O108 2.635543 1_555
Na22 O112 2.746019 1_555
Na22 O98 2.790321 1_555
Na23 O101 2.494742 1_555
Na23 O111 2.499089 1_555
Na23 O97 2.596606 1_555
Na23 O113 2.680214 1_555
Na23 O109 2.702035 1_555
Na23 O99 2.779706 1_555
Na24 O102 2.484714 1_555
Na24 O104 2.533696 1_555
Na24 O118 2.555475 1_555
Na24 O116 2.696747 1_555
Na24 O114 2.719275 1_555
Na24 O106 2.761203 1_555
Na25 O103 2.463395 1_555
Na25 O105 2.541684 1_555
Na25 O119 2.614327 1_555
Na25 O117 2.669372 1_555
Na25 O107 2.682128 1_555
Na25 O115 2.723738 1_555
Na26 O120 2.454035 1_555
Na26 O134 2.494500 1_555
Na26 O124 2.501881 1_555
Na26 O136 2.614579 1_555
Na26 O122 2.762969 1_555
Na26 O132 2.794473 1_555
Na27 O135 2.494258 1_555
Na27 O121 2.494840 1_555
Na27 O137 2.537933 1_555
Na27 O125 2.594014 1_555
Na27 O123 2.749103 1_555
Na27 O133 2.753293 1_555
Na28 O128 2.462336 1_555
Na28 O142 2.476920 1_555
Na28 O126 2.548661 1_555
Na28 O140 2.659925 1_555
Na28 O138 2.669870 1_555
Na28 O130 2.753875 1_555
Na29 O129 2.429810 1_555
Na29 O143 2.508617 1_555
Na29 O127 2.530974 1_555
Na29 O141 2.644257 1_555
Na29 O139 2.735677 1_555
Na29 O131 2.752864 1_555
O0 S0 1.492294 1_545
O0 Sn0 2.191856 1_445
O1 S1 1.480730 1_555
O1 Zr0 2.234178 1_545
O2 Si0 1.645362 1_555
O2 Zr0 2.013925 1_555
O3 Si1 1.656213 1_555
O3 Sn0 2.011025 1_555
O4 Si3 1.649167 1_555
O4 Zr0 2.040084 1_545
O5 Si2 1.662250 1_555
O5 Sn0 2.039958 1_545
O6 S2 1.501119 1_555
O6 Sn1 2.176925 1_445
O7 S3 1.491342 1_555
O7 Sn2 2.194452 1_545
O8 Si5 1.635243 1_555
O8 Sn2 2.036415 1_555
O9 Si4 1.633660 1_655
O9 Sn1 1.977106 1_555
O10 Si6 1.640568 1_545
O10 Sn2 2.019515 1_545
O11 Si7 1.644488 1_545
O11 Sn1 2.002958 1_545
O12 Si6 1.634518 1_555
O12 Zr1 1.990435 1_555
O13 Si7 1.631240 1_555
O13 Sn3 1.980715 1_555
O14 S2 1.471945 1_555
O14 Sn3 2.225846 1_445
O15 S3 1.472492 1_555
O15 Zr1 2.295133 1_545
O16 Si4 1.660020 1_555
O16 Sn3 2.005455 1_455
O17 Si5 1.652274 1_555
O17 Zr1 2.000160 1_555
O18 Si0 1.640891 1_555
O18 Zr2 2.013553 1_565
O19 Si1 1.640575 1_555
O19 Sn4 1.973905 1_565
O20 Si2 1.633808 1_455
O20 Sn4 1.989314 1_455
O21 Si3 1.650712 1_555
O21 Zr2 1.979842 1_555
O22 S0 1.476247 1_555
O22 Sn4 2.203801 1_465
O23 S1 1.483550 1_565
O23 Zr2 2.245449 1_565
O24 S4 1.483749 1_555
O24 Zr3 2.157641 1_555
O25 S5 1.488949 1_555
O25 Zr4 2.164918 1_555
O26 Si8 1.632766 1_555
O26 Zr3 2.061578 1_555
O27 Si9 1.635880 1_555
O27 Zr4 2.056643 1_555
O28 Si10 1.633301 1_555
O28 Zr3 2.012366 1_555
O29 Si11 1.628886 1_555
O29 Zr4 1.997590 1_555
O30 S6 1.482167 1_555
O30 Zr5 2.178310 1_555
O31 S7 1.493843 1_555
O31 Sn5 2.162421 1_555
O32 Si12 1.640008 1_555
O32 Zr5 2.067086 1_555
O33 Si13 1.641945 1_555
O33 Sn5 2.052963 1_555
O34 Si14 1.627028 1_555
O34 Zr5 1.992752 1_555
O35 Si15 1.628205 1_555
O35 Sn5 1.982223 1_555
O36 Si14 1.637867 1_555
O36 Zr6 2.034920 1_554
O37 Si15 1.631903 1_555
O37 Sn6 1.963930 1_554
O38 S6 1.473239 1_555
O38 Zr6 2.291598 1_554
O39 S7 1.488761 1_555
O39 Sn6 2.233717 1_554
O40 Si12 1.648657 1_555
O40 Zr6 2.030154 1_554
O41 Si13 1.651429 1_555
O41 Sn6 2.000446 1_554
O42 Si8 1.644144 1_555
O42 Zr7 2.026917 1_555
O43 Si9 1.645919 1_555
O43 Zr8 2.013384 1_555
O44 Si10 1.646487 1_555
O44 Zr7 2.030758 1_555
O45 Si11 1.651565 1_555
O45 Zr8 2.031281 1_555
O46 S4 1.483538 1_555
O46 Zr7 2.250086 1_555
O47 S5 1.486604 1_555
O47 Zr8 2.263933 1_555
O48 Si16 1.630044 1_555
O48 Sn7 1.987763 1_556
O49 S8 1.491949 1_555
O49 Sn8 2.151752 1_556
O50 Si17 1.643986 1_555
O50 Sn7 2.076405 1_556
O51 Si18 1.644059 1_555
O51 Sn8 2.024114 1_556
O52 Si19 1.618424 1_555
O52 Sn7 2.029450 1_556
O53 Si20 1.642626 1_555
O53 Sn8 2.018800 1_556
O54 Si21 1.630093 1_555
O54 Sn9 1.990442 1_555
O55 Si22 1.639198 1_555
O55 Zr9 1.979685 1_555
O56 Si23 1.631352 1_555
O56 Sn9 2.061276 1_555
O57 Si24 1.622255 1_555
O57 Zr9 2.065824 1_555
O58 Si25 1.650026 1_555
O58 Sn9 2.062124 1_555
O59 Si26 1.636402 1_555
O59 Zr9 2.097756 1_555
O60 Si25 1.621436 1_555
O60 Zr10 2.035754 1_555
O61 Si26 1.629994 1_555
O61 Zr11 2.046506 1_555
O62 Si21 1.628906 1_555
O62 Zr10 2.131107 1_555
O63 Si22 1.624597 1_555
O63 Zr11 2.130473 1_555
O64 Si23 1.630604 1_555
O64 Zr10 1.981638 1_555
O65 Si24 1.634725 1_555
O65 Zr11 1.981158 1_555
O66 Si17 1.619416 1_555
O66 Sn10 2.018809 1_555
O67 Si18 1.639210 1_555
O67 Sn11 1.983620 1_555
O68 Si19 1.632470 1_555
O68 Sn10 2.017943 1_555
O69 Si20 1.652904 1_555
O69 Sn11 2.011979 1_555
O70 Si16 1.633156 1_555
O70 Sn10 2.022389 1_555
O71 S8 1.475683 1_555
O71 Sn11 2.245829 1_555
O72 Si25 1.653017 1_555
O72 Sn0 2.100307 1_455
O73 Si26 1.639867 1_555
O73 Zr0 2.127344 1_555
O74 Si21 1.645312 1_555
O74 Zr0 2.051184 1_555
O75 Si22 1.643594 1_555
O75 Sn0 2.044165 1_555
O76 Si23 1.643350 1_555
O76 Sn0 2.092122 1_445
O77 Si24 1.627204 1_555
O77 Zr0 2.137547 1_545
O78 Si17 1.690631 1_555
O78 Sn1 2.105909 1_445
O79 Si18 1.639416 1_555
O79 Sn2 2.068137 1_545
O80 Si19 1.658495 1_555
O80 Sn1 2.050195 1_455
O81 Si20 1.635882 1_555
O81 Sn2 2.087280 1_555
O82 Si16 1.642468 1_555
O82 Sn2 2.045867 1_555
O83 S8 1.499801 1_555
O83 Sn1 2.220413 1_555
O84 S4 1.475575 1_555
O84 Zr1 2.270913 1_545
O85 S5 1.470801 1_555
O85 Sn3 2.284154 1_545
O86 Si8 1.661091 1_555
O86 Sn3 2.057581 1_445
O87 Si9 1.644910 1_555
O87 Zr1 2.113348 1_545
O88 Si10 1.657883 1_555
O88 Zr1 2.030031 1_555
O89 Si11 1.654393 1_555
O89 Sn3 2.025293 1_555
O90 S6 1.482845 1_555
O90 Zr2 2.279584 1_565
O91 S7 1.482214 1_555
O91 Sn4 2.269148 1_565
O92 Si12 1.665454 1_555
O92 Zr2 2.028857 1_555
O93 Si13 1.659116 1_555
O93 Sn4 2.031912 1_555
O94 Si14 1.665043 1_555
O94 Sn4 2.047597 1_455
O95 Si15 1.652519 1_555
O95 Zr2 2.110360 1_555
O96 Si6 1.654260 1_545
O96 Zr3 2.108240 1_555
O97 Si7 1.647875 1_545
O97 Zr4 2.123266 1_555
O98 S2 1.489917 1_555
O98 Zr3 2.224929 1_555
O99 S3 1.495045 1_555
O99 Zr4 2.243233 1_555
O100 Si5 1.625529 1_555
O100 Zr3 2.083219 1_555
O101 Si4 1.629360 1_655
O101 Zr4 2.068389 1_555
O102 Si0 1.622406 1_555
O102 Zr5 2.053804 1_555
O103 Si1 1.637266 1_555
O103 Sn5 2.032048 1_555
O104 Si3 1.639212 1_555
O104 Zr5 2.133555 1_555
O105 Si2 1.662234 1_555
O105 Sn5 2.077159 1_555
O106 S0 1.488827 1_545
O106 Zr5 2.228166 1_555
O107 S1 1.492107 1_555
O107 Sn5 2.229285 1_555
O108 Si16 1.639948 1_555
O108 Zr6 2.122250 1_555
O109 S8 1.476979 1_555
O109 Sn6 2.279559 1_555
O110 Si18 1.655893 1_555
O110 Zr6 2.161814 1_555
O111 Si17 1.661182 1_655
O111 Sn6 2.060027 1_555
O112 Si19 1.667254 1_545
O112 Zr6 2.027199 1_555
O113 Si20 1.645567 1_545
O113 Sn6 2.031697 1_555
O114 Si21 1.634231 1_545
O114 Zr7 2.115098 1_555
O115 Si22 1.631529 1_545
O115 Zr8 2.127259 1_555
O116 Si23 1.641237 1_555
O116 Zr7 2.043141 1_555
O117 Si24 1.642204 1_555
O117 Zr8 2.041393 1_555
O118 Si26 1.641509 1_555
O118 Zr7 2.153095 1_555
O119 Si25 1.634582 1_655
O119 Zr8 2.147570 1_555
O120 Si14 1.652565 1_555
O120 Sn7 2.100820 1_555
O121 Si15 1.668378 1_555
O121 Sn8 2.055204 1_555
O122 S7 1.482228 1_455
O122 Sn7 2.312703 1_555
O123 S6 1.488830 1_555
O123 Sn8 2.239901 1_555
O124 Si12 1.628389 1_565
O124 Sn7 2.045689 1_555
O125 Si13 1.637890 1_565
O125 Sn8 2.027942 1_555
O126 Si8 1.658418 1_565
O126 Sn9 2.094923 1_555
O127 Si9 1.646380 1_565
O127 Zr9 2.119481 1_555
O128 Si10 1.625848 1_555
O128 Sn9 2.035191 1_555
O129 Si11 1.618474 1_555
O129 Zr9 2.068461 1_555
O130 S5 1.486553 1_455
O130 Sn9 2.325705 1_555
O131 S4 1.473201 1_555
O131 Zr9 2.353293 1_555
O132 S0 1.476006 1_555
O132 Zr10 2.328632 1_555
O133 S1 1.474041 1_565
O133 Zr11 2.328209 1_555
O134 Si0 1.642597 1_555
O134 Zr10 2.117741 1_555
O135 Si1 1.646696 1_555
O135 Zr11 2.129223 1_555
O136 Si2 1.624591 1_455
O136 Zr10 2.053518 1_555
O137 Si3 1.621962 1_555
O137 Zr11 2.062180 1_555
O138 S2 1.477401 1_555
O138 Sn10 2.296661 1_555
O139 S3 1.479096 1_555
O139 Sn11 2.235879 1_555
O140 Si4 1.651484 1_555
O140 Sn10 2.056113 1_555
O141 Si5 1.661422 1_555
O141 Sn11 2.031303 1_555
O142 Si6 1.652021 1_555
O142 Sn10 2.085826 1_555
O143 Si7 1.666484 1_555
O143 Sn11 2.043992 1_555
