# generated using pymatgen
data_Na5Al3Sn(PO4)6
_symmetry_space_group_name_H-M   'P 1'
_cell_length_a   8.62366705
_cell_length_b   8.61566171
_cell_length_c   21.81944906
_cell_angle_alpha   89.93962817
_cell_angle_beta   90.01318421
_cell_angle_gamma   120.00829447
_symmetry_Int_Tables_number   1
_chemical_formula_structural   Na5Al3Sn(PO4)6
_chemical_formula_sum   'Na15 Al9 Sn3 P18 O72'
_cell_volume   1403.84273745
_cell_formula_units_Z   3
loop_
 _symmetry_equiv_pos_site_id
 _symmetry_equiv_pos_as_xyz
  1  'x, y, z'
loop_
 _atom_site_type_symbol
 _atom_site_label
 _atom_site_symmetry_multiplicity
 _atom_site_fract_x
 _atom_site_fract_y
 _atom_site_fract_z
 _atom_site_occupancy
  Na  Na0  1  0.63410741  0.99950115  0.25253545  1
  Na  Na1  1  0.36489377  0.36548905  0.25285974  1
  Na  Na2  1  0.00074842  0.63553352  0.25252987  1
  Na  Na3  1  0.63771250  0.63337952  0.74914487  1
  Na  Na4  1  0.99871710  0.36273950  0.74924720  1
  Na  Na5  1  0.03106909  0.69969362  0.58222040  1
  Na  Na6  1  0.66609491  0.96850646  0.58203208  1
  Na  Na7  1  0.66658673  0.69837793  0.08251793  1
  Na  Na8  1  0.03092601  0.33120200  0.08267690  1
  Na  Na9  1  0.00719079  0.00776287  0.49665154  1
  Na  Na10  1  0.00678970  0.99918655  0.99657208  1
  Na  Na11  1  0.65922552  0.32529723  0.83347682  1
  Na  Na12  1  0.66624543  0.33323265  0.33622337  1
  Na  Na13  1  0.33256835  0.67285352  0.16614280  1
  Na  Na14  1  0.33320350  0.66604669  0.66396456  1
  Al  Al0  1  0.00074522  0.00027803  0.35622228  1
  Al  Al1  1  0.00247830  0.00105769  0.85436927  1
  Al  Al2  1  0.00558329  0.00511606  0.64818721  1
  Al  Al3  1  0.00455440  0.99919720  0.14939082  1
  Al  Al4  1  0.66037613  0.32766585  0.68497990  1
  Al  Al5  1  0.66581195  0.33208008  0.18482172  1
  Al  Al6  1  0.33249683  0.67237970  0.01669827  1
  Al  Al7  1  0.33254087  0.66086490  0.51576506  1
  Al  Al8  1  0.33321758  0.66671317  0.31912621  1
  Sn  Sn0  1  0.66535343  0.33233474  0.98018000  1
  Sn  Sn1  1  0.66457045  0.33271321  0.47866990  1
  Sn  Sn2  1  0.33385797  0.67212490  0.81559402  1
  P  P0  1  0.28691506  0.00021298  0.25051181  1
  P  P1  1  0.71327177  0.71284230  0.25018319  1
  P  P2  1  0.99952416  0.28692539  0.25017468  1
  P  P3  1  0.28765413  0.27755900  0.74976915  1
  P  P4  1  0.99762029  0.71586364  0.74896584  1
  P  P5  1  0.71740284  0.00584863  0.74902171  1
  P  P6  1  0.96296138  0.33335019  0.58568206  1
  P  P7  1  0.37238187  0.04283367  0.58548539  1
  P  P8  1  0.66295286  0.62444627  0.58592290  1
  P  P9  1  0.96370637  0.63073377  0.08579359  1
  P  P10  1  0.66329278  0.03787490  0.08614898  1
  P  P11  1  0.37092586  0.32905221  0.08590865  1
  P  P12  1  0.62971029  0.67476860  0.91795978  1
  P  P13  1  0.04485469  0.37046557  0.91816103  1
  P  P14  1  0.32533680  0.95512570  0.91826507  1
  P  P15  1  0.62308525  0.94879560  0.41574454  1
  P  P16  1  0.32570716  0.37748454  0.41531746  1
  P  P17  1  0.05115109  0.67384047  0.41587453  1
  O  O0  1  0.20369617  0.03881098  0.30597223  1
  O  O1  1  0.83615716  0.79793910  0.30511047  1
  O  O2  1  0.96184939  0.16377033  0.30510306  1
  O  O3  1  0.20153945  0.16929408  0.80759642  1
  O  O4  1  0.96422178  0.79904897  0.80573820  1
  O  O5  1  0.83392782  0.03660217  0.80583208  1
  O  O6  1  0.79733798  0.96758111  0.69156263  1
  O  O7  1  0.16655047  0.20036446  0.69364233  1
  O  O8  1  0.02780027  0.82720858  0.69089967  1
  O  O9  1  0.79317589  0.82928777  0.19170015  1
  O  O10  1  0.03567072  0.20691943  0.19172555  1
  O  O11  1  0.16735244  0.96250682  0.19353286  1
  O  O12  1  0.87481003  0.37061648  0.64179642  1
  O  O13  1  0.50080003  0.12996044  0.63980343  1
  O  O14  1  0.63427282  0.50634230  0.64259278  1
  O  O15  1  0.87442877  0.50404412  0.14160892  1
  O  O16  1  0.63385398  0.12767731  0.14244020  1
  O  O17  1  0.49705284  0.36939391  0.14163406  1
  O  O18  1  0.44856124  0.29281508  0.02805673  1
  O  O19  1  0.84030535  0.55311590  0.02897153  1
  O  O20  1  0.71330630  0.16078783  0.02919294  1
  O  O21  1  0.44733705  0.15554379  0.52678909  1
  O  O22  1  0.71293142  0.55143406  0.52890180  1
  O  O23  1  0.83932914  0.28737303  0.52872394  1
  O  O24  1  0.53697682  0.69758074  0.97490342  1
  O  O25  1  0.16097131  0.46300663  0.97495901  1
  O  O26  1  0.30044880  0.83682249  0.97388831  1
  O  O27  1  0.53699417  0.83971559  0.47463195  1
  O  O28  1  0.30169326  0.46540651  0.47257378  1
  O  O29  1  0.16057650  0.69756551  0.47463835  1
  O  O30  1  0.13306457  0.63993847  0.35780497  1
  O  O31  1  0.50702304  0.86656147  0.35774980  1
  O  O32  1  0.35990916  0.49201483  0.35664898  1
  O  O33  1  0.11497829  0.48270444  0.85814634  1
  O  O34  1  0.37109569  0.88709115  0.85920257  1
  O  O35  1  0.51661583  0.63195564  0.85819461  1
  O  O36  1  0.02953408  0.83935680  0.40846500  1
  O  O37  1  0.80991248  0.97004465  0.40835877  1
  O  O38  1  0.16029463  0.19009525  0.40809990  1
  O  O39  1  0.02769158  0.18669027  0.91026638  1
  O  O40  1  0.15820289  0.97153945  0.90994202  1
  O  O41  1  0.81310374  0.84181840  0.90977796  1
  O  O42  1  0.97675425  0.16309291  0.59373277  1
  O  O43  1  0.18314506  0.01660294  0.59337595  1
  O  O44  1  0.83234743  0.81401164  0.59306786  1
  O  O45  1  0.97691878  0.81417975  0.09381581  1
  O  O46  1  0.83278441  0.01855277  0.09346258  1
  O  O47  1  0.18219977  0.16600407  0.09362798  1
  O  O48  1  0.69657374  0.17293152  0.74154347  1
  O  O49  1  0.47953166  0.30966188  0.74209232  1
  O  O50  1  0.83069692  0.52321119  0.74254428  1
  O  O51  1  0.69065397  0.52170618  0.24155789  1
  O  O52  1  0.83125991  0.30977559  0.24176941  1
  O  O53  1  0.47792538  0.16864389  0.24165598  1
  O  O54  1  0.64612536  0.50405518  0.92183734  1
  O  O55  1  0.85818153  0.35493745  0.92214724  1
  O  O56  1  0.49579581  0.14256231  0.92219544  1
  O  O57  1  0.64083021  0.13807631  0.41935109  1
  O  O58  1  0.49761327  0.36042928  0.41905955  1
  O  O59  1  0.86212429  0.50203582  0.41975421  1
  O  O60  1  0.35510183  0.50080225  0.07777810  1
  O  O61  1  0.14540033  0.64015553  0.07664840  1
  O  O62  1  0.49833372  0.85070312  0.07694688  1
  O  O63  1  0.35495763  0.85452894  0.57735755  1
  O  O64  1  0.49829403  0.64728935  0.57675637  1
  O  O65  1  0.14538588  0.50501942  0.57641343  1
  O  O66  1  0.31117581  0.83293871  0.25713935  1
  O  O67  1  0.52224180  0.68936119  0.25660818  1
  O  O68  1  0.16690555  0.47817278  0.25663123  1
  O  O69  1  0.31011865  0.47295939  0.75382540  1
  O  O70  1  0.16240505  0.68617237  0.75270917  1
  O  O71  1  0.52871032  0.83236075  0.75305653  1
loop_
_geom_bond_atom_site_label_1
_geom_bond_atom_site_label_2
_geom_bond_distance
_geom_bond_site_symmetry_2
Na0 O67 2.345126 1_555
Na0 O52 2.354711 1_565
Na0 O66 2.413978 1_555
Na0 O53 2.440576 1_565
Na0 O31 2.554078 1_555
Na0 O16 2.643294 1_565
Na0 O2 2.703270 1_565
Na0 O9 2.794893 1_555
Na1 O68 2.350048 1_555
Na1 O53 2.353862 1_555
Na1 O67 2.418113 1_555
Na1 O51 2.445779 1_555
Na1 O32 2.524047 1_555
Na1 O17 2.674425 1_555
Na1 O0 2.697676 1_555
Na1 O10 2.797983 1_555
Na2 O66 2.348464 1_555
Na2 O51 2.355244 1_455
Na2 O68 2.417043 1_555
Na2 O52 2.442655 1_455
Na2 O30 2.556465 1_555
Na2 O15 2.664162 1_455
Na2 O1 2.698039 1_455
Na2 O11 2.757188 1_555
Na3 O50 2.296037 1_555
Na3 O71 2.332838 1_555
Na3 O49 2.420439 1_555
Na3 O69 2.448660 1_555
Na3 O14 2.564544 1_555
Na3 O35 2.596256 1_555
Na3 O4 2.733580 1_555
Na3 O6 2.791560 1_555
Na4 O48 2.286906 1_555
Na4 O69 2.360628 1_655
Na4 O70 2.414385 1_655
Na4 O50 2.456746 1_555
Na4 O33 2.585920 1_655
Na4 O12 2.591172 1_555
Na4 O5 2.727403 1_555
Na4 O7 2.748381 1_655
Na5 O65 2.335695 1_555
Na5 O44 2.377367 1_455
Na5 O43 2.377759 1_565
Na5 O63 2.421809 1_555
Na5 O29 2.603770 1_555
Na5 O8 2.620580 1_555
Na5 O22 2.647320 1_455
Na5 O12 2.777700 1_455
Na6 O63 2.353417 1_555
Na6 O42 2.358192 1_565
Na6 O64 2.400236 1_555
Na6 O44 2.406922 1_555
Na6 O27 2.594402 1_555
Na6 O6 2.645822 1_555
Na6 O23 2.649709 1_565
Na6 O13 2.746579 1_565
Na7 O45 2.355359 1_555
Na7 O60 2.355911 1_555
Na7 O62 2.397222 1_555
Na7 O46 2.401509 1_565
Na7 O24 2.598846 1_554
Na7 O9 2.629080 1_555
Na7 O19 2.656108 1_555
Na7 O17 2.771887 1_555
Na8 O61 2.334129 1_555
Na8 O46 2.371911 1_455
Na8 O47 2.375078 1_555
Na8 O60 2.423985 1_555
Na8 O25 2.606360 1_554
Na8 O10 2.616888 1_555
Na8 O20 2.645661 1_455
Na8 O15 2.776228 1_455
Na9 O38 2.421643 1_555
Na9 O36 2.475982 1_545
Na9 O37 2.481555 1_445
Na9 O43 2.577903 1_555
Na9 O42 2.589298 1_455
Na9 O44 2.638603 1_445
Na10 O40 2.376511 1_555
Na10 O39 2.427126 1_565
Na10 O41 2.439952 1_455
Na10 O47 2.582412 1_566
Na10 O45 2.586799 1_456
Na10 O46 2.646050 1_466
Na11 O56 2.446972 1_555
Na11 O49 2.487104 1_555
Na11 O48 2.505899 1_555
Na11 O54 2.506435 1_555
Na11 O55 2.512652 1_555
Na11 O50 2.550089 1_555
Na12 O58 2.404050 1_555
Na12 O57 2.406277 1_555
Na12 O59 2.416039 1_555
Na12 O51 2.568822 1_555
Na12 O52 2.569668 1_555
Na12 O53 2.570415 1_555
Na13 O62 2.446048 1_555
Na13 O61 2.458169 1_555
Na13 O66 2.477695 1_555
Na13 O60 2.499369 1_555
Na13 O68 2.519936 1_555
Na13 O67 2.521585 1_555
Na14 O64 2.430187 1_555
Na14 O63 2.435621 1_555
Na14 O65 2.440072 1_555
Na14 O70 2.491283 1_555
Na14 O71 2.502510 1_555
Na14 O69 2.512679 1_555
Al0 O38 1.897736 1_555
Al0 O36 1.903702 1_545
Al0 O37 1.908318 1_445
Al0 O0 1.947932 1_555
Al0 O2 1.951887 1_455
Al0 O1 1.955954 1_445
Al1 O3 1.896890 1_555
Al1 O40 1.917978 1_545
Al1 O4 1.921797 1_445
Al1 O39 1.936201 1_555
Al1 O41 1.940938 1_445
Al1 O5 1.942152 1_455
Al2 O7 1.845955 1_555
Al2 O8 1.882913 1_545
Al2 O43 1.906249 1_555
Al2 O6 1.909078 1_445
Al2 O42 1.913372 1_455
Al2 O44 1.982970 1_445
Al3 O11 1.855052 1_555
Al3 O9 1.909661 1_455
Al3 O10 1.910806 1_565
Al3 O47 1.920326 1_565
Al3 O45 1.921503 1_455
Al3 O46 1.989229 1_465
Al4 O13 1.850706 1_555
Al4 O14 1.902464 1_555
Al4 O12 1.939050 1_555
Al4 O49 1.941048 1_555
Al4 O48 1.952056 1_555
Al4 O50 2.025283 1_555
Al5 O16 1.884225 1_555
Al5 O17 1.891035 1_555
Al5 O15 1.911126 1_555
Al5 O53 1.964952 1_555
Al5 O52 1.972181 1_555
Al5 O51 1.975254 1_555
Al6 O26 1.828915 1_554
Al6 O25 1.898764 1_554
Al6 O24 1.898842 1_554
Al6 O62 1.984813 1_555
Al6 O61 1.985835 1_555
Al6 O60 2.069630 1_555
Al7 O28 1.830276 1_555
Al7 O27 1.889146 1_555
Al7 O29 1.890038 1_555
Al7 O65 1.997128 1_555
Al7 O64 1.998477 1_555
Al7 O63 2.075930 1_555
Al8 O32 1.825542 1_555
Al8 O31 1.828254 1_555
Al8 O30 1.829403 1_555
Al8 O66 2.045621 1_555
Al8 O68 2.056337 1_555
Al8 O67 2.058724 1_555
O0 P0 1.526418 1_555
O1 P1 1.523491 1_555
O2 P2 1.523321 1_555
O3 P3 1.522718 1_555
O4 P4 1.529574 1_555
O5 P5 1.533072 1_555
O6 P5 1.544121 1_565
O7 P3 1.529435 1_555
O8 P4 1.530061 1_455
O9 P1 1.554318 1_555
O10 P2 1.554260 1_455
O11 P0 1.542572 1_565
O12 P6 1.557397 1_555
O13 P7 1.537638 1_555
O14 P8 1.539894 1_555
O15 P9 1.557047 1_555
O16 P10 1.539569 1_555
O17 P11 1.550612 1_555
O18 P11 1.532773 1_555
O18 Sn0 2.016393 1_554
O19 P9 1.551175 1_555
O19 Sn0 2.039818 1_554
O20 P10 1.546770 1_555
O20 Sn0 2.026565 1_554
O21 P7 1.539792 1_555
O21 Sn1 2.019669 1_555
O22 P8 1.550000 1_555
O22 Sn1 2.035761 1_555
O23 P6 1.554396 1_555
O23 Sn1 2.050323 1_555
O24 P12 1.542755 1_555
O25 P13 1.541815 1_555
O26 P14 1.528609 1_555
O27 P15 1.544456 1_555
O28 P16 1.528554 1_555
O29 P17 1.543805 1_555
O30 P17 1.548317 1_555
O31 P15 1.548229 1_555
O32 P16 1.551054 1_555
O33 P13 1.558311 1_555
O33 Sn2 2.001162 1_555
O34 P14 1.547019 1_555
O34 Sn2 1.961470 1_555
O35 P12 1.558322 1_555
O35 Sn2 2.002979 1_555
O36 P17 1.536185 1_555
O37 P15 1.536317 1_555
O38 P16 1.537207 1_555
O39 P13 1.524703 1_555
O40 P14 1.527758 1_555
O41 P12 1.525559 1_555
O42 P6 1.539711 1_555
O43 P7 1.541108 1_555
O44 P8 1.561953 1_555
O45 P9 1.536904 1_555
O46 P10 1.559740 1_555
O47 P11 1.537307 1_555
O48 P5 1.545725 1_555
O49 P3 1.544280 1_555
O50 P4 1.567574 1_555
O51 P1 1.569921 1_555
O52 P2 1.569552 1_555
O53 P0 1.570055 1_555
O54 P12 1.548698 1_555
O54 Sn0 2.019463 1_555
O55 P13 1.549697 1_655
O55 Sn0 2.020649 1_555
O56 P14 1.549791 1_545
O56 Sn0 2.006044 1_555
O57 P15 1.561953 1_545
O57 Sn1 2.047014 1_555
O58 P16 1.563253 1_555
O58 Sn1 2.040614 1_555
O59 P17 1.562602 1_655
O59 Sn1 2.047977 1_555
O60 P11 1.562414 1_555
O61 P9 1.540899 1_455
O62 P10 1.539621 1_565
O63 P7 1.562968 1_565
O64 P8 1.540892 1_555
O65 P6 1.541258 1_455
O66 P0 1.562952 1_565
O67 P1 1.562411 1_555
O68 P2 1.561976 1_455
O69 P3 1.598009 1_555
O69 Sn2 2.110969 1_555
O70 P4 1.566845 1_455
O70 Sn2 2.064260 1_555
O71 P5 1.567392 1_565
O71 Sn2 2.065941 1_555
