# generated using pymatgen
data_Er2MgMo2(ClO4)2
_symmetry_space_group_name_H-M   'P 1'
_cell_length_a   6.47566705
_cell_length_b   6.47167422
_cell_length_c   6.92365452
_cell_angle_alpha   72.82297185
_cell_angle_beta   72.81064971
_cell_angle_gamma   65.83100840
_symmetry_Int_Tables_number   1
_chemical_formula_structural   Er2MgMo2(ClO4)2
_chemical_formula_sum   'Er2 Mg1 Mo2 Cl2 O8'
_cell_volume   247.79003402
_cell_formula_units_Z   1
loop_
 _symmetry_equiv_pos_site_id
 _symmetry_equiv_pos_as_xyz
  1  'x, y, z'
loop_
 _atom_site_type_symbol
 _atom_site_label
 _atom_site_symmetry_multiplicity
 _atom_site_fract_x
 _atom_site_fract_y
 _atom_site_fract_z
 _atom_site_occupancy
  Er  Er0  1  0.24640100  0.23437600  0.89482500  1
  Er  Er1  1  0.76475600  0.75279500  0.10509700  1
  Mg  Mg0  1  0.30683300  0.69231900  0.50058000  1
  Mo  Mo0  1  0.63996600  0.64152600  0.73219100  1
  Mo  Mo1  1  0.35738300  0.35975200  0.26762900  1
  Cl  Cl0  1  0.04381600  0.95720500  0.24824900  1
  Cl  Cl1  1  0.04101400  0.95705300  0.75185700  1
  O  O0  1  0.53872500  0.90565600  0.84344700  1
  O  O1  1  0.51389400  0.11562200  0.13005000  1
  O  O2  1  0.09350700  0.46054000  0.15635000  1
  O  O3  1  0.52621500  0.55076600  0.22188300  1
  O  O4  1  0.24704900  0.37978300  0.54526400  1
  O  O5  1  0.88388200  0.48551400  0.86974900  1
  O  O6  1  0.61966000  0.75207800  0.45471100  1
  O  O7  1  0.44773100  0.47376600  0.77811600  1
loop_
_geom_bond_atom_site_label_1
_geom_bond_atom_site_label_2
_geom_bond_distance
_geom_bond_site_symmetry_2
Er0 O0 2.233161 1_545
Er0 O7 2.246051 1_555
Er0 O5 2.265529 1_455
Er0 O4 2.322741 1_555
Er0 O2 2.391722 1_556
Er0 O1 2.466085 1_556
Er1 O2 2.233454 1_655
Er1 O3 2.245115 1_555
Er1 O1 2.265527 1_565
Er1 O6 2.322677 1_555
Er1 O0 2.392887 1_554
Er1 O5 2.464037 1_554
Mg0 O4 2.130126 1_555
Mg0 O6 2.131402 1_555
Mg0 O7 2.213516 1_555
Mg0 O3 2.222371 1_555
Mo0 O5 1.853822 1_555
Mo0 O6 1.865611 1_555
Mo0 O7 1.870380 1_555
Mo0 O0 1.872608 1_555
Mo1 O1 1.854130 1_555
Mo1 O4 1.865985 1_555
Mo1 O3 1.869367 1_555
Mo1 O2 1.872861 1_555
Cl0 Mg0 2.547698 1_555
Cl0 Er0 2.891941 1_564
Cl0 Er1 3.128667 1_455
Cl1 Mg0 2.549635 1_555
Cl1 Er1 2.893113 1_456
Cl1 Er0 3.122819 1_565
