# generated using pymatgen
data_SiNi2As
_symmetry_space_group_name_H-M   'P 1'
_cell_length_a   5.13620100
_cell_length_b   6.00889600
_cell_length_c   13.88847700
_cell_angle_alpha   90.00000000
_cell_angle_beta   90.00000000
_cell_angle_gamma   90.00000000
_symmetry_Int_Tables_number   1
_chemical_formula_structural   SiNi2As
_chemical_formula_sum   'Si8 Ni16 As8'
_cell_volume   428.63864408
_cell_formula_units_Z   8
loop_
 _symmetry_equiv_pos_site_id
 _symmetry_equiv_pos_as_xyz
  1  'x, y, z'
loop_
 _atom_site_type_symbol
 _atom_site_label
 _atom_site_symmetry_multiplicity
 _atom_site_fract_x
 _atom_site_fract_y
 _atom_site_fract_z
 _atom_site_occupancy
  Si  Si0  1  0.81995000  0.93252400  0.05719300  1
  Si  Si1  1  0.81995000  0.43252400  0.44280700  1
  Si  Si2  1  0.31995000  0.56747600  0.05719300  1
  Si  Si3  1  0.68005000  0.93252400  0.55719300  1
  Si  Si4  1  0.18005000  0.06747600  0.94280700  1
  Si  Si5  1  0.18005000  0.56747600  0.55719300  1
  Si  Si6  1  0.68005000  0.43252400  0.94280700  1
  Si  Si7  1  0.31995000  0.06747600  0.44280700  1
  Ni  Ni0  1  0.01595500  0.69532600  0.16582700  1
  Ni  Ni1  1  0.48404500  0.19532600  0.83417300  1
  Ni  Ni2  1  0.51595500  0.30467400  0.33417300  1
  Ni  Ni3  1  0.99025000  0.80682200  0.44375000  1
  Ni  Ni4  1  0.01595500  0.19532600  0.33417300  1
  Ni  Ni5  1  0.51595500  0.80467400  0.16582700  1
  Ni  Ni6  1  0.48404500  0.69532600  0.66582700  1
  Ni  Ni7  1  0.98404500  0.30467400  0.83417300  1
  Ni  Ni8  1  0.00975000  0.19317800  0.55625000  1
  Ni  Ni9  1  0.99025000  0.30682200  0.05625000  1
  Ni  Ni10  1  0.49025000  0.69317800  0.44375000  1
  Ni  Ni11  1  0.50975000  0.80682200  0.94375000  1
  Ni  Ni12  1  0.49025000  0.19317800  0.05625000  1
  Ni  Ni13  1  0.00975000  0.69317800  0.94375000  1
  Ni  Ni14  1  0.50975000  0.30682200  0.55625000  1
  Ni  Ni15  1  0.98404500  0.80467400  0.66582700  1
  As  As0  1  0.68380800  0.93009500  0.31680800  1
  As  As1  1  0.18380800  0.06990500  0.18319200  1
  As  As2  1  0.81619200  0.43009500  0.68319200  1
  As  As3  1  0.31619200  0.56990500  0.81680800  1
  As  As4  1  0.31619200  0.06990500  0.68319200  1
  As  As5  1  0.81619200  0.93009500  0.81680800  1
  As  As6  1  0.18380800  0.56990500  0.31680800  1
  As  As7  1  0.68380800  0.43009500  0.18319200  1
loop_
_geom_bond_atom_site_label_1
_geom_bond_atom_site_label_2
_geom_bond_distance
_geom_bond_site_symmetry_2
Si0 Si4 2.569475 1_664
Si1 Si5 2.569475 1_655
Si2 Si6 2.569475 1_554
Si3 Si7 2.569475 1_565
Ni0 Si2 2.303140 1_555
Ni0 Si0 2.306799 1_455
Ni1 Si4 2.303140 1_555
Ni1 Si6 2.306799 1_555
Ni2 Si1 2.303140 1_555
Ni2 Si7 2.306799 1_555
Ni3 Si7 2.306710 1_665
Ni3 Si5 2.345448 1_655
Ni3 Si3 2.364599 1_555
Ni3 Si1 2.413254 1_555
Ni4 Si7 2.303140 1_555
Ni4 Si1 2.306799 1_455
Ni5 Si0 2.303140 1_555
Ni5 Si2 2.306799 1_555
Ni6 Si5 2.303140 1_555
Ni6 Si3 2.306799 1_555
Ni7 Si6 2.303140 1_555
Ni7 Si4 2.306799 1_655
Ni8 Si3 2.306710 1_445
Ni8 Si1 2.345448 1_455
Ni8 Si7 2.364599 1_555
Ni8 Si5 2.413254 1_555
Ni9 Si2 2.306710 1_655
Ni9 Si4 2.345448 1_654
Ni9 Si6 2.364599 1_554
Ni9 Si0 2.413254 1_545
Ni10 Si1 2.306710 1_555
Ni10 Si3 2.345448 1_555
Ni10 Si5 2.364599 1_555
Ni10 Si7 2.413254 1_565
Ni11 Si4 2.306710 1_565
Ni11 Si2 2.345448 1_556
Ni11 Si0 2.364599 1_556
Ni11 Si6 2.413254 1_555
Ni12 Si0 2.306710 1_545
Ni12 Si6 2.345448 1_554
Ni12 Si4 2.364599 1_554
Ni12 Si2 2.413254 1_555
Ni13 Si6 2.306710 1_455
Ni13 Si0 2.345448 1_456
Ni13 Si2 2.364599 1_556
Ni13 Si4 2.413254 1_565
Ni14 Si5 2.306710 1_555
Ni14 Si7 2.345448 1_555
Ni14 Si1 2.364599 1_555
Ni14 Si3 2.413254 1_545
Ni15 Si3 2.303140 1_555
Ni15 Si5 2.306799 1_655
As0 Ni4 2.347027 1_665
As0 Ni5 2.389186 1_555
As0 Ni2 2.422304 1_565
As0 Ni10 2.474527 1_555
As0 Ni3 2.476747 1_555
As0 Si7 2.690042 1_565
As0 Ni0 3.049164 1_655
As1 Ni5 2.347027 1_545
As1 Ni4 2.389186 1_555
As1 Ni0 2.422304 1_545
As1 Ni9 2.474527 1_455
As1 Ni12 2.476747 1_555
As1 Si0 2.690042 1_445
As1 Ni2 3.049164 1_555
As2 Ni6 2.347027 1_555
As2 Ni7 2.389186 1_555
As2 Ni15 2.422304 1_555
As2 Ni8 2.474527 1_655
As2 Ni14 2.476747 1_555
As2 Si5 2.690042 1_655
As2 Ni1 3.049164 1_555
As3 Ni7 2.347027 1_455
As3 Ni6 2.389186 1_555
As3 Ni1 2.422304 1_555
As3 Ni11 2.474527 1_555
As3 Ni13 2.476747 1_555
As3 Si6 2.690042 1_555
As3 Ni15 3.049164 1_455
As4 Ni15 2.347027 1_445
As4 Ni1 2.389186 1_555
As4 Ni6 2.422304 1_545
As4 Ni14 2.474527 1_555
As4 Ni8 2.476747 1_555
As4 Si3 2.690042 1_545
As4 Ni7 3.049164 1_455
As5 Ni1 2.347027 1_565
As5 Ni15 2.389186 1_555
As5 Ni7 2.422304 1_565
As5 Ni13 2.474527 1_655
As5 Ni11 2.476747 1_555
As5 Si4 2.690042 1_665
As5 Ni6 3.049164 1_555
As6 Ni2 2.347027 1_555
As6 Ni0 2.389186 1_555
As6 Ni4 2.422304 1_555
As6 Ni3 2.474527 1_455
As6 Ni10 2.476747 1_555
As6 Si1 2.690042 1_455
As6 Ni5 3.049164 1_555
As7 Ni0 2.347027 1_655
As7 Ni2 2.389186 1_555
As7 Ni5 2.422304 1_555
As7 Ni12 2.474527 1_555
As7 Ni9 2.476747 1_555
As7 Si2 2.690042 1_555
As7 Ni4 3.049164 1_655
