# generated using pymatgen
data_Na3Hf2Ti2SiP5O24
_symmetry_space_group_name_H-M   'P 1'
_cell_length_a   8.81833978
_cell_length_b   8.79298895
_cell_length_c   22.50281706
_cell_angle_alpha   90.02365107
_cell_angle_beta   90.10325999
_cell_angle_gamma   119.98747777
_symmetry_Int_Tables_number   1
_chemical_formula_structural   Na3Hf2Ti2SiP5O24
_chemical_formula_sum   'Na9 Hf6 Ti6 Si3 P15 O72'
_cell_volume   1511.27834314
_cell_formula_units_Z   3
loop_
 _symmetry_equiv_pos_site_id
 _symmetry_equiv_pos_as_xyz
  1  'x, y, z'
loop_
 _atom_site_type_symbol
 _atom_site_label
 _atom_site_symmetry_multiplicity
 _atom_site_fract_x
 _atom_site_fract_y
 _atom_site_fract_z
 _atom_site_occupancy
  Na  Na0  1  0.36095332  0.99823985  0.75178094  1
  Na  Na1  1  0.66158026  0.97077339  0.58391786  1
  Na  Na2  1  0.66886718  0.69520310  0.08175723  1
  Na  Na3  1  0.02020516  0.00109797  0.49632290  1
  Na  Na4  1  0.01634414  0.01373435  0.00318024  1
  Na  Na5  1  0.68322809  0.34416995  0.83371695  1
  Na  Na6  1  0.66671071  0.33333747  0.33249255  1
  Na  Na7  1  0.31740174  0.66497423  0.16861644  1
  Na  Na8  1  0.32155217  0.64158156  0.66615253  1
  Hf  Hf0  1  0.99536763  0.00073615  0.85723299  1
  Hf  Hf1  1  -0.00028226  0.99774649  0.64679456  1
  Hf  Hf2  1  0.66819954  0.33257421  0.68527798  1
  Hf  Hf3  1  0.67184690  0.33414038  0.18926400  1
  Hf  Hf4  1  0.66830124  0.33551165  0.97966439  1
  Hf  Hf5  1  0.66163211  0.33192472  0.47497386  1
  Ti  Ti0  1  0.99935952  -0.00001203  0.35409070  1
  Ti  Ti1  1  0.00652208  0.00104808  0.14825385  1
  Ti  Ti2  1  0.32433787  0.66755041  0.02153062  1
  Ti  Ti3  1  0.32831885  0.66785010  0.51751532  1
  Ti  Ti4  1  0.33416510  0.66663343  0.31171109  1
  Ti  Ti5  1  0.34061969  0.66746839  0.81386877  1
  Si  Si0  1  0.70364746  0.99676689  0.75008383  1
  Si  Si1  1  0.36841204  0.03572479  0.58100249  1
  Si  Si2  1  0.96318503  0.62903575  0.08471035  1
  P  P0  1  0.28107267  0.99472412  0.25249569  1
  P  P1  1  0.71218123  0.71875827  0.25095919  1
  P  P2  1  0.00570624  0.28571757  0.25211969  1
  P  P3  1  0.28905368  0.29591518  0.75192380  1
  P  P4  1  0.00221128  0.70616100  0.75342123  1
  P  P5  1  0.96368109  0.34096454  0.58034925  1
  P  P6  1  0.65987421  0.62213036  0.58003814  1
  P  P7  1  0.66868374  0.04042674  0.08419833  1
  P  P8  1  0.37149569  0.33109483  0.08372159  1
  P  P9  1  0.61505891  0.66477252  0.91961147  1
  P  P10  1  0.05301259  0.38736971  0.91707313  1
  P  P11  1  0.33450679  0.95038987  0.91621003  1
  P  P12  1  0.62236415  0.94785892  0.41464130  1
  P  P13  1  0.32648126  0.38057578  0.41385553  1
  P  P14  1  0.05316575  0.67312937  0.41336765  1
  O  O0  1  0.19092920  0.01803627  0.30759934  1
  O  O1  1  0.82907179  0.81152798  0.30568656  1
  O  O2  1  0.98376568  0.17374633  0.30799505  1
  O  O3  1  0.20884361  0.17402170  0.80584220  1
  O  O4  1  0.98154220  0.79614458  0.80845524  1
  O  O5  1  0.82959382  0.02372161  0.80604769  1
  O  O6  1  0.78302002  0.97053438  0.68826387  1
  O  O7  1  0.17773819  0.20739572  0.69615326  1
  O  O8  1  0.03529417  0.82583061  0.69836940  1
  O  O9  1  0.79629356  0.82309434  0.19324038  1
  O  O10  1  0.02489008  0.19550621  0.19614929  1
  O  O11  1  0.16991621  0.97418757  0.19595791  1
  O  O12  1  0.87974950  0.36769763  0.63668134  1
  O  O13  1  0.48831543  0.11726511  0.64124763  1
  O  O14  1  0.63922797  0.51445665  0.63627331  1
  O  O15  1  0.87294731  0.50529417  0.14214960  1
  O  O16  1  0.63448383  0.12313297  0.13912133  1
  O  O17  1  0.49493673  0.36650665  0.13737813  1
  O  O18  1  0.45274860  0.29679695  0.02835096  1
  O  O19  1  0.83020564  0.54423969  0.02823545  1
  O  O20  1  0.69580294  0.15509869  0.02917050  1
  O  O21  1  0.47226588  0.15982686  0.52511288  1
  O  O22  1  0.69066185  0.53777437  0.52548864  1
  O  O23  1  0.84465741  0.31034799  0.52650701  1
  O  O24  1  0.53135165  0.68006311  0.97715525  1
  O  O25  1  0.16002806  0.47953743  0.97365699  1
  O  O26  1  0.32255165  0.83927699  0.97139817  1
  O  O27  1  0.53879029  0.84450774  0.47269616  1
  O  O28  1  0.30750982  0.47043926  0.46995183  1
  O  O29  1  0.16429475  0.69458128  0.47009401  1
  O  O30  1  0.14434520  0.65077103  0.35843734  1
  O  O31  1  0.50485513  0.85375288  0.36029230  1
  O  O32  1  0.34795996  0.49264116  0.35808650  1
  O  O33  1  0.14110618  0.49306735  0.86083693  1
  O  O34  1  0.34918972  0.86470813  0.85787289  1
  O  O35  1  0.50593778  0.65326542  0.86347049  1
  O  O36  1  0.03528365  0.83902147  0.40906258  1
  O  O37  1  0.80544002  0.96506162  0.40878079  1
  O  O38  1  0.16288533  0.19514888  0.40911740  1
  O  O39  1  0.03737431  0.20433585  0.91531113  1
  O  O40  1  0.16994430  0.96845779  0.91559673  1
  O  O41  1  0.80013600  0.82755152  0.91498284  1
  O  O42  1  0.97276654  0.17070579  0.58758178  1
  O  O43  1  0.17556335  0.01099168  0.58623862  1
  O  O44  1  0.81963956  0.81001009  0.58627449  1
  O  O45  1  0.97928537  0.82232086  0.09468052  1
  O  O46  1  0.83235918  0.01980382  0.09187982  1
  O  O47  1  0.18779199  0.17144831  0.09329244  1
  O  O48  1  0.67325860  0.16559057  0.74739944  1
  O  O49  1  0.47197688  0.31559493  0.74344457  1
  O  O50  1  0.83805953  0.52662262  0.74570427  1
  O  O51  1  0.69152326  0.53312785  0.24737283  1
  O  O52  1  0.83803102  0.30074517  0.24823310  1
  O  O53  1  0.46361797  0.15952543  0.24691555  1
  O  O54  1  0.62874619  0.49603041  0.91915785  1
  O  O55  1  0.86852613  0.36617201  0.92170580  1
  O  O56  1  0.50076421  0.13229866  0.92061680  1
  O  O57  1  0.64311681  0.13336816  0.41736620  1
  O  O58  1  0.49329771  0.36403971  0.41712015  1
  O  O59  1  0.87062799  0.50872101  0.41814396  1
  O  O60  1  0.36024618  0.50052780  0.07623710  1
  O  O61  1  0.15797532  0.65444470  0.07490221  1
  O  O62  1  0.50936213  0.85235899  0.07637169  1
  O  O63  1  0.35759949  0.84421337  0.57169096  1
  O  O64  1  0.49579342  0.64192479  0.57371318  1
  O  O65  1  0.14735732  0.50038553  0.57313856  1
  O  O66  1  0.29930588  0.82891053  0.25678740  1
  O  O67  1  0.52860022  0.70076930  0.25715351  1
  O  O68  1  0.16930651  0.47129480  0.25685642  1
  O  O69  1  0.30597857  0.47691901  0.75911551  1
  O  O70  1  0.16706662  0.68761876  0.75830085  1
  O  O71  1  0.50617977  0.82400736  0.75909465  1
loop_
_geom_bond_atom_site_label_1
_geom_bond_atom_site_label_2
_geom_bond_distance
_geom_bond_site_symmetry_2
Na0 O48 2.389504 1_565
Na0 O70 2.395390 1_555
Na0 O71 2.444375 1_555
Na0 O49 2.459820 1_565
Na0 O34 2.640142 1_555
Na0 O13 2.716741 1_565
Na0 O8 2.761162 1_555
Na0 O3 2.782987 1_565
Na1 O63 2.348381 1_555
Na1 O42 2.409229 1_565
Na1 O44 2.431692 1_555
Na1 O64 2.514694 1_555
Na1 O6 2.579436 1_555
Na1 O27 2.730448 1_555
Na1 O13 2.762445 1_565
Na1 O23 2.895324 1_565
Na2 O60 2.386218 1_555
Na2 O45 2.401140 1_555
Na2 O62 2.417680 1_555
Na2 O46 2.482303 1_565
Na2 O24 2.618568 1_554
Na2 O19 2.670111 1_555
Na2 O9 2.746840 1_555
Na2 O17 2.801975 1_555
Na3 O43 2.418506 1_555
Na3 O36 2.468297 1_545
Na3 O38 2.492189 1_555
Na3 O37 2.637043 1_445
Na3 O44 2.663391 1_445
Na3 O42 2.690830 1_455
Na4 O47 2.492310 1_555
Na4 O40 2.534863 1_544
Na4 O39 2.538960 1_554
Na4 O45 2.575774 1_445
Na4 O46 2.591772 1_455
Na4 O41 2.667916 1_444
Na5 O48 2.470859 1_555
Na5 O50 2.486615 1_555
Na5 O55 2.509952 1_555
Na5 O54 2.520515 1_555
Na5 O56 2.627073 1_555
Na5 O49 2.679186 1_555
Na6 O52 2.530277 1_555
Na6 O57 2.534012 1_555
Na6 O51 2.534363 1_555
Na6 O58 2.541793 1_555
Na6 O53 2.549646 1_555
Na6 O59 2.557272 1_555
Na7 O66 2.503739 1_555
Na7 O61 2.508242 1_555
Na7 O68 2.517441 1_555
Na7 O67 2.633858 1_555
Na7 O60 2.664852 1_555
Na7 O62 2.667681 1_555
Na8 O69 2.509211 1_555
Na8 O65 2.522274 1_555
Na8 O64 2.587430 1_555
Na8 O70 2.623032 1_555
Na8 O71 2.640516 1_555
Na8 O63 2.689505 1_555
Hf0 O5 1.947818 1_555
Hf0 O4 2.057818 1_545
Hf0 O3 2.084429 1_655
Hf0 O41 2.088230 1_545
Hf0 O39 2.093722 1_655
Hf0 O40 2.145978 1_645
Hf1 O43 2.025399 1_565
Hf1 O6 2.032047 1_455
Hf1 O7 2.048310 1_565
Hf1 O8 2.050528 1_555
Hf1 O44 2.114563 1_455
Hf1 O42 2.122895 1_465
Hf2 O13 2.018165 1_555
Hf2 O48 2.044247 1_555
Hf2 O12 2.050152 1_555
Hf2 O14 2.061047 1_555
Hf2 O50 2.107100 1_555
Hf2 O49 2.116545 1_555
Hf3 O15 1.968256 1_555
Hf3 O16 2.051838 1_555
Hf3 O17 2.077385 1_555
Hf3 O52 2.101940 1_555
Hf3 O51 2.120189 1_555
Hf3 O53 2.145736 1_555
Hf4 O19 1.993703 1_556
Hf4 O20 2.049757 1_556
Hf4 O18 2.071299 1_556
Hf4 O55 2.103327 1_555
Hf4 O54 2.111802 1_555
Hf4 O56 2.119706 1_555
Hf5 O21 1.957974 1_555
Hf5 O22 2.041560 1_555
Hf5 O23 2.070078 1_555
Hf5 O58 2.095353 1_555
Hf5 O57 2.113704 1_555
Hf5 O59 2.143569 1_555
O0 P0 1.541980 1_545
O0 Ti0 1.926663 1_455
O1 P1 1.548753 1_555
O1 Ti0 1.921609 1_565
O2 P2 1.548939 1_655
O2 Ti0 1.907883 1_555
O3 P3 1.538685 1_555
O4 P4 1.528760 1_655
O5 Si0 1.614688 1_545
O6 Si0 1.625721 1_555
O7 P3 1.541238 1_555
O8 P4 1.556451 1_555
O9 P1 1.550174 1_555
O9 Ti1 2.004592 1_665
O10 P2 1.542151 1_555
O10 Ti1 1.957677 1_555
O11 P0 1.558991 1_555
O11 Ti1 1.902377 1_565
O12 P5 1.544990 1_555
O13 Si1 1.645038 1_555
O14 P6 1.536360 1_555
O15 Si2 1.620843 1_555
O16 P7 1.538561 1_555
O17 P8 1.547866 1_555
O18 P8 1.541351 1_555
O19 Si2 1.632770 1_555
O20 P7 1.538920 1_555
O21 Si1 1.617882 1_555
O22 P6 1.527234 1_555
O23 P5 1.534532 1_555
O24 P9 1.530433 1_555
O24 Ti2 2.036578 1_556
O25 P10 1.548855 1_555
O25 Ti2 1.895117 1_556
O26 P11 1.551280 1_555
O26 Ti2 1.891585 1_556
O27 P12 1.552622 1_555
O27 Ti3 2.000238 1_555
O28 P13 1.542044 1_555
O28 Ti3 1.967665 1_555
O29 P14 1.560737 1_555
O29 Ti3 1.902788 1_555
O30 P14 1.540927 1_555
O30 Ti4 1.923554 1_555
O31 P12 1.546513 1_555
O31 Ti4 1.919595 1_555
O32 P13 1.548258 1_555
O32 Ti4 1.905619 1_555
O33 P10 1.533453 1_555
O33 Ti5 1.968545 1_555
O34 P11 1.550805 1_555
O34 Ti5 1.965050 1_555
O35 P9 1.558969 1_555
O35 Ti5 1.887582 1_555
O36 P14 1.546614 1_555
O36 Ti0 2.020424 1_465
O37 P12 1.550263 1_555
O37 Ti0 2.004017 1_565
O38 P13 1.548872 1_555
O38 Ti0 2.018836 1_455
O39 P10 1.545598 1_555
O40 P11 1.536786 1_555
O41 P9 1.545568 1_555
O42 P5 1.547326 1_555
O43 Si1 1.607569 1_555
O44 P6 1.551218 1_555
O45 Si2 1.648435 1_555
O45 Ti1 1.897597 1_665
O46 P7 1.551376 1_555
O46 Ti1 2.059511 1_655
O47 P8 1.539333 1_555
O47 Ti1 1.986030 1_555
O48 Si0 1.636083 1_545
O49 P3 1.546119 1_555
O50 P4 1.527185 1_655
O51 P1 1.551300 1_555
O52 P2 1.551215 1_655
O53 P0 1.541433 1_545
O54 P9 1.547640 1_555
O55 P10 1.545900 1_655
O56 P11 1.540437 1_545
O57 P12 1.549025 1_545
O58 P13 1.550464 1_555
O59 P14 1.538542 1_655
O60 P8 1.551020 1_555
O60 Ti2 2.058537 1_555
O61 Si2 1.633093 1_455
O61 Ti2 1.856176 1_555
O62 P7 1.554339 1_565
O62 Ti2 2.041195 1_555
O63 Si1 1.651619 1_565
O63 Ti3 1.885413 1_555
O64 P6 1.547628 1_555
O64 Ti3 2.040178 1_555
O65 P5 1.531770 1_455
O65 Ti3 1.985275 1_555
O66 P0 1.547686 1_555
O66 Ti4 2.024014 1_555
O67 P1 1.552443 1_555
O67 Ti4 2.007639 1_555
O68 P2 1.549661 1_555
O68 Ti4 2.020660 1_555
O69 P3 1.530945 1_555
O69 Ti5 1.975853 1_555
O70 P4 1.545445 1_555
O70 Ti5 2.049782 1_555
O71 Si0 1.654770 1_555
O71 Ti5 1.882663 1_555
