# generated using pymatgen
data_MgFe6O7F5
_symmetry_space_group_name_H-M   'P 1'
_cell_length_a   5.12435959
_cell_length_b   7.91551550
_cell_length_c   5.72773686
_cell_angle_alpha   96.16956027
_cell_angle_beta   95.97513427
_cell_angle_gamma   85.79054041
_symmetry_Int_Tables_number   1
_chemical_formula_structural   MgFe6O7F5
_chemical_formula_sum   'Mg1 Fe6 O7 F5'
_cell_volume   229.27249113
_cell_formula_units_Z   1
loop_
 _symmetry_equiv_pos_site_id
 _symmetry_equiv_pos_as_xyz
  1  'x, y, z'
loop_
 _atom_site_type_symbol
 _atom_site_label
 _atom_site_symmetry_multiplicity
 _atom_site_fract_x
 _atom_site_fract_y
 _atom_site_fract_z
 _atom_site_occupancy
  Mg  Mg0  1  0.97522100  0.84676300  0.32949900  1
  Fe  Fe0  1  0.50643000  0.62237600  0.20837500  1
  Fe  Fe1  1  0.46330900  0.99121500  0.53782000  1
  Fe  Fe2  1  0.49922100  0.33544600  0.82248700  1
  Fe  Fe3  1  0.01593400  0.65570400  0.70334600  1
  Fe  Fe4  1  0.97309500  0.29625500  0.33106900  1
  Fe  Fe5  1  0.00401100  0.02921600  0.93233100  1
  O  O0  1  0.86098600  0.07435400  0.24000500  1
  O  O1  1  0.70044600  0.11270200  0.76018500  1
  O  O2  1  0.68846400  0.77107500  0.48665400  1
  O  O3  1  0.71798100  0.40589400  0.11620200  1
  O  O4  1  0.30633800  0.55567900  0.87411400  1
  O  O5  1  0.29104900  0.22958400  0.52892200  1
  O  O6  1  0.16995700  0.89121500  0.67288200  1
  F  F0  1  0.81156000  0.43740800  0.61900800  1
  F  F1  1  0.85796900  0.77620900  0.98348800  1
  F  F2  1  0.30973100  0.89371100  0.19751700  1
  F  F3  1  0.21706800  0.22787200  0.02145100  1
  F  F4  1  0.14512000  0.59732000  0.37274100  1
loop_
_geom_bond_atom_site_label_1
_geom_bond_atom_site_label_2
_geom_bond_distance
_geom_bond_site_symmetry_2
Mg0 O0 1.957557 1_565
Mg0 O2 1.961886 1_555
Mg0 O6 2.117101 1_655
Fe0 O3 2.010528 1_555
Fe0 O2 2.060210 1_555
Fe0 O4 2.109288 1_554
Fe1 O1 1.899905 1_565
Fe1 O6 2.008272 1_555
Fe1 O5 2.026982 1_565
Fe1 O2 2.029519 1_555
Fe2 O4 1.949468 1_555
Fe2 O3 1.973654 1_556
Fe2 O1 1.993420 1_555
Fe2 O5 2.030363 1_555
Fe3 O4 1.867770 1_555
Fe3 O6 2.107888 1_555
Fe3 O2 2.185271 1_455
Fe4 O0 1.891052 1_555
Fe4 O3 1.924803 1_555
Fe4 O5 1.958397 1_655
Fe5 O1 1.870439 1_455
Fe5 O0 1.966101 1_456
Fe5 O6 1.975480 1_545
F0 Fe3 2.072875 1_655
F0 Fe4 2.099026 1_555
F0 Fe2 2.313355 1_555
F1 Fe3 1.991946 1_655
F1 Mg0 2.040617 1_556
F1 Fe5 2.246877 1_665
F2 Mg0 2.017812 1_455
F2 Fe1 2.112042 1_555
F2 Fe0 2.308798 1_555
F2 Fe5 2.349455 1_564
F3 Fe5 1.971972 1_554
F3 Fe2 2.201506 1_554
F3 Fe4 2.270882 1_455
F4 Fe3 2.065327 1_555
F4 Mg0 2.127374 1_455
F4 Fe0 2.193303 1_555
F4 Fe4 2.579820 1_455
