# generated using pymatgen
data_PrSnRu
_symmetry_space_group_name_H-M   'P 1'
_cell_length_a   4.86709363
_cell_length_b   7.36941175
_cell_length_c   7.67894181
_cell_angle_alpha   90.00000000
_cell_angle_beta   90.00000000
_cell_angle_gamma   90.00000000
_symmetry_Int_Tables_number   1
_chemical_formula_structural   PrSnRu
_chemical_formula_sum   'Pr4 Sn4 Ru4'
_cell_volume   275.42534369
_cell_formula_units_Z   4
loop_
 _symmetry_equiv_pos_site_id
 _symmetry_equiv_pos_as_xyz
  1  'x, y, z'
loop_
 _atom_site_type_symbol
 _atom_site_label
 _atom_site_symmetry_multiplicity
 _atom_site_fract_x
 _atom_site_fract_y
 _atom_site_fract_z
 _atom_site_occupancy
  Pr  Pr0  1  0.25000000  0.80877314  0.46630162  1
  Pr  Pr1  1  0.75000000  0.19122686  0.53369838  1
  Pr  Pr2  1  0.75000000  0.30877314  0.03369838  1
  Pr  Pr3  1  0.25000000  0.69122686  0.96630162  1
  Sn  Sn0  1  0.75000000  0.61291801  0.69414944  1
  Sn  Sn1  1  0.75000000  0.88708199  0.19415044  1
  Sn  Sn2  1  0.25000000  0.11291801  0.80585056  1
  Sn  Sn3  1  0.25000000  0.38708199  0.30584956  1
  Ru  Ru0  1  0.75000000  0.55763542  0.34940956  1
  Ru  Ru1  1  0.75000000  0.94236458  0.84940956  1
  Ru  Ru2  1  0.25000000  0.05763542  0.15059044  1
  Ru  Ru3  1  0.25000000  0.44236458  0.65059044  1
loop_
_geom_bond_atom_site_label_1
_geom_bond_atom_site_label_2
_geom_bond_distance
_geom_bond_site_symmetry_2
Pr0 Ru2 3.039869 1_565
Pr0 Ru3 3.048572 1_555
Pr0 Ru0 3.186389 1_455
Pr0 Ru0 3.186389 1_555
Pr0 Sn1 3.259231 1_455
Pr0 Sn1 3.259231 1_555
Pr0 Sn0 3.326647 1_555
Pr0 Sn0 3.326647 1_455
Pr0 Sn3 3.342955 1_555
Pr0 Sn2 3.438335 1_565
Pr1 Ru1 3.039869 1_545
Pr1 Ru0 3.048572 1_555
Pr1 Ru3 3.186389 1_655
Pr1 Ru3 3.186389 1_555
Pr1 Sn2 3.259236 1_655
Pr1 Sn2 3.259236 1_555
Pr1 Sn3 3.326651 1_555
Pr1 Sn3 3.326651 1_655
Pr1 Sn0 3.342953 1_555
Pr1 Sn1 3.438329 1_545
Pr2 Ru0 3.039869 1_555
Pr2 Ru1 3.048572 1_544
Pr2 Ru2 3.186389 1_655
Pr2 Ru2 3.186389 1_555
Pr2 Sn3 3.259231 1_555
Pr2 Sn3 3.259231 1_655
Pr2 Sn2 3.326647 1_554
Pr2 Sn2 3.326647 1_654
Pr2 Sn1 3.342955 1_545
Pr2 Sn0 3.438335 1_554
Pr3 Ru3 3.039869 1_555
Pr3 Ru2 3.048572 1_566
Pr3 Ru1 3.186389 1_555
Pr3 Ru1 3.186389 1_455
Pr3 Sn0 3.259236 1_555
Pr3 Sn0 3.259236 1_455
Pr3 Sn1 3.326651 1_456
Pr3 Sn1 3.326651 1_556
Pr3 Sn2 3.342953 1_565
Pr3 Sn3 3.438329 1_556
Ru0 Sn0 2.678403 1_555
Ru0 Sn1 2.704764 1_555
Ru0 Sn3 2.759308 1_555
Ru0 Sn3 2.759308 1_655
Ru1 Sn1 2.678410 1_556
Ru1 Sn0 2.704767 1_555
Ru1 Sn2 2.759307 1_665
Ru1 Sn2 2.759307 1_565
Ru2 Sn2 2.678403 1_554
Ru2 Sn3 2.704764 1_555
Ru2 Sn1 2.759308 1_545
Ru2 Sn1 2.759308 1_445
Ru3 Sn3 2.678410 1_555
Ru3 Sn2 2.704767 1_555
Ru3 Sn0 2.759307 1_455
Ru3 Sn0 2.759307 1_555
