# generated using pymatgen
data_Y3NbP2(SO6)4
_symmetry_space_group_name_H-M   'P 1'
_cell_length_a   9.16126340
_cell_length_b   9.16918071
_cell_length_c   23.56057386
_cell_angle_alpha   90.02601964
_cell_angle_beta   89.94812315
_cell_angle_gamma   119.97882592
_symmetry_Int_Tables_number   1
_chemical_formula_structural   Y3NbP2(SO6)4
_chemical_formula_sum   'Y9 Nb3 P6 S12 O72'
_cell_volume   1714.33165134
_cell_formula_units_Z   3
loop_
 _symmetry_equiv_pos_site_id
 _symmetry_equiv_pos_as_xyz
  1  'x, y, z'
loop_
 _atom_site_type_symbol
 _atom_site_label
 _atom_site_symmetry_multiplicity
 _atom_site_fract_x
 _atom_site_fract_y
 _atom_site_fract_z
 _atom_site_occupancy
  Y  Y0  1  0.99810178  0.00004724  0.35678852  1
  Y  Y1  1  0.99511337  0.00159558  0.85928842  1
  Y  Y2  1  0.99106921  0.99553203  0.65027894  1
  Y  Y3  1  0.00226508  0.00896180  0.14311162  1
  Y  Y4  1  0.66619033  0.32875555  0.69339965  1
  Y  Y5  1  0.67197735  0.33509319  0.19359267  1
  Y  Y6  1  0.67206727  0.33639217  0.47388491  1
  Y  Y7  1  0.33239907  0.66645574  0.02283476  1
  Y  Y8  1  0.32966230  0.67041322  0.52706875  1
  Nb  Nb0  1  0.66713079  0.33348449  0.97079658  1
  Nb  Nb1  1  0.31977825  0.65803786  0.31269623  1
  Nb  Nb2  1  0.34027387  0.67183171  0.81877564  1
  P  P0  1  0.01302451  0.29543005  0.25069815  1
  P  P1  1  0.69753246  0.98436697  0.75320637  1
  P  P2  1  0.61070418  0.65098812  0.91788509  1
  P  P3  1  0.04323441  0.39179350  0.91753706  1
  P  P4  1  0.34680177  0.95894660  0.91774611  1
  P  P5  1  0.04929647  0.66290611  0.41600890  1
  S  S0  1  0.28642087  0.98373664  0.25099924  1
  S  S1  1  0.69543384  0.71466903  0.25137226  1
  S  S2  1  0.28796083  0.30766395  0.75362495  1
  S  S3  1  0.02006130  0.71191032  0.75377023  1
  S  S4  1  0.95046505  0.32609749  0.58373236  1
  S  S5  1  0.37590450  0.05272344  0.58347033  1
  S  S6  1  0.67227129  0.62131962  0.58327629  1
  S  S7  1  0.93594889  0.61462059  0.07984934  1
  S  S8  1  0.67446822  0.06331041  0.07981369  1
  S  S9  1  0.38893525  0.32423046  0.08017998  1
  S  S10  1  0.60658357  0.94513489  0.41382042  1
  S  S11  1  0.33991279  0.39169949  0.41416573  1
  O  O0  1  0.21151891  0.01435459  0.30123207  1
  O  O1  1  0.80430857  0.78735508  0.30122219  1
  O  O2  1  0.98343687  0.18691583  0.30277334  1
  O  O3  1  0.21397674  0.19718223  0.80289876  1
  O  O4  1  0.98732294  0.78894169  0.80294781  1
  O  O5  1  0.81151198  0.01730011  0.80418078  1
  O  O6  1  0.76672219  0.94196640  0.70008711  1
  O  O7  1  0.18285743  0.23705350  0.70246734  1
  O  O8  1  0.05665825  0.81758027  0.70253891  1
  O  O9  1  0.76921586  0.82107794  0.20047387  1
  O  O10  1  0.05250813  0.22248136  0.19789845  1
  O  O11  1  0.17873154  0.94644422  0.20041117  1
  O  O12  1  0.87010044  0.35142605  0.63415630  1
  O  O13  1  0.48144908  0.13605583  0.63372771  1
  O  O14  1  0.64974770  0.51799741  0.63400703  1
  O  O15  1  0.85784770  0.51296212  0.13097023  1
  O  O16  1  0.65118820  0.14025808  0.13118437  1
  O  O17  1  0.48840009  0.34620501  0.13151920  1
  O  O18  1  0.47711778  0.30640959  0.02874679  1
  O  O19  1  0.82976602  0.52623147  0.02835590  1
  O  O20  1  0.69411505  0.17025277  0.02858984  1
  O  O21  1  0.45528956  0.15134845  0.53123780  1
  O  O22  1  0.69173294  0.53967435  0.53144861  1
  O  O23  1  0.84949175  0.30446924  0.53193102  1
  O  O24  1  0.53846774  0.68232592  0.97101006  1
  O  O25  1  0.14283022  0.46352959  0.97152996  1
  O  O26  1  0.31654866  0.85678105  0.97110384  1
  O  O27  1  0.53399463  0.84534751  0.46527778  1
  O  O28  1  0.31598918  0.46822218  0.46493615  1
  O  O29  1  0.15840879  0.68921372  0.46752407  1
  O  O30  1  0.15129408  0.64453003  0.36153988  1
  O  O31  1  0.50057869  0.85289186  0.36265730  1
  O  O32  1  0.35901604  0.50068704  0.36240147  1
  O  O33  1  0.13102152  0.51474037  0.86653226  1
  O  O34  1  0.38317219  0.86899007  0.86671893  1
  O  O35  1  0.48639999  0.61547101  0.86654187  1
  O  O36  1  0.03374861  0.81657736  0.40299596  1
  O  O37  1  0.77597414  0.96741586  0.40566433  1
  O  O38  1  0.19107474  0.22523459  0.40527085  1
  O  O39  1  0.00595549  0.21496667  0.90506994  1
  O  O40  1  0.21039466  0.99777544  0.90265386  1
  O  O41  1  0.78795077  0.78703371  0.90425823  1
  O  O42  1  0.96735625  0.17512926  0.59078883  1
  O  O43  1  0.20739758  0.03385374  0.59113262  1
  O  O44  1  0.82554347  0.78877077  0.58956808  1
  O  O45  1  0.94502044  0.77952148  0.08530913  1
  O  O46  1  0.83030010  0.05301953  0.08462790  1
  O  O47  1  0.22343039  0.16691484  0.08462831  1
  O  O48  1  0.65803573  0.12575790  0.74306703  1
  O  O49  1  0.46118825  0.34165616  0.74418691  1
  O  O50  1  0.87805705  0.54057584  0.74430275  1
  O  O51  1  0.66417935  0.54223507  0.24233610  1
  O  O52  1  0.87179975  0.33488715  0.24127763  1
  O  O53  1  0.45743620  0.12626325  0.24227208  1
  O  O54  1  0.61565830  0.47989664  0.92717725  1
  O  O55  1  0.86366596  0.38168064  0.92742607  1
  O  O56  1  0.51797123  0.13569455  0.92748910  1
  O  O57  1  0.61278828  0.10834197  0.41663884  1
  O  O58  1  0.49458918  0.38180931  0.41604326  1
  O  O59  1  0.88151528  0.49856645  0.41727948  1
  O  O60  1  0.36730889  0.47161779  0.07354610  1
  O  O61  1  0.10458884  0.63472652  0.07337137  1
  O  O62  1  0.52633116  0.89501209  0.07311064  1
  O  O63  1  0.36084248  0.88419974  0.57836742  1
  O  O64  1  0.52218572  0.64070731  0.57650975  1
  O  O65  1  0.11991106  0.47657515  0.57752728  1
  O  O66  1  0.30566606  0.83054834  0.26150931  1
  O  O67  1  0.52744412  0.70145547  0.26274780  1
  O  O68  1  0.17771296  0.47624956  0.26386143  1
  O  O69  1  0.29828358  0.47496781  0.76614861  1
  O  O70  1  0.17514364  0.69778190  0.76604422  1
  O  O71  1  0.51982393  0.81975795  0.76933816  1
loop_
_geom_bond_atom_site_label_1
_geom_bond_atom_site_label_2
_geom_bond_distance
_geom_bond_site_symmetry_2
Nb0 O55 1.919162 1_555
Nb0 O54 1.927576 1_555
Nb0 O56 1.929159 1_555
Nb0 O18 2.126066 1_556
Nb0 O20 2.127797 1_556
Nb0 O19 2.133642 1_556
Nb1 O30 1.878293 1_555
Nb1 O68 1.905011 1_555
Nb1 O32 2.025552 1_555
Nb1 O66 2.044394 1_555
Nb1 O31 2.089359 1_555
Nb1 O67 2.098162 1_555
Nb2 O71 1.915839 1_555
Nb2 O34 1.996846 1_555
Nb2 O35 2.005077 1_555
Nb2 O69 2.061212 1_555
Nb2 O70 2.062062 1_555
Nb2 O33 2.062469 1_555
O0 S0 1.463262 1_545
O0 Y0 2.300527 1_455
O1 S1 1.468183 1_555
O1 Y0 2.282761 1_565
O2 P0 1.516504 1_655
O2 Y0 2.192219 1_555
O3 S2 1.465203 1_555
O3 Y1 2.324948 1_455
O4 S3 1.463435 1_655
O4 Y1 2.329772 1_565
O5 P1 1.520108 1_545
O5 Y1 2.186747 1_555
O6 P1 1.537411 1_555
O6 Y2 2.197716 1_555
O7 S2 1.475620 1_555
O7 Y2 2.369847 1_445
O8 S3 1.477776 1_555
O8 Y2 2.349983 1_455
O9 S1 1.478997 1_555
O9 Y3 2.381982 1_665
O10 P0 1.538173 1_555
O10 Y3 2.192997 1_555
O11 S0 1.474943 1_555
O11 Y3 2.386522 1_565
O12 S4 1.475268 1_555
O12 Y4 2.255807 1_555
O13 S5 1.477754 1_555
O13 Y4 2.230804 1_555
O14 S6 1.474428 1_555
O14 Y4 2.292486 1_555
O15 S7 1.471197 1_555
O15 Y5 2.226786 1_555
O16 S8 1.468775 1_555
O16 Y5 2.246748 1_555
O17 S9 1.467073 1_555
O17 Y5 2.270139 1_555
O18 S9 1.509226 1_555
O19 S7 1.512736 1_555
O20 S8 1.508225 1_555
O21 S5 1.484344 1_555
O21 Y6 2.297509 1_555
O22 S6 1.488437 1_555
O22 Y6 2.237994 1_555
O23 S4 1.484275 1_555
O23 Y6 2.253419 1_555
O24 P2 1.508430 1_555
O24 Y7 2.190317 1_556
O25 P3 1.511616 1_555
O25 Y7 2.170651 1_556
O26 P4 1.508553 1_555
O26 Y7 2.192613 1_556
O27 S10 1.463115 1_555
O27 Y8 2.278803 1_555
O28 S11 1.457272 1_555
O28 Y8 2.315484 1_555
O29 P5 1.513768 1_555
O29 Y8 2.175728 1_555
O30 P5 1.644212 1_555
O31 S10 1.513896 1_555
O32 S11 1.530567 1_555
O33 P3 1.566898 1_555
O34 P4 1.584218 1_555
O35 P2 1.580416 1_555
O36 P5 1.516814 1_555
O36 Y0 2.161763 1_465
O37 S10 1.472925 1_555
O37 Y0 2.223570 1_565
O38 S11 1.467387 1_555
O38 Y0 2.246569 1_455
O39 P3 1.509334 1_555
O39 Y1 2.192043 1_455
O40 P4 1.503462 1_555
O40 Y1 2.237770 1_465
O41 P2 1.506993 1_555
O41 Y1 2.204956 1_565
O42 S4 1.477184 1_555
O42 Y2 2.254709 1_545
O43 S5 1.475888 1_555
O43 Y2 2.300560 1_445
O44 S6 1.482123 1_555
O44 Y2 2.251252 1_555
O45 S7 1.477796 1_555
O45 Y3 2.334885 1_665
O46 S8 1.481480 1_555
O46 Y3 2.276889 1_655
O47 S9 1.484849 1_555
O47 Y3 2.272804 1_555
O48 P1 1.529049 1_545
O48 Y4 2.168480 1_555
O49 S2 1.473164 1_555
O49 Y4 2.278328 1_555
O50 S3 1.472404 1_655
O50 Y4 2.283119 1_555
O51 S1 1.474619 1_555
O51 Y5 2.250527 1_555
O52 P0 1.523956 1_655
O52 Y5 2.149557 1_555
O53 S0 1.469097 1_545
O53 Y5 2.254280 1_555
O54 P2 1.607019 1_555
O55 P3 1.617415 1_655
O56 P4 1.612065 1_545
O57 S10 1.470369 1_545
O57 Y6 2.313090 1_555
O58 S11 1.465161 1_555
O58 Y6 2.314177 1_555
O59 P5 1.522966 1_655
O59 Y6 2.194850 1_555
O60 S9 1.468962 1_555
O60 Y7 2.301091 1_555
O61 S7 1.469397 1_455
O61 Y7 2.290645 1_555
O62 S8 1.468098 1_565
O62 Y7 2.287384 1_555
O63 S5 1.485931 1_565
O63 Y8 2.196322 1_555
O64 S6 1.480630 1_555
O64 Y8 2.241883 1_555
O65 S4 1.481267 1_455
O65 Y8 2.202136 1_555
O66 S0 1.520927 1_555
O67 S1 1.505977 1_555
O68 P0 1.619226 1_555
O69 S2 1.517874 1_555
O70 S3 1.517779 1_555
O71 P1 1.617641 1_555
