# generated using pymatgen
data_LiFe(GeO3)2
_symmetry_space_group_name_H-M   'P 1'
_cell_length_a   6.61996800
_cell_length_b   6.61996800
_cell_length_c   5.27105948
_cell_angle_alpha   80.97209836
_cell_angle_beta   80.97209836
_cell_angle_gamma   85.01097528
_symmetry_Int_Tables_number   1
_chemical_formula_structural   LiFe(GeO3)2
_chemical_formula_sum   'Li2 Fe2 Ge4 O12'
_cell_volume   224.85032862
_cell_formula_units_Z   2
loop_
 _symmetry_equiv_pos_site_id
 _symmetry_equiv_pos_as_xyz
  1  'x, y, z'
loop_
 _atom_site_type_symbol
 _atom_site_label
 _atom_site_symmetry_multiplicity
 _atom_site_fract_x
 _atom_site_fract_y
 _atom_site_fract_z
 _atom_site_occupancy
  Li  Li0  1  0.27030400  0.72969600  0.25000000  1
  Li  Li1  1  0.72969600  0.27030400  0.75000000  1
  Fe  Fe0  1  0.89967000  0.10033000  0.25000000  1
  Fe  Fe1  1  0.10033000  0.89967000  0.75000000  1
  Ge  Ge0  1  0.39181900  0.20746600  0.28833000  1
  Ge  Ge1  1  0.79253400  0.60818100  0.21167000  1
  Ge  Ge2  1  0.60818100  0.79253400  0.71167000  1
  Ge  Ge3  1  0.20746600  0.39181900  0.78833000  1
  O  O0  1  0.96876600  0.80616200  0.12470300  1
  O  O1  1  0.70501500  0.57402600  0.91625500  1
  O  O2  1  0.03123400  0.19383800  0.87529700  1
  O  O3  1  0.80616200  0.96876600  0.62470300  1
  O  O4  1  0.42597400  0.29498500  0.58374500  1
  O  O5  1  0.19383800  0.03123400  0.37529700  1
  O  O6  1  0.12585600  0.62944600  0.63310300  1
  O  O7  1  0.37055400  0.87414400  0.86689700  1
  O  O8  1  0.57402600  0.70501500  0.41625500  1
  O  O9  1  0.62944600  0.12585600  0.13310300  1
  O  O10  1  0.29498500  0.42597400  0.08374500  1
  O  O11  1  0.87414400  0.37055400  0.36689700  1
loop_
_geom_bond_atom_site_label_1
_geom_bond_atom_site_label_2
_geom_bond_distance
_geom_bond_site_symmetry_2
Li0 O6 2.125190 1_555
Li0 O7 2.125190 1_554
Li0 O5 2.193219 1_565
Li0 O0 2.193219 1_455
Li0 O8 2.299608 1_555
Li0 O10 2.299608 1_555
Li1 O11 2.125190 1_555
Li1 O9 2.125190 1_556
Li1 O2 2.193219 1_655
Li1 O3 2.193219 1_545
Li1 O1 2.299608 1_555
Li1 O4 2.299608 1_555
Fe0 O11 1.966967 1_555
Fe0 O9 1.966967 1_555
Fe0 O2 2.052538 1_654
Fe0 O3 2.052538 1_545
Fe0 O5 2.142805 1_655
Fe0 O0 2.142805 1_545
Fe1 O7 1.966967 1_555
Fe1 O6 1.966967 1_555
Fe1 O5 2.052538 1_565
Fe1 O0 2.052538 1_456
Fe1 O2 2.142805 1_565
Fe1 O3 2.142805 1_455
Ge0 O9 1.738652 1_555
Ge0 O5 1.788439 1_555
Ge0 O4 1.796641 1_555
Ge0 O10 1.797878 1_555
Ge1 O11 1.738652 1_555
Ge1 O0 1.788439 1_555
Ge1 O1 1.796641 1_554
Ge1 O8 1.797878 1_555
Ge2 O7 1.738652 1_555
Ge2 O3 1.788439 1_555
Ge2 O8 1.796641 1_555
Ge2 O1 1.797878 1_555
Ge3 O6 1.738652 1_555
Ge3 O2 1.788439 1_555
Ge3 O10 1.796641 1_556
Ge3 O4 1.797878 1_555
