# generated using pymatgen
data_MgV4O7F5
_symmetry_space_group_name_H-M   'P 1'
_cell_length_a   5.27970383
_cell_length_b   5.35993878
_cell_length_c   8.81456117
_cell_angle_alpha   75.77580553
_cell_angle_beta   90.06453348
_cell_angle_gamma   60.70737148
_symmetry_Int_Tables_number   1
_chemical_formula_structural   MgV4O7F5
_chemical_formula_sum   'Mg1 V4 O7 F5'
_cell_volume   208.69329883
_cell_formula_units_Z   1
loop_
 _symmetry_equiv_pos_site_id
 _symmetry_equiv_pos_as_xyz
  1  'x, y, z'
loop_
 _atom_site_type_symbol
 _atom_site_label
 _atom_site_symmetry_multiplicity
 _atom_site_fract_x
 _atom_site_fract_y
 _atom_site_fract_z
 _atom_site_occupancy
  Mg  Mg0  1  0.80158300  0.37522400  0.61131700  1
  V  V0  1  0.74245700  0.49778600  0.26057900  1
  V  V1  1  0.44908500  0.03149200  0.50599000  1
  V  V2  1  0.25497600  0.52811500  0.75776400  1
  V  V3  1  0.05020600  0.97451300  0.02055700  1
  O  O0  1  0.96104100  0.22794000  0.12575600  1
  O  O1  1  0.55907500  0.74031300  0.37179500  1
  O  O2  1  0.41268700  0.75564700  0.07500600  1
  O  O3  1  0.45293200  0.72404900  0.66666700  1
  O  O4  1  0.49424800  0.24241200  0.62039700  1
  O  O5  1  0.04124400  0.76167800  0.86544200  1
  O  O6  1  0.04841000  0.22944500  0.44413400  1
  F  F0  1  0.93430000  0.70179100  0.57840800  1
  F  F1  1  0.94474800  0.72472600  0.16470800  1
  F  F2  1  0.54899400  0.26228500  0.31655700  1
  F  F3  1  0.59295600  0.24437700  0.91763600  1
  F  F4  1  0.07355700  0.24071000  0.81871400  1
loop_
_geom_bond_atom_site_label_1
_geom_bond_atom_site_label_2
_geom_bond_distance
_geom_bond_site_symmetry_2
Mg0 O6 2.013507 1_655
Mg0 O3 2.050534 1_555
Mg0 O4 2.061241 1_555
Mg0 O1 2.331946 1_555
O0 V3 1.709045 1_645
O0 V0 2.012596 1_555
O1 V0 1.727736 1_555
O1 V1 2.047954 1_565
O2 V3 1.671366 1_555
O2 V0 2.035953 1_555
O3 V2 1.871243 1_555
O3 V1 1.882031 1_565
O4 V1 1.781967 1_555
O4 V2 2.104443 1_555
O5 V2 1.716224 1_555
O5 V3 1.998060 1_556
O6 V1 1.847944 1_555
O6 V0 1.967948 1_455
F0 V2 1.990209 1_655
F0 Mg0 2.142447 1_555
F0 V1 2.259453 1_565
F1 V3 1.900537 1_655
F1 V0 2.025479 1_555
F2 V0 1.958778 1_555
F2 V1 2.054763 1_555
F3 V2 1.941264 1_555
F3 V3 2.162527 1_646
F4 V3 2.035062 1_546
F4 Mg0 2.063257 1_455
F4 V2 2.148825 1_555
