# generated using pymatgen
data_MgTiZn(BiO3)2
_symmetry_space_group_name_H-M   'P 1'
_cell_length_a   3.75986541
_cell_length_b   3.75986157
_cell_length_c   12.14752045
_cell_angle_alpha   90.00000000
_cell_angle_beta   90.00000000
_cell_angle_gamma   90.00000000
_symmetry_Int_Tables_number   1
_chemical_formula_structural   MgTiZn(BiO3)2
_chemical_formula_sum   'Mg1 Ti1 Zn1 Bi2 O6'
_cell_volume   171.72431524
_cell_formula_units_Z   1
loop_
 _symmetry_equiv_pos_site_id
 _symmetry_equiv_pos_as_xyz
  1  'x, y, z'
loop_
 _atom_site_type_symbol
 _atom_site_label
 _atom_site_symmetry_multiplicity
 _atom_site_fract_x
 _atom_site_fract_y
 _atom_site_fract_z
 _atom_site_occupancy
  Mg  Mg0  1  -0.00000000  0.00000000  0.83838364  1
  Ti  Ti0  1  0.50000000  0.50000000  0.71497932  1
  Zn  Zn0  1  0.50000000  0.50000000  0.28085867  1
  Bi  Bi0  1  0.00000000  0.00000000  0.45094608  1
  Bi  Bi1  1  0.00000000  0.00000000  0.08961342  1
  O  O0  1  0.50000000  0.50000000  0.57450122  1
  O  O1  1  -0.00000000  0.50000000  0.35262025  1
  O  O2  1  0.50000000  0.00000000  0.77063692  1
  O  O3  1  0.50000000  -0.00000000  0.35262025  1
  O  O4  1  0.50000000  0.50000000  0.11365232  1
  O  O5  1  0.00000000  0.50000000  0.77063792  1
loop_
_geom_bond_atom_site_label_1
_geom_bond_atom_site_label_2
_geom_bond_distance
_geom_bond_site_symmetry_2
Mg0 O5 2.052163 1_555
Mg0 O5 2.052163 1_545
Mg0 O2 2.052170 1_555
Mg0 O2 2.052170 1_455
Bi0 O1 2.227278 1_555
Bi0 O1 2.227278 1_545
Bi0 O3 2.227280 1_555
Bi0 O3 2.227280 1_455
Bi1 O4 2.674614 1_545
Bi1 O4 2.674614 1_455
Bi1 O4 2.674614 1_555
Bi1 O4 2.674614 1_445
Bi1 Mg0 3.051819 1_554
O0 Ti0 1.706461 1_555
O1 Zn0 2.072209 1_555
O1 Zn0 2.072209 1_455
O2 Ti0 1.997812 1_545
O2 Ti0 1.997812 1_555
O3 Zn0 2.072208 1_545
O3 Zn0 2.072208 1_555
O4 Zn0 2.031143 1_555
O5 Ti0 1.997818 1_555
O5 Ti0 1.997818 1_455
