# generated using pymatgen
data_K2Mg(CoO2)2
_symmetry_space_group_name_H-M   'P 1'
_cell_length_a   5.82013165
_cell_length_b   5.82101435
_cell_length_c   8.64044506
_cell_angle_alpha   59.22066210
_cell_angle_beta   120.78006262
_cell_angle_gamma   147.02903808
_symmetry_Int_Tables_number   1
_chemical_formula_structural   K2Mg(CoO2)2
_chemical_formula_sum   'K2 Mg1 Co2 O4'
_cell_volume   134.72481064
_cell_formula_units_Z   1
loop_
 _symmetry_equiv_pos_site_id
 _symmetry_equiv_pos_as_xyz
  1  'x, y, z'
loop_
 _atom_site_type_symbol
 _atom_site_label
 _atom_site_symmetry_multiplicity
 _atom_site_fract_x
 _atom_site_fract_y
 _atom_site_fract_z
 _atom_site_occupancy
  K  K0  1  0.17382019  0.82630325  0.63231719  1
  K  K1  1  0.84088153  0.16070267  0.39580306  1
  Mg  Mg0  1  0.32195709  0.67915031  0.05296347  1
  Co  Co0  1  0.04945353  0.95188616  0.19092830  1
  Co  Co1  1  0.98675527  0.01455520  0.84105583  1
  O  O0  1  0.16786802  0.83339824  0.09394830  1
  O  O1  1  0.44469567  0.55663373  0.69070289  1
  O  O2  1  0.52060499  0.48057950  0.29993483  1
  O  O3  1  0.84813071  0.15304095  0.94520314  1
loop_
_geom_bond_atom_site_label_1
_geom_bond_atom_site_label_2
_geom_bond_distance
_geom_bond_site_symmetry_2
K0 O1 2.780639 1_555
K0 O3 2.863123 1_455
K0 O3 2.864864 1_565
K0 O2 2.941848 1_455
K0 O2 2.943973 1_565
K1 O1 2.722132 1_655
K1 O1 2.722671 1_545
K1 O0 2.807360 1_655
K1 O0 2.807707 1_545
K1 O2 3.036347 1_655
K1 O2 3.037780 1_545
K1 O2 3.208233 1_555
Mg0 O0 1.933248 1_555
Mg0 O3 1.992482 1_564
Mg0 O3 1.992623 1_454
Mg0 O2 2.102187 1_555
Co0 O0 1.906048 1_555
Co0 O2 2.010249 1_565
Co0 O2 2.010341 1_455
Co0 O3 2.112658 1_464
Co1 O1 1.996300 1_545
Co1 O1 1.996315 1_655
Co1 O0 2.036463 1_646
Co1 O3 2.165038 1_555
