# generated using pymatgen
data_MgNbVO4
_symmetry_space_group_name_H-M   'P 1'
_cell_length_a   5.16615121
_cell_length_b   5.16614997
_cell_length_c   5.16615123
_cell_angle_alpha   130.71703096
_cell_angle_beta   130.78002883
_cell_angle_gamma   72.21292744
_symmetry_Int_Tables_number   1
_chemical_formula_structural   MgNbVO4
_chemical_formula_sum   'Mg1 Nb1 V1 O4'
_cell_volume   77.36697278
_cell_formula_units_Z   1
loop_
 _symmetry_equiv_pos_site_id
 _symmetry_equiv_pos_as_xyz
  1  'x, y, z'
loop_
 _atom_site_type_symbol
 _atom_site_label
 _atom_site_symmetry_multiplicity
 _atom_site_fract_x
 _atom_site_fract_y
 _atom_site_fract_z
 _atom_site_occupancy
  Mg  Mg0  1  0.51091200  0.51091200  0.00000000  1
  Nb  Nb0  1  0.01005400  0.01005400  0.00000000  1
  V  V0  1  0.76009900  0.26009900  0.50000000  1
  O  O0  1  0.51105900  0.01105900  0.50000000  1
  O  O1  1  0.25582900  0.25582900  0.00000000  1
  O  O2  1  0.00902400  0.50902400  0.50000000  1
  O  O3  1  0.76445400  0.76445400  0.00000000  1
loop_
_geom_bond_atom_site_label_1
_geom_bond_atom_site_label_2
_geom_bond_distance
_geom_bond_site_symmetry_2
Mg0 O3 2.116495 1_555
Mg0 O1 2.129358 1_555
Mg0 O2 2.151446 1_655
Mg0 O2 2.151446 1_554
Mg0 O0 2.153970 1_565
Mg0 O0 2.153970 1_554
Nb0 O3 2.050197 1_445
Nb0 O1 2.051658 1_555
Nb0 O0 2.151404 1_454
Nb0 O0 2.151404 1_555
Nb0 O2 2.153987 1_544
Nb0 O2 2.153987 1_555
O0 V0 2.078913 1_555
O1 V0 2.151683 1_454
O1 V0 2.151683 1_555
O2 V0 2.077953 1_455
O3 V0 2.154276 1_554
O3 V0 2.154276 1_565
