# generated using pymatgen
data_Pb3O4
_symmetry_space_group_name_H-M   'P 1'
_cell_length_a   6.64596849
_cell_length_b   8.89399404
_cell_length_c   8.89399404
_cell_angle_alpha   90.00000000
_cell_angle_beta   90.00000000
_cell_angle_gamma   90.00000000
_symmetry_Int_Tables_number   1
_chemical_formula_structural   Pb3O4
_chemical_formula_sum   'Pb12 O16'
_cell_volume   525.71690933
_cell_formula_units_Z   4
loop_
 _symmetry_equiv_pos_site_id
 _symmetry_equiv_pos_as_xyz
  1  'x, y, z'
loop_
 _atom_site_type_symbol
 _atom_site_label
 _atom_site_symmetry_multiplicity
 _atom_site_fract_x
 _atom_site_fract_y
 _atom_site_fract_z
 _atom_site_occupancy
  Pb  Pb0  1  0.50000000  0.16344892  0.85556050  1
  Pb  Pb1  1  0.00000000  0.85556050  0.83655108  1
  Pb  Pb2  1  -0.00000000  0.14443950  0.16344892  1
  Pb  Pb3  1  0.50000000  0.33655108  0.35556050  1
  Pb  Pb4  1  -0.00000000  0.64443950  0.33655108  1
  Pb  Pb5  1  0.75000000  -0.00000000  0.50000000  1
  Pb  Pb6  1  0.25000000  0.50000000  -0.00000000  1
  Pb  Pb7  1  0.00000000  0.35556050  0.66344892  1
  Pb  Pb8  1  0.25000000  -0.00000000  0.50000000  1
  Pb  Pb9  1  0.50000000  0.83655108  0.14443950  1
  Pb  Pb10  1  0.50000000  0.66344892  0.64443950  1
  Pb  Pb11  1  0.75000000  0.50000000  -0.00000000  1
  O  O0  1  0.50000000  0.86485536  0.40572737  1
  O  O1  1  0.75000000  0.17141806  0.32858194  1
  O  O2  1  -0.00000000  0.90572737  0.36485536  1
  O  O3  1  0.25000000  0.67141806  0.17141806  1
  O  O4  1  0.25000000  0.32858194  0.82858194  1
  O  O5  1  0.50000000  0.13514464  0.59427263  1
  O  O6  1  0.00000000  0.59427263  0.86485536  1
  O  O7  1  0.25000000  0.17141806  0.32858194  1
  O  O8  1  0.50000000  0.36485536  0.09427263  1
  O  O9  1  0.75000000  0.82858194  0.67141806  1
  O  O10  1  0.75000000  0.32858194  0.82858194  1
  O  O11  1  0.00000000  0.09427263  0.63514464  1
  O  O12  1  -0.00000000  0.40572737  0.13514464  1
  O  O13  1  0.25000000  0.82858194  0.67141806  1
  O  O14  1  0.75000000  0.67141806  0.17141806  1
  O  O15  1  0.50000000  0.63514464  0.90572737  1
loop_
_geom_bond_atom_site_label_1
_geom_bond_atom_site_label_2
_geom_bond_distance
_geom_bond_site_symmetry_2
O0 Pb8 2.215472 1_565
O0 Pb5 2.215472 1_565
O0 Pb9 2.337488 1_555
O1 Pb5 2.156098 1_555
O1 Pb3 2.230513 1_555
O1 Pb2 2.230513 1_655
O2 Pb8 2.215472 1_565
O2 Pb5 2.215472 1_465
O2 Pb4 2.337488 1_555
O3 Pb6 2.156098 1_555
O3 Pb9 2.230513 1_555
O3 Pb4 2.230513 1_555
O4 Pb6 2.156098 1_556
O4 Pb7 2.230513 1_555
O4 Pb0 2.230513 1_555
O5 Pb8 2.215472 1_555
O5 Pb5 2.215472 1_555
O5 Pb0 2.337488 1_555
O6 Pb11 2.215472 1_456
O6 Pb6 2.215472 1_556
O6 Pb1 2.337488 1_555
O7 Pb8 2.156098 1_555
O7 Pb3 2.230513 1_555
O7 Pb2 2.230513 1_555
O8 Pb11 2.215472 1_555
O8 Pb6 2.215472 1_555
O8 Pb3 2.337488 1_555
O9 Pb5 2.156098 1_565
O9 Pb10 2.230513 1_555
O9 Pb1 2.230513 1_655
O10 Pb11 2.156098 1_556
O10 Pb7 2.230513 1_655
O10 Pb0 2.230513 1_555
O11 Pb8 2.215472 1_555
O11 Pb5 2.215472 1_455
O11 Pb7 2.337488 1_555
O12 Pb6 2.215472 1_555
O12 Pb11 2.215472 1_455
O12 Pb2 2.337488 1_555
O13 Pb8 2.156098 1_565
O13 Pb1 2.230513 1_555
O13 Pb10 2.230513 1_555
O14 Pb11 2.156098 1_555
O14 Pb4 2.230513 1_655
O14 Pb9 2.230513 1_555
O15 Pb11 2.215472 1_556
O15 Pb6 2.215472 1_556
O15 Pb10 2.337488 1_555
