# generated using pymatgen
data_Na2Gd2MgTi3O10
_symmetry_space_group_name_H-M   'P 1'
_cell_length_a   3.90503126
_cell_length_b   3.90503222
_cell_length_c   15.95004253
_cell_angle_alpha   97.04455178
_cell_angle_beta   97.03146889
_cell_angle_gamma   89.99999560
_symmetry_Int_Tables_number   1
_chemical_formula_structural   Na2Gd2MgTi3O10
_chemical_formula_sum   'Na2 Gd2 Mg1 Ti3 O10'
_cell_volume   239.54714468
_cell_formula_units_Z   1
loop_
 _symmetry_equiv_pos_site_id
 _symmetry_equiv_pos_as_xyz
  1  'x, y, z'
loop_
 _atom_site_type_symbol
 _atom_site_label
 _atom_site_symmetry_multiplicity
 _atom_site_fract_x
 _atom_site_fract_y
 _atom_site_fract_z
 _atom_site_occupancy
  Na  Na0  1  0.71647700  0.71636700  0.43295300  1
  Na  Na1  1  0.28407400  0.28421900  0.56814800  1
  Gd  Gd0  1  0.59827700  0.59834900  0.19655400  1
  Gd  Gd1  1  0.40172300  0.40164600  0.80344600  1
  Mg  Mg0  1  0.49951900  0.49956100  0.99903900  1
  Ti  Ti0  1  0.84531300  0.84510800  0.69062700  1
  Ti  Ti1  1  0.15522000  0.15540700  0.31044000  1
  Ti  Ti2  1  0.00059600  0.00061700  0.00119200  1
  O  O0  1  0.86060600  0.36040500  0.72121300  1
  O  O1  1  0.36060500  0.86040400  0.72121300  1
  O  O2  1  0.13899200  0.63917400  0.27798300  1
  O  O3  1  0.63899200  0.13918500  0.27798300  1
  O  O4  1  0.78919800  0.78877000  0.57839700  1
  O  O5  1  0.21134000  0.21176500  0.42267800  1
  O  O6  1  0.99989600  0.49990300  0.99979400  1
  O  O7  1  0.06536000  0.06536100  0.13072000  1
  O  O8  1  0.93391300  0.93382400  0.86782500  1
  O  O9  1  0.49989700  0.99993400  0.99979400  1
loop_
_geom_bond_atom_site_label_1
_geom_bond_atom_site_label_2
_geom_bond_distance
_geom_bond_site_symmetry_2
Na0 O4 2.284745 1_555
Na0 O5 2.764485 1_555
Na0 O5 2.764487 1_655
Na0 O5 2.767489 1_565
Na0 O5 2.767492 1_665
Na1 O5 2.285154 1_555
Na1 O4 2.764356 1_555
Na1 O4 2.764359 1_455
Na1 O4 2.767570 1_545
Na1 O4 2.767573 1_445
Gd0 O3 2.334060 1_555
Gd0 O2 2.334209 1_555
Gd0 O2 2.334212 1_655
Gd0 O3 2.334361 1_565
Gd1 O1 2.340995 1_555
Gd1 O0 2.341154 1_555
Gd1 O0 2.341157 1_455
Gd1 O1 2.341317 1_545
Mg0 O9 1.952532 1_555
Mg0 O6 1.952550 1_555
Mg0 O6 1.952554 1_455
Mg0 O9 1.952572 1_545
O0 Ti0 2.010671 1_545
O0 Ti0 2.010855 1_555
O1 Ti0 2.010759 1_455
O1 Ti0 2.010767 1_555
O2 Ti1 2.017891 1_565
O2 Ti1 2.018084 1_555
O3 Ti1 2.017986 1_655
O3 Ti1 2.017989 1_555
O4 Ti0 1.762994 1_555
O5 Ti1 1.763120 1_555
O6 Ti2 1.952586 1_656
O6 Ti2 1.952693 1_666
O7 Ti2 2.034724 1_555
O8 Ti2 2.095030 1_666
O9 Ti2 1.952639 1_666
O9 Ti2 1.952639 1_566
