# generated using pymatgen
data_MgNb2O5
_symmetry_space_group_name_H-M   'P 1'
_cell_length_a   3.70626475
_cell_length_b   4.03801277
_cell_length_c   7.22333564
_cell_angle_alpha   90.83979595
_cell_angle_beta   104.86533842
_cell_angle_gamma   90.00000058
_symmetry_Int_Tables_number   1
_chemical_formula_structural   MgNb2O5
_chemical_formula_sum   'Mg1 Nb2 O5'
_cell_volume   104.47394082
_cell_formula_units_Z   1
loop_
 _symmetry_equiv_pos_site_id
 _symmetry_equiv_pos_as_xyz
  1  'x, y, z'
loop_
 _atom_site_type_symbol
 _atom_site_label
 _atom_site_symmetry_multiplicity
 _atom_site_fract_x
 _atom_site_fract_y
 _atom_site_fract_z
 _atom_site_occupancy
  Mg  Mg0  1  0.50000000  0.50000000  0.00000000  1
  Nb  Nb0  1  0.14423400  0.00954600  0.28846800  1
  Nb  Nb1  1  0.85576600  0.99045400  0.71153200  1
  O  O0  1  0.11762200  0.50559500  0.23524400  1
  O  O1  1  0.88237800  0.49440500  0.76475600  1
  O  O2  1  0.00000000  0.00000000  0.00000000  1
  O  O3  1  0.30435800  0.98419000  0.60871500  1
  O  O4  1  0.69564200  0.01581000  0.39128500  1
loop_
_geom_bond_atom_site_label_1
_geom_bond_atom_site_label_2
_geom_bond_distance
_geom_bond_site_symmetry_2
Mg0 O0 2.476061 1_655
Mg0 O1 2.476061 1_454
Mg0 O0 2.476062 1_555
Mg0 O1 2.476062 1_554
Mg0 O2 2.740527 1_665
Mg0 O2 2.740527 1_555
Mg0 O2 2.740527 1_655
Mg0 O2 2.740527 1_565
Nb0 O4 1.987323 1_555
Nb0 O4 1.987327 1_455
Nb0 O2 2.013747 1_555
Nb0 O0 2.042760 1_555
Nb0 O0 2.063058 1_545
Nb0 O3 2.239724 1_545
Nb1 O3 1.987323 1_555
Nb1 O3 1.987327 1_655
Nb1 O2 2.013747 1_666
Nb1 O1 2.042760 1_555
Nb1 O1 2.063058 1_565
Nb1 O4 2.239724 1_565
