# generated using pymatgen
data_HIO3
_symmetry_space_group_name_H-M   'P 1'
_cell_length_a   5.71643700
_cell_length_b   5.89039600
_cell_length_c   8.00416000
_cell_angle_alpha   90.00000000
_cell_angle_beta   90.00000000
_cell_angle_gamma   90.00000000
_symmetry_Int_Tables_number   1
_chemical_formula_structural   HIO3
_chemical_formula_sum   'H4 I4 O12'
_cell_volume   269.51669696
_cell_formula_units_Z   4
loop_
 _symmetry_equiv_pos_site_id
 _symmetry_equiv_pos_as_xyz
  1  'x, y, z'
loop_
 _atom_site_type_symbol
 _atom_site_label
 _atom_site_symmetry_multiplicity
 _atom_site_fract_x
 _atom_site_fract_y
 _atom_site_fract_z
 _atom_site_occupancy
  H  H0  1  0.26965000  0.67900500  0.64033000  1
  H  H1  1  0.76965000  0.82099500  0.35967000  1
  H  H2  1  0.73035000  0.17900500  0.85967000  1
  H  H3  1  0.23035000  0.32099500  0.14033000  1
  I  I0  1  0.30323100  0.09295400  0.65580700  1
  I  I1  1  0.80323100  0.40704600  0.34419300  1
  I  I2  1  0.69676900  0.59295400  0.84419300  1
  I  I3  1  0.19676900  0.90704600  0.15580700  1
  O  O0  1  0.93210500  0.02161400  0.25840300  1
  O  O1  1  0.43210500  0.47838600  0.74159700  1
  O  O2  1  0.06789500  0.52161400  0.24159700  1
  O  O3  1  0.56789500  0.97838600  0.75840300  1
  O  O4  1  0.32725000  0.19570200  0.08865600  1
  O  O5  1  0.82725000  0.30429800  0.91134400  1
  O  O6  1  0.67275000  0.69570200  0.41134400  1
  O  O7  1  0.17275000  0.80429800  0.58865600  1
  O  O8  1  0.08608400  0.83988500  0.95033800  1
  O  O9  1  0.58608400  0.66011500  0.04966200  1
  O  O10  1  0.91391600  0.33988500  0.54966200  1
  O  O11  1  0.41391600  0.16011500  0.45033800  1
loop_
_geom_bond_atom_site_label_1
_geom_bond_atom_site_label_2
_geom_bond_distance
_geom_bond_site_symmetry_2
H0 O7 1.011228 1_555
H0 O1 1.707599 1_555
H1 O6 1.011228 1_555
H1 O0 1.707599 1_565
H2 O5 1.011228 1_555
H2 O3 1.707599 1_545
H3 O4 1.011228 1_555
H3 O2 1.707599 1_555
I0 O11 1.805983 1_555
I0 O3 1.848988 1_545
I0 O7 1.932939 1_545
I0 O1 2.483692 1_555
I1 O10 1.805983 1_555
I1 O2 1.848988 1_655
I1 O6 1.932939 1_555
I1 O0 2.483692 1_555
I2 O9 1.805983 1_556
I2 O1 1.848988 1_555
I2 O5 1.932939 1_555
I2 O3 2.483692 1_555
I3 O8 1.805983 1_554
I3 O0 1.848988 1_465
I3 O4 1.932939 1_565
I3 O2 2.483692 1_555
