# generated using pymatgen
data_MgNbVO4
_symmetry_space_group_name_H-M   'P 1'
_cell_length_a   2.94293100
_cell_length_b   6.02413508
_cell_length_c   6.03184670
_cell_angle_alpha   76.92502793
_cell_angle_beta   119.20873909
_cell_angle_gamma   119.24459230
_symmetry_Int_Tables_number   1
_chemical_formula_structural   MgNbVO4
_chemical_formula_sum   'Mg1 Nb1 V1 O4'
_cell_volume   81.43186908
_cell_formula_units_Z   1
loop_
 _symmetry_equiv_pos_site_id
 _symmetry_equiv_pos_as_xyz
  1  'x, y, z'
loop_
 _atom_site_type_symbol
 _atom_site_label
 _atom_site_symmetry_multiplicity
 _atom_site_fract_x
 _atom_site_fract_y
 _atom_site_fract_z
 _atom_site_occupancy
  Mg  Mg0  1  0.96625300  0.99771400  0.49776300  1
  Nb  Nb0  1  0.96620600  0.49770800  0.49771800  1
  V  V0  1  0.46720100  0.99772200  0.99772300  1
  O  O0  1  0.40971100  0.16806300  0.27033300  1
  O  O1  1  0.50019000  0.30959800  0.71951400  1
  O  O2  1  0.43270000  0.68588600  0.27589900  1
  O  O3  1  0.52385800  0.82739300  0.72513800  1
loop_
_geom_bond_atom_site_label_1
_geom_bond_atom_site_label_2
_geom_bond_distance
_geom_bond_site_symmetry_2
Mg0 O1 1.997332 1_665
Mg0 O2 1.997433 1_555
Mg0 O3 2.104660 1_555
Mg0 O0 2.104757 1_565
Mg0 O3 2.106768 1_655
Mg0 O0 2.107132 1_665
Nb0 O0 2.090253 1_555
Nb0 O3 2.090528 1_655
Nb0 O1 2.130991 1_555
Nb0 O2 2.131409 1_555
Nb0 O1 2.132052 1_655
Nb0 O2 2.132107 1_655
O0 V0 2.231915 1_444
O0 V0 2.233850 1_544
O1 V0 2.215764 1_545
O2 V0 2.215490 1_554
O3 V0 2.232055 1_555
O3 V0 2.233494 1_655
