# generated using pymatgen
data_MgFe4(CuO4)2
_symmetry_space_group_name_H-M   'P 1'
_cell_length_a   6.53187987
_cell_length_b   6.53187893
_cell_length_c   6.01676024
_cell_angle_alpha   56.46201234
_cell_angle_beta   56.46200892
_cell_angle_gamma   54.59223843
_symmetry_Int_Tables_number   1
_chemical_formula_structural   MgFe4(CuO4)2
_chemical_formula_sum   'Mg1 Fe4 Cu2 O8'
_cell_volume   163.87694500
_cell_formula_units_Z   1
loop_
 _symmetry_equiv_pos_site_id
 _symmetry_equiv_pos_as_xyz
  1  'x, y, z'
loop_
 _atom_site_type_symbol
 _atom_site_label
 _atom_site_symmetry_multiplicity
 _atom_site_fract_x
 _atom_site_fract_y
 _atom_site_fract_z
 _atom_site_occupancy
  Mg  Mg0  1  0.12500000  0.12500000  0.12500000  1
  Fe  Fe0  1  0.99505100  0.99505100  0.91844400  1
  Fe  Fe1  1  0.25494900  0.25494900  0.33155600  1
  Fe  Fe2  1  0.12500000  0.62500000  0.62500000  1
  Fe  Fe3  1  0.62500000  0.12500000  0.62500000  1
  Cu  Cu0  1  0.62500000  0.62500000  0.12500000  1
  Cu  Cu1  1  0.62500000  0.62500000  0.62500000  1
  O  O0  1  0.40768700  0.40768700  0.37001300  1
  O  O1  1  0.33435800  0.87537400  0.41825800  1
  O  O2  1  0.34527900  0.34527900  0.90115300  1
  O  O3  1  0.87537400  0.33435800  0.41825800  1
  O  O4  1  0.37462600  0.91564200  0.83174200  1
  O  O5  1  0.91564200  0.37462600  0.83174200  1
  O  O6  1  0.90472100  0.90472100  0.34884700  1
  O  O7  1  0.84231300  0.84231300  0.87998700  1
loop_
_geom_bond_atom_site_label_1
_geom_bond_atom_site_label_2
_geom_bond_distance
_geom_bond_site_symmetry_2
Mg0 O2 2.017624 1_554
Mg0 O6 2.017624 1_445
Mg0 O4 2.131993 1_544
Mg0 O3 2.131993 1_455
Mg0 O1 2.131993 1_545
Mg0 O5 2.131993 1_454
Fe0 O7 1.925554 1_555
Fe0 O5 2.016906 1_565
Fe0 O4 2.016907 1_655
Fe0 O6 2.104556 1_556
Fe1 O0 1.925554 1_555
Fe1 O1 2.016906 1_545
Fe1 O3 2.016907 1_455
Fe1 O2 2.104556 1_554
Fe2 O0 2.004253 1_555
Fe2 O7 2.004253 1_455
Fe2 O2 2.100028 1_555
Fe2 O6 2.100028 1_455
Fe2 O1 2.134476 1_555
Fe2 O5 2.134476 1_455
Fe3 O7 2.004254 1_545
Fe3 O0 2.004254 1_555
Fe3 O6 2.100027 1_545
Fe3 O2 2.100027 1_555
Fe3 O3 2.134476 1_555
Fe3 O4 2.134476 1_545
Cu0 O7 1.978211 1_554
Cu0 O0 1.978211 1_555
Cu0 O5 2.298139 1_554
Cu0 O1 2.298139 1_555
Cu0 O3 2.298139 1_555
Cu0 O4 2.298139 1_554
Cu1 O4 2.142380 1_555
Cu1 O3 2.142380 1_555
Cu1 O5 2.142380 1_555
Cu1 O1 2.142380 1_555
Cu1 O2 2.568403 1_555
Cu1 O6 2.568403 1_555
