# generated using pymatgen
data_TaSiIr
_symmetry_space_group_name_H-M   'P 1'
_cell_length_a   3.78499997
_cell_length_b   6.40894140
_cell_length_c   7.28215802
_cell_angle_alpha   90.00000000
_cell_angle_beta   90.00000000
_cell_angle_gamma   90.00000000
_symmetry_Int_Tables_number   1
_chemical_formula_structural   TaSiIr
_chemical_formula_sum   'Ta4 Si4 Ir4'
_cell_volume   176.64944600
_cell_formula_units_Z   4
loop_
 _symmetry_equiv_pos_site_id
 _symmetry_equiv_pos_as_xyz
  1  'x, y, z'
loop_
 _atom_site_type_symbol
 _atom_site_label
 _atom_site_symmetry_multiplicity
 _atom_site_fract_x
 _atom_site_fract_y
 _atom_site_fract_z
 _atom_site_occupancy
  Ta  Ta0  1  0.75000000  0.52407576  0.17158469  1
  Ta  Ta1  1  0.25000000  0.97592424  0.67158469  1
  Ta  Ta2  1  0.75000000  0.02407576  0.32841531  1
  Ta  Ta3  1  0.25000000  0.47592424  0.82841531  1
  Si  Si0  1  0.25000000  0.23192676  0.12409034  1
  Si  Si1  1  0.25000000  0.73192676  0.37590966  1
  Si  Si2  1  0.75000000  0.76807324  0.87590966  1
  Si  Si3  1  0.75000000  0.26807324  0.62409034  1
  Ir  Ir0  1  0.25000000  0.85500300  0.06550430  1
  Ir  Ir1  1  0.25000000  0.35500300  0.43449570  1
  Ir  Ir2  1  0.75000000  0.64499700  0.56550430  1
  Ir  Ir3  1  0.75000000  0.14499700  0.93449570  1
loop_
_geom_bond_atom_site_label_1
_geom_bond_atom_site_label_2
_geom_bond_distance
_geom_bond_site_symmetry_2
Si0 Ta3 2.661095 1_554
Si0 Ta0 2.684573 1_455
Si0 Ta0 2.684573 1_555
Si0 Ta2 2.751361 1_455
Si0 Ta2 2.751361 1_555
Si1 Ta1 2.661095 1_555
Si1 Ta2 2.684573 1_465
Si1 Ta2 2.684573 1_565
Si1 Ta0 2.751361 1_455
Si1 Ta0 2.751361 1_555
Si2 Ta0 2.661095 1_556
Si2 Ta3 2.684573 1_655
Si2 Ta3 2.684573 1_555
Si2 Ta1 2.751361 1_655
Si2 Ta1 2.751361 1_555
Si3 Ta2 2.661095 1_555
Si3 Ta1 2.684573 1_545
Si3 Ta1 2.684573 1_645
Si3 Ta3 2.751361 1_555
Si3 Ta3 2.751361 1_655
Ir0 Si1 2.394095 1_555
Ir0 Si2 2.407938 1_554
Ir0 Si2 2.407938 1_454
Ir0 Si0 2.453067 1_565
Ir0 Ta2 2.901936 1_465
Ir0 Ta2 2.901936 1_565
Ir0 Ta0 2.945589 1_455
Ir0 Ta0 2.945589 1_555
Ir0 Ta1 2.971425 1_554
Ir0 Ta3 2.980488 1_554
Ir1 Si0 2.394095 1_555
Ir1 Si3 2.407938 1_555
Ir1 Si3 2.407938 1_455
Ir1 Si1 2.453067 1_555
Ir1 Ta0 2.901936 1_555
Ir1 Ta0 2.901936 1_455
Ir1 Ta2 2.945589 1_555
Ir1 Ta2 2.945589 1_455
Ir1 Ta3 2.971425 1_555
Ir1 Ta1 2.980488 1_545
Ir2 Si2 2.394095 1_555
Ir2 Si1 2.407938 1_655
Ir2 Si1 2.407938 1_555
Ir2 Si3 2.453067 1_555
Ir2 Ta3 2.901936 1_655
Ir2 Ta3 2.901936 1_555
Ir2 Ta1 2.945589 1_555
Ir2 Ta1 2.945589 1_655
Ir2 Ta0 2.971425 1_555
Ir2 Ta2 2.980488 1_565
Ir3 Si3 2.394095 1_555
Ir3 Si0 2.407938 1_556
Ir3 Si0 2.407938 1_656
Ir3 Si2 2.453067 1_545
Ir3 Ta1 2.901936 1_545
Ir3 Ta1 2.901936 1_645
Ir3 Ta3 2.945589 1_555
Ir3 Ta3 2.945589 1_655
Ir3 Ta2 2.971425 1_556
Ir3 Ta0 2.980488 1_556
