# generated using pymatgen
data_MgCu2SnHgS4
_symmetry_space_group_name_H-M   'P 1'
_cell_length_a   5.70813832
_cell_length_b   5.70813832
_cell_length_c   7.54545580
_cell_angle_alpha   113.19870306
_cell_angle_beta   113.19870306
_cell_angle_gamma   87.61980296
_symmetry_Int_Tables_number   1
_chemical_formula_structural   MgCu2SnHgS4
_chemical_formula_sum   'Mg1 Cu2 Sn1 Hg1 S4'
_cell_volume   205.81479174
_cell_formula_units_Z   1
loop_
 _symmetry_equiv_pos_site_id
 _symmetry_equiv_pos_as_xyz
  1  'x, y, z'
loop_
 _atom_site_type_symbol
 _atom_site_label
 _atom_site_symmetry_multiplicity
 _atom_site_fract_x
 _atom_site_fract_y
 _atom_site_fract_z
 _atom_site_occupancy
  Mg  Mg0  1  0.24970800  0.24970800  0.49889600  1
  Cu  Cu0  1  0.25109300  0.75094100  0.50128500  1
  Cu  Cu1  1  0.75094100  0.25109300  0.50128500  1
  Sn  Sn0  1  0.50423000  0.50423000  0.00842400  1
  Hg  Hg0  1  0.99906900  0.99906900  0.99835000  1
  S  S0  1  0.38219600  0.38219600  0.28453800  1
  S  S1  1  0.90306800  0.90306800  0.28497200  1
  S  S2  1  0.08575500  0.61203500  0.69723600  1
  S  S3  1  0.61203500  0.08575500  0.69723600  1
loop_
_geom_bond_atom_site_label_1
_geom_bond_atom_site_label_2
_geom_bond_distance
_geom_bond_site_symmetry_2
Mg0 S1 2.393409 1_445
Mg0 S0 2.394746 1_555
Mg0 S3 2.428412 1_555
Mg0 S2 2.428412 1_555
Cu0 S1 2.404859 1_455
Cu0 S3 2.405070 1_565
Cu0 S0 2.405510 1_555
Cu0 S2 2.406364 1_555
Cu1 S1 2.404859 1_545
Cu1 S2 2.405070 1_655
Cu1 S0 2.405510 1_555
Cu1 S3 2.406364 1_555
Hg0 S2 2.669856 1_655
Hg0 S3 2.669856 1_565
Hg0 S1 2.677714 1_556
Hg0 S0 2.680404 1_666
S0 Sn0 2.763711 1_555
S1 Sn0 2.768635 1_555
S2 Sn0 2.862758 1_556
S3 Sn0 2.862758 1_556
