# generated using pymatgen
data_Ba2TmMgCu3O7
_symmetry_space_group_name_H-M   'P 1'
_cell_length_a   3.56967394
_cell_length_b   5.55697128
_cell_length_c   10.90589300
_cell_angle_alpha   90.00000000
_cell_angle_beta   90.00000000
_cell_angle_gamma   88.45524479
_symmetry_Int_Tables_number   1
_chemical_formula_structural   Ba2TmMgCu3O7
_chemical_formula_sum   'Ba2 Tm1 Mg1 Cu3 O7'
_cell_volume   216.25694859
_cell_formula_units_Z   1
loop_
 _symmetry_equiv_pos_site_id
 _symmetry_equiv_pos_as_xyz
  1  'x, y, z'
loop_
 _atom_site_type_symbol
 _atom_site_label
 _atom_site_symmetry_multiplicity
 _atom_site_fract_x
 _atom_site_fract_y
 _atom_site_fract_z
 _atom_site_occupancy
  Ba  Ba0  1  0.49562900  0.36376400  0.17535800  1
  Ba  Ba1  1  0.49562900  0.36376400  0.82464200  1
  Tm  Tm0  1  0.47903000  0.75960800  0.50000000  1
  Mg  Mg0  1  0.06533200  0.27623800  0.50000000  1
  Cu  Cu0  1  0.03303400  0.85501800  0.72722600  1
  Cu  Cu1  1  0.03303400  0.85501800  0.27277400  1
  Cu  Cu2  1  0.98745900  0.82511200  0.00000000  1
  O  O0  1  0.37302100  0.06698400  0.38111400  1
  O  O1  1  0.00899500  0.03414400  0.86639500  1
  O  O2  1  0.37302100  0.06698400  0.61888600  1
  O  O3  1  0.99702100  0.58581000  0.38324700  1
  O  O4  1  0.99702100  0.58581000  0.61675300  1
  O  O5  1  0.00899500  0.03414400  0.13360500  1
  O  O6  1  0.99206500  0.49426900  0.00000000  1
loop_
_geom_bond_atom_site_label_1
_geom_bond_atom_site_label_2
_geom_bond_distance
_geom_bond_site_symmetry_2
Ba0 O5 2.596092 1_655
Ba0 O5 2.598381 1_555
Ba0 O6 2.710033 1_455
Ba0 O6 2.719012 1_555
Ba0 O0 2.825889 1_555
Ba0 O3 3.116457 1_455
Ba0 O3 3.159946 1_555
Ba1 O1 2.596092 1_655
Ba1 O1 2.598381 1_555
Ba1 O6 2.710033 1_456
Ba1 O6 2.719012 1_556
Ba1 O2 2.825889 1_555
Ba1 O4 3.116457 1_455
Ba1 O4 3.159946 1_555
Mg0 O2 2.042234 1_555
Mg0 O0 2.042234 1_555
Mg0 O4 2.148837 1_455
Mg0 O3 2.148837 1_455
Cu0 O1 1.815813 1_565
Cu0 O4 1.927800 1_455
Cu0 O2 2.081699 1_565
Cu1 O5 1.815813 1_565
Cu1 O3 1.927800 1_455
Cu1 O0 2.081699 1_565
Cu2 O6 1.838115 1_555
Cu2 O5 1.866304 1_665
Cu2 O1 1.866304 1_664
O0 Tm0 2.169550 1_545
O2 Tm0 2.169550 1_545
O3 Tm0 2.367307 1_655
O3 Tm0 2.424205 1_555
O4 Tm0 2.367307 1_655
O4 Tm0 2.424205 1_555
