# generated using pymatgen
data_Na8Y2Hf2Si5SO24
_symmetry_space_group_name_H-M   'P 1'
_cell_length_a   9.36133646
_cell_length_b   9.35248413
_cell_length_c   22.99960859
_cell_angle_alpha   90.09144493
_cell_angle_beta   89.78452699
_cell_angle_gamma   119.99825634
_symmetry_Int_Tables_number   1
_chemical_formula_structural   Na8Y2Hf2Si5SO24
_chemical_formula_sum   'Na24 Y6 Hf6 Si15 S3 O72'
_cell_volume   1743.89546257
_cell_formula_units_Z   3
loop_
 _symmetry_equiv_pos_site_id
 _symmetry_equiv_pos_as_xyz
  1  'x, y, z'
loop_
 _atom_site_type_symbol
 _atom_site_label
 _atom_site_symmetry_multiplicity
 _atom_site_fract_x
 _atom_site_fract_y
 _atom_site_fract_z
 _atom_site_occupancy
  Na  Na0  1  0.64520950  0.00458346  0.25302428  1
  Na  Na1  1  0.35466479  0.35970460  0.24705563  1
  Na  Na2  1  0.99999406  0.64032331  0.24975027  1
  Na  Na3  1  0.63733358  0.63529472  0.74577741  1
  Na  Na4  1  0.99327255  0.35757341  0.74887921  1
  Na  Na5  1  0.36727831  0.00846296  0.74885927  1
  Na  Na6  1  0.30072672  0.33699091  0.58849994  1
  Na  Na7  1  0.03727033  0.70126852  0.58318102  1
  Na  Na8  1  0.66472828  0.96117618  0.58369138  1
  Na  Na9  1  0.28347430  0.96531245  0.08073104  1
  Na  Na10  1  0.67073816  0.68627789  0.08927354  1
  Na  Na11  1  0.04780616  0.33963140  0.08783440  1
  Na  Na12  1  0.98169516  0.66964086  0.91561469  1
  Na  Na13  1  0.70594949  0.04759328  0.90616719  1
  Na  Na14  1  0.31763780  0.28188754  0.91807929  1
  Na  Na15  1  0.95645037  0.29552793  0.41138166  1
  Na  Na16  1  0.32824230  0.01669580  0.41612630  1
  Na  Na17  1  0.71316667  0.68170176  0.41881375  1
  Na  Na18  1  0.98816816  0.98623529  0.50227731  1
  Na  Na19  1  0.02587122  0.01028112  0.99954986  1
  Na  Na20  1  0.66797399  0.32276530  0.83038433  1
  Na  Na21  1  0.67489996  0.33039138  0.33236637  1
  Na  Na22  1  0.32251211  0.65238966  0.16788837  1
  Na  Na23  1  0.33589441  0.66669441  0.66442750  1
  Y  Y0  1  0.99578728  0.99471330  0.34587389  1
  Y  Y1  1  0.00738074  0.00502572  0.84527024  1
  Y  Y2  1  0.00503270  0.99935670  0.15480907  1
  Y  Y3  1  0.66595743  0.33409211  0.98086714  1
  Y  Y4  1  0.31794016  0.65705495  0.01823595  1
  Y  Y5  1  0.33576957  0.67581858  0.52073960  1
  Hf  Hf0  1  0.99984934  0.99991876  0.64901907  1
  Hf  Hf1  1  0.66753045  0.33329638  0.68421714  1
  Hf  Hf2  1  0.66800662  0.34431034  0.18628982  1
  Hf  Hf3  1  0.67578625  0.33111331  0.48539271  1
  Hf  Hf4  1  0.33029813  0.67739236  0.31516144  1
  Hf  Hf5  1  0.32121469  0.66811622  0.81040980  1
  Si  Si0  1  0.30840868  0.00356582  0.25063610  1
  Si  Si1  1  0.69033538  0.69552351  0.25009631  1
  Si  Si2  1  0.00055075  0.30735443  0.25030053  1
  Si  Si3  1  0.30138904  0.30132145  0.74847889  1
  Si  Si4  1  0.99547931  0.70058423  0.74921868  1
  Si  Si5  1  0.70033550  0.99864640  0.74956491  1
  Si  Si6  1  0.95839012  0.32627311  0.58540323  1
  Si  Si7  1  0.37277141  0.04722112  0.58417905  1
  Si  Si8  1  0.67229861  0.62617203  0.58403033  1
  Si  Si9  1  0.96177499  0.63209718  0.08336977  1
  Si  Si10  1  0.36974357  0.33337763  0.08369425  1
  Si  Si11  1  0.03585007  0.36665388  0.91476635  1
  Si  Si12  1  0.33375041  0.96253116  0.91596158  1
  Si  Si13  1  0.63219523  0.96862289  0.41751450  1
  Si  Si14  1  0.03081842  0.66301729  0.41809528  1
  S  S0  1  0.66857792  0.04070860  0.08488931  1
  S  S1  1  0.62347233  0.66784454  0.91474631  1
  S  S2  1  0.33852591  0.37422253  0.41637087  1
  O  O0  1  0.23511955  0.04853926  0.30748636  1
  O  O1  1  0.81161957  0.77092189  0.30582712  1
  O  O2  1  0.96170670  0.19084792  0.30724440  1
  O  O3  1  0.23217466  0.18985260  0.80685857  1
  O  O4  1  0.95538692  0.76845423  0.80818164  1
  O  O5  1  0.80892751  0.03711938  0.80824066  1
  O  O6  1  0.79652667  0.96867545  0.69433677  1
  O  O7  1  0.17336520  0.20667505  0.69368078  1
  O  O8  1  0.02961265  0.82736520  0.69431184  1
  O  O9  1  0.76316153  0.81313560  0.19303207  1
  O  O10  1  0.03950977  0.23070660  0.19293929  1
  O  O11  1  0.18806871  0.95748571  0.19457592  1
  O  O12  1  0.86613581  0.35330847  0.64074826  1
  O  O13  1  0.48963391  0.13924782  0.64013275  1
  O  O14  1  0.64982687  0.51119588  0.64044005  1
  O  O15  1  0.86077852  0.51028636  0.13912043  1
  O  O16  1  0.64894146  0.12527463  0.13615937  1
  O  O17  1  0.48690918  0.34419663  0.13953956  1
  O  O18  1  0.44939682  0.30552919  0.02446188  1
  O  O19  1  0.85783749  0.54755728  0.02428475  1
  O  O20  1  0.68886489  0.13679822  0.03115412  1
  O  O21  1  0.46328038  0.16183834  0.52563351  1
  O  O22  1  0.69637314  0.53510476  0.52551799  1
  O  O23  1  0.84203252  0.30046275  0.52685670  1
  O  O24  1  0.54942479  0.68784758  0.96912318  1
  O  O25  1  0.14415417  0.44503163  0.97381753  1
  O  O26  1  0.31909632  0.86207996  0.97571418  1
  O  O27  1  0.55386808  0.85376178  0.47465043  1
  O  O28  1  0.31375072  0.44891151  0.46959658  1
  O  O29  1  0.14024475  0.68756042  0.47555983  1
  O  O30  1  0.12673978  0.63721200  0.36135648  1
  O  O31  1  0.51061827  0.86974760  0.36124394  1
  O  O32  1  0.35686569  0.47759812  0.36476707  1
  O  O33  1  0.14191924  0.48815405  0.85907434  1
  O  O34  1  0.35208472  0.85972380  0.85967888  1
  O  O35  1  0.52078317  0.65066230  0.86367463  1
  O  O36  1  0.01515863  0.82925508  0.41341618  1
  O  O37  1  0.81953892  0.99915680  0.41232536  1
  O  O38  1  0.19097929  0.20684173  0.41151810  1
  O  O39  1  0.00872136  0.17972288  0.91286888  1
  O  O40  1  0.16432864  0.97325574  0.91383576  1
  O  O41  1  0.79066732  0.81527375  0.91094174  1
  O  O42  1  0.96804697  0.15549274  0.58947960  1
  O  O43  1  0.18960924  0.03235420  0.58932116  1
  O  O44  1  0.84113198  0.80947190  0.58909467  1
  O  O45  1  0.97424509  0.81310596  0.08680079  1
  O  O46  1  0.81764608  0.02473959  0.08893267  1
  O  O47  1  0.18296431  0.17381192  0.08727917  1
  O  O48  1  0.67546388  0.15980928  0.74121975  1
  O  O49  1  0.48653929  0.32506469  0.74027025  1
  O  O50  1  0.83819958  0.51381251  0.74093540  1
  O  O51  1  0.67087575  0.51024515  0.24221165  1
  O  O52  1  0.83569003  0.32648955  0.24198646  1
  O  O53  1  0.49556001  0.15945790  0.24043138  1
  O  O54  1  0.63687138  0.51567180  0.91696011  1
  O  O55  1  0.85770559  0.36112986  0.91443082  1
  O  O56  1  0.50050398  0.14581018  0.91379725  1
  O  O57  1  0.63600252  0.14899531  0.42133122  1
  O  O58  1  0.49038426  0.36208537  0.41996019  1
  O  O59  1  0.84519590  0.49309431  0.42112545  1
  O  O60  1  0.37021991  0.50968760  0.08537387  1
  O  O61  1  0.14573354  0.64983562  0.08588908  1
  O  O62  1  0.51935242  0.87437090  0.08187267  1
  O  O63  1  0.35390058  0.86378879  0.58285852  1
  O  O64  1  0.50655929  0.64171955  0.58176851  1
  O  O65  1  0.14223798  0.48710308  0.58147390  1
  O  O66  1  0.32549147  0.83644094  0.25890059  1
  O  O67  1  0.50431455  0.66692355  0.26163505  1
  O  O68  1  0.16612652  0.49111050  0.25925585  1
  O  O69  1  0.31881985  0.48550644  0.75512588  1
  O  O70  1  0.16629169  0.68738255  0.75391245  1
  O  O71  1  0.51800270  0.82876158  0.75520165  1
loop_
_geom_bond_atom_site_label_1
_geom_bond_atom_site_label_2
_geom_bond_distance
_geom_bond_site_symmetry_2
Na0 O53 2.485550 1_555
Na0 O66 2.596231 1_545
Na0 O52 2.634168 1_555
Na0 O67 2.754380 1_545
Na0 O31 2.787571 1_545
Na0 O2 2.868443 1_555
Na0 O9 2.878650 1_545
Na0 O16 2.910222 1_555
Na1 O67 2.511196 1_555
Na1 O51 2.566662 1_555
Na1 O68 2.620760 1_555
Na1 O53 2.781708 1_555
Na1 O17 2.797122 1_555
Na1 O10 2.858750 1_555
Na1 O0 2.897905 1_555
Na1 O32 2.917856 1_555
Na2 O52 2.549257 1_555
Na2 O68 2.566653 1_655
Na2 O66 2.666129 1_655
Na2 O51 2.694050 1_555
Na2 O30 2.838185 1_655
Na2 O15 2.842865 1_555
Na2 O11 2.877817 1_655
Na2 O1 2.897701 1_555
Na3 O49 2.516276 1_555
Na3 O71 2.566494 1_555
Na3 O69 2.592035 1_555
Na3 O50 2.640717 1_555
Na3 O14 2.711998 1_555
Na3 O6 2.948626 1_555
Na3 O35 2.949087 1_555
Na3 O4 2.965561 1_555
Na4 O50 2.529810 1_555
Na4 O48 2.608403 1_555
Na4 O69 2.663907 1_655
Na4 O70 2.675013 1_655
Na4 O12 2.752742 1_555
Na4 O33 2.858068 1_655
Na4 O5 2.940738 1_555
Na4 O7 2.966994 1_655
Na5 O48 2.504265 1_555
Na5 O49 2.597623 1_555
Na5 O70 2.630735 1_545
Na5 O71 2.685205 1_545
Na5 O13 2.765629 1_555
Na5 O34 2.874457 1_545
Na5 O3 2.895258 1_555
Na5 O8 3.017290 1_545
Na6 O43 2.497265 1_555
Na6 O65 2.506740 1_555
Na6 O64 2.523303 1_555
Na6 O7 2.700694 1_555
Na6 O42 2.700803 1_455
Na6 O28 2.910032 1_555
Na7 O44 2.503915 1_455
Na7 O63 2.567283 1_555
Na7 O65 2.635640 1_555
Na7 O29 2.679020 1_555
Na7 O43 2.688182 1_565
Na7 O8 2.828855 1_555
Na8 O42 2.495014 1_565
Na8 O63 2.578162 1_555
Na8 O64 2.587906 1_555
Na8 O44 2.664673 1_555
Na8 O27 2.710132 1_555
Na8 O6 2.817753 1_555
Na9 O45 2.510531 1_455
Na9 O47 2.557949 1_565
Na9 O61 2.564726 1_555
Na9 O26 2.680614 1_554
Na9 O62 2.734673 1_555
Na9 O11 2.752568 1_555
Na10 O60 2.450612 1_555
Na10 O45 2.472211 1_555
Na10 O9 2.613652 1_555
Na10 O46 2.749259 1_565
Na10 O62 2.761803 1_555
Na11 O47 2.442952 1_555
Na11 O61 2.569025 1_555
Na11 O10 2.610524 1_555
Na11 O60 2.615593 1_555
Na11 O46 2.640249 1_455
Na11 O25 2.786272 1_554
Na12 O40 2.476514 1_655
Na12 O55 2.514819 1_555
Na12 O4 2.694364 1_555
Na12 O41 2.738991 1_555
Na12 O19 2.749256 1_556
Na12 O54 2.801056 1_555
Na13 O39 2.466717 1_655
Na13 O5 2.467597 1_555
Na13 O56 2.517326 1_555
Na13 O55 2.547088 1_555
Na13 O41 2.662032 1_545
Na14 O40 2.501752 1_545
Na14 O39 2.555282 1_555
Na14 O56 2.595520 1_555
Na14 O54 2.679168 1_555
Na14 O3 2.691517 1_555
Na14 O18 2.702804 1_556
Na15 O37 2.402850 1_545
Na15 O59 2.543674 1_555
Na15 O2 2.595627 1_555
Na15 O57 2.610435 1_555
Na15 O38 2.707251 1_655
Na15 O23 2.868927 1_555
Na15 O30 2.996812 1_655
Na16 O57 2.506642 1_555
Na16 O36 2.555473 1_545
Na16 O38 2.666732 1_555
Na16 O0 2.714847 1_555
Na16 O58 2.800621 1_555
Na16 O21 2.842760 1_555
Na16 O31 2.953207 1_545
Na16 O29 3.003258 1_545
Na17 O36 2.451285 1_655
Na17 O59 2.612054 1_555
Na17 O37 2.621593 1_555
Na17 O58 2.655483 1_555
Na17 O1 2.742003 1_555
Na17 O22 2.778430 1_555
Na17 O27 2.973400 1_555
Na18 O44 2.515781 1_555
Na18 O36 2.598806 1_655
Na18 O42 2.617056 1_565
Na18 O43 2.638623 1_665
Na18 O37 2.646294 1_555
Na18 O38 2.878505 1_665
Na19 O40 2.472588 1_545
Na19 O47 2.517238 1_556
Na19 O45 2.602792 1_446
Na19 O39 2.603556 1_555
Na19 O46 2.876917 1_456
Na19 O41 2.886856 1_445
Na20 O56 2.504063 1_555
Na20 O55 2.531088 1_555
Na20 O48 2.574684 1_555
Na20 O50 2.665387 1_555
Na20 O49 2.691474 1_555
Na20 O54 2.795373 1_555
Na21 O57 2.566171 1_555
Na21 O59 2.571617 1_555
Na21 O52 2.572769 1_555
Na21 O53 2.679063 1_555
Na21 O51 2.684287 1_555
Na21 O58 2.759363 1_555
Na22 O60 2.482716 1_555
Na22 O61 2.505958 1_555
Na22 O68 2.571619 1_555
Na22 O66 2.699330 1_555
Na22 O67 2.712794 1_555
Na22 O62 2.789212 1_555
Na23 O64 2.563243 1_555
Na23 O63 2.577556 1_555
Na23 O65 2.592055 1_555
Na23 O69 2.643202 1_555
Na23 O71 2.644865 1_555
Na23 O70 2.659970 1_555
Hf0 O8 2.055320 1_655
Hf0 O6 2.055355 1_555
Hf0 O7 2.073204 1_665
Hf0 O42 2.126842 1_565
Hf0 O43 2.139389 1_665
Hf0 O44 2.154279 1_555
Hf1 O13 2.019829 1_555
Hf1 O14 2.022818 1_555
Hf1 O12 2.032214 1_555
Hf1 O49 2.095742 1_555
Hf1 O50 2.101440 1_555
Hf1 O48 2.117776 1_555
Hf2 O51 2.003894 1_555
Hf2 O15 2.008154 1_555
Hf2 O17 2.010505 1_555
Hf2 O53 2.084831 1_555
Hf2 O52 2.100059 1_555
Hf2 O16 2.277301 1_555
Hf3 O23 1.967688 1_555
Hf3 O22 2.038795 1_555
Hf3 O21 2.040095 1_555
Hf3 O57 2.138333 1_555
Hf3 O59 2.140571 1_555
Hf3 O58 2.425860 1_555
Hf4 O66 1.990620 1_555
Hf4 O30 2.042370 1_555
Hf4 O31 2.044496 1_555
Hf4 O67 2.079160 1_555
Hf4 O68 2.093045 1_555
Hf4 O32 2.308406 1_555
Hf5 O34 2.014205 1_555
Hf5 O33 2.017372 1_555
Hf5 O70 2.024973 1_555
Hf5 O71 2.117585 1_555
Hf5 O69 2.118727 1_555
Hf5 O35 2.310956 1_555
O0 Si0 1.623986 1_555
O0 Y0 2.216160 1_445
O1 Si1 1.623822 1_555
O1 Y0 2.144508 1_555
O2 Si2 1.624673 1_655
O2 Y0 2.201933 1_545
O3 Si3 1.622344 1_555
O3 Y1 2.133162 1_555
O4 Si4 1.616940 1_555
O4 Y1 2.186343 1_665
O5 Si5 1.620829 1_545
O5 Y1 2.199344 1_655
O6 Si5 1.656972 1_555
O7 Si3 1.659915 1_555
O8 Si4 1.650960 1_455
O9 Si1 1.626426 1_555
O9 Y2 2.231490 1_655
O10 Si2 1.625481 1_555
O10 Y2 2.202866 1_545
O11 Si0 1.625104 1_565
O11 Y2 2.147025 1_555
O12 Si6 1.624545 1_555
O13 Si7 1.630722 1_555
O14 Si8 1.630952 1_555
O15 Si9 1.659638 1_555
O16 S0 1.480061 1_555
O17 Si10 1.661989 1_555
O18 Si10 1.632541 1_555
O18 Y3 2.151896 1_554
O19 Si9 1.629664 1_555
O19 Y3 2.151897 1_554
O20 S0 1.483990 1_555
O20 Y3 2.278757 1_554
O21 Si7 1.663710 1_555
O22 Si8 1.665312 1_555
O23 Si6 1.674820 1_555
O24 S1 1.483922 1_555
O24 Y4 2.326667 1_556
O25 Si11 1.635197 1_555
O25 Y4 2.098253 1_556
O26 Si12 1.632150 1_555
O26 Y4 2.149070 1_556
O27 Si13 1.621149 1_555
O27 Y5 2.157198 1_555
O28 S2 1.482383 1_555
O28 Y5 2.342231 1_555
O29 Si14 1.619543 1_555
O29 Y5 2.158183 1_555
O30 Si14 1.665652 1_555
O31 Si13 1.667412 1_555
O32 S2 1.486277 1_555
O33 Si11 1.668743 1_555
O34 Si12 1.670030 1_555
O35 S1 1.477535 1_555
O36 Si14 1.636715 1_555
O36 Y0 2.265185 1_455
O37 Si13 1.633799 1_555
O37 Y0 2.260362 1_555
O38 S2 1.486378 1_555
O38 Y0 2.437323 1_445
O39 Si11 1.636679 1_555
O39 Y1 2.249086 1_555
O40 Si12 1.639379 1_555
O40 Y1 2.277998 1_565
O41 S1 1.483222 1_555
O41 Y1 2.435550 1_665
O42 Si6 1.647119 1_555
O43 Si7 1.653315 1_555
O44 Si8 1.655849 1_555
O45 Si9 1.639431 1_555
O45 Y2 2.248687 1_655
O46 S0 1.479099 1_555
O46 Y2 2.422129 1_645
O47 Si10 1.637443 1_555
O47 Y2 2.262730 1_545
O48 Si5 1.647757 1_545
O49 Si3 1.643755 1_555
O50 Si4 1.638493 1_555
O51 Si1 1.659009 1_555
O52 Si2 1.651946 1_655
O53 Si0 1.641347 1_555
O54 S1 1.490835 1_555
O54 Y3 2.364713 1_555
O55 Si11 1.642497 1_655
O55 Y3 2.268826 1_555
O56 Si12 1.643634 1_545
O56 Y3 2.271863 1_555
O57 Si13 1.671568 1_545
O58 S2 1.484221 1_555
O59 Si14 1.669732 1_655
O60 Si10 1.647103 1_555
O60 Y4 2.282641 1_555
O61 Si9 1.646676 1_455
O61 Y4 2.212945 1_555
O62 S0 1.484486 1_565
O62 Y4 2.450998 1_555
O63 Si7 1.634644 1_565
O63 Y5 2.203630 1_555
O64 Si8 1.630140 1_555
O64 Y5 2.270749 1_555
O65 Si6 1.625843 1_455
O65 Y5 2.267162 1_555
O66 Si0 1.660089 1_565
O67 Si1 1.644824 1_555
O68 Si2 1.654104 1_555
O69 Si3 1.653960 1_555
O70 Si4 1.668102 1_455
O71 Si5 1.655851 1_555
