# generated using pymatgen
data_Na2Te2As
_symmetry_space_group_name_H-M   'P 1'
_cell_length_a   8.80608700
_cell_length_b   9.91581900
_cell_length_c   14.08409600
_cell_angle_alpha   90.00000000
_cell_angle_beta   90.00000000
_cell_angle_gamma   90.00000000
_symmetry_Int_Tables_number   1
_chemical_formula_structural   Na2Te2As
_chemical_formula_sum   'Na16 Te16 As8'
_cell_volume   1229.81713318
_cell_formula_units_Z   8
loop_
 _symmetry_equiv_pos_site_id
 _symmetry_equiv_pos_as_xyz
  1  'x, y, z'
loop_
 _atom_site_type_symbol
 _atom_site_label
 _atom_site_symmetry_multiplicity
 _atom_site_fract_x
 _atom_site_fract_y
 _atom_site_fract_z
 _atom_site_occupancy
  Na  Na0  1  0.58810700  0.35901600  0.62990000  1
  Na  Na1  1  0.08810700  0.14098400  0.37010000  1
  Na  Na2  1  0.41189300  0.85901600  0.87010000  1
  Na  Na3  1  0.91189300  0.64098400  0.12990000  1
  Na  Na4  1  0.92468400  0.12549100  0.62386600  1
  Na  Na5  1  0.42468400  0.37450900  0.37613400  1
  Na  Na6  1  0.07531600  0.62549100  0.87613400  1
  Na  Na7  1  0.57531600  0.87450900  0.12386600  1
  Na  Na8  1  0.76823200  0.75306700  0.69144600  1
  Na  Na9  1  0.26823200  0.74693300  0.30855400  1
  Na  Na10  1  0.23176800  0.25306700  0.80855400  1
  Na  Na11  1  0.73176800  0.24693300  0.19144600  1
  Na  Na12  1  0.32304000  0.93941200  0.56240300  1
  Na  Na13  1  0.82304000  0.56058800  0.43759700  1
  Na  Na14  1  0.67696000  0.43941200  0.93759700  1
  Na  Na15  1  0.17696000  0.06058800  0.06240300  1
  Te  Te0  1  0.73640300  0.75438900  0.93306800  1
  Te  Te1  1  0.23640300  0.74561100  0.06693200  1
  Te  Te2  1  0.26359700  0.25438900  0.56693200  1
  Te  Te3  1  0.76359700  0.24561100  0.43306800  1
  Te  Te4  1  0.60303600  0.04083900  0.71402900  1
  Te  Te5  1  0.10303600  0.45916100  0.28597100  1
  Te  Te6  1  0.39696400  0.54083900  0.78597100  1
  Te  Te7  1  0.89696400  0.95916100  0.21402900  1
  Te  Te8  1  0.51739000  0.15891400  0.00049000  1
  Te  Te9  1  0.01739000  0.34108600  0.99951000  1
  Te  Te10  1  0.48261000  0.65891400  0.49951000  1
  Te  Te11  1  0.98261000  0.84108600  0.50049000  1
  Te  Te12  1  0.08354100  0.95053100  0.79250900  1
  Te  Te13  1  0.58354100  0.54946900  0.20749100  1
  Te  Te14  1  0.91645900  0.45053100  0.70749100  1
  Te  Te15  1  0.41645900  0.04946900  0.29250900  1
  As  As0  1  0.90049700  0.97448300  0.93944300  1
  As  As1  1  0.40049700  0.52551700  0.06055700  1
  As  As2  1  0.09950300  0.47448300  0.56055700  1
  As  As3  1  0.59950300  0.02551700  0.43944300  1
  As  As4  1  0.72597000  0.14843800  0.86551000  1
  As  As5  1  0.22597000  0.35156200  0.13449000  1
  As  As6  1  0.27403000  0.64843800  0.63449000  1
  As  As7  1  0.77403000  0.85156200  0.36551000  1
loop_
_geom_bond_atom_site_label_1
_geom_bond_atom_site_label_2
_geom_bond_distance
_geom_bond_site_symmetry_2
Na0 Te2 3.166870 1_555
Na0 Te14 3.221555 1_555
Na0 Te6 3.303861 1_555
Na0 Te3 3.367166 1_555
Na0 Te4 3.372708 1_555
Na0 Te10 3.616438 1_555
Na1 Te3 3.166870 1_455
Na1 Te15 3.221555 1_555
Na1 Te7 3.303861 1_445
Na1 Te2 3.367166 1_555
Na1 Te5 3.372708 1_555
Na1 Te11 3.616438 1_445
Na2 Te0 3.166870 1_555
Na2 Te12 3.221555 1_555
Na2 Te4 3.303861 1_565
Na2 Te1 3.367166 1_556
Na2 Te6 3.372708 1_555
Na2 Te8 3.616438 1_566
Na3 Te1 3.166870 1_655
Na3 Te13 3.221555 1_555
Na3 Te5 3.303861 1_655
Na3 Te0 3.367166 1_554
Na3 Te7 3.372708 1_555
Na3 Te9 3.616438 1_654
Na4 Te4 3.215582 1_555
Na4 Te12 3.257027 1_645
Na4 Te3 3.263756 1_555
Na4 Te2 3.344223 1_655
Na4 Te11 3.351508 1_545
Na4 Te14 3.432257 1_555
Na5 Te5 3.215582 1_555
Na5 Te13 3.257027 1_555
Na5 Te2 3.263756 1_555
Na5 Te3 3.344223 1_555
Na5 Te10 3.351508 1_555
Na5 Te15 3.432257 1_555
Na6 Te6 3.215582 1_555
Na6 Te14 3.257027 1_455
Na6 Te1 3.263756 1_556
Na6 Te0 3.344223 1_455
Na6 Te9 3.351508 1_555
Na6 Te12 3.432257 1_555
Na7 Te7 3.215582 1_555
Na7 Te15 3.257027 1_565
Na7 Te0 3.263756 1_554
Na7 Te1 3.344223 1_555
Na7 Te8 3.351508 1_565
Na7 Te13 3.432257 1_555
Na8 Te4 3.218670 1_565
Na8 Te14 3.279364 1_555
Na8 Te11 3.399817 1_555
Na8 Te0 3.414576 1_555
Na8 Te12 3.683689 1_655
Na9 Te5 3.218670 1_555
Na9 Te15 3.279364 1_565
Na9 Te10 3.399817 1_555
Na9 Te1 3.414576 1_555
Na9 Te13 3.683689 1_555
Na10 Te6 3.218670 1_555
Na10 Te12 3.279364 1_545
Na10 Te9 3.399817 1_555
Na10 Te2 3.414576 1_555
Na10 Te14 3.683689 1_455
Na11 Te7 3.218670 1_545
Na11 Te13 3.279364 1_555
Na11 Te8 3.399817 1_555
Na11 Te3 3.414576 1_555
Na11 Te15 3.683689 1_555
Na12 Te2 3.167460 1_565
Na12 Te10 3.239627 1_555
Na12 Te11 3.270795 1_455
Na12 Te4 3.413421 1_565
Na13 Te3 3.167460 1_555
Na13 Te11 3.239627 1_555
Na13 Te10 3.270795 1_555
Na13 Te5 3.413421 1_655
Na14 Te0 3.167460 1_555
Na14 Te8 3.239627 1_556
Na14 Te9 3.270795 1_655
Na14 Te6 3.413421 1_555
Na15 Te1 3.167460 1_545
Na15 Te9 3.239627 1_554
Na15 Te8 3.270795 1_555
Na15 Te7 3.413421 1_445
As0 As4 2.534093 1_565
As0 Te0 2.618986 1_555
As0 Te12 2.633854 1_655
As0 Na15 3.107267 1_666
As1 As5 2.534093 1_555
As1 Te1 2.618986 1_555
As1 Te13 2.633854 1_555
As1 Na14 3.107267 1_554
As2 As6 2.534093 1_555
As2 Te2 2.618986 1_555
As2 Te14 2.633854 1_455
As2 Na13 3.107267 1_455
As3 As7 2.534093 1_545
As3 Te3 2.618986 1_555
As3 Te15 2.633854 1_555
As3 Na12 3.107267 1_545
As4 Te4 2.619543 1_555
As4 Te8 2.645487 1_556
As4 Na14 3.088965 1_555
As5 Te5 2.619543 1_555
As5 Te9 2.645487 1_554
As5 Na15 3.088965 1_555
As6 Te6 2.619543 1_555
As6 Te10 2.645487 1_555
As6 Na12 3.088965 1_555
As7 Te7 2.619543 1_555
As7 Te11 2.645487 1_555
As7 Na13 3.088965 1_555
