# generated using pymatgen
data_SmMgTiO3
_symmetry_space_group_name_H-M   'P 1'
_cell_length_a   4.37663981
_cell_length_b   4.37663981
_cell_length_c   4.37663981
_cell_angle_alpha   80.49062591
_cell_angle_beta   80.49062591
_cell_angle_gamma   80.49062591
_symmetry_Int_Tables_number   1
_chemical_formula_structural   SmMgTiO3
_chemical_formula_sum   'Sm1 Mg1 Ti1 O3'
_cell_volume   80.72243205
_cell_formula_units_Z   1
loop_
 _symmetry_equiv_pos_site_id
 _symmetry_equiv_pos_as_xyz
  1  'x, y, z'
loop_
 _atom_site_type_symbol
 _atom_site_label
 _atom_site_symmetry_multiplicity
 _atom_site_fract_x
 _atom_site_fract_y
 _atom_site_fract_z
 _atom_site_occupancy
  Sm  Sm0  1  0.61720352  0.61720352  0.61720352  1
  Mg  Mg0  1  0.26582868  0.26582868  0.26582868  1
  Ti  Ti0  1  0.95949113  0.95949113  0.95949113  1
  O  O0  1  0.46863114  0.96942277  0.96942277  1
  O  O1  1  0.96942277  0.46863114  0.96942277  1
  O  O2  1  0.96942277  0.96942277  0.46863114  1
loop_
_geom_bond_atom_site_label_1
_geom_bond_atom_site_label_2
_geom_bond_distance
_geom_bond_site_symmetry_2
Mg0 O0 1.987144 1_544
Mg0 O2 1.987144 1_445
Mg0 O1 1.987144 1_454
O0 Ti0 2.134938 1_555
O0 Ti0 2.243620 1_455
O0 Sm0 2.301797 1_555
O1 Ti0 2.134938 1_555
O1 Ti0 2.243620 1_545
O1 Sm0 2.301797 1_555
O2 Ti0 2.134938 1_555
O2 Ti0 2.243620 1_554
O2 Sm0 2.301797 1_555
