# generated using pymatgen
data_Ca2B6O11
_symmetry_space_group_name_H-M   'P 1'
_cell_length_a   10.73764136
_cell_length_b   8.57853608
_cell_length_c   8.63741006
_cell_angle_alpha   68.73098718
_cell_angle_beta   90.00000000
_cell_angle_gamma   90.00000000
_symmetry_Int_Tables_number   1
_chemical_formula_structural   Ca2B6O11
_chemical_formula_sum   'Ca8 B24 O44'
_cell_volume   741.42823915
_cell_formula_units_Z   4
loop_
 _symmetry_equiv_pos_site_id
 _symmetry_equiv_pos_as_xyz
  1  'x, y, z'
loop_
 _atom_site_type_symbol
 _atom_site_label
 _atom_site_symmetry_multiplicity
 _atom_site_fract_x
 _atom_site_fract_y
 _atom_site_fract_z
 _atom_site_occupancy
  Ca  Ca0  1  0.16135913  0.41515331  0.35897763  1
  Ca  Ca1  1  0.66135913  0.58484669  0.14102237  1
  Ca  Ca2  1  0.83864087  0.58484669  0.64102237  1
  Ca  Ca3  1  0.33864087  0.41515331  0.85897763  1
  Ca  Ca4  1  0.49165547  0.02503358  0.21787344  1
  Ca  Ca5  1  0.99165547  0.97496642  0.28212656  1
  Ca  Ca6  1  0.50834453  0.97496642  0.78212656  1
  Ca  Ca7  1  0.00834453  0.02503358  0.71787344  1
  B  B0  1  0.08005027  0.41639596  0.73252007  1
  B  B1  1  0.06337885  0.28700449  0.03998405  1
  B  B2  1  0.56337885  0.71299551  0.46001595  1
  B  B3  1  0.93662115  0.71299551  0.96001595  1
  B  B4  1  0.43662115  0.28700449  0.53998405  1
  B  B5  1  0.34461188  0.71463718  0.10068559  1
  B  B6  1  0.84461188  0.28536282  0.39931441  1
  B  B7  1  0.65538812  0.28536282  0.89931441  1
  B  B8  1  0.15538812  0.71463718  0.60068559  1
  B  B9  1  0.58005027  0.58360404  0.76747993  1
  B  B10  1  0.91994973  0.58360404  0.26747993  1
  B  B11  1  0.41994973  0.41639596  0.23252007  1
  B  B12  1  0.25048985  0.00910847  0.51199197  1
  B  B13  1  0.75048985  0.99089153  0.98800803  1
  B  B14  1  0.74951015  0.99089153  0.48800803  1
  B  B15  1  0.24951015  0.00910847  0.01199197  1
  B  B16  1  0.38426671  0.75998110  0.62158717  1
  B  B17  1  0.88426671  0.24001890  0.87841283  1
  B  B18  1  0.61573329  0.24001890  0.37841283  1
  B  B19  1  0.11573329  0.75998110  0.12158717  1
  B  B20  1  0.23694389  0.19593257  0.69276182  1
  B  B21  1  0.73694389  0.80406743  0.80723818  1
  B  B22  1  0.76305611  0.80406743  0.30723818  1
  B  B23  1  0.26305611  0.19593257  0.19276182  1
  O  O0  1  0.69880689  0.92869999  0.65410256  1
  O  O1  1  0.19477645  0.14338420  0.55546679  1
  O  O2  1  0.69477645  0.85661580  0.94453321  1
  O  O3  1  0.80522355  0.85661580  0.44453321  1
  O  O4  1  0.30522355  0.14338420  0.05546679  1
  O  O5  1  0.13516239  0.88561973  0.52862753  1
  O  O6  1  0.63516239  0.11438027  0.97137247  1
  O  O7  1  0.86483761  0.11438027  0.47137247  1
  O  O8  1  0.37593716  0.22398282  0.69235230  1
  O  O9  1  0.87593716  0.77601718  0.80764770  1
  O  O10  1  0.62406284  0.77601718  0.30764770  1
  O  O11  1  0.12406284  0.22398282  0.19235230  1
  O  O12  1  0.46476665  0.67395482  0.76504677  1
  O  O13  1  0.96476665  0.32604518  0.73495323  1
  O  O14  1  0.53523335  0.32604518  0.23495323  1
  O  O15  1  0.03523335  0.67395482  0.26504677  1
  O  O16  1  0.18032860  0.36193297  0.65344881  1
  O  O17  1  0.68032860  0.63806703  0.84655119  1
  O  O18  1  0.81967140  0.63806703  0.34655119  1
  O  O19  1  0.31967140  0.36193297  0.15344881  1
  O  O20  1  0.11887133  0.39940918  0.90386702  1
  O  O21  1  0.61887133  0.60059082  0.59613298  1
  O  O22  1  0.88112867  0.60059082  0.09613298  1
  O  O23  1  0.38112867  0.39940918  0.40386702  1
  O  O24  1  0.19880689  0.07130001  0.84589744  1
  O  O25  1  0.36483761  0.88561973  0.02862753  1
  O  O26  1  0.80119311  0.92869999  0.15410256  1
  O  O27  1  0.30119311  0.07130001  0.34589744  1
  O  O28  1  0.27349895  0.65429975  0.63830928  1
  O  O29  1  0.77349895  0.34570025  0.86169072  1
  O  O30  1  0.72650105  0.34570025  0.36169072  1
  O  O31  1  0.22650105  0.65429975  0.13830928  1
  O  O32  1  0.05075125  0.77981920  0.96331228  1
  O  O33  1  0.15278452  0.91975574  0.12620494  1
  O  O34  1  0.94924875  0.22018080  0.03668772  1
  O  O35  1  0.44924875  0.77981920  0.46331228  1
  O  O36  1  0.05831168  0.60153713  0.63771055  1
  O  O37  1  0.55831168  0.39846287  0.86228945  1
  O  O38  1  0.94168832  0.39846287  0.36228945  1
  O  O39  1  0.44168832  0.60153713  0.13771055  1
  O  O40  1  0.34721548  0.91975574  0.62620494  1
  O  O41  1  0.84721548  0.08024426  0.87379506  1
  O  O42  1  0.65278452  0.08024426  0.37379506  1
  O  O43  1  0.55075125  0.22018080  0.53668772  1
loop_
_geom_bond_atom_site_label_1
_geom_bond_atom_site_label_2
_geom_bond_distance
_geom_bond_site_symmetry_2
Ca0 O31 2.343934 1_555
Ca0 O1 2.360901 1_555
Ca0 O38 2.362632 1_455
Ca0 O23 2.387314 1_555
Ca0 O16 2.424190 1_555
Ca0 O15 2.472766 1_555
Ca0 O11 2.575566 1_555
Ca0 O19 2.614875 1_555
Ca1 O30 2.343934 1_555
Ca1 O2 2.360901 1_554
Ca1 O39 2.362632 1_555
Ca1 O22 2.387314 1_555
Ca1 O17 2.424190 1_554
Ca1 O14 2.472766 1_555
Ca1 O10 2.575566 1_555
Ca1 O18 2.614875 1_555
Ca2 O29 2.343934 1_555
Ca2 O3 2.360901 1_555
Ca2 O36 2.362632 1_655
Ca2 O21 2.387314 1_555
Ca2 O18 2.424190 1_555
Ca2 O13 2.472766 1_555
Ca2 O9 2.575566 1_555
Ca2 O17 2.614875 1_555
Ca3 O28 2.343934 1_555
Ca3 O4 2.360901 1_556
Ca3 O37 2.362632 1_555
Ca3 O20 2.387314 1_555
Ca3 O19 2.424190 1_556
Ca3 O12 2.472766 1_555
Ca3 O8 2.575566 1_555
Ca3 O16 2.614875 1_555
Ca4 O42 2.343982 1_555
Ca4 O27 2.425124 1_555
Ca4 O35 2.427193 1_545
Ca4 O4 2.443904 1_555
Ca4 O10 2.446266 1_545
Ca4 O6 2.512206 1_554
Ca4 O14 2.680494 1_555
Ca4 O25 2.715661 1_545
Ca5 O33 2.343982 1_655
Ca5 O26 2.425124 1_555
Ca5 O34 2.427193 1_565
Ca5 O3 2.443904 1_555
Ca5 O11 2.446266 1_665
Ca5 O5 2.512206 1_655
Ca5 O15 2.680494 1_655
Ca5 O7 2.715661 1_565
Ca6 O40 2.343982 1_555
Ca6 O0 2.425124 1_555
Ca6 O43 2.427193 1_565
Ca6 O2 2.443904 1_555
Ca6 O8 2.446266 1_565
Ca6 O25 2.512206 1_556
Ca6 O12 2.680494 1_555
Ca6 O6 2.715661 1_565
Ca7 O41 2.343982 1_455
Ca7 O24 2.425124 1_555
Ca7 O32 2.427193 1_545
Ca7 O1 2.443904 1_555
Ca7 O9 2.446266 1_445
Ca7 O7 2.512206 1_455
Ca7 O13 2.680494 1_455
Ca7 O5 2.715661 1_545
B0 O16 1.440706 1_555
B0 O13 1.456606 1_455
B0 O20 1.492954 1_555
B0 O36 1.517896 1_555
B1 O34 1.357604 1_455
B1 O20 1.358176 1_554
B1 O11 1.390218 1_555
B2 O35 1.357604 1_555
B2 O21 1.358176 1_555
B2 O10 1.390218 1_555
B3 O32 1.357604 1_655
B3 O22 1.358176 1_556
B3 O9 1.390218 1_555
B4 O43 1.357604 1_555
B4 O23 1.358176 1_555
B4 O8 1.390218 1_555
B5 O31 1.363782 1_555
B5 O39 1.380238 1_555
B5 O25 1.386964 1_555
B6 O30 1.363782 1_555
B6 O38 1.380238 1_555
B6 O7 1.386964 1_555
B7 O29 1.363782 1_555
B7 O37 1.380238 1_555
B7 O6 1.386964 1_555
B8 O28 1.363782 1_555
B8 O36 1.380238 1_555
B8 O5 1.386964 1_555
B9 O17 1.440706 1_555
B9 O12 1.456606 1_555
B9 O21 1.492954 1_555
B9 O37 1.517896 1_555
B10 O18 1.440706 1_555
B10 O15 1.456606 1_655
B10 O22 1.492954 1_555
B10 O38 1.517896 1_555
B11 O19 1.440706 1_555
B11 O14 1.456606 1_555
B11 O23 1.492954 1_555
B11 O39 1.517896 1_555
B12 O27 1.443575 1_555
B12 O40 1.445974 1_545
B12 O1 1.462719 1_555
B12 O5 1.601855 1_545
B13 O26 1.443575 1_556
B13 O41 1.445974 1_565
B13 O2 1.462719 1_555
B13 O6 1.601855 1_565
B14 O0 1.443575 1_555
B14 O42 1.445974 1_565
B14 O3 1.462719 1_555
B14 O7 1.601855 1_565
B15 O24 1.443575 1_554
B15 O33 1.445974 1_545
B15 O4 1.462719 1_555
B15 O25 1.601855 1_545
B16 O40 1.441584 1_555
B16 O28 1.470512 1_555
B16 O12 1.470972 1_555
B16 O35 1.488609 1_555
B17 O41 1.441584 1_555
B17 O29 1.470512 1_555
B17 O13 1.470972 1_555
B17 O34 1.488609 1_556
B18 O42 1.441584 1_555
B18 O30 1.470512 1_555
B18 O14 1.470972 1_555
B18 O43 1.488609 1_555
B19 O33 1.441584 1_555
B19 O31 1.470512 1_555
B19 O15 1.470972 1_555
B19 O32 1.488609 1_554
B20 O24 1.426306 1_555
B20 O16 1.470354 1_555
B20 O1 1.484031 1_555
B20 O8 1.511534 1_555
B21 O0 1.426306 1_555
B21 O17 1.470354 1_555
B21 O2 1.484031 1_555
B21 O9 1.511534 1_555
B22 O26 1.426306 1_555
B22 O18 1.470354 1_555
B22 O3 1.484031 1_555
B22 O10 1.511534 1_555
B23 O27 1.426306 1_555
B23 O19 1.470354 1_555
B23 O4 1.484031 1_555
B23 O11 1.511534 1_555
