# generated using pymatgen
data_Ba4Ti13O30
_symmetry_space_group_name_H-M   'P 1'
_cell_length_a   9.97681667
_cell_length_b   9.97681667
_cell_length_c   14.20742800
_cell_angle_alpha   90.00000000
_cell_angle_beta   90.00000000
_cell_angle_gamma   119.96590326
_symmetry_Int_Tables_number   1
_chemical_formula_structural   Ba4Ti13O30
_chemical_formula_sum   'Ba8 Ti26 O60'
_cell_volume   1225.12158653
_cell_formula_units_Z   2
loop_
 _symmetry_equiv_pos_site_id
 _symmetry_equiv_pos_as_xyz
  1  'x, y, z'
loop_
 _atom_site_type_symbol
 _atom_site_label
 _atom_site_symmetry_multiplicity
 _atom_site_fract_x
 _atom_site_fract_y
 _atom_site_fract_z
 _atom_site_occupancy
  Ba  Ba0  1  0.18478600  0.47837000  0.40966500  1
  Ba  Ba1  1  0.31521400  0.02163000  0.90966500  1
  Ba  Ba2  1  0.97837000  0.68478600  0.09033500  1
  Ba  Ba3  1  0.52163000  0.81521400  0.59033500  1
  Ba  Ba4  1  0.81521400  0.52163000  0.59033500  1
  Ba  Ba5  1  0.68478600  0.97837000  0.09033500  1
  Ba  Ba6  1  0.02163000  0.31521400  0.90966500  1
  Ba  Ba7  1  0.47837000  0.18478600  0.40966500  1
  Ti  Ti0  1  0.18397200  0.81602800  0.50000000  1
  Ti  Ti1  1  0.31602800  0.68397200  0.00000000  1
  Ti  Ti2  1  0.81602800  0.18397200  0.50000000  1
  Ti  Ti3  1  0.68397200  0.31602800  0.00000000  1
  Ti  Ti4  1  0.00000000  0.00000000  0.50000000  1
  Ti  Ti5  1  0.50000000  0.50000000  0.00000000  1
  Ti  Ti6  1  0.85174800  0.50122000  0.33549800  1
  Ti  Ti7  1  0.64825200  0.99878000  0.83549800  1
  Ti  Ti8  1  0.00122000  0.35174800  0.16450200  1
  Ti  Ti9  1  0.49878000  0.14825200  0.66450200  1
  Ti  Ti10  1  0.14825200  0.49878000  0.66450200  1
  Ti  Ti11  1  0.35174800  0.00122000  0.16450200  1
  Ti  Ti12  1  0.99878000  0.64825200  0.83549800  1
  Ti  Ti13  1  0.50122000  0.85174800  0.33549800  1
  Ti  Ti14  1  0.03645000  0.85307700  0.31922900  1
  Ti  Ti15  1  0.46355000  0.64692300  0.81922900  1
  Ti  Ti16  1  0.35307700  0.53645000  0.18077100  1
  Ti  Ti17  1  0.14692300  0.96355000  0.68077100  1
  Ti  Ti18  1  0.96355000  0.14692300  0.68077100  1
  Ti  Ti19  1  0.53645000  0.35307700  0.18077100  1
  Ti  Ti20  1  0.64692300  0.46355000  0.81922900  1
  Ti  Ti21  1  0.85307700  0.03645000  0.31922900  1
  Ti  Ti22  1  0.66291100  0.66291100  0.34740600  1
  Ti  Ti23  1  0.83708900  0.83708900  0.84740600  1
  Ti  Ti24  1  0.16291100  0.16291100  0.15259400  1
  Ti  Ti25  1  0.33708900  0.33708900  0.65259400  1
  O  O0  1  0.86052500  0.34957100  0.06844000  1
  O  O1  1  0.63947500  0.15042900  0.56844000  1
  O  O2  1  0.84957100  0.36052500  0.43156000  1
  O  O3  1  0.65042900  0.13947500  0.93156000  1
  O  O4  1  0.13947500  0.65042900  0.93156000  1
  O  O5  1  0.36052500  0.84957100  0.43156000  1
  O  O6  1  0.15042900  0.63947500  0.56844000  1
  O  O7  1  0.34957100  0.86052500  0.06844000  1
  O  O8  1  0.02976000  0.68538100  0.40523500  1
  O  O9  1  0.47024000  0.81461900  0.90523500  1
  O  O10  1  0.18538100  0.52976000  0.09476500  1
  O  O11  1  0.31461900  0.97024000  0.59476500  1
  O  O12  1  0.97024000  0.31461900  0.59476500  1
  O  O13  1  0.52976000  0.18538100  0.09476500  1
  O  O14  1  0.81461900  0.47024000  0.90523500  1
  O  O15  1  0.68538100  0.02976000  0.40523500  1
  O  O16  1  0.85991200  0.85991200  0.40427600  1
  O  O17  1  0.64008800  0.64008800  0.90427600  1
  O  O18  1  0.35991200  0.35991200  0.09572400  1
  O  O19  1  0.14008800  0.14008800  0.59572400  1
  O  O20  1  0.98841400  0.16292900  0.42443300  1
  O  O21  1  0.51158600  0.33707100  0.92443300  1
  O  O22  1  0.66292900  0.48841400  0.07556700  1
  O  O23  1  0.83707100  0.01158600  0.57556700  1
  O  O24  1  0.01158600  0.83707100  0.57556700  1
  O  O25  1  0.48841400  0.66292900  0.07556700  1
  O  O26  1  0.33707100  0.51158600  0.92443300  1
  O  O27  1  0.16292900  0.98841400  0.42443300  1
  O  O28  1  0.98783900  0.48783900  0.25000000  1
  O  O29  1  0.51216100  0.01216100  0.75000000  1
  O  O30  1  0.01216100  0.51216100  0.75000000  1
  O  O31  1  0.48783900  0.98783900  0.25000000  1
  O  O32  1  0.35662400  0.67344300  0.26600800  1
  O  O33  1  0.14337600  0.82655700  0.76600800  1
  O  O34  1  0.17344300  0.85662400  0.23399200  1
  O  O35  1  0.32655700  0.64337600  0.73399200  1
  O  O36  1  0.64337600  0.32655700  0.73399200  1
  O  O37  1  0.85662400  0.17344300  0.23399200  1
  O  O38  1  0.82655700  0.14337600  0.76600800  1
  O  O39  1  0.67344300  0.35662400  0.26600800  1
  O  O40  1  0.17993200  0.35402000  0.23276700  1
  O  O41  1  0.32006800  0.14598000  0.73276700  1
  O  O42  1  0.85402000  0.67993200  0.26723300  1
  O  O43  1  0.64598000  0.82006800  0.76723300  1
  O  O44  1  0.82006800  0.64598000  0.76723300  1
  O  O45  1  0.67993200  0.85402000  0.26723300  1
  O  O46  1  0.14598000  0.32006800  0.73276700  1
  O  O47  1  0.35402000  0.17993200  0.23276700  1
  O  O48  1  0.69282900  0.52559500  0.41675900  1
  O  O49  1  0.80717100  0.97440500  0.91675900  1
  O  O50  1  0.02559500  0.19282900  0.08324100  1
  O  O51  1  0.47440500  0.30717100  0.58324100  1
  O  O52  1  0.30717100  0.47440500  0.58324100  1
  O  O53  1  0.19282900  0.02559500  0.08324100  1
  O  O54  1  0.97440500  0.80717100  0.91675900  1
  O  O55  1  0.52559500  0.69282900  0.41675900  1
  O  O56  1  0.01833900  0.01833900  0.24946900  1
  O  O57  1  0.48166100  0.48166100  0.74946900  1
  O  O58  1  0.51833900  0.51833900  0.25053100  1
  O  O59  1  0.98166100  0.98166100  0.75053100  1
loop_
_geom_bond_atom_site_label_1
_geom_bond_atom_site_label_2
_geom_bond_distance
_geom_bond_site_symmetry_2
Ba0 O32 2.749439 1_555
Ba0 O52 2.760830 1_555
Ba0 O20 2.761747 1_455
Ba0 O40 2.792483 1_555
Ba0 O6 2.887888 1_555
Ba0 O2 2.955665 1_455
Ba0 O55 2.980235 1_555
Ba0 O28 3.033311 1_455
Ba0 O8 3.138901 1_555
Ba0 O5 3.224832 1_555
Ba0 O12 3.266984 1_455
Ba1 O33 2.749439 1_545
Ba1 O53 2.760830 1_556
Ba1 O21 2.761747 1_555
Ba1 O41 2.792483 1_555
Ba1 O7 2.887888 1_546
Ba1 O3 2.955665 1_555
Ba1 O54 2.980235 1_445
Ba1 O29 3.033311 1_555
Ba1 O9 3.138901 1_545
Ba1 O4 3.224832 1_545
Ba1 O13 3.266984 1_556
Ba2 O34 2.749439 1_655
Ba2 O54 2.760830 1_554
Ba2 O22 2.761747 1_555
Ba2 O42 2.792483 1_555
Ba2 O4 2.887888 1_654
Ba2 O0 2.955665 1_555
Ba2 O53 2.980235 1_665
Ba2 O28 3.033311 1_555
Ba2 O10 3.138901 1_655
Ba2 O7 3.224832 1_655
Ba2 O14 3.266984 1_554
Ba3 O35 2.749439 1_555
Ba3 O55 2.760830 1_555
Ba3 O23 2.761747 1_565
Ba3 O43 2.792483 1_555
Ba3 O5 2.887888 1_555
Ba3 O1 2.955665 1_565
Ba3 O52 2.980235 1_555
Ba3 O29 3.033311 1_565
Ba3 O11 3.138901 1_555
Ba3 O6 3.224832 1_555
Ba3 O15 3.266984 1_565
Ba4 O36 2.749439 1_555
Ba4 O48 2.760830 1_555
Ba4 O24 2.761747 1_655
Ba4 O44 2.792483 1_555
Ba4 O2 2.887888 1_555
Ba4 O6 2.955665 1_655
Ba4 O51 2.980235 1_555
Ba4 O30 3.033311 1_655
Ba4 O12 3.138901 1_555
Ba4 O1 3.224832 1_555
Ba4 O8 3.266984 1_655
Ba5 O37 2.749439 1_565
Ba5 O49 2.760830 1_554
Ba5 O25 2.761747 1_555
Ba5 O45 2.792483 1_555
Ba5 O3 2.887888 1_564
Ba5 O7 2.955665 1_555
Ba5 O50 2.980235 1_665
Ba5 O31 3.033311 1_555
Ba5 O13 3.138901 1_565
Ba5 O0 3.224832 1_565
Ba5 O9 3.266984 1_554
Ba6 O38 2.749439 1_455
Ba6 O50 2.760830 1_556
Ba6 O26 2.761747 1_555
Ba6 O46 2.792483 1_555
Ba6 O0 2.887888 1_456
Ba6 O4 2.955665 1_555
Ba6 O49 2.980235 1_445
Ba6 O30 3.033311 1_555
Ba6 O14 3.138901 1_455
Ba6 O3 3.224832 1_455
Ba6 O10 3.266984 1_556
Ba7 O39 2.749439 1_555
Ba7 O51 2.760830 1_555
Ba7 O27 2.761747 1_545
Ba7 O47 2.792483 1_555
Ba7 O1 2.887888 1_555
Ba7 O5 2.955665 1_545
Ba7 O48 2.980235 1_555
Ba7 O31 3.033311 1_545
Ba7 O15 3.138901 1_555
Ba7 O2 3.224832 1_555
Ba7 O11 3.266984 1_545
O0 Ti3 1.889780 1_555
O0 Ti8 1.950133 1_655
O1 Ti2 1.889780 1_555
O1 Ti9 1.950133 1_555
O2 Ti2 1.889780 1_555
O2 Ti6 1.950133 1_555
O3 Ti3 1.889780 1_556
O3 Ti7 1.950133 1_545
O4 Ti1 1.889780 1_556
O4 Ti12 1.950133 1_455
O5 Ti0 1.889780 1_555
O5 Ti13 1.950133 1_555
O6 Ti0 1.889780 1_555
O6 Ti10 1.950133 1_555
O7 Ti1 1.889780 1_555
O7 Ti11 1.950133 1_565
O8 Ti0 1.968616 1_555
O8 Ti14 2.045769 1_555
O8 Ti6 2.062010 1_455
O9 Ti1 1.968616 1_556
O9 Ti15 2.045769 1_555
O9 Ti7 2.062010 1_555
O10 Ti1 1.968616 1_555
O10 Ti16 2.045769 1_555
O10 Ti8 2.062010 1_555
O11 Ti0 1.968616 1_555
O11 Ti17 2.045769 1_555
O11 Ti9 2.062010 1_565
O12 Ti2 1.968616 1_555
O12 Ti18 2.045769 1_555
O12 Ti10 2.062010 1_655
O13 Ti3 1.968616 1_555
O13 Ti19 2.045769 1_555
O13 Ti11 2.062010 1_555
O14 Ti3 1.968616 1_556
O14 Ti20 2.045769 1_555
O14 Ti12 2.062010 1_555
O15 Ti2 1.968616 1_555
O15 Ti21 2.045769 1_555
O15 Ti13 2.062010 1_545
O16 Ti4 1.950633 1_665
O16 Ti22 2.125976 1_555
O16 Ti21 2.164890 1_565
O16 Ti14 2.164890 1_655
O17 Ti5 1.950633 1_556
O17 Ti23 2.125976 1_555
O17 Ti20 2.164890 1_555
O17 Ti15 2.164890 1_555
O18 Ti5 1.950633 1_555
O18 Ti24 2.125976 1_555
O18 Ti16 2.164890 1_555
O18 Ti19 2.164890 1_555
O19 Ti4 1.950633 1_555
O19 Ti25 2.125976 1_555
O19 Ti17 2.164890 1_545
O19 Ti18 2.164890 1_455
O20 Ti21 1.986814 1_555
O20 Ti4 1.998999 1_655
O20 Ti2 2.124935 1_555
O21 Ti20 1.986814 1_555
O21 Ti5 1.998999 1_556
O21 Ti3 2.124935 1_556
O22 Ti19 1.986814 1_555
O22 Ti5 1.998999 1_555
O22 Ti3 2.124935 1_555
O23 Ti18 1.986814 1_555
O23 Ti4 1.998999 1_655
O23 Ti2 2.124935 1_555
O24 Ti17 1.986814 1_555
O24 Ti4 1.998999 1_565
O24 Ti0 2.124935 1_555
O25 Ti16 1.986814 1_555
O25 Ti5 1.998999 1_555
O25 Ti1 2.124935 1_555
O26 Ti15 1.986814 1_555
O26 Ti5 1.998999 1_556
O26 Ti1 2.124935 1_556
O27 Ti14 1.986814 1_555
O27 Ti4 1.998999 1_565
O27 Ti0 2.124935 1_555
O28 Ti8 1.875608 1_655
O28 Ti6 1.875608 1_555
O29 Ti9 1.875608 1_555
O29 Ti7 1.875608 1_545
O30 Ti10 1.875608 1_555
O30 Ti12 1.875608 1_455
O31 Ti11 1.875608 1_565
O31 Ti13 1.875608 1_555
O32 Ti16 1.813138 1_555
O32 Ti13 1.912260 1_555
O33 Ti17 1.813138 1_555
O33 Ti12 1.912260 1_455
O34 Ti14 1.813138 1_555
O34 Ti11 1.912260 1_565
O35 Ti15 1.813138 1_555
O35 Ti10 1.912260 1_555
O36 Ti20 1.813138 1_555
O36 Ti9 1.912260 1_555
O37 Ti21 1.813138 1_555
O37 Ti8 1.912260 1_655
O38 Ti18 1.813138 1_555
O38 Ti7 1.912260 1_545
O39 Ti19 1.813138 1_555
O39 Ti6 1.912260 1_555
O40 Ti16 1.923954 1_555
O40 Ti8 2.019850 1_555
O40 Ti24 2.153644 1_555
O41 Ti17 1.923954 1_545
O41 Ti9 2.019850 1_555
O41 Ti25 2.153644 1_555
O42 Ti14 1.923954 1_655
O42 Ti6 2.019850 1_555
O42 Ti22 2.153644 1_555
O43 Ti15 1.923954 1_555
O43 Ti7 2.019850 1_555
O43 Ti23 2.153644 1_555
O44 Ti20 1.923954 1_555
O44 Ti12 2.019850 1_555
O44 Ti23 2.153644 1_555
O45 Ti21 1.923954 1_565
O45 Ti13 2.019850 1_555
O45 Ti22 2.153644 1_555
O46 Ti18 1.923954 1_455
O46 Ti10 2.019850 1_555
O46 Ti25 2.153644 1_555
O47 Ti19 1.923954 1_555
O47 Ti11 2.019850 1_555
O47 Ti24 2.153644 1_555
O48 Ti22 1.829016 1_555
O48 Ti6 2.071481 1_555
O49 Ti23 1.829016 1_555
O49 Ti7 2.071481 1_555
O50 Ti24 1.829016 1_555
O50 Ti8 2.071481 1_555
O51 Ti25 1.829016 1_555
O51 Ti9 2.071481 1_555
O52 Ti25 1.829016 1_555
O52 Ti10 2.071481 1_555
O53 Ti24 1.829016 1_555
O53 Ti11 2.071481 1_555
O54 Ti23 1.829016 1_555
O54 Ti12 2.071481 1_555
O55 Ti22 1.829016 1_555
O55 Ti13 2.071481 1_555
O56 Ti24 1.994216 1_555
O56 Ti14 2.007751 1_545
O56 Ti21 2.007751 1_455
O57 Ti25 1.994216 1_555
O57 Ti20 2.007751 1_555
O57 Ti15 2.007751 1_555
O58 Ti22 1.994216 1_555
O58 Ti19 2.007751 1_555
O58 Ti16 2.007751 1_555
O59 Ti23 1.994216 1_555
O59 Ti18 2.007751 1_565
O59 Ti17 2.007751 1_655
