# generated using pymatgen
data_Dy(GePd)2
_symmetry_space_group_name_H-M   'P 1'
_cell_length_a   4.22479262
_cell_length_b   4.22479286
_cell_length_c   5.88930883
_cell_angle_alpha   111.01933603
_cell_angle_beta   111.01934139
_cell_angle_gamma   89.99998989
_symmetry_Int_Tables_number   1
_chemical_formula_structural   Dy(GePd)2
_chemical_formula_sum   'Dy1 Ge2 Pd2'
_cell_volume   90.58990670
_cell_formula_units_Z   1
loop_
 _symmetry_equiv_pos_site_id
 _symmetry_equiv_pos_as_xyz
  1  'x, y, z'
loop_
 _atom_site_type_symbol
 _atom_site_label
 _atom_site_symmetry_multiplicity
 _atom_site_fract_x
 _atom_site_fract_y
 _atom_site_fract_z
 _atom_site_occupancy
  Dy  Dy0  1  0.00000000  0.00000000  0.00000000  1
  Ge  Ge0  1  0.61869736  0.61869736  0.23739571  1
  Ge  Ge1  1  0.38130264  0.38130264  0.76260429  1
  Pd  Pd0  1  0.75000000  0.25000000  0.50000000  1
  Pd  Pd1  1  0.25000000  0.75000000  0.50000000  1
loop_
_geom_bond_atom_site_label_1
_geom_bond_atom_site_label_2
_geom_bond_distance
_geom_bond_site_symmetry_2
Dy0 Ge1 3.221203 1_444
Dy0 Ge0 3.221203 1_555
Dy0 Ge0 3.221204 1_545
Dy0 Ge1 3.221204 1_454
Dy0 Ge1 3.221205 1_544
Dy0 Ge0 3.221205 1_455
Dy0 Ge0 3.221207 1_445
Dy0 Ge1 3.221207 1_554
Dy0 Pd0 3.301833 1_454
Dy0 Pd1 3.301833 1_545
Dy0 Pd1 3.301833 1_544
Dy0 Pd0 3.301833 1_455
Dy0 Pd1 3.301833 1_444
Dy0 Pd0 3.301833 1_555
Dy0 Pd0 3.301834 1_444
Dy0 Pd1 3.301834 1_555
Ge0 Ge1 2.409749 1_554
Ge0 Pd0 2.497721 1_555
Ge0 Pd1 2.497721 1_555
Ge0 Pd1 2.497725 1_655
Ge0 Pd0 2.497726 1_565
Ge1 Pd1 2.497721 1_555
Ge1 Pd0 2.497721 1_555
Ge1 Pd0 2.497725 1_455
Ge1 Pd1 2.497726 1_545
