# generated using pymatgen
data_Na6Zr4Si7Sn4S5O48
_symmetry_space_group_name_H-M   'P 1'
_cell_length_a   17.98282924
_cell_length_b   8.97033673
_cell_length_c   23.26903676
_cell_angle_alpha   89.93933829
_cell_angle_beta   89.90040139
_cell_angle_gamma   119.95712167
_symmetry_Int_Tables_number   1
_chemical_formula_structural   Na6Zr4Si7Sn4S5O48
_chemical_formula_sum   'Na18 Zr12 Si21 Sn12 S15 O144'
_cell_volume   3252.08252344
_cell_formula_units_Z   3
loop_
 _symmetry_equiv_pos_site_id
 _symmetry_equiv_pos_as_xyz
  1  'x, y, z'
loop_
 _atom_site_type_symbol
 _atom_site_label
 _atom_site_symmetry_multiplicity
 _atom_site_fract_x
 _atom_site_fract_y
 _atom_site_fract_z
 _atom_site_occupancy
  Na  Na0  1  0.00043524  0.63150270  0.25221822  1
  Na  Na1  1  0.49716902  0.64646944  0.24607293  1
  Na  Na2  1  0.99851840  0.34817068  0.75296113  1
  Na  Na3  1  0.50007575  0.37092842  0.75426008  1
  Na  Na4  1  0.66387170  0.31476709  0.91826004  1
  Na  Na5  1  0.16502237  0.01607945  0.41467632  1
  Na  Na6  1  0.99862211  0.98262968  0.50365691  1
  Na  Na7  1  0.49430773  0.98798429  0.49445891  1
  Na  Na8  1  0.99515270  0.00153641  0.99644711  1
  Na  Na9  1  0.49723569  0.00232108  0.00817676  1
  Na  Na10  1  0.33510543  0.33699206  0.83340354  1
  Na  Na11  1  0.83340643  0.33012004  0.83579242  1
  Na  Na12  1  0.33267769  0.33670790  0.32892969  1
  Na  Na13  1  0.83473345  0.33173383  0.32910403  1
  Na  Na14  1  0.17590720  0.67496647  0.17037247  1
  Na  Na15  1  0.66984665  0.66520687  0.16019766  1
  Na  Na16  1  0.17694847  0.68441944  0.66556925  1
  Na  Na17  1  0.67358574  0.67534870  0.67250399  1
  Zr  Zr0  1  0.99857347  0.99355776  0.34817988  1
  Zr  Zr1  1  0.49774331  0.00095950  0.84966609  1
  Zr  Zr2  1  0.32346707  0.32256304  0.69125963  1
  Zr  Zr3  1  0.82534713  0.33374399  0.68726349  1
  Zr  Zr4  1  0.33218805  0.32739042  0.18308675  1
  Zr  Zr5  1  0.82373860  0.32305990  0.19086899  1
  Zr  Zr6  1  0.83425271  0.34142498  0.98043686  1
  Zr  Zr7  1  0.33463782  0.32735239  0.47933207  1
  Zr  Zr8  1  0.16825761  0.67569791  0.30915197  1
  Zr  Zr9  1  0.66617107  0.67477397  0.31082943  1
  Zr  Zr10  1  0.16884822  0.65944376  0.81360636  1
  Zr  Zr11  1  0.66824135  0.66274163  0.81115482  1
  Si  Si0  1  0.14799386  0.00806320  0.24865097  1
  Si  Si1  1  0.63882372  0.00385565  0.25142564  1
  Si  Si2  1  0.35557207  0.70989213  0.24755507  1
  Si  Si3  1  0.85253801  0.70819778  0.24792391  1
  Si  Si4  1  0.00008974  0.29146590  0.24919977  1
  Si  Si5  1  0.13832078  0.27640850  0.75104080  1
  Si  Si6  1  0.64421045  0.28784002  0.74958159  1
  Si  Si7  1  0.50064785  0.70886530  0.74891571  1
  Si  Si8  1  0.35177039  0.99548516  0.74842741  1
  Si  Si9  1  0.85609648  0.99952224  0.74700116  1
  Si  Si10  1  0.18448598  0.03698895  0.58319999  1
  Si  Si11  1  0.83142330  0.63249027  0.58260497  1
  Si  Si12  1  0.48337496  0.62724525  0.08223467  1
  Si  Si13  1  0.33029810  0.03035689  0.08282408  1
  Si  Si14  1  0.68541084  0.33115584  0.08362398  1
  Si  Si15  1  0.81421391  0.67642428  0.91738785  1
  Si  Si16  1  0.02326876  0.37969680  0.91869781  1
  Si  Si17  1  0.51657290  0.37136103  0.91494280  1
  Si  Si18  1  0.31744399  0.95732084  0.41512609  1
  Si  Si19  1  0.01728757  0.66139930  0.41620095  1
  Si  Si20  1  0.52384287  0.67023435  0.41860348  1
  Sn  Sn0  1  0.49560098  0.97489150  0.35328114  1
  Sn  Sn1  1  0.99557314  0.01693942  0.85566974  1
  Sn  Sn2  1  0.99909247  0.99777386  0.64576004  1
  Sn  Sn3  1  0.49685598  0.99330605  0.65563885  1
  Sn  Sn4  1  0.99851468  0.00334003  0.15446635  1
  Sn  Sn5  1  0.49726206  0.98502083  0.14159614  1
  Sn  Sn6  1  0.34608742  0.33390128  0.98499303  1
  Sn  Sn7  1  0.83859075  0.35241033  0.48222923  1
  Sn  Sn8  1  0.16699840  0.66955023  0.01878735  1
  Sn  Sn9  1  0.66411705  0.64471303  0.01982497  1
  Sn  Sn10  1  0.17202294  0.69383324  0.51578256  1
  Sn  Sn11  1  0.66627712  0.66251078  0.51801174  1
  S  S0  1  0.50019131  0.28542877  0.25071340  1
  S  S1  1  0.00097588  0.71122563  0.75088373  1
  S  S2  1  0.48144019  0.32928818  0.58426586  1
  S  S3  1  0.98147699  0.33677106  0.58211943  1
  S  S4  1  0.68548662  0.04077452  0.58129938  1
  S  S5  1  0.33401715  0.63134332  0.58279624  1
  S  S6  1  0.98148260  0.63339811  0.08423623  1
  S  S7  1  0.83622687  0.03988326  0.08311886  1
  S  S8  1  0.18440549  0.32851314  0.08078879  1
  S  S9  1  0.31196249  0.65983283  0.91918714  1
  S  S10  1  0.16722358  0.96281014  0.91704673  1
  S  S11  1  0.66598088  0.95507891  0.91841519  1
  S  S12  1  0.81199326  0.96272361  0.41954185  1
  S  S13  1  0.16571997  0.37958404  0.41931204  1
  S  S14  1  0.66665252  0.37169419  0.41713042  1
  O  O0  1  0.10473430  0.03137039  0.30827958  1
  O  O1  1  0.60286207  0.04309781  0.31045429  1
  O  O2  1  0.41503370  0.77988675  0.30606559  1
  O  O3  1  0.91376176  0.79338008  0.30448994  1
  O  O4  1  0.48780899  0.18552079  0.30434260  1
  O  O5  1  0.98367528  0.17065323  0.30588837  1
  O  O6  1  0.09981609  0.15902673  0.80846590  1
  O  O7  1  0.60402848  0.17618865  0.80796163  1
  O  O8  1  0.48362645  0.79644640  0.80474544  1
  O  O9  1  0.98565483  0.78542511  0.80261337  1
  O  O10  1  0.41397979  0.03333833  0.80376743  1
  O  O11  1  0.91738636  0.05141000  0.80420166  1
  O  O12  1  0.38904317  0.95936666  0.68919680  1
  O  O13  1  0.89816256  0.96470115  0.69029266  1
  O  O14  1  0.07908038  0.20442537  0.69350743  1
  O  O15  1  0.58508229  0.21007195  0.69149519  1
  O  O16  1  0.01542164  0.81308621  0.69768013  1
  O  O17  1  0.52098769  0.82318589  0.68935868  1
  O  O18  1  0.39810118  0.83483164  0.19270366  1
  O  O19  1  0.89108166  0.82163683  0.18967918  1
  O  O20  1  0.02024420  0.21755665  0.19047311  1
  O  O21  1  0.51453111  0.21353566  0.19913960  1
  O  O22  1  0.08410164  0.95934880  0.19256667  1
  O  O23  1  0.57908990  0.95668563  0.19523659  1
  O  O24  1  0.44348889  0.35655990  0.63629577  1
  O  O25  1  0.94168745  0.36175268  0.63417513  1
  O  O26  1  0.24683206  0.13423844  0.63744105  1
  O  O27  1  0.73899125  0.12158649  0.63317400  1
  O  O28  1  0.32392561  0.52933942  0.63505260  1
  O  O29  1  0.81697063  0.50669192  0.63743837  1
  O  O30  1  0.43926684  0.50980026  0.14011834  1
  O  O31  1  0.94354264  0.53071735  0.13654784  1
  O  O32  1  0.31187123  0.12052445  0.13759505  1
  O  O33  1  0.82687246  0.12341024  0.13533399  1
  O  O34  1  0.23686258  0.35470812  0.13319099  1
  O  O35  1  0.74870218  0.35682365  0.13740047  1
  O  O36  1  0.22481431  0.30532490  0.02853268  1
  O  O37  1  0.73082424  0.30569225  0.02525174  1
  O  O38  1  0.41946324  0.54606857  0.02598529  1
  O  O39  1  0.92823425  0.54723137  0.03255863  1
  O  O40  1  0.34269729  0.13841021  0.02340985  1
  O  O41  1  0.84898270  0.14776973  0.03152742  1
  O  O42  1  0.22925692  0.15061042  0.52481081  1
  O  O43  1  0.72825572  0.14696588  0.52877253  1
  O  O44  1  0.34653775  0.54950744  0.53118366  1
  O  O45  1  0.84714458  0.54554046  0.52536434  1
  O  O46  1  0.42833003  0.30917096  0.53253957  1
  O  O47  1  0.92556378  0.30610322  0.53028973  1
  O  O48  1  0.27330361  0.69189438  0.97058746  1
  O  O49  1  0.77209808  0.71153106  0.97433154  1
  O  O50  1  0.08470455  0.47356614  0.97447420  1
  O  O51  1  0.57941287  0.45433543  0.97062661  1
  O  O52  1  0.15410646  0.85661675  0.96968666  1
  O  O53  1  0.65499855  0.85356554  0.97061561  1
  O  O54  1  0.28029728  0.84267541  0.47440697  1
  O  O55  1  0.77355445  0.85494272  0.47190244  1
  O  O56  1  0.15393893  0.45796292  0.47266505  1
  O  O57  1  0.65526160  0.45125745  0.47079066  1
  O  O58  1  0.07765300  0.69753022  0.47389211  1
  O  O59  1  0.58421395  0.69890789  0.47563583  1
  O  O60  1  0.06063161  0.63630353  0.35882473  1
  O  O61  1  0.56658453  0.63774248  0.36159019  1
  O  O62  1  0.25124904  0.87127332  0.36263099  1
  O  O63  1  0.75986434  0.88126076  0.36792582  1
  O  O64  1  0.17842804  0.48112698  0.36791941  1
  O  O65  1  0.68257431  0.48303051  0.36681540  1
  O  O66  1  0.06548071  0.49314371  0.86006199  1
  O  O67  1  0.56048095  0.48402889  0.85682344  1
  O  O68  1  0.18161625  0.88039111  0.86597047  1
  O  O69  1  0.67886290  0.87799799  0.86584129  1
  O  O70  1  0.25958099  0.64169082  0.86679347  1
  O  O71  1  0.75240407  0.63407907  0.86176076  1
  O  O72  1  0.01262958  0.84115838  0.41426341  1
  O  O73  1  0.51767243  0.84546083  0.41633129  1
  O  O74  1  0.41573160  0.99528463  0.40931052  1
  O  O75  1  0.89868054  0.98457228  0.41397853  1
  O  O76  1  0.08991143  0.20231578  0.41530386  1
  O  O77  1  0.58852751  0.20318902  0.41214067  1
  O  O78  1  0.01829167  0.19253704  0.91662570  1
  O  O79  1  0.51190414  0.18252252  0.91156552  1
  O  O80  1  0.08773043  0.97219254  0.91090912  1
  O  O81  1  0.59077555  0.98011794  0.91310400  1
  O  O82  1  0.39804564  0.81244586  0.91252869  1
  O  O83  1  0.91339641  0.83578104  0.91027893  1
  O  O84  1  0.49023851  0.17243458  0.58730630  1
  O  O85  1  0.98839777  0.17887987  0.58576843  1
  O  O86  1  0.08976191  0.02056531  0.58943622  1
  O  O87  1  0.60008333  0.02639963  0.58618445  1
  O  O88  1  0.41211613  0.80766644  0.58682247  1
  O  O89  1  0.91692075  0.82093445  0.58809187  1
  O  O90  1  0.48992112  0.81353270  0.08395065  1
  O  O91  1  0.99006515  0.80758420  0.08707671  1
  O  O92  1  0.41677364  0.01968174  0.08851336  1
  O  O93  1  0.91543668  0.02246121  0.08702227  1
  O  O94  1  0.09755142  0.17195711  0.08646579  1
  O  O95  1  0.59078882  0.16445731  0.09009129  1
  O  O96  1  0.35065973  0.17578994  0.74324419  1
  O  O97  1  0.85415485  0.18134614  0.73752426  1
  O  O98  1  0.23570097  0.31172510  0.74547475  1
  O  O99  1  0.73967478  0.30781671  0.74470662  1
  O  O100  1  0.41750347  0.51706148  0.73982675  1
  O  O101  1  0.92557522  0.53309393  0.74328472  1
  O  O102  1  0.35134056  0.52269317  0.24111997  1
  O  O103  1  0.85117500  0.52564696  0.24341300  1
  O  O104  1  0.42458818  0.31275043  0.24618683  1
  O  O105  1  0.91769483  0.31879970  0.24131281  1
  O  O106  1  0.24248013  0.17580945  0.24462127  1
  O  O107  1  0.73701543  0.16153460  0.24682422  1
  O  O108  1  0.31479640  0.49852092  0.92368752  1
  O  O109  1  0.81827786  0.49574039  0.92476212  1
  O  O110  1  0.42030112  0.35280592  0.91796334  1
  O  O111  1  0.92764339  0.35504264  0.92601566  1
  O  O112  1  0.24335803  0.13712278  0.92333788  1
  O  O113  1  0.74396096  0.13255180  0.92276691  1
  O  O114  1  0.31920687  0.14316625  0.42448562  1
  O  O115  1  0.81675230  0.13328450  0.42657550  1
  O  O116  1  0.24326544  0.35712300  0.42494289  1
  O  O117  1  0.74403917  0.35013901  0.42371222  1
  O  O118  1  0.42827283  0.50256145  0.42784132  1
  O  O119  1  0.92156419  0.48362094  0.42047489  1
  O  O120  1  0.17601810  0.48621533  0.07670586  1
  O  O121  1  0.68367081  0.51183002  0.08122625  1
  O  O122  1  0.06788664  0.64974934  0.07698515  1
  O  O123  1  0.57999262  0.65160801  0.07547476  1
  O  O124  1  0.24186917  0.83683933  0.07593076  1
  O  O125  1  0.75794418  0.86994052  0.07782773  1
  O  O126  1  0.17643154  0.84371407  0.58112051  1
  O  O127  1  0.67813585  0.86800988  0.57681837  1
  O  O128  1  0.25366007  0.64181837  0.57741906  1
  O  O129  1  0.74311574  0.64669937  0.57505935  1
  O  O130  1  0.06801827  0.48993155  0.57508859  1
  O  O131  1  0.56837314  0.48611641  0.57705794  1
  O  O132  1  0.14996678  0.82868584  0.25354509  1
  O  O133  1  0.64689909  0.82688779  0.25887295  1
  O  O134  1  0.26066861  0.68444062  0.25638153  1
  O  O135  1  0.75782258  0.68343748  0.25844011  1
  O  O136  1  0.08287712  0.48237857  0.25606216  1
  O  O137  1  0.57712225  0.46448098  0.25745559  1
  O  O138  1  0.14633086  0.46881052  0.75810377  1
  O  O139  1  0.65053287  0.47407141  0.75324651  1
  O  O140  1  0.07720780  0.68847319  0.75672557  1
  O  O141  1  0.58335281  0.68315607  0.75508146  1
  O  O142  1  0.25640040  0.83108938  0.75719281  1
  O  O143  1  0.76096417  0.83808644  0.75520546  1
loop_
_geom_bond_atom_site_label_1
_geom_bond_atom_site_label_2
_geom_bond_distance
_geom_bond_site_symmetry_2
Na0 O103 2.367497 1_455
Na0 O132 2.368669 1_555
Na0 O136 2.444619 1_555
Na0 O105 2.445639 1_455
Na0 O60 2.700036 1_555
Na0 O31 2.863463 1_455
Na0 O3 2.876601 1_455
Na0 O22 2.899010 1_555
Na1 O102 2.283967 1_555
Na1 O133 2.368475 1_555
Na1 O104 2.600548 1_555
Na1 O137 2.673383 1_555
Na1 O23 2.684401 1_555
Na1 O2 2.706371 1_555
Na1 O30 2.721422 1_555
Na1 O61 2.983014 1_555
Na2 O97 2.287463 1_555
Na2 O138 2.319361 1_655
Na2 O101 2.587731 1_555
Na2 O11 2.597137 1_555
Na2 O140 2.648689 1_655
Na2 O14 2.745508 1_655
Na2 O66 2.793797 1_655
Na2 O25 2.971976 1_555
Na3 O96 2.378121 1_555
Na3 O139 2.382594 1_555
Na3 O141 2.428737 1_555
Na3 O100 2.445565 1_555
Na3 O67 2.611206 1_555
Na3 O10 2.863331 1_555
Na3 O24 2.909663 1_555
Na3 O15 2.958286 1_555
Na4 O79 2.379907 1_555
Na4 O109 2.422467 1_555
Na4 O81 2.610406 1_545
Na4 O113 2.666116 1_555
Na4 O51 2.693483 1_555
Na4 O37 2.786070 1_556
Na4 O71 2.810327 1_555
Na4 O7 2.823267 1_555
Na5 O72 2.382836 1_545
Na5 O114 2.425987 1_555
Na5 O76 2.620895 1_555
Na5 O116 2.664540 1_555
Na5 O0 2.735079 1_555
Na5 O62 2.750753 1_545
Na5 O42 2.825394 1_555
Na5 O58 2.834216 1_545
Na6 O89 2.445040 1_555
Na6 O86 2.498358 1_665
Na6 O72 2.514709 1_655
Na6 O85 2.666962 1_565
Na6 O76 2.748442 1_665
Na6 O75 2.762069 1_555
Na7 O73 2.377973 1_555
Na7 O74 2.455285 1_555
Na7 O77 2.642109 1_565
Na7 O88 2.648396 1_555
Na7 O84 2.745644 1_565
Na7 O87 2.766489 1_565
Na8 O78 2.416001 1_655
Na8 O83 2.495181 1_545
Na8 O93 2.606000 1_556
Na8 O80 2.688821 1_645
Na8 O91 2.704668 1_546
Na8 O94 2.706325 1_656
Na9 O90 2.400928 1_545
Na9 O92 2.414253 1_555
Na9 O95 2.480341 1_555
Na9 O79 2.701978 1_554
Na9 O82 2.832634 1_544
Na9 O81 2.843556 1_544
Na10 O110 2.456196 1_555
Na10 O96 2.641754 1_555
Na10 O98 2.653685 1_555
Na10 O100 2.671510 1_555
Na10 O108 2.679294 1_555
Na10 O112 2.709563 1_555
Na11 O113 2.637814 1_555
Na11 O111 2.638999 1_555
Na11 O109 2.641086 1_555
Na11 O99 2.655157 1_555
Na11 O97 2.765791 1_555
Na11 O101 2.767889 1_555
Na12 O106 2.498330 1_555
Na12 O102 2.549921 1_555
Na12 O104 2.613327 1_555
Na12 O114 2.754397 1_555
Na12 O116 2.809384 1_555
Na12 O118 2.816497 1_555
Na13 O107 2.534354 1_555
Na13 O103 2.562413 1_555
Na13 O105 2.564185 1_555
Na13 O119 2.589950 1_555
Na13 O117 2.791196 1_555
Na13 O115 2.798513 1_555
Na14 O134 2.493501 1_555
Na14 O132 2.551371 1_555
Na14 O124 2.570760 1_555
Na14 O136 2.617955 1_555
Na14 O120 2.761943 1_555
Na14 O122 2.850173 1_555
Na15 O121 2.382609 1_555
Na15 O123 2.515356 1_555
Na15 O125 2.575372 1_555
Na15 O135 2.740521 1_555
Na15 O137 2.850237 1_555
Na15 O133 2.854332 1_555
Na16 O126 2.431190 1_555
Na16 O142 2.541053 1_555
Na16 O128 2.602813 1_555
Na16 O138 2.757464 1_555
Na16 O140 2.787403 1_555
Na16 O130 2.814719 1_555
Na17 O143 2.455390 1_555
Na17 O139 2.490835 1_555
Na17 O141 2.536330 1_555
Na17 O129 2.661391 1_555
Na17 O127 2.792999 1_555
Na17 O131 2.865105 1_555
O0 Si0 1.653281 1_555
O0 Zr0 1.992004 1_445
O1 Si1 1.629117 1_555
O1 Sn0 1.975181 1_545
O2 Si2 1.651546 1_555
O2 Sn0 1.960759 1_555
O3 Si3 1.641794 1_555
O3 Zr0 1.964221 1_555
O4 S0 1.485729 1_555
O4 Sn0 2.268631 1_545
O5 Si4 1.636380 1_655
O5 Zr0 1.996628 1_545
O6 Si5 1.624599 1_555
O6 Sn1 1.987142 1_455
O7 Si6 1.625285 1_555
O7 Zr1 2.013821 1_555
O8 Si7 1.624662 1_555
O8 Zr1 2.015554 1_565
O9 S1 1.466800 1_655
O9 Sn1 2.346312 1_565
O10 Si8 1.628358 1_545
O10 Zr1 1.983898 1_555
O11 Si9 1.642269 1_545
O11 Sn1 1.986465 1_555
O12 Si8 1.633522 1_555
O12 Sn3 1.966225 1_555
O13 Si9 1.626165 1_555
O13 Sn2 1.977645 1_555
O14 Si5 1.632136 1_555
O14 Sn2 2.021558 1_445
O15 Si6 1.646299 1_555
O15 Sn3 1.980218 1_545
O16 S1 1.481365 1_555
O16 Sn2 2.184798 1_455
O17 Si7 1.651237 1_555
O17 Sn3 1.947502 1_555
O18 Si2 1.614800 1_555
O18 Sn5 1.999763 1_555
O19 Si3 1.625470 1_555
O19 Sn4 1.976686 1_565
O20 Si4 1.636597 1_555
O20 Sn4 1.949831 1_455
O21 S0 1.445415 1_555
O21 Sn5 2.337247 1_545
O22 Si0 1.648988 1_565
O22 Sn4 1.980174 1_465
O23 Si1 1.610744 1_565
O23 Sn5 2.041338 1_555
O24 S2 1.468288 1_555
O24 Zr2 2.391515 1_555
O25 S3 1.478889 1_555
O25 Zr3 2.330563 1_555
O26 Si10 1.625258 1_555
O26 Zr2 2.001681 1_555
O27 S4 1.489158 1_555
O27 Zr3 2.162833 1_555
O28 S5 1.476402 1_555
O28 Zr2 2.265096 1_555
O29 Si11 1.634571 1_555
O29 Zr3 2.000973 1_555
O30 Si12 1.646788 1_555
O30 Zr4 2.056228 1_555
O31 S6 1.470607 1_555
O31 Zr5 2.384673 1_555
O32 Si13 1.629930 1_555
O32 Zr4 2.006460 1_555
O33 S7 1.480880 1_555
O33 Zr5 2.232920 1_555
O34 S8 1.488329 1_555
O34 Zr4 2.184589 1_555
O35 Si14 1.630361 1_555
O35 Zr5 1.968160 1_555
O36 S8 1.482653 1_555
O36 Sn6 2.298179 1_554
O37 Si14 1.657436 1_555
O37 Zr6 2.011637 1_554
O38 Si12 1.654005 1_555
O38 Sn6 1.942503 1_554
O39 S6 1.492356 1_555
O39 Zr6 2.152050 1_554
O40 Si13 1.637314 1_555
O40 Sn6 1.941062 1_554
O41 S7 1.485008 1_555
O41 Zr6 2.226534 1_554
O42 Si10 1.645210 1_555
O42 Zr7 2.052703 1_555
O43 S4 1.501799 1_555
O43 Sn7 2.200567 1_555
O44 S5 1.482542 1_555
O44 Zr7 2.247864 1_555
O45 Si11 1.638121 1_555
O45 Sn7 1.941786 1_555
O46 S2 1.491898 1_555
O46 Zr7 2.163201 1_555
O47 S3 1.506598 1_555
O47 Sn7 2.126802 1_555
O48 S9 1.481227 1_555
O48 Sn8 2.135875 1_556
O49 Si15 1.632193 1_555
O49 Sn9 2.019804 1_556
O50 Si16 1.640813 1_555
O50 Sn8 1.937730 1_556
O51 Si17 1.636145 1_555
O51 Sn9 1.989842 1_556
O52 S10 1.495165 1_555
O52 Sn8 2.135497 1_556
O53 S11 1.469971 1_555
O53 Sn9 2.269554 1_556
O54 Si18 1.647521 1_555
O54 Sn10 1.973618 1_555
O55 S12 1.491361 1_555
O55 Sn11 2.124997 1_555
O56 S13 1.493372 1_555
O56 Sn10 2.215307 1_555
O57 S14 1.502466 1_555
O57 Sn11 2.113746 1_555
O58 Si19 1.655338 1_555
O58 Sn10 1.973086 1_555
O59 Si20 1.653117 1_555
O59 Sn11 1.934484 1_555
O60 Si19 1.616459 1_555
O60 Zr8 2.124851 1_555
O61 Si20 1.629943 1_555
O61 Zr9 2.027388 1_555
O62 Si18 1.610680 1_555
O62 Zr8 2.061531 1_555
O63 S12 1.475443 1_555
O63 Zr9 2.220583 1_555
O64 S13 1.449429 1_555
O64 Zr8 2.294411 1_555
O65 S14 1.470012 1_555
O65 Zr9 2.290382 1_555
O66 Si16 1.641766 1_555
O66 Zr10 2.017277 1_555
O67 Si17 1.634091 1_555
O67 Zr11 2.083538 1_555
O68 S10 1.489298 1_555
O68 Zr10 2.239908 1_555
O69 S11 1.479561 1_555
O69 Zr11 2.240962 1_555
O70 S9 1.500477 1_555
O70 Zr10 2.117870 1_555
O71 Si15 1.624677 1_555
O71 Zr11 2.034098 1_555
O72 Si19 1.656489 1_555
O72 Zr0 2.153906 1_455
O73 Si20 1.630897 1_555
O73 Sn0 2.028944 1_555
O74 Si18 1.629798 1_555
O74 Sn0 2.013087 1_555
O75 S12 1.476279 1_555
O75 Zr0 2.328766 1_555
O76 S13 1.493832 1_555
O76 Zr0 2.363777 1_445
O77 S14 1.467015 1_555
O77 Sn0 2.336314 1_545
O78 Si16 1.636799 1_555
O78 Sn1 2.005977 1_455
O79 Si17 1.655580 1_555
O79 Zr1 2.093816 1_555
O80 S10 1.480481 1_555
O80 Sn1 2.287011 1_465
O81 S11 1.482771 1_555
O81 Zr1 2.309368 1_565
O82 S9 1.475379 1_555
O82 Zr1 2.274059 1_565
O83 Si15 1.644424 1_555
O83 Sn1 2.007497 1_565
O84 S2 1.493964 1_555
O84 Sn3 2.304458 1_545
O85 S3 1.484767 1_555
O85 Sn2 2.221056 1_545
O86 Si10 1.640982 1_555
O86 Sn2 2.019175 1_445
O87 S4 1.479794 1_555
O87 Sn3 2.363080 1_545
O88 S5 1.505063 1_555
O88 Sn3 2.266970 1_555
O89 Si11 1.625784 1_555
O89 Sn2 2.042290 1_555
O90 Si12 1.616043 1_555
O90 Sn5 1.996302 1_555
O91 S6 1.492994 1_555
O91 Sn4 2.303412 1_565
O92 Si13 1.610703 1_555
O92 Sn5 2.042595 1_545
O93 S7 1.511416 1_555
O93 Sn4 2.233333 1_555
O94 S8 1.495808 1_555
O94 Sn4 2.293069 1_455
O95 Si14 1.616026 1_555
O95 Sn5 2.034975 1_545
O96 Si8 1.631799 1_545
O96 Zr2 2.019268 1_555
O97 Si9 1.663195 1_545
O97 Zr3 2.052072 1_555
O98 Si5 1.621360 1_555
O98 Zr2 1.982794 1_555
O99 Si6 1.638337 1_555
O99 Zr3 1.961783 1_555
O100 Si7 1.635003 1_555
O100 Zr2 2.060354 1_555
O101 S1 1.503557 1_655
O101 Zr3 2.222575 1_555
O102 Si2 1.649548 1_555
O102 Zr4 2.101290 1_555
O103 Si3 1.628942 1_555
O103 Zr5 2.037678 1_555
O104 S0 1.500925 1_555
O104 Zr4 2.271576 1_555
O105 Si4 1.628771 1_655
O105 Zr5 2.074909 1_555
O106 Si0 1.614247 1_555
O106 Zr4 2.073319 1_555
O107 Si1 1.623180 1_555
O107 Zr5 1.989731 1_555
O108 S9 1.476747 1_555
O108 Sn6 2.315255 1_555
O109 Si15 1.667187 1_555
O109 Zr6 2.017836 1_555
O110 Si17 1.655778 1_555
O110 Sn6 2.002182 1_555
O111 Si16 1.629132 1_655
O111 Zr6 2.055817 1_555
O112 S10 1.484598 1_545
O112 Sn6 2.311863 1_555
O113 S11 1.510768 1_545
O113 Zr6 2.218638 1_555
O114 Si18 1.666030 1_545
O114 Zr7 1.995838 1_555
O115 S12 1.498261 1_545
O115 Sn7 2.220632 1_555
O116 S13 1.511138 1_555
O116 Zr7 2.194916 1_555
O117 S14 1.505620 1_555
O117 Sn7 2.172328 1_555
O118 Si20 1.636631 1_555
O118 Zr7 2.021628 1_555
O119 Si19 1.665441 1_655
O119 Sn7 1.977775 1_555
O120 S8 1.498614 1_555
O120 Sn8 2.193109 1_555
O121 Si14 1.637452 1_555
O121 Sn9 2.000647 1_555
O122 S6 1.495216 1_455
O122 Sn8 2.171863 1_555
O123 Si12 1.646520 1_555
O123 Sn9 2.013949 1_555
O124 Si13 1.677044 1_565
O124 Sn8 1.955846 1_555
O125 S7 1.476003 1_565
O125 Sn9 2.315077 1_555
O126 Si10 1.666909 1_565
O126 Sn10 2.005911 1_555
O127 S4 1.491941 1_565
O127 Sn11 2.220312 1_555
O128 S5 1.499620 1_555
O128 Sn10 2.262724 1_555
O129 Si11 1.664917 1_555
O129 Sn11 1.973128 1_555
O130 S3 1.483096 1_455
O130 Sn10 2.305884 1_555
O131 S2 1.501105 1_555
O131 Sn11 2.167008 1_555
O132 Si0 1.630948 1_565
O132 Zr8 2.028373 1_555
O133 Si1 1.673585 1_565
O133 Zr9 1.978350 1_555
O134 Si2 1.617545 1_555
O134 Zr8 2.034230 1_555
O135 Si3 1.622004 1_555
O135 Zr9 2.018273 1_555
O136 Si4 1.621684 1_555
O136 Zr8 2.059792 1_555
O137 S0 1.516708 1_555
O137 Zr9 2.158770 1_555
O138 Si5 1.667011 1_555
O138 Zr10 2.017701 1_555
O139 Si6 1.619139 1_555
O139 Zr11 2.061429 1_555
O140 S1 1.489773 1_555
O140 Zr10 2.229531 1_555
O141 Si7 1.621407 1_555
O141 Zr11 2.086117 1_555
O142 Si8 1.621699 1_555
O142 Zr10 2.034754 1_555
O143 Si9 1.607574 1_555
O143 Zr11 2.077991 1_555
