# generated using pymatgen
data_Ho5Mg(MoO6)2
_symmetry_space_group_name_H-M   'P 1'
_cell_length_a   6.10143200
_cell_length_b   6.91417161
_cell_length_c   7.24272295
_cell_angle_alpha   104.82012620
_cell_angle_beta   90.00000000
_cell_angle_gamma   116.18215603
_symmetry_Int_Tables_number   1
_chemical_formula_structural   Ho5Mg(MoO6)2
_chemical_formula_sum   'Ho5 Mg1 Mo2 O12'
_cell_volume   262.81993178
_cell_formula_units_Z   1
loop_
 _symmetry_equiv_pos_site_id
 _symmetry_equiv_pos_as_xyz
  1  'x, y, z'
loop_
 _atom_site_type_symbol
 _atom_site_label
 _atom_site_symmetry_multiplicity
 _atom_site_fract_x
 _atom_site_fract_y
 _atom_site_fract_z
 _atom_site_occupancy
  Ho  Ho0  1  0.28979400  0.57958900  0.64221800  1
  Ho  Ho1  1  0.71020600  0.42041100  0.35778200  1
  Ho  Ho2  1  0.29784000  0.59567900  0.14220400  1
  Ho  Ho3  1  0.70216000  0.40432100  0.85779600  1
  Ho  Ho4  1  0.00000000  0.00000000  0.50000000  1
  Mg  Mg0  1  0.50000000  0.00000000  0.50000000  1
  Mo  Mo0  1  0.75480000  0.00000000  0.00000000  1
  Mo  Mo1  1  0.24520000  0.00000000  0.00000000  1
  O  O0  1  0.90267000  0.35099000  0.10290700  1
  O  O1  1  0.44832100  0.35099000  0.10290700  1
  O  O2  1  0.09733000  0.64901000  0.89709300  1
  O  O3  1  0.55167900  0.64901000  0.89709300  1
  O  O4  1  0.12703300  0.72091200  0.44092300  1
  O  O5  1  0.59388000  0.72091200  0.44092300  1
  O  O6  1  0.87296700  0.27908800  0.55907700  1
  O  O7  1  0.40612000  0.27908800  0.55907700  1
  O  O8  1  0.99095100  0.98190100  0.18965000  1
  O  O9  1  0.00904900  0.01809900  0.81035000  1
  O  O10  1  0.49540300  0.99080700  0.20968800  1
  O  O11  1  0.50459700  0.00919300  0.79031200  1
loop_
_geom_bond_atom_site_label_1
_geom_bond_atom_site_label_2
_geom_bond_distance
_geom_bond_site_symmetry_2
Ho0 O2 2.249706 1_555
Ho0 O3 2.249706 1_555
Ho0 O4 2.377310 1_555
Ho0 O5 2.377317 1_555
Ho0 O7 2.417549 1_555
Ho0 O6 2.417549 1_455
Ho0 O11 2.574092 1_565
Ho1 O0 2.249706 1_555
Ho1 O1 2.249706 1_555
Ho1 O6 2.377310 1_555
Ho1 O7 2.377317 1_555
Ho1 O5 2.417549 1_555
Ho1 O4 2.417549 1_655
Ho1 O10 2.574092 1_545
Ho2 O1 2.216007 1_555
Ho2 O0 2.216008 1_455
Ho2 O3 2.348871 1_554
Ho2 O2 2.348878 1_554
Ho2 O10 2.359338 1_555
Ho2 O4 2.520858 1_555
Ho2 O5 2.520858 1_555
Ho3 O3 2.216007 1_555
Ho3 O2 2.216008 1_655
Ho3 O1 2.348871 1_556
Ho3 O0 2.348878 1_556
Ho3 O11 2.359338 1_555
Ho3 O6 2.520858 1_555
Ho3 O7 2.520858 1_555
Ho4 O8 2.218383 1_445
Ho4 O9 2.218383 1_555
Ho4 O5 2.324837 1_445
Ho4 O7 2.324837 1_555
Ho4 O4 2.324841 1_545
Ho4 O6 2.324841 1_455
Mg0 O11 2.087107 1_555
Mg0 O10 2.087107 1_545
Mg0 O6 2.188097 1_555
Mg0 O4 2.188097 1_545
Mg0 O7 2.188101 1_555
Mg0 O5 2.188101 1_545
Mo0 O9 2.055600 1_654
Mo0 O8 2.055605 1_545
Mo0 O0 2.097962 1_555
Mo0 O3 2.097963 1_544
Mo0 O11 2.185414 1_554
Mo0 O10 2.185418 1_545
Mo1 O8 2.055600 1_445
Mo1 O9 2.055605 1_554
Mo1 O2 2.097962 1_544
Mo1 O1 2.097963 1_555
Mo1 O10 2.185414 1_545
Mo1 O11 2.185418 1_554
