# generated using pymatgen
data_Er3SbO7
_symmetry_space_group_name_H-M   'P 1'
_cell_length_a   6.36166974
_cell_length_b   6.36166974
_cell_length_c   7.38068486
_cell_angle_alpha   90.00000000
_cell_angle_beta   90.00000000
_cell_angle_gamma   109.34724468
_symmetry_Int_Tables_number   1
_chemical_formula_structural   Er3SbO7
_chemical_formula_sum   'Er6 Sb2 O14'
_cell_volume   281.83422957
_cell_formula_units_Z   2
loop_
 _symmetry_equiv_pos_site_id
 _symmetry_equiv_pos_as_xyz
  1  'x, y, z'
loop_
 _atom_site_type_symbol
 _atom_site_label
 _atom_site_symmetry_multiplicity
 _atom_site_fract_x
 _atom_site_fract_y
 _atom_site_fract_z
 _atom_site_occupancy
  Er  Er0  1  0.99943389  0.46809632  0.74889064  1
  Er  Er1  1  0.00056611  0.53190368  0.24889064  1
  Er  Er2  1  0.53190368  0.00056611  0.75110936  1
  Er  Er3  1  0.46809632  0.99943389  0.25110936  1
  Er  Er4  1  0.50541410  0.50541410  0.50000000  1
  Er  Er5  1  0.49458590  0.49458590  -0.00000000  1
  Sb  Sb0  1  -0.00004501  -0.00004501  0.50000000  1
  Sb  Sb1  1  0.00004501  0.00004501  -0.00000000  1
  O  O0  1  0.63760234  0.36239766  0.75000000  1
  O  O1  1  0.36239766  0.63760234  0.25000000  1
  O  O2  1  0.92892403  0.07107597  0.75000000  1
  O  O3  1  0.07107597  0.92892403  0.25000000  1
  O  O4  1  0.92504580  0.67586904  0.53010265  1
  O  O5  1  0.07495420  0.32413096  0.03010265  1
  O  O6  1  0.32413096  0.07495420  0.96989735  1
  O  O7  1  0.67586904  0.92504580  0.46989735  1
  O  O8  1  0.36984536  0.63015464  0.75000000  1
  O  O9  1  0.63015464  0.36984536  0.25000000  1
  O  O10  1  0.92984319  0.67805312  0.96804416  1
  O  O11  1  0.07015681  0.32194688  0.46804416  1
  O  O12  1  0.32194688  0.07015681  0.53195584  1
  O  O13  1  0.67805312  0.92984319  0.03195584  1
loop_
_geom_bond_atom_site_label_1
_geom_bond_atom_site_label_2
_geom_bond_distance
_geom_bond_site_symmetry_2
Er0 O0 2.173749 1_555
Er0 O10 2.233415 1_555
Er0 O4 2.234526 1_555
Er0 O8 2.237422 1_655
Er0 O11 2.375015 1_655
Er0 O5 2.380970 1_656
Er0 O2 2.414504 1_555
Er1 O1 2.173749 1_555
Er1 O11 2.233415 1_555
Er1 O5 2.234526 1_555
Er1 O9 2.237422 1_455
Er1 O10 2.375015 1_454
Er1 O4 2.380970 1_455
Er1 O3 2.414504 1_555
Er2 O0 2.173749 1_555
Er2 O12 2.233415 1_555
Er2 O6 2.234526 1_555
Er2 O8 2.237422 1_545
Er2 O13 2.375015 1_546
Er2 O7 2.380970 1_545
Er2 O2 2.414504 1_555
Er3 O1 2.173749 1_555
Er3 O13 2.233415 1_555
Er3 O7 2.234526 1_555
Er3 O9 2.237422 1_565
Er3 O12 2.375015 1_565
Er3 O6 2.380970 1_564
Er3 O3 2.414504 1_555
Er4 O8 2.287285 1_555
Er4 O9 2.287285 1_555
Er4 O0 2.333786 1_555
Er4 O1 2.333786 1_555
Er4 O7 2.536478 1_555
Er4 O4 2.536478 1_555
Er4 O12 2.635088 1_555
Er4 O11 2.635088 1_555
Er5 O8 2.287285 1_554
Er5 O9 2.287285 1_555
Er5 O0 2.333786 1_554
Er5 O1 2.333786 1_555
Er5 O5 2.536478 1_555
Er5 O6 2.536478 1_554
Er5 O13 2.635088 1_555
Er5 O10 2.635088 1_554
O2 Sb1 1.987215 1_656
O2 Sb0 1.987215 1_655
O3 Sb0 1.987215 1_565
O3 Sb1 1.987215 1_565
O4 Sb0 1.968803 1_665
O5 Sb1 1.968803 1_555
O6 Sb1 1.968803 1_556
O7 Sb0 1.968803 1_665
O10 Sb1 1.960842 1_666
O11 Sb0 1.960842 1_555
O12 Sb0 1.960842 1_555
O13 Sb1 1.960842 1_665
