# generated using pymatgen
data_Na2CaNb(PO4)3
_symmetry_space_group_name_H-M   'P 1'
_cell_length_a   9.13137320
_cell_length_b   9.11904238
_cell_length_c   22.66850133
_cell_angle_alpha   89.99999999
_cell_angle_beta   90.03361286
_cell_angle_gamma   119.95534216
_symmetry_Int_Tables_number   1
_chemical_formula_structural   Na2CaNb(PO4)3
_chemical_formula_sum   'Na12 Ca6 Nb6 P18 O72'
_cell_volume   1635.43740150
_cell_formula_units_Z   6
loop_
 _symmetry_equiv_pos_site_id
 _symmetry_equiv_pos_as_xyz
  1  'x, y, z'
loop_
 _atom_site_type_symbol
 _atom_site_label
 _atom_site_symmetry_multiplicity
 _atom_site_fract_x
 _atom_site_fract_y
 _atom_site_fract_z
 _atom_site_occupancy
  Na  Na0  1  0.98261526  0.63910692  0.24625967  1
  Na  Na1  1  0.98261526  0.34350834  0.74625967  1
  Na  Na2  1  0.64928226  0.97243992  0.57959267  1
  Na  Na3  1  0.64928226  0.67684134  0.07959267  1
  Na  Na4  1  0.31594826  0.30577392  0.91292667  1
  Na  Na5  1  0.31594826  0.01017534  0.41292667  1
  Na  Na6  1  0.99484662  0.00122855  0.49228084  1
  Na  Na7  1  0.99484662  0.99361807  0.99228084  1
  Na  Na8  1  0.66151362  0.33456155  0.82561384  1
  Na  Na9  1  0.66151362  0.32695107  0.32561384  1
  Na  Na10  1  0.32817962  0.66789555  0.15894784  1
  Na  Na11  1  0.32817962  0.66028507  0.65894784  1
  Ca  Ca0  1  0.99157591  0.00559845  0.35324445  1
  Ca  Ca1  1  0.99157591  0.98597746  0.85324445  1
  Ca  Ca2  1  0.65824291  0.33893145  0.68657745  1
  Ca  Ca3  1  0.65824291  0.31931046  0.18657745  1
  Ca  Ca4  1  0.32490891  0.67226545  0.01991145  1
  Ca  Ca5  1  0.32490891  0.65264446  0.51991145  1
  Nb  Nb0  1  0.00532695  0.99510913  0.64878772  1
  Nb  Nb1  1  0.00532695  0.01021783  0.14878772  1
  Nb  Nb2  1  0.67199395  0.32844213  0.98212072  1
  Nb  Nb3  1  0.67199395  0.34355083  0.48212072  1
  Nb  Nb4  1  0.33865995  0.66177613  0.31545472  1
  Nb  Nb5  1  0.33865995  0.67688483  0.81545472  1
  P  P0  1  0.28856851  0.98439958  0.25476402  1
  P  P1  1  0.70051482  0.71326739  0.24947771  1
  P  P2  1  0.01705077  0.30886222  0.25124910  1
  P  P3  1  0.28856851  0.30416893  0.75476402  1
  P  P4  1  0.01705077  0.70818855  0.75124910  1
  P  P5  1  0.70051482  0.98724743  0.74947771  1
  P  P6  1  0.95523551  0.31773258  0.58809702  1
  P  P7  1  0.36718182  0.04660039  0.58281071  1
  P  P8  1  0.68371777  0.64219522  0.58458210  1
  P  P9  1  0.95523551  0.63750193  0.08809702  1
  P  P10  1  0.68371777  0.04152155  0.08458210  1
  P  P11  1  0.36718182  0.32058043  0.08281071  1
  P  P12  1  0.62190151  0.65106658  0.92143102  1
  P  P13  1  0.03384782  0.37993439  0.91614471  1
  P  P14  1  0.35038377  0.97552922  0.91791610  1
  P  P15  1  0.62190151  0.97083593  0.42143102  1
  P  P16  1  0.35038377  0.37485555  0.41791610  1
  P  P17  1  0.03384782  0.65391443  0.41614471  1
  O  O0  1  0.21106780  0.99648959  0.31183932  1
  O  O1  1  0.81043666  0.79354317  0.30227177  1
  O  O2  1  0.99259471  0.20955973  0.30610447  1
  O  O3  1  0.21106780  0.21457821  0.81183932  1
  O  O4  1  0.99259471  0.78303498  0.80610447  1
  O  O5  1  0.81043666  0.01689348  0.80227177  1
  O  O6  1  0.79383898  0.96303356  0.69231265  1
  O  O7  1  0.16237965  0.19175530  0.70055506  1
  O  O8  1  0.02937936  0.82514299  0.69510999  1
  O  O9  1  0.79383898  0.83080542  0.19231265  1
  O  O10  1  0.02937936  0.20423637  0.19510999  1
  O  O11  1  0.16237965  0.97062435  0.20055506  1
  O  O12  1  0.87773480  0.32982259  0.64517232  1
  O  O13  1  0.47710366  0.12687617  0.63560477  1
  O  O14  1  0.65926171  0.54289273  0.63943747  1
  O  O15  1  0.87773480  0.54791121  0.14517232  1
  O  O16  1  0.65926171  0.11636798  0.13943747  1
  O  O17  1  0.47710366  0.35022648  0.13560477  1
  O  O18  1  0.46050598  0.29636656  0.02564565  1
  O  O19  1  0.82904665  0.52508830  0.03388806  1
  O  O20  1  0.69604636  0.15847599  0.02844299  1
  O  O21  1  0.46050598  0.16413842  0.52564565  1
  O  O22  1  0.69604636  0.53756937  0.52844299  1
  O  O23  1  0.82904665  0.30395735  0.53388806  1
  O  O24  1  0.54440080  0.66315659  0.97850632  1
  O  O25  1  0.14376966  0.46021017  0.96893877  1
  O  O26  1  0.32592771  0.87622673  0.97277147  1
  O  O27  1  0.54440080  0.88124521  0.47850632  1
  O  O28  1  0.32592771  0.44970198  0.47277147  1
  O  O29  1  0.14376966  0.68356048  0.46893877  1
  O  O30  1  0.12717198  0.62970056  0.35897965  1
  O  O31  1  0.49571265  0.85842230  0.36722206  1
  O  O32  1  0.36271236  0.49180999  0.36177699  1
  O  O33  1  0.12717198  0.49747242  0.85897965  1
  O  O34  1  0.36271236  0.87090337  0.86177699  1
  O  O35  1  0.49571265  0.63729135  0.86722206  1
  O  O36  1  0.00485623  0.80248083  0.40844519  1
  O  O37  1  0.79995401  0.00569269  0.41377115  1
  O  O38  1  0.21296179  0.19211057  0.40985050  1
  O  O39  1  0.00485623  0.20237540  0.90844519  1
  O  O40  1  0.21296179  0.02085123  0.90985050  1
  O  O41  1  0.79995401  0.79426132  0.91377115  1
  O  O42  1  0.95026463  0.14046979  0.58661618  1
  O  O43  1  0.19169826  0.04192719  0.59012876  1
  O  O44  1  0.86006906  0.81386243  0.58693146  1
  O  O45  1  0.95026463  0.80979484  0.08661618  1
  O  O46  1  0.86006906  0.04620663  0.08693146  1
  O  O47  1  0.19169826  0.14977107  0.09012876  1
  O  O48  1  0.67152323  0.13581383  0.74177819  1
  O  O49  1  0.46662101  0.33902569  0.74710415  1
  O  O50  1  0.87962879  0.52544357  0.74318350  1
  O  O51  1  0.67152323  0.53570840  0.24177819  1
  O  O52  1  0.87962879  0.35418423  0.24318350  1
  O  O53  1  0.46662101  0.12759432  0.24710415  1
  O  O54  1  0.61693163  0.47380279  0.91994918  1
  O  O55  1  0.85836526  0.37526019  0.92346176  1
  O  O56  1  0.52673606  0.14719543  0.92026446  1
  O  O57  1  0.61693163  0.14312784  0.41994918  1
  O  O58  1  0.52673606  0.37953963  0.42026446  1
  O  O59  1  0.85836526  0.48310407  0.42346176  1
  O  O60  1  0.33818923  0.46914783  0.07511219  1
  O  O61  1  0.13328701  0.67235969  0.08043815  1
  O  O62  1  0.54629479  0.85877757  0.07651750  1
  O  O63  1  0.33818923  0.86904240  0.57511219  1
  O  O64  1  0.54629479  0.68751823  0.57651750  1
  O  O65  1  0.13328701  0.46092832  0.58043815  1
  O  O66  1  0.28359763  0.80713679  0.25328318  1
  O  O67  1  0.52503126  0.70859419  0.25679576  1
  O  O68  1  0.19340206  0.48052943  0.25359846  1
  O  O69  1  0.28359763  0.47646184  0.75328318  1
  O  O70  1  0.19340206  0.71287363  0.75359846  1
  O  O71  1  0.52503126  0.81643807  0.75679576  1
loop_
_geom_bond_atom_site_label_1
_geom_bond_atom_site_label_2
_geom_bond_distance
_geom_bond_site_symmetry_2
Na0 O52 2.280312 1_555
Na0 O66 2.391802 1_655
Na0 O15 2.462074 1_555
Na0 O51 2.508731 1_555
Na1 O50 2.280303 1_555
Na1 O69 2.391801 1_655
Na1 O12 2.462072 1_555
Na1 O48 2.508733 1_555
Na2 O64 2.280301 1_555
Na2 O42 2.391802 1_565
Na2 O27 2.462053 1_555
Na2 O63 2.508740 1_555
Na3 O62 2.280318 1_555
Na3 O45 2.391801 1_555
Na3 O24 2.462056 1_554
Na3 O60 2.508737 1_555
Na4 O40 2.280312 1_555
Na4 O54 2.391807 1_555
Na4 O3 2.462074 1_555
Na4 O39 2.508731 1_555
Na5 O38 2.280303 1_555
Na5 O57 2.391808 1_555
Na5 O0 2.462072 1_545
Na5 O36 2.508733 1_545
Na6 O37 2.530755 1_555
Na6 O42 2.620714 1_555
Na6 O44 2.634511 1_545
Na6 O38 2.651506 1_655
Na6 O36 2.659017 1_645
Na6 O43 2.760028 1_655
Na7 O41 2.530755 1_555
Na7 O45 2.620714 1_556
Na7 O46 2.634511 1_566
Na7 O40 2.651506 1_665
Na7 O39 2.659017 1_665
Na7 O47 2.760028 1_666
Na8 O49 2.530755 1_555
Na8 O54 2.620714 1_555
Na8 O56 2.634511 1_555
Na8 O50 2.651506 1_555
Na8 O48 2.659017 1_555
Na8 O55 2.760028 1_555
Na9 O53 2.530755 1_555
Na9 O57 2.620714 1_555
Na9 O58 2.634511 1_555
Na9 O52 2.651506 1_555
Na9 O51 2.659017 1_555
Na9 O59 2.760028 1_555
Na10 O61 2.530755 1_555
Na10 O66 2.620714 1_555
Na10 O68 2.634511 1_555
Na10 O62 2.651506 1_555
Na10 O60 2.659017 1_555
Na10 O67 2.760028 1_555
Na11 O65 2.530755 1_555
Na11 O69 2.620714 1_555
Na11 O70 2.634511 1_555
Na11 O64 2.651506 1_555
Na11 O63 2.659017 1_555
Na11 O71 2.760028 1_555
Ca0 O2 2.141040 1_555
Ca0 O1 2.148006 1_545
Ca0 O37 2.224531 1_555
Ca0 O0 2.252418 1_645
Ca0 O38 2.278004 1_655
Ca0 O36 2.288105 1_645
Ca1 O4 2.141040 1_555
Ca1 O5 2.148006 1_565
Ca1 O41 2.224531 1_555
Ca1 O3 2.252418 1_665
Ca1 O40 2.278004 1_665
Ca1 O39 2.288105 1_665
Ca2 O14 2.141040 1_555
Ca2 O13 2.148006 1_555
Ca2 O49 2.224531 1_555
Ca2 O12 2.252418 1_555
Ca2 O50 2.278004 1_555
Ca2 O48 2.288105 1_555
Ca3 O16 2.141040 1_555
Ca3 O17 2.148006 1_555
Ca3 O53 2.224531 1_555
Ca3 O15 2.252418 1_555
Ca3 O52 2.278004 1_555
Ca3 O51 2.288105 1_555
Ca4 O26 2.141040 1_554
Ca4 O25 2.148006 1_554
Ca4 O61 2.224531 1_555
Ca4 O24 2.252418 1_554
Ca4 O62 2.278004 1_555
Ca4 O60 2.288105 1_555
Ca5 O28 2.141040 1_555
Ca5 O29 2.148006 1_555
Ca5 O65 2.224531 1_555
Ca5 O27 2.252418 1_555
Ca5 O64 2.278004 1_555
Ca5 O63 2.288105 1_555
Nb0 O8 1.973022 1_555
Nb0 O7 2.019706 1_565
Nb0 O43 2.030685 1_565
Nb0 O6 2.055868 1_455
Nb0 O44 2.065362 1_455
Nb0 O42 2.158903 1_465
Nb1 O10 1.973022 1_555
Nb1 O11 2.019706 1_545
Nb1 O47 2.030685 1_555
Nb1 O9 2.055868 1_445
Nb1 O46 2.065362 1_455
Nb1 O45 2.158903 1_445
Nb2 O20 1.973022 1_556
Nb2 O19 2.019706 1_556
Nb2 O55 2.030685 1_555
Nb2 O18 2.055868 1_556
Nb2 O56 2.065362 1_555
Nb2 O54 2.158903 1_555
Nb3 O22 1.973022 1_555
Nb3 O23 2.019706 1_555
Nb3 O59 2.030685 1_555
Nb3 O21 2.055868 1_555
Nb3 O58 2.065362 1_555
Nb3 O57 2.158903 1_555
Nb4 O32 1.973022 1_555
Nb4 O31 2.019706 1_555
Nb4 O67 2.030685 1_555
Nb4 O30 2.055868 1_555
Nb4 O68 2.065362 1_555
Nb4 O66 2.158903 1_555
Nb5 O34 1.973022 1_555
Nb5 O35 2.019706 1_555
Nb5 O71 2.030685 1_555
Nb5 O33 2.055868 1_555
Nb5 O70 2.065362 1_555
Nb5 O69 2.158903 1_555
O0 P0 1.505296 1_555
O1 P1 1.496802 1_555
O2 P2 1.488126 1_655
O3 P3 1.505296 1_555
O4 P4 1.488126 1_655
O5 P5 1.496802 1_545
O6 P5 1.625850 1_555
O7 P3 1.645402 1_555
O8 P4 1.627843 1_555
O9 P1 1.625850 1_555
O10 P2 1.627843 1_555
O11 P0 1.645403 1_555
O12 P6 1.505296 1_555
O13 P7 1.496802 1_555
O14 P8 1.488126 1_555
O15 P9 1.505296 1_555
O16 P10 1.488126 1_555
O17 P11 1.496802 1_555
O18 P11 1.625850 1_555
O19 P9 1.645402 1_555
O20 P10 1.627843 1_555
O21 P7 1.625850 1_555
O22 P8 1.627843 1_555
O23 P6 1.645403 1_555
O24 P12 1.505296 1_555
O25 P13 1.496802 1_555
O26 P14 1.488126 1_555
O27 P15 1.505296 1_555
O28 P16 1.488126 1_555
O29 P17 1.496802 1_555
O30 P17 1.625850 1_555
O31 P15 1.645402 1_555
O32 P16 1.627843 1_555
O33 P13 1.625850 1_555
O34 P14 1.627843 1_555
O35 P12 1.645403 1_555
O36 P17 1.514629 1_555
O37 P15 1.502947 1_545
O38 P16 1.515441 1_555
O39 P13 1.514638 1_555
O40 P14 1.515435 1_545
O41 P12 1.502944 1_555
O42 P6 1.594640 1_555
O43 P7 1.590332 1_555
O44 P8 1.590292 1_555
O45 P9 1.594649 1_555
O46 P10 1.590288 1_555
O47 P11 1.590328 1_555
O48 P5 1.514629 1_545
O49 P3 1.502947 1_555
O50 P4 1.515441 1_655
O51 P1 1.514638 1_555
O52 P2 1.515435 1_655
O53 P0 1.502944 1_545
O54 P12 1.594654 1_555
O55 P13 1.590317 1_655
O56 P14 1.590292 1_545
O57 P15 1.594636 1_545
O58 P16 1.590301 1_555
O59 P17 1.590325 1_655
O60 P11 1.514641 1_555
O61 P9 1.502933 1_455
O62 P10 1.515435 1_565
O63 P7 1.514623 1_565
O64 P8 1.515448 1_555
O65 P6 1.502939 1_455
O66 P0 1.594640 1_555
O67 P1 1.590332 1_555
O68 P2 1.590292 1_555
O69 P3 1.594649 1_555
O70 P4 1.590288 1_555
O71 P5 1.590328 1_555
