# generated using pymatgen
data_Na14Mn2O9
_symmetry_space_group_name_H-M   'P 1'
_cell_length_a   6.60146918
_cell_length_b   6.60146009
_cell_length_c   9.24850931
_cell_angle_alpha   89.99927875
_cell_angle_beta   89.99924674
_cell_angle_gamma   120.00423104
_symmetry_Int_Tables_number   1
_chemical_formula_structural   Na14Mn2O9
_chemical_formula_sum   'Na14 Mn2 O9'
_cell_volume   349.03136421
_cell_formula_units_Z   1
loop_
 _symmetry_equiv_pos_site_id
 _symmetry_equiv_pos_as_xyz
  1  'x, y, z'
loop_
 _atom_site_type_symbol
 _atom_site_label
 _atom_site_symmetry_multiplicity
 _atom_site_fract_x
 _atom_site_fract_y
 _atom_site_fract_z
 _atom_site_occupancy
  Na  Na0  1  0.99998256  0.99999010  0.25181553  1
  Na  Na1  1  0.00000638  -0.00000940  0.74740753  1
  Na  Na2  1  0.06630743  0.37635058  0.59234383  1
  Na  Na3  1  0.62361201  0.68996321  0.59233240  1
  Na  Na4  1  0.31004597  0.93364359  0.59232441  1
  Na  Na5  1  0.93327369  0.62400761  0.40989023  1
  Na  Na6  1  0.37597537  0.30924881  0.40988667  1
  Na  Na7  1  0.69075387  0.06675339  0.40988349  1
  Na  Na8  1  0.67903688  0.63993186  0.09060575  1
  Na  Na9  1  0.36006144  0.03911548  0.09061296  1
  Na  Na10  1  0.96094328  0.32099268  0.09060609  1
  Na  Na11  1  0.32085476  0.36040675  0.90791573  1
  Na  Na12  1  0.63960150  0.96046594  0.90791790  1
  Na  Na13  1  0.03955505  0.67914460  0.90791392  1
  Mn  Mn0  1  0.33334682  0.66667475  0.26271956  1
  Mn  Mn1  1  0.66664968  0.33332542  0.73773193  1
  O  O0  1  0.33332511  0.66666412  0.03853462  1
  O  O1  1  0.66667684  0.33333945  0.95952691  1
  O  O2  1  1.00000108  1.00000253  0.99925577  1
  O  O3  1  0.94682408  0.64243079  0.66270716  1
  O  O4  1  0.35756443  0.30439679  0.66271136  1
  O  O5  1  0.69560607  0.05317600  0.66270850  1
  O  O6  1  0.05302819  0.35765726  0.33755216  1
  O  O7  1  0.64233568  0.69535632  0.33754838  1
  O  O8  1  0.30463083  0.94697039  0.33754721  1
loop_
_geom_bond_atom_site_label_1
_geom_bond_atom_site_label_2
_geom_bond_distance
_geom_bond_site_symmetry_2
Na0 O2 2.335801 1_554
Na0 O7 2.344888 1_555
Na0 O6 2.345084 1_665
Na0 O8 2.345174 1_655
Na1 O2 2.329221 1_445
Na1 O4 2.340791 1_555
Na1 O3 2.340879 1_445
Na1 O5 2.341068 1_455
Na2 O4 2.293352 1_555
Na2 O3 2.348758 1_455
Na2 O6 2.359011 1_555
Na2 O5 2.396258 1_455
Na3 O5 2.293248 1_565
Na3 O4 2.348589 1_555
Na3 O7 2.358946 1_555
Na3 O3 2.396722 1_555
Na4 O3 2.293170 1_455
Na4 O5 2.348642 1_565
Na4 O8 2.358888 1_555
Na4 O4 2.396804 1_565
Na5 O7 2.294127 1_555
Na5 O3 2.340728 1_555
Na5 O6 2.356781 1_655
Na5 O8 2.403255 1_655
Na6 O8 2.294023 1_545
Na6 O4 2.340794 1_555
Na6 O7 2.356629 1_555
Na6 O6 2.403369 1_555
Na7 O6 2.293801 1_655
Na7 O5 2.340804 1_555
Na7 O8 2.356766 1_545
Na7 O7 2.403569 1_545
Na8 O1 2.325423 1_554
Na8 O7 2.344613 1_555
Na8 O2 2.411666 1_554
Na8 O0 2.423705 1_555
Na9 O1 2.325362 1_554
Na9 O8 2.344540 1_545
Na9 O2 2.411761 1_444
Na9 O0 2.423730 1_545
Na10 O1 2.325587 1_554
Na10 O6 2.344598 1_655
Na10 O2 2.411826 1_544
Na10 O0 2.423190 1_655
Na11 O0 2.321029 1_556
Na11 O4 2.329778 1_555
Na11 O2 2.412556 1_445
Na11 O1 2.424780 1_555
Na12 O0 2.320972 1_556
Na12 O5 2.329788 1_565
Na12 O2 2.412707 1_555
Na12 O1 2.424626 1_565
Na13 O0 2.320983 1_556
Na13 O3 2.329818 1_455
Na13 O2 2.412776 1_455
Na13 O1 2.424517 1_455
Mn0 O7 2.071056 1_555
Mn0 O6 2.071067 1_555
Mn0 O8 2.071120 1_555
Mn0 O0 2.073377 1_555
Mn1 O1 2.051273 1_555
Mn1 O3 2.071592 1_555
Mn1 O4 2.071593 1_555
Mn1 O5 2.071674 1_555
