# generated using pymatgen
data_U(BH4)4
_symmetry_space_group_name_H-M   'P 1'
_cell_length_a   7.39824297
_cell_length_b   7.39824297
_cell_length_c   13.22591002
_cell_angle_alpha   90.00000000
_cell_angle_beta   90.00000000
_cell_angle_gamma   90.00000000
_symmetry_Int_Tables_number   1
_chemical_formula_structural   U(BH4)4
_chemical_formula_sum   'U4 B16 H64'
_cell_volume   723.90694638
_cell_formula_units_Z   4
loop_
 _symmetry_equiv_pos_site_id
 _symmetry_equiv_pos_as_xyz
  1  'x, y, z'
loop_
 _atom_site_type_symbol
 _atom_site_label
 _atom_site_symmetry_multiplicity
 _atom_site_fract_x
 _atom_site_fract_y
 _atom_site_fract_z
 _atom_site_occupancy
  U  U0  1  0.06997699  0.06997699  0.50000000  1
  U  U1  1  0.43002301  0.56997699  0.25000000  1
  U  U2  1  0.56997699  0.43002301  0.75000000  1
  U  U3  1  0.93002301  0.93002301  0.00000000  1
  B  B0  1  0.33946373  0.21257259  0.62663935  1
  B  B1  1  0.66053627  0.78742741  0.12663935  1
  B  B2  1  0.21257259  0.33946373  0.37336065  1
  B  B3  1  0.71257259  0.16053627  0.87663935  1
  B  B4  1  0.28742741  0.83946373  0.37663935  1
  B  B5  1  0.16053627  0.71257259  0.12336065  1
  B  B6  1  0.83946373  0.28742741  0.62336065  1
  B  B7  1  0.78742741  0.66053627  0.87336065  1
  B  B8  1  0.08274749  0.79174727  0.60497945  1
  B  B9  1  0.91725251  0.20825273  0.10497945  1
  B  B10  1  0.79174727  0.08274749  0.39502055  1
  B  B11  1  0.29174727  0.41725251  0.85497945  1
  B  B12  1  0.70825273  0.58274749  0.35497945  1
  B  B13  1  0.41725251  0.29174727  0.14502055  1
  B  B14  1  0.58274749  0.70825273  0.64502055  1
  B  B15  1  0.20825273  0.91725251  0.89502055  1
  H  H0  1  0.84306896  0.58869804  0.40390647  1
  H  H1  1  0.15693104  0.41130196  0.90390647  1
  H  H2  1  0.58869804  0.84306896  0.59609353  1
  H  H3  1  0.08869804  0.65693104  0.65390647  1
  H  H4  1  0.91130196  0.34306896  0.15390647  1
  H  H5  1  0.65693104  0.08869804  0.34609353  1
  H  H6  1  0.34306896  0.91130196  0.84609353  1
  H  H7  1  0.41130196  0.15693104  0.09609353  1
  H  H8  1  0.72350343  0.49588696  0.27484546  1
  H  H9  1  0.27649657  0.50411304  0.77484546  1
  H  H10  1  0.49588696  0.72350343  0.72515454  1
  H  H11  1  -0.00411304  0.77649657  0.52484546  1
  H  H12  1  0.00411304  0.22350343  0.02484546  1
  H  H13  1  0.77649657  -0.00411304  0.47515454  1
  H  H14  1  0.22350343  0.00411304  0.97515454  1
  H  H15  1  0.50411304  0.27649657  0.22515454  1
  H  H16  1  0.64662644  0.73328301  0.33098078  1
  H  H17  1  0.35337356  0.26671699  0.83098078  1
  H  H18  1  0.73328301  0.64662644  0.66901922  1
  H  H19  1  0.23328301  0.85337356  0.58098078  1
  H  H20  1  0.37819688  0.34660712  0.37532277  1
  H  H21  1  0.15339288  0.87819688  0.12532277  1
  H  H22  1  0.84660712  0.12180312  0.62532277  1
  H  H23  1  0.87819688  0.15339288  0.87467723  1
  H  H24  1  0.12180312  0.84660712  0.37467723  1
  H  H25  1  0.62180312  0.65339288  0.87532277  1
  H  H26  1  0.34660712  0.37819688  0.62467723  1
  H  H27  1  0.65339288  0.62180312  0.12467723  1
  H  H28  1  0.14600340  0.44802915  0.31449633  1
  H  H29  1  0.05197085  0.64600340  0.06449633  1
  H  H30  1  0.94802915  0.35399660  0.56449633  1
  H  H31  1  0.64600340  0.05197085  0.93550367  1
  H  H32  1  0.35399660  0.94802915  0.43550367  1
  H  H33  1  0.85399660  0.55197085  0.81449633  1
  H  H34  1  0.44802915  0.14600340  0.68550367  1
  H  H35  1  0.55197085  0.85399660  0.18550367  1
  H  H36  1  0.15589576  0.37282194  0.45852303  1
  H  H37  1  0.12717806  0.65589576  0.20852303  1
  H  H38  1  0.87282194  0.34410424  0.70852303  1
  H  H39  1  0.65589576  0.12717806  0.79147697  1
  H  H40  1  0.34410424  0.87282194  0.29147697  1
  H  H41  1  0.84410424  0.62717806  0.95852303  1
  H  H42  1  0.37282194  0.15589576  0.54147697  1
  H  H43  1  0.62717806  0.84410424  0.04147697  1
  H  H44  1  0.17009573  0.18672152  0.34523233  1
  H  H45  1  0.31327848  0.67009573  0.09523233  1
  H  H46  1  0.68672152  0.32990427  0.59523233  1
  H  H47  1  0.67009573  0.31327848  0.90476767  1
  H  H48  1  0.32990427  0.68672152  0.40476767  1
  H  H49  1  0.82990427  0.81327848  0.84523233  1
  H  H50  1  0.18672152  0.17009573  0.65476767  1
  H  H51  1  0.81327848  0.82990427  0.15476767  1
  H  H52  1  -0.01065517  0.07827525  0.14852169  1
  H  H53  1  0.42172475  0.48934483  0.89852169  1
  H  H54  1  0.57827525  0.51065517  0.39852169  1
  H  H55  1  0.48934483  0.42172475  0.10147831  1
  H  H56  1  0.51065517  0.57827525  0.60147831  1
  H  H57  1  0.01065517  0.92172475  0.64852169  1
  H  H58  1  0.07827525  -0.01065517  0.85147831  1
  H  H59  1  0.92172475  0.01065517  0.35147831  1
  H  H60  1  0.26671699  0.35337356  0.16901922  1
  H  H61  1  0.14662644  0.76671699  0.91901922  1
  H  H62  1  0.85337356  0.23328301  0.41901922  1
  H  H63  1  0.76671699  0.14662644  0.08098078  1
loop_
_geom_bond_atom_site_label_1
_geom_bond_atom_site_label_2
_geom_bond_distance
_geom_bond_site_symmetry_2
B0 H34 1.222206 1_555
B0 H26 1.226742 1_555
B0 H42 1.226944 1_555
B0 H50 1.230492 1_555
B1 H35 1.222206 1_555
B1 H27 1.226742 1_555
B1 H43 1.226944 1_555
B1 H51 1.230492 1_555
B2 H28 1.222206 1_555
B2 H20 1.226742 1_555
B2 H36 1.226944 1_555
B2 H44 1.230492 1_555
B3 H31 1.222206 1_555
B3 H23 1.226742 1_555
B3 H39 1.226944 1_555
B3 H47 1.230492 1_555
B4 H32 1.222206 1_555
B4 H24 1.226742 1_555
B4 H40 1.226944 1_555
B4 H48 1.230492 1_555
B5 H29 1.222206 1_555
B5 H21 1.226742 1_555
B5 H37 1.226944 1_555
B5 H45 1.230492 1_555
B6 H30 1.222206 1_555
B6 H22 1.226742 1_555
B6 H38 1.226944 1_555
B6 H46 1.230492 1_555
B7 H33 1.222206 1_555
B7 H25 1.226742 1_555
B7 H41 1.226944 1_555
B7 H49 1.230492 1_555
B8 H3 1.189746 1_555
B8 H57 1.241289 1_555
B8 H19 1.244563 1_555
B8 H11 1.244571 1_555
B9 H4 1.189746 1_555
B9 H52 1.241289 1_655
B9 H63 1.244563 1_555
B9 H12 1.244571 1_655
B10 H5 1.189746 1_555
B10 H59 1.241289 1_555
B10 H62 1.244563 1_555
B10 H13 1.244571 1_555
B11 H1 1.189746 1_555
B11 H53 1.241289 1_555
B11 H17 1.244563 1_555
B11 H9 1.244571 1_555
B12 H0 1.189746 1_555
B12 H54 1.241289 1_555
B12 H16 1.244563 1_555
B12 H8 1.244571 1_555
B13 H7 1.189746 1_555
B13 H55 1.241289 1_555
B13 H60 1.244563 1_555
B13 H15 1.244571 1_555
B14 H2 1.189746 1_555
B14 H56 1.241289 1_555
B14 H18 1.244563 1_555
B14 H10 1.244571 1_555
B15 H6 1.189746 1_555
B15 H58 1.241289 1_565
B15 H61 1.244563 1_555
B15 H14 1.244571 1_565
H8 U1 2.263341 1_555
H9 U2 2.263341 1_555
H10 U2 2.263341 1_555
H11 U0 2.263341 1_565
H12 U3 2.263341 1_445
H13 U0 2.263341 1_655
H14 U3 2.263341 1_446
H15 U1 2.263341 1_555
H16 U1 2.274816 1_555
H17 U2 2.274816 1_555
H18 U2 2.274816 1_555
H19 U0 2.274816 1_565
H20 U1 2.371761 1_555
H21 U3 2.371761 1_455
H22 U0 2.371761 1_655
H23 U3 2.371761 1_546
H24 U0 2.371761 1_565
H25 U2 2.371761 1_555
H26 U2 2.371761 1_555
H27 U1 2.371761 1_555
H28 U1 2.440665 1_555
H29 U3 2.440665 1_455
H30 U0 2.440665 1_655
H31 U3 2.440665 1_546
H32 U0 2.440665 1_565
H33 U2 2.440665 1_555
H34 U2 2.440665 1_555
H35 U1 2.440665 1_555
H36 U0 2.392678 1_555
H37 U1 2.392678 1_555
H38 U2 2.392678 1_555
H39 U2 2.392678 1_555
H40 U1 2.392678 1_555
H41 U3 2.392678 1_556
H42 U0 2.392678 1_555
H43 U3 2.392678 1_555
H44 U0 2.341923 1_555
H45 U1 2.341923 1_555
H46 U2 2.341923 1_555
H47 U2 2.341923 1_555
H48 U1 2.341923 1_555
H49 U3 2.341923 1_556
H50 U0 2.341923 1_555
H51 U3 2.341923 1_555
H52 U3 2.292206 1_445
H53 U2 2.292206 1_555
H54 U1 2.292206 1_555
H55 U1 2.292206 1_555
H56 U2 2.292206 1_555
H57 U0 2.292206 1_565
H58 U3 2.292206 1_446
H59 U0 2.292206 1_655
H60 U1 2.274816 1_555
H61 U3 2.274816 1_456
H62 U0 2.274816 1_655
H63 U3 2.274816 1_545
