# generated using pymatgen
data_LiCr(PO3)4
_symmetry_space_group_name_H-M   'P 1'
_cell_length_a   13.62579400
_cell_length_b   5.20437300
_cell_length_c   7.37091436
_cell_angle_alpha   81.68951429
_cell_angle_beta   90.00000000
_cell_angle_gamma   90.00000000
_symmetry_Int_Tables_number   1
_chemical_formula_structural   LiCr(PO3)4
_chemical_formula_sum   'Li2 Cr2 P8 O24'
_cell_volume   517.21023966
_cell_formula_units_Z   2
loop_
 _symmetry_equiv_pos_site_id
 _symmetry_equiv_pos_as_xyz
  1  'x, y, z'
loop_
 _atom_site_type_symbol
 _atom_site_label
 _atom_site_symmetry_multiplicity
 _atom_site_fract_x
 _atom_site_fract_y
 _atom_site_fract_z
 _atom_site_occupancy
  Li  Li0  1  0.50966200  0.63125600  0.89153600  1
  Li  Li1  1  0.00966200  0.36874400  0.10846400  1
  Cr  Cr0  1  0.23436500  0.49379400  0.50145900  1
  Cr  Cr1  1  0.73436500  0.50620600  0.49854100  1
  P  P0  1  0.17679900  0.14177900  0.89274000  1
  P  P1  1  0.59733000  0.02503000  0.44483200  1
  P  P2  1  0.87310500  0.98913900  0.55556800  1
  P  P3  1  0.09733000  0.97497000  0.55516800  1
  P  P4  1  0.67679900  0.85822100  0.10726000  1
  P  P5  1  0.31968400  0.77899100  0.11683100  1
  P  P6  1  0.81968400  0.22100900  0.88316900  1
  P  P7  1  0.37310500  0.01086100  0.44443200  1
  O  O0  1  0.10909800  0.70452800  0.50877300  1
  O  O1  1  0.36106300  0.00739000  0.22910300  1
  O  O2  1  0.86106300  0.99261000  0.77089700  1
  O  O3  1  0.26803700  0.94973800  0.94561400  1
  O  O4  1  0.10965500  0.96838500  0.77195700  1
  O  O5  1  0.48601200  0.93430900  0.48464400  1
  O  O6  1  0.61880800  0.81607200  0.94432800  1
  O  O7  1  0.65708500  0.81084400  0.55081800  1
  O  O8  1  0.31610000  0.79426000  0.55537100  1
  O  O9  1  0.85835400  0.71770500  0.51259700  1
  O  O10  1  0.21802200  0.37308700  0.76913700  1
  O  O11  1  0.71802200  0.62691300  0.23086300  1
  O  O12  1  0.24258000  0.62571600  0.23373700  1
  O  O13  1  0.40339300  0.64188100  0.04499700  1
  O  O14  1  0.60965500  0.03161500  0.22804300  1
  O  O15  1  0.74258000  0.37428400  0.76626300  1
  O  O16  1  0.76803700  0.05026200  0.05438600  1
  O  O17  1  0.60909800  0.29547200  0.49122700  1
  O  O18  1  0.35835400  0.28229500  0.48740300  1
  O  O19  1  0.81610000  0.20574000  0.44462900  1
  O  O20  1  0.15708500  0.18915600  0.44918200  1
  O  O21  1  0.11880800  0.18392800  0.05567200  1
  O  O22  1  0.98601200  0.06569100  0.51535600  1
  O  O23  1  0.90339300  0.35811900  0.95500300  1
loop_
_geom_bond_atom_site_label_1
_geom_bond_atom_site_label_2
_geom_bond_distance
_geom_bond_site_symmetry_2
Li0 O6 1.842970 1_555
Li0 O13 1.843187 1_556
Li1 O21 1.842970 1_555
Li1 O23 1.843187 1_454
Cr0 O20 1.986842 1_555
Cr0 O10 1.994689 1_555
Cr0 O12 1.996595 1_555
Cr0 O8 2.005780 1_555
Cr0 O18 2.027195 1_555
Cr0 O0 2.033768 1_555
Cr1 O7 1.986842 1_555
Cr1 O11 1.994689 1_555
Cr1 O15 1.996595 1_555
Cr1 O19 2.005780 1_555
Cr1 O9 2.027195 1_555
Cr1 O17 2.033768 1_555
O0 P3 1.504260 1_555
O1 P7 1.598328 1_555
O1 P5 1.643178 1_545
O2 P2 1.598328 1_555
O2 P6 1.643178 1_565
O3 P5 1.597943 1_556
O3 P0 1.607395 1_565
O4 P3 1.602167 1_555
O4 P0 1.635911 1_565
O5 P1 1.603014 1_565
O5 P7 1.606009 1_565
O6 P4 1.480185 1_556
O7 P1 1.504681 1_565
O8 P7 1.508730 1_565
O9 P2 1.505199 1_555
O10 P0 1.509194 1_555
O11 P4 1.509194 1_555
O12 P5 1.511265 1_555
O13 P5 1.483148 1_555
O14 P1 1.602167 1_555
O14 P4 1.635911 1_545
O15 P6 1.511265 1_555
O16 P6 1.597943 1_554
O16 P4 1.607395 1_545
O17 P1 1.504260 1_555
O18 P7 1.505199 1_555
O19 P2 1.508730 1_545
O20 P3 1.504681 1_545
O21 P0 1.480185 1_554
O22 P3 1.603014 1_645
O22 P2 1.606009 1_545
O23 P6 1.483148 1_555
