# generated using pymatgen
data_Na14Zr3Zn5(PO4)12
_symmetry_space_group_name_H-M   'P 1'
_cell_length_a   18.22529762
_cell_length_b   9.10339917
_cell_length_c   22.29631161
_cell_angle_alpha   90.09763528
_cell_angle_beta   89.90722526
_cell_angle_gamma   120.22509961
_symmetry_Int_Tables_number   1
_chemical_formula_structural   Na14Zr3Zn5(PO4)12
_chemical_formula_sum   'Na42 Zr9 Zn15 P36 O144'
_cell_volume   3196.32924101
_cell_formula_units_Z   3
loop_
 _symmetry_equiv_pos_site_id
 _symmetry_equiv_pos_as_xyz
  1  'x, y, z'
loop_
 _atom_site_type_symbol
 _atom_site_label
 _atom_site_symmetry_multiplicity
 _atom_site_fract_x
 _atom_site_fract_y
 _atom_site_fract_z
 _atom_site_occupancy
  Na  Na0  1  0.18629934  0.35933696  0.24648718  1
  Na  Na1  1  0.68690096  0.36062428  0.24693291  1
  Na  Na2  1  0.99179879  0.62542487  0.24742142  1
  Na  Na3  1  0.49182159  0.62457998  0.24639440  1
  Na  Na4  1  0.31976631  0.62558389  0.74642678  1
  Na  Na5  1  0.82044702  0.62790425  0.74661380  1
  Na  Na6  1  0.18711348  0.01719077  0.74646381  1
  Na  Na7  1  0.68765069  0.01590090  0.74596909  1
  Na  Na8  1  0.15588820  0.34821367  0.57764247  1
  Na  Na9  1  0.65623166  0.34888596  0.57749613  1
  Na  Na10  1  0.01751811  0.68696361  0.57800350  1
  Na  Na11  1  0.51752082  0.68645714  0.57785294  1
  Na  Na12  1  0.32541747  0.96408042  0.57748176  1
  Na  Na13  1  0.82571269  0.96386969  0.57783825  1
  Na  Na14  1  0.15660460  0.96717930  0.07820916  1
  Na  Na15  1  0.65354387  0.95948996  0.08063139  1
  Na  Na16  1  0.32551848  0.68630104  0.07799861  1
  Na  Na17  1  0.02121895  0.34955645  0.08032256  1
  Na  Na18  1  0.51754267  0.34964421  0.07734751  1
  Na  Na19  1  0.47944134  0.66473237  0.91874064  1
  Na  Na20  1  0.98845724  0.68452109  0.91335596  1
  Na  Na21  1  0.35243438  0.03893320  0.91834384  1
  Na  Na22  1  0.16769297  0.29174486  0.91874255  1
  Na  Na23  1  0.65964605  0.29731194  0.91394161  1
  Na  Na24  1  0.48082198  0.29527661  0.41823816  1
  Na  Na25  1  0.98083041  0.29501902  0.41813656  1
  Na  Na26  1  0.16662491  0.03924694  0.41851474  1
  Na  Na27  1  0.66679314  0.03921267  0.41861754  1
  Na  Na28  1  0.35267312  0.66561217  0.41871957  1
  Na  Na29  1  0.85288584  0.66596035  0.41852190  1
  Na  Na30  1  0.00002034  0.00015375  0.49210416  1
  Na  Na31  1  0.49999854  0.00017616  0.49194494  1
  Na  Na32  1  0.98929959  0.99197945  0.99180724  1
  Na  Na33  1  0.49857069  0.99867380  0.99256562  1
  Na  Na34  1  0.33939157  0.33384420  0.83162006  1
  Na  Na35  1  0.84097259  0.32510065  0.82524414  1
  Na  Na36  1  0.33278195  0.32049366  0.33167182  1
  Na  Na37  1  0.83320733  0.32104843  0.33192127  1
  Na  Na38  1  0.17226677  0.67802067  0.16116713  1
  Na  Na39  1  0.67767463  0.67789926  0.15867002  1
  Na  Na40  1  0.16087542  0.65635406  0.66033162  1
  Na  Na41  1  0.66140540  0.65713953  0.66046388  1
  Zr  Zr0  1  0.99982195  0.00278930  0.65013518  1
  Zr  Zr1  1  0.49985965  0.00246947  0.64992461  1
  Zr  Zr2  1  0.99560655  0.99425075  0.14859162  1
  Zr  Zr3  1  0.49905022  0.00057243  0.14982402  1
  Zr  Zr4  1  0.83337015  0.33069560  0.98158269  1
  Zr  Zr5  1  0.16885974  0.67227792  0.31549366  1
  Zr  Zr6  1  0.66896168  0.67260900  0.31559615  1
  Zr  Zr7  1  0.16427429  0.66268784  0.81535373  1
  Zr  Zr8  1  0.66499049  0.66395803  0.81601069  1
  Zn  Zn0  1  0.99931731  0.00182740  0.34573212  1
  Zn  Zn1  1  0.49943459  0.00186474  0.34612913  1
  Zn  Zn2  1  0.99558864  0.00316844  0.84789477  1
  Zn  Zn3  1  0.49828269  0.00022022  0.84581344  1
  Zn  Zn4  1  0.33776431  0.33412175  0.67937702  1
  Zn  Zn5  1  0.83825628  0.33437554  0.67891957  1
  Zn  Zn6  1  0.33248071  0.32395724  0.17950757  1
  Zn  Zn7  1  0.83279162  0.32535868  0.18140412  1
  Zn  Zn8  1  0.33290712  0.33191808  0.98834200  1
  Zn  Zn9  1  0.33390938  0.33350370  0.48759553  1
  Zn  Zn10  1  0.83409115  0.33379598  0.48759692  1
  Zn  Zn11  1  0.16786476  0.66852502  0.01185753  1
  Zn  Zn12  1  0.67186324  0.66852087  0.01376870  1
  Zn  Zn13  1  0.16612425  0.66620769  0.51122268  1
  Zn  Zn14  1  0.66626514  0.66621488  0.51119859  1
  P  P0  1  0.14839828  0.00357227  0.25135506  1
  P  P1  1  0.64924079  0.00404957  0.25201454  1
  P  P2  1  0.35189521  0.69998298  0.25208478  1
  P  P3  1  0.85179556  0.69969497  0.25325943  1
  P  P4  1  0.99793947  0.29598060  0.25236661  1
  P  P5  1  0.49817883  0.29719292  0.25289006  1
  P  P6  1  0.14979883  0.29559101  0.75255622  1
  P  P7  1  0.65010165  0.29672038  0.75234228  1
  P  P8  1  0.99823559  0.70208306  0.75229870  1
  P  P9  1  0.49821683  0.70163198  0.75217552  1
  P  P10  1  0.35142994  0.00412122  0.75290200  1
  P  P11  1  0.85196581  0.00370076  0.75186114  1
  P  P12  1  0.48136502  0.33539933  0.58204080  1
  P  P13  1  0.98156228  0.33532720  0.58180627  1
  P  P14  1  0.18573677  0.03716870  0.58392077  1
  P  P15  1  0.68576316  0.03723254  0.58380178  1
  P  P16  1  0.33237444  0.62756490  0.58402898  1
  P  P17  1  0.83248189  0.62767153  0.58399458  1
  P  P18  1  0.48134474  0.62807866  0.08385986  1
  P  P19  1  0.98260927  0.62875600  0.08512572  1
  P  P20  1  0.33244515  0.03719719  0.08200933  1
  P  P21  1  0.83096858  0.03623053  0.08510625  1
  P  P22  1  0.18555565  0.33432640  0.08411907  1
  P  P23  1  0.68599802  0.33816786  0.08618889  1
  P  P24  1  0.31620295  0.66755743  0.91820227  1
  P  P25  1  0.81599959  0.67018080  0.91789571  1
  P  P26  1  0.01955262  0.36759327  0.92001179  1
  P  P27  1  0.51723029  0.36757371  0.92044360  1
  P  P28  1  0.16652275  0.96543241  0.91855969  1
  P  P29  1  0.66425860  0.96096684  0.91864392  1
  P  P30  1  0.31680365  0.96569602  0.42022347  1
  P  P31  1  0.81683204  0.96590599  0.42026800  1
  P  P32  1  0.16626113  0.36777346  0.41823948  1
  P  P33  1  0.66626329  0.36767749  0.41823147  1
  P  P34  1  0.01747423  0.66790605  0.41834908  1
  P  P35  1  0.51749644  0.66786274  0.41830475  1
  O  O0  1  0.10715773  0.02706106  0.30779176  1
  O  O1  1  0.60728873  0.02733937  0.30805118  1
  O  O2  1  0.40604375  0.78470083  0.30760838  1
  O  O3  1  0.90485738  0.78059373  0.30968068  1
  O  O4  1  0.48919185  0.19463701  0.30907688  1
  O  O5  1  0.98913074  0.19463772  0.30906991  1
  O  O6  1  0.10713847  0.18623234  0.80766606  1
  O  O7  1  0.60782561  0.18861186  0.80801063  1
  O  O8  1  0.48666911  0.78501200  0.80838227  1
  O  O9  1  0.98723894  0.78549312  0.80852228  1
  O  O10  1  0.40243139  0.02177811  0.80917096  1
  O  O11  1  0.90605179  0.02387341  0.80549998  1
  O  O12  1  0.39492210  0.97522938  0.69649725  1
  O  O13  1  0.89250691  0.97364716  0.69380475  1
  O  O14  1  0.09436800  0.20990116  0.69524522  1
  O  O15  1  0.59447188  0.20973953  0.69542859  1
  O  O16  1  0.01262487  0.81763178  0.69567916  1
  O  O17  1  0.51307652  0.81820509  0.69574890  1
  O  O18  1  0.39532027  0.81176843  0.19509099  1
  O  O19  1  0.89734033  0.81669595  0.19808597  1
  O  O20  1  0.01175644  0.20802743  0.19602322  1
  O  O21  1  0.51239496  0.20978905  0.19627816  1
  O  O22  1  0.09006229  0.97344232  0.19500387  1
  O  O23  1  0.59121166  0.97450984  0.19537711  1
  O  O24  1  0.43958241  0.36633827  0.63624344  1
  O  O25  1  0.93985904  0.36661068  0.63618693  1
  O  O26  1  0.23932460  0.11820755  0.64060175  1
  O  O27  1  0.73924657  0.11851156  0.64062963  1
  O  O28  1  0.31892874  0.52014725  0.64063406  1
  O  O29  1  0.81876017  0.51969850  0.64064987  1
  O  O30  1  0.44029531  0.52090571  0.14039774  1
  O  O31  1  0.94063231  0.52148885  0.14096198  1
  O  O32  1  0.31717350  0.12081816  0.13617250  1
  O  O33  1  0.81702006  0.11882745  0.13989825  1
  O  O34  1  0.24006106  0.36328840  0.14034250  1
  O  O35  1  0.73680316  0.35549927  0.14262806  1
  O  O36  1  0.22220348  0.29739857  0.02716170  1
  O  O37  1  0.72901879  0.30801562  0.02962880  1
  O  O38  1  0.42610156  0.55471722  0.02692875  1
  O  O39  1  0.92728255  0.54141206  0.02802293  1
  O  O40  1  0.35261271  0.14467253  0.02426550  1
  O  O41  1  0.84741716  0.15498719  0.02915042  1
  O  O42  1  0.22262767  0.14749220  0.52718176  1
  O  O43  1  0.72256792  0.14741362  0.52713976  1
  O  O44  1  0.35139111  0.55498437  0.52724938  1
  O  O45  1  0.85110211  0.55449631  0.52726434  1
  O  O46  1  0.42768285  0.29505109  0.52442723  1
  O  O47  1  0.92770545  0.29517163  0.52436734  1
  O  O48  1  0.27546317  0.69559070  0.97439468  1
  O  O49  1  0.77191786  0.68959469  0.97192273  1
  O  O50  1  0.07091327  0.44761924  0.97735948  1
  O  O51  1  0.57149111  0.44699875  0.97674925  1
  O  O52  1  0.15187083  0.85377153  0.97428549  1
  O  O53  1  0.65249785  0.85439609  0.97447809  1
  O  O54  1  0.27714687  0.85734963  0.47697717  1
  O  O55  1  0.77706584  0.85740959  0.47701533  1
  O  O56  1  0.15258200  0.44970906  0.47456771  1
  O  O57  1  0.65242615  0.44947533  0.47460242  1
  O  O58  1  0.07264345  0.69624629  0.47440563  1
  O  O59  1  0.57266054  0.69636341  0.47438388  1
  O  O60  1  0.06450501  0.64621521  0.36200032  1
  O  O61  1  0.56449113  0.64620994  0.36205337  1
  O  O62  1  0.25641318  0.86721284  0.36568648  1
  O  O63  1  0.75647635  0.86747571  0.36574087  1
  O  O64  1  0.17720625  0.48411719  0.36219857  1
  O  O65  1  0.67713022  0.48385035  0.36223773  1
  O  O66  1  0.06433258  0.48882547  0.86519368  1
  O  O67  1  0.56734180  0.48861420  0.86581248  1
  O  O68  1  0.17680414  0.87018762  0.86221375  1
  O  O69  1  0.67710606  0.87549229  0.86144261  1
  O  O70  1  0.25780669  0.64558440  0.86227444  1
  O  O71  1  0.76016538  0.63952584  0.85997821  1
  O  O72  1  0.00902130  0.82805063  0.41270290  1
  O  O73  1  0.50890608  0.82790295  0.41257396  1
  O  O74  1  0.40512762  0.98262606  0.41325187  1
  O  O75  1  0.90517026  0.98293299  0.41330773  1
  O  O76  1  0.08607029  0.18971740  0.41265005  1
  O  O77  1  0.58597477  0.18954049  0.41274003  1
  O  O78  1  0.01276788  0.19487902  0.91206552  1
  O  O79  1  0.50857011  0.19035054  0.91278052  1
  O  O80  1  0.08709178  0.98372028  0.91267514  1
  O  O81  1  0.58573141  0.98238917  0.91294374  1
  O  O82  1  0.40525020  0.82803018  0.91258325  1
  O  O83  1  0.90733111  0.81786089  0.91244369  1
  O  O84  1  0.49032537  0.17108689  0.59017257  1
  O  O85  1  0.99055434  0.17124858  0.58990220  1
  O  O86  1  0.09419098  0.01829568  0.58994470  1
  O  O87  1  0.59419063  0.01836980  0.58994322  1
  O  O88  1  0.41475077  0.81140909  0.59022107  1
  O  O89  1  0.91493545  0.81109102  0.59008160  1
  O  O90  1  0.49058100  0.81140910  0.08973448  1
  O  O91  1  0.99321363  0.81100286  0.08759719  1
  O  O92  1  0.41451777  0.01910333  0.08982437  1
  O  O93  1  0.91570316  0.03044513  0.08857492  1
  O  O94  1  0.09405941  0.16994710  0.09068180  1
  O  O95  1  0.59592237  0.16658693  0.08808953  1
  O  O96  1  0.33537886  0.15242804  0.74629297  1
  O  O97  1  0.83502164  0.15181910  0.74581371  1
  O  O98  1  0.23890751  0.31749230  0.74631411  1
  O  O99  1  0.73910660  0.31745841  0.74658453  1
  O  O100  1  0.41839875  0.52769129  0.74474678  1
  O  O101  1  0.91825634  0.52736907  0.74480304  1
  O  O102  1  0.34125147  0.52189943  0.24614527  1
  O  O103  1  0.84147211  0.52221815  0.24616389  1
  O  O104  1  0.42379827  0.32855131  0.24623115  1
  O  O105  1  0.92407992  0.32893818  0.24624588  1
  O  O106  1  0.23564329  0.16304649  0.24418003  1
  O  O107  1  0.73618375  0.16342266  0.24515859  1
  O  O108  1  0.32157478  0.50326781  0.91872369  1
  O  O109  1  0.82051766  0.49978071  0.92160569  1
  O  O110  1  0.42980461  0.35631668  0.91966310  1
  O  O111  1  0.93182469  0.36197057  0.92189187  1
  O  O112  1  0.24930473  0.14023375  0.91921268  1
  O  O113  1  0.74506104  0.14396792  0.92129293  1
  O  O114  1  0.32200389  0.14040526  0.42009795  1
  O  O115  1  0.82194967  0.14049440  0.42015776  1
  O  O116  1  0.24830202  0.35699249  0.41896233  1
  O  O117  1  0.74822886  0.35680919  0.41897356  1
  O  O118  1  0.42988146  0.50288426  0.41910560  1
  O  O119  1  0.92990651  0.50293788  0.41913800  1
  O  O120  1  0.17348188  0.49081768  0.07936796  1
  O  O121  1  0.66887434  0.48508359  0.07994205  1
  O  O122  1  0.07212793  0.65057626  0.07965678  1
  O  O123  1  0.57159016  0.65345971  0.07931432  1
  O  O124  1  0.25425813  0.85514805  0.07833186  1
  O  O125  1  0.75197822  0.86148325  0.07755196  1
  O  O126  1  0.17314415  0.85594652  0.57943097  1
  O  O127  1  0.67312334  0.85599208  0.57946223  1
  O  O128  1  0.25436762  0.65190716  0.57957226  1
  O  O129  1  0.75434136  0.65176301  0.57960646  1
  O  O130  1  0.07252450  0.49156141  0.57827892  1
  O  O131  1  0.57243751  0.49139304  0.57839504  1
  O  O132  1  0.15130099  0.83393152  0.25420447  1
  O  O133  1  0.65169368  0.83434663  0.25455691  1
  O  O134  1  0.26131617  0.68025667  0.25450557  1
  O  O135  1  0.76125956  0.67956472  0.25495150  1
  O  O136  1  0.08346731  0.47545081  0.25425511  1
  O  O137  1  0.58343630  0.47582228  0.25472508  1
  O  O138  1  0.15987255  0.47731268  0.75487024  1
  O  O139  1  0.65994152  0.47803589  0.75470526  1
  O  O140  1  0.08282827  0.69594323  0.75447408  1
  O  O141  1  0.58312942  0.69653412  0.75488762  1
  O  O142  1  0.26199049  0.83309952  0.75472286  1
  O  O143  1  0.76209160  0.83333003  0.75506361  1
loop_
_geom_bond_atom_site_label_1
_geom_bond_atom_site_label_2
_geom_bond_distance
_geom_bond_site_symmetry_2
Na0 O106 2.371053 1_555
Na0 O102 2.440832 1_555
Na0 O134 2.532542 1_555
Na0 O34 2.553351 1_555
Na0 O136 2.579253 1_555
Na0 O64 2.855175 1_555
Na0 O0 2.951868 1_555
Na0 O20 2.979507 1_555
Na1 O107 2.377840 1_555
Na1 O103 2.434753 1_555
Na1 O35 2.504658 1_555
Na1 O135 2.517148 1_555
Na1 O137 2.583595 1_555
Na1 O65 2.844166 1_555
Na1 O1 2.956873 1_555
Na1 O21 2.980888 1_555
Na2 O105 2.335553 1_555
Na2 O103 2.407968 1_555
Na2 O31 2.551521 1_555
Na2 O132 2.553701 1_655
Na2 O136 2.641280 1_655
Na2 O60 2.841643 1_655
Na2 O3 2.944946 1_555
Na2 O22 2.983922 1_655
Na3 O104 2.331440 1_555
Na3 O102 2.412844 1_555
Na3 O30 2.542681 1_555
Na3 O133 2.562832 1_555
Na3 O137 2.633367 1_555
Na3 O61 2.861763 1_555
Na3 O2 2.951626 1_555
Na3 O23 2.986463 1_555
Na4 O100 2.374753 1_555
Na4 O98 2.424183 1_555
Na4 O138 2.527516 1_555
Na4 O28 2.542250 1_555
Na4 O142 2.590861 1_555
Na4 O70 2.859376 1_555
Na4 O8 2.971443 1_555
Na4 O12 2.977319 1_555
Na5 O101 2.378888 1_555
Na5 O99 2.442646 1_555
Na5 O139 2.536154 1_555
Na5 O29 2.552443 1_555
Na5 O143 2.581544 1_555
Na5 O71 2.777436 1_555
Na5 O9 2.969887 1_555
Na5 O13 2.977160 1_555
Na6 O96 2.338400 1_555
Na6 O98 2.401345 1_555
Na6 O26 2.537996 1_555
Na6 O140 2.569296 1_545
Na6 O142 2.647464 1_545
Na6 O68 2.871188 1_545
Na6 O6 2.932456 1_555
Na6 O16 2.980549 1_545
Na7 O97 2.323580 1_555
Na7 O99 2.413243 1_555
Na7 O27 2.527664 1_555
Na7 O141 2.558453 1_545
Na7 O143 2.629887 1_545
Na7 O69 2.839323 1_545
Na7 O7 2.964969 1_555
Na7 O17 2.975804 1_545
Na8 O128 2.422924 1_555
Na8 O130 2.451010 1_555
Na8 O56 2.490526 1_555
Na8 O85 2.619398 1_455
Na8 O86 2.638484 1_555
Na8 O14 2.880685 1_555
Na8 O42 2.882775 1_555
Na8 O28 2.928392 1_555
Na9 O129 2.416166 1_555
Na9 O131 2.451555 1_555
Na9 O57 2.485572 1_555
Na9 O84 2.629417 1_555
Na9 O87 2.642938 1_555
Na9 O43 2.882220 1_555
Na9 O15 2.889954 1_555
Na9 O29 2.922943 1_555
Na10 O130 2.442281 1_555
Na10 O126 2.453467 1_555
Na10 O58 2.501919 1_555
Na10 O86 2.622267 1_565
Na10 O89 2.639903 1_455
Na10 O25 2.835887 1_455
Na10 O45 2.873522 1_455
Na10 O16 2.898673 1_555
Na11 O131 2.438167 1_555
Na11 O127 2.453397 1_555
Na11 O59 2.498428 1_555
Na11 O87 2.627267 1_565
Na11 O88 2.649600 1_555
Na11 O24 2.836258 1_555
Na11 O44 2.868946 1_555
Na11 O17 2.905367 1_555
Na12 O54 2.424442 1_555
Na12 O126 2.433532 1_555
Na12 O128 2.459741 1_555
Na12 O88 2.635172 1_555
Na12 O84 2.638743 1_565
Na12 O46 2.881365 1_565
Na12 O12 2.921830 1_555
Na12 O26 2.934934 1_565
Na13 O55 2.431597 1_555
Na13 O127 2.439217 1_555
Na13 O129 2.458752 1_555
Na13 O89 2.633022 1_555
Na13 O85 2.636810 1_565
Na13 O13 2.841765 1_555
Na13 O47 2.886780 1_565
Na13 O27 2.940220 1_565
Na14 O124 2.456660 1_555
Na14 O122 2.492167 1_555
Na14 O52 2.518953 1_554
Na14 O91 2.582486 1_455
Na14 O94 2.626714 1_565
Na14 O32 2.841758 1_565
Na14 O36 2.854885 1_565
Na14 O22 2.883434 1_555
Na15 O125 2.372764 1_555
Na15 O123 2.409060 1_555
Na15 O53 2.547861 1_554
Na15 O90 2.578296 1_555
Na15 O95 2.583893 1_565
Na15 O23 2.828510 1_555
Na15 O33 2.895201 1_565
Na15 O37 2.977417 1_565
Na16 O120 2.425101 1_555
Na16 O124 2.461539 1_555
Na16 O48 2.502117 1_554
Na16 O92 2.632543 1_565
Na16 O90 2.639618 1_555
Na16 O18 2.876899 1_555
Na16 O38 2.879459 1_555
Na16 O34 2.898374 1_555
Na17 O120 2.400424 1_555
Na17 O122 2.410524 1_555
Na17 O50 2.464481 1_554
Na17 O93 2.558758 1_455
Na17 O94 2.583941 1_555
Na17 O20 2.851443 1_555
Na17 O31 2.955613 1_455
Na17 O41 2.971330 1_455
Na18 O121 2.388940 1_555
Na18 O123 2.424553 1_555
Na18 O51 2.430107 1_554
Na18 O92 2.640103 1_555
Na18 O95 2.697062 1_555
Na18 O40 2.876621 1_555
Na18 O21 2.924340 1_555
Na18 O30 2.930008 1_555
Na19 O82 2.466186 1_555
Na19 O110 2.478823 1_555
Na19 O108 2.486120 1_555
Na19 O81 2.547970 1_555
Na19 O38 2.605221 1_556
Na19 O8 2.670893 1_555
Na20 O83 2.338172 1_555
Na20 O80 2.391847 1_655
Na20 O9 2.517320 1_555
Na20 O111 2.583295 1_555
Na20 O109 2.654644 1_555
Na20 O39 2.831343 1_556
Na20 O52 2.911272 1_655
Na20 O66 2.950948 1_655
Na21 O79 2.462377 1_555
Na21 O112 2.475575 1_555
Na21 O110 2.497021 1_555
Na21 O82 2.547279 1_545
Na21 O40 2.548168 1_556
Na21 O10 2.629560 1_555
Na22 O80 2.427189 1_545
Na22 O108 2.477142 1_555
Na22 O112 2.486041 1_555
Na22 O78 2.503272 1_555
Na22 O36 2.605585 1_556
Na22 O6 2.684697 1_555
Na23 O79 2.414729 1_555
Na23 O81 2.479067 1_545
Na23 O7 2.551065 1_555
Na23 O109 2.565631 1_555
Na23 O113 2.566784 1_555
Na23 O37 2.854297 1_556
Na23 O51 2.930807 1_555
Na23 O71 2.961187 1_555
Na24 O74 2.462225 1_545
Na24 O118 2.490088 1_555
Na24 O114 2.501763 1_555
Na24 O77 2.543689 1_555
Na24 O46 2.556205 1_555
Na24 O4 2.630279 1_555
Na25 O75 2.457596 1_545
Na25 O119 2.492561 1_555
Na25 O115 2.502881 1_555
Na25 O76 2.542180 1_655
Na25 O47 2.557619 1_555
Na25 O5 2.627151 1_555
Na26 O76 2.464707 1_555
Na26 O114 2.498645 1_555
Na26 O116 2.499554 1_555
Na26 O72 2.530634 1_545
Na26 O42 2.621137 1_555
Na26 O0 2.677345 1_555
Na27 O77 2.467822 1_555
Na27 O115 2.494562 1_555
Na27 O117 2.498331 1_555
Na27 O73 2.534990 1_545
Na27 O43 2.617245 1_555
Na27 O1 2.674854 1_555
Na28 O73 2.464391 1_555
Na28 O116 2.476105 1_555
Na28 O118 2.504670 1_555
Na28 O74 2.545660 1_555
Na28 O44 2.618150 1_555
Na28 O2 2.682996 1_555
Na29 O72 2.462454 1_655
Na29 O117 2.480769 1_555
Na29 O119 2.504109 1_555
Na29 O75 2.545640 1_555
Na29 O3 2.623234 1_555
Na29 O45 2.623750 1_555
Na30 O75 2.415683 1_445
Na30 O76 2.419190 1_555
Na30 O72 2.421582 1_545
Na30 O89 2.730177 1_445
Na30 O86 2.730807 1_555
Na30 O85 2.732798 1_455
Na31 O74 2.413377 1_545
Na31 O77 2.414030 1_555
Na31 O73 2.421474 1_545
Na31 O87 2.733734 1_555
Na31 O88 2.735324 1_545
Na31 O84 2.740748 1_555
Na32 O83 2.343147 1_555
Na32 O78 2.443166 1_665
Na32 O80 2.533662 1_655
Na32 O93 2.652877 1_566
Na32 O91 2.722433 1_556
Na32 O94 2.831481 1_666
Na33 O82 2.413797 1_555
Na33 O81 2.433941 1_555
Na33 O79 2.435534 1_565
Na33 O95 2.700250 1_566
Na33 O92 2.712640 1_566
Na33 O90 2.717123 1_556
Na34 O96 2.494070 1_555
Na34 O110 2.506059 1_555
Na34 O100 2.526576 1_555
Na34 O112 2.589250 1_555
Na34 O98 2.594127 1_555
Na34 O108 2.597674 1_555
Na35 O97 2.335686 1_555
Na35 O101 2.446039 1_555
Na35 O99 2.531313 1_555
Na35 O111 2.635801 1_555
Na35 O113 2.731053 1_555
Na35 O109 2.804701 1_555
Na36 O104 2.500761 1_555
Na36 O114 2.509766 1_555
Na36 O106 2.537898 1_555
Na36 O118 2.594375 1_555
Na36 O102 2.597664 1_555
Na36 O116 2.602316 1_555
Na37 O105 2.503515 1_555
Na37 O115 2.506859 1_555
Na37 O107 2.524896 1_555
Na37 O119 2.586757 1_555
Na37 O103 2.601106 1_555
Na37 O117 2.601466 1_555
Na38 O124 2.412351 1_555
Na38 O122 2.499252 1_555
Na38 O120 2.501664 1_555
Na38 O134 2.634940 1_555
Na38 O132 2.645181 1_555
Na38 O136 2.706480 1_555
Na39 O125 2.371044 1_555
Na39 O121 2.427947 1_555
Na39 O123 2.548497 1_555
Na39 O135 2.629923 1_555
Na39 O133 2.736529 1_555
Na39 O137 2.782308 1_555
Na40 O130 2.399679 1_555
Na40 O126 2.491154 1_555
Na40 O128 2.491294 1_555
Na40 O140 2.657631 1_555
Na40 O138 2.661115 1_555
Na40 O142 2.725788 1_555
Na41 O131 2.406470 1_555
Na41 O129 2.488925 1_555
Na41 O127 2.490983 1_555
Na41 O139 2.653672 1_555
Na41 O141 2.664375 1_555
Na41 O143 2.725163 1_555
O0 P0 1.533585 1_555
O0 Zn0 2.042543 1_455
O1 P1 1.532901 1_555
O1 Zn1 2.043225 1_555
O2 P2 1.528302 1_555
O2 Zn1 2.038177 1_565
O3 P3 1.530965 1_555
O3 Zn0 2.043088 1_565
O4 P5 1.522242 1_555
O4 Zn1 2.032785 1_555
O5 P4 1.526267 1_555
O5 Zn0 2.029027 1_555
O6 P6 1.525516 1_555
O6 Zn2 2.074385 1_455
O7 P7 1.529844 1_555
O7 Zn3 2.046890 1_555
O8 P9 1.532219 1_555
O8 Zn3 2.038874 1_565
O9 P8 1.528837 1_555
O9 Zn2 2.100329 1_565
O10 P10 1.522005 1_555
O10 Zn3 2.026832 1_555
O11 P11 1.502167 1_555
O11 Zn2 1.976658 1_555
O12 P10 1.576270 1_565
O12 Zr1 2.077125 1_565
O13 P11 1.579743 1_565
O13 Zr0 2.077516 1_565
O14 P6 1.571401 1_555
O14 Zr0 2.064907 1_455
O15 P7 1.567695 1_555
O15 Zr1 2.070357 1_555
O16 P8 1.579441 1_455
O16 Zr0 2.080700 1_465
O17 P9 1.580012 1_555
O17 Zr1 2.080660 1_565
O18 P2 1.570679 1_555
O18 Zr3 2.067639 1_565
O19 P3 1.564547 1_555
O19 Zr2 2.030532 1_555
O20 P4 1.575181 1_455
O20 Zr2 2.099910 1_445
O21 P5 1.580043 1_555
O21 Zr3 2.070532 1_555
O22 P0 1.579164 1_565
O22 Zr2 2.098808 1_455
O23 P1 1.581879 1_565
O23 Zr3 2.077674 1_565
O24 P12 1.526932 1_555
O24 Zn4 1.975263 1_555
O25 P13 1.530580 1_555
O25 Zn5 1.967486 1_555
O26 P14 1.539690 1_555
O26 Zn4 2.068450 1_555
O27 P15 1.541980 1_555
O27 Zn5 2.067799 1_555
O28 P16 1.539830 1_555
O28 Zn4 2.079206 1_555
O29 P17 1.542753 1_555
O29 Zn5 2.076041 1_555
O30 P18 1.538480 1_555
O30 Zn6 2.070940 1_555
O31 P19 1.528933 1_555
O31 Zn7 2.080997 1_555
O32 P20 1.524609 1_555
O32 Zn6 1.976491 1_555
O33 P21 1.520119 1_555
O33 Zn7 1.981106 1_555
O34 P22 1.538500 1_555
O34 Zn6 2.083477 1_555
O35 P23 1.523746 1_555
O35 Zn7 2.090980 1_555
O36 P22 1.547167 1_555
O36 Zn8 2.067747 1_554
O37 P23 1.578837 1_555
O37 Zr4 2.099049 1_554
O38 P18 1.547658 1_555
O38 Zn8 2.066210 1_554
O39 P19 1.569546 1_555
O39 Zr4 2.091585 1_554
O40 P20 1.546169 1_555
O40 Zn8 2.073164 1_554
O41 P21 1.578684 1_555
O41 Zr4 2.041536 1_554
O42 P14 1.543647 1_555
O42 Zn9 2.073983 1_555
O43 P15 1.541511 1_555
O43 Zn10 2.077163 1_555
O44 P16 1.544559 1_555
O44 Zn9 2.072790 1_555
O45 P17 1.543424 1_555
O45 Zn10 2.069453 1_555
O46 P12 1.543666 1_555
O46 Zn9 2.079811 1_555
O47 P13 1.542219 1_555
O47 Zn10 2.077550 1_555
O48 P24 1.540393 1_555
O48 Zn11 2.028033 1_556
O49 P25 1.505607 1_555
O49 Zn12 1.968616 1_556
O50 P26 1.534927 1_555
O50 Zn11 2.044389 1_556
O51 P27 1.535525 1_555
O51 Zn12 2.092725 1_556
O52 P28 1.542163 1_555
O52 Zn11 2.032513 1_556
O53 P29 1.526697 1_555
O53 Zn12 2.088664 1_556
O54 P30 1.542730 1_555
O54 Zn13 2.039544 1_555
O55 P31 1.543457 1_555
O55 Zn14 2.036925 1_555
O56 P32 1.542348 1_555
O56 Zn13 2.029436 1_555
O57 P33 1.543580 1_555
O57 Zn14 2.028928 1_555
O58 P34 1.543204 1_555
O58 Zn13 2.031163 1_555
O59 P35 1.543323 1_555
O59 Zn14 2.033747 1_555
O60 P34 1.586894 1_555
O60 Zr5 2.070956 1_555
O61 P35 1.584645 1_555
O61 Zr6 2.071161 1_555
O62 P30 1.581428 1_555
O62 Zr5 2.023819 1_555
O63 P31 1.580894 1_555
O63 Zr6 2.022683 1_555
O64 P32 1.585495 1_555
O64 Zr5 2.076175 1_555
O65 P33 1.584024 1_555
O65 Zr6 2.078578 1_555
O66 P26 1.572410 1_555
O66 Zr7 2.038287 1_555
O67 P27 1.587369 1_555
O67 Zr8 2.021814 1_555
O68 P28 1.588803 1_555
O68 Zr7 2.066801 1_555
O69 P29 1.570335 1_555
O69 Zr8 2.085444 1_555
O70 P24 1.586444 1_555
O70 Zr7 2.073184 1_555
O71 P25 1.580530 1_555
O71 Zr8 2.100943 1_555
O72 P34 1.546527 1_555
O72 Zn0 2.248136 1_465
O73 P35 1.547182 1_555
O73 Zn1 2.239764 1_565
O74 P30 1.545522 1_555
O74 Zn1 2.216783 1_565
O75 P31 1.545380 1_555
O75 Zn0 2.222438 1_565
O76 P32 1.547163 1_555
O76 Zn0 2.219863 1_455
O77 P33 1.548154 1_555
O77 Zn1 2.213203 1_555
O78 P26 1.523859 1_555
O78 Zn2 2.152609 1_455
O79 P27 1.549105 1_555
O79 Zn3 2.219395 1_555
O80 P28 1.544010 1_555
O80 Zn2 2.281357 1_465
O81 P29 1.544065 1_555
O81 Zn3 2.252950 1_565
O82 P24 1.548108 1_555
O82 Zn3 2.207303 1_565
O83 P25 1.529629 1_555
O83 Zn2 2.184776 1_565
O84 P12 1.594966 1_555
O84 Zr1 2.106548 1_555
O85 P13 1.593100 1_555
O85 Zr0 2.110077 1_555
O86 P14 1.594375 1_555
O86 Zr0 2.127855 1_455
O87 P15 1.595116 1_555
O87 Zr1 2.123170 1_555
O88 P16 1.595050 1_555
O88 Zr1 2.117962 1_565
O89 P17 1.593213 1_555
O89 Zr0 2.124213 1_565
O90 P18 1.596026 1_555
O90 Zr3 2.123536 1_565
O91 P19 1.571556 1_555
O91 Zr2 2.133870 1_555
O92 P20 1.594962 1_555
O92 Zr3 2.112044 1_555
O93 P21 1.573514 1_555
O93 Zr2 2.123868 1_545
O94 P22 1.590291 1_555
O94 Zr2 2.134260 1_445
O95 P23 1.598416 1_555
O95 Zr3 2.146756 1_555
O96 P10 1.525944 1_555
O96 Zn4 2.213484 1_555
O97 P11 1.533511 1_555
O97 Zn5 2.213461 1_555
O98 P6 1.539471 1_555
O98 Zn4 2.283394 1_555
O99 P7 1.540958 1_555
O99 Zn5 2.297167 1_555
O100 P9 1.526990 1_555
O100 Zn4 2.186346 1_555
O101 P8 1.532343 1_555
O101 Zn5 2.188491 1_555
O102 P2 1.538206 1_555
O102 Zn6 2.276343 1_555
O103 P3 1.537500 1_555
O103 Zn7 2.242310 1_555
O104 P5 1.526963 1_555
O104 Zn6 2.218684 1_555
O105 P4 1.525780 1_555
O105 Zn7 2.193703 1_555
O106 P0 1.528853 1_555
O106 Zn6 2.176220 1_555
O107 P1 1.524642 1_555
O107 Zn7 2.163264 1_555
O108 P24 1.547257 1_555
O108 Zn8 2.284492 1_555
O109 P25 1.596548 1_555
O109 Zr4 2.140904 1_555
O110 P27 1.544438 1_555
O110 Zn8 2.260612 1_555
O111 P26 1.574214 1_655
O111 Zr4 2.133370 1_555
O112 P28 1.546453 1_545
O112 Zn8 2.250294 1_555
O113 P29 1.573992 1_545
O113 Zr4 2.128761 1_555
O114 P30 1.544917 1_545
O114 Zn9 2.238307 1_555
O115 P31 1.544506 1_545
O115 Zn10 2.237517 1_555
O116 P32 1.547062 1_555
O116 Zn9 2.272984 1_555
O117 P33 1.546134 1_555
O117 Zn10 2.274347 1_555
O118 P35 1.546358 1_555
O118 Zn9 2.247878 1_555
O119 P34 1.545845 1_655
O119 Zn10 2.245534 1_555
O120 P22 1.550915 1_555
O120 Zn11 2.251407 1_555
O121 P23 1.525295 1_555
O121 Zn12 2.210196 1_555
O122 P19 1.545732 1_455
O122 Zn11 2.249791 1_555
O123 P18 1.544600 1_555
O123 Zn12 2.287818 1_555
O124 P20 1.551166 1_565
O124 Zn11 2.206349 1_555
O125 P21 1.525015 1_565
O125 Zn12 2.157779 1_555
O126 P14 1.550047 1_565
O126 Zn13 2.254291 1_555
O127 P15 1.549671 1_565
O127 Zn14 2.256347 1_555
O128 P16 1.548522 1_555
O128 Zn13 2.268317 1_555
O129 P17 1.549455 1_555
O129 Zn14 2.267515 1_555
O130 P13 1.550306 1_455
O130 Zn13 2.223140 1_555
O131 P12 1.550836 1_555
O131 Zn14 2.227458 1_555
O132 P0 1.572997 1_565
O132 Zr5 2.148905 1_555
O133 P1 1.568976 1_565
O133 Zr6 2.143320 1_555
O134 P2 1.568974 1_555
O134 Zr5 2.136219 1_555
O135 P3 1.566220 1_555
O135 Zr6 2.132525 1_555
O136 P4 1.592724 1_455
O136 Zr5 2.165161 1_555
O137 P5 1.586336 1_555
O137 Zr6 2.160572 1_555
O138 P6 1.570663 1_555
O138 Zr7 2.128179 1_555
O139 P7 1.568786 1_555
O139 Zr8 2.139439 1_555
O140 P8 1.571435 1_455
O140 Zr7 2.144271 1_555
O141 P9 1.572693 1_555
O141 Zr8 2.150470 1_555
O142 P10 1.589831 1_565
O142 Zr7 2.150240 1_555
O143 P11 1.592432 1_565
O143 Zr8 2.146611 1_555
