# generated using pymatgen
data_TlCu7S4
_symmetry_space_group_name_H-M   'P 1'
_cell_length_a   10.21747300
_cell_length_b   10.21747300
_cell_length_c   7.57818000
_cell_angle_alpha   90.00000000
_cell_angle_beta   90.00000000
_cell_angle_gamma   90.00000000
_symmetry_Int_Tables_number   1
_chemical_formula_structural   TlCu7S4
_chemical_formula_sum   'Tl4 Cu28 S16'
_cell_volume   791.13739706
_cell_formula_units_Z   4
loop_
 _symmetry_equiv_pos_site_id
 _symmetry_equiv_pos_as_xyz
  1  'x, y, z'
loop_
 _atom_site_type_symbol
 _atom_site_label
 _atom_site_symmetry_multiplicity
 _atom_site_fract_x
 _atom_site_fract_y
 _atom_site_fract_z
 _atom_site_occupancy
  Tl  Tl0  1  0.00000000  0.50000000  0.37819800  1
  Tl  Tl1  1  0.50000000  0.00000000  0.62180200  1
  Tl  Tl2  1  0.00000000  0.50000000  0.88334100  1
  Tl  Tl3  1  0.50000000  0.00000000  0.11665900  1
  Cu  Cu0  1  0.75000000  0.25000000  0.00000000  1
  Cu  Cu1  1  0.75000000  0.75000000  0.00000000  1
  Cu  Cu2  1  0.25000000  0.25000000  0.00000000  1
  Cu  Cu3  1  0.25000000  0.75000000  0.00000000  1
  Cu  Cu4  1  0.69736900  0.72647500  0.34474300  1
  Cu  Cu5  1  0.22647500  0.80263100  0.34474300  1
  Cu  Cu6  1  0.77352500  0.19736900  0.34474300  1
  Cu  Cu7  1  0.30263100  0.27352500  0.34474300  1
  Cu  Cu8  1  0.80263100  0.77352500  0.65525700  1
  Cu  Cu9  1  0.27352500  0.69736900  0.65525700  1
  Cu  Cu10  1  0.72647500  0.30263100  0.65525700  1
  Cu  Cu11  1  0.19736900  0.22647500  0.65525700  1
  Cu  Cu12  1  0.13246200  0.97867400  0.11941600  1
  Cu  Cu13  1  0.47867400  0.36753800  0.11941600  1
  Cu  Cu14  1  0.52132600  0.63246200  0.11941600  1
  Cu  Cu15  1  0.86753800  0.02132600  0.11941600  1
  Cu  Cu16  1  0.36753800  0.52132600  0.88058400  1
  Cu  Cu17  1  0.02132600  0.13246200  0.88058400  1
  Cu  Cu18  1  0.97867400  0.86753800  0.88058400  1
  Cu  Cu19  1  0.63246200  0.47867400  0.88058400  1
  Cu  Cu20  1  0.35993600  0.53246300  0.38706500  1
  Cu  Cu21  1  0.03246300  0.14006400  0.38706500  1
  Cu  Cu22  1  0.96753700  0.85993600  0.38706500  1
  Cu  Cu23  1  0.64006400  0.46753700  0.38706500  1
  Cu  Cu24  1  0.14006400  0.96753700  0.61293500  1
  Cu  Cu25  1  0.46753700  0.35993600  0.61293500  1
  Cu  Cu26  1  0.53246300  0.64006400  0.61293500  1
  Cu  Cu27  1  0.85993600  0.03246300  0.61293500  1
  S  S0  1  0.93989800  0.23928000  0.13323100  1
  S  S1  1  0.73928000  0.56010200  0.13323100  1
  S  S2  1  0.26072000  0.43989800  0.13323100  1
  S  S3  1  0.06010200  0.76072000  0.13323100  1
  S  S4  1  0.56010200  0.26072000  0.86676900  1
  S  S5  1  0.76072000  0.93989800  0.86676900  1
  S  S6  1  0.23928000  0.06010200  0.86676900  1
  S  S7  1  0.43989800  0.73928000  0.86676900  1
  S  S8  1  0.56186100  0.25969800  0.36889400  1
  S  S9  1  0.75969800  0.93813900  0.36889400  1
  S  S10  1  0.24030200  0.06186100  0.36889400  1
  S  S11  1  0.43813900  0.74030200  0.36889400  1
  S  S12  1  0.93813900  0.24030200  0.63110600  1
  S  S13  1  0.74030200  0.56186100  0.63110600  1
  S  S14  1  0.25969800  0.43813900  0.63110600  1
  S  S15  1  0.06186100  0.75969800  0.63110600  1
loop_
_geom_bond_atom_site_label_1
_geom_bond_atom_site_label_2
_geom_bond_distance
_geom_bond_site_symmetry_2
Cu0 S4 2.189992 1_554
Cu0 S0 2.189992 1_555
Cu1 S5 2.189992 1_554
Cu1 S1 2.189992 1_555
Cu2 S2 2.189992 1_555
Cu2 S6 2.189992 1_554
Cu3 S7 2.189992 1_554
Cu3 S3 2.189992 1_555
Cu4 S9 2.261905 1_555
Cu4 S1 2.375350 1_555
Cu4 S11 2.658747 1_555
Cu4 S13 2.780418 1_555
Cu5 S11 2.261905 1_555
Cu5 S3 2.375350 1_555
Cu5 S10 2.658747 1_565
Cu5 S15 2.780418 1_555
Cu6 S8 2.261905 1_555
Cu6 S0 2.375350 1_555
Cu6 S9 2.658747 1_545
Cu6 S12 2.780418 1_555
Cu7 S10 2.261905 1_555
Cu7 S2 2.375350 1_555
Cu7 S8 2.658747 1_555
Cu7 S14 2.780418 1_555
Cu8 S13 2.261905 1_555
Cu8 S5 2.375350 1_555
Cu8 S15 2.658747 1_655
Cu8 S9 2.780418 1_555
Cu9 S15 2.261905 1_555
Cu9 S7 2.375350 1_555
Cu9 S14 2.658747 1_555
Cu9 S11 2.780418 1_555
Cu10 S12 2.261905 1_555
Cu10 S4 2.375350 1_555
Cu10 S13 2.658747 1_555
Cu10 S8 2.780418 1_555
Cu11 S14 2.261905 1_555
Cu11 S6 2.375350 1_555
Cu11 S12 2.658747 1_455
Cu11 S10 2.780418 1_555
Cu12 S10 2.347518 1_565
Cu12 S3 2.348795 1_555
Cu12 S6 2.355651 1_564
Cu13 S8 2.347518 1_555
Cu13 S2 2.348795 1_555
Cu13 S4 2.355651 1_554
Cu14 S11 2.347518 1_555
Cu14 S1 2.348795 1_555
Cu14 S7 2.355651 1_554
Cu15 S9 2.347518 1_545
Cu15 S0 2.348795 1_555
Cu15 S5 2.355651 1_544
Cu16 S14 2.347518 1_555
Cu16 S7 2.348795 1_555
Cu16 S2 2.355651 1_556
Cu17 S12 2.347518 1_455
Cu17 S6 2.348795 1_555
Cu17 S0 2.355651 1_456
Cu18 S15 2.347518 1_655
Cu18 S5 2.348795 1_555
Cu18 S3 2.355651 1_656
Cu19 S13 2.347518 1_555
Cu19 S4 2.348795 1_555
Cu19 S1 2.355651 1_556
Cu20 S11 2.273116 1_555
Cu20 S14 2.323358 1_555
Cu20 S2 2.371160 1_555
Cu21 S10 2.273116 1_555
Cu21 S12 2.323358 1_455
Cu21 S0 2.371160 1_455
Cu22 S9 2.273116 1_555
Cu22 S15 2.323358 1_655
Cu22 S3 2.371160 1_655
Cu23 S8 2.273116 1_555
Cu23 S13 2.323358 1_555
Cu23 S1 2.371160 1_555
Cu24 S15 2.273116 1_555
Cu24 S10 2.323358 1_565
Cu24 S6 2.371160 1_565
Cu25 S14 2.273116 1_555
Cu25 S8 2.323358 1_555
Cu25 S4 2.371160 1_555
Cu26 S13 2.273116 1_555
Cu26 S11 2.323358 1_555
Cu26 S7 2.371160 1_555
Cu27 S12 2.273116 1_555
Cu27 S9 2.323358 1_545
Cu27 S5 2.371160 1_545
