# generated using pymatgen
data_Na6Mg(CoO3)2
_symmetry_space_group_name_H-M   'P 1'
_cell_length_a   5.91705208
_cell_length_b   6.27639130
_cell_length_c   6.26462843
_cell_angle_alpha   61.75491350
_cell_angle_beta   90.73256663
_cell_angle_gamma   88.86912726
_symmetry_Int_Tables_number   1
_chemical_formula_structural   Na6Mg(CoO3)2
_chemical_formula_sum   'Na6 Mg1 Co2 O6'
_cell_volume   204.84770356
_cell_formula_units_Z   1
loop_
 _symmetry_equiv_pos_site_id
 _symmetry_equiv_pos_as_xyz
  1  'x, y, z'
loop_
 _atom_site_type_symbol
 _atom_site_label
 _atom_site_symmetry_multiplicity
 _atom_site_fract_x
 _atom_site_fract_y
 _atom_site_fract_z
 _atom_site_occupancy
  Na  Na0  1  0.38409332  0.44227794  0.66838676  1
  Na  Na1  1  0.49827063  0.83798701  0.17645703  1
  Na  Na2  1  0.07379964  0.06937569  0.75714260  1
  Na  Na3  1  0.02840289  0.85892833  0.36552360  1
  Na  Na4  1  0.16613301  0.58891784  0.96303205  1
  Na  Na5  1  0.81357047  0.31307036  0.97390496  1
  Mg  Mg0  1  0.84332588  0.45814673  0.34165806  1
  Co  Co0  1  0.65409324  0.82078114  0.67644011  1
  Co  Co1  1  0.36392026  0.18637535  0.33589566  1
  O  O0  1  0.74204033  0.57280687  0.56893838  1
  O  O1  1  0.18151701  0.43506792  0.37159556  1
  O  O2  1  0.79816988  0.72833661  0.99577146  1
  O  O3  1  0.23320324  0.17825684  0.04126263  1
  O  O4  1  0.71337968  0.15099520  0.37733163  1
  O  O5  1  0.31858052  0.85867519  0.62624251  1
loop_
_geom_bond_atom_site_label_1
_geom_bond_atom_site_label_2
_geom_bond_distance
_geom_bond_site_symmetry_2
Na0 O1 2.218233 1_555
Na0 O0 2.272519 1_555
Na0 O3 2.334026 1_556
Na0 O5 2.520818 1_555
Na1 O2 2.375771 1_554
Na1 O3 2.420772 1_565
Na1 O0 2.614835 1_555
Na1 O1 2.953319 1_555
Na2 O5 2.345273 1_545
Na2 O3 2.378756 1_556
Na2 O1 2.521528 1_555
Na2 O2 2.578351 1_445
Na3 O5 2.354038 1_555
Na3 O0 2.393582 1_455
Na3 O3 2.432541 1_565
Na3 O4 2.614832 1_465
Na3 O1 2.776279 1_555
Na4 O5 2.204468 1_555
Na4 O1 2.267832 1_556
Na4 O2 2.377878 1_455
Na4 O3 2.408338 1_556
Na5 O0 2.302987 1_555
Na5 O4 2.324299 1_556
Na5 O3 2.571301 1_656
Na5 O2 2.673785 1_555
Mg0 O0 1.969513 1_555
Mg0 O4 2.003173 1_555
Mg0 O1 2.003443 1_655
Mg0 O2 2.032681 1_554
Co0 O2 1.975766 1_555
Co0 O5 1.997816 1_555
Co0 O0 2.028729 1_555
Co0 O4 2.073510 1_565
Co1 O1 1.980240 1_555
Co1 O3 2.015380 1_555
Co1 O5 2.025858 1_545
Co1 O4 2.075080 1_555
