# generated using pymatgen
data_MgZn(CoS2)4
_symmetry_space_group_name_H-M   'P 1'
_cell_length_a   7.23260382
_cell_length_b   7.24601715
_cell_length_c   7.24536729
_cell_angle_alpha   55.64033789
_cell_angle_beta   55.69460880
_cell_angle_gamma   55.69381384
_symmetry_Int_Tables_number   1
_chemical_formula_structural   MgZn(CoS2)4
_chemical_formula_sum   'Mg1 Zn1 Co4 S8'
_cell_volume   241.56314183
_cell_formula_units_Z   1
loop_
 _symmetry_equiv_pos_site_id
 _symmetry_equiv_pos_as_xyz
  1  'x, y, z'
loop_
 _atom_site_type_symbol
 _atom_site_label
 _atom_site_symmetry_multiplicity
 _atom_site_fract_x
 _atom_site_fract_y
 _atom_site_fract_z
 _atom_site_occupancy
  Mg  Mg0  1  0.85464600  0.85872200  0.85874000  1
  Zn  Zn0  1  0.49916100  0.49993100  0.49992800  1
  Co  Co0  1  0.49525100  0.00795300  0.49574500  1
  Co  Co1  1  0.00797600  0.49563800  0.49565000  1
  Co  Co2  1  0.49526400  0.49574500  0.00793000  1
  Co  Co3  1  0.00912900  0.00953200  0.00951400  1
  S  S0  1  0.76098700  0.27850700  0.76207400  1
  S  S1  1  0.23897100  0.23821400  0.71579200  1
  S  S2  1  0.23897700  0.71575500  0.23824100  1
  S  S3  1  0.71611600  0.23836200  0.23838800  1
  S  S4  1  0.26946100  0.27037600  0.27033500  1
  S  S5  1  0.72833300  0.72818200  0.72818200  1
  S  S6  1  0.27662000  0.76210800  0.76206200  1
  S  S7  1  0.76095900  0.76208900  0.27853100  1
loop_
_geom_bond_atom_site_label_1
_geom_bond_atom_site_label_2
_geom_bond_distance
_geom_bond_site_symmetry_2
Mg0 S5 2.362693 1_555
Mg0 S7 2.451154 1_556
Mg0 S0 2.451361 1_565
Mg0 S6 2.455732 1_655
Co0 S1 2.224140 1_555
Co0 S4 2.224960 1_555
Co0 S3 2.225048 1_555
Co0 S7 2.289150 1_545
Co0 S6 2.291949 1_545
Co0 S5 2.298242 1_545
Co1 S1 2.224240 1_555
Co1 S2 2.224271 1_555
Co1 S4 2.225738 1_555
Co1 S7 2.290328 1_455
Co1 S0 2.290362 1_455
Co1 S5 2.300059 1_455
Co2 S2 2.224203 1_555
Co2 S4 2.224944 1_555
Co2 S3 2.225099 1_555
Co2 S0 2.289208 1_554
Co2 S6 2.291993 1_554
Co2 S5 2.298291 1_554
Co3 S3 2.274140 1_455
Co3 S1 2.274852 1_554
Co3 S2 2.275022 1_545
Co3 S0 2.444077 1_454
Co3 S7 2.444373 1_445
Co3 S6 2.445441 1_544
S0 Zn0 2.637688 1_555
S1 Zn0 2.634593 1_555
S2 Zn0 2.634258 1_555
S3 Zn0 2.644856 1_555
S6 Zn0 2.643288 1_555
S7 Zn0 2.637828 1_555
