# generated using pymatgen
data_CeCd3
_symmetry_space_group_name_H-M   'P 1'
_cell_length_a   5.16458695
_cell_length_b   5.16458618
_cell_length_c   5.16458568
_cell_angle_alpha   59.99998984
_cell_angle_beta   59.99999471
_cell_angle_gamma   59.99999157
_symmetry_Int_Tables_number   1
_chemical_formula_structural   CeCd3
_chemical_formula_sum   'Ce1 Cd3'
_cell_volume   97.40730617
_cell_formula_units_Z   1
loop_
 _symmetry_equiv_pos_site_id
 _symmetry_equiv_pos_as_xyz
  1  'x, y, z'
loop_
 _atom_site_type_symbol
 _atom_site_label
 _atom_site_symmetry_multiplicity
 _atom_site_fract_x
 _atom_site_fract_y
 _atom_site_fract_z
 _atom_site_occupancy
  Ce  Ce0  1  -0.00000000  0.00000000  -0.00000000  1
  Cd  Cd0  1  0.50000000  0.50000000  0.50000000  1
  Cd  Cd1  1  0.25000000  0.25000000  0.25000000  1
  Cd  Cd2  1  0.75000000  0.75000000  0.75000000  1
loop_
_geom_bond_atom_site_label_1
_geom_bond_atom_site_label_2
_geom_bond_distance
_geom_bond_site_symmetry_2
Cd0 Cd1 3.162650 1_556
Cd0 Cd2 3.162650 1_554
Cd0 Cd2 3.162650 1_545
Cd0 Cd1 3.162650 1_565
Cd0 Cd2 3.162650 1_455
Cd0 Cd1 3.162650 1_655
Cd0 Cd2 3.162650 1_555
Cd0 Cd1 3.162650 1_555
Cd0 Ce0 3.651914 1_566
Cd0 Ce0 3.651914 1_655
Cd0 Ce0 3.651914 1_565
Cd0 Ce0 3.651914 1_656
Cd0 Ce0 3.651914 1_665
Cd0 Ce0 3.651914 1_556
Cd1 Ce0 3.162650 1_556
Cd1 Ce0 3.162650 1_565
Cd1 Ce0 3.162650 1_655
Cd1 Ce0 3.162650 1_555
Cd2 Ce0 3.162650 1_665
Cd2 Ce0 3.162650 1_656
Cd2 Ce0 3.162650 1_566
Cd2 Ce0 3.162650 1_666
