# generated using pymatgen
data_Na6Ti2Zn6SiS11O48
_symmetry_space_group_name_H-M   'P 1'
_cell_length_a   17.49246704
_cell_length_b   8.75235609
_cell_length_c   22.50199635
_cell_angle_alpha   90.16581854
_cell_angle_beta   89.82658232
_cell_angle_gamma   120.07875333
_symmetry_Int_Tables_number   1
_chemical_formula_structural   Na6Ti2Zn6SiS11O48
_chemical_formula_sum   'Na18 Ti6 Zn18 Si3 S33 O144'
_cell_volume   2981.12368152
_cell_formula_units_Z   3
loop_
 _symmetry_equiv_pos_site_id
 _symmetry_equiv_pos_as_xyz
  1  'x, y, z'
loop_
 _atom_site_type_symbol
 _atom_site_label
 _atom_site_symmetry_multiplicity
 _atom_site_fract_x
 _atom_site_fract_y
 _atom_site_fract_z
 _atom_site_occupancy
  Na  Na0  1  0.68428200  0.36105224  0.24574622  1
  Na  Na1  1  0.99638257  0.63257947  0.25318353  1
  Na  Na2  1  0.33489028  0.96452661  0.58808636  1
  Na  Na3  1  0.83548535  0.96517954  0.58824519  1
  Na  Na4  1  0.33337389  0.69741003  0.08255386  1
  Na  Na5  1  0.34746577  0.66503327  0.41533372  1
  Na  Na6  1  0.00575565  0.99793327  0.49761305  1
  Na  Na7  1  0.50907596  0.01124364  0.50068375  1
  Na  Na8  1  0.00152346  0.00014846  0.99916605  1
  Na  Na9  1  0.50782650  0.01105143  0.00145487  1
  Na  Na10  1  0.33244917  0.33124341  0.83807272  1
  Na  Na11  1  0.83209950  0.33122217  0.83797063  1
  Na  Na12  1  0.33007562  0.32287572  0.33073029  1
  Na  Na13  1  0.83663846  0.33472315  0.33495203  1
  Na  Na14  1  0.16835308  0.66924651  0.16621771  1
  Na  Na15  1  0.66485812  0.67190539  0.15978536  1
  Na  Na16  1  0.16626820  0.66479217  0.67246646  1
  Na  Na17  1  0.66692860  0.66535510  0.67289162  1
  Ti  Ti0  1  0.99406842  0.00439805  0.85109436  1
  Ti  Ti1  1  0.49498108  0.00549411  0.85129193  1
  Ti  Ti2  1  0.99211622  0.99135517  0.14972421  1
  Ti  Ti3  1  0.33443096  0.32653448  0.69104080  1
  Ti  Ti4  1  0.83466151  0.32725956  0.69045468  1
  Ti  Ti5  1  0.67194730  0.67356265  0.31439942  1
  Zn  Zn0  1  0.00083498  0.99458943  0.35038339  1
  Zn  Zn1  1  0.49865681  0.00164389  0.34808521  1
  Zn  Zn2  1  0.99919417  0.99648640  0.65337942  1
  Zn  Zn3  1  0.49956950  0.99674028  0.65374331  1
  Zn  Zn4  1  0.50260398  0.00498716  0.14957632  1
  Zn  Zn5  1  0.33358122  0.33474442  0.18156069  1
  Zn  Zn6  1  0.83274681  0.33575163  0.18048846  1
  Zn  Zn7  1  0.33270488  0.32768160  0.98394012  1
  Zn  Zn8  1  0.83103613  0.33024516  0.98396088  1
  Zn  Zn9  1  0.33076694  0.32637050  0.48372133  1
  Zn  Zn10  1  0.83582869  0.34132788  0.48139513  1
  Zn  Zn11  1  0.16305766  0.67066598  0.01325574  1
  Zn  Zn12  1  0.66639967  0.66602991  0.01469873  1
  Zn  Zn13  1  0.16053233  0.65719334  0.51510402  1
  Zn  Zn14  1  0.66314991  0.65885390  0.51779936  1
  Zn  Zn15  1  0.16906617  0.66609249  0.31794011  1
  Zn  Zn16  1  0.17098218  0.67736914  0.81605465  1
  Zn  Zn17  1  0.67143309  0.67796033  0.81632255  1
  Si  Si0  1  0.85401290  0.70572171  0.25273412  1
  Si  Si1  1  0.35102070  0.98981263  0.74610162  1
  Si  Si2  1  0.85071401  0.99043147  0.74598805  1
  S  S0  1  0.14722557  0.00467223  0.24920377  1
  S  S1  1  0.64550599  0.99506815  0.25145556  1
  S  S2  1  0.35146965  0.70296166  0.25006175  1
  S  S3  1  0.00036192  0.29003887  0.24996126  1
  S  S4  1  0.49870849  0.29518719  0.25184374  1
  S  S5  1  0.14535557  0.29032826  0.74944642  1
  S  S6  1  0.64556611  0.29063715  0.74941603  1
  S  S7  1  0.99947716  0.70853174  0.74952445  1
  S  S8  1  0.49952588  0.70844012  0.74949681  1
  S  S9  1  0.47960093  0.33672414  0.58320744  1
  S  S10  1  0.97926898  0.33559775  0.58314547  1
  S  S11  1  0.18628465  0.04341322  0.58438568  1
  S  S12  1  0.68742574  0.04578949  0.58321905  1
  S  S13  1  0.33367325  0.62353660  0.58223038  1
  S  S14  1  0.83340452  0.62251921  0.58321762  1
  S  S15  1  0.48130674  0.62653363  0.08340971  1
  S  S16  1  0.98237033  0.63103688  0.08423925  1
  S  S17  1  0.33298207  0.03828480  0.08352936  1
  S  S18  1  0.83356166  0.04031518  0.08408857  1
  S  S19  1  0.18414372  0.33076400  0.08375542  1
  S  S20  1  0.68443565  0.33393870  0.08354212  1
  S  S21  1  0.31504565  0.66535296  0.91672637  1
  S  S22  1  0.81440351  0.66534655  0.91610357  1
  S  S23  1  0.02034243  0.37488514  0.91539100  1
  S  S24  1  0.52065162  0.37528142  0.91506223  1
  S  S25  1  0.16543458  0.96385591  0.91589076  1
  S  S26  1  0.66553216  0.96220442  0.91641079  1
  S  S27  1  0.31454025  0.96412044  0.41767351  1
  S  S28  1  0.81271111  0.95955507  0.41847157  1
  S  S29  1  0.16544432  0.36864584  0.41692814  1
  S  S30  1  0.66572961  0.37366220  0.41595421  1
  S  S31  1  0.01907820  0.66661147  0.41633535  1
  S  S32  1  0.52175947  0.66817493  0.41640782  1
  O  O0  1  0.11084947  0.03371101  0.30374527  1
  O  O1  1  0.60643981  0.03070650  0.30438580  1
  O  O2  1  0.40405453  0.78294099  0.30529598  1
  O  O3  1  0.91764784  0.79025074  0.30759806  1
  O  O4  1  0.48610743  0.18948744  0.30546926  1
  O  O5  1  0.98920214  0.18910936  0.30359830  1
  O  O6  1  0.10491207  0.17493416  0.80287858  1
  O  O7  1  0.60468333  0.17477218  0.80287912  1
  O  O8  1  0.48476793  0.79302631  0.80256106  1
  O  O9  1  0.98505618  0.79370473  0.80267178  1
  O  O10  1  0.41907966  0.02818710  0.80459470  1
  O  O11  1  0.91865003  0.02833548  0.80463874  1
  O  O12  1  0.39261794  0.97160845  0.68526050  1
  O  O13  1  0.89269330  0.97190669  0.68544690  1
  O  O14  1  0.09520023  0.21259199  0.69503638  1
  O  O15  1  0.59520630  0.21283737  0.69497492  1
  O  O16  1  0.01530747  0.81188502  0.69522230  1
  O  O17  1  0.51517051  0.81142976  0.69507711  1
  O  O18  1  0.39344030  0.81193246  0.19617281  1
  O  O19  1  0.90107484  0.83387466  0.19279215  1
  O  O20  1  0.01211187  0.20090182  0.19576190  1
  O  O21  1  0.52068180  0.22362719  0.19873322  1
  O  O22  1  0.08751677  0.97765704  0.19644562  1
  O  O23  1  0.59231461  0.96167271  0.19747679  1
  O  O24  1  0.43332594  0.35612227  0.63723155  1
  O  O25  1  0.93283199  0.35590525  0.63726713  1
  O  O26  1  0.24591145  0.13600466  0.63740917  1
  O  O27  1  0.74577455  0.13608818  0.63692568  1
  O  O28  1  0.32390897  0.51230445  0.63471957  1
  O  O29  1  0.82313040  0.51345022  0.63673545  1
  O  O30  1  0.44163401  0.52119922  0.13779147  1
  O  O31  1  0.94436802  0.52961333  0.13979775  1
  O  O32  1  0.32000273  0.11785080  0.13761508  1
  O  O33  1  0.82125129  0.11997334  0.13854608  1
  O  O34  1  0.24077668  0.36561239  0.13683278  1
  O  O35  1  0.73464646  0.35850480  0.13987279  1
  O  O36  1  0.22248494  0.29958242  0.02969183  1
  O  O37  1  0.72772817  0.30753570  0.03129075  1
  O  O38  1  0.42422803  0.54564201  0.03038614  1
  O  O39  1  0.92687861  0.55331748  0.03162397  1
  O  O40  1  0.34608390  0.14392993  0.02961551  1
  O  O41  1  0.85087080  0.14838932  0.03054106  1
  O  O42  1  0.22532113  0.14674592  0.53000534  1
  O  O43  1  0.72739646  0.14957137  0.52909426  1
  O  O44  1  0.34418090  0.54523046  0.52621421  1
  O  O45  1  0.84316517  0.54116389  0.52872934  1
  O  O46  1  0.42430767  0.30611088  0.52997159  1
  O  O47  1  0.92343480  0.30320640  0.53025413  1
  O  O48  1  0.28059403  0.70087996  0.97256612  1
  O  O49  1  0.77927702  0.70345265  0.97027717  1
  O  O50  1  0.07350416  0.44622333  0.97000452  1
  O  O51  1  0.57311326  0.44617041  0.96960403  1
  O  O52  1  0.14861724  0.85706893  0.97053570  1
  O  O53  1  0.64915429  0.85468385  0.97063507  1
  O  O54  1  0.27576233  0.85541916  0.47252981  1
  O  O55  1  0.77221227  0.85526071  0.47279792  1
  O  O56  1  0.15375999  0.44961679  0.47152448  1
  O  O57  1  0.65288022  0.45516495  0.46919806  1
  O  O58  1  0.07349596  0.68942260  0.46955107  1
  O  O59  1  0.57364152  0.69384917  0.47048896  1
  O  O60  1  0.05833415  0.64155934  0.36033334  1
  O  O61  1  0.56735961  0.64747644  0.36310882  1
  O  O62  1  0.26039813  0.88032777  0.36426276  1
  O  O63  1  0.75404803  0.85957368  0.36485010  1
  O  O64  1  0.18278127  0.48282067  0.36387948  1
  O  O65  1  0.67597899  0.48585302  0.36091796  1
  O  O66  1  0.06140034  0.47972113  0.86205549  1
  O  O67  1  0.56170700  0.47983633  0.86159910  1
  O  O68  1  0.17929892  0.88231753  0.86308809  1
  O  O69  1  0.67930759  0.88227923  0.86302781  1
  O  O70  1  0.26012677  0.63934629  0.86478576  1
  O  O71  1  0.76111171  0.63765334  0.86292675  1
  O  O72  1  0.01168038  0.82752481  0.41399036  1
  O  O73  1  0.51012764  0.82538374  0.41035235  1
  O  O74  1  0.40298819  0.97501860  0.41213486  1
  O  O75  1  0.90009253  0.97829877  0.41108781  1
  O  O76  1  0.08667272  0.19272886  0.41076031  1
  O  O77  1  0.58613170  0.19774183  0.40888223  1
  O  O78  1  0.01281194  0.19205862  0.90824135  1
  O  O79  1  0.51310926  0.19201046  0.90789052  1
  O  O80  1  0.08436904  0.98138117  0.90792561  1
  O  O81  1  0.58453101  0.98076942  0.90817145  1
  O  O82  1  0.40635689  0.83052447  0.90811360  1
  O  O83  1  0.90653029  0.83081596  0.90763348  1
  O  O84  1  0.48882713  0.17787143  0.58804324  1
  O  O85  1  0.98885925  0.17758996  0.58857589  1
  O  O86  1  0.09830961  0.02302403  0.59190541  1
  O  O87  1  0.59889638  0.02442366  0.59079498  1
  O  O88  1  0.41344766  0.80287852  0.58606845  1
  O  O89  1  0.91294622  0.80215163  0.58675791  1
  O  O90  1  0.48749732  0.80402967  0.08872527  1
  O  O91  1  0.99187864  0.81370652  0.09179493  1
  O  O92  1  0.41237942  0.01528004  0.08844086  1
  O  O93  1  0.91739349  0.02604306  0.09128996  1
  O  O94  1  0.09500891  0.17153279  0.09231314  1
  O  O95  1  0.59555564  0.17204846  0.08813308  1
  O  O96  1  0.34688823  0.18054135  0.74017353  1
  O  O97  1  0.84678233  0.18098049  0.73998836  1
  O  O98  1  0.23609387  0.30757691  0.74329549  1
  O  O99  1  0.73588573  0.30712637  0.74349121  1
  O  O100  1  0.41452024  0.53087921  0.74296170  1
  O  O101  1  0.91467583  0.53119862  0.74324000  1
  O  O102  1  0.34305020  0.52606044  0.24489952  1
  O  O103  1  0.83768001  0.50813769  0.24258281  1
  O  O104  1  0.42169611  0.31707711  0.24474893  1
  O  O105  1  0.92142840  0.31051529  0.24257760  1
  O  O106  1  0.23626449  0.15855019  0.24075537  1
  O  O107  1  0.73517984  0.15048601  0.24551061  1
  O  O108  1  0.32781917  0.51153453  0.92249766  1
  O  O109  1  0.82809169  0.51264003  0.92248516  1
  O  O110  1  0.43009443  0.34617633  0.92065052  1
  O  O111  1  0.93011126  0.34688800  0.92164365  1
  O  O112  1  0.24452542  0.14249073  0.92208989  1
  O  O113  1  0.74451939  0.14153974  0.92247713  1
  O  O114  1  0.32517410  0.14196215  0.42260725  1
  O  O115  1  0.81545352  0.13092050  0.41855415  1
  O  O116  1  0.24846028  0.35694915  0.42164763  1
  O  O117  1  0.74696800  0.36268477  0.41775978  1
  O  O118  1  0.43216409  0.50790109  0.41872349  1
  O  O119  1  0.93049845  0.50397686  0.42092675  1
  O  O120  1  0.17635729  0.49272035  0.07752312  1
  O  O121  1  0.67649556  0.49442052  0.07765892  1
  O  O122  1  0.07152804  0.65328323  0.07808341  1
  O  O123  1  0.57022588  0.64752858  0.07701317  1
  O  O124  1  0.25387426  0.85576481  0.07826970  1
  O  O125  1  0.75692979  0.86050410  0.07845824  1
  O  O126  1  0.18308565  0.86994367  0.58130003  1
  O  O127  1  0.68328098  0.87102371  0.58065435  1
  O  O128  1  0.25352155  0.64366803  0.57988259  1
  O  O129  1  0.75308521  0.64319397  0.58071990  1
  O  O130  1  0.06630897  0.49909784  0.58063750  1
  O  O131  1  0.56656783  0.49932364  0.58038875  1
  O  O132  1  0.15006754  0.83638777  0.25151668  1
  O  O133  1  0.65318024  0.83263170  0.26064443  1
  O  O134  1  0.26295191  0.68827189  0.25518612  1
  O  O135  1  0.75404886  0.68663375  0.25976699  1
  O  O136  1  0.08033850  0.47082836  0.25137092  1
  O  O137  1  0.58192550  0.47596289  0.25996917  1
  O  O138  1  0.15590596  0.46562210  0.75788362  1
  O  O139  1  0.65567314  0.46546903  0.75787772  1
  O  O140  1  0.07306977  0.67591395  0.75765401  1
  O  O141  1  0.57288512  0.67542990  0.75761631  1
  O  O142  1  0.25399500  0.82942916  0.75589242  1
  O  O143  1  0.75378504  0.82971971  0.75582727  1
loop_
_geom_bond_atom_site_label_1
_geom_bond_atom_site_label_2
_geom_bond_distance
_geom_bond_site_symmetry_2
Na0 O103 2.323636 1_555
Na0 O107 2.415333 1_555
Na0 O137 2.473744 1_555
Na0 O135 2.494065 1_555
Na0 O35 2.541454 1_555
Na0 O21 2.704851 1_555
Na0 O1 2.831911 1_555
Na0 O65 2.840939 1_555
Na1 O132 2.367148 1_655
Na1 O103 2.433432 1_555
Na1 O105 2.452576 1_555
Na1 O136 2.499200 1_655
Na1 O60 2.631202 1_655
Na1 O3 2.680604 1_555
Na1 O31 2.707122 1_555
Na1 O22 2.911529 1_655
Na2 O126 2.357587 1_555
Na2 O84 2.386941 1_565
Na2 O12 2.398885 1_555
Na2 O88 2.416628 1_555
Na2 O128 2.436863 1_555
Na2 O54 2.784756 1_555
Na2 O26 2.868505 1_565
Na2 O46 2.901306 1_565
Na3 O127 2.366321 1_555
Na3 O85 2.377941 1_565
Na3 O13 2.396312 1_555
Na3 O89 2.410502 1_555
Na3 O129 2.444416 1_555
Na3 O55 2.799052 1_555
Na3 O27 2.869350 1_565
Na3 O47 2.875821 1_565
Na4 O90 2.374490 1_555
Na4 O124 2.407840 1_555
Na4 O92 2.410926 1_565
Na4 O120 2.415493 1_555
Na4 O48 2.649723 1_554
Na4 O18 2.755160 1_555
Na4 O38 2.786390 1_555
Na4 O34 2.800400 1_555
Na5 O116 2.368574 1_555
Na5 O74 2.380921 1_555
Na5 O73 2.464641 1_555
Na5 O118 2.477099 1_555
Na5 O2 2.674273 1_555
Na5 O44 2.698489 1_555
Na5 O64 2.754444 1_555
Na5 O54 2.842372 1_555
Na6 O72 2.431762 1_555
Na6 O76 2.512634 1_565
Na6 O89 2.609090 1_455
Na6 O86 2.613998 1_565
Na6 O75 2.634011 1_455
Na6 O85 2.681976 1_465
Na7 O87 2.535679 1_555
Na7 O77 2.558450 1_555
Na7 O84 2.571683 1_555
Na7 O88 2.599702 1_545
Na7 O73 2.605528 1_545
Na7 O74 2.635034 1_545
Na8 O80 2.561428 1_545
Na8 O78 2.594478 1_555
Na8 O83 2.595063 1_445
Na8 O91 2.603326 1_446
Na8 O93 2.612937 1_456
Na8 O94 2.619384 1_556
Na9 O95 2.445283 1_555
Na9 O81 2.571537 1_544
Na9 O90 2.576118 1_545
Na9 O92 2.581073 1_555
Na9 O79 2.611720 1_554
Na9 O82 2.692713 1_544
Na10 O112 2.474360 1_555
Na10 O110 2.486233 1_555
Na10 O108 2.493060 1_555
Na10 O96 2.640112 1_555
Na10 O98 2.664834 1_555
Na10 O100 2.680122 1_555
Na11 O113 2.484015 1_555
Na11 O109 2.497211 1_555
Na11 O111 2.507107 1_555
Na11 O97 2.640941 1_555
Na11 O99 2.657080 1_555
Na11 O101 2.676282 1_555
Na12 O104 2.525189 1_555
Na12 O106 2.549107 1_555
Na12 O102 2.560634 1_555
Na12 O114 2.582744 1_555
Na12 O116 2.591926 1_555
Na12 O118 2.614582 1_555
Na13 O119 2.489471 1_555
Na13 O115 2.492124 1_555
Na13 O117 2.521261 1_555
Na13 O103 2.571857 1_555
Na13 O105 2.618995 1_555
Na13 O107 2.633396 1_555
Na14 O124 2.524323 1_555
Na14 O132 2.524970 1_555
Na14 O136 2.525681 1_555
Na14 O134 2.552601 1_555
Na14 O120 2.566559 1_555
Na14 O122 2.569586 1_555
Na15 O123 2.432511 1_555
Na15 O125 2.449987 1_555
Na15 O121 2.483494 1_555
Na15 O135 2.707443 1_555
Na15 O133 2.727298 1_555
Na15 O137 2.763405 1_555
Na16 O142 2.395953 1_555
Na16 O138 2.542929 1_555
Na16 O140 2.545741 1_555
Na16 O130 2.625448 1_555
Na16 O128 2.639188 1_555
Na16 O126 2.647096 1_555
Na17 O143 2.381468 1_555
Na17 O139 2.535419 1_555
Na17 O141 2.544418 1_555
Na17 O129 2.623430 1_555
Na17 O131 2.640784 1_555
Na17 O127 2.670548 1_555
O0 S0 1.459899 1_555
O0 Zn0 2.061881 1_545
O1 S1 1.479673 1_545
O1 Zn1 2.023816 1_555
O2 S2 1.495769 1_555
O2 Zn1 2.037983 1_565
O3 Si0 1.577360 1_555
O3 Zn0 1.905980 1_655
O4 S4 1.470022 1_555
O4 Zn1 2.010698 1_555
O5 S3 1.451567 1_655
O5 Zn0 2.099327 1_645
O6 S5 1.500601 1_555
O6 Ti0 2.064005 1_455
O7 S6 1.503991 1_555
O7 Ti1 2.052093 1_555
O8 S8 1.491670 1_555
O8 Ti1 2.085373 1_565
O9 S7 1.493683 1_555
O9 Ti0 2.076215 1_565
O10 Si1 1.693716 1_545
O10 Ti1 1.783359 1_555
O11 Si2 1.695824 1_545
O11 Ti0 1.778690 1_555
O12 Si1 1.593126 1_555
O12 Zn3 1.905726 1_555
O13 Si2 1.591659 1_555
O13 Zn2 1.904894 1_555
O14 S5 1.461154 1_555
O14 Zn2 2.022811 1_445
O15 S6 1.463155 1_555
O15 Zn3 2.016016 1_545
O16 S7 1.463309 1_455
O16 Zn2 2.010804 1_455
O17 S8 1.464253 1_555
O17 Zn3 2.006006 1_555
O18 S2 1.489460 1_555
O18 Zn4 2.089186 1_565
O19 Si0 1.682722 1_555
O19 Ti2 1.781368 1_555
O20 S3 1.513938 1_555
O20 Ti2 1.976700 1_445
O21 S4 1.484067 1_555
O21 Zn4 2.090152 1_555
O22 S0 1.521343 1_565
O22 Ti2 2.028896 1_455
O23 S1 1.469242 1_555
O23 Zn4 2.092129 1_565
O24 S9 1.514090 1_555
O24 Ti3 2.016391 1_555
O25 S10 1.520541 1_555
O25 Ti4 2.000477 1_555
O26 S11 1.524095 1_555
O26 Ti3 2.011531 1_555
O27 S12 1.523227 1_555
O27 Ti4 2.014921 1_555
O28 S13 1.486856 1_555
O28 Ti3 2.144055 1_555
O29 S14 1.492378 1_555
O29 Ti4 2.121283 1_555
O30 S15 1.479546 1_555
O30 Zn5 2.027777 1_555
O31 S16 1.484161 1_555
O31 Zn6 2.051103 1_555
O32 S17 1.472953 1_555
O32 Zn5 2.043652 1_555
O33 S18 1.475810 1_555
O33 Zn6 2.026827 1_555
O34 S19 1.484271 1_555
O34 Zn5 2.042651 1_555
O35 S20 1.496735 1_555
O35 Zn6 2.042729 1_555
O36 S19 1.476779 1_555
O36 Zn7 2.086091 1_554
O37 S20 1.475724 1_555
O37 Zn8 2.017165 1_554
O38 S15 1.488446 1_555
O38 Zn7 2.057131 1_554
O39 S16 1.465303 1_555
O39 Zn8 2.119111 1_554
O40 S17 1.473656 1_555
O40 Zn7 2.021366 1_554
O41 S18 1.468183 1_555
O41 Zn8 2.077934 1_554
O42 S11 1.471018 1_555
O42 Zn9 2.012372 1_555
O43 S12 1.470339 1_555
O43 Zn10 2.091319 1_555
O44 S13 1.487339 1_555
O44 Zn9 2.044221 1_555
O45 S14 1.467999 1_555
O45 Zn10 1.993769 1_555
O46 S9 1.479080 1_555
O46 Zn9 2.023387 1_555
O47 S10 1.475903 1_555
O47 Zn10 2.047754 1_555
O48 S21 1.489853 1_555
O48 Zn11 2.140188 1_556
O49 S22 1.474214 1_555
O49 Zn12 2.084893 1_556
O50 S23 1.478280 1_555
O50 Zn11 2.042941 1_556
O51 S24 1.471408 1_555
O51 Zn12 2.060709 1_556
O52 S25 1.483547 1_555
O52 Zn11 2.018214 1_556
O53 S26 1.480111 1_555
O53 Zn12 2.076303 1_556
O54 S27 1.497930 1_555
O54 Zn13 2.117364 1_555
O55 S28 1.477331 1_555
O55 Zn14 2.081131 1_555
O56 S29 1.480514 1_555
O56 Zn13 2.012715 1_555
O57 S30 1.465927 1_555
O57 Zn14 2.018762 1_555
O58 S31 1.481520 1_555
O58 Zn13 1.972262 1_555
O59 S32 1.468245 1_555
O59 Zn14 2.042380 1_555
O60 S31 1.500564 1_555
O60 Zn15 2.069074 1_555
O61 S32 1.498426 1_555
O61 Ti5 2.042338 1_555
O62 S27 1.478111 1_555
O62 Zn15 2.037340 1_555
O63 S28 1.541396 1_555
O63 Ti5 1.912405 1_555
O64 S29 1.488767 1_555
O64 Zn15 2.023859 1_555
O65 S30 1.535989 1_555
O65 Ti5 1.981501 1_555
O66 S23 1.462430 1_555
O66 Zn16 2.100671 1_555
O67 S24 1.463840 1_555
O67 Zn17 2.095495 1_555
O68 S25 1.465159 1_555
O68 Zn16 2.021701 1_555
O69 S26 1.467208 1_555
O69 Zn17 2.016060 1_555
O70 S21 1.458348 1_555
O70 Zn16 2.068188 1_555
O71 S22 1.462244 1_555
O71 Zn17 2.062000 1_555
O72 S31 1.478579 1_555
O72 Zn0 2.124720 1_555
O73 S32 1.495019 1_555
O73 Zn1 2.169754 1_565
O74 S27 1.506436 1_555
O74 Zn1 2.128019 1_565
O75 S28 1.462241 1_555
O75 Zn0 2.174022 1_655
O76 S29 1.470326 1_555
O76 Zn0 2.120461 1_545
O77 S30 1.478413 1_555
O77 Zn1 2.127273 1_555
O78 S23 1.546321 1_555
O78 Ti0 1.977204 1_455
O79 S24 1.550139 1_555
O79 Ti1 1.964434 1_555
O80 S25 1.512019 1_555
O80 Ti0 2.122196 1_465
O81 S26 1.516889 1_555
O81 Ti1 2.119497 1_565
O82 S21 1.537486 1_555
O82 Ti1 2.000729 1_565
O83 S22 1.546304 1_555
O83 Ti0 1.984684 1_565
O84 S9 1.482168 1_555
O84 Zn3 2.246783 1_545
O85 S10 1.479612 1_555
O85 Zn2 2.230192 1_545
O86 S11 1.466975 1_555
O86 Zn2 2.134734 1_445
O87 S12 1.473259 1_555
O87 Zn3 2.156152 1_545
O88 S13 1.490950 1_555
O88 Zn3 2.214531 1_555
O89 S14 1.490410 1_555
O89 Zn2 2.200733 1_555
O90 S15 1.506585 1_555
O90 Zn4 2.135568 1_565
O91 S16 1.531257 1_555
O91 Ti2 2.024490 1_555
O92 S17 1.504340 1_555
O92 Zn4 2.132565 1_555
O93 S18 1.541894 1_555
O93 Ti2 1.984959 1_545
O94 S19 1.493991 1_555
O94 Ti2 2.132572 1_445
O95 S20 1.492390 1_555
O95 Zn4 2.075636 1_555
O96 Si1 1.712300 1_545
O96 Ti3 1.786413 1_555
O97 Si2 1.709002 1_545
O97 Ti4 1.791151 1_555
O98 S5 1.523112 1_555
O98 Ti3 2.017884 1_555
O99 S6 1.518226 1_555
O99 Ti4 2.030830 1_555
O100 S8 1.526918 1_555
O100 Ti3 2.003155 1_555
O101 S7 1.523671 1_555
O101 Ti4 2.012314 1_555
O102 S2 1.484222 1_555
O102 Zn5 2.138273 1_555
O103 Si0 1.620874 1_555
O103 Zn6 2.023411 1_555
O104 S4 1.461903 1_555
O104 Zn5 2.162128 1_555
O105 S3 1.488548 1_655
O105 Zn6 2.183008 1_555
O106 S0 1.474071 1_555
O106 Zn5 2.101655 1_555
O107 S1 1.479782 1_545
O107 Zn6 2.215274 1_555
O108 S21 1.477146 1_555
O108 Zn7 2.158615 1_555
O109 S22 1.478647 1_555
O109 Zn8 2.135491 1_555
O110 S24 1.477997 1_555
O110 Zn7 2.160280 1_555
O111 S23 1.477244 1_655
O111 Zn8 2.173593 1_555
O112 S25 1.486495 1_545
O112 Zn7 2.106476 1_555
O113 S26 1.489089 1_545
O113 Zn8 2.103863 1_555
O114 S27 1.476017 1_545
O114 Zn9 2.082168 1_555
O115 S28 1.476388 1_545
O115 Zn10 2.201810 1_555
O116 S29 1.510140 1_555
O116 Zn9 2.120396 1_555
O117 S30 1.472251 1_555
O117 Zn10 2.192657 1_555
O118 S32 1.490957 1_555
O118 Zn9 2.232135 1_555
O119 S31 1.492239 1_655
O119 Zn10 2.062720 1_555
O120 S19 1.497437 1_555
O120 Zn11 2.224714 1_555
O121 S20 1.485409 1_555
O121 Zn12 2.138689 1_555
O122 S16 1.477794 1_455
O122 Zn11 2.111288 1_555
O123 S15 1.478547 1_555
O123 Zn12 2.129916 1_555
O124 S17 1.504953 1_565
O124 Zn11 2.170033 1_555
O125 S18 1.474767 1_565
O125 Zn12 2.181997 1_555
O126 S11 1.492427 1_565
O126 Zn13 2.256726 1_555
O127 S12 1.495544 1_565
O127 Zn14 2.214759 1_555
O128 S13 1.499237 1_555
O128 Zn13 2.234497 1_555
O129 S14 1.505077 1_555
O129 Zn14 2.174639 1_555
O130 S10 1.478209 1_455
O130 Zn13 2.125276 1_555
O131 S9 1.474244 1_555
O131 Zn14 2.102335 1_555
O132 S0 1.499476 1_565
O132 Zn15 2.253534 1_555
O133 S1 1.508371 1_555
O133 Ti5 1.994862 1_555
O134 S2 1.492248 1_555
O134 Zn15 2.096853 1_555
O135 Si0 1.678174 1_555
O135 Ti5 1.847254 1_555
O136 S3 1.497664 1_555
O136 Zn15 2.216735 1_555
O137 S4 1.532018 1_555
O137 Ti5 2.059219 1_555
O138 S5 1.462424 1_555
O138 Zn16 2.171575 1_555
O139 S6 1.461621 1_555
O139 Zn17 2.176813 1_555
O140 S7 1.463645 1_455
O140 Zn16 2.156898 1_555
O141 S8 1.461814 1_555
O141 Zn17 2.166229 1_555
O142 Si1 1.584604 1_555
O142 Zn16 1.942651 1_555
O143 Si2 1.584704 1_555
O143 Zn17 1.942444 1_555
