# generated using pymatgen
data_K3TlF6
_symmetry_space_group_name_H-M   'P 1'
_cell_length_a   9.09698683
_cell_length_b   9.09698683
_cell_length_c   9.09698683
_cell_angle_alpha   90.00000000
_cell_angle_beta   90.00000000
_cell_angle_gamma   90.00000000
_symmetry_Int_Tables_number   1
_chemical_formula_structural   K3TlF6
_chemical_formula_sum   'K12 Tl4 F24'
_cell_volume   752.82268601
_cell_formula_units_Z   4
loop_
 _symmetry_equiv_pos_site_id
 _symmetry_equiv_pos_as_xyz
  1  'x, y, z'
loop_
 _atom_site_type_symbol
 _atom_site_label
 _atom_site_symmetry_multiplicity
 _atom_site_fract_x
 _atom_site_fract_y
 _atom_site_fract_z
 _atom_site_occupancy
  K  K0  1  0.50000000  0.50000000  0.50000000  1
  K  K1  1  -0.00000000  0.00000000  -0.00000000  1
  K  K2  1  0.75000000  0.25000000  0.75000000  1
  K  K3  1  0.25000000  0.75000000  0.75000000  1
  K  K4  1  0.25000000  0.25000000  0.25000000  1
  K  K5  1  0.75000000  0.75000000  0.25000000  1
  K  K6  1  0.50000000  0.50000000  -0.00000000  1
  K  K7  1  0.50000000  0.00000000  0.50000000  1
  K  K8  1  -0.00000000  0.50000000  0.50000000  1
  K  K9  1  -0.00000000  0.00000000  0.50000000  1
  K  K10  1  -0.00000000  0.50000000  -0.00000000  1
  K  K11  1  0.50000000  0.00000000  -0.00000000  1
  Tl  Tl0  1  0.25000000  0.75000000  0.25000000  1
  Tl  Tl1  1  0.75000000  0.25000000  0.25000000  1
  Tl  Tl2  1  0.75000000  0.75000000  0.75000000  1
  Tl  Tl3  1  0.25000000  0.25000000  0.75000000  1
  F  F0  1  0.20858144  0.69450021  0.47843390  1
  F  F1  1  0.30549979  0.52156610  0.20858144  1
  F  F2  1  0.47843390  0.79141856  0.30549979  1
  F  F3  1  0.52156610  0.20858144  0.30549979  1
  F  F4  1  0.69450021  0.52156610  0.79141856  1
  F  F5  1  0.69450021  0.47843390  0.20858144  1
  F  F6  1  0.47843390  0.20858144  0.69450021  1
  F  F7  1  0.30549979  0.47843390  0.79141856  1
  F  F8  1  0.52156610  0.79141856  0.69450021  1
  F  F9  1  0.79141856  0.69450021  0.52156610  1
  F  F10  1  0.79141856  0.30549979  0.47843390  1
  F  F11  1  0.20858144  0.30549979  0.52156610  1
  F  F12  1  0.29141856  0.80549979  0.02156610  1
  F  F13  1  0.19450021  0.97843390  0.29141856  1
  F  F14  1  0.02156610  0.70858144  0.19450021  1
  F  F15  1  0.97843390  0.29141856  0.19450021  1
  F  F16  1  0.80549979  0.97843390  0.70858144  1
  F  F17  1  0.80549979  0.02156610  0.29141856  1
  F  F18  1  0.02156610  0.29141856  0.80549979  1
  F  F19  1  0.19450021  0.02156610  0.70858144  1
  F  F20  1  0.97843390  0.70858144  0.80549979  1
  F  F21  1  0.70858144  0.80549979  0.97843390  1
  F  F22  1  0.70858144  0.19450021  0.02156610  1
  F  F23  1  0.29141856  0.19450021  0.97843390  1
loop_
_geom_bond_atom_site_label_1
_geom_bond_atom_site_label_2
_geom_bond_distance
_geom_bond_site_symmetry_2
F0 Tl0 2.171452 1_555
F0 K3 2.549492 1_555
F0 K8 2.601828 1_555
F0 K0 3.193291 1_555
F1 Tl0 2.171452 1_555
F1 K4 2.549492 1_555
F1 K6 2.601828 1_555
F1 K0 3.193291 1_555
F2 Tl0 2.171452 1_555
F2 K5 2.549492 1_555
F2 K7 2.601828 1_565
F2 K0 3.193291 1_555
F3 Tl1 2.171452 1_555
F3 K4 2.549492 1_555
F3 K7 2.601828 1_555
F3 K0 3.193291 1_555
F4 Tl2 2.171452 1_555
F4 K2 2.549492 1_555
F4 K6 2.601828 1_556
F4 K0 3.193291 1_555
F5 Tl1 2.171452 1_555
F5 K5 2.549492 1_555
F5 K6 2.601828 1_555
F5 K0 3.193291 1_555
F6 Tl3 2.171452 1_555
F6 K2 2.549492 1_555
F6 K7 2.601828 1_555
F6 K0 3.193291 1_555
F7 Tl3 2.171452 1_555
F7 K3 2.549492 1_555
F7 K6 2.601828 1_556
F7 K0 3.193291 1_555
F8 Tl2 2.171452 1_555
F8 K3 2.549492 1_555
F8 K7 2.601828 1_565
F8 K0 3.193291 1_555
F9 Tl2 2.171452 1_555
F9 K5 2.549492 1_555
F9 K8 2.601828 1_655
F9 K0 3.193291 1_555
F10 Tl1 2.171452 1_555
F10 K2 2.549492 1_555
F10 K8 2.601828 1_655
F10 K0 3.193291 1_555
F11 Tl3 2.171452 1_555
F11 K4 2.549492 1_555
F11 K8 2.601828 1_555
F11 K0 3.193291 1_555
F12 Tl0 2.171452 1_555
F12 K3 2.549492 1_554
F12 K11 2.601828 1_565
F12 K1 3.193291 1_565
F13 Tl0 2.171452 1_555
F13 K4 2.549492 1_565
F13 K9 2.601828 1_565
F13 K1 3.193291 1_565
F14 Tl0 2.171452 1_555
F14 K5 2.549492 1_455
F14 K10 2.601828 1_555
F14 K1 3.193291 1_565
F15 Tl1 2.171452 1_555
F15 K4 2.549492 1_655
F15 K10 2.601828 1_655
F15 K1 3.193291 1_655
F16 Tl2 2.171452 1_555
F16 K2 2.549492 1_565
F16 K9 2.601828 1_665
F16 K1 3.193291 1_666
F17 Tl1 2.171452 1_555
F17 K5 2.549492 1_545
F17 K9 2.601828 1_655
F17 K1 3.193291 1_655
F18 Tl3 2.171452 1_555
F18 K2 2.549492 1_455
F18 K10 2.601828 1_556
F18 K1 3.193291 1_556
F19 Tl3 2.171452 1_555
F19 K3 2.549492 1_545
F19 K9 2.601828 1_555
F19 K1 3.193291 1_556
F20 Tl2 2.171452 1_555
F20 K3 2.549492 1_655
F20 K10 2.601828 1_656
F20 K1 3.193291 1_666
F21 Tl2 2.171452 1_555
F21 K5 2.549492 1_556
F21 K11 2.601828 1_566
F21 K1 3.193291 1_666
F22 Tl1 2.171452 1_555
F22 K2 2.549492 1_554
F22 K11 2.601828 1_555
F22 K1 3.193291 1_655
F23 Tl3 2.171452 1_555
F23 K4 2.549492 1_556
F23 K11 2.601828 1_556
F23 K1 3.193291 1_556
