# generated using pymatgen
data_Sr(NiP)2
_symmetry_space_group_name_H-M   'P 1'
_cell_length_a   3.90581840
_cell_length_b   8.17812597
_cell_length_c   8.17812518
_cell_angle_alpha   81.55475453
_cell_angle_beta   76.18446732
_cell_angle_gamma   76.18447142
_symmetry_Int_Tables_number   1
_chemical_formula_structural   Sr(NiP)2
_chemical_formula_sum   'Sr3 Ni6 P6'
_cell_volume   245.21117670
_cell_formula_units_Z   3
loop_
 _symmetry_equiv_pos_site_id
 _symmetry_equiv_pos_as_xyz
  1  'x, y, z'
loop_
 _atom_site_type_symbol
 _atom_site_label
 _atom_site_symmetry_multiplicity
 _atom_site_fract_x
 _atom_site_fract_y
 _atom_site_fract_z
 _atom_site_occupancy
  Sr  Sr0  1  0.68656672  0.31343328  0.31343328  1
  Sr  Sr1  1  0.31343328  0.68656672  0.68656672  1
  Sr  Sr2  1  -0.00000000  0.00000000  0.00000000  1
  Ni  Ni0  1  0.15423066  0.58258583  0.10895185  1
  Ni  Ni1  1  0.50000000  0.27488334  0.72511666  1
  Ni  Ni2  1  0.50000000  0.72511666  0.27488334  1
  Ni  Ni3  1  0.15423066  0.10895185  0.58258583  1
  Ni  Ni4  1  0.84576934  0.41741417  0.89104815  1
  Ni  Ni5  1  0.84576934  0.89104815  0.41741417  1
  P  P0  1  0.33593880  0.32819384  -0.00007144  1
  P  P1  1  0.66406120  0.67180616  0.00007144  1
  P  P2  1  0.66406120  0.00007144  0.67180616  1
  P  P3  1  0.00000000  0.38367536  0.61632464  1
  P  P4  1  0.33593880  -0.00007144  0.32819384  1
  P  P5  1  -0.00000000  0.61632464  0.38367536  1
loop_
_geom_bond_atom_site_label_1
_geom_bond_atom_site_label_2
_geom_bond_distance
_geom_bond_site_symmetry_2
Ni0 P5 2.223308 1_555
Ni0 P1 2.224142 1_455
Ni0 P1 2.224146 1_555
Ni0 P0 2.272528 1_555
Ni0 Sr0 3.218434 1_455
Ni0 Sr0 3.218437 1_555
Ni0 Sr2 3.345255 1_565
Ni0 Sr1 3.377274 1_554
Ni1 P0 2.262362 1_556
Ni1 P2 2.262363 1_555
Ni1 P3 2.272559 1_655
Ni1 P3 2.272559 1_555
Ni1 Sr0 3.254528 1_555
Ni1 Sr1 3.254528 1_555
Ni2 P1 2.262362 1_555
Ni2 P4 2.262363 1_565
Ni2 P5 2.272559 1_555
Ni2 P5 2.272559 1_655
Ni2 Sr1 3.254528 1_555
Ni2 Sr0 3.254528 1_555
Ni3 P3 2.223309 1_555
Ni3 P2 2.224142 1_455
Ni3 P2 2.224146 1_555
Ni3 P4 2.272528 1_555
Ni3 Sr0 3.218434 1_455
Ni3 Sr0 3.218437 1_555
Ni3 Sr2 3.345254 1_556
Ni3 Sr1 3.377274 1_545
Ni4 P3 2.223308 1_655
Ni4 P0 2.224142 1_656
Ni4 P0 2.224146 1_556
Ni4 P1 2.272528 1_556
Ni4 Sr1 3.218434 1_655
Ni4 Sr1 3.218437 1_555
Ni4 Sr2 3.345255 1_656
Ni4 Sr0 3.377274 1_556
Ni5 P5 2.223309 1_655
Ni5 P4 2.224142 1_665
Ni5 P4 2.224146 1_565
Ni5 P2 2.272528 1_565
Ni5 Sr1 3.218434 1_655
Ni5 Sr1 3.218437 1_555
Ni5 Sr2 3.345254 1_665
Ni5 Sr0 3.377274 1_565
P0 Sr0 3.157629 1_455
P0 Sr0 3.157630 1_555
P0 Sr2 3.256791 1_555
P0 Sr2 3.256792 1_655
P1 Sr1 3.157629 1_654
P1 Sr1 3.157630 1_554
P1 Sr2 3.256791 1_665
P1 Sr2 3.256792 1_565
P2 Sr1 3.157630 1_545
P2 Sr1 3.157630 1_645
P2 Sr2 3.256791 1_556
P2 Sr2 3.256791 1_656
P3 P5 2.485304 1_555
P3 Sr0 3.188535 1_555
P3 Sr0 3.188535 1_455
P3 Sr1 3.188535 1_555
P3 Sr1 3.188535 1_455
P4 Sr0 3.157630 1_555
P4 Sr0 3.157630 1_455
P4 Sr2 3.256791 1_655
P4 Sr2 3.256791 1_555
P5 Sr1 3.188535 1_455
P5 Sr1 3.188535 1_555
P5 Sr0 3.188535 1_455
P5 Sr0 3.188535 1_555
