# generated using pymatgen
data_Na6Zn3P4H6O19
_symmetry_space_group_name_H-M   'P 1'
_cell_length_a   12.08143700
_cell_length_b   12.08143700
_cell_length_c   12.08143700
_cell_angle_alpha   90.00000000
_cell_angle_beta   90.00000000
_cell_angle_gamma   90.00000000
_symmetry_Int_Tables_number   1
_chemical_formula_structural   Na6Zn3P4H6O19
_chemical_formula_sum   'Na24 Zn12 P16 H24 O76'
_cell_volume   1763.42007555
_cell_formula_units_Z   4
loop_
 _symmetry_equiv_pos_site_id
 _symmetry_equiv_pos_as_xyz
  1  'x, y, z'
loop_
 _atom_site_type_symbol
 _atom_site_label
 _atom_site_symmetry_multiplicity
 _atom_site_fract_x
 _atom_site_fract_y
 _atom_site_fract_z
 _atom_site_occupancy
  Na  Na0  1  0.32755200  0.50604000  0.24810200  1
  Na  Na1  1  0.24810200  0.32755200  0.50604000  1
  Na  Na2  1  0.50604000  0.24810200  0.32755200  1
  Na  Na3  1  0.99396000  0.75189800  0.82755200  1
  Na  Na4  1  0.74810200  0.17244800  0.49396000  1
  Na  Na5  1  0.49396000  0.74810200  0.17244800  1
  Na  Na6  1  0.25189800  0.67244800  0.00604000  1
  Na  Na7  1  0.75189800  0.82755200  0.99396000  1
  Na  Na8  1  0.00604000  0.25189800  0.67244800  1
  Na  Na9  1  0.82755200  0.99396000  0.75189800  1
  Na  Na10  1  0.67244800  0.00604000  0.25189800  1
  Na  Na11  1  0.17244800  0.49396000  0.74810200  1
  Na  Na12  1  0.42371200  0.00979100  0.74041200  1
  Na  Na13  1  0.74041200  0.42371200  0.00979100  1
  Na  Na14  1  0.00979100  0.74041200  0.42371200  1
  Na  Na15  1  0.49020900  0.25958800  0.92371200  1
  Na  Na16  1  0.24041200  0.07628800  0.99020900  1
  Na  Na17  1  0.99020900  0.24041200  0.07628800  1
  Na  Na18  1  0.75958800  0.57628800  0.50979100  1
  Na  Na19  1  0.25958800  0.92371200  0.49020900  1
  Na  Na20  1  0.50979100  0.75958800  0.57628800  1
  Na  Na21  1  0.92371200  0.49020900  0.25958800  1
  Na  Na22  1  0.57628800  0.50979100  0.75958800  1
  Na  Na23  1  0.07628800  0.99020900  0.24041200  1
  Zn  Zn0  1  0.37503200  0.00239900  0.24252800  1
  Zn  Zn1  1  0.24252800  0.37503200  0.00239900  1
  Zn  Zn2  1  0.00239900  0.24252800  0.37503200  1
  Zn  Zn3  1  0.49760100  0.75747200  0.87503200  1
  Zn  Zn4  1  0.74252800  0.12496800  0.99760100  1
  Zn  Zn5  1  0.99760100  0.74252800  0.12496800  1
  Zn  Zn6  1  0.25747200  0.62496800  0.50239900  1
  Zn  Zn7  1  0.75747200  0.87503200  0.49760100  1
  Zn  Zn8  1  0.50239900  0.25747200  0.62496800  1
  Zn  Zn9  1  0.87503200  0.49760100  0.75747200  1
  Zn  Zn10  1  0.62496800  0.50239900  0.25747200  1
  Zn  Zn11  1  0.12496800  0.99760100  0.74252800  1
  P  P0  1  0.51826100  0.98173900  0.01826100  1
  P  P1  1  0.01826100  0.51826100  0.98173900  1
  P  P2  1  0.98173900  0.01826100  0.51826100  1
  P  P3  1  0.48173900  0.48173900  0.48173900  1
  P  P4  1  0.53102300  0.03102300  0.46897700  1
  P  P5  1  0.46897700  0.53102300  0.03102300  1
  P  P6  1  0.03102300  0.46897700  0.53102300  1
  P  P7  1  0.96897700  0.96897700  0.96897700  1
  P  P8  1  0.21858500  0.78141500  0.28141500  1
  P  P9  1  0.28141500  0.21858500  0.78141500  1
  P  P10  1  0.78141500  0.28141500  0.21858500  1
  P  P11  1  0.71858500  0.71858500  0.71858500  1
  P  P12  1  0.23119500  0.23119500  0.23119500  1
  P  P13  1  0.26880500  0.76880500  0.73119500  1
  P  P14  1  0.73119500  0.26880500  0.76880500  1
  P  P15  1  0.76880500  0.73119500  0.26880500  1
  H  H0  1  0.54845200  0.17624800  0.11596500  1
  H  H1  1  0.11596500  0.54845200  0.17624800  1
  H  H2  1  0.17624800  0.11596500  0.54845200  1
  H  H3  1  0.32375200  0.88403500  0.04845200  1
  H  H4  1  0.61596500  0.95154800  0.82375200  1
  H  H5  1  0.82375200  0.61596500  0.95154800  1
  H  H6  1  0.38403500  0.45154800  0.67624800  1
  H  H7  1  0.88403500  0.04845200  0.32375200  1
  H  H8  1  0.67624800  0.38403500  0.45154800  1
  H  H9  1  0.04845200  0.32375200  0.88403500  1
  H  H10  1  0.45154800  0.67624800  0.38403500  1
  H  H11  1  0.95154800  0.82375200  0.61596500  1
  H  H12  1  0.42410300  0.20484000  0.13326000  1
  H  H13  1  0.13326000  0.42410300  0.20484000  1
  H  H14  1  0.20484000  0.13326000  0.42410300  1
  H  H15  1  0.29516000  0.86674000  0.92410300  1
  H  H16  1  0.63326000  0.07589700  0.79516000  1
  H  H17  1  0.79516000  0.63326000  0.07589700  1
  H  H18  1  0.36674000  0.57589700  0.70484000  1
  H  H19  1  0.86674000  0.92410300  0.29516000  1
  H  H20  1  0.70484000  0.36674000  0.57589700  1
  H  H21  1  0.92410300  0.29516000  0.86674000  1
  H  H22  1  0.57589700  0.70484000  0.36674000  1
  H  H23  1  0.07589700  0.79516000  0.63326000  1
  O  O0  1  0.44579800  0.05420200  0.94579800  1
  O  O1  1  0.94579800  0.44579800  0.05420200  1
  O  O2  1  0.05420200  0.94579800  0.44579800  1
  O  O3  1  0.55420200  0.55420200  0.55420200  1
  O  O4  1  0.45815800  0.95815800  0.54184200  1
  O  O5  1  0.54184200  0.45815800  0.95815800  1
  O  O6  1  0.95815800  0.54184200  0.45815800  1
  O  O7  1  0.04184200  0.04184200  0.04184200  1
  O  O8  1  0.29129100  0.70870900  0.20870900  1
  O  O9  1  0.20870900  0.29129100  0.70870900  1
  O  O10  1  0.70870900  0.20870900  0.29129100  1
  O  O11  1  0.79129100  0.79129100  0.79129100  1
  O  O12  1  0.30407000  0.30407000  0.30407000  1
  O  O13  1  0.19593000  0.69593000  0.80407000  1
  O  O14  1  0.80407000  0.19593000  0.69593000  1
  O  O15  1  0.69593000  0.80407000  0.19593000  1
  O  O16  1  0.45139200  0.92852100  0.11649200  1
  O  O17  1  0.11649200  0.45139200  0.92852100  1
  O  O18  1  0.92852100  0.11649200  0.45139200  1
  O  O19  1  0.57147900  0.88350800  0.95139200  1
  O  O20  1  0.61649200  0.04860800  0.07147900  1
  O  O21  1  0.07147900  0.61649200  0.04860800  1
  O  O22  1  0.38350800  0.54860800  0.42852100  1
  O  O23  1  0.88350800  0.95139200  0.57147900  1
  O  O24  1  0.42852100  0.38350800  0.54860800  1
  O  O25  1  0.95139200  0.57147900  0.88350800  1
  O  O26  1  0.54860800  0.42852100  0.38350800  1
  O  O27  1  0.04860800  0.07147900  0.61649200  1
  O  O28  1  0.29905500  0.13526000  0.17471000  1
  O  O29  1  0.17471000  0.29905500  0.13526000  1
  O  O30  1  0.13526000  0.17471000  0.29905500  1
  O  O31  1  0.36474000  0.82529000  0.79905500  1
  O  O32  1  0.67471000  0.20094500  0.86474000  1
  O  O33  1  0.86474000  0.67471000  0.20094500  1
  O  O34  1  0.32529000  0.70094500  0.63526000  1
  O  O35  1  0.82529000  0.79905500  0.36474000  1
  O  O36  1  0.63526000  0.32529000  0.70094500  1
  O  O37  1  0.79905500  0.36474000  0.82529000  1
  O  O38  1  0.70094500  0.63526000  0.32529000  1
  O  O39  1  0.20094500  0.86474000  0.67471000  1
  O  O40  1  0.25633100  0.90560800  0.28684400  1
  O  O41  1  0.28684400  0.25633100  0.90560800  1
  O  O42  1  0.90560800  0.28684400  0.25633100  1
  O  O43  1  0.59439200  0.71315600  0.75633100  1
  O  O44  1  0.78684400  0.24366900  0.09439200  1
  O  O45  1  0.09439200  0.78684400  0.24366900  1
  O  O46  1  0.21315600  0.74366900  0.40560800  1
  O  O47  1  0.71315600  0.75633100  0.59439200  1
  O  O48  1  0.40560800  0.21315600  0.74366900  1
  O  O49  1  0.75633100  0.59439200  0.71315600  1
  O  O50  1  0.74366900  0.40560800  0.21315600  1
  O  O51  1  0.24366900  0.09439200  0.78684400  1
  O  O52  1  0.48443500  0.05034300  0.34899200  1
  O  O53  1  0.34899200  0.48443500  0.05034300  1
  O  O54  1  0.05034300  0.34899200  0.48443500  1
  O  O55  1  0.44965700  0.65100800  0.98443500  1
  O  O56  1  0.84899200  0.01556500  0.94965700  1
  O  O57  1  0.94965700  0.84899200  0.01556500  1
  O  O58  1  0.15100800  0.51556500  0.55034300  1
  O  O59  1  0.65100800  0.98443500  0.44965700  1
  O  O60  1  0.55034300  0.15100800  0.51556500  1
  O  O61  1  0.98443500  0.44965700  0.65100800  1
  O  O62  1  0.51556500  0.55034300  0.15100800  1
  O  O63  1  0.01556500  0.94965700  0.84899200  1
  O  O64  1  0.49807600  0.24000400  0.12676300  1
  O  O65  1  0.12676300  0.49807600  0.24000400  1
  O  O66  1  0.24000400  0.12676300  0.49807600  1
  O  O67  1  0.25999600  0.87323700  0.99807600  1
  O  O68  1  0.62676300  0.00192400  0.75999600  1
  O  O69  1  0.75999600  0.62676300  0.00192400  1
  O  O70  1  0.37323700  0.50192400  0.74000400  1
  O  O71  1  0.87323700  0.99807600  0.25999600  1
  O  O72  1  0.74000400  0.37323700  0.50192400  1
  O  O73  1  0.99807600  0.25999600  0.87323700  1
  O  O74  1  0.50192400  0.74000400  0.37323700  1
  O  O75  1  0.00192400  0.75999600  0.62676300  1
loop_
_geom_bond_atom_site_label_1
_geom_bond_atom_site_label_2
_geom_bond_distance
_geom_bond_site_symmetry_2
Na0 O22 2.339377 1_555
Na0 O53 2.417346 1_555
Na0 O65 2.429698 1_555
Na0 O8 2.532535 1_555
Na0 O12 2.547886 1_555
Na0 O62 2.611907 1_555
Na1 O24 2.339377 1_555
Na1 O54 2.417346 1_555
Na1 O66 2.429698 1_555
Na1 O9 2.532535 1_555
Na1 O12 2.547886 1_555
Na1 O58 2.611907 1_555
Na2 O26 2.339377 1_555
Na2 O52 2.417346 1_555
Na2 O64 2.429698 1_555
Na2 O10 2.532535 1_555
Na2 O12 2.547886 1_555
Na2 O60 2.611907 1_555
Na3 O25 2.339377 1_555
Na3 O63 2.417346 1_655
Na3 O75 2.429698 1_655
Na3 O11 2.532535 1_555
Na3 O13 2.547886 1_655
Na3 O57 2.611907 1_556
Na4 O18 2.339377 1_555
Na4 O60 2.417346 1_555
Na4 O72 2.429698 1_555
Na4 O10 2.532535 1_555
Na4 O14 2.547886 1_555
Na4 O59 2.611907 1_545
Na5 O16 2.339377 1_555
Na5 O62 2.417346 1_555
Na5 O74 2.429698 1_555
Na5 O8 2.532535 1_555
Na5 O15 2.547886 1_555
Na5 O55 2.611907 1_554
Na6 O21 2.339377 1_555
Na6 O55 2.417346 1_554
Na6 O67 2.429698 1_554
Na6 O8 2.532535 1_555
Na6 O13 2.547886 1_554
Na6 O53 2.611907 1_555
Na7 O19 2.339377 1_555
Na7 O57 2.417346 1_556
Na7 O69 2.429698 1_556
Na7 O11 2.532535 1_555
Na7 O15 2.547886 1_556
Na7 O56 2.611907 1_565
Na8 O27 2.339377 1_555
Na8 O61 2.417346 1_455
Na8 O73 2.429698 1_455
Na8 O9 2.532535 1_555
Na8 O14 2.547886 1_455
Na8 O54 2.611907 1_555
Na9 O23 2.339377 1_555
Na9 O56 2.417346 1_565
Na9 O68 2.429698 1_565
Na9 O11 2.532535 1_555
Na9 O14 2.547886 1_565
Na9 O63 2.611907 1_655
Na10 O20 2.339377 1_555
Na10 O59 2.417346 1_545
Na10 O71 2.429698 1_545
Na10 O10 2.532535 1_555
Na10 O15 2.547886 1_545
Na10 O52 2.611907 1_555
Na11 O17 2.339377 1_555
Na11 O58 2.417346 1_555
Na11 O70 2.429698 1_555
Na11 O9 2.532535 1_555
Na11 O13 2.547886 1_555
Na11 O61 2.611907 1_455
Na12 O31 2.445031 1_545
Na12 O68 2.466363 1_555
Na12 O48 2.466972 1_555
Na12 O51 2.467949 1_555
Na12 O4 2.513477 1_545
Na12 O0 2.552689 1_555
Na13 O37 2.445031 1_554
Na13 O69 2.466363 1_555
Na13 O50 2.466972 1_555
Na13 O44 2.467949 1_555
Na13 O5 2.513477 1_554
Na13 O1 2.552689 1_555
Na14 O35 2.445031 1_455
Na14 O75 2.466363 1_555
Na14 O46 2.466972 1_555
Na14 O45 2.467949 1_555
Na14 O6 2.513477 1_455
Na14 O2 2.552689 1_555
Na15 O32 2.445031 1_555
Na15 O64 2.466363 1_556
Na15 O41 2.466972 1_555
Na15 O48 2.467949 1_555
Na15 O5 2.513477 1_555
Na15 O0 2.552689 1_555
Na16 O28 2.445031 1_556
Na16 O67 2.466363 1_545
Na16 O51 2.466972 1_555
Na16 O41 2.467949 1_555
Na16 O7 2.513477 1_556
Na16 O0 2.552689 1_555
Na17 O29 2.445031 1_655
Na17 O73 2.466363 1_554
Na17 O44 2.466972 1_555
Na17 O42 2.467949 1_555
Na17 O7 2.513477 1_655
Na17 O1 2.552689 1_555
Na18 O38 2.445031 1_555
Na18 O72 2.466363 1_555
Na18 O49 2.466972 1_555
Na18 O47 2.467949 1_555
Na18 O6 2.513477 1_555
Na18 O3 2.552689 1_555
Na19 O39 2.445031 1_555
Na19 O66 2.466363 1_565
Na19 O40 2.466972 1_555
Na19 O46 2.467949 1_555
Na19 O4 2.513477 1_555
Na19 O2 2.552689 1_555
Na20 O34 2.445031 1_555
Na20 O74 2.466363 1_555
Na20 O47 2.466972 1_555
Na20 O43 2.467949 1_555
Na20 O4 2.513477 1_555
Na20 O3 2.552689 1_555
Na21 O33 2.445031 1_555
Na21 O65 2.466363 1_655
Na21 O42 2.466972 1_555
Na21 O50 2.467949 1_555
Na21 O6 2.513477 1_555
Na21 O1 2.552689 1_555
Na22 O36 2.445031 1_555
Na22 O70 2.466363 1_555
Na22 O43 2.466972 1_555
Na22 O49 2.467949 1_555
Na22 O5 2.513477 1_555
Na22 O3 2.552689 1_555
Na23 O30 2.445031 1_565
Na23 O71 2.466363 1_455
Na23 O45 2.466972 1_555
Na23 O40 2.467949 1_555
Na23 O7 2.513477 1_565
Na23 O2 2.552689 1_555
H0 O64 0.990322 1_555
H1 O65 0.990322 1_555
H2 O66 0.990322 1_555
H3 O67 0.990322 1_554
H4 O68 0.990322 1_565
H5 O69 0.990322 1_556
H6 O70 0.990322 1_555
H7 O71 0.990322 1_545
H8 O72 0.990322 1_555
H9 O73 0.990322 1_455
H10 O74 0.990322 1_555
H11 O75 0.990322 1_655
H12 O64 0.992644 1_555
H13 O65 0.992644 1_555
H14 O66 0.992644 1_555
H15 O67 0.992644 1_555
H16 O68 0.992644 1_555
H17 O69 0.992644 1_555
H18 O70 0.992644 1_555
H19 O71 0.992644 1_555
H20 O72 0.992644 1_555
H21 O73 0.992644 1_555
H22 O74 0.992644 1_555
H23 O75 0.992644 1_555
O0 P0 1.516336 1_546
O1 P1 1.516336 1_654
O2 P2 1.516336 1_465
O3 P3 1.516336 1_555
O4 P4 1.524748 1_565
O5 P5 1.524748 1_556
O6 P6 1.524748 1_655
O7 P7 1.524748 1_444
O8 P8 1.521421 1_555
O9 P9 1.521421 1_555
O10 P10 1.521421 1_555
O11 P11 1.521421 1_555
O12 P12 1.524958 1_555
O13 P13 1.524958 1_555
O14 P14 1.524958 1_555
O15 P15 1.524958 1_555
O16 P0 1.573045 1_555
O16 Zn0 1.991565 1_565
O17 P1 1.573045 1_555
O17 Zn1 1.991565 1_556
O18 P2 1.573045 1_555
O18 Zn2 1.991565 1_655
O19 P0 1.573045 1_556
O19 Zn3 1.991565 1_555
O20 P0 1.573045 1_545
O20 Zn4 1.991565 1_554
O21 P1 1.573045 1_554
O21 Zn5 1.991565 1_455
O22 P3 1.573045 1_555
O22 Zn6 1.991565 1_555
O23 P2 1.573045 1_565
O23 Zn7 1.991565 1_555
O24 P3 1.573045 1_555
O24 Zn8 1.991565 1_555
O25 P1 1.573045 1_655
O25 Zn9 1.991565 1_555
O26 P3 1.573045 1_555
O26 Zn10 1.991565 1_555
O27 P2 1.573045 1_455
O27 Zn11 1.991565 1_545
O28 P12 1.575183 1_555
O28 Zn0 2.022471 1_555
O29 P12 1.575183 1_555
O29 Zn1 2.022471 1_555
O30 P12 1.575183 1_555
O30 Zn2 2.022471 1_555
O31 P13 1.575183 1_555
O31 Zn3 2.022471 1_555
O32 P14 1.575183 1_555
O32 Zn4 2.022471 1_555
O33 P15 1.575183 1_555
O33 Zn5 2.022471 1_555
O34 P13 1.575183 1_555
O34 Zn6 2.022471 1_555
O35 P15 1.575183 1_555
O35 Zn7 2.022471 1_555
O36 P14 1.575183 1_555
O36 Zn8 2.022471 1_555
O37 P14 1.575183 1_555
O37 Zn9 2.022471 1_555
O38 P15 1.575183 1_555
O38 Zn10 2.022471 1_555
O39 P13 1.575183 1_555
O39 Zn11 2.022471 1_555
O40 P8 1.569571 1_555
O40 Zn0 1.926311 1_565
O41 P9 1.569571 1_555
O41 Zn1 1.926311 1_556
O42 P10 1.569571 1_555
O42 Zn2 1.926311 1_655
O43 P11 1.569571 1_555
O43 Zn3 1.926311 1_555
O44 P10 1.569571 1_555
O44 Zn4 1.926311 1_554
O45 P8 1.569571 1_555
O45 Zn5 1.926311 1_455
O46 P8 1.569571 1_555
O46 Zn6 1.926311 1_555
O47 P11 1.569571 1_555
O47 Zn7 1.926311 1_555
O48 P9 1.569571 1_555
O48 Zn8 1.926311 1_555
O49 P11 1.569571 1_555
O49 Zn9 1.926311 1_555
O50 P10 1.569571 1_555
O50 Zn10 1.926311 1_555
O51 P9 1.569571 1_555
O51 Zn11 1.926311 1_545
O52 P4 1.572449 1_555
O52 Zn0 1.933114 1_555
O53 P5 1.572449 1_555
O53 Zn1 1.933114 1_555
O54 P6 1.572449 1_555
O54 Zn2 1.933114 1_555
O55 P5 1.572449 1_556
O55 Zn3 1.933114 1_555
O56 P7 1.572449 1_545
O56 Zn4 1.933114 1_555
O57 P7 1.572449 1_554
O57 Zn5 1.933114 1_555
O58 P6 1.572449 1_555
O58 Zn6 1.933114 1_555
O59 P4 1.572449 1_565
O59 Zn7 1.933114 1_555
O60 P4 1.572449 1_555
O60 Zn8 1.933114 1_555
O61 P6 1.572449 1_655
O61 Zn9 1.933114 1_555
O62 P5 1.572449 1_555
O62 Zn10 1.933114 1_555
O63 P7 1.572449 1_455
O63 Zn11 1.933114 1_555
