# generated using pymatgen
data_Na3ScSiSn(PO6)2
_symmetry_space_group_name_H-M   'P 1'
_cell_length_a   9.05937510
_cell_length_b   9.05937479
_cell_length_c   22.40205037
_cell_angle_alpha   90.26670292
_cell_angle_beta   89.73329709
_cell_angle_gamma   119.98226265
_symmetry_Int_Tables_number   1
_chemical_formula_structural   Na3ScSiSn(PO6)2
_chemical_formula_sum   'Na18 Sc6 Si6 Sn6 P12 O72'
_cell_volume   1592.52474938
_cell_formula_units_Z   6
loop_
 _symmetry_equiv_pos_site_id
 _symmetry_equiv_pos_as_xyz
  1  'x, y, z'
loop_
 _atom_site_type_symbol
 _atom_site_label
 _atom_site_symmetry_multiplicity
 _atom_site_fract_x
 _atom_site_fract_y
 _atom_site_fract_z
 _atom_site_occupancy
  Na  Na0  1  0.00237775  0.99355223  0.49769075  1
  Na  Na1  1  0.00644777  0.99762225  0.99769075  1
  Na  Na2  1  0.66652881  0.32516087  0.83127312  1
  Na  Na3  1  0.67483913  0.33347119  0.33127312  1
  Na  Na4  1  0.35165048  0.67535415  0.16412808  1
  Na  Na5  1  0.32464585  0.64834952  0.66412808  1
  Na  Na6  1  0.36150453  0.36062139  0.24705426  1
  Na  Na7  1  0.99542712  0.62821482  0.24869431  1
  Na  Na8  1  0.63937861  0.63849547  0.74705426  1
  Na  Na9  1  0.37178518  0.00457288  0.74869431  1
  Na  Na10  1  0.03758993  0.70013853  0.57989375  1
  Na  Na11  1  0.65410050  0.96361428  0.58570421  1
  Na  Na12  1  0.29986147  0.96241007  0.07989375  1
  Na  Na13  1  0.03638572  0.34589950  0.08570421  1
  Na  Na14  1  0.97376724  0.67486569  0.91973059  1
  Na  Na15  1  0.69694165  0.02707341  0.91084160  1
  Na  Na16  1  0.97292659  0.30305835  0.41084160  1
  Na  Na17  1  0.32513431  0.02623276  0.41973059  1
  Sc  Sc0  1  0.99052430  0.99265559  0.35259212  1
  Sc  Sc1  1  0.00734441  0.00947570  0.85259212  1
  Sc  Sc2  1  0.66843773  0.32633032  0.68627770  1
  Sc  Sc3  1  0.67366968  0.33156227  0.18627770  1
  Sc  Sc4  1  0.33389105  0.66797789  0.01892158  1
  Sc  Sc5  1  0.33202211  0.66610895  0.51892158  1
  Si  Si0  1  0.00189712  0.29648479  0.25228495  1
  Si  Si1  1  0.70351521  0.99810288  0.75228495  1
  Si  Si2  1  0.36701633  0.03941006  0.58403801  1
  Si  Si3  1  0.96058994  0.63298367  0.08403801  1
  Si  Si4  1  0.33678478  0.96818950  0.91867620  1
  Si  Si5  1  0.03181050  0.66321522  0.41867620  1
  Sn  Sn0  1  0.00542993  0.00837113  0.64984527  1
  Sn  Sn1  1  0.99162887  0.99457007  0.14984527  1
  Sn  Sn2  1  0.66312462  0.33756006  0.98309397  1
  Sn  Sn3  1  0.66243994  0.33687538  0.48309397  1
  Sn  Sn4  1  0.33094306  0.66461902  0.31652280  1
  Sn  Sn5  1  0.33538098  0.66905694  0.81652280  1
  P  P0  1  0.29261326  0.99602185  0.25136712  1
  P  P1  1  0.70051697  0.70673155  0.25053512  1
  P  P2  1  0.29326845  0.29948303  0.75053512  1
  P  P3  1  0.00397815  0.70738674  0.75136712  1
  P  P4  1  0.95780981  0.32836344  0.58210000  1
  P  P5  1  0.67026614  0.63025360  0.58725575  1
  P  P6  1  0.67163656  0.04219019  0.08210000  1
  P  P7  1  0.36974640  0.32973386  0.08725575  1
  P  P8  1  0.62491588  0.66035362  0.91508793  1
  P  P9  1  0.03780523  0.37438911  0.91913085  1
  P  P10  1  0.62561089  0.96219477  0.41913085  1
  P  P11  1  0.33964638  0.37508412  0.41508793  1
  O  O0  1  0.20320760  0.01604735  0.30642572  1
  O  O1  1  0.81877898  0.79193919  0.30338489  1
  O  O2  1  0.98812514  0.18861460  0.31107494  1
  O  O3  1  0.20806081  0.18122102  0.80338489  1
  O  O4  1  0.98395265  0.79679240  0.80642572  1
  O  O5  1  0.81138540  0.01187486  0.81107494  1
  O  O6  1  0.78871232  0.96287799  0.69140868  1
  O  O7  1  0.18857343  0.22401572  0.69214004  1
  O  O8  1  0.04195723  0.82242302  0.69416469  1
  O  O9  1  0.77598428  0.81142657  0.19214004  1
  O  O10  1  0.03712201  0.21128768  0.19140868  1
  O  O11  1  0.17757698  0.95804277  0.19416469  1
  O  O12  1  0.86891068  0.35859340  0.63478706  1
  O  O13  1  0.48614610  0.13206614  0.64129257  1
  O  O14  1  0.65411503  0.53097731  0.64384214  1
  O  O15  1  0.86793386  0.51385390  0.14129257  1
  O  O16  1  0.64140660  0.13108932  0.13478706  1
  O  O17  1  0.46902269  0.34588497  0.14384214  1
  O  O18  1  0.45026426  0.29019948  0.03157502  1
  O  O19  1  0.85092259  0.54988905  0.02173748  1
  O  O20  1  0.70472665  0.15092495  0.02381712  1
  O  O21  1  0.45011095  0.14907741  0.52173748  1
  O  O22  1  0.70980052  0.54973574  0.53157502  1
  O  O23  1  0.84907505  0.29527335  0.52381712  1
  O  O24  1  0.52787441  0.68057061  0.96733710  1
  O  O25  1  0.13837471  0.45607387  0.97639864  1
  O  O26  1  0.31128444  0.84937672  0.97642068  1
  O  O27  1  0.54392613  0.86162529  0.47639864  1
  O  O28  1  0.31942939  0.47212559  0.46733710  1
  O  O29  1  0.15062328  0.68871556  0.47642068  1
  O  O30  1  0.11360721  0.62289145  0.35766143  1
  O  O31  1  0.50827819  0.87526181  0.36390907  1
  O  O32  1  0.36767638  0.47519443  0.35529667  1
  O  O33  1  0.12473819  0.49172181  0.86390907  1
  O  O34  1  0.37710855  0.88639279  0.85766143  1
  O  O35  1  0.52480557  0.63232362  0.85529667  1
  O  O36  1  0.02297164  0.83708930  0.41320157  1
  O  O37  1  0.80740055  0.99330248  0.41300748  1
  O  O38  1  0.17804454  0.19702835  0.41243639  1
  O  O39  1  0.00669752  0.19259945  0.91300748  1
  O  O40  1  0.16291070  0.97702836  0.91320157  1
  O  O41  1  0.80297165  0.82195546  0.91243639  1
  O  O42  1  0.96364549  0.15970440  0.58777786  1
  O  O43  1  0.17127048  0.00952749  0.58771151  1
  O  O44  1  0.83478907  0.81246980  0.58855207  1
  O  O45  1  0.99047251  0.82872952  0.08771151  1
  O  O46  1  0.84029560  0.03635451  0.08777786  1
  O  O47  1  0.18753020  0.16521093  0.08855207  1
  O  O48  1  0.67077631  0.15888384  0.74815431  1
  O  O49  1  0.47478569  0.32536144  0.74496149  1
  O  O50  1  0.84077099  0.53496342  0.74508062  1
  O  O51  1  0.67463856  0.52521431  0.24496149  1
  O  O52  1  0.84111616  0.32922369  0.24815431  1
  O  O53  1  0.46503658  0.15922901  0.24508062  1
  O  O54  1  0.65237155  0.50385460  0.91940405  1
  O  O55  1  0.85923748  0.36421364  0.92023128  1
  O  O56  1  0.51652177  0.15369986  0.92267025  1
  O  O57  1  0.63578636  0.14076252  0.42023128  1
  O  O58  1  0.49614540  0.34762845  0.41940405  1
  O  O59  1  0.84630014  0.48347823  0.42267025  1
  O  O60  1  0.34443418  0.48423877  0.07961371  1
  O  O61  1  0.15069135  0.65118013  0.08081844  1
  O  O62  1  0.51489806  0.86349391  0.07691427  1
  O  O63  1  0.34881987  0.84930865  0.58081844  1
  O  O64  1  0.51576123  0.65556582  0.57961371  1
  O  O65  1  0.13650609  0.48510194  0.57691427  1
  O  O66  1  0.31047802  0.83342045  0.25544802  1
  O  O67  1  0.52087523  0.68889985  0.25633605  1
  O  O68  1  0.18104654  0.48753276  0.25226660  1
  O  O69  1  0.31110015  0.47912477  0.75633605  1
  O  O70  1  0.16657955  0.68952198  0.75544802  1
  O  O71  1  0.51246724  0.81895346  0.75226660  1
loop_
_geom_bond_atom_site_label_1
_geom_bond_atom_site_label_2
_geom_bond_distance
_geom_bond_site_symmetry_2
Na0 O36 2.421253 1_555
Na0 O43 2.496718 1_565
Na0 O38 2.578901 1_565
Na0 O44 2.579235 1_455
Na0 O37 2.597334 1_455
Na0 O42 2.637185 1_465
Na1 O40 2.421253 1_555
Na1 O45 2.496718 1_456
Na1 O41 2.578901 1_455
Na1 O47 2.579235 1_566
Na1 O39 2.597334 1_565
Na1 O46 2.637185 1_466
Na2 O48 2.401861 1_555
Na2 O56 2.519073 1_555
Na2 O55 2.559880 1_555
Na2 O54 2.590454 1_555
Na2 O49 2.605864 1_555
Na2 O50 2.615298 1_555
Na3 O52 2.401861 1_555
Na3 O59 2.519073 1_555
Na3 O57 2.559880 1_555
Na3 O58 2.590454 1_555
Na3 O51 2.605864 1_555
Na3 O53 2.615298 1_555
Na4 O62 2.528682 1_555
Na4 O60 2.538512 1_555
Na4 O67 2.543886 1_555
Na4 O61 2.544573 1_555
Na4 O68 2.560672 1_555
Na4 O66 2.621883 1_555
Na5 O65 2.528682 1_555
Na5 O64 2.538512 1_555
Na5 O69 2.543886 1_555
Na5 O63 2.544573 1_555
Na5 O71 2.560672 1_555
Na5 O70 2.621883 1_555
Na6 O68 2.425659 1_555
Na6 O53 2.433030 1_555
Na6 O51 2.458604 1_555
Na6 O17 2.533538 1_555
Na6 O67 2.584171 1_555
Na6 O32 2.623017 1_555
Na6 O10 2.839900 1_555
Na7 O52 2.346617 1_555
Na7 O66 2.514639 1_655
Na7 O68 2.569578 1_655
Na7 O51 2.571884 1_555
Na7 O15 2.646323 1_555
Na7 O30 2.680397 1_655
Na7 O11 2.868929 1_655
Na7 O1 2.932459 1_555
Na8 O71 2.425659 1_555
Na8 O50 2.433030 1_555
Na8 O49 2.458604 1_555
Na8 O14 2.533538 1_555
Na8 O69 2.584171 1_555
Na8 O35 2.623017 1_555
Na8 O6 2.839900 1_555
Na9 O48 2.346617 1_555
Na9 O70 2.514639 1_545
Na9 O71 2.569578 1_545
Na9 O49 2.571884 1_555
Na9 O13 2.646323 1_555
Na9 O34 2.680397 1_545
Na9 O8 2.868929 1_545
Na9 O3 2.932459 1_555
Na10 O43 2.440943 1_565
Na10 O63 2.443063 1_555
Na10 O44 2.512417 1_455
Na10 O65 2.519045 1_555
Na10 O29 2.552265 1_555
Na10 O8 2.777170 1_555
Na10 O22 2.796198 1_455
Na10 O12 2.951869 1_455
Na11 O63 2.423326 1_555
Na11 O64 2.424839 1_555
Na11 O42 2.458331 1_565
Na11 O44 2.607775 1_555
Na11 O27 2.631706 1_555
Na11 O6 2.670167 1_555
Na11 O13 2.912082 1_565
Na11 O23 2.963354 1_565
Na12 O45 2.440943 1_455
Na12 O61 2.443063 1_555
Na12 O47 2.512417 1_565
Na12 O62 2.519045 1_555
Na12 O26 2.552265 1_554
Na12 O11 2.777170 1_555
Na12 O18 2.796198 1_565
Na12 O16 2.951869 1_565
Na13 O61 2.423326 1_555
Na13 O60 2.424839 1_555
Na13 O46 2.458331 1_455
Na13 O47 2.607775 1_555
Na13 O25 2.631706 1_554
Na13 O10 2.670167 1_555
Na13 O15 2.912082 1_455
Na13 O20 2.963354 1_455
Na14 O40 2.400884 1_655
Na14 O55 2.465511 1_555
Na14 O41 2.502324 1_555
Na14 O54 2.523796 1_555
Na14 O19 2.546265 1_556
Na14 O4 2.755619 1_555
Na14 O33 2.901730 1_655
Na14 O26 2.940702 1_655
Na15 O39 2.433219 1_655
Na15 O56 2.434111 1_555
Na15 O41 2.482330 1_545
Na15 O5 2.491437 1_555
Na15 O55 2.653913 1_555
Na15 O20 2.750528 1_556
Na15 O34 2.786796 1_545
Na16 O37 2.433219 1_545
Na16 O59 2.434111 1_555
Na16 O38 2.482330 1_655
Na16 O2 2.491437 1_555
Na16 O57 2.653913 1_555
Na16 O23 2.750528 1_555
Na16 O30 2.786796 1_655
Na17 O36 2.400884 1_545
Na17 O57 2.465511 1_555
Na17 O38 2.502324 1_555
Na17 O58 2.523796 1_555
Na17 O21 2.546265 1_555
Na17 O0 2.755619 1_555
Na17 O31 2.901730 1_545
Na17 O29 2.940702 1_545
O0 P0 1.531589 1_545
O0 Sc0 2.098188 1_445
O1 P1 1.523865 1_555
O1 Sc0 2.027825 1_555
O2 Si0 1.610491 1_655
O2 Sc0 2.017721 1_545
O3 P2 1.523865 1_555
O3 Sc1 2.027825 1_555
O4 P3 1.531589 1_655
O4 Sc1 2.098187 1_665
O5 Si1 1.610491 1_545
O5 Sc1 2.017721 1_655
O6 Si1 1.670241 1_555
O6 Sn0 2.017248 1_665
O7 P2 1.559951 1_555
O7 Sn0 2.055463 1_555
O8 P3 1.580044 1_555
O8 Sn0 2.123397 1_565
O9 P1 1.559951 1_555
O9 Sn1 2.055463 1_555
O10 Si0 1.670241 1_555
O10 Sn1 2.017248 1_445
O11 P0 1.580044 1_555
O11 Sn1 2.123397 1_455
O12 P4 1.524898 1_555
O12 Sc2 2.041447 1_555
O13 Si2 1.616139 1_555
O13 Sc2 1.983504 1_555
O14 P5 1.521380 1_555
O14 Sc2 2.148434 1_555
O15 Si3 1.616139 1_555
O15 Sc3 1.983504 1_555
O16 P6 1.524898 1_555
O16 Sc3 2.041447 1_555
O17 P7 1.521380 1_555
O17 Sc3 2.148434 1_555
O18 P7 1.569955 1_555
O18 Sn2 2.059175 1_554
O19 Si3 1.660498 1_555
O19 Sn2 2.017773 1_554
O20 P6 1.574215 1_555
O20 Sn2 2.118386 1_554
O21 Si2 1.660498 1_555
O21 Sn3 2.017773 1_555
O22 P5 1.569955 1_555
O22 Sn3 2.059175 1_555
O23 P4 1.574215 1_555
O23 Sn3 2.118386 1_555
O24 P8 1.525064 1_555
O24 Sc4 2.053949 1_556
O25 P9 1.533549 1_555
O25 Sc4 2.080939 1_556
O26 Si4 1.626955 1_555
O26 Sc4 2.000462 1_556
O27 P10 1.533549 1_555
O27 Sc5 2.080939 1_555
O28 P11 1.525064 1_555
O28 Sc5 2.053949 1_555
O29 Si5 1.626955 1_555
O29 Sc5 2.000462 1_555
O30 Si5 1.675514 1_555
O30 Sn4 2.027646 1_555
O31 P10 1.564283 1_555
O31 Sn4 2.069386 1_555
O32 P11 1.568151 1_555
O32 Sn4 2.097012 1_555
O33 P9 1.564283 1_555
O33 Sn5 2.069386 1_555
O34 Si4 1.675514 1_555
O34 Sn5 2.027646 1_555
O35 P8 1.568151 1_555
O35 Sn5 2.097012 1_555
O36 Si5 1.621923 1_555
O36 Sc0 2.086090 1_455
O37 P10 1.531307 1_555
O37 Sc0 2.138406 1_555
O38 P11 1.545474 1_555
O38 Sc0 2.228392 1_445
O39 P9 1.531307 1_555
O39 Sc1 2.138406 1_555
O40 Si4 1.621923 1_555
O40 Sc1 2.086090 1_565
O41 P8 1.545474 1_555
O41 Sc1 2.228392 1_665
O42 P4 1.560833 1_555
O42 Sn0 2.120743 1_655
O43 Si2 1.656445 1_555
O43 Sn0 2.039544 1_555
O44 P5 1.577414 1_555
O44 Sn0 2.163302 1_665
O45 Si3 1.656445 1_555
O45 Sn1 2.039544 1_555
O46 P6 1.560833 1_555
O46 Sn1 2.120743 1_545
O47 P7 1.577414 1_555
O47 Sn1 2.163302 1_445
O48 Si1 1.628322 1_545
O48 Sc2 2.067616 1_555
O49 P2 1.545236 1_555
O49 Sc2 2.183895 1_555
O50 P3 1.528891 1_655
O50 Sc2 2.189030 1_555
O51 P1 1.545236 1_555
O51 Sc3 2.183894 1_555
O52 Si0 1.628322 1_655
O52 Sc3 2.067616 1_555
O53 P0 1.528891 1_545
O53 Sc3 2.189030 1_555
O54 P8 1.560540 1_555
O54 Sn2 2.117264 1_555
O55 P9 1.573754 1_655
O55 Sn2 2.179244 1_555
O56 Si4 1.657923 1_545
O56 Sn2 2.038466 1_555
O57 P10 1.573754 1_545
O57 Sn3 2.179244 1_555
O58 P11 1.560540 1_555
O58 Sn3 2.117264 1_555
O59 Si5 1.657923 1_655
O59 Sn3 2.038466 1_555
O60 P7 1.537693 1_555
O60 Sc4 2.193094 1_555
O61 Si3 1.647287 1_455
O61 Sc4 2.104399 1_555
O62 P6 1.533888 1_565
O62 Sc4 2.146990 1_555
O63 Si2 1.647287 1_565
O63 Sc5 2.104399 1_555
O64 P5 1.537693 1_555
O64 Sc5 2.193094 1_555
O65 P4 1.533888 1_455
O65 Sc5 2.146990 1_555
O66 P0 1.563377 1_555
O66 Sn4 2.133100 1_555
O67 P1 1.557888 1_555
O67 Sn4 2.104729 1_555
O68 Si0 1.679923 1_555
O68 Sn4 2.075860 1_555
O69 P2 1.557888 1_555
O69 Sn5 2.104729 1_555
O70 P3 1.563377 1_555
O70 Sn5 2.133100 1_555
O71 Si1 1.679923 1_555
O71 Sn5 2.075860 1_555
