# generated using pymatgen
data_MgCr2(Fe2O5)2
_symmetry_space_group_name_H-M   'P 1'
_cell_length_a   3.85601666
_cell_length_b   5.34964927
_cell_length_c   10.50223569
_cell_angle_alpha   95.67433794
_cell_angle_beta   90.00000119
_cell_angle_gamma   111.12469122
_symmetry_Int_Tables_number   1
_chemical_formula_structural   MgCr2(Fe2O5)2
_chemical_formula_sum   'Mg1 Cr2 Fe4 O10'
_cell_volume   200.94637328
_cell_formula_units_Z   1
loop_
 _symmetry_equiv_pos_site_id
 _symmetry_equiv_pos_as_xyz
  1  'x, y, z'
loop_
 _atom_site_type_symbol
 _atom_site_label
 _atom_site_symmetry_multiplicity
 _atom_site_fract_x
 _atom_site_fract_y
 _atom_site_fract_z
 _atom_site_occupancy
  Mg  Mg0  1  0.50000000  0.00000000  0.00000000  1
  Cr  Cr0  1  0.16149905  0.32299811  0.26491711  1
  Cr  Cr1  1  0.83850095  0.67700189  0.73508289  1
  Fe  Fe0  1  0.14438852  0.28877705  0.55268145  1
  Fe  Fe1  1  0.17314071  0.34628142  0.89554152  1
  Fe  Fe2  1  0.85561148  0.71122295  0.44731855  1
  Fe  Fe3  1  0.82685929  0.65371858  0.10445848  1
  O  O0  1  0.29745208  0.59490315  0.42323098  1
  O  O1  1  0.31309261  0.62618423  0.06334965  1
  O  O2  1  0.02009049  0.04018098  0.11885818  1
  O  O3  1  0.03168451  0.06336902  0.38596013  1
  O  O4  1  0.28059284  0.56118667  0.75148232  1
  O  O5  1  0.71940716  0.43881333  0.24851768  1
  O  O6  1  0.96831549  0.93663098  0.61403987  1
  O  O7  1  0.70254792  0.40509685  0.57676902  1
  O  O8  1  0.68690739  0.37381577  0.93665035  1
  O  O9  1  0.97990951  0.95981902  0.88114182  1
loop_
_geom_bond_atom_site_label_1
_geom_bond_atom_site_label_2
_geom_bond_distance
_geom_bond_site_symmetry_2
Mg0 O1 2.045834 1_545
Mg0 O8 2.045834 1_554
Mg0 O2 2.294026 1_555
Mg0 O9 2.294026 1_544
Mg0 O2 2.294026 1_655
Mg0 O9 2.294026 1_444
Cr0 O3 1.908848 1_555
Cr0 O2 1.971247 1_555
Cr0 O5 2.025335 1_455
Cr0 O5 2.025339 1_555
Cr0 O0 2.031547 1_555
Cr1 O6 1.908848 1_555
Cr1 O9 1.971247 1_555
Cr1 O4 2.025335 1_655
Cr1 O4 2.025339 1_555
Cr1 O7 2.031547 1_555
Fe0 O6 1.934754 1_445
Fe0 O3 1.978259 1_555
Fe0 O7 2.021633 1_555
Fe0 O7 2.021637 1_455
Fe0 O0 2.149923 1_555
Fe0 O4 2.367557 1_555
Fe1 O9 1.918376 1_445
Fe1 O4 1.944998 1_555
Fe1 O8 1.977348 1_555
Fe1 O8 1.977352 1_455
Fe1 O1 2.129553 1_556
Fe2 O3 1.934754 1_665
Fe2 O6 1.978259 1_555
Fe2 O0 2.021633 1_555
Fe2 O0 2.021637 1_655
Fe2 O7 2.149923 1_555
Fe2 O5 2.367557 1_555
Fe3 O2 1.918376 1_665
Fe3 O5 1.944998 1_555
Fe3 O1 1.977348 1_555
Fe3 O1 1.977352 1_655
Fe3 O8 2.129553 1_554
