# generated using pymatgen
data_LiFe(PO3)4
_symmetry_space_group_name_H-M   'P 1'
_cell_length_a   9.85180505
_cell_length_b   9.85180505
_cell_length_c   11.44264470
_cell_angle_alpha   39.33785964
_cell_angle_beta   39.33785964
_cell_angle_gamma   50.68058580
_symmetry_Int_Tables_number   1
_chemical_formula_structural   LiFe(PO3)4
_chemical_formula_sum   'Li2 Fe2 P8 O24'
_cell_volume   444.51941307
_cell_formula_units_Z   2
loop_
 _symmetry_equiv_pos_site_id
 _symmetry_equiv_pos_as_xyz
  1  'x, y, z'
loop_
 _atom_site_type_symbol
 _atom_site_label
 _atom_site_symmetry_multiplicity
 _atom_site_fract_x
 _atom_site_fract_y
 _atom_site_fract_z
 _atom_site_occupancy
  Li  Li0  1  0.71722900  0.28277100  0.75000000  1
  Li  Li1  1  0.28277100  0.71722900  0.25000000  1
  Fe  Fe0  1  0.50000000  0.50000000  0.00000000  1
  Fe  Fe1  1  0.50000000  0.50000000  0.50000000  1
  P  P0  1  0.79811200  0.76808400  0.96166300  1
  P  P1  1  0.23191600  0.20188800  0.53833700  1
  P  P2  1  0.49872500  0.01325600  0.68352700  1
  P  P3  1  0.76808400  0.79811200  0.46166300  1
  P  P4  1  0.20188800  0.23191600  0.03833700  1
  P  P5  1  0.50127500  0.98674400  0.31647300  1
  P  P6  1  0.98674400  0.50127500  0.81647300  1
  P  P7  1  0.01325600  0.49872500  0.18352700  1
  O  O0  1  0.98554800  0.69382400  0.98104200  1
  O  O1  1  0.45957100  0.80526600  0.38524500  1
  O  O2  1  0.54042900  0.19473400  0.61475500  1
  O  O3  1  0.61319900  0.62265500  0.69459400  1
  O  O4  1  0.69382400  0.98554800  0.48104200  1
  O  O5  1  0.00131000  0.74509900  0.34699700  1
  O  O6  1  0.79743100  0.46800800  0.40370100  1
  O  O7  1  0.62265500  0.61319900  0.19459400  1
  O  O8  1  0.71267800  0.92447700  0.29359100  1
  O  O9  1  0.25490100  0.99869000  0.15300300  1
  O  O10  1  0.07552300  0.28732200  0.20640900  1
  O  O11  1  0.01445200  0.30617600  0.01895800  1
  O  O12  1  0.19473400  0.54042900  0.11475500  1
  O  O13  1  0.53199200  0.20256900  0.09629900  1
  O  O14  1  0.30617600  0.01445200  0.51895800  1
  O  O15  1  0.80526600  0.45957100  0.88524500  1
  O  O16  1  0.46800800  0.79743100  0.90370100  1
  O  O17  1  0.92447700  0.71267800  0.79359100  1
  O  O18  1  0.74509900  0.00131000  0.84699700  1
  O  O19  1  0.28732200  0.07552300  0.70640900  1
  O  O20  1  0.37734500  0.38680100  0.80540600  1
  O  O21  1  0.20256900  0.53199200  0.59629900  1
  O  O22  1  0.99869000  0.25490100  0.65300300  1
  O  O23  1  0.38680100  0.37734500  0.30540600  1
loop_
_geom_bond_atom_site_label_1
_geom_bond_atom_site_label_2
_geom_bond_distance
_geom_bond_site_symmetry_2
Li0 O18 1.934462 1_555
Li0 O22 1.934462 1_555
Li0 O13 2.335608 1_556
Li0 O6 2.335608 1_555
Li0 O3 2.456994 1_555
Li0 O20 2.456994 1_555
Li1 O5 1.934462 1_555
Li1 O9 1.934462 1_555
Li1 O21 2.335608 1_555
Li1 O16 2.335608 1_554
Li1 O7 2.456994 1_555
Li1 O23 2.456994 1_555
Fe0 O23 2.015858 1_555
Fe0 O3 2.015858 1_554
Fe0 O15 2.027286 1_554
Fe0 O12 2.027286 1_555
Fe0 O16 2.066902 1_554
Fe0 O13 2.066902 1_555
Fe1 O20 2.015858 1_555
Fe1 O7 2.015858 1_555
Fe1 O1 2.027286 1_555
Fe1 O2 2.027286 1_555
Fe1 O6 2.066902 1_555
Fe1 O21 2.066902 1_555
O0 P7 1.600609 1_656
O0 P0 1.632385 1_555
O1 P5 1.496351 1_555
O2 P2 1.496351 1_555
O3 P3 1.531421 1_555
O4 P2 1.600609 1_565
O4 P3 1.632385 1_555
O5 P3 1.466148 1_455
O6 P7 1.519774 1_655
O7 P0 1.531421 1_554
O8 P5 1.602604 1_555
O8 P3 1.614191 1_555
O9 P4 1.466148 1_565
O10 P7 1.602604 1_555
O10 P4 1.614191 1_555
O11 P6 1.600609 1_454
O11 P4 1.632385 1_555
O12 P7 1.496351 1_555
O13 P5 1.519774 1_545
O14 P5 1.600609 1_545
O14 P1 1.632385 1_555
O15 P6 1.496351 1_555
O16 P2 1.519774 1_565
O17 P6 1.602604 1_555
O17 P0 1.614191 1_555
O18 P0 1.466148 1_545
O19 P2 1.602604 1_555
O19 P1 1.614191 1_555
O20 P4 1.531421 1_556
O21 P6 1.519774 1_455
O22 P1 1.466148 1_655
O23 P1 1.531421 1_555
