# generated using pymatgen
data_MgVSnO4
_symmetry_space_group_name_H-M   'P 1'
_cell_length_a   3.15011959
_cell_length_b   6.37987531
_cell_length_c   6.38660944
_cell_angle_alpha   117.43203307
_cell_angle_beta   59.14492090
_cell_angle_gamma   120.89505496
_symmetry_Int_Tables_number   1
_chemical_formula_structural   MgVSnO4
_chemical_formula_sum   'Mg1 V1 Sn1 O4'
_cell_volume   91.09675402
_cell_formula_units_Z   1
loop_
 _symmetry_equiv_pos_site_id
 _symmetry_equiv_pos_as_xyz
  1  'x, y, z'
loop_
 _atom_site_type_symbol
 _atom_site_label
 _atom_site_symmetry_multiplicity
 _atom_site_fract_x
 _atom_site_fract_y
 _atom_site_fract_z
 _atom_site_occupancy
  Mg  Mg0  1  0.07577433  0.79649351  0.20737533  1
  V  V0  1  0.45681715  0.47742356  0.52411602  1
  Sn  Sn0  1  0.19339137  0.09303331  0.90704760  1
  O  O0  1  0.46656445  0.17423424  0.20946895  1
  O  O1  1  0.28379950  0.65551080  0.34900460  1
  O  O2  1  0.46255260  0.79018215  0.82922350  1
  O  O3  1  0.67581461  0.33079243  0.66799900  1
loop_
_geom_bond_atom_site_label_1
_geom_bond_atom_site_label_2
_geom_bond_distance
_geom_bond_site_symmetry_2
Mg0 O1 1.995445 1_455
Mg0 O1 2.004877 1_555
Mg0 O2 2.064303 1_554
Mg0 O0 2.064945 1_565
O0 V0 2.048635 1_555
O0 Sn0 2.236335 1_654
O0 Sn0 2.250438 1_554
O1 V0 2.114457 1_455
O1 V0 2.295784 1_555
O2 V0 2.048270 1_555
O2 Sn0 2.236364 1_665
O2 Sn0 2.250428 1_565
O3 V0 1.970271 1_655
O3 V0 2.073776 1_555
O3 Sn0 2.080357 1_555
