# generated using pymatgen
data_Ba2ErMgNbO6
_symmetry_space_group_name_H-M   'P 1'
_cell_length_a   6.65916863
_cell_length_b   6.00543592
_cell_length_c   6.00543538
_cell_angle_alpha   59.88648990
_cell_angle_beta   63.02986370
_cell_angle_gamma   63.02986008
_symmetry_Int_Tables_number   1
_chemical_formula_structural   Ba2ErMgNbO6
_chemical_formula_sum   'Ba2 Er1 Mg1 Nb1 O6'
_cell_volume   177.02297611
_cell_formula_units_Z   1
loop_
 _symmetry_equiv_pos_site_id
 _symmetry_equiv_pos_as_xyz
  1  'x, y, z'
loop_
 _atom_site_type_symbol
 _atom_site_label
 _atom_site_symmetry_multiplicity
 _atom_site_fract_x
 _atom_site_fract_y
 _atom_site_fract_z
 _atom_site_occupancy
  Ba  Ba0  1  0.91798909  0.69434026  0.69434026  1
  Ba  Ba1  1  0.29593724  0.23413865  0.23413865  1
  Er  Er0  1  0.92141188  0.02574442  0.02574442  1
  Mg  Mg0  1  0.40564803  0.86386859  0.86386859  1
  Nb  Nb0  1  0.50227716  0.49882995  0.49882995  1
  O  O0  1  0.24029931  0.75595654  0.75595654  1
  O  O1  1  0.24126733  0.75523455  0.24674535  1
  O  O2  1  0.69937120  0.27054160  0.75948141  1
  O  O3  1  0.24126732  0.24674535  0.75523455  1
  O  O4  1  0.69974325  0.27011868  0.27011868  1
  O  O5  1  0.69937120  0.75948141  0.27054160  1
loop_
_geom_bond_atom_site_label_1
_geom_bond_atom_site_label_2
_geom_bond_distance
_geom_bond_site_symmetry_2
Ba0 O0 2.541397 1_655
Ba0 O3 2.544096 1_655
Ba0 O1 2.544096 1_655
Ba1 O5 2.889972 1_545
Ba1 O2 2.889972 1_554
Ba1 O4 2.902596 1_555
Ba1 O0 3.014326 1_554
Ba1 O0 3.014326 1_545
Ba1 O3 3.018412 1_555
Ba1 O1 3.018412 1_555
Ba1 O3 3.019277 1_554
Ba1 O1 3.019277 1_545
Er0 O4 2.172031 1_555
Er0 O2 2.172205 1_554
Er0 O5 2.172205 1_545
Er0 O0 2.480318 1_644
Er0 O1 2.489868 1_645
Er0 O3 2.489869 1_654
Mg0 O0 1.941200 1_555
Mg0 O1 1.941741 1_556
Mg0 O3 1.941741 1_565
Nb0 O4 2.029461 1_555
Nb0 O2 2.032343 1_555
Nb0 O5 2.032343 1_555
Nb0 O1 2.303020 1_555
Nb0 O3 2.303020 1_555
Nb0 O0 2.306070 1_555
