# generated using pymatgen
data_NaLa2Al2PS5O24
_symmetry_space_group_name_H-M   'P 1'
_cell_length_a   8.73434597
_cell_length_b   8.75762654
_cell_length_c   23.76694764
_cell_angle_alpha   89.88647312
_cell_angle_beta   90.18432474
_cell_angle_gamma   119.68692141
_symmetry_Int_Tables_number   1
_chemical_formula_structural   NaLa2Al2PS5O24
_chemical_formula_sum   'Na3 La6 Al6 P3 S15 O72'
_cell_volume   1579.35602683
_cell_formula_units_Z   3
loop_
 _symmetry_equiv_pos_site_id
 _symmetry_equiv_pos_as_xyz
  1  'x, y, z'
loop_
 _atom_site_type_symbol
 _atom_site_label
 _atom_site_symmetry_multiplicity
 _atom_site_fract_x
 _atom_site_fract_y
 _atom_site_fract_z
 _atom_site_occupancy
  Na  Na0  1  0.99964440  0.98791078  0.99636408  1
  Na  Na1  1  0.65586652  0.33140195  0.83095812  1
  Na  Na2  1  0.67712159  0.33183079  0.34618173  1
  La  La0  1  0.00065830  0.98807769  0.84210726  1
  La  La1  1  0.99977501  0.00852641  0.16477773  1
  La  La2  1  0.67518047  0.33434802  0.19891520  1
  La  La3  1  0.65728736  0.33704437  0.97732634  1
  La  La4  1  0.34007193  0.67185414  0.01747063  1
  La  La5  1  0.33969569  0.67437485  0.80012559  1
  Al  Al0  1  0.99539814  0.00394032  0.35752984  1
  Al  Al1  1  0.00172160  0.00184328  0.64043295  1
  Al  Al2  1  0.66537856  0.33237542  0.66765600  1
  Al  Al3  1  0.66492320  0.33398535  0.48844495  1
  Al  Al4  1  0.33561981  0.66730080  0.51476798  1
  Al  Al5  1  0.32800339  0.65996777  0.32843622  1
  P  P0  1  0.02113028  0.30950654  0.27066421  1
  P  P1  1  0.64467099  0.67021674  0.91140669  1
  P  P2  1  0.33094948  0.97426575  0.91117472  1
  S  S0  1  0.28398606  0.97606841  0.27160686  1
  S  S1  1  0.68969456  0.71348426  0.27130822  1
  S  S2  1  0.30915806  0.27750429  0.73029490  1
  S  S3  1  0.96693018  0.68789815  0.72889644  1
  S  S4  1  0.72576102  0.03452185  0.73015570  1
  S  S5  1  0.95545970  0.33543925  0.57761986  1
  S  S6  1  0.38000561  0.04397598  0.57776133  1
  S  S7  1  0.66291574  0.61966620  0.57766328  1
  S  S8  1  0.97205487  0.64727140  0.08722268  1
  S  S9  1  0.67627290  0.03042558  0.08650610  1
  S  S10  1  0.35134718  0.32484588  0.08914726  1
  S  S11  1  0.02813400  0.35821213  0.91116408  1
  S  S12  1  0.61754464  0.95337120  0.42155542  1
  S  S13  1  0.33958301  0.38296049  0.42238744  1
  S  S14  1  0.04551022  0.66389828  0.42240868  1
  O  O0  1  0.17631772  0.99748080  0.31567432  1
  O  O1  1  0.82303616  0.81497623  0.31516488  1
  O  O2  1  0.99263461  0.16894098  0.31510567  1
  O  O3  1  0.25673246  0.18906072  0.78573345  1
  O  O4  1  0.92918690  0.73764820  0.78456931  1
  O  O5  1  0.81421828  0.06874826  0.78563063  1
  O  O6  1  0.83105628  0.01111589  0.68562502  1
  O  O7  1  0.18146058  0.17099700  0.68565375  1
  O  O8  1  0.99139726  0.81977749  0.68535195  1
  O  O9  1  0.74731197  0.79361907  0.21510257  1
  O  O10  1  0.04279757  0.25060510  0.21145363  1
  O  O11  1  0.20146403  0.94944051  0.21542814  1
  O  O12  1  0.87570296  0.37896229  0.62616703  1
  O  O13  1  0.50307891  0.12273953  0.62653305  1
  O  O14  1  0.61696643  0.49566850  0.62607732  1
  O  O15  1  0.86268602  0.55278921  0.13728026  1
  O  O16  1  0.69254207  0.13843477  0.13698444  1
  O  O17  1  0.44598725  0.31071360  0.13934901  1
  O  O18  1  0.44057295  0.32302815  0.03653779  1
  O  O19  1  0.88128746  0.55835011  0.03438994  1
  O  O20  1  0.67615765  0.12087372  0.03401601  1
  O  O21  1  0.45779696  0.16934777  0.52887497  1
  O  O22  1  0.71006576  0.54114556  0.52881594  1
  O  O23  1  0.82952448  0.28860457  0.52857170  1
  O  O24  1  0.54885792  0.64601808  0.96784533  1
  O  O25  1  0.10599038  0.44821377  0.96504353  1
  O  O26  1  0.33722961  0.88875360  0.96711190  1
  O  O27  1  0.53941955  0.83640358  0.47173202  1
  O  O28  1  0.30055706  0.46309570  0.47205329  1
  O  O29  1  0.16436752  0.70129382  0.47237068  1
  O  O30  1  0.12463651  0.62207458  0.37344497  1
  O  O31  1  0.49580312  0.87438183  0.37281083  1
  O  O32  1  0.38487395  0.50506424  0.37362281  1
  O  O33  1  0.13784958  0.45205220  0.86180821  1
  O  O34  1  0.30368062  0.85930301  0.85859547  1
  O  O35  1  0.54399422  0.68247432  0.85960155  1
  O  O36  1  0.02289523  0.81747830  0.41058982  1
  O  O37  1  0.79357835  0.97360042  0.40962032  1
  O  O38  1  0.18649563  0.20847043  0.41031208  1
  O  O39  1  0.00857394  0.18223494  0.91516716  1
  O  O40  1  0.17578480  0.00919746  0.91603733  1
  O  O41  1  0.82287764  0.83949708  0.91631999  1
  O  O42  1  0.97856362  0.18174109  0.59083683  1
  O  O43  1  0.20341938  0.02118158  0.59090402  1
  O  O44  1  0.81560006  0.79461593  0.59097680  1
  O  O45  1  0.99474315  0.82565055  0.08576593  1
  O  O46  1  0.83087602  0.00472026  0.08408328  1
  O  O47  1  0.17387260  0.16839006  0.08616642  1
  O  O48  1  0.70775498  0.19117359  0.71813431  1
  O  O49  1  0.48416112  0.29510715  0.71837384  1
  O  O50  1  0.81002626  0.51605007  0.71624901  1
  O  O51  1  0.66737040  0.53427056  0.27110984  1
  O  O52  1  0.85339990  0.32830235  0.27092486  1
  O  O53  1  0.45920051  0.13793846  0.27106663  1
  O  O54  1  0.67302868  0.51256545  0.90189918  1
  O  O55  1  0.85459839  0.34466426  0.90329420  1
  O  O56  1  0.50289699  0.14880090  0.90328772  1
  O  O57  1  0.63583189  0.13158959  0.43232424  1
  O  O58  1  0.50072226  0.36467030  0.43386608  1
  O  O59  1  0.86823218  0.50290061  0.43308946  1
  O  O60  1  0.34029765  0.48543168  0.09354053  1
  O  O61  1  0.14213408  0.65397865  0.09232510  1
  O  O62  1  0.51433378  0.86097212  0.09260404  1
  O  O63  1  0.36466513  0.87140483  0.56419181  1
  O  O64  1  0.50581704  0.63697391  0.56373866  1
  O  O65  1  0.12835198  0.49137872  0.56427066  1
  O  O66  1  0.30203028  0.82081685  0.28304646  1
  O  O67  1  0.52178941  0.70754583  0.28298607  1
  O  O68  1  0.18552801  0.48446964  0.28339758  1
  O  O69  1  0.32152236  0.45029325  0.73236560  1
  O  O70  1  0.12598121  0.67227421  0.73136405  1
  O  O71  1  0.55168185  0.87580383  0.73186626  1
loop_
_geom_bond_atom_site_label_1
_geom_bond_atom_site_label_2
_geom_bond_distance
_geom_bond_site_symmetry_2
Na0 O41 2.386511 1_555
Na0 O40 2.404120 1_665
Na0 O45 2.542497 1_556
Na0 O39 2.546152 1_665
Na0 O46 2.603264 1_566
Na0 O47 2.641845 1_666
Na1 O54 2.270644 1_555
Na1 O56 2.277080 1_555
Na1 O55 2.400841 1_555
Na2 O52 2.373985 1_555
Na2 O51 2.543605 1_555
Na2 O53 2.546005 1_555
Na2 O57 2.600195 1_555
Na2 O59 2.609644 1_555
Na2 O58 2.694721 1_555
La0 O40 2.272678 1_565
La0 O41 2.285284 1_455
La0 O4 2.391655 1_455
La0 O39 2.409481 1_565
La0 O3 2.450766 1_565
La0 O5 2.464619 1_465
La1 O10 2.254758 1_655
La1 O47 2.379558 1_655
La1 O11 2.388936 1_645
La1 O9 2.394260 1_545
La1 O46 2.406018 1_555
La1 O45 2.456620 1_545
La2 O15 2.321359 1_555
La2 O16 2.324307 1_555
La2 O52 2.327895 1_555
La2 O17 2.372128 1_555
La2 O51 2.478953 1_555
La2 O53 2.500600 1_555
La3 O18 2.316186 1_556
La3 O54 2.318778 1_555
La3 O56 2.329566 1_555
La3 O19 2.379262 1_556
La3 O20 2.392490 1_556
La3 O55 2.444491 1_555
La4 O26 2.253625 1_554
La4 O24 2.278470 1_554
La4 O25 2.365502 1_554
La4 O62 2.397019 1_555
La4 O60 2.434255 1_555
La4 O61 2.434979 1_555
La5 O35 2.246357 1_555
La5 O34 2.273614 1_555
La5 O33 2.377705 1_555
La5 O71 2.438184 1_555
La5 O70 2.470223 1_555
La5 O69 2.484386 1_555
Al0 O2 1.770289 1_555
Al0 O1 1.883607 1_545
Al0 O0 1.894398 1_645
Al0 O37 2.063846 1_545
Al0 O38 2.145248 1_655
Al0 O36 2.166315 1_645
Al1 O7 1.872451 1_555
Al1 O6 1.874253 1_455
Al1 O8 1.881926 1_445
Al1 O42 2.054081 1_455
Al1 O43 2.057905 1_555
Al1 O44 2.095659 1_445
Al2 O50 1.871478 1_555
Al2 O48 1.884171 1_555
Al2 O49 1.887817 1_555
Al2 O13 1.937955 1_555
Al2 O12 1.944528 1_555
Al2 O14 1.947071 1_555
Al3 O22 1.914012 1_555
Al3 O23 1.920949 1_555
Al3 O21 1.922779 1_555
Al3 O58 2.044546 1_555
Al3 O59 2.116104 1_555
Al3 O57 2.132250 1_555
Al4 O29 1.942041 1_555
Al4 O28 1.945590 1_555
Al4 O27 1.950004 1_555
Al4 O64 2.003434 1_555
Al4 O63 2.048522 1_555
Al4 O65 2.068584 1_555
Al5 O68 1.777664 1_555
Al5 O66 1.873092 1_555
Al5 O67 1.875302 1_555
Al5 O30 1.958706 1_555
Al5 O32 1.974510 1_555
Al5 O31 2.014501 1_555
O0 S0 1.482657 1_555
O1 S1 1.484385 1_555
O2 P0 1.544684 1_655
O3 S2 1.481291 1_555
O4 S3 1.482112 1_555
O5 S4 1.480123 1_555
O6 S4 1.483851 1_555
O7 S2 1.485109 1_555
O8 S3 1.484199 1_555
O9 S1 1.476825 1_555
O10 P0 1.543877 1_555
O11 S0 1.478243 1_555
O12 S5 1.493915 1_555
O13 S6 1.495218 1_555
O14 S7 1.493532 1_555
O15 S8 1.494353 1_555
O16 S9 1.491478 1_555
O17 S10 1.488829 1_555
O18 S10 1.479750 1_555
O19 S8 1.482435 1_555
O20 S9 1.476698 1_555
O21 S6 1.509377 1_555
O22 S7 1.508982 1_555
O23 S5 1.511232 1_555
O24 P1 1.541092 1_555
O25 S11 1.480197 1_555
O26 P2 1.538689 1_555
O27 S12 1.498376 1_555
O28 S13 1.498294 1_555
O29 S14 1.500620 1_555
O30 S14 1.491189 1_555
O31 S12 1.489297 1_555
O32 S13 1.490723 1_555
O33 S11 1.480900 1_555
O34 P2 1.548401 1_555
O35 P1 1.544914 1_555
O36 S14 1.479269 1_555
O37 S12 1.486161 1_555
O38 S13 1.476740 1_555
O39 S11 1.466998 1_555
O40 P2 1.534762 1_545
O41 P1 1.532330 1_555
O42 S5 1.489351 1_555
O43 S6 1.488015 1_555
O44 S7 1.483706 1_555
O45 S8 1.474470 1_555
O46 S9 1.476183 1_555
O47 S10 1.476876 1_555
O48 S4 1.483354 1_555
O49 S2 1.486497 1_555
O50 S3 1.479747 1_555
O51 S1 1.482641 1_555
O52 P0 1.553168 1_655
O53 S0 1.484241 1_545
O54 P1 1.535880 1_555
O55 S11 1.471938 1_655
O56 P2 1.534237 1_545
O57 S12 1.510433 1_545
O58 S13 1.517119 1_555
O59 S14 1.512813 1_655
O60 S10 1.460522 1_555
O61 S8 1.461983 1_455
O62 S9 1.464664 1_565
O63 S6 1.485633 1_565
O64 S7 1.489362 1_555
O65 S5 1.484831 1_455
O66 S0 1.468973 1_555
O67 S1 1.468842 1_555
O68 P0 1.523468 1_555
O69 S2 1.463665 1_555
O70 S3 1.462799 1_455
O71 S4 1.467080 1_565
