# generated using pymatgen
data_MgNi4(PS)4
_symmetry_space_group_name_H-M   'P 1'
_cell_length_a   5.41738536
_cell_length_b   5.51054760
_cell_length_c   7.26204980
_cell_angle_alpha   90.36932511
_cell_angle_beta   94.88880873
_cell_angle_gamma   89.95462670
_symmetry_Int_Tables_number   1
_chemical_formula_structural   MgNi4(PS)4
_chemical_formula_sum   'Mg1 Ni4 P4 S4'
_cell_volume   215.99903670
_cell_formula_units_Z   1
loop_
 _symmetry_equiv_pos_site_id
 _symmetry_equiv_pos_as_xyz
  1  'x, y, z'
loop_
 _atom_site_type_symbol
 _atom_site_label
 _atom_site_symmetry_multiplicity
 _atom_site_fract_x
 _atom_site_fract_y
 _atom_site_fract_z
 _atom_site_occupancy
  Mg  Mg0  1  0.40251615  0.73334728  0.24620573  1
  Ni  Ni0  1  0.05490251  0.00874965  0.97997932  1
  Ni  Ni1  1  0.43241371  0.99440783  0.56296356  1
  Ni  Ni2  1  0.55581852  0.50302639  0.92386533  1
  Ni  Ni3  1  0.93124570  0.49524166  0.51074603  1
  P  P0  1  0.57558234  0.61183837  0.61959412  1
  P  P1  1  0.91302937  0.36462452  0.04125555  1
  P  P2  1  0.06448349  0.85598238  0.47551839  1
  P  P3  1  0.40782143  0.12574085  0.87165355  1
  S  S0  1  0.31413446  0.37580678  0.45897794  1
  S  S1  1  0.16420633  0.62559653  0.94185480  1
  S  S2  1  0.81756412  0.12139250  0.55214637  1
  S  S3  1  0.67580586  0.88662726  0.01762130  1
loop_
_geom_bond_atom_site_label_1
_geom_bond_atom_site_label_2
_geom_bond_distance
_geom_bond_site_symmetry_2
Mg0 S3 2.469796 1_555
Mg0 S1 2.530269 1_554
Mg0 S0 2.581758 1_555
Mg0 P2 2.662075 1_555
Mg0 Ni1 2.698407 1_555
Mg0 Ni2 2.841048 1_554
Mg0 P0 2.875596 1_555
Mg0 Ni0 3.000005 1_564
Ni0 P1 2.163139 1_456
Ni0 S3 2.201269 1_446
Ni0 S1 2.214419 1_545
Ni0 P3 2.225907 1_555
Ni1 P2 2.176804 1_555
Ni1 S2 2.209141 1_565
Ni1 P0 2.273604 1_555
Ni1 S0 2.309523 1_565
Ni1 P3 2.365728 1_565
Ni2 P1 2.185880 1_556
Ni2 S1 2.240073 1_555
Ni2 P3 2.247152 1_555
Ni2 S3 2.294046 1_556
Ni2 P0 2.304557 1_555
Ni3 P2 2.139721 1_655
Ni3 S2 2.180663 1_555
Ni3 P0 2.236327 1_555
Ni3 S0 2.237095 1_655
P0 S0 2.181762 1_555
P1 S1 2.150504 1_654
P2 S2 2.085988 1_465
P3 S3 2.172596 1_546
