# generated using pymatgen
data_Na5TiAl3(PO4)6
_symmetry_space_group_name_H-M   'P 1'
_cell_length_a   8.57837482
_cell_length_b   8.57186515
_cell_length_c   21.71965109
_cell_angle_alpha   89.98323686
_cell_angle_beta   89.99623281
_cell_angle_gamma   120.00652582
_symmetry_Int_Tables_number   1
_chemical_formula_structural   Na5TiAl3(PO4)6
_chemical_formula_sum   'Na15 Ti3 Al9 P18 O72'
_cell_volume   1383.04155943
_cell_formula_units_Z   3
loop_
 _symmetry_equiv_pos_site_id
 _symmetry_equiv_pos_as_xyz
  1  'x, y, z'
loop_
 _atom_site_type_symbol
 _atom_site_label
 _atom_site_symmetry_multiplicity
 _atom_site_fract_x
 _atom_site_fract_y
 _atom_site_fract_z
 _atom_site_occupancy
  Na  Na0  1  0.63422032  0.99961236  0.25193955  1
  Na  Na1  1  0.36478779  0.36517368  0.25224099  1
  Na  Na2  1  0.00068716  0.63562770  0.25196264  1
  Na  Na3  1  0.63653654  0.63390165  0.74933644  1
  Na  Na4  1  0.00017336  0.36368042  0.74940588  1
  Na  Na5  1  0.03127727  0.69902160  0.58221676  1
  Na  Na6  1  0.66547197  0.96805807  0.58212448  1
  Na  Na7  1  0.66579573  0.69809685  0.08243143  1
  Na  Na8  1  0.03128757  0.33219662  0.08255266  1
  Na  Na9  1  0.00576043  0.00635062  0.49720571  1
  Na  Na10  1  0.00538182  0.99924982  0.99686465  1
  Na  Na11  1  0.66082469  0.32716366  0.83358792  1
  Na  Na12  1  0.66646961  0.33332605  0.33708043  1
  Na  Na13  1  0.33271615  0.67224016  0.16593731  1
  Na  Na14  1  0.33325541  0.66605055  0.66499927  1
  Ti  Ti0  1  0.66557164  0.33298610  0.97701097  1
  Ti  Ti1  1  0.66387509  0.33195089  0.47666434  1
  Ti  Ti2  1  0.33406072  0.67317103  0.81518202  1
  Al  Al0  1  0.00088978  0.00023293  0.35659264  1
  Al  Al1  1  0.00199201  0.00120687  0.85349880  1
  Al  Al2  1  0.00604771  0.00568748  0.64754834  1
  Al  Al3  1  0.00485922  0.99910124  0.14859468  1
  Al  Al4  1  0.66056090  0.32797762  0.68440039  1
  Al  Al5  1  0.66588087  0.33225165  0.18411317  1
  Al  Al6  1  0.33276055  0.67167003  0.01700233  1
  Al  Al7  1  0.33254943  0.66104322  0.51638683  1
  Al  Al8  1  0.33315065  0.66647707  0.31952953  1
  P  P0  1  0.28717514  0.99985256  0.25042447  1
  P  P1  1  0.71264853  0.71264769  0.25008677  1
  P  P2  1  -0.00000529  0.28746164  0.25011978  1
  P  P3  1  0.28810415  0.27951904  0.74994164  1
  P  P4  1  0.99952335  0.71624017  0.74939865  1
  P  P5  1  0.71533361  0.00464267  0.74942394  1
  P  P6  1  0.96039564  0.33370981  0.58444154  1
  P  P7  1  0.37499286  0.04553807  0.58432026  1
  P  P8  1  0.66206690  0.62102768  0.58457507  1
  P  P9  1  0.96108176  0.62751863  0.08433071  1
  P  P10  1  0.66210401  0.04055184  0.08448426  1
  P  P11  1  0.37408417  0.32894878  0.08443956  1
  P  P12  1  0.62685849  0.67403682  0.91787486  1
  P  P13  1  0.04693781  0.37332905  0.91808260  1
  P  P14  1  0.32580598  0.95349227  0.91843179  1
  P  P15  1  0.62318191  0.95025198  0.41628108  1
  P  P16  1  0.32705447  0.37725629  0.41597240  1
  P  P17  1  0.04926903  0.67212674  0.41642674  1
  O  O0  1  0.20339229  0.03859014  0.30623924  1
  O  O1  1  0.83579020  0.79787049  0.30550475  1
  O  O2  1  0.96203687  0.16406295  0.30551035  1
  O  O3  1  0.20149881  0.16825289  0.80749370  1
  O  O4  1  0.96289787  0.79855532  0.80610545  1
  O  O5  1  0.83392889  0.03715087  0.80612043  1
  O  O6  1  0.79394645  0.96310293  0.69164191  1
  O  O7  1  0.16549926  0.20261756  0.69340350  1
  O  O8  1  0.03198864  0.82855667  0.69090474  1
  O  O9  1  0.79295216  0.82985714  0.19140272  1
  O  O10  1  0.03647939  0.20705280  0.19140790  1
  O  O11  1  0.16735527  0.96219365  0.19315199  1
  O  O12  1  0.87507881  0.37055511  0.64197925  1
  O  O13  1  0.50003214  0.12899198  0.64013444  1
  O  O14  1  0.63429069  0.50650296  0.64266253  1
  O  O15  1  0.87488860  0.50456168  0.14157156  1
  O  O16  1  0.63386984  0.12754206  0.14229039  1
  O  O17  1  0.49690606  0.36981761  0.14154761  1
  O  O18  1  0.46368420  0.29988691  0.02756784  1
  O  O19  1  0.83529587  0.53936535  0.02825290  1
  O  O20  1  0.70366576  0.16608292  0.02822889  1
  O  O21  1  0.46287633  0.16324321  0.52695327  1
  O  O22  1  0.70357460  0.53764319  0.52832060  1
  O  O23  1  0.83518251  0.29588220  0.52836157  1
  O  O24  1  0.53747951  0.69837393  0.97536209  1
  O  O25  1  0.16132214  0.46246354  0.97544120  1
  O  O26  1  0.30006011  0.83641715  0.97408540  1
  O  O27  1  0.53704444  0.83843506  0.47478222  1
  O  O28  1  0.30052140  0.46518798  0.47295142  1
  O  O29  1  0.16196614  0.69901926  0.47477386  1
  O  O30  1  0.12861884  0.63447463  0.35799635  1
  O  O31  1  0.50602674  0.87107777  0.35792430  1
  O  O32  1  0.36580871  0.49336457  0.35710763  1
  O  O33  1  0.12829878  0.49393739  0.85952448  1
  O  O34  1  0.36562626  0.86957034  0.86037107  1
  O  O35  1  0.50631450  0.63467184  0.85938543  1
  O  O36  1  0.02570719  0.83700124  0.40842037  1
  O  O37  1  0.81160913  0.97417931  0.40832316  1
  O  O38  1  0.16289915  0.18842254  0.40815696  1
  O  O39  1  0.02480518  0.18697171  0.90899830  1
  O  O40  1  0.16171255  0.97461574  0.90850705  1
  O  O41  1  0.81308955  0.83839389  0.90870252  1
  O  O42  1  0.97260688  0.16107630  0.59208937  1
  O  O43  1  0.18509226  0.02056476  0.59162176  1
  O  O44  1  0.83403866  0.81128163  0.59143058  1
  O  O45  1  0.97280051  0.81189232  0.09186739  1
  O  O46  1  0.83420475  0.02303931  0.09136678  1
  O  O47  1  0.18440753  0.16405762  0.09162817  1
  O  O48  1  0.69481003  0.17259461  0.74190718  1
  O  O49  1  0.48130072  0.31205437  0.74224603  1
  O  O50  1  0.83249952  0.52252459  0.74278227  1
  O  O51  1  0.69020626  0.52110135  0.24170047  1
  O  O52  1  0.83124183  0.31022214  0.24193102  1
  O  O53  1  0.47855107  0.16894506  0.24179106  1
  O  O54  1  0.64124623  0.50028329  0.92387557  1
  O  O55  1  0.85904593  0.35912004  0.92417923  1
  O  O56  1  0.50007276  0.14075198  0.92394674  1
  O  O57  1  0.64122034  0.14029921  0.42315796  1
  O  O58  1  0.49937736  0.35955591  0.42328359  1
  O  O59  1  0.85954640  0.50024693  0.42356608  1
  O  O60  1  0.35627470  0.50031689  0.07651565  1
  O  O61  1  0.14503501  0.63977931  0.07591455  1
  O  O62  1  0.49798649  0.85098178  0.07609949  1
  O  O63  1  0.35597192  0.85562241  0.57630837  1
  O  O64  1  0.49796508  0.64705122  0.57623142  1
  O  O65  1  0.14527223  0.50542427  0.57600370  1
  O  O66  1  0.31080735  0.83164602  0.25698881  1
  O  O67  1  0.52127482  0.68950524  0.25661101  1
  O  O68  1  0.16826903  0.47902903  0.25666047  1
  O  O69  1  0.31017499  0.47409355  0.75633341  1
  O  O70  1  0.16502210  0.68741541  0.75602725  1
  O  O71  1  0.52616653  0.83198125  0.75622898  1
loop_
_geom_bond_atom_site_label_1
_geom_bond_atom_site_label_2
_geom_bond_distance
_geom_bond_site_symmetry_2
Na0 O67 2.332139 1_555
Na0 O52 2.343388 1_565
Na0 O66 2.405550 1_555
Na0 O53 2.424302 1_565
Na0 O31 2.551186 1_555
Na0 O16 2.622221 1_565
Na0 O2 2.699169 1_565
Na0 O9 2.771813 1_555
Na1 O68 2.334371 1_555
Na1 O53 2.339917 1_555
Na1 O67 2.409884 1_555
Na1 O51 2.428894 1_555
Na1 O32 2.527276 1_555
Na1 O17 2.649685 1_555
Na1 O0 2.692666 1_555
Na1 O10 2.774566 1_555
Na2 O66 2.332754 1_555
Na2 O51 2.343552 1_455
Na2 O68 2.410182 1_555
Na2 O52 2.426071 1_455
Na2 O30 2.553338 1_555
Na2 O15 2.639090 1_455
Na2 O1 2.693658 1_455
Na2 O11 2.739776 1_555
Na3 O50 2.315797 1_555
Na3 O71 2.325889 1_555
Na3 O49 2.394558 1_555
Na3 O69 2.429320 1_555
Na3 O14 2.557634 1_555
Na3 O35 2.639726 1_555
Na3 O4 2.720230 1_555
Na3 O6 2.746473 1_555
Na4 O48 2.297831 1_455
Na4 O69 2.339461 1_555
Na4 O70 2.407571 1_555
Na4 O50 2.429465 1_455
Na4 O12 2.581216 1_455
Na4 O33 2.636206 1_555
Na4 O7 2.712217 1_555
Na4 O5 2.718587 1_455
Na5 O65 2.313358 1_555
Na5 O44 2.336107 1_455
Na5 O43 2.396329 1_565
Na5 O63 2.415938 1_555
Na5 O29 2.588886 1_555
Na5 O8 2.607763 1_555
Na5 O22 2.701551 1_455
Na5 O12 2.762594 1_455
Na6 O42 2.316518 1_565
Na6 O63 2.331236 1_555
Na6 O64 2.387082 1_555
Na6 O44 2.425152 1_555
Na6 O27 2.580970 1_555
Na6 O6 2.630905 1_555
Na6 O23 2.699172 1_565
Na6 O13 2.731964 1_565
Na7 O45 2.315190 1_555
Na7 O60 2.332070 1_555
Na7 O62 2.386505 1_555
Na7 O46 2.420457 1_565
Na7 O24 2.573438 1_554
Na7 O9 2.614758 1_555
Na7 O19 2.707348 1_555
Na7 O17 2.754269 1_555
Na8 O61 2.313207 1_555
Na8 O46 2.331566 1_455
Na8 O47 2.394746 1_555
Na8 O60 2.418180 1_555
Na8 O25 2.579869 1_554
Na8 O10 2.605556 1_555
Na8 O20 2.705023 1_455
Na8 O15 2.758575 1_455
Na9 O38 2.426376 1_555
Na9 O36 2.470880 1_545
Na9 O37 2.473484 1_445
Na9 O43 2.529789 1_555
Na9 O42 2.542790 1_455
Na9 O44 2.586151 1_445
Na10 O40 2.410208 1_555
Na10 O39 2.447271 1_565
Na10 O41 2.452737 1_455
Na10 O47 2.534307 1_566
Na10 O45 2.542463 1_456
Na10 O46 2.590399 1_466
Na11 O56 2.469904 1_555
Na11 O49 2.474958 1_555
Na11 O48 2.488667 1_555
Na11 O54 2.515326 1_555
Na11 O55 2.524445 1_555
Na11 O50 2.528633 1_555
Na12 O57 2.433024 1_555
Na12 O58 2.435751 1_555
Na12 O59 2.439411 1_555
Na12 O52 2.566684 1_555
Na12 O51 2.567881 1_555
Na12 O53 2.568618 1_555
Na13 O62 2.447471 1_555
Na13 O61 2.458706 1_555
Na13 O66 2.464083 1_555
Na13 O68 2.505326 1_555
Na13 O67 2.505593 1_555
Na13 O60 2.506855 1_555
Na14 O64 2.443383 1_555
Na14 O65 2.452289 1_555
Na14 O63 2.463881 1_555
Na14 O70 2.507861 1_555
Na14 O71 2.517084 1_555
Na14 O69 2.520730 1_555
Al0 O38 1.883326 1_555
Al0 O36 1.888727 1_545
Al0 O37 1.893586 1_445
Al0 O0 1.936524 1_555
Al0 O2 1.944602 1_455
Al0 O1 1.946830 1_445
Al1 O3 1.877669 1_555
Al1 O4 1.899474 1_445
Al1 O40 1.915494 1_545
Al1 O5 1.917467 1_455
Al1 O39 1.927800 1_555
Al1 O41 1.935989 1_445
Al2 O7 1.845039 1_555
Al2 O8 1.891769 1_545
Al2 O43 1.911689 1_555
Al2 O42 1.920590 1_455
Al2 O6 1.922556 1_445
Al2 O44 1.995466 1_445
Al3 O11 1.849555 1_555
Al3 O10 1.906066 1_565
Al3 O9 1.906535 1_455
Al3 O47 1.929506 1_565
Al3 O45 1.930970 1_455
Al3 O46 2.007669 1_465
Al4 O13 1.838985 1_555
Al4 O14 1.886407 1_555
Al4 O12 1.922589 1_555
Al4 O49 1.936894 1_555
Al4 O48 1.952147 1_555
Al4 O50 2.026255 1_555
Al5 O16 1.870479 1_555
Al5 O17 1.877871 1_555
Al5 O15 1.897430 1_555
Al5 O53 1.964705 1_555
Al5 O51 1.972773 1_555
Al5 O52 1.973040 1_555
Al6 O26 1.826839 1_554
Al6 O24 1.884686 1_554
Al6 O25 1.885966 1_554
Al6 O62 1.959945 1_555
Al6 O61 1.965840 1_555
Al6 O60 2.040639 1_555
Al7 O28 1.823081 1_555
Al7 O27 1.880710 1_555
Al7 O29 1.881656 1_555
Al7 O64 1.971752 1_555
Al7 O65 1.972887 1_555
Al7 O63 2.045051 1_555
Al8 O32 1.833497 1_555
Al8 O30 1.835757 1_555
Al8 O31 1.835800 1_555
Al8 O66 2.038804 1_555
Al8 O68 2.043360 1_555
Al8 O67 2.047378 1_555
O0 P0 1.528155 1_545
O1 P1 1.525510 1_555
O2 P2 1.525435 1_655
O3 P3 1.521379 1_555
O4 P4 1.528311 1_555
O5 P5 1.531631 1_555
O6 P5 1.548201 1_565
O7 P3 1.534884 1_555
O8 P4 1.532846 1_455
O9 P1 1.554175 1_555
O10 P2 1.554153 1_555
O11 P0 1.541629 1_555
O12 P6 1.558350 1_555
O13 P7 1.537880 1_555
O14 P8 1.541915 1_555
O15 P9 1.556564 1_555
O16 P10 1.540189 1_555
O17 P11 1.550027 1_555
O18 P11 1.539548 1_555
O18 Ti0 1.947751 1_554
O19 P9 1.550484 1_555
O19 Ti0 1.978189 1_554
O20 P10 1.547040 1_555
O20 Ti0 1.964142 1_554
O21 P7 1.541812 1_555
O21 Ti1 1.939639 1_555
O22 P8 1.544519 1_555
O22 Ti1 1.970825 1_555
O23 P6 1.547432 1_555
O23 Ti1 1.992578 1_555
O24 P12 1.533103 1_555
O25 P13 1.532804 1_555
O26 P14 1.514796 1_555
O27 P15 1.539466 1_555
O28 P16 1.524335 1_555
O29 P17 1.539866 1_555
O30 P17 1.548533 1_555
O31 P15 1.547779 1_555
O32 P16 1.550469 1_555
O33 P13 1.565564 1_555
O33 Ti2 1.920965 1_555
O34 P14 1.571845 1_555
O34 Ti2 1.848214 1_555
O35 P12 1.564746 1_555
O35 Ti2 1.924026 1_555
O36 P17 1.534286 1_555
O37 P15 1.533962 1_555
O38 P16 1.533697 1_555
O39 P13 1.524336 1_555
O40 P14 1.521740 1_555
O41 P12 1.524916 1_555
O42 P6 1.543777 1_555
O43 P7 1.541393 1_555
O44 P8 1.565868 1_555
O45 P9 1.541394 1_555
O46 P10 1.564019 1_555
O47 P11 1.539232 1_555
O48 P5 1.543910 1_555
O49 P3 1.545976 1_555
O50 P4 1.565682 1_555
O51 P1 1.565288 1_555
O52 P2 1.564550 1_655
O53 P0 1.565564 1_545
O54 P12 1.560211 1_555
O54 Ti0 1.931402 1_555
O55 P13 1.560096 1_655
O55 Ti0 1.936291 1_555
O56 P14 1.557487 1_545
O56 Ti0 1.928896 1_555
O57 P15 1.564641 1_545
O57 Ti1 1.941388 1_555
O58 P16 1.567740 1_555
O58 Ti1 1.930162 1_555
O59 P17 1.563662 1_655
O59 Ti1 1.950765 1_555
O60 P11 1.560474 1_555
O61 P9 1.539052 1_455
O62 P10 1.538762 1_565
O63 P7 1.562548 1_565
O64 P8 1.542203 1_555
O65 P6 1.542822 1_455
O66 P0 1.559673 1_555
O67 P1 1.558446 1_555
O68 P2 1.558749 1_555
O69 P3 1.587827 1_555
O69 Ti2 2.058960 1_555
O70 P4 1.564677 1_455
O70 Ti2 1.986363 1_555
O71 P5 1.563104 1_565
O71 Ti2 1.990809 1_555
