# generated using pymatgen
data_Li7V4P9O32
_symmetry_space_group_name_H-M   'P 1'
_cell_length_a   13.85804500
_cell_length_b   13.85804500
_cell_length_c   6.38983600
_cell_angle_alpha   90.00000000
_cell_angle_beta   90.00000000
_cell_angle_gamma   90.00000000
_symmetry_Int_Tables_number   1
_chemical_formula_structural   Li7V4P9O32
_chemical_formula_sum   'Li14 V8 P18 O64'
_cell_volume   1227.13868226
_cell_formula_units_Z   2
loop_
 _symmetry_equiv_pos_site_id
 _symmetry_equiv_pos_as_xyz
  1  'x, y, z'
loop_
 _atom_site_type_symbol
 _atom_site_label
 _atom_site_symmetry_multiplicity
 _atom_site_fract_x
 _atom_site_fract_y
 _atom_site_fract_z
 _atom_site_occupancy
  Li  Li0  1  0.00000000  0.00000000  0.00000000  1
  Li  Li1  1  0.00000000  0.50000000  0.13634500  1
  Li  Li2  1  0.00000000  0.50000000  0.63634500  1
  Li  Li3  1  0.10627500  0.74296400  0.81389800  1
  Li  Li4  1  0.24296400  0.60627500  0.31389800  1
  Li  Li5  1  0.25703600  0.10627500  0.18610200  1
  Li  Li6  1  0.39372500  0.24296400  0.68610200  1
  Li  Li7  1  0.50000000  0.00000000  0.36365500  1
  Li  Li8  1  0.50000000  0.00000000  0.86365500  1
  Li  Li9  1  0.50000000  0.50000000  0.50000000  1
  Li  Li10  1  0.60627500  0.75703600  0.68610200  1
  Li  Li11  1  0.74296400  0.89372500  0.18610200  1
  Li  Li12  1  0.75703600  0.39372500  0.31389800  1
  Li  Li13  1  0.89372500  0.25703600  0.81389800  1
  V  V0  1  0.12142900  0.19573500  0.62117200  1
  V  V1  1  0.19573500  0.87857100  0.37882800  1
  V  V2  1  0.30426500  0.37857100  0.12117200  1
  V  V3  1  0.37857100  0.69573500  0.87882800  1
  V  V4  1  0.62142900  0.30426500  0.87882800  1
  V  V5  1  0.69573500  0.62142900  0.12117200  1
  V  V6  1  0.80426500  0.12142900  0.37882800  1
  V  V7  1  0.87857100  0.80426500  0.62117200  1
  P  P0  1  0.00000000  0.00000000  0.50000000  1
  P  P1  1  0.05951000  0.69237600  0.38446400  1
  P  P2  1  0.10831700  0.24703800  0.13331100  1
  P  P3  1  0.19237600  0.55951000  0.88446400  1
  P  P4  1  0.24703800  0.89168300  0.86668900  1
  P  P5  1  0.25296200  0.39168300  0.63331100  1
  P  P6  1  0.30762400  0.05951000  0.61553600  1
  P  P7  1  0.39168300  0.74703800  0.36668900  1
  P  P8  1  0.44049000  0.19237600  0.11553600  1
  P  P9  1  0.50000000  0.50000000  0.00000000  1
  P  P10  1  0.55951000  0.80762400  0.11553600  1
  P  P11  1  0.60831700  0.25296200  0.36668900  1
  P  P12  1  0.69237600  0.94049000  0.61553600  1
  P  P13  1  0.74703800  0.60831700  0.63331100  1
  P  P14  1  0.75296200  0.10831700  0.86668900  1
  P  P15  1  0.80762400  0.44049000  0.88446400  1
  P  P16  1  0.89168300  0.75296200  0.13331100  1
  P  P17  1  0.94049000  0.30762400  0.38446400  1
  O  O0  1  0.00389400  0.72713900  0.17104100  1
  O  O1  1  0.01321000  0.74301700  0.57381400  1
  O  O2  1  0.06117300  0.06474300  0.64862600  1
  O  O3  1  0.06474300  0.93882700  0.35137400  1
  O  O4  1  0.05685700  0.58323000  0.38889000  1
  O  O5  1  0.08323000  0.55685700  0.88889000  1
  O  O6  1  0.10801500  0.18801800  0.93299500  1
  O  O7  1  0.14103000  0.18045300  0.31322000  1
  O  O8  1  0.15880200  0.33555400  0.62255900  1
  O  O9  1  0.16444600  0.34119800  0.12255900  1
  O  O10  1  0.16285600  0.73081100  0.34973200  1
  O  O11  1  0.18045300  0.85897000  0.68678000  1
  O  O12  1  0.18801800  0.89198500  0.06700500  1
  O  O13  1  0.22713900  0.50389400  0.67104100  1
  O  O14  1  0.23081100  0.66285600  0.84973200  1
  O  O15  1  0.24301700  0.51321000  0.07381400  1
  O  O16  1  0.25698300  0.01321000  0.42618600  1
  O  O17  1  0.26918900  0.16285600  0.65026800  1
  O  O18  1  0.27286100  0.00389400  0.82895900  1
  O  O19  1  0.31198200  0.39198500  0.43299500  1
  O  O20  1  0.31954700  0.35897000  0.81322000  1
  O  O21  1  0.33714400  0.23081100  0.15026800  1
  O  O22  1  0.33555400  0.84119800  0.37744100  1
  O  O23  1  0.34119800  0.83555400  0.87744100  1
  O  O24  1  0.35897000  0.68045300  0.18678000  1
  O  O25  1  0.39198500  0.68801800  0.56700500  1
  O  O26  1  0.41677000  0.05685700  0.61111000  1
  O  O27  1  0.44314300  0.08323000  0.11111000  1
  O  O28  1  0.43525700  0.43882700  0.14862600  1
  O  O29  1  0.43882700  0.56474300  0.85137400  1
  O  O30  1  0.48679000  0.24301700  0.92618600  1
  O  O31  1  0.49610600  0.22713900  0.32895900  1
  O  O32  1  0.50389400  0.77286100  0.32895900  1
  O  O33  1  0.51321000  0.75698300  0.92618600  1
  O  O34  1  0.56117300  0.43525700  0.85137400  1
  O  O35  1  0.56474300  0.56117300  0.14862600  1
  O  O36  1  0.55685700  0.91677000  0.11111000  1
  O  O37  1  0.58323000  0.94314300  0.61111000  1
  O  O38  1  0.60801500  0.31198200  0.56700500  1
  O  O39  1  0.64103000  0.31954700  0.18678000  1
  O  O40  1  0.65880200  0.16444600  0.87744100  1
  O  O41  1  0.66444600  0.15880200  0.37744100  1
  O  O42  1  0.66285600  0.76918900  0.15026800  1
  O  O43  1  0.68045300  0.64103000  0.81322000  1
  O  O44  1  0.68801800  0.60801500  0.43299500  1
  O  O45  1  0.72713900  0.99610600  0.82895900  1
  O  O46  1  0.73081100  0.83714400  0.65026800  1
  O  O47  1  0.74301700  0.98679000  0.42618600  1
  O  O48  1  0.75698300  0.48679000  0.07381400  1
  O  O49  1  0.76918900  0.33714400  0.84973200  1
  O  O50  1  0.77286100  0.49610600  0.67104100  1
  O  O51  1  0.81198200  0.10801500  0.06700500  1
  O  O52  1  0.81954700  0.14103000  0.68678000  1
  O  O53  1  0.83714400  0.26918900  0.34973200  1
  O  O54  1  0.83555400  0.65880200  0.12255900  1
  O  O55  1  0.84119800  0.66444600  0.62255900  1
  O  O56  1  0.85897000  0.81954700  0.31322000  1
  O  O57  1  0.89198500  0.81198200  0.93299500  1
  O  O58  1  0.91677000  0.44314300  0.88889000  1
  O  O59  1  0.94314300  0.41677000  0.38889000  1
  O  O60  1  0.93525700  0.06117300  0.35137400  1
  O  O61  1  0.93882700  0.93525700  0.64862600  1
  O  O62  1  0.98679000  0.25698300  0.57381400  1
  O  O63  1  0.99610600  0.27286100  0.17104100  1
loop_
_geom_bond_atom_site_label_1
_geom_bond_atom_site_label_2
_geom_bond_distance
_geom_bond_site_symmetry_2
Li0 O2 2.562161 1_554
Li0 O61 2.562161 1_444
Li0 O3 2.562161 1_545
Li0 O60 2.562161 1_455
Li1 O58 2.109824 1_454
Li1 O5 2.109824 1_554
Li1 O4 2.134307 1_555
Li1 O59 2.134307 1_455
Li2 O4 2.109824 1_555
Li2 O59 2.109824 1_455
Li2 O5 2.134307 1_555
Li2 O58 2.134307 1_455
Li3 O1 2.004190 1_555
Li3 O14 2.064779 1_555
Li3 O11 2.073863 1_555
Li4 O15 2.004190 1_555
Li4 O10 2.064779 1_555
Li4 O24 2.073863 1_555
Li5 O16 2.004190 1_555
Li5 O21 2.064779 1_555
Li5 O7 2.073863 1_555
Li6 O30 2.004190 1_555
Li6 O17 2.064779 1_555
Li6 O20 2.073863 1_555
Li7 O37 2.109824 1_545
Li7 O26 2.109824 1_555
Li7 O27 2.134307 1_555
Li7 O36 2.134307 1_545
Li8 O27 2.109824 1_556
Li8 O36 2.109824 1_546
Li8 O26 2.134307 1_555
Li8 O37 2.134307 1_545
Li9 O28 2.562161 1_555
Li9 O29 2.562161 1_555
Li9 O35 2.562161 1_555
Li9 O34 2.562161 1_555
Li10 O33 2.004190 1_555
Li10 O46 2.064779 1_555
Li10 O43 2.073863 1_555
Li11 O47 2.004190 1_555
Li11 O42 2.064779 1_555
Li11 O56 2.073863 1_555
Li12 O48 2.004190 1_555
Li12 O53 2.064779 1_555
Li12 O39 2.073863 1_555
Li13 O62 2.004190 1_555
Li13 O49 2.064779 1_555
Li13 O52 2.073863 1_555
O0 P16 1.613781 1_455
O0 P1 1.638867 1_555
O1 P1 1.538858 1_555
O1 V7 2.072035 1_455
O2 P0 1.557424 1_555
O2 V0 2.005826 1_555
O3 P0 1.557424 1_565
O3 V1 2.005826 1_555
O4 P1 1.513261 1_555
O5 P3 1.513261 1_555
O6 P2 1.518995 1_556
O6 V0 2.004006 1_555
O7 P2 1.542244 1_555
O7 V0 1.997680 1_555
O8 P5 1.520673 1_555
O8 V0 2.005662 1_555
O9 P2 1.520673 1_555
O9 V2 2.005662 1_555
O10 P1 1.544045 1_555
O10 V1 2.105968 1_555
O11 P4 1.542244 1_555
O11 V1 1.997680 1_555
O12 P4 1.518995 1_554
O12 V1 2.004006 1_555
O13 P5 1.613781 1_555
O13 P3 1.638867 1_555
O14 P3 1.544045 1_555
O14 V3 2.105968 1_555
O15 P3 1.538858 1_554
O15 V2 2.072035 1_555
O16 P6 1.538858 1_555
O16 V1 2.072035 1_545
O17 P6 1.544045 1_555
O17 V0 2.105968 1_555
O18 P4 1.613781 1_545
O18 P6 1.638867 1_555
O19 P5 1.518995 1_555
O19 V2 2.004006 1_555
O20 P5 1.542244 1_555
O20 V2 1.997680 1_556
O21 P8 1.544045 1_555
O21 V2 2.105968 1_555
O22 P7 1.520673 1_555
O22 V1 2.005662 1_555
O23 P4 1.520673 1_555
O23 V3 2.005662 1_555
O24 P7 1.542244 1_555
O24 V3 1.997680 1_554
O25 P7 1.518995 1_555
O25 V3 2.004006 1_555
O26 P6 1.513261 1_555
O27 P8 1.513261 1_555
O28 P9 1.557424 1_555
O28 V2 2.005826 1_555
O29 P9 1.557424 1_556
O29 V3 2.005826 1_555
O30 P8 1.538858 1_556
O30 V4 2.072035 1_555
O31 P11 1.613781 1_555
O31 P8 1.638867 1_555
O32 P7 1.613781 1_555
O32 P10 1.638867 1_555
O33 P10 1.538858 1_556
O33 V3 2.072035 1_555
O34 P9 1.557424 1_556
O34 V4 2.005826 1_555
O35 P9 1.557424 1_555
O35 V5 2.005826 1_555
O36 P10 1.513261 1_555
O37 P12 1.513261 1_555
O38 P11 1.518995 1_555
O38 V4 2.004006 1_555
O39 P11 1.542244 1_555
O39 V4 1.997680 1_554
O40 P14 1.520673 1_555
O40 V4 2.005662 1_555
O41 P11 1.520673 1_555
O41 V6 2.005662 1_555
O42 P10 1.544045 1_555
O42 V5 2.105968 1_555
O43 P13 1.542244 1_555
O43 V5 1.997680 1_556
O44 P13 1.518995 1_555
O44 V5 2.004006 1_555
O45 P14 1.613781 1_565
O45 P12 1.638867 1_555
O46 P12 1.544045 1_555
O46 V7 2.105968 1_555
O47 P12 1.538858 1_555
O47 V6 2.072035 1_565
O48 P15 1.538858 1_554
O48 V5 2.072035 1_555
O49 P15 1.544045 1_555
O49 V4 2.105968 1_555
O50 P13 1.613781 1_555
O50 P15 1.638867 1_555
O51 P14 1.518995 1_554
O51 V6 2.004006 1_555
O52 P14 1.542244 1_555
O52 V6 1.997680 1_555
O53 P17 1.544045 1_555
O53 V6 2.105968 1_555
O54 P16 1.520673 1_555
O54 V5 2.005662 1_555
O55 P13 1.520673 1_555
O55 V7 2.005662 1_555
O56 P16 1.542244 1_555
O56 V7 1.997680 1_555
O57 P16 1.518995 1_556
O57 V7 2.004006 1_555
O58 P15 1.513261 1_555
O59 P17 1.513261 1_555
O60 P0 1.557424 1_655
O60 V6 2.005826 1_555
O61 P0 1.557424 1_665
O61 V7 2.005826 1_555
O62 P17 1.538858 1_555
O62 V0 2.072035 1_655
O63 P2 1.613781 1_655
O63 P17 1.638867 1_555
