# generated using pymatgen
data_MgRe2(WO6)2
_symmetry_space_group_name_H-M   'P 1'
_cell_length_a   5.28231353
_cell_length_b   5.34872300
_cell_length_c   7.62528897
_cell_angle_alpha   90.00008944
_cell_angle_beta   90.12276963
_cell_angle_gamma   89.99462997
_symmetry_Int_Tables_number   1
_chemical_formula_structural   MgRe2(WO6)2
_chemical_formula_sum   'Mg1 Re2 W2 O12'
_cell_volume   215.44161211
_cell_formula_units_Z   1
loop_
 _symmetry_equiv_pos_site_id
 _symmetry_equiv_pos_as_xyz
  1  'x, y, z'
loop_
 _atom_site_type_symbol
 _atom_site_label
 _atom_site_symmetry_multiplicity
 _atom_site_fract_x
 _atom_site_fract_y
 _atom_site_fract_z
 _atom_site_occupancy
  Mg  Mg0  1  0.50811100  0.46765200  0.75024700  1
  Re  Re0  1  0.50305200  0.00285600  0.00253900  1
  Re  Re1  1  0.99563000  0.50140200  0.49753300  1
  W  W0  1  0.49738600  0.99969500  0.49386800  1
  W  W1  1  0.00118600  0.50449600  0.00644300  1
  O  O0  1  0.70205400  0.29804300  0.46453700  1
  O  O1  1  0.79687100  0.80105400  0.02283900  1
  O  O2  1  0.31246200  0.68608600  0.55752900  1
  O  O3  1  0.20974300  0.20940100  0.97647100  1
  O  O4  1  0.20042600  0.20931400  0.52257300  1
  O  O5  1  0.31661700  0.68937100  0.94216400  1
  O  O6  1  0.79736300  0.79431600  0.47760000  1
  O  O7  1  0.70408300  0.29599800  0.03555300  1
  O  O8  1  0.06018000  0.51108700  0.25320500  1
  O  O9  1  0.44134400  0.97127600  0.24656200  1
  O  O10  1  0.55251200  0.05591200  0.74964800  1
  O  O11  1  0.90098500  0.50204100  0.75068800  1
loop_
_geom_bond_atom_site_label_1
_geom_bond_atom_site_label_2
_geom_bond_distance
_geom_bond_site_symmetry_2
Mg0 O11 2.083432 1_555
Mg0 O5 2.139464 1_555
Mg0 O2 2.141470 1_555
Mg0 O10 2.214721 1_555
Mg0 O0 2.574550 1_555
Mg0 O7 2.576378 1_556
O0 Re1 1.910477 1_555
O0 W0 1.940804 1_545
O1 Re0 1.896451 1_565
O1 W1 1.922689 1_655
O2 Re1 1.995764 1_455
O2 W0 2.001468 1_555
O3 Re0 1.912808 1_556
O3 W1 1.938539 1_556
O4 Re1 1.909533 1_455
O4 W0 1.940811 1_545
O5 Re0 1.997906 1_566
O5 W1 1.999527 1_556
O6 Re1 1.890388 1_555
O6 W0 1.932229 1_555
O7 Re0 1.910134 1_555
O7 W1 1.938491 1_655
O8 Re1 1.895444 1_455
O8 W1 1.906929 1_555
O9 Re0 1.897305 1_565
O9 W0 1.914294 1_555
O10 Re0 1.967121 1_556
O10 W0 1.994200 1_545
O11 Re1 1.995109 1_555
O11 W1 2.019704 1_656
