# generated using pymatgen
data_Ba2SmMgCu3O7
_symmetry_space_group_name_H-M   'P 1'
_cell_length_a   3.73093944
_cell_length_b   3.99344865
_cell_length_c   14.02520602
_cell_angle_alpha   90.00000000
_cell_angle_beta   90.00000000
_cell_angle_gamma   90.00000000
_symmetry_Int_Tables_number   1
_chemical_formula_structural   Ba2SmMgCu3O7
_chemical_formula_sum   'Ba2 Sm1 Mg1 Cu3 O7'
_cell_volume   208.96596341
_cell_formula_units_Z   1
loop_
 _symmetry_equiv_pos_site_id
 _symmetry_equiv_pos_as_xyz
  1  'x, y, z'
loop_
 _atom_site_type_symbol
 _atom_site_label
 _atom_site_symmetry_multiplicity
 _atom_site_fract_x
 _atom_site_fract_y
 _atom_site_fract_z
 _atom_site_occupancy
  Ba  Ba0  1  0.50000000  0.50000000  0.74079801  1
  Ba  Ba1  1  0.50000000  0.50000000  0.20942003  1
  Sm  Sm0  1  0.50000000  0.50000000  0.48078464  1
  Mg  Mg0  1  0.50000000  0.00000000  0.92854771  1
  Cu  Cu0  1  0.00000000  0.00000000  0.59918634  1
  Cu  Cu1  1  0.00000000  0.00000000  0.35912607  1
  Cu  Cu2  1  0.00000000  0.00000000  0.06179731  1
  O  O0  1  0.00000000  0.00000000  0.84584128  1
  O  O1  1  0.00000000  0.00000000  0.19999763  1
  O  O2  1  0.00000000  0.50000000  0.59793960  1
  O  O3  1  0.00000000  0.50000000  0.37522599  1
  O  O4  1  0.50000000  0.00000000  0.60957745  1
  O  O5  1  0.50000000  0.00000000  0.39259565  1
  O  O6  1  0.00000000  0.50000000  0.02694029  1
loop_
_geom_bond_atom_site_label_1
_geom_bond_atom_site_label_2
_geom_bond_distance
_geom_bond_site_symmetry_2
Ba0 O4 2.715504 1_555
Ba0 O4 2.715504 1_565
Ba0 O2 2.737602 1_555
Ba0 O2 2.737602 1_655
Ba0 O0 3.104410 1_665
Ba0 O0 3.104410 1_655
Ba0 O0 3.104410 1_555
Ba0 O0 3.104410 1_565
Ba1 O1 2.735754 1_555
Ba1 O1 2.735754 1_655
Ba1 O1 2.735754 1_565
Ba1 O1 2.735754 1_665
Ba1 O3 2.981234 1_555
Ba1 O3 2.981234 1_655
Ba1 O6 3.167029 1_555
Ba1 O6 3.167029 1_655
Ba1 O5 3.253776 1_565
Ba1 O5 3.253776 1_555
Mg0 O0 2.196706 1_555
Mg0 O0 2.196706 1_655
Cu0 O4 1.871154 1_555
Cu0 O4 1.871154 1_455
Cu0 O2 1.996801 1_555
Cu0 O2 1.996801 1_545
Cu1 O5 1.923624 1_455
Cu1 O5 1.923624 1_555
Cu1 O3 2.009452 1_545
Cu1 O3 2.009452 1_555
Cu1 O1 2.231809 1_555
Cu2 O1 1.938288 1_555
Cu2 O6 2.055701 1_555
Cu2 O6 2.055701 1_545
O2 Sm0 2.485926 1_455
O2 Sm0 2.485926 1_555
O3 Sm0 2.381555 1_555
O3 Sm0 2.381555 1_455
O4 Sm0 2.692544 1_555
O4 Sm0 2.692544 1_545
O5 Sm0 2.348777 1_545
O5 Sm0 2.348777 1_555
