# generated using pymatgen
data_YMgCu(WO4)2
_symmetry_space_group_name_H-M   'P 1'
_cell_length_a   5.32712515
_cell_length_b   6.30612271
_cell_length_c   5.98752291
_cell_angle_alpha   104.23042228
_cell_angle_beta   114.09551172
_cell_angle_gamma   92.48635551
_symmetry_Int_Tables_number   1
_chemical_formula_structural   YMgCu(WO4)2
_chemical_formula_sum   'Y1 Mg1 Cu1 W2 O8'
_cell_volume   175.61733434
_cell_formula_units_Z   1
loop_
 _symmetry_equiv_pos_site_id
 _symmetry_equiv_pos_as_xyz
  1  'x, y, z'
loop_
 _atom_site_type_symbol
 _atom_site_label
 _atom_site_symmetry_multiplicity
 _atom_site_fract_x
 _atom_site_fract_y
 _atom_site_fract_z
 _atom_site_occupancy
  Y  Y0  1  0.62464300  0.72293200  0.09958300  1
  Mg  Mg0  1  0.62463500  0.22282900  0.09973500  1
  Cu  Cu0  1  0.12504400  0.22417500  0.10012300  1
  W  W0  1  0.90530100  0.39077000  0.63704800  1
  W  W1  1  0.34402200  0.05537500  0.56246600  1
  O  O0  1  0.15030100  0.63340500  0.86630300  1
  O  O1  1  0.65281900  0.50252000  0.35262500  1
  O  O2  1  0.17107300  0.17586800  0.80651800  1
  O  O3  1  0.60945900  0.06843000  0.38581000  1
  O  O4  1  0.59639000  0.94340800  0.84667900  1
  O  O5  1  0.09893500  0.81282000  0.33310200  1
  O  O6  1  0.63987800  0.37770200  0.81361500  1
  O  O7  1  0.07850000  0.27049000  0.39318600  1
loop_
_geom_bond_atom_site_label_1
_geom_bond_atom_site_label_2
_geom_bond_distance
_geom_bond_site_symmetry_2
Mg0 O4 1.975223 1_544
Mg0 O1 1.975993 1_555
Mg0 O3 2.194241 1_555
Mg0 O6 2.196501 1_554
Mg0 O2 2.286174 1_554
Mg0 O7 2.287331 1_655
Cu0 O7 1.826305 1_555
Cu0 O2 1.827164 1_554
O0 W0 1.805576 1_455
O0 Y0 2.293790 1_556
O1 W0 2.001957 1_555
O1 Y0 2.262246 1_555
O2 W1 2.043433 1_555
O2 W0 2.130774 1_455
O3 W1 2.092595 1_555
O3 W0 2.271896 1_555
O3 Y0 2.446079 1_545
O4 W1 2.001725 1_565
O4 Y0 2.261832 1_556
O5 W1 1.805601 1_565
O5 Y0 2.293819 1_455
O6 W0 2.092119 1_555
O6 W1 2.271783 1_555
O6 Y0 2.444191 1_556
O7 W0 2.043236 1_455
O7 W1 2.130752 1_555
