# generated using pymatgen
data_Na6Hf3ZnSi2(PO6)4
_symmetry_space_group_name_H-M   'P 1'
_cell_length_a   9.09182175
_cell_length_b   9.09495159
_cell_length_c   22.48935078
_cell_angle_alpha   89.78217631
_cell_angle_beta   90.02946744
_cell_angle_gamma   119.85158702
_symmetry_Int_Tables_number   1
_chemical_formula_structural   Na6Hf3ZnSi2(PO6)4
_chemical_formula_sum   'Na18 Hf9 Zn3 Si6 P12 O72'
_cell_volume   1612.88245547
_cell_formula_units_Z   3
loop_
 _symmetry_equiv_pos_site_id
 _symmetry_equiv_pos_as_xyz
  1  'x, y, z'
loop_
 _atom_site_type_symbol
 _atom_site_label
 _atom_site_symmetry_multiplicity
 _atom_site_fract_x
 _atom_site_fract_y
 _atom_site_fract_z
 _atom_site_occupancy
  Na  Na0  1  0.00141248  0.99365823  0.49682650  1
  Na  Na1  1  0.99913219  0.99589282  0.99773894  1
  Na  Na2  1  0.64837560  0.30086796  0.82793550  1
  Na  Na3  1  0.64958443  0.33060157  0.32064904  1
  Na  Na4  1  0.32660083  0.66576608  0.16301982  1
  Na  Na5  1  0.32379666  0.66346591  0.66516986  1
  Na  Na6  1  0.64475000  0.01778793  0.24295446  1
  Na  Na7  1  0.98267834  0.61933484  0.23943039  1
  Na  Na8  1  0.63347308  0.61496546  0.74131380  1
  Na  Na9  1  0.98698850  0.36760219  0.74437913  1
  Na  Na10  1  0.66631387  0.97288057  0.58728693  1
  Na  Na11  1  0.66515864  0.68397115  0.07924473  1
  Na  Na12  1  0.02292609  0.33985150  0.08578965  1
  Na  Na13  1  0.97123663  0.66802539  0.91857886  1
  Na  Na14  1  0.33583900  0.30656100  0.91664919  1
  Na  Na15  1  0.96406559  0.28033790  0.40849543  1
  Na  Na16  1  0.32447447  0.03055712  0.40883080  1
  Na  Na17  1  0.71714028  0.68831431  0.41405232  1
  Hf  Hf0  1  0.99578616  0.00124348  0.85426928  1
  Hf  Hf1  1  0.00604202  0.99667234  0.64476524  1
  Hf  Hf2  1  0.00801638  0.00158292  0.14934088  1
  Hf  Hf3  1  0.66771822  0.33116094  0.98027967  1
  Hf  Hf4  1  0.66848953  0.33771352  0.48380159  1
  Hf  Hf5  1  0.33229242  0.67379441  0.01754302  1
  Hf  Hf6  1  0.33751790  0.66503021  0.52184654  1
  Hf  Hf7  1  0.33730203  0.66714717  0.31272145  1
  Hf  Hf8  1  0.33701997  0.67496753  0.81402864  1
  Zn  Zn0  1  0.99548162  0.99879339  0.34647016  1
  Zn  Zn1  1  0.65298528  0.32981318  0.67850408  1
  Zn  Zn2  1  0.66352325  0.33422163  0.17744294  1
  Si  Si0  1  0.66817765  0.63027653  0.58719308  1
  Si  Si1  1  0.96350414  0.62837750  0.08668563  1
  Si  Si2  1  0.62649701  0.66699172  0.91725896  1
  Si  Si3  1  0.04086244  0.37489773  0.91640997  1
  Si  Si4  1  0.33622921  0.96397899  0.91503814  1
  Si  Si5  1  0.63050202  0.96528307  0.41627727  1
  P  P0  1  0.29539355  0.00101317  0.25546916  1
  P  P1  1  0.70465362  0.70341191  0.25231540  1
  P  P2  1  0.00072033  0.29710201  0.25293988  1
  P  P3  1  0.29313823  0.29316911  0.75081678  1
  P  P4  1  0.00336286  0.70687712  0.75114229  1
  P  P5  1  0.70637072  -0.00012165  0.74658838  1
  P  P6  1  0.96163862  0.33458991  0.58700451  1
  P  P7  1  0.37513621  0.04076481  0.58285850  1
  P  P8  1  0.66565743  0.03734283  0.08891765  1
  P  P9  1  0.37260319  0.33437886  0.08418877  1
  P  P10  1  0.33745000  0.37613332  0.41738037  1
  P  P11  1  0.04157982  0.66243370  0.41622840  1
  O  O0  1  0.21592017  0.01404516  0.31402529  1
  O  O1  1  0.80379880  0.78190174  0.31000612  1
  O  O2  1  0.98704500  0.19771993  0.31007084  1
  O  O3  1  0.20097105  0.19738144  0.80866245  1
  O  O4  1  0.99658779  0.80185057  0.80745085  1
  O  O5  1  0.81868520  0.01133100  0.80074996  1
  O  O6  1  0.79606571  0.98196909  0.69003987  1
  O  O7  1  0.17802348  0.19512280  0.69720060  1
  O  O8  1  0.01222319  0.81526504  0.69604508  1
  O  O9  1  0.80022123  0.82367447  0.19807620  1
  O  O10  1  0.01437968  0.20379237  0.19672968  1
  O  O11  1  0.17546563  0.98160729  0.20241646  1
  O  O12  1  0.88434684  0.35604835  0.64419877  1
  O  O13  1  0.49469686  0.11443260  0.63561813  1
  O  O14  1  0.64434698  0.52554556  0.64717879  1
  O  O15  1  0.88472342  0.51305839  0.14562035  1
  O  O16  1  0.64063577  0.10689267  0.14719770  1
  O  O17  1  0.48399811  0.36199573  0.13784071  1
  O  O18  1  0.44910088  0.31016897  0.02588243  1
  O  O19  1  0.83996995  0.53550255  0.02888000  1
  O  O20  1  0.68672673  0.15542640  0.03572058  1
  O  O21  1  0.45890705  0.14583360  0.52485089  1
  O  O22  1  0.68419005  0.53502497  0.52681626  1
  O  O23  1  0.84268950  0.30768051  0.53201157  1
  O  O24  1  0.53984455  0.69090313  0.97700637  1
  O  O25  1  0.16072259  0.46456295  0.97457410  1
  O  O26  1  0.29842610  0.83879734  0.97195737  1
  O  O27  1  0.53034536  0.84548593  0.47393318  1
  O  O28  1  0.31676065  0.46657600  0.47202759  1
  O  O29  1  0.15427397  0.67705853  0.46949635  1
  O  O30  1  0.12282229  0.63543110  0.35909906  1
  O  O31  1  0.50757001  0.86984797  0.35789381  1
  O  O32  1  0.35815399  0.48747800  0.36175029  1
  O  O33  1  0.13134830  0.49569272  0.85793047  1
  O  O34  1  0.36269543  0.87332986  0.85684785  1
  O  O35  1  0.50687032  0.63775509  0.85873559  1
  O  O36  1  0.02268397  0.82068887  0.41421274  1
  O  O37  1  0.81775215  0.98330826  0.41327180  1
  O  O38  1  0.18339945  0.19701681  0.41442164  1
  O  O39  1  0.02579178  0.18910157  0.91118523  1
  O  O40  1  0.16529530  0.98149792  0.91009587  1
  O  O41  1  0.81943393  0.82715510  0.91103633  1
  O  O42  1  0.97697155  0.17083800  0.58771340  1
  O  O43  1  0.20021449  0.02879130  0.58836456  1
  O  O44  1  0.83601872  0.82511829  0.58649799  1
  O  O45  1  0.97548651  0.81637695  0.09172615  1
  O  O46  1  0.83517483  0.02853095  0.09031993  1
  O  O47  1  0.18734730  0.17968932  0.09058945  1
  O  O48  1  0.69138921  0.15974912  0.74568565  1
  O  O49  1  0.47124131  0.31592464  0.74934819  1
  O  O50  1  0.84420105  0.52987300  0.75133489  1
  O  O51  1  0.68205617  0.52680945  0.24494671  1
  O  O52  1  0.84212471  0.31709130  0.24988360  1
  O  O53  1  0.47676529  0.14670530  0.24768058  1
  O  O54  1  0.64236792  0.49526976  0.92294116  1
  O  O55  1  0.85624696  0.36059251  0.92422184  1
  O  O56  1  0.49703960  0.15304859  0.92293724  1
  O  O57  1  0.64438465  0.15324382  0.42065060  1
  O  O58  1  0.50538465  0.36890358  0.42110762  1
  O  O59  1  0.86302449  0.49936983  0.42216154  1
  O  O60  1  0.35079359  0.49421243  0.07936500  1
  O  O61  1  0.15223196  0.64826168  0.07921014  1
  O  O62  1  0.51944139  0.85241171  0.08000303  1
  O  O63  1  0.34501342  0.85796695  0.57432338  1
  O  O64  1  0.50487576  0.66441962  0.58099418  1
  O  O65  1  0.13908320  0.48973433  0.57646156  1
  O  O66  1  0.29788150  0.82712343  0.25391410  1
  O  O67  1  0.52930554  0.70012131  0.25349176  1
  O  O68  1  0.16176570  0.47931555  0.25326167  1
  O  O69  1  0.30273891  0.47129911  0.75075584  1
  O  O70  1  0.16442604  0.68729313  0.75018025  1
  O  O71  1  0.53356183  0.83020742  0.75042476  1
loop_
_geom_bond_atom_site_label_1
_geom_bond_atom_site_label_2
_geom_bond_distance
_geom_bond_site_symmetry_2
Na0 O37 2.483896 1_455
Na0 O36 2.507901 1_555
Na0 O44 2.522443 1_455
Na0 O38 2.554121 1_565
Na0 O43 2.652026 1_565
Na0 O42 2.684398 1_465
Na1 O41 2.519904 1_555
Na1 O40 2.527120 1_655
Na1 O39 2.546774 1_665
Na1 O45 2.608538 1_556
Na1 O46 2.663400 1_566
Na1 O47 2.694094 1_666
Na2 O48 2.395884 1_555
Na2 O49 2.439422 1_555
Na2 O56 2.530817 1_555
Na2 O50 2.599974 1_555
Na2 O55 2.745664 1_555
Na2 O54 2.796280 1_555
Na3 O53 2.315414 1_555
Na3 O51 2.371296 1_555
Na3 O52 2.414695 1_555
Na3 O58 2.721776 1_555
Na3 O57 2.749304 1_555
Na3 O59 2.896634 1_555
Na4 O61 2.416431 1_555
Na4 O60 2.527187 1_555
Na4 O62 2.541189 1_555
Na4 O68 2.585994 1_555
Na4 O66 2.608685 1_555
Na4 O67 2.657377 1_555
Na5 O70 2.473895 1_555
Na5 O64 2.506598 1_555
Na5 O69 2.537266 1_555
Na5 O65 2.583766 1_555
Na5 O71 2.598515 1_555
Na5 O63 2.640811 1_555
Na6 O16 2.304902 1_555
Na6 O53 2.345734 1_555
Na6 O52 2.407194 1_555
Na6 O67 2.545836 1_545
Na6 O66 2.750780 1_545
Na6 O31 2.890324 1_545
Na6 O9 2.938165 1_545
Na7 O15 2.309758 1_555
Na7 O52 2.396467 1_555
Na7 O51 2.429771 1_555
Na7 O68 2.535798 1_655
Na7 O66 2.549983 1_655
Na8 O14 2.290495 1_555
Na8 O49 2.368179 1_555
Na8 O50 2.407222 1_555
Na8 O71 2.544188 1_555
Na8 O69 2.623253 1_555
Na8 O35 2.930218 1_555
Na9 O48 2.395682 1_555
Na9 O50 2.407739 1_555
Na9 O12 2.420721 1_555
Na9 O70 2.531138 1_655
Na9 O69 2.540970 1_655
Na9 O33 2.845731 1_655
Na10 O64 2.438937 1_555
Na10 O42 2.481297 1_565
Na10 O44 2.500281 1_555
Na10 O6 2.576833 1_555
Na10 O63 2.583185 1_555
Na10 O13 2.699176 1_565
Na10 O27 2.821821 1_555
Na10 O23 2.915656 1_565
Na11 O45 2.471611 1_555
Na11 O62 2.474486 1_555
Na11 O60 2.497393 1_555
Na11 O24 2.580006 1_554
Na11 O46 2.730400 1_565
Na11 O19 2.789679 1_555
Na11 O17 2.862864 1_555
Na11 O9 2.955243 1_555
Na12 O61 2.446652 1_555
Na12 O46 2.475423 1_455
Na12 O47 2.556294 1_555
Na12 O60 2.590451 1_555
Na12 O10 2.764633 1_555
Na12 O25 2.771088 1_554
Na12 O15 2.803445 1_455
Na12 O20 2.886410 1_455
Na13 O55 2.452459 1_555
Na13 O41 2.452476 1_555
Na13 O40 2.503244 1_655
Na13 O54 2.596305 1_555
Na13 O4 2.734723 1_555
Na13 O19 2.752953 1_556
Na13 O26 2.848420 1_655
Na13 O33 2.953929 1_655
Na14 O54 2.443830 1_555
Na14 O39 2.470885 1_555
Na14 O56 2.480464 1_555
Na14 O40 2.570211 1_545
Na14 O18 2.657189 1_556
Na14 O3 2.681526 1_555
Na14 O35 2.914963 1_555
Na14 O25 2.931027 1_555
Na15 O37 2.345099 1_545
Na15 O2 2.382702 1_555
Na15 O38 2.464138 1_655
Na15 O57 2.551932 1_555
Na15 O59 2.594904 1_555
Na16 O0 2.322771 1_555
Na16 O38 2.426456 1_555
Na16 O36 2.443638 1_545
Na16 O57 2.558527 1_555
Na16 O58 2.686689 1_555
Na16 O21 2.853581 1_555
Na16 O31 2.942229 1_545
Na17 O37 2.364693 1_555
Na17 O36 2.415997 1_655
Na17 O1 2.477837 1_555
Na17 O58 2.569037 1_555
Na17 O59 2.648000 1_555
Na17 O22 2.832450 1_555
Hf0 O41 2.041330 1_545
Hf0 O39 2.045548 1_655
Hf0 O5 2.047922 1_555
Hf0 O40 2.062885 1_645
Hf0 O3 2.095105 1_655
Hf0 O4 2.103578 1_545
Hf1 O8 2.032991 1_555
Hf1 O44 2.038023 1_455
Hf1 O43 2.072892 1_565
Hf1 O7 2.073150 1_565
Hf1 O6 2.108546 1_455
Hf1 O42 2.150866 1_465
Hf2 O11 2.011805 1_545
Hf2 O45 2.030750 1_445
Hf2 O9 2.081848 1_445
Hf2 O47 2.093992 1_555
Hf2 O10 2.104830 1_555
Hf2 O46 2.161052 1_455
Hf3 O55 2.035180 1_555
Hf3 O56 2.050993 1_555
Hf3 O19 2.053631 1_556
Hf3 O54 2.066690 1_555
Hf3 O20 2.097287 1_556
Hf3 O18 2.159111 1_556
Hf4 O22 1.983582 1_555
Hf4 O23 2.045772 1_555
Hf4 O21 2.051289 1_555
Hf4 O57 2.128767 1_555
Hf4 O59 2.147054 1_555
Hf4 O58 2.163575 1_555
Hf5 O26 1.961092 1_554
Hf5 O25 2.011381 1_554
Hf5 O24 2.030901 1_554
Hf5 O61 2.068513 1_555
Hf5 O62 2.184154 1_555
Hf5 O60 2.210194 1_555
Hf6 O27 2.013050 1_555
Hf6 O64 2.022608 1_555
Hf6 O28 2.055417 1_555
Hf6 O29 2.086174 1_555
Hf6 O63 2.091223 1_555
Hf6 O65 2.104587 1_555
Hf7 O31 1.999679 1_555
Hf7 O32 2.053397 1_555
Hf7 O67 2.095180 1_555
Hf7 O30 2.100820 1_555
Hf7 O66 2.120974 1_555
Hf7 O68 2.134142 1_555
Hf8 O34 1.957116 1_555
Hf8 O35 2.006553 1_555
Hf8 O33 2.020989 1_555
Hf8 O71 2.169856 1_555
Hf8 O70 2.169872 1_555
Hf8 O69 2.235627 1_555
O0 P0 1.535499 1_555
O0 Zn0 2.071809 1_445
O1 P1 1.539708 1_555
O1 Zn0 2.046794 1_555
O2 P2 1.537113 1_655
O2 Zn0 2.018939 1_545
O3 P3 1.555404 1_555
O4 P4 1.553994 1_655
O5 P5 1.559182 1_555
O6 P5 1.563251 1_565
O7 P3 1.556366 1_555
O8 P4 1.557366 1_555
O9 P1 1.576098 1_555
O10 P2 1.564253 1_555
O11 P0 1.565970 1_565
O12 P6 1.525040 1_555
O12 Zn1 2.139502 1_555
O13 P7 1.522517 1_555
O13 Zn1 2.011225 1_555
O14 Si0 1.599760 1_555
O14 Zn1 1.949638 1_555
O15 Si1 1.616261 1_555
O15 Zn2 1.984569 1_555
O16 P8 1.523031 1_555
O16 Zn2 2.088770 1_555
O17 P9 1.514100 1_555
O17 Zn2 1.982015 1_555
O18 P9 1.551525 1_555
O19 Si1 1.651482 1_555
O20 P8 1.551468 1_555
O21 P7 1.569109 1_555
O22 Si0 1.658343 1_555
O23 P6 1.580020 1_555
O24 Si2 1.627058 1_555
O25 Si3 1.638778 1_555
O26 Si4 1.628734 1_555
O27 Si5 1.643285 1_555
O28 P10 1.544137 1_555
O29 P11 1.538466 1_555
O30 P11 1.562236 1_555
O31 Si5 1.663720 1_555
O32 P10 1.557882 1_555
O33 Si3 1.644326 1_555
O34 Si4 1.629796 1_555
O35 Si2 1.642916 1_555
O36 P11 1.532605 1_555
O36 Zn0 2.320726 1_455
O37 Si5 1.628482 1_555
O37 Zn0 2.159221 1_555
O38 P10 1.532726 1_555
O38 Zn0 2.335916 1_445
O39 Si3 1.630652 1_555
O40 Si4 1.642914 1_555
O41 Si2 1.635077 1_555
O42 P6 1.563410 1_555
O43 P7 1.544059 1_555
O44 Si0 1.666409 1_555
O45 Si1 1.662623 1_555
O46 P8 1.582933 1_555
O47 P9 1.573748 1_555
O48 P5 1.526455 1_555
O48 Zn1 2.305714 1_555
O49 P3 1.527212 1_555
O49 Zn1 2.253470 1_555
O50 P4 1.538338 1_655
O50 Zn1 2.426218 1_555
O51 P1 1.524138 1_555
O51 Zn2 2.264339 1_555
O52 P2 1.541975 1_655
O52 Zn2 2.358464 1_555
O53 P0 1.526102 1_555
O53 Zn2 2.320834 1_555
O54 Si2 1.642922 1_555
O55 Si3 1.627223 1_655
O56 Si4 1.620291 1_545
O57 Si5 1.653614 1_545
O58 P10 1.562798 1_555
O59 P11 1.566720 1_655
O60 P9 1.565248 1_555
O61 Si1 1.642060 1_455
O62 P8 1.553302 1_565
O63 P7 1.557234 1_565
O64 Si0 1.666934 1_555
O65 P6 1.543246 1_455
O66 P0 1.593415 1_565
O67 P1 1.579783 1_555
O68 P2 1.573145 1_555
O69 P3 1.578448 1_555
O70 P4 1.560850 1_555
O71 P5 1.562932 1_565
