# generated using pymatgen
data_Na7La2Al2SiP5O24
_symmetry_space_group_name_H-M   'P 1'
_cell_length_a   9.16929898
_cell_length_b   9.15328443
_cell_length_c   22.59330026
_cell_angle_alpha   89.91998853
_cell_angle_beta   89.82496835
_cell_angle_gamma   119.82345966
_symmetry_Int_Tables_number   1
_chemical_formula_structural   Na7La2Al2SiP5O24
_chemical_formula_sum   'Na21 La6 Al6 Si3 P15 O72'
_cell_volume   1645.08656359
_cell_formula_units_Z   3
loop_
 _symmetry_equiv_pos_site_id
 _symmetry_equiv_pos_as_xyz
  1  'x, y, z'
loop_
 _atom_site_type_symbol
 _atom_site_label
 _atom_site_symmetry_multiplicity
 _atom_site_fract_x
 _atom_site_fract_y
 _atom_site_fract_z
 _atom_site_occupancy
  Na  Na0  1  0.37259707  0.37654320  0.25364735  1
  Na  Na1  1  0.00401820  0.63004738  0.25154971  1
  Na  Na2  1  0.63802881  0.65517236  0.75298708  1
  Na  Na3  1  0.00099244  0.35655534  0.75842609  1
  Na  Na4  1  0.35485057  0.98605062  0.75272904  1
  Na  Na5  1  0.31110271  0.33458366  0.57500929  1
  Na  Na6  1  0.03350090  0.68657171  0.57606474  1
  Na  Na7  1  0.64903612  0.96812712  0.58137269  1
  Na  Na8  1  0.31023619  0.97701444  0.08393873  1
  Na  Na9  1  0.67532239  0.68989295  0.08344829  1
  Na  Na10  1  0.02359582  0.34124384  0.08561795  1
  Na  Na11  1  0.95990711  0.66619301  0.92021310  1
  Na  Na12  1  0.70512080  0.03694045  0.91522879  1
  Na  Na13  1  0.96126962  0.29146215  0.41102332  1
  Na  Na14  1  0.33031079  0.03602980  0.41490347  1
  Na  Na15  1  0.99233989  0.98571885  0.49609156  1
  Na  Na16  1  0.01045297  0.00775070  0.00922649  1
  Na  Na17  1  0.65446253  0.32924806  0.83123898  1
  Na  Na18  1  0.66626627  0.33205538  0.33056222  1
  Na  Na19  1  0.34071964  0.67921908  0.16830123  1
  Na  Na20  1  0.34132474  0.67784902  0.66666554  1
  La  La0  1  0.01189247  0.01268490  0.85740619  1
  La  La1  1  0.00117611  0.00139163  0.65814477  1
  La  La2  1  0.66276539  0.32519557  0.67274564  1
  La  La3  1  0.66972946  0.32383925  0.18447975  1
  La  La4  1  0.65799740  0.33668962  0.98575158  1
  La  La5  1  0.66442011  0.34425090  0.47456145  1
  Al  Al0  1  0.98744269  0.99231288  0.34981392  1
  Al  Al1  1  0.99443134  0.99354774  0.15546569  1
  Al  Al2  1  0.33084717  0.66416084  0.01874529  1
  Al  Al3  1  0.33986434  0.67163613  0.50945861  1
  Al  Al4  1  0.34780509  0.67583115  0.31534992  1
  Al  Al5  1  0.33548848  0.66652769  0.81898807  1
  Si  Si0  1  0.67299643  0.99092291  0.75473773  1
  Si  Si1  1  0.34815438  0.00409188  0.57686815  1
  Si  Si2  1  0.99107533  0.65929988  0.08479861  1
  P  P0  1  0.26906561  0.98957060  0.25580671  1
  P  P1  1  0.71012335  0.72700610  0.25388664  1
  P  P2  1  0.01094507  0.28358377  0.25490358  1
  P  P3  1  0.31876096  0.33084580  0.75009878  1
  P  P4  1  0.01009538  0.68162984  0.75544205  1
  P  P5  1  0.99580606  0.34836852  0.57619860  1
  P  P6  1  0.65355550  0.64874085  0.58157032  1
  P  P7  1  0.66825526  0.00841998  0.08055935  1
  P  P8  1  0.33960854  0.33095059  0.08876195  1
  P  P9  1  0.60113867  0.66115596  0.91850215  1
  P  P10  1  0.06008111  0.39785515  0.91977984  1
  P  P11  1  0.33789592  0.93563335  0.91922716  1
  P  P12  1  0.62602125  0.93706297  0.41074827  1
  P  P13  1  0.31725738  0.38007562  0.40917219  1
  P  P14  1  0.06780633  0.68131088  0.40846603  1
  O  O0  1  0.17788459  0.00680532  0.31114173  1
  O  O1  1  0.82493623  0.81894506  0.30630012  1
  O  O2  1  0.99552392  0.17994992  0.31102024  1
  O  O3  1  0.22435896  0.18958163  0.79615524  1
  O  O4  1  0.97829554  0.77215601  0.80733731  1
  O  O5  1  0.80751137  0.03111851  0.80846401  1
  O  O6  1  0.74823215  0.95825270  0.69313900  1
  O  O7  1  0.22719987  0.27016151  0.68999099  1
  O  O8  1  0.04374261  0.78525182  0.69763768  1
  O  O9  1  0.79399494  0.82211141  0.19531930  1
  O  O10  1  0.01506693  0.18716657  0.19876594  1
  O  O11  1  0.16375574  0.97278583  0.19939609  1
  O  O12  1  0.93050847  0.38350715  0.63498460  1
  O  O13  1  0.45344592  0.07335683  0.63927141  1
  O  O14  1  0.62327522  0.55956408  0.64233715  1
  O  O15  1  0.90992335  0.52104184  0.13955525  1
  O  O16  1  0.60938168  0.08747629  0.12933283  1
  O  O17  1  0.45912139  0.38047476  0.14269733  1
  O  O18  1  0.41431643  0.27463642  0.03777806  1
  O  O19  1  0.85992500  0.58376954  0.02811630  1
  O  O20  1  0.71552189  0.12181099  0.02464077  1
  O  O21  1  0.44200184  0.14503009  0.52464598  1
  O  O22  1  0.70240998  0.55398077  0.53654308  1
  O  O23  1  0.86862795  0.31314660  0.52618455  1
  O  O24  1  0.50207125  0.64971989  0.97520546  1
  O  O25  1  0.14956061  0.49650018  0.97607398  1
  O  O26  1  0.35128452  0.84774912  0.97551423  1
  O  O27  1  0.54241416  0.84190785  0.46905537  1
  O  O28  1  0.31314798  0.47397333  0.46600170  1
  O  O29  1  0.17094423  0.69736471  0.46534385  1
  O  O30  1  0.16145172  0.66715850  0.35350711  1
  O  O31  1  0.51166267  0.84540440  0.35827739  1
  O  O32  1  0.33177623  0.48576669  0.35386574  1
  O  O33  1  0.15561848  0.48617597  0.86265753  1
  O  O34  1  0.32958592  0.83975544  0.86217916  1
  O  O35  1  0.51177391  0.66716951  0.86177457  1
  O  O36  1  0.04132690  0.83819303  0.40724619  1
  O  O37  1  0.81053222  0.96746927  0.40635569  1
  O  O38  1  0.15482436  0.19939098  0.41037454  1
  O  O39  1  0.02993609  0.21599488  0.92595618  1
  O  O40  1  0.17534761  0.94779073  0.92574161  1
  O  O41  1  0.77813963  0.82436190  0.92345809  1
  O  O42  1  0.01651809  0.19175215  0.58086184  1
  O  O43  1  0.15738993  0.97520982  0.58099848  1
  O  O44  1  0.80134627  0.83106721  0.58193864  1
  O  O45  1  0.00508255  0.84306842  0.09947481  1
  O  O46  1  0.82867349  0.00216980  0.09783506  1
  O  O47  1  0.16247079  0.17700448  0.10066613  1
  O  O48  1  0.64909650  0.15607090  0.75154297  1
  O  O49  1  0.50027294  0.36403707  0.74889719  1
  O  O50  1  0.85372806  0.50603454  0.75040844  1
  O  O51  1  0.69251787  0.54650454  0.25203516  1
  O  O52  1  0.85857149  0.31631930  0.25519374  1
  O  O53  1  0.44340645  0.15507775  0.25361155  1
  O  O54  1  0.63508507  0.51117335  0.91324090  1
  O  O55  1  0.88186586  0.38167985  0.91522751  1
  O  O56  1  0.49674427  0.11344727  0.91412048  1
  O  O57  1  0.64485655  0.11790080  0.41154930  1
  O  O58  1  0.46856073  0.34681100  0.40695566  1
  O  O59  1  0.89449498  0.51570743  0.40868030  1
  O  O60  1  0.32349606  0.48761111  0.07355506  1
  O  O61  1  0.18011855  0.68250977  0.07330319  1
  O  O62  1  0.51880104  0.82700821  0.07171977  1
  O  O63  1  0.34633837  0.82741858  0.56434845  1
  O  O64  1  0.48792458  0.64414432  0.56545854  1
  O  O65  1  0.16673895  0.50688210  0.56370059  1
  O  O66  1  0.29413671  0.83182720  0.25738814  1
  O  O67  1  0.52536290  0.69651584  0.25847410  1
  O  O68  1  0.17353578  0.46436114  0.25394593  1
  O  O69  1  0.31925391  0.49513642  0.76466039  1
  O  O70  1  0.16762228  0.66457012  0.76482031  1
  O  O71  1  0.49100439  0.82015546  0.76402539  1
loop_
_geom_bond_atom_site_label_1
_geom_bond_atom_site_label_2
_geom_bond_distance
_geom_bond_site_symmetry_2
Na0 O68 2.331739 1_555
Na0 O53 2.416603 1_555
Na0 O67 2.544226 1_555
Na0 O51 2.546891 1_555
Na0 O32 2.576791 1_555
Na0 O17 2.621756 1_555
Na1 O66 2.370873 1_555
Na1 O52 2.494212 1_455
Na1 O51 2.563257 1_455
Na1 O30 2.653368 1_555
Na1 O68 2.657808 1_555
Na1 O15 2.703072 1_455
Na2 O49 2.314901 1_555
Na2 O71 2.486779 1_555
Na2 O69 2.548401 1_555
Na2 O14 2.631408 1_555
Na2 O35 2.739195 1_555
Na2 O6 2.781796 1_555
Na2 O50 2.909233 1_555
Na2 O4 3.015453 1_555
Na3 O50 2.359377 1_455
Na3 O70 2.453951 1_555
Na3 O69 2.542841 1_555
Na3 O33 2.705289 1_555
Na3 O48 2.813762 1_455
Na3 O5 2.832084 1_455
Na3 O12 2.902494 1_455
Na3 O7 2.988886 1_555
Na4 O48 2.350543 1_565
Na4 O71 2.411638 1_555
Na4 O70 2.578940 1_555
Na4 O13 2.699699 1_565
Na4 O34 2.764134 1_555
Na4 O8 2.806775 1_555
Na4 O3 2.842549 1_565
Na5 O42 2.346837 1_555
Na5 O64 2.476013 1_555
Na5 O65 2.526292 1_555
Na5 O7 2.687101 1_555
Na5 O28 2.767839 1_555
Na5 O21 2.795398 1_555
Na5 O43 2.865553 1_545
Na5 O14 2.986686 1_555
Na6 O43 2.302033 1_555
Na6 O65 2.504724 1_555
Na6 O63 2.505292 1_555
Na6 O29 2.777045 1_555
Na6 O12 2.781272 1_455
Na6 O22 2.800280 1_455
Na6 O8 2.879819 1_555
Na7 O44 2.295052 1_555
Na7 O63 2.441837 1_555
Na7 O64 2.598962 1_555
Na7 O6 2.703167 1_555
Na7 O13 2.750034 1_565
Na7 O27 2.762237 1_555
Na8 O61 2.356367 1_555
Na8 O45 2.456836 1_555
Na8 O18 2.611485 1_565
Na8 O16 2.619062 1_565
Na8 O47 2.792018 1_565
Na8 O26 2.826292 1_554
Na8 O62 2.868509 1_555
Na8 O11 2.921760 1_555
Na9 O62 2.344818 1_555
Na9 O46 2.502140 1_565
Na9 O19 2.645273 1_555
Na9 O45 2.651574 1_655
Na9 O9 2.784355 1_555
Na9 O60 2.819511 1_555
Na9 O24 2.843384 1_554
Na9 O17 2.851635 1_555
Na10 O60 2.400199 1_555
Na10 O47 2.429489 1_555
Na10 O15 2.642711 1_455
Na10 O46 2.716672 1_455
Na10 O61 2.725927 1_555
Na10 O25 2.796266 1_554
Na10 O20 2.880951 1_455
Na10 O10 2.899865 1_555
Na11 O55 2.335483 1_555
Na11 O40 2.345105 1_655
Na11 O19 2.578023 1_556
Na11 O54 2.590159 1_555
Na11 O41 2.697933 1_555
Na11 O4 2.701974 1_555
Na12 O56 2.339400 1_555
Na12 O41 2.358921 1_545
Na12 O20 2.579994 1_556
Na12 O5 2.595982 1_555
Na12 O39 2.601076 1_655
Na12 O55 2.738070 1_555
Na13 O38 2.312531 1_655
Na13 O59 2.416754 1_555
Na13 O57 2.521238 1_555
Na13 O2 2.562490 1_555
Na13 O37 2.577012 1_545
Na13 O23 2.772428 1_555
Na14 O36 2.358262 1_545
Na14 O58 2.478249 1_555
Na14 O57 2.595076 1_555
Na14 O0 2.677815 1_555
Na14 O21 2.682911 1_555
Na14 O38 2.688738 1_555
Na14 O29 2.918521 1_545
Na15 O43 2.478228 1_655
Na15 O44 2.517639 1_555
Na15 O36 2.580669 1_655
Na15 O37 2.581093 1_555
Na15 O38 2.620854 1_665
Na15 O42 2.621195 1_665
Na16 O45 2.519752 1_545
Na16 O47 2.547489 1_555
Na16 O46 2.585204 1_455
Na16 O39 2.617998 1_554
Na16 O40 2.637396 1_544
Na16 O41 2.754636 1_444
Na17 O48 2.384989 1_555
Na17 O49 2.454274 1_555
Na17 O50 2.514465 1_555
Na17 O54 2.556927 1_555
Na17 O56 2.575160 1_555
Na17 O55 2.685192 1_555
Na18 O52 2.502910 1_555
Na18 O58 2.551204 1_555
Na18 O53 2.561159 1_555
Na18 O51 2.564450 1_555
Na18 O57 2.614204 1_555
Na18 O59 2.617636 1_555
Na19 O66 2.604029 1_555
Na19 O67 2.607191 1_555
Na19 O61 2.615223 1_555
Na19 O68 2.633336 1_555
Na19 O62 2.651543 1_555
Na19 O60 2.724013 1_555
Na20 O71 2.582092 1_555
Na20 O63 2.673611 1_555
Na20 O70 2.693437 1_555
Na20 O69 2.718480 1_555
Na20 O64 2.743414 1_555
Na20 O65 2.822145 1_555
La0 O5 2.256066 1_455
La0 O3 2.274174 1_555
La0 O4 2.357161 1_445
La0 O39 2.364864 1_555
La0 O40 2.424854 1_545
La0 O41 2.467945 1_445
La1 O6 2.288507 1_445
La1 O43 2.339760 1_545
La1 O8 2.372291 1_545
La1 O7 2.409942 1_555
La1 O42 2.418845 1_555
La1 O44 2.436746 1_445
La2 O13 2.276517 1_555
La2 O48 2.319385 1_555
La2 O12 2.392160 1_555
La2 O49 2.412349 1_555
La2 O14 2.444427 1_555
La2 O50 2.455346 1_555
La3 O15 2.272889 1_555
La3 O16 2.315228 1_555
La3 O52 2.385513 1_555
La3 O17 2.427892 1_555
La3 O53 2.432537 1_555
La3 O51 2.472695 1_555
La4 O19 2.304552 1_556
La4 O18 2.327343 1_556
La4 O54 2.367970 1_555
La4 O20 2.438973 1_556
La4 O56 2.449390 1_555
La4 O55 2.461593 1_555
La5 O21 2.246332 1_555
La5 O22 2.261202 1_555
La5 O23 2.343097 1_555
La5 O58 2.370098 1_555
La5 O59 2.410437 1_555
La5 O57 2.447783 1_555
Al0 O1 1.834777 1_555
Al0 O0 1.894792 1_665
Al0 O2 1.895338 1_565
Al0 O37 1.983584 1_555
Al0 O36 2.147092 1_655
Al0 O38 2.224167 1_665
Al1 O45 1.909162 1_655
Al1 O11 1.932388 1_655
Al1 O9 1.941203 1_555
Al1 O10 1.950938 1_665
Al1 O47 2.033663 1_665
Al1 O46 2.035378 1_565
Al2 O26 1.869241 1_554
Al2 O25 1.877311 1_554
Al2 O24 1.909821 1_554
Al2 O61 1.918021 1_555
Al2 O60 2.008745 1_555
Al2 O62 2.021606 1_555
Al3 O63 1.869739 1_555
Al3 O27 1.954027 1_555
Al3 O29 1.954350 1_555
Al3 O64 1.963829 1_555
Al3 O28 1.965459 1_555
Al3 O65 1.974292 1_555
Al4 O31 1.816792 1_555
Al4 O30 1.877541 1_555
Al4 O32 1.883114 1_555
Al4 O67 2.004417 1_555
Al4 O66 2.166456 1_555
Al4 O68 2.273608 1_555
Al5 O71 1.882191 1_555
Al5 O35 1.883463 1_555
Al5 O34 1.886443 1_555
Al5 O33 1.922540 1_555
Al5 O69 1.940128 1_555
Al5 O70 1.962498 1_555
O0 P0 1.553141 1_545
O1 P1 1.532317 1_555
O2 P2 1.545774 1_655
O3 P3 1.543193 1_555
O4 P4 1.545083 1_655
O5 Si0 1.639855 1_545
O6 Si0 1.643989 1_555
O7 P3 1.550117 1_555
O8 P4 1.550300 1_555
O9 P1 1.557193 1_555
O10 P2 1.557234 1_555
O11 P0 1.562332 1_555
O12 P5 1.553655 1_555
O13 Si1 1.650407 1_555
O14 P6 1.548356 1_555
O15 Si2 1.655016 1_555
O16 P7 1.554507 1_555
O17 P8 1.551420 1_555
O18 P8 1.552373 1_555
O19 Si2 1.658036 1_555
O20 P7 1.551381 1_555
O21 Si1 1.637735 1_555
O22 P6 1.540802 1_555
O23 P5 1.541359 1_555
O24 P9 1.541201 1_555
O25 P10 1.542340 1_555
O26 P11 1.541347 1_555
O27 P12 1.551839 1_555
O28 P13 1.556817 1_555
O29 P14 1.561104 1_555
O30 P14 1.549349 1_555
O31 P12 1.531058 1_555
O32 P13 1.543541 1_555
O33 P10 1.540234 1_555
O34 P11 1.540941 1_555
O35 P9 1.538899 1_555
O36 P14 1.571143 1_555
O37 P12 1.574854 1_555
O38 P13 1.582347 1_555
O39 P10 1.551866 1_555
O40 P11 1.555370 1_555
O41 P9 1.571066 1_555
O42 P5 1.540372 1_455
O43 Si1 1.636214 1_565
O44 P6 1.540215 1_555
O45 Si2 1.656136 1_455
O46 P7 1.551251 1_555
O47 P8 1.554294 1_555
O48 Si0 1.633280 1_545
O49 P3 1.536170 1_555
O50 P4 1.536660 1_655
O51 P1 1.578753 1_555
O52 P2 1.567875 1_655
O53 P0 1.563153 1_545
O54 P9 1.555940 1_555
O55 P10 1.569469 1_655
O56 P11 1.557017 1_545
O57 P12 1.576641 1_545
O58 P13 1.561962 1_555
O59 P14 1.557899 1_655
O60 P8 1.551052 1_555
O61 Si2 1.657724 1_455
O62 P7 1.553822 1_565
O63 Si1 1.634000 1_565
O64 P6 1.542936 1_555
O65 P5 1.541318 1_455
O66 P0 1.571286 1_555
O67 P1 1.577103 1_555
O68 P2 1.583385 1_555
O69 P3 1.537628 1_555
O70 P4 1.543284 1_555
O71 Si0 1.635375 1_555
