# generated using pymatgen
data_Ba(NO2)2
_symmetry_space_group_name_H-M   'P 1'
_cell_length_a   6.89855100
_cell_length_b   7.83048700
_cell_length_c   8.46659300
_cell_angle_alpha   90.00000000
_cell_angle_beta   90.00000000
_cell_angle_gamma   90.00000000
_symmetry_Int_Tables_number   1
_chemical_formula_structural   Ba(NO2)2
_chemical_formula_sum   'Ba4 N8 O16'
_cell_volume   457.35700516
_cell_formula_units_Z   4
loop_
 _symmetry_equiv_pos_site_id
 _symmetry_equiv_pos_as_xyz
  1  'x, y, z'
loop_
 _atom_site_type_symbol
 _atom_site_label
 _atom_site_symmetry_multiplicity
 _atom_site_fract_x
 _atom_site_fract_y
 _atom_site_fract_z
 _atom_site_occupancy
  Ba  Ba0  1  0.39255600  0.54032400  0.03909200  1
  Ba  Ba1  1  0.89255600  0.95967600  0.96090800  1
  Ba  Ba2  1  0.60744400  0.04032400  0.46090800  1
  Ba  Ba3  1  0.10744400  0.45967600  0.53909200  1
  N  N0  1  0.49311700  0.72251300  0.72609100  1
  N  N1  1  0.99311700  0.77748700  0.27390900  1
  N  N2  1  0.50688300  0.22251300  0.77390900  1
  N  N3  1  0.00688300  0.27748700  0.22609100  1
  N  N4  1  0.89472000  0.53379700  0.86581700  1
  N  N5  1  0.39472000  0.96620300  0.13418300  1
  N  N6  1  0.10528000  0.03379700  0.63418300  1
  N  N7  1  0.60528000  0.46620300  0.36581700  1
  O  O0  1  0.37150200  0.33395600  0.76758300  1
  O  O1  1  0.87150200  0.16604400  0.23241700  1
  O  O2  1  0.62849800  0.83395600  0.73241700  1
  O  O3  1  0.12849800  0.66604400  0.26758300  1
  O  O4  1  0.05064000  0.62126500  0.84080000  1
  O  O5  1  0.55064000  0.87873500  0.15920000  1
  O  O6  1  0.94936000  0.12126500  0.65920000  1
  O  O7  1  0.44936000  0.37873500  0.34080000  1
  O  O8  1  0.70930500  0.40855000  0.47554100  1
  O  O9  1  0.20930500  0.09145000  0.52445900  1
  O  O10  1  0.29069500  0.90855000  0.02445900  1
  O  O11  1  0.79069500  0.59145000  0.97554100  1
  O  O12  1  0.40717300  0.71432400  0.59450700  1
  O  O13  1  0.90717300  0.78567600  0.40549300  1
  O  O14  1  0.59282700  0.21432400  0.90549300  1
  O  O15  1  0.09282700  0.28567600  0.09450700  1
loop_
_geom_bond_atom_site_label_1
_geom_bond_atom_site_label_2
_geom_bond_distance
_geom_bond_site_symmetry_2
Ba0 O0 2.813665 1_554
Ba0 O11 2.827277 1_554
Ba0 O3 2.833704 1_555
Ba0 O7 2.877456 1_555
Ba0 O15 2.910601 1_555
Ba0 O4 2.963757 1_554
Ba0 O10 2.970363 1_555
Ba0 O5 3.040640 1_555
Ba0 N0 3.088576 1_554
Ba0 O14 3.115235 1_554
Ba0 N7 3.184731 1_555
Ba1 O1 2.813665 1_566
Ba1 O10 2.827277 1_656
Ba1 O2 2.833704 1_555
Ba1 O6 2.877456 1_565
Ba1 O14 2.910601 1_565
Ba1 O5 2.963757 1_556
Ba1 O11 2.970363 1_555
Ba1 O4 3.040640 1_655
Ba1 N1 3.088576 1_556
Ba1 O15 3.115235 1_666
Ba1 N6 3.184731 1_665
Ba2 O2 2.813665 1_545
Ba2 O9 2.827277 1_555
Ba2 O1 2.833704 1_555
Ba2 O5 2.877456 1_545
Ba2 O13 2.910601 1_545
Ba2 O6 2.963757 1_555
Ba2 O8 2.970363 1_555
Ba2 O7 3.040640 1_555
Ba2 N2 3.088576 1_555
Ba2 O12 3.115235 1_545
Ba2 N5 3.184731 1_545
Ba3 O3 2.813665 1_555
Ba3 O8 2.827277 1_455
Ba3 O0 2.833704 1_555
Ba3 O4 2.877456 1_555
Ba3 O12 2.910601 1_555
Ba3 O7 2.963757 1_555
Ba3 O9 2.970363 1_555
Ba3 O6 3.040640 1_455
Ba3 N3 3.088576 1_555
Ba3 O13 3.115235 1_455
Ba3 N4 3.184731 1_455
N0 O12 1.263637 1_555
N0 O2 1.279305 1_555
N1 O13 1.263637 1_555
N1 O3 1.279305 1_655
N2 O14 1.263637 1_555
N2 O0 1.279305 1_555
N3 O15 1.263637 1_555
N3 O1 1.279305 1_455
N4 O11 1.257700 1_555
N4 O4 1.292647 1_655
N5 O10 1.257700 1_555
N5 O5 1.292647 1_555
N6 O9 1.257700 1_555
N6 O6 1.292647 1_455
N7 O8 1.257700 1_555
N7 O7 1.292647 1_555
