# generated using pymatgen
data_Sc5Re2C7
_symmetry_space_group_name_H-M   'P 1'
_cell_length_a   3.22393589
_cell_length_b   7.78494925
_cell_length_c   7.86892951
_cell_angle_alpha   119.64758811
_cell_angle_beta   90.00000000
_cell_angle_gamma   90.00000000
_symmetry_Int_Tables_number   1
_chemical_formula_structural   Sc5Re2C7
_chemical_formula_sum   'Sc5 Re2 C7'
_cell_volume   171.64050380
_cell_formula_units_Z   1
loop_
 _symmetry_equiv_pos_site_id
 _symmetry_equiv_pos_as_xyz
  1  'x, y, z'
loop_
 _atom_site_type_symbol
 _atom_site_label
 _atom_site_symmetry_multiplicity
 _atom_site_fract_x
 _atom_site_fract_y
 _atom_site_fract_z
 _atom_site_occupancy
  Sc  Sc0  1  0.50000000  0.33856346  0.25634567  1
  Sc  Sc1  1  0.50000000  0.08221879  0.74365433  1
  Sc  Sc2  1  -0.00000000  0.50000000  -0.00000000  1
  Sc  Sc3  1  0.50000000  0.66143654  0.74365433  1
  Sc  Sc4  1  0.50000000  0.91778121  0.25634567  1
  Re  Re0  1  -0.00000000  0.28490492  0.56981185  1
  Re  Re1  1  -0.00000000  0.71509508  0.43018815  1
  C  C0  1  -0.00000000  -0.00000000  -0.00000000  1
  C  C1  1  -0.00000000  0.50000000  0.50000000  1
  C  C2  1  -0.00000000  -0.00000000  0.50000000  1
  C  C3  1  -0.00000000  0.17306594  0.00000000  1
  C  C4  1  -0.00000000  0.82693406  -0.00000000  1
  C  C5  1  0.50000000  0.38089718  0.76179536  1
  C  C6  1  0.50000000  0.61910282  0.23820464  1
loop_
_geom_bond_atom_site_label_1
_geom_bond_atom_site_label_2
_geom_bond_distance
_geom_bond_site_symmetry_2
C0 C3 1.347310 1_555
C0 C4 1.347310 1_545
C1 Re1 2.003948 1_555
C1 Re0 2.003948 1_555
C1 Sc3 2.338816 1_455
C1 Sc0 2.338816 1_455
C1 Sc0 2.338816 1_555
C1 Sc3 2.338816 1_555
C2 Re1 2.003932 1_545
C2 Re0 2.003932 1_555
C2 Sc4 2.338815 1_445
C2 Sc4 2.338815 1_545
C2 Sc1 2.338815 1_455
C2 Sc1 2.338815 1_555
C3 Sc0 2.399206 1_455
C3 Sc0 2.399206 1_555
C3 Sc1 2.399207 1_554
C3 Sc1 2.399207 1_454
C3 Sc2 2.545165 1_555
C4 Sc3 2.399206 1_554
C4 Sc3 2.399206 1_454
C4 Sc4 2.399207 1_555
C4 Sc4 2.399207 1_455
C4 Sc2 2.545165 1_555
C5 Re0 2.078996 1_655
C5 Re0 2.078996 1_555
C5 Sc1 2.257993 1_555
C5 Sc3 2.258009 1_555
C5 Sc2 2.291760 1_656
C5 Sc2 2.291760 1_556
C6 Re1 2.078996 1_655
C6 Re1 2.078996 1_555
C6 Sc4 2.257993 1_555
C6 Sc0 2.258009 1_555
C6 Sc2 2.291760 1_555
C6 Sc2 2.291760 1_655
