# generated using pymatgen
data_EuGa4
_symmetry_space_group_name_H-M   'P 1'
_cell_length_a   4.37722442
_cell_length_b   4.37722544
_cell_length_c   6.11353875
_cell_angle_alpha   110.95674002
_cell_angle_beta   110.95674725
_cell_angle_gamma   90.00123987
_symmetry_Int_Tables_number   1
_chemical_formula_structural   EuGa4
_chemical_formula_sum   'Eu1 Ga4'
_cell_volume   101.04626966
_cell_formula_units_Z   1
loop_
 _symmetry_equiv_pos_site_id
 _symmetry_equiv_pos_as_xyz
  1  'x, y, z'
loop_
 _atom_site_type_symbol
 _atom_site_label
 _atom_site_symmetry_multiplicity
 _atom_site_fract_x
 _atom_site_fract_y
 _atom_site_fract_z
 _atom_site_occupancy
  Eu  Eu0  1  -0.00000000  0.00000000  0.00000000  1
  Ga  Ga0  1  0.61697969  0.61697969  0.23409036  1
  Ga  Ga1  1  0.25007748  0.74992252  0.50000000  1
  Ga  Ga2  1  0.74992252  0.25007748  0.50000000  1
  Ga  Ga3  1  0.38302031  0.38302031  0.76590964  1
loop_
_geom_bond_atom_site_label_1
_geom_bond_atom_site_label_2
_geom_bond_distance
_geom_bond_site_symmetry_2
Eu0 Ga3 3.332025 1_554
Eu0 Ga0 3.332025 1_445
Eu0 Ga0 3.332319 1_545
Eu0 Ga3 3.332319 1_454
Eu0 Ga3 3.332319 1_544
Eu0 Ga0 3.332319 1_455
Eu0 Ga3 3.332489 1_444
Eu0 Ga0 3.332489 1_555
Eu0 Ga2 3.426425 1_454
Eu0 Ga1 3.426425 1_545
Eu0 Ga2 3.426425 1_455
Eu0 Ga1 3.426425 1_544
Eu0 Ga2 3.427255 1_555
Eu0 Ga1 3.427255 1_444
Eu0 Ga2 3.427256 1_444
Eu0 Ga1 3.427256 1_555
Ga0 Ga3 2.469085 1_554
Ga0 Ga1 2.598379 1_555
Ga0 Ga2 2.598379 1_555
Ga0 Ga1 2.600318 1_655
Ga0 Ga2 2.600319 1_565
Ga1 Ga3 2.598379 1_555
Ga1 Ga3 2.600319 1_565
Ga2 Ga3 2.598379 1_555
Ga2 Ga3 2.600318 1_655
