# generated using pymatgen
data_Na4TiZn3P2(SO6)4
_symmetry_space_group_name_H-M   'P 1'
_cell_length_a   8.80695722
_cell_length_b   8.79440514
_cell_length_c   22.30648095
_cell_angle_alpha   90.40688910
_cell_angle_beta   90.06331879
_cell_angle_gamma   120.01203687
_symmetry_Int_Tables_number   1
_chemical_formula_structural   Na4TiZn3P2(SO6)4
_chemical_formula_sum   'Na12 Ti3 Zn9 P6 S12 O72'
_cell_volume   1495.97428142
_cell_formula_units_Z   3
loop_
 _symmetry_equiv_pos_site_id
 _symmetry_equiv_pos_as_xyz
  1  'x, y, z'
loop_
 _atom_site_type_symbol
 _atom_site_label
 _atom_site_symmetry_multiplicity
 _atom_site_fract_x
 _atom_site_fract_y
 _atom_site_fract_z
 _atom_site_occupancy
  Na  Na0  1  0.63310920  0.99784904  0.25275835  1
  Na  Na1  1  0.36445904  0.36419885  0.24989239  1
  Na  Na2  1  0.30454080  0.33823059  0.58839273  1
  Na  Na3  1  0.66676531  0.95984668  0.58274817  1
  Na  Na4  1  0.97621598  0.67813102  0.91436889  1
  Na  Na5  1  0.32421553  0.29717666  0.91259273  1
  Na  Na6  1  0.99061619  0.98554256  0.49698333  1
  Na  Na7  1  0.99132168  0.00104414  0.99867194  1
  Na  Na8  1  0.66187613  0.32407806  0.82570679  1
  Na  Na9  1  0.67637354  0.33776615  0.33520895  1
  Na  Na10  1  0.32267194  0.66563359  0.16158630  1
  Na  Na11  1  0.32831090  0.66464122  0.66893080  1
  Ti  Ti0  1  0.66717535  0.32786948  0.97751465  1
  Ti  Ti1  1  0.67128464  0.33918832  0.47979797  1
  Ti  Ti2  1  0.33410033  0.65830611  0.81514729  1
  Zn  Zn0  1  0.99016119  0.99635807  0.35348520  1
  Zn  Zn1  1  0.99939641  0.00610990  0.84803673  1
  Zn  Zn2  1  0.99880124  0.99159740  0.65652341  1
  Zn  Zn3  1  0.00035957  0.99690325  0.14663818  1
  Zn  Zn4  1  0.65908047  0.34241204  0.68729880  1
  Zn  Zn5  1  0.67422862  0.34056635  0.17844684  1
  Zn  Zn6  1  0.33577666  0.66919789  0.01370193  1
  Zn  Zn7  1  0.34249148  0.67362011  0.51228697  1
  Zn  Zn8  1  0.33213683  0.67671118  0.32461337  1
  P  P0  1  0.29423971  0.29319230  0.75068217  1
  P  P1  1  0.66924427  0.62614013  0.58332754  1
  P  P2  1  0.62662971  0.67081222  0.91875968  1
  P  P3  1  0.04277480  0.37465651  0.91818363  1
  P  P4  1  0.33465485  0.95411530  0.91767784  1
  P  P5  1  0.63289050  0.96702648  0.41772042  1
  S  S0  1  0.28990064  0.99730048  0.24985588  1
  S  S1  1  0.70766087  0.70470473  0.24943193  1
  S  S2  1  0.00152274  0.29582488  0.24979006  1
  S  S3  1  0.00403760  0.70365827  0.75187308  1
  S  S4  1  0.70060511  0.99841801  0.74987879  1
  S  S5  1  0.95807311  0.33820093  0.58315376  1
  S  S6  1  0.37649688  0.04210153  0.58254596  1
  S  S7  1  0.96038402  0.62601687  0.08265319  1
  S  S8  1  0.66572440  0.04060101  0.08390383  1
  S  S9  1  0.37372346  0.33397186  0.08349612  1
  S  S10  1  0.33383735  0.36873095  0.41697494  1
  S  S11  1  0.03847892  0.66588922  0.41797098  1
  O  O0  1  0.21134394  0.02950406  0.30345930  1
  O  O1  1  0.81285619  0.78368166  0.30380687  1
  O  O2  1  0.96986350  0.18496185  0.30315673  1
  O  O3  1  0.21196553  0.18837309  0.80748860  1
  O  O4  1  0.97621408  0.78121405  0.80686218  1
  O  O5  1  0.80917984  0.02319256  0.80287788  1
  O  O6  1  0.77027362  0.96415691  0.69347104  1
  O  O7  1  0.18578284  0.22306932  0.69202663  1
  O  O8  1  0.03472967  0.81062455  0.69784742  1
  O  O9  1  0.78551402  0.81553488  0.19596112  1
  O  O10  1  0.03292849  0.21632511  0.19550435  1
  O  O11  1  0.18658344  0.97386400  0.19502866  1
  O  O12  1  0.87724269  0.35946133  0.63713716  1
  O  O13  1  0.48663534  0.11863440  0.63627662  1
  O  O14  1  0.63243658  0.50801998  0.63700065  1
  O  O15  1  0.87995109  0.52191099  0.13697419  1
  O  O16  1  0.64270327  0.11815829  0.14034317  1
  O  O17  1  0.47534152  0.35625645  0.13958153  1
  O  O18  1  0.46695032  0.31315385  0.02964270  1
  O  O19  1  0.84772013  0.53404786  0.02790280  1
  O  O20  1  0.68574707  0.15789071  0.03132145  1
  O  O21  1  0.46596813  0.15655931  0.52898115  1
  O  O22  1  0.68783718  0.52466284  0.52718038  1
  O  O23  1  0.84310892  0.31056044  0.52882094  1
  O  O24  1  0.54864662  0.69768332  0.97479204  1
  O  O25  1  0.15461242  0.45289324  0.97377251  1
  O  O26  1  0.29753205  0.84477664  0.97357009  1
  O  O27  1  0.55090837  0.85888796  0.47407962  1
  O  O28  1  0.30697117  0.44829831  0.47136891  1
  O  O29  1  0.14325973  0.68934430  0.47179638  1
  O  O30  1  0.10700150  0.62737669  0.36291682  1
  O  O31  1  0.52356478  0.89689469  0.35926097  1
  O  O32  1  0.36542265  0.47504393  0.36196694  1
  O  O33  1  0.12717324  0.49937142  0.86301125  1
  O  O34  1  0.36742430  0.86880483  0.86198552  1
  O  O35  1  0.50117619  0.62932094  0.86319469  1
  O  O36  1  0.01681147  0.82039558  0.41182932  1
  O  O37  1  0.81716076  0.99142233  0.41214469  1
  O  O38  1  0.18133109  0.19107675  0.41085836  1
  O  O39  1  0.01722389  0.19158816  0.90950134  1
  O  O40  1  0.17940066  0.98675882  0.91019077  1
  O  O41  1  0.81386581  0.81929870  0.90881136  1
  O  O42  1  0.97201691  0.17514388  0.58415876  1
  O  O43  1  0.20434896  0.03392243  0.58571809  1
  O  O44  1  0.83277081  0.81103396  0.58569556  1
  O  O45  1  0.96885702  0.79870936  0.08535251  1
  O  O46  1  0.82917613  0.03174782  0.08558407  1
  O  O47  1  0.20067676  0.17054715  0.08551766  1
  O  O48  1  0.68121898  0.15475900  0.74405217  1
  O  O49  1  0.47963859  0.32032779  0.74669671  1
  O  O50  1  0.85063754  0.52538276  0.74577618  1
  O  O51  1  0.68148155  0.52342117  0.24377239  1
  O  O52  1  0.83992327  0.31038972  0.24374954  1
  O  O53  1  0.47117555  0.15892540  0.24536545  1
  O  O54  1  0.63788202  0.49375790  0.92508573  1
  O  O55  1  0.85868634  0.36534278  0.92519674  1
  O  O56  1  0.50332295  0.14449361  0.92612538  1
  O  O57  1  0.64850671  0.15365973  0.42815091  1
  O  O58  1  0.49757991  0.35467262  0.42385493  1
  O  O59  1  0.85803717  0.50301949  0.42464580  1
  O  O60  1  0.35737535  0.49147888  0.07840145  1
  O  O61  1  0.13435090  0.64346993  0.07747337  1
  O  O62  1  0.50878613  0.86705309  0.07763526  1
  O  O63  1  0.35581248  0.86498781  0.57547467  1
  O  O64  1  0.50137813  0.64257997  0.57615496  1
  O  O65  1  0.13588792  0.49172761  0.57569809  1
  O  O66  1  0.31499705  0.84185655  0.25448272  1
  O  O67  1  0.52716699  0.68479434  0.25449687  1
  O  O68  1  0.16247645  0.47192557  0.25670652  1
  O  O69  1  0.31070620  0.48256534  0.76041092  1
  O  O70  1  0.16743409  0.68984139  0.75821694  1
  O  O71  1  0.52237907  0.83576751  0.75743205  1
loop_
_geom_bond_atom_site_label_1
_geom_bond_atom_site_label_2
_geom_bond_distance
_geom_bond_site_symmetry_2
Na0 O67 2.425630 1_555
Na0 O66 2.426650 1_555
Na0 O52 2.431718 1_565
Na0 O53 2.468100 1_565
Na0 O31 2.557560 1_555
Na0 O16 2.713543 1_565
Na0 O2 2.802102 1_565
Na0 O9 2.846957 1_555
Na1 O68 2.401959 1_555
Na1 O53 2.418134 1_555
Na1 O51 2.422241 1_555
Na1 O67 2.442773 1_555
Na1 O17 2.661652 1_555
Na1 O32 2.675322 1_555
Na1 O10 2.803477 1_555
Na1 O0 2.827173 1_555
Na2 O43 2.362111 1_555
Na2 O64 2.369284 1_555
Na2 O65 2.473643 1_555
Na2 O42 2.537311 1_455
Na2 O7 2.538219 1_555
Na2 O14 2.720474 1_555
Na2 O28 2.786909 1_555
Na2 O21 2.928558 1_555
Na3 O42 2.391682 1_565
Na3 O44 2.401995 1_555
Na3 O64 2.420005 1_555
Na3 O63 2.435898 1_555
Na3 O27 2.600570 1_555
Na3 O6 2.625198 1_555
Na3 O13 2.844125 1_565
Na3 O23 2.938878 1_565
Na4 O41 2.319169 1_555
Na4 O40 2.392269 1_655
Na4 O55 2.420377 1_555
Na4 O4 2.569747 1_555
Na4 O54 2.595904 1_555
Na4 O33 2.760428 1_655
Na4 O26 2.777609 1_655
Na4 O19 2.813799 1_556
Na5 O40 2.365763 1_545
Na5 O39 2.379915 1_555
Na5 O54 2.431365 1_555
Na5 O3 2.531069 1_555
Na5 O56 2.550649 1_555
Na5 O35 2.769632 1_555
Na5 O25 2.827205 1_555
Na5 O18 2.868442 1_556
Na6 O37 2.447789 1_555
Na6 O36 2.463254 1_655
Na6 O44 2.473592 1_555
Na6 O38 2.607395 1_665
Na6 O42 2.610827 1_565
Na6 O43 2.611649 1_665
Na7 O46 2.501022 1_556
Na7 O41 2.542401 1_545
Na7 O39 2.546069 1_655
Na7 O47 2.564388 1_656
Na7 O45 2.577123 1_546
Na7 O40 2.620465 1_645
Na8 O49 2.371314 1_555
Na8 O48 2.404129 1_555
Na8 O50 2.486767 1_555
Na8 O56 2.704202 1_555
Na8 O55 2.722499 1_555
Na8 O54 2.730401 1_555
Na9 O59 2.505528 1_555
Na9 O57 2.575116 1_555
Na9 O52 2.577060 1_555
Na9 O58 2.578469 1_555
Na9 O51 2.608050 1_555
Na9 O53 2.619126 1_555
Na10 O61 2.444101 1_555
Na10 O60 2.512258 1_555
Na10 O62 2.545703 1_555
Na10 O66 2.599970 1_555
Na10 O68 2.654846 1_555
Na10 O67 2.692659 1_555
Na11 O70 2.517405 1_555
Na11 O71 2.541765 1_555
Na11 O69 2.559460 1_555
Na11 O65 2.622742 1_555
Na11 O64 2.634530 1_555
Na11 O63 2.671202 1_555
O0 S0 1.477022 1_545
O0 Zn0 2.136843 1_445
O1 S1 1.467557 1_555
O1 Zn0 2.051745 1_555
O2 S2 1.480101 1_655
O2 Zn0 2.089512 1_545
O3 P0 1.526726 1_555
O3 Zn1 1.978525 1_455
O4 S3 1.478445 1_655
O4 Zn1 2.089708 1_565
O5 S4 1.464546 1_545
O5 Zn1 2.023331 1_555
O6 S4 1.493896 1_555
O6 Zn2 2.075767 1_555
O7 P0 1.549545 1_555
O7 Zn2 2.025745 1_445
O8 S3 1.474029 1_555
O8 Zn2 2.001705 1_455
O9 S1 1.480727 1_555
O9 Zn3 2.084513 1_655
O10 S2 1.487890 1_555
O10 Zn3 2.099967 1_545
O11 S0 1.473941 1_555
O11 Zn3 2.056122 1_555
O12 S5 1.457262 1_555
O12 Zn4 2.164486 1_555
O13 S6 1.470803 1_555
O13 Zn4 2.109331 1_555
O14 P1 1.516333 1_555
O14 Zn4 1.949246 1_555
O15 S7 1.475510 1_555
O15 Zn5 1.953455 1_555
O16 S8 1.489302 1_555
O16 Zn5 2.014412 1_555
O17 S9 1.491005 1_555
O17 Zn5 2.019612 1_555
O18 S9 1.516620 1_555
O18 Ti0 2.063177 1_554
O19 S7 1.520102 1_555
O19 Ti0 2.040171 1_554
O20 S8 1.518722 1_555
O20 Ti0 1.992882 1_554
O21 S6 1.512441 1_555
O21 Ti1 2.043779 1_555
O22 P1 1.588280 1_555
O22 Ti1 1.880499 1_555
O23 S5 1.516573 1_555
O23 Ti1 1.982547 1_555
O24 P2 1.499935 1_555
O24 Zn6 1.966618 1_556
O25 P3 1.512732 1_555
O25 Zn6 1.973372 1_556
O26 P4 1.513060 1_555
O26 Zn6 1.959170 1_556
O27 P5 1.529154 1_555
O27 Zn7 1.944640 1_555
O28 S10 1.473778 1_555
O28 Zn7 2.052107 1_555
O29 S11 1.462634 1_555
O29 Zn7 2.038285 1_555
O30 S11 1.478931 1_555
O30 Zn8 1.999509 1_555
O31 P5 1.549085 1_555
O31 Zn8 1.974661 1_555
O32 S10 1.487958 1_555
O32 Zn8 2.113340 1_555
O33 P3 1.573444 1_555
O33 Ti2 1.972833 1_555
O34 P4 1.547138 1_555
O34 Ti2 2.008250 1_555
O35 P2 1.573969 1_555
O35 Ti2 1.937622 1_555
O36 S11 1.470873 1_555
O36 Zn0 2.129518 1_455
O37 P5 1.532219 1_555
O37 Zn0 1.993604 1_555
O38 S10 1.470008 1_555
O38 Zn0 2.117749 1_445
O39 P3 1.520930 1_555
O39 Zn1 2.068027 1_455
O40 P4 1.540361 1_555
O40 Zn1 2.175475 1_465
O41 P2 1.524613 1_555
O41 Zn1 2.134922 1_565
O42 S5 1.499507 1_555
O42 Zn2 2.384102 1_545
O43 S6 1.483224 1_555
O43 Zn2 2.291445 1_445
O44 P1 1.541706 1_555
O44 Zn2 2.189133 1_555
O45 S7 1.483593 1_555
O45 Zn3 2.113161 1_655
O46 S8 1.480440 1_555
O46 Zn3 2.164509 1_645
O47 S9 1.483304 1_555
O47 Zn3 2.154765 1_545
O48 S4 1.474376 1_545
O48 Zn4 2.171446 1_555
O49 P0 1.530267 1_555
O49 Zn4 1.997984 1_555
O50 S3 1.476288 1_655
O50 Zn4 2.094414 1_555
O51 S1 1.496728 1_555
O51 Zn5 2.139440 1_555
O52 S2 1.497412 1_655
O52 Zn5 2.170250 1_555
O53 S0 1.520351 1_545
O53 Zn5 2.271564 1_555
O54 P2 1.616077 1_555
O54 Ti0 1.990661 1_555
O55 P3 1.589831 1_655
O55 Ti0 1.941405 1_555
O56 P4 1.597558 1_545
O56 Ti0 1.907674 1_555
O57 P5 1.592387 1_545
O57 Ti1 1.917034 1_555
O58 S10 1.515437 1_555
O58 Ti1 2.030441 1_555
O59 S11 1.525017 1_655
O59 Ti1 1.988366 1_555
O60 S9 1.467677 1_555
O60 Zn6 2.211484 1_555
O61 S7 1.466183 1_455
O61 Zn6 2.197786 1_555
O62 S8 1.464786 1_565
O62 Zn6 2.165842 1_555
O63 S6 1.482165 1_565
O63 Zn7 2.145051 1_555
O64 P1 1.563894 1_555
O64 Zn7 2.108436 1_555
O65 S5 1.480413 1_455
O65 Zn7 2.235284 1_555
O66 S0 1.494156 1_555
O66 Zn8 2.197824 1_555
O67 S1 1.514099 1_555
O67 Zn8 2.299329 1_555
O68 S2 1.493868 1_555
O68 Zn8 2.243854 1_555
O69 P0 1.610885 1_555
O69 Ti2 1.891034 1_555
O70 S3 1.510067 1_555
O70 Ti2 2.062089 1_555
O71 S4 1.515315 1_555
O71 Ti2 2.070536 1_555
