# generated using pymatgen
data_NaCu3O4
_symmetry_space_group_name_H-M   'P 1'
_cell_length_a   5.43521833
_cell_length_b   5.89495414
_cell_length_c   3.71012738
_cell_angle_alpha   84.62855628
_cell_angle_beta   91.38810956
_cell_angle_gamma   64.66963464
_symmetry_Int_Tables_number   1
_chemical_formula_structural   NaCu3O4
_chemical_formula_sum   'Na1 Cu3 O4'
_cell_volume   106.69977619
_cell_formula_units_Z   1
loop_
 _symmetry_equiv_pos_site_id
 _symmetry_equiv_pos_as_xyz
  1  'x, y, z'
loop_
 _atom_site_type_symbol
 _atom_site_label
 _atom_site_symmetry_multiplicity
 _atom_site_fract_x
 _atom_site_fract_y
 _atom_site_fract_z
 _atom_site_occupancy
  Na  Na0  1  0.00102997  0.99891830  0.49808689  1
  Cu  Cu0  1  0.24567270  0.51609232  0.02764316  1
  Cu  Cu1  1  0.75689294  0.47867389  0.96401129  1
  Cu  Cu2  1  0.50160022  0.99707962  0.99653566  1
  O  O0  1  0.39720302  0.74128719  0.88550523  1
  O  O1  1  0.87270503  0.74016888  0.93625312  1
  O  O2  1  0.13002538  0.25442399  0.05404121  1
  O  O3  1  0.60536773  0.25349081  0.10674044  1
loop_
_geom_bond_atom_site_label_1
_geom_bond_atom_site_label_2
_geom_bond_distance
_geom_bond_site_symmetry_2
Na0 O0 2.377452 1_555
Na0 O3 2.379961 1_465
Na0 O1 2.440659 1_455
Na0 O2 2.443220 1_565
Na0 O2 2.903440 1_566
Cu0 O0 1.882611 1_554
Cu0 O1 1.887000 1_454
Cu0 O2 1.894310 1_555
Cu0 O3 1.897927 1_555
Cu1 O3 1.883024 1_556
Cu1 O2 1.887481 1_656
Cu1 O1 1.893872 1_555
Cu1 O0 1.897818 1_555
Cu2 O0 1.898016 1_555
Cu2 O3 1.898421 1_566
Cu2 O1 1.970659 1_555
Cu2 O2 1.971174 1_566
