# generated using pymatgen
data_FeNi2(CN)6
_symmetry_space_group_name_H-M   'P 1'
_cell_length_a   7.09223152
_cell_length_b   7.09223152
_cell_length_c   7.09223152
_cell_angle_alpha   60.00000000
_cell_angle_beta   60.00000000
_cell_angle_gamma   60.00000000
_symmetry_Int_Tables_number   1
_chemical_formula_structural   FeNi2(CN)6
_chemical_formula_sum   'Fe1 Ni2 C6 N6'
_cell_volume   252.25147524
_cell_formula_units_Z   1
loop_
 _symmetry_equiv_pos_site_id
 _symmetry_equiv_pos_as_xyz
  1  'x, y, z'
loop_
 _atom_site_type_symbol
 _atom_site_label
 _atom_site_symmetry_multiplicity
 _atom_site_fract_x
 _atom_site_fract_y
 _atom_site_fract_z
 _atom_site_occupancy
  Fe  Fe0  1  0.00000000  0.00000000  0.00000000  1
  Ni  Ni0  1  0.25000000  0.25000000  0.25000000  1
  Ni  Ni1  1  0.50000000  0.50000000  0.50000000  1
  C  C0  1  0.18733100  0.18733100  0.81266900  1
  C  C1  1  0.81266900  0.81266900  0.18733100  1
  C  C2  1  0.81266900  0.18733100  0.81266900  1
  C  C3  1  0.18733100  0.81266900  0.18733100  1
  C  C4  1  0.81266900  0.18733100  0.18733100  1
  C  C5  1  0.18733100  0.81266900  0.81266900  1
  N  N0  1  0.69556600  0.30443400  0.69556600  1
  N  N1  1  0.69556600  0.69556600  0.30443400  1
  N  N2  1  0.30443400  0.30443400  0.69556600  1
  N  N3  1  0.30443400  0.69556600  0.30443400  1
  N  N4  1  0.69556600  0.30443400  0.30443400  1
  N  N5  1  0.30443400  0.69556600  0.69556600  1
loop_
_geom_bond_atom_site_label_1
_geom_bond_atom_site_label_2
_geom_bond_distance
_geom_bond_site_symmetry_2
C0 N2 1.174535 1_555
C0 Fe0 1.878917 1_556
C1 N1 1.174535 1_555
C1 Fe0 1.878917 1_665
C2 N0 1.174535 1_555
C2 Fe0 1.878917 1_656
C3 N3 1.174535 1_555
C3 Fe0 1.878917 1_565
C4 N4 1.174535 1_555
C4 Fe0 1.878917 1_655
C5 N5 1.174535 1_555
C5 Fe0 1.878917 1_566
N0 Ni1 1.961513 1_555
N1 Ni1 1.961513 1_555
N2 Ni1 1.961513 1_555
N3 Ni1 1.961513 1_555
N4 Ni1 1.961513 1_555
N5 Ni1 1.961513 1_555
