# generated using pymatgen
data_Ca14Si19
_symmetry_space_group_name_H-M   'P 1'
_cell_length_a   23.39807236
_cell_length_b   23.39807236
_cell_length_c   23.39807259
_cell_angle_alpha   21.35739418
_cell_angle_beta   21.35739418
_cell_angle_gamma   21.35739258
_symmetry_Int_Tables_number   1
_chemical_formula_structural   Ca14Si19
_chemical_formula_sum   'Ca28 Si38'
_cell_volume   1488.37162365
_cell_formula_units_Z   2
loop_
 _symmetry_equiv_pos_site_id
 _symmetry_equiv_pos_as_xyz
  1  'x, y, z'
loop_
 _atom_site_type_symbol
 _atom_site_label
 _atom_site_symmetry_multiplicity
 _atom_site_fract_x
 _atom_site_fract_y
 _atom_site_fract_z
 _atom_site_occupancy
  Ca  Ca0  1  0.94249800  0.19084900  0.42779500  1
  Ca  Ca1  1  0.42779500  0.94249800  0.19084900  1
  Ca  Ca2  1  0.19084900  0.42779500  0.94249800  1
  Ca  Ca3  1  0.55750200  0.07220500  0.30915100  1
  Ca  Ca4  1  0.30915100  0.55750200  0.07220500  1
  Ca  Ca5  1  0.07220500  0.30915100  0.55750200  1
  Ca  Ca6  1  0.05750200  0.80915100  0.57220500  1
  Ca  Ca7  1  0.57220500  0.05750200  0.80915100  1
  Ca  Ca8  1  0.80915100  0.57220500  0.05750200  1
  Ca  Ca9  1  0.44249800  0.92779500  0.69084900  1
  Ca  Ca10  1  0.69084900  0.44249800  0.92779500  1
  Ca  Ca11  1  0.92779500  0.69084900  0.44249800  1
  Ca  Ca12  1  0.25000000  0.49961200  0.00038800  1
  Ca  Ca13  1  0.00038800  0.25000000  0.49961200  1
  Ca  Ca14  1  0.49961200  0.00038800  0.25000000  1
  Ca  Ca15  1  0.75000000  0.50038800  0.99961200  1
  Ca  Ca16  1  0.99961200  0.75000000  0.50038800  1
  Ca  Ca17  1  0.50038800  0.99961200  0.75000000  1
  Ca  Ca18  1  0.10996700  0.10996700  0.10996700  1
  Ca  Ca19  1  0.39003300  0.39003300  0.39003300  1
  Ca  Ca20  1  0.89003300  0.89003300  0.89003300  1
  Ca  Ca21  1  0.60996700  0.60996700  0.60996700  1
  Ca  Ca22  1  0.05479900  0.05479900  0.05479900  1
  Ca  Ca23  1  0.44520100  0.44520100  0.44520100  1
  Ca  Ca24  1  0.94520100  0.94520100  0.94520100  1
  Ca  Ca25  1  0.55479900  0.55479900  0.55479900  1
  Ca  Ca26  1  0.00000000  0.00000000  0.00000000  1
  Ca  Ca27  1  0.50000000  0.50000000  0.50000000  1
  Si  Si0  1  0.98965700  0.43900800  0.73106800  1
  Si  Si1  1  0.73106800  0.98965700  0.43900800  1
  Si  Si2  1  0.43900800  0.73106800  0.98965700  1
  Si  Si3  1  0.51034300  0.76893200  0.06099200  1
  Si  Si4  1  0.06099200  0.51034300  0.76893200  1
  Si  Si5  1  0.76893200  0.06099200  0.51034300  1
  Si  Si6  1  0.01034300  0.56099200  0.26893200  1
  Si  Si7  1  0.26893200  0.01034300  0.56099200  1
  Si  Si8  1  0.56099200  0.26893200  0.01034300  1
  Si  Si9  1  0.48965700  0.23106800  0.93900800  1
  Si  Si10  1  0.93900800  0.48965700  0.23106800  1
  Si  Si11  1  0.23106800  0.93900800  0.48965700  1
  Si  Si12  1  0.83191300  0.21481000  0.38070400  1
  Si  Si13  1  0.38070400  0.83191300  0.21481000  1
  Si  Si14  1  0.21481000  0.38070400  0.83191300  1
  Si  Si15  1  0.66808700  0.11929600  0.28519000  1
  Si  Si16  1  0.28519000  0.66808700  0.11929600  1
  Si  Si17  1  0.11929600  0.28519000  0.66808700  1
  Si  Si18  1  0.16808700  0.78519000  0.61929600  1
  Si  Si19  1  0.61929600  0.16808700  0.78519000  1
  Si  Si20  1  0.78519000  0.61929600  0.16808700  1
  Si  Si21  1  0.33191300  0.88070400  0.71481000  1
  Si  Si22  1  0.71481000  0.33191300  0.88070400  1
  Si  Si23  1  0.88070400  0.71481000  0.33191300  1
  Si  Si24  1  0.25000000  0.83389600  0.66610400  1
  Si  Si25  1  0.66610400  0.25000000  0.83389600  1
  Si  Si26  1  0.83389600  0.66610400  0.25000000  1
  Si  Si27  1  0.75000000  0.16610400  0.33389600  1
  Si  Si28  1  0.65297700  0.65297700  0.65297700  1
  Si  Si29  1  0.84702300  0.84702300  0.84702300  1
  Si  Si30  1  0.34702300  0.34702300  0.34702300  1
  Si  Si31  1  0.15297700  0.15297700  0.15297700  1
  Si  Si32  1  0.71903000  0.71903000  0.71903000  1
  Si  Si33  1  0.78097000  0.78097000  0.78097000  1
  Si  Si34  1  0.28097000  0.28097000  0.28097000  1
  Si  Si35  1  0.21903000  0.21903000  0.21903000  1
  Si  Si36  1  0.16610400  0.33389600  0.75000000  1
  Si  Si37  1  0.33389600  0.75000000  0.16610400  1
loop_
_geom_bond_atom_site_label_1
_geom_bond_atom_site_label_2
_geom_bond_distance
_geom_bond_site_symmetry_2
Ca0 Si19 2.969116 1_555
Ca0 Si35 3.039296 1_655
Ca0 Si18 3.089584 1_645
Ca0 Si12 3.111448 1_555
Ca0 Si10 3.125445 1_555
Ca0 Si31 3.144147 1_655
Ca0 Si20 3.230210 1_555
Ca0 Si11 3.258099 1_645
Ca0 Si29 3.405925 1_545
Ca1 Si20 2.969116 1_555
Ca1 Si35 3.039296 1_565
Ca1 Si19 3.089584 1_564
Ca1 Si13 3.111448 1_555
Ca1 Si11 3.125445 1_555
Ca1 Si31 3.144147 1_565
Ca1 Si18 3.230210 1_555
Ca1 Si9 3.258099 1_564
Ca1 Si29 3.405924 1_554
Ca2 Si18 2.969116 1_555
Ca2 Si35 3.039296 1_556
Ca2 Si20 3.089584 1_456
Ca2 Si14 3.111448 1_555
Ca2 Si9 3.125445 1_555
Ca2 Si31 3.144147 1_556
Ca2 Si19 3.230210 1_555
Ca2 Si10 3.258099 1_456
Ca2 Si29 3.405924 1_455
Ca3 Si23 2.969116 1_545
Ca3 Si34 3.039296 1_555
Ca3 Si21 3.089584 1_545
Ca3 Si15 3.111448 1_555
Ca3 Si8 3.125445 1_555
Ca3 Si30 3.144147 1_555
Ca3 Si22 3.230210 1_554
Ca3 Si7 3.258099 1_555
Ca3 Si28 3.405924 1_545
Ca4 Si21 2.969116 1_554
Ca4 Si34 3.039296 1_555
Ca4 Si22 3.089584 1_554
Ca4 Si16 3.111448 1_555
Ca4 Si6 3.125445 1_555
Ca4 Si30 3.144147 1_555
Ca4 Si23 3.230210 1_455
Ca4 Si8 3.258099 1_555
Ca4 Si28 3.405925 1_554
Ca5 Si22 2.969116 1_455
Ca5 Si34 3.039296 1_555
Ca5 Si23 3.089584 1_455
Ca5 Si17 3.111448 1_555
Ca5 Si7 3.125445 1_555
Ca5 Si30 3.144147 1_555
Ca5 Si21 3.230210 1_545
Ca5 Si6 3.258099 1_555
Ca5 Si28 3.405924 1_455
Ca6 Si13 2.969116 1_555
Ca6 Si33 3.039296 1_455
Ca6 Si12 3.089584 1_465
Ca6 Si18 3.111448 1_555
Ca6 Si4 3.125445 1_555
Ca6 Si29 3.144147 1_455
Ca6 Si14 3.230210 1_555
Ca6 Si5 3.258099 1_465
Ca6 Si31 3.405925 1_565
Ca7 Si14 2.969116 1_555
Ca7 Si33 3.039296 1_545
Ca7 Si13 3.089584 1_546
Ca7 Si19 3.111448 1_555
Ca7 Si5 3.125445 1_555
Ca7 Si29 3.144147 1_545
Ca7 Si12 3.230210 1_555
Ca7 Si3 3.258099 1_546
Ca7 Si31 3.405924 1_556
Ca8 Si12 2.969116 1_555
Ca8 Si33 3.039296 1_554
Ca8 Si14 3.089584 1_654
Ca8 Si20 3.111448 1_555
Ca8 Si3 3.125445 1_555
Ca8 Si29 3.144147 1_554
Ca8 Si13 3.230210 1_555
Ca8 Si4 3.258099 1_654
Ca8 Si31 3.405924 1_655
Ca9 Si17 2.969116 1_565
Ca9 Si32 3.039296 1_555
Ca9 Si15 3.089584 1_565
Ca9 Si21 3.111448 1_555
Ca9 Si2 3.125445 1_555
Ca9 Si28 3.144147 1_555
Ca9 Si16 3.230210 1_556
Ca9 Si1 3.258099 1_555
Ca9 Si30 3.405924 1_565
Ca10 Si15 2.969116 1_556
Ca10 Si32 3.039296 1_555
Ca10 Si16 3.089584 1_556
Ca10 Si22 3.111448 1_555
Ca10 Si0 3.125445 1_555
Ca10 Si28 3.144147 1_555
Ca10 Si17 3.230210 1_655
Ca10 Si2 3.258099 1_555
Ca10 Si30 3.405925 1_556
Ca11 Si16 2.969116 1_655
Ca11 Si32 3.039296 1_555
Ca11 Si17 3.089584 1_655
Ca11 Si23 3.111448 1_555
Ca11 Si1 3.125445 1_555
Ca11 Si28 3.144147 1_555
Ca11 Si15 3.230210 1_565
Ca11 Si0 3.258099 1_555
Ca11 Si30 3.405924 1_655
Ca12 Si24 2.898705 1_554
Ca12 Si9 3.027677 1_554
Ca12 Si6 3.027678 1_555
Ca12 Si35 3.032248 1_555
Ca12 Si34 3.032248 1_555
Ca12 Si8 3.129704 1_555
Ca12 Si10 3.129705 1_455
Ca12 Si25 3.145504 1_554
Ca12 Si26 3.145504 1_455
Ca13 Si25 2.898705 1_455
Ca13 Si7 3.027677 1_555
Ca13 Si10 3.027678 1_455
Ca13 Si34 3.032248 1_555
Ca13 Si35 3.032248 1_555
Ca13 Si11 3.129704 1_545
Ca13 Si6 3.129705 1_555
Ca13 Si24 3.145504 1_545
Ca13 Si26 3.145504 1_455
Ca14 Si26 2.898705 1_545
Ca14 Si8 3.027678 1_555
Ca14 Si11 3.027678 1_545
Ca14 Si35 3.032247 1_555
Ca14 Si34 3.032247 1_555
Ca14 Si7 3.129705 1_555
Ca14 Si9 3.129705 1_554
Ca14 Si24 3.145504 1_545
Ca14 Si25 3.145504 1_554
Ca15 Si27 2.898705 1_556
Ca15 Si3 3.027677 1_556
Ca15 Si0 3.027678 1_555
Ca15 Si33 3.032248 1_555
Ca15 Si32 3.032248 1_555
Ca15 Si2 3.129704 1_555
Ca15 Si4 3.129705 1_655
Ca15 Si37 3.145504 1_556
Ca15 Si36 3.145504 1_655
Ca16 Si37 2.898705 1_655
Ca16 Si1 3.027677 1_555
Ca16 Si4 3.027678 1_655
Ca16 Si32 3.032248 1_555
Ca16 Si33 3.032248 1_555
Ca16 Si5 3.129704 1_565
Ca16 Si0 3.129705 1_555
Ca16 Si27 3.145504 1_565
Ca16 Si36 3.145504 1_655
Ca17 Si36 2.898705 1_565
Ca17 Si5 3.027678 1_565
Ca17 Si2 3.027678 1_555
Ca17 Si32 3.032247 1_555
Ca17 Si33 3.032247 1_555
Ca17 Si3 3.129705 1_556
Ca17 Si1 3.129705 1_555
Ca17 Si37 3.145504 1_556
Ca17 Si27 3.145504 1_565
Ca18 Si31 2.949134 1_555
Ca18 Si37 3.182837 1_545
Ca18 Si27 3.182837 1_455
Ca18 Si36 3.182837 1_554
Ca18 Si3 3.247208 1_545
Ca18 Si4 3.247208 1_554
Ca18 Si5 3.247209 1_455
Ca18 Si13 3.305348 1_545
Ca18 Si12 3.305349 1_455
Ca18 Si14 3.305349 1_554
Ca19 Si30 2.949134 1_555
Ca19 Si27 3.182837 1_555
Ca19 Si37 3.182837 1_555
Ca19 Si36 3.182837 1_555
Ca19 Si1 3.247208 1_545
Ca19 Si0 3.247208 1_455
Ca19 Si2 3.247209 1_554
Ca19 Si15 3.305348 1_555
Ca19 Si16 3.305349 1_555
Ca19 Si17 3.305349 1_555
Ca20 Si29 2.949134 1_555
Ca20 Si25 3.182837 1_565
Ca20 Si24 3.182837 1_655
Ca20 Si26 3.182837 1_556
Ca20 Si9 3.247208 1_565
Ca20 Si10 3.247208 1_556
Ca20 Si11 3.247209 1_655
Ca20 Si19 3.305348 1_565
Ca20 Si18 3.305349 1_655
Ca20 Si20 3.305349 1_556
Ca21 Si28 2.949134 1_555
Ca21 Si24 3.182837 1_555
Ca21 Si25 3.182837 1_555
Ca21 Si26 3.182837 1_555
Ca21 Si7 3.247208 1_565
Ca21 Si6 3.247208 1_655
Ca21 Si8 3.247209 1_556
Ca21 Si21 3.305348 1_555
Ca21 Si22 3.305349 1_555
Ca21 Si23 3.305349 1_555
Ca22 Si2 3.108161 1_544
Ca22 Si0 3.108161 1_454
Ca22 Si1 3.108161 1_445
Ca22 Si37 3.259363 1_545
Ca22 Si27 3.259363 1_455
Ca22 Si36 3.259363 1_554
Ca22 Si16 3.474693 1_545
Ca22 Si15 3.474693 1_455
Ca22 Si17 3.474694 1_554
Ca23 Si5 3.108161 1_555
Ca23 Si4 3.108161 1_555
Ca23 Si3 3.108161 1_555
Ca23 Si27 3.259363 1_555
Ca23 Si37 3.259363 1_555
Ca23 Si36 3.259363 1_555
Ca23 Si12 3.474693 1_555
Ca23 Si13 3.474693 1_555
Ca23 Si14 3.474694 1_555
Ca24 Si8 3.108161 1_566
Ca24 Si6 3.108161 1_656
Ca24 Si7 3.108161 1_665
Ca24 Si25 3.259363 1_565
Ca24 Si24 3.259363 1_655
Ca24 Si26 3.259363 1_556
Ca24 Si22 3.474693 1_565
Ca24 Si21 3.474693 1_655
Ca24 Si23 3.474694 1_556
Ca25 Si11 3.108161 1_555
Ca25 Si10 3.108161 1_555
Ca25 Si9 3.108161 1_555
Ca25 Si24 3.259363 1_555
Ca25 Si25 3.259363 1_555
Ca25 Si26 3.259363 1_555
Ca25 Si18 3.474693 1_555
Ca25 Si19 3.474693 1_555
Ca25 Si20 3.474694 1_555
Ca26 Si16 3.228031 1_545
Ca26 Si22 3.228031 1_454
Ca26 Si15 3.228031 1_455
Ca26 Si21 3.228031 1_544
Ca26 Si17 3.228031 1_554
Ca26 Si23 3.228031 1_445
Ca27 Si12 3.228031 1_555
Ca27 Si18 3.228031 1_555
Ca27 Si13 3.228031 1_555
Ca27 Si19 3.228031 1_555
Ca27 Si14 3.228031 1_555
Ca27 Si20 3.228031 1_555
Si0 Si17 2.354561 1_655
Si0 Si32 2.389678 1_555
Si0 Si36 2.398726 1_655
Si1 Si15 2.354561 1_565
Si1 Si32 2.389678 1_555
Si1 Si27 2.398726 1_565
Si2 Si32 2.389678 1_555
Si2 Si37 2.398726 1_556
Si3 Si33 2.389678 1_554
Si3 Si37 2.398726 1_555
Si10 Si20 2.354561 1_555
Si10 Si35 2.389678 1_655
Si10 Si26 2.398726 1_555
Si11 Si18 2.354561 1_555
Si11 Si35 2.389678 1_565
Si11 Si24 2.398726 1_555
Si12 Si5 2.354561 1_555
Si12 Si31 2.544612 1_655
Si13 Si3 2.354561 1_555
Si13 Si31 2.544612 1_565
Si14 Si4 2.354561 1_555
Si14 Si31 2.544612 1_556
Si15 Si30 2.544612 1_555
Si16 Si2 2.354561 1_554
Si16 Si30 2.544612 1_555
Si17 Si30 2.544612 1_555
Si18 Si29 2.544612 1_455
Si19 Si9 2.354561 1_555
Si19 Si29 2.544612 1_545
Si20 Si29 2.544612 1_554
Si21 Si7 2.354561 1_565
Si21 Si28 2.544612 1_555
Si22 Si8 2.354561 1_556
Si22 Si28 2.544612 1_555
Si23 Si6 2.354561 1_655
Si23 Si28 2.544612 1_555
Si24 Si7 2.398726 1_565
Si25 Si9 2.398726 1_555
Si25 Si8 2.398726 1_556
Si26 Si6 2.398726 1_655
Si27 Si5 2.398726 1_555
Si33 Si4 2.389678 1_655
Si33 Si5 2.389678 1_565
Si34 Si6 2.389678 1_555
Si34 Si8 2.389678 1_555
Si34 Si7 2.389678 1_555
Si35 Si9 2.389678 1_554
Si36 Si4 2.398726 1_555
