# generated using pymatgen
data_MgCo6O7F5
_symmetry_space_group_name_H-M   'P 1'
_cell_length_a   8.10904537
_cell_length_b   5.91649220
_cell_length_c   5.70791331
_cell_angle_alpha   64.93332113
_cell_angle_beta   64.44213476
_cell_angle_gamma   61.99818767
_symmetry_Int_Tables_number   1
_chemical_formula_structural   MgCo6O7F5
_chemical_formula_sum   'Mg1 Co6 O7 F5'
_cell_volume   209.55783894
_cell_formula_units_Z   1
loop_
 _symmetry_equiv_pos_site_id
 _symmetry_equiv_pos_as_xyz
  1  'x, y, z'
loop_
 _atom_site_type_symbol
 _atom_site_label
 _atom_site_symmetry_multiplicity
 _atom_site_fract_x
 _atom_site_fract_y
 _atom_site_fract_z
 _atom_site_occupancy
  Mg  Mg0  1  0.34183973  0.15345094  0.65441921  1
  Co  Co0  1  0.88243524  0.69523456  0.69397805  1
  Co  Co1  1  0.31879998  0.66062728  0.68055209  1
  Co  Co2  1  0.67602575  0.35054625  0.34463951  1
  Co  Co3  1  0.10062672  0.29456324  0.31363785  1
  Co  Co4  1  0.52187544  0.01038953  0.03813311  1
  Co  Co5  1  0.98031211  0.01923098  0.97916224  1
  O  O0  1  0.30574792  0.32448861  0.95030702  1
  O  O1  1  0.64405321  0.03723666  0.64445104  1
  O  O2  1  0.94585253  0.20292314  0.25165837  1
  O  O3  1  0.04741259  0.79133332  0.73932632  1
  O  O4  1  0.33966150  0.98945695  0.39835827  1
  O  O5  1  0.69255179  0.65685266  0.05145874  1
  O  O6  1  0.04205958  0.32268837  0.67446456  1
  F  F0  1  0.59229387  0.55300412  0.60914362  1
  F  F1  1  0.28225170  0.85039286  0.94473558  1
  F  F2  1  0.39371987  0.47336749  0.39475587  1
  F  F3  1  0.68757336  0.15629615  0.07686868  1
  F  F4  1  0.95490611  0.69601091  0.29804588  1
loop_
_geom_bond_atom_site_label_1
_geom_bond_atom_site_label_2
_geom_bond_distance
_geom_bond_site_symmetry_2
Mg0 O4 2.077965 1_545
Mg0 O6 2.120518 1_555
Mg0 O0 2.169252 1_555
Mg0 O1 2.193707 1_555
Co0 O3 1.821464 1_655
Co0 O5 1.952114 1_556
Co0 O6 1.987668 1_655
Co0 O1 2.055467 1_565
Co0 F4 2.073771 1_555
Co1 O3 1.881062 1_555
Co1 F0 1.898428 1_555
Co1 O0 1.949227 1_555
Co1 O4 1.956201 1_555
Co1 F2 2.074127 1_555
Co1 F1 2.087770 1_555
Co2 O2 1.851580 1_555
Co2 O5 1.888772 1_555
Co2 O1 1.952544 1_555
Co2 F2 1.974720 1_555
Co2 F0 2.014799 1_555
Co2 F3 2.220256 1_555
Co3 O2 1.782959 1_455
Co3 O6 1.966538 1_555
Co3 O4 2.008270 1_545
Co3 O0 2.021863 1_554
Co3 F4 2.078902 1_455
Co4 O5 1.879937 1_545
Co4 O0 1.920105 1_554
Co4 O4 1.939308 1_545
Co4 O1 1.995156 1_554
Co4 F3 2.026504 1_555
Co5 O6 1.986413 1_655
Co5 F3 2.009238 1_556
Co5 F4 2.027171 1_546
Co5 O3 2.054416 1_645
Co5 O2 2.109655 1_556
Co5 F1 2.117996 1_645
F1 Mg0 1.949217 1_565
F2 Mg0 1.946519 1_555
