# generated using pymatgen
data_Na6Mg2Ta4Si6(SO12)3
_symmetry_space_group_name_H-M   'P 1'
_cell_length_a   8.96814791
_cell_length_b   8.96814761
_cell_length_c   22.47301273
_cell_angle_alpha   90.00000000
_cell_angle_beta   90.00000000
_cell_angle_gamma   120.00000113
_symmetry_Int_Tables_number   1
_chemical_formula_structural   Na6Mg2Ta4Si6(SO12)3
_chemical_formula_sum   'Na12 Mg4 Ta8 Si12 S6 O72'
_cell_volume   1565.29945840
_cell_formula_units_Z   2
loop_
 _symmetry_equiv_pos_site_id
 _symmetry_equiv_pos_as_xyz
  1  'x, y, z'
loop_
 _atom_site_type_symbol
 _atom_site_label
 _atom_site_symmetry_multiplicity
 _atom_site_fract_x
 _atom_site_fract_y
 _atom_site_fract_z
 _atom_site_occupancy
  Na  Na0  1  0.96798069  0.67998192  0.91714787  1
  Na  Na1  1  0.71200023  0.03201931  0.91714787  1
  Na  Na2  1  0.32001808  0.28799977  0.91714787  1
  Na  Na3  1  0.96798069  0.28799977  0.41714787  1
  Na  Na4  1  0.32001808  0.03201931  0.41714787  1
  Na  Na5  1  0.71200023  0.67998192  0.41714787  1
  Na  Na6  1  0.00000000  0.00000000  0.49313497  1
  Na  Na7  1  0.00000000  0.00000000  0.99313497  1
  Na  Na8  1  0.66666700  0.33333300  0.82641701  1
  Na  Na9  1  0.66666700  0.33333300  0.32641701  1
  Na  Na10  1  0.33333300  0.66666700  0.16048309  1
  Na  Na11  1  0.33333300  0.66666700  0.66048309  1
  Mg  Mg0  1  0.00000000  0.00000000  0.35450080  1
  Mg  Mg1  1  0.00000000  0.00000000  0.85450080  1
  Mg  Mg2  1  0.66666700  0.33333300  0.67993171  1
  Mg  Mg3  1  0.66666700  0.33333300  0.17993171  1
  Ta  Ta0  1  0.00000000  0.00000000  0.63963201  1
  Ta  Ta1  1  0.00000000  0.00000000  0.13963201  1
  Ta  Ta2  1  0.66666700  0.33333300  0.98316259  1
  Ta  Ta3  1  0.66666700  0.33333300  0.48316259  1
  Ta  Ta4  1  0.33333300  0.66666700  0.02271517  1
  Ta  Ta5  1  0.33333300  0.66666700  0.52271517  1
  Ta  Ta6  1  0.33333300  0.66666700  0.31312892  1
  Ta  Ta7  1  0.33333300  0.66666700  0.81312892  1
  Si  Si0  1  0.95518437  0.33892491  0.58744274  1
  Si  Si1  1  0.38374155  0.04481563  0.58744274  1
  Si  Si2  1  0.66107509  0.61625845  0.58744274  1
  Si  Si3  1  0.95518437  0.61625845  0.08744274  1
  Si  Si4  1  0.66107509  0.04481563  0.08744274  1
  Si  Si5  1  0.38374155  0.33892491  0.08744274  1
  Si  Si6  1  0.62247548  0.66333775  0.91595835  1
  Si  Si7  1  0.04086127  0.37752452  0.91595835  1
  Si  Si8  1  0.33666225  0.95913873  0.91595835  1
  Si  Si9  1  0.62247548  0.95913873  0.41595835  1
  Si  Si10  1  0.33666225  0.37752452  0.41595835  1
  Si  Si11  1  0.04086127  0.66333775  0.41595835  1
  S  S0  1  0.28949837  0.99802394  0.25221069  1
  S  S1  1  0.70852558  0.71050163  0.25221069  1
  S  S2  1  0.00197606  0.29147442  0.25221069  1
  S  S3  1  0.28949837  0.29147442  0.75221069  1
  S  S4  1  0.00197606  0.71050163  0.75221069  1
  S  S5  1  0.70852558  0.99802394  0.75221069  1
  O  O0  1  0.20526415  0.00505647  0.30733798  1
  O  O1  1  0.79979232  0.79473585  0.30733798  1
  O  O2  1  0.99494353  0.20020768  0.30733798  1
  O  O3  1  0.20526415  0.20020768  0.80733798  1
  O  O4  1  0.99494353  0.79473585  0.80733798  1
  O  O5  1  0.79979232  0.00505647  0.80733798  1
  O  O6  1  0.80162125  0.98143036  0.69927676  1
  O  O7  1  0.17980911  0.19837875  0.69927676  1
  O  O8  1  0.01856964  0.82019089  0.69927676  1
  O  O9  1  0.80162125  0.82019089  0.19927676  1
  O  O10  1  0.01856964  0.19837875  0.19927676  1
  O  O11  1  0.17980911  0.98143036  0.19927676  1
  O  O12  1  0.87983109  0.37340954  0.64484605  1
  O  O13  1  0.49357945  0.12016891  0.64484605  1
  O  O14  1  0.62659046  0.50642055  0.64484605  1
  O  O15  1  0.87983109  0.50642055  0.14484605  1
  O  O16  1  0.62659046  0.12016891  0.14484605  1
  O  O17  1  0.49357945  0.37340954  0.14484605  1
  O  O18  1  0.46638764  0.30221104  0.02557055  1
  O  O19  1  0.83582440  0.53361236  0.02557055  1
  O  O20  1  0.69778896  0.16417560  0.02557055  1
  O  O21  1  0.46638764  0.16417560  0.52557055  1
  O  O22  1  0.69778896  0.53361236  0.52557055  1
  O  O23  1  0.83582440  0.30221104  0.52557055  1
  O  O24  1  0.52664536  0.69403717  0.97131247  1
  O  O25  1  0.16739081  0.47335464  0.97131247  1
  O  O26  1  0.30596283  0.83260919  0.97131247  1
  O  O27  1  0.52664536  0.83260919  0.47131247  1
  O  O28  1  0.30596283  0.47335464  0.47131247  1
  O  O29  1  0.16739081  0.69403717  0.47131247  1
  O  O30  1  0.13589447  0.63025899  0.35621731  1
  O  O31  1  0.49436352  0.86410553  0.35621731  1
  O  O32  1  0.36974101  0.50563648  0.35621731  1
  O  O33  1  0.13589447  0.50563648  0.85621731  1
  O  O34  1  0.36974101  0.86410553  0.85621731  1
  O  O35  1  0.49436352  0.63025899  0.85621731  1
  O  O36  1  0.01578024  0.82757240  0.40960340  1
  O  O37  1  0.81179216  0.98421976  0.40960340  1
  O  O38  1  0.17242760  0.18820784  0.40960340  1
  O  O39  1  0.01578024  0.18820784  0.90960340  1
  O  O40  1  0.17242760  0.98421976  0.90960340  1
  O  O41  1  0.81179216  0.82757240  0.90960340  1
  O  O42  1  0.97412449  0.16067252  0.59345258  1
  O  O43  1  0.18654804  0.02587551  0.59345258  1
  O  O44  1  0.83932748  0.81345196  0.59345258  1
  O  O45  1  0.97412449  0.81345196  0.09345258  1
  O  O46  1  0.83932747  0.02587551  0.09345258  1
  O  O47  1  0.18654804  0.16067252  0.09345258  1
  O  O48  1  0.68504936  0.14780253  0.74887225  1
  O  O49  1  0.46275417  0.31495064  0.74887225  1
  O  O50  1  0.85219747  0.53724583  0.74887225  1
  O  O51  1  0.68504936  0.53724583  0.24887225  1
  O  O52  1  0.85219747  0.31495064  0.24887225  1
  O  O53  1  0.46275417  0.14780253  0.24887225  1
  O  O54  1  0.62822881  0.48379577  0.92134681  1
  O  O55  1  0.85556796  0.37177119  0.92134681  1
  O  O56  1  0.51620423  0.14443204  0.92134681  1
  O  O57  1  0.62822881  0.14443204  0.42134681  1
  O  O58  1  0.51620423  0.37177119  0.42134681  1
  O  O59  1  0.85556796  0.48379577  0.42134681  1
  O  O60  1  0.34559889  0.49563671  0.07318522  1
  O  O61  1  0.15003682  0.65440111  0.07318522  1
  O  O62  1  0.50436329  0.84996318  0.07318522  1
  O  O63  1  0.34559889  0.84996318  0.57318522  1
  O  O64  1  0.50436329  0.65440111  0.57318522  1
  O  O65  1  0.15003682  0.49563671  0.57318522  1
  O  O66  1  0.29972921  0.83205116  0.25185056  1
  O  O67  1  0.53232095  0.70027079  0.25185056  1
  O  O68  1  0.16794884  0.46767905  0.25185056  1
  O  O69  1  0.29972921  0.46767905  0.75185056  1
  O  O70  1  0.16794884  0.70027079  0.75185056  1
  O  O71  1  0.53232095  0.83205116  0.75185056  1
loop_
_geom_bond_atom_site_label_1
_geom_bond_atom_site_label_2
_geom_bond_distance
_geom_bond_site_symmetry_2
Na0 O41 2.365742 1_555
Na0 O40 2.415016 1_655
Na0 O55 2.424626 1_555
Na0 O4 2.637909 1_555
Na0 O54 2.650940 1_555
Na0 O19 2.740247 1_556
Na0 O26 2.897200 1_655
Na0 O33 2.990293 1_655
Na1 O39 2.365749 1_655
Na1 O41 2.415023 1_545
Na1 O56 2.424609 1_555
Na1 O5 2.637912 1_555
Na1 O55 2.650939 1_555
Na1 O20 2.740243 1_556
Na1 O24 2.897200 1_545
Na1 O34 2.990293 1_545
Na2 O40 2.365749 1_545
Na2 O39 2.415015 1_555
Na2 O54 2.424623 1_555
Na2 O3 2.637910 1_555
Na2 O56 2.650955 1_555
Na2 O18 2.740251 1_556
Na2 O25 2.897200 1_555
Na2 O35 2.990293 1_555
Na3 O37 2.365749 1_545
Na3 O38 2.415023 1_655
Na3 O59 2.424609 1_555
Na3 O2 2.637912 1_555
Na3 O57 2.650939 1_555
Na3 O23 2.740243 1_555
Na3 O28 2.897200 1_655
Na3 O30 2.990293 1_655
Na4 O38 2.365742 1_555
Na4 O36 2.415016 1_545
Na4 O57 2.424626 1_555
Na4 O0 2.637909 1_555
Na4 O58 2.650940 1_555
Na4 O21 2.740247 1_555
Na4 O29 2.897200 1_545
Na4 O31 2.990293 1_545
Na5 O36 2.365750 1_655
Na5 O37 2.415015 1_555
Na5 O58 2.424623 1_555
Na5 O1 2.637910 1_555
Na5 O59 2.650955 1_555
Na5 O22 2.740251 1_555
Na5 O27 2.897200 1_555
Na5 O32 2.990293 1_555
Na6 O38 2.480723 1_555
Na6 O36 2.480723 1_545
Na6 O37 2.480723 1_445
Na6 O42 2.747183 1_455
Na6 O44 2.747183 1_445
Na6 O43 2.747183 1_555
Na7 O39 2.480723 1_555
Na7 O41 2.480723 1_445
Na7 O40 2.480723 1_545
Na7 O47 2.747183 1_556
Na7 O45 2.747183 1_446
Na7 O46 2.747183 1_456
Na8 O50 2.471194 1_555
Na8 O48 2.471194 1_555
Na8 O49 2.471194 1_555
Na8 O56 2.637425 1_555
Na8 O54 2.637425 1_555
Na8 O55 2.637425 1_555
Na9 O51 2.471194 1_555
Na9 O53 2.471194 1_555
Na9 O52 2.471194 1_555
Na9 O57 2.637425 1_555
Na9 O59 2.637425 1_555
Na9 O58 2.637425 1_555
Na10 O62 2.526318 1_555
Na10 O60 2.526318 1_555
Na10 O61 2.526318 1_555
Na10 O68 2.636987 1_555
Na10 O66 2.636987 1_555
Na10 O67 2.636987 1_555
Na11 O63 2.526318 1_555
Na11 O65 2.526318 1_555
Na11 O64 2.526318 1_555
Na11 O69 2.636987 1_555
Na11 O71 2.636987 1_555
Na11 O70 2.636987 1_555
Mg0 O38 2.040472 1_555
Mg0 O36 2.040472 1_545
Mg0 O37 2.040472 1_445
Mg0 O1 2.104908 1_445
Mg0 O2 2.104908 1_455
Mg0 O0 2.104908 1_555
Mg1 O39 2.040472 1_555
Mg1 O41 2.040472 1_445
Mg1 O40 2.040472 1_545
Mg1 O4 2.104908 1_445
Mg1 O3 2.104908 1_555
Mg1 O5 2.104908 1_455
Mg2 O13 1.928300 1_555
Mg2 O14 1.928300 1_555
Mg2 O12 1.928300 1_555
Mg2 O50 2.338858 1_555
Mg2 O48 2.338858 1_555
Mg2 O49 2.338858 1_555
Mg3 O16 1.928300 1_555
Mg3 O15 1.928300 1_555
Mg3 O17 1.928300 1_555
Mg3 O51 2.338858 1_555
Mg3 O53 2.338858 1_555
Mg3 O52 2.338858 1_555
O0 S0 1.468708 1_545
O1 S1 1.468708 1_555
O2 S2 1.468708 1_655
O3 S3 1.468708 1_555
O4 S4 1.468708 1_655
O5 S5 1.468708 1_545
O6 S5 1.502848 1_555
O6 Ta0 2.166398 1_665
O7 S3 1.502848 1_555
O7 Ta0 2.166398 1_555
O8 S4 1.502848 1_555
O8 Ta0 2.166398 1_565
O9 S1 1.502848 1_555
O9 Ta1 2.166398 1_665
O10 S2 1.502848 1_555
O10 Ta1 2.166398 1_555
O11 S0 1.502848 1_555
O11 Ta1 2.166398 1_565
O12 Si0 1.557395 1_555
O13 Si1 1.557395 1_555
O14 Si2 1.557395 1_555
O15 Si3 1.557395 1_555
O16 Si4 1.557395 1_555
O17 Si5 1.557395 1_555
O18 Si5 1.683794 1_555
O18 Ta2 1.926386 1_554
O19 Si3 1.683794 1_555
O19 Ta2 1.926386 1_554
O20 Si4 1.683794 1_555
O20 Ta2 1.926386 1_554
O21 Si1 1.683794 1_555
O21 Ta3 1.926386 1_555
O22 Si2 1.683794 1_555
O22 Ta3 1.926386 1_555
O23 Si0 1.683794 1_555
O23 Ta3 1.926386 1_555
O24 Si6 1.611981 1_555
O24 Ta4 1.993662 1_556
O25 Si7 1.611981 1_555
O25 Ta4 1.993662 1_556
O26 Si8 1.611981 1_555
O26 Ta4 1.993662 1_556
O27 Si9 1.611981 1_555
O27 Ta5 1.993662 1_555
O28 Si10 1.611981 1_555
O28 Ta5 1.993662 1_555
O29 Si11 1.611981 1_555
O29 Ta5 1.993662 1_555
O30 Si11 1.694011 1_555
O30 Ta6 1.897723 1_555
O31 Si9 1.694011 1_555
O31 Ta6 1.897723 1_555
O32 Si10 1.694011 1_555
O32 Ta6 1.897723 1_555
O33 Si7 1.694011 1_555
O33 Ta7 1.897723 1_555
O34 Si8 1.694011 1_555
O34 Ta7 1.897723 1_555
O35 Si6 1.694011 1_555
O35 Ta7 1.897723 1_555
O36 Si11 1.603640 1_555
O37 Si9 1.603649 1_555
O38 Si10 1.603646 1_555
O39 Si7 1.603649 1_555
O40 Si8 1.603640 1_555
O41 Si6 1.603646 1_555
O42 Si0 1.695325 1_555
O42 Ta0 1.881895 1_655
O43 Si1 1.695334 1_555
O43 Ta0 1.881895 1_555
O44 Si2 1.695331 1_555
O44 Ta0 1.881895 1_665
O45 Si3 1.695334 1_555
O45 Ta1 1.881895 1_665
O46 Si4 1.695325 1_555
O46 Ta1 1.881895 1_655
O47 Si5 1.695331 1_555
O47 Ta1 1.881895 1_555
O48 S5 1.461863 1_545
O49 S3 1.461871 1_555
O50 S4 1.461868 1_655
O51 S1 1.461871 1_555
O52 S2 1.461863 1_655
O53 S0 1.461868 1_545
O54 Si6 1.641041 1_555
O54 Ta2 2.081978 1_555
O55 Si7 1.641024 1_655
O55 Ta2 2.081978 1_555
O56 Si8 1.641032 1_545
O56 Ta2 2.081978 1_555
O57 Si9 1.641024 1_545
O57 Ta3 2.081978 1_555
O58 Si10 1.641042 1_555
O58 Ta3 2.081978 1_555
O59 Si11 1.641032 1_655
O59 Ta3 2.081978 1_555
O60 Si5 1.635730 1_555
O60 Ta4 1.954453 1_555
O61 Si3 1.635713 1_455
O61 Ta4 1.954453 1_555
O62 Si4 1.635718 1_565
O62 Ta4 1.954453 1_555
O63 Si1 1.635712 1_565
O63 Ta5 1.954453 1_555
O64 Si2 1.635730 1_555
O64 Ta5 1.954453 1_555
O65 Si0 1.635718 1_455
O65 Ta5 1.954453 1_555
O66 S0 1.536422 1_555
O66 Ta6 2.152692 1_555
O67 S1 1.536431 1_555
O67 Ta6 2.152692 1_555
O68 S2 1.536427 1_555
O68 Ta6 2.152692 1_555
O69 S3 1.536431 1_555
O69 Ta7 2.152692 1_555
O70 S4 1.536422 1_555
O70 Ta7 2.152692 1_555
O71 S5 1.536427 1_555
O71 Ta7 2.152692 1_555
