# generated using pymatgen
data_Y3NbSiS5O24
_symmetry_space_group_name_H-M   'P 1'
_cell_length_a   9.20112351
_cell_length_b   9.21028633
_cell_length_c   23.69834881
_cell_angle_alpha   90.12228500
_cell_angle_beta   90.20133973
_cell_angle_gamma   119.99229758
_symmetry_Int_Tables_number   1
_chemical_formula_structural   Y3NbSiS5O24
_chemical_formula_sum   'Y9 Nb3 Si3 S15 O72'
_cell_volume   1739.35948370
_cell_formula_units_Z   3
loop_
 _symmetry_equiv_pos_site_id
 _symmetry_equiv_pos_as_xyz
  1  'x, y, z'
loop_
 _atom_site_type_symbol
 _atom_site_label
 _atom_site_symmetry_multiplicity
 _atom_site_fract_x
 _atom_site_fract_y
 _atom_site_fract_z
 _atom_site_occupancy
  Y  Y0  1  0.01027283  0.00328065  0.35404691  1
  Y  Y1  1  0.99438436  0.99716775  0.85884873  1
  Y  Y2  1  0.99825642  0.99873356  0.64874640  1
  Y  Y3  1  0.00986520  0.99614339  0.14229484  1
  Y  Y4  1  0.66834921  0.33369865  0.69064126  1
  Y  Y5  1  0.65940957  0.32607894  0.19156730  1
  Y  Y6  1  0.66548136  0.33182628  0.47522358  1
  Y  Y7  1  0.33696560  0.66370766  0.02322195  1
  Y  Y8  1  0.33331593  0.66636296  0.52464499  1
  Nb  Nb0  1  0.67290590  0.33780965  0.97425510  1
  Nb  Nb1  1  0.33350474  0.67188658  0.30979994  1
  Nb  Nb2  1  0.33078667  0.65516479  0.82005736  1
  Si  Si0  1  0.28811106  0.99849211  0.25040938  1
  Si  Si1  1  0.61890266  0.65842532  0.91968078  1
  Si  Si2  1  0.04205438  0.38191520  0.91898474  1
  S  S0  1  0.69934865  0.71147426  0.25224092  1
  S  S1  1  0.01134749  0.30126175  0.25240265  1
  S  S2  1  0.29138111  0.30340115  0.75189170  1
  S  S3  1  0.01537736  0.71080832  0.75136204  1
  S  S4  1  0.69516048  0.98665606  0.75156857  1
  S  S5  1  0.95341191  0.33004960  0.58317977  1
  S  S6  1  0.37666225  0.04719566  0.58315871  1
  S  S7  1  0.66993709  0.62207003  0.58317014  1
  S  S8  1  0.94184123  0.61296009  0.08092628  1
  S  S9  1  0.67181919  0.05721665  0.08107706  1
  S  S10  1  0.38559186  0.33000170  0.08115067  1
  S  S11  1  0.34674015  0.95889912  0.91690213  1
  S  S12  1  0.61237185  0.94595581  0.41448871  1
  S  S13  1  0.33475785  0.38784989  0.41537726  1
  S  S14  1  0.05164215  0.66271553  0.41450927  1
  O  O0  1  0.20180208  0.01698567  0.30662191  1
  O  O1  1  0.80190612  0.78991356  0.30275013  1
  O  O2  1  0.98000911  0.19578949  0.30244147  1
  O  O3  1  0.21688846  0.19561981  0.80072375  1
  O  O4  1  0.98377106  0.78787436  0.80020428  1
  O  O5  1  0.80717996  0.02095300  0.79997902  1
  O  O6  1  0.76970863  0.95591584  0.70012299  1
  O  O7  1  0.18612492  0.22960530  0.70057910  1
  O  O8  1  0.04165347  0.81487716  0.69999214  1
  O  O9  1  0.76411949  0.81763791  0.20212546  1
  O  O10  1  0.04732058  0.23226144  0.20210499  1
  O  O11  1  0.16678513  0.95248119  0.19580523  1
  O  O12  1  0.87478025  0.35698576  0.63339095  1
  O  O13  1  0.48259630  0.12636844  0.63356813  1
  O  O14  1  0.64441524  0.51747407  0.63343527  1
  O  O15  1  0.86589278  0.51458543  0.13190225  1
  O  O16  1  0.65305718  0.13702423  0.13244676  1
  O  O17  1  0.48461414  0.35247579  0.13288775  1
  O  O18  1  0.47256692  0.30997035  0.03100636  1
  O  O19  1  0.83277041  0.51944262  0.02977455  1
  O  O20  1  0.68798942  0.16338611  0.03023413  1
  O  O21  1  0.45654161  0.15029567  0.53218364  1
  O  O22  1  0.69269202  0.54170628  0.53206540  1
  O  O23  1  0.84936946  0.30581090  0.53198926  1
  O  O24  1  0.53575803  0.69183540  0.97225936  1
  O  O25  1  0.15031252  0.47414622  0.97252990  1
  O  O26  1  0.31453494  0.85835373  0.96729958  1
  O  O27  1  0.53563670  0.84587686  0.46540840  1
  O  O28  1  0.31477586  0.46702578  0.46668200  1
  O  O29  1  0.15366958  0.68866196  0.46556533  1
  O  O30  1  0.14130203  0.64275318  0.36429756  1
  O  O31  1  0.50134080  0.85486894  0.36395621  1
  O  O32  1  0.35484372  0.49409903  0.36514293  1
  O  O33  1  0.14220616  0.51349056  0.86209998  1
  O  O34  1  0.37570262  0.87532982  0.86614619  1
  O  O35  1  0.48682734  0.63151638  0.86292838  1
  O  O36  1  0.02805451  0.80738651  0.40694752  1
  O  O37  1  0.77803498  0.96552219  0.40542295  1
  O  O38  1  0.18458613  0.22175365  0.40874967  1
  O  O39  1  0.01236342  0.20372671  0.90162596  1
  O  O40  1  0.20740951  0.98727740  0.90407751  1
  O  O41  1  0.80128354  0.79660185  0.90152103  1
  O  O42  1  0.97184657  0.18075220  0.59112131  1
  O  O43  1  0.20883533  0.02884471  0.59103671  1
  O  O44  1  0.81955810  0.79007032  0.59092904  1
  O  O45  1  0.94621827  0.77591936  0.08356393  1
  O  O46  1  0.82425936  0.04319557  0.08610317  1
  O  O47  1  0.21813522  0.17667887  0.08552141  1
  O  O48  1  0.67345073  0.13395667  0.74151292  1
  O  O49  1  0.46232592  0.33221874  0.74188721  1
  O  O50  1  0.86944592  0.54061171  0.74145250  1
  O  O51  1  0.67381975  0.54319584  0.24390437  1
  O  O52  1  0.87508772  0.33709924  0.24403370  1
  O  O53  1  0.47835719  0.14320016  0.24272252  1
  O  O54  1  0.62456704  0.47944010  0.93154044  1
  O  O55  1  0.85160642  0.36465454  0.92993905  1
  O  O56  1  0.50373650  0.12699286  0.92509281  1
  O  O57  1  0.62180436  0.11052843  0.41885413  1
  O  O58  1  0.48720738  0.37264624  0.42044944  1
  O  O59  1  0.88739863  0.50700633  0.41897789  1
  O  O60  1  0.36566234  0.47774937  0.07563938  1
  O  O61  1  0.11030841  0.63831103  0.07344950  1
  O  O62  1  0.52112163  0.89236524  0.07433351  1
  O  O63  1  0.35883349  0.87941876  0.57545148  1
  O  O64  1  0.52022169  0.64059278  0.57573056  1
  O  O65  1  0.12117826  0.47988987  0.57568652  1
  O  O66  1  0.30866158  0.82234766  0.26777122  1
  O  O67  1  0.52403413  0.68828341  0.26502390  1
  O  O68  1  0.16859817  0.47211432  0.26555861  1
  O  O69  1  0.30595959  0.47370625  0.76204552  1
  O  O70  1  0.16828292  0.69602122  0.76146222  1
  O  O71  1  0.52632367  0.83731253  0.76238046  1
loop_
_geom_bond_atom_site_label_1
_geom_bond_atom_site_label_2
_geom_bond_distance
_geom_bond_site_symmetry_2
Nb0 O55 1.863983 1_555
Nb0 O54 1.872602 1_555
Nb0 O19 2.051875 1_556
Nb0 O56 2.122812 1_555
Nb0 O20 2.142587 1_556
Nb0 O18 2.195178 1_556
Nb1 O66 1.812648 1_555
Nb1 O67 1.992775 1_555
Nb1 O68 1.994088 1_555
Nb1 O31 2.060848 1_555
Nb1 O30 2.100147 1_555
Nb1 O32 2.183756 1_555
Nb2 O35 1.855898 1_555
Nb2 O33 1.860163 1_555
Nb2 O69 2.083675 1_555
Nb2 O34 2.150627 1_555
Nb2 O70 2.203557 1_555
Nb2 O71 2.220168 1_555
O0 Si0 1.604986 1_545
O0 Y0 2.043733 1_555
O1 S0 1.466957 1_555
O1 Y0 2.285180 1_665
O2 S1 1.469798 1_655
O2 Y0 2.284163 1_655
O3 S2 1.457625 1_555
O3 Y1 2.391455 1_445
O4 S3 1.460609 1_655
O4 Y1 2.335866 1_555
O5 S4 1.463881 1_545
O5 Y1 2.307159 1_545
O6 S4 1.495195 1_555
O6 Y2 2.291513 1_555
O7 S2 1.486176 1_555
O7 Y2 2.305982 1_445
O8 S3 1.494847 1_555
O8 Y2 2.276661 1_455
O9 S0 1.465987 1_555
O9 Y3 2.478307 1_655
O10 S1 1.464264 1_555
O10 Y3 2.468054 1_545
O11 Si0 1.617047 1_555
O11 Y3 2.103400 1_555
O12 S5 1.478227 1_555
O12 Y4 2.259760 1_555
O13 S6 1.478654 1_555
O13 Y4 2.259810 1_555
O14 S7 1.477449 1_555
O14 Y4 2.265330 1_555
O15 S8 1.465007 1_555
O15 Y5 2.314039 1_555
O16 S9 1.475340 1_555
O16 Y5 2.210337 1_555
O17 S10 1.476067 1_555
O17 Y5 2.226258 1_555
O18 S10 1.496653 1_555
O19 S8 1.530127 1_555
O20 S9 1.513583 1_555
O21 S6 1.488153 1_555
O21 Y6 2.264464 1_555
O22 S7 1.487058 1_555
O22 Y6 2.261990 1_555
O23 S5 1.488281 1_555
O23 Y6 2.262875 1_555
O24 Si1 1.572561 1_555
O24 Y7 2.101070 1_556
O25 Si2 1.569891 1_555
O25 Y7 2.102305 1_556
O26 S11 1.450752 1_555
O26 Y7 2.321853 1_556
O27 S12 1.471182 1_555
O27 Y8 2.262942 1_555
O28 S13 1.475017 1_555
O28 Y8 2.227362 1_555
O29 S14 1.472702 1_555
O29 Y8 2.249231 1_555
O30 S14 1.512592 1_555
O31 S12 1.520475 1_555
O32 S13 1.494895 1_555
O33 Si2 1.741922 1_555
O34 S11 1.521059 1_555
O35 Si1 1.741571 1_555
O36 S14 1.464423 1_555
O36 Y0 2.270914 1_565
O37 S12 1.459425 1_555
O37 Y0 2.333791 1_665
O38 S13 1.469122 1_555
O38 Y0 2.247135 1_555
O39 Si2 1.576507 1_555
O39 Y1 2.085756 1_445
O40 S11 1.461782 1_555
O40 Y1 2.272266 1_455
O41 Si1 1.578973 1_555
O41 Y1 2.081134 1_555
O42 S5 1.479553 1_555
O42 Y2 2.269174 1_545
O43 S6 1.479591 1_555
O43 Y2 2.276945 1_445
O44 S7 1.480072 1_555
O44 Y2 2.255675 1_555
O45 S8 1.482357 1_555
O45 Y3 2.277916 1_655
O46 S9 1.475869 1_555
O46 Y3 2.367280 1_645
O47 S10 1.485043 1_555
O47 Y3 2.255951 1_545
O48 S4 1.486357 1_545
O48 Y4 2.221585 1_555
O49 S2 1.478559 1_555
O49 Y4 2.249211 1_555
O50 S3 1.485669 1_655
O50 Y4 2.225892 1_555
O51 S0 1.459713 1_555
O51 Y5 2.297377 1_555
O52 S1 1.460280 1_655
O52 Y5 2.296774 1_555
O53 Si0 1.595149 1_545
O53 Y5 2.073529 1_555
O54 Si1 1.699132 1_555
O55 Si2 1.699471 1_655
O56 S11 1.510667 1_545
O57 S12 1.477671 1_545
O57 Y6 2.294786 1_555
O58 S13 1.482196 1_555
O58 Y6 2.262881 1_555
O59 S14 1.478758 1_655
O59 Y6 2.298659 1_555
O60 S10 1.467148 1_555
O60 Y7 2.237217 1_555
O61 S8 1.459091 1_455
O61 Y7 2.313394 1_555
O62 S9 1.464953 1_565
O62 Y7 2.276082 1_555
O63 S6 1.480976 1_565
O63 Y8 2.209697 1_555
O64 S7 1.480273 1_555
O64 Y8 2.207757 1_555
O65 S5 1.480571 1_455
O65 Y8 2.212843 1_555
O66 Si0 1.773705 1_555
O67 S0 1.548773 1_555
O68 S1 1.544456 1_555
O69 S2 1.524493 1_555
O70 S3 1.498184 1_555
O71 S4 1.496312 1_555
