# generated using pymatgen
data_MgMn3CrO8
_symmetry_space_group_name_H-M   'P 1'
_cell_length_a   5.93836085
_cell_length_b   5.91849473
_cell_length_c   5.95551609
_cell_angle_alpha   61.05901922
_cell_angle_beta   58.89580811
_cell_angle_gamma   61.26381955
_symmetry_Int_Tables_number   1
_chemical_formula_structural   MgMn3CrO8
_chemical_formula_sum   'Mg1 Mn3 Cr1 O8'
_cell_volume   149.21407512
_cell_formula_units_Z   1
loop_
 _symmetry_equiv_pos_site_id
 _symmetry_equiv_pos_as_xyz
  1  'x, y, z'
loop_
 _atom_site_type_symbol
 _atom_site_label
 _atom_site_symmetry_multiplicity
 _atom_site_fract_x
 _atom_site_fract_y
 _atom_site_fract_z
 _atom_site_occupancy
  Mg  Mg0  1  0.92213300  0.90881000  0.84636500  1
  Mn  Mn0  1  0.04584700  0.53667500  0.45880300  1
  Mn  Mn1  1  0.53611500  0.04312200  0.46016700  1
  Mn  Mn2  1  0.53612900  0.53645200  0.96842100  1
  Cr  Cr0  1  0.53851500  0.53297100  0.46140000  1
  O  O0  1  0.27987100  0.33806000  0.20371700  1
  O  O1  1  0.73624700  0.30851500  0.20985200  1
  O  O2  1  0.30607800  0.73968500  0.22601900  1
  O  O3  1  0.28428200  0.30759200  0.66006800  1
  O  O4  1  0.78674800  0.77339400  0.25554800  1
  O  O5  1  0.77560300  0.32328900  0.70049500  1
  O  O6  1  0.79479400  0.75364000  0.71554400  1
  O  O7  1  0.33263800  0.77279500  0.70860100  1
loop_
_geom_bond_atom_site_label_1
_geom_bond_atom_site_label_2
_geom_bond_distance
_geom_bond_site_symmetry_2
Mg0 O4 1.983004 1_556
Mg0 O7 1.987344 1_655
Mg0 O6 1.997793 1_555
Mg0 O5 2.048303 1_565
Mn0 O0 1.896630 1_555
Mn0 O3 1.901193 1_555
Mn0 O2 1.927032 1_555
Mn0 O6 1.978308 1_455
Mn0 O4 2.001425 1_455
Mn0 O5 2.011244 1_455
Mn1 O1 1.949416 1_555
Mn1 O3 1.953719 1_555
Mn1 O7 1.982342 1_545
Mn1 O4 1.993201 1_545
Mn1 O0 2.227563 1_555
Mn1 O6 2.229240 1_545
Mn2 O0 1.892236 1_556
Mn2 O1 1.909487 1_556
Mn2 O2 1.925396 1_556
Mn2 O6 1.978571 1_555
Mn2 O7 2.005739 1_555
Mn2 O5 2.009658 1_555
Cr0 O1 1.999136 1_555
Cr0 O3 2.005463 1_555
Cr0 O2 2.020550 1_555
Cr0 O4 2.040129 1_555
Cr0 O7 2.042289 1_555
Cr0 O5 2.056923 1_555
