# generated using pymatgen
data_NaHfNbSi(PO6)2
_symmetry_space_group_name_H-M   'P 1'
_cell_length_a   8.85931742
_cell_length_b   8.85941020
_cell_length_c   23.10616714
_cell_angle_alpha   89.93189288
_cell_angle_beta   90.00000000
_cell_angle_gamma   119.99965359
_symmetry_Int_Tables_number   1
_chemical_formula_structural   NaHfNbSi(PO6)2
_chemical_formula_sum   'Na6 Hf6 Nb6 Si6 P12 O72'
_cell_volume   1570.59684854
_cell_formula_units_Z   6
loop_
 _symmetry_equiv_pos_site_id
 _symmetry_equiv_pos_as_xyz
  1  'x, y, z'
loop_
 _atom_site_type_symbol
 _atom_site_label
 _atom_site_symmetry_multiplicity
 _atom_site_fract_x
 _atom_site_fract_y
 _atom_site_fract_z
 _atom_site_occupancy
  Na  Na0  1  0.00209078  0.00325487  0.49896153  1
  Na  Na1  1  0.00116409  0.00325487  0.99896153  1
  Na  Na2  1  0.66910413  0.33595227  0.83237449  1
  Na  Na3  1  0.66684914  0.33595227  0.33237449  1
  Na  Na4  1  0.33419501  0.66556582  0.16555164  1
  Na  Na5  1  0.33136981  0.66556582  0.66555164  1
  Hf  Hf0  1  0.00000279  0.99820563  0.35359696  1
  Hf  Hf1  1  0.99820283  0.99820563  0.85359696  1
  Hf  Hf2  1  0.67318307  0.33657752  0.68699557  1
  Hf  Hf3  1  0.66339545  0.33657752  0.18699557  1
  Hf  Hf4  1  0.33153832  0.66060147  0.02032704  1
  Hf  Hf5  1  0.32906215  0.66060147  0.52032704  1
  Nb  Nb0  1  0.00130964  0.99986261  0.64587586  1
  Nb  Nb1  1  0.99855297  0.99986261  0.14587586  1
  Nb  Nb2  1  0.66433300  0.33197160  0.97919340  1
  Nb  Nb3  1  0.66763959  0.33197160  0.47919340  1
  Nb  Nb4  1  0.33878547  0.66310257  0.31247620  1
  Nb  Nb5  1  0.32431610  0.66310257  0.81247620  1
  Si  Si0  1  0.71237638  0.71024746  0.25048830  1
  Si  Si1  1  0.99787107  0.71024746  0.75048830  1
  Si  Si2  1  0.95740406  0.33343076  0.58367405  1
  Si  Si3  1  0.37602770  0.33343076  0.08367405  1
  Si  Si4  1  0.04143006  0.37405045  0.91770776  1
  Si  Si5  1  0.33261940  0.37405045  0.41770776  1
  P  P0  1  0.28744787  0.99831137  0.25023836  1
  P  P1  1  -0.00013021  0.28790983  0.25031310  1
  P  P2  1  0.28804004  0.28790983  0.75031310  1
  P  P3  1  0.71086350  0.99831137  0.75023836  1
  P  P4  1  0.37930948  0.04598981  0.58379992  1
  P  P5  1  0.66711134  0.62150204  0.58353265  1
  P  P6  1  0.95439171  0.62150204  0.08353265  1
  P  P7  1  0.66668133  0.04598981  0.08379992  1
  P  P8  1  0.62054458  0.66643770  0.91663230  1
  P  P9  1  0.33352935  0.95440098  0.91700402  1
  P  P10  1  0.62087063  0.95440098  0.41700402  1
  P  P11  1  0.04589212  0.66643770  0.41663230  1
  O  O0  1  0.20611088  0.02956152  0.30381299  1
  O  O1  1  0.82728460  0.79981375  0.30683884  1
  O  O2  1  0.97413426  0.17781769  0.30402148  1
  O  O3  1  0.20368344  0.17781769  0.80402148  1
  O  O4  1  0.97252915  0.79981375  0.80683884  1
  O  O5  1  0.82345064  0.02956152  0.80381299  1
  O  O6  1  0.80036176  0.97202011  0.69567882  1
  O  O7  1  0.17159276  0.20307545  0.69555111  1
  O  O8  1  0.03026416  0.83542292  0.69303095  1
  O  O9  1  0.80515876  0.83542292  0.19303095  1
  O  O10  1  0.03148269  0.20307545  0.19555111  1
  O  O11  1  0.17165835  0.97202011  0.19567882  1
  O  O12  1  0.86606021  0.36091120  0.63950300  1
  O  O13  1  0.48760673  0.12912422  0.63769358  1
  O  O14  1  0.63654988  0.50986235  0.63736942  1
  O  O15  1  0.87331347  0.50986235  0.13736942  1
  O  O16  1  0.64151849  0.12912422  0.13769358  1
  O  O17  1  0.49485199  0.36091120  0.13950300  1
  O  O18  1  0.47175084  0.30319975  0.02642380  1
  O  O19  1  0.83866592  0.53449605  0.02909488  1
  O  O20  1  0.69743564  0.16209211  0.02884052  1
  O  O21  1  0.46465748  0.16209211  0.52884052  1
  O  O22  1  0.69583114  0.53449605  0.52909488  1
  O  O23  1  0.83144991  0.30319975  0.52642380  1
  O  O24  1  0.53945725  0.69590831  0.97078542  1
  O  O25  1  0.16185995  0.46738800  0.97291954  1
  O  O26  1  0.30733542  0.84564873  0.97101587  1
  O  O27  1  0.53831231  0.84564873  0.47101587  1
  O  O28  1  0.30552705  0.46738800  0.47291954  1
  O  O29  1  0.15645006  0.69590831  0.47078542  1
  O  O30  1  0.13135147  0.63751818  0.36221896  1
  O  O31  1  0.50477579  0.86900102  0.36223167  1
  O  O32  1  0.36339115  0.50196072  0.35998263  1
  O  O33  1  0.13856857  0.50196072  0.85998263  1
  O  O34  1  0.36422423  0.86900102  0.86223167  1
  O  O35  1  0.50616571  0.63751818  0.86221896  1
  O  O36  1  0.02176160  0.82539942  0.40972333  1
  O  O37  1  0.80306226  0.97787859  0.40906353  1
  O  O38  1  0.16472406  0.18439175  0.40953257  1
  O  O39  1  0.01966769  0.18439175  0.90953257  1
  O  O40  1  0.17481633  0.97787859  0.90906353  1
  O  O41  1  0.80363782  0.82539942  0.90972333  1
  O  O42  1  0.97451109  0.15751746  0.59179246  1
  O  O43  1  0.19543919  0.02866658  0.59052573  1
  O  O44  1  0.83346091  0.80481843  0.59077577  1
  O  O45  1  0.97135752  0.80481843  0.09077577  1
  O  O46  1  0.83322739  0.02866658  0.09052573  1
  O  O47  1  0.18300637  0.15751746  0.09179246  1
  O  O48  1  0.68591049  0.15673268  0.74243424  1
  O  O49  1  0.46885336  0.30848677  0.74220974  1
  O  O50  1  0.83059664  0.51817322  0.74377891  1
  O  O51  1  0.68757758  0.51817322  0.24377891  1
  O  O52  1  0.83963440  0.30848677  0.24220974  1
  O  O53  1  0.47082319  0.15673268  0.24243424  1
  O  O54  1  0.63920532  0.50091736  0.92449677  1
  O  O55  1  0.84976430  0.35969975  0.92507248  1
  O  O56  1  0.50002652  0.13834098  0.92365429  1
  O  O57  1  0.63831546  0.13834098  0.42365429  1
  O  O58  1  0.50993645  0.35969975  0.42507248  1
  O  O59  1  0.86171303  0.50091736  0.42449677  1
  O  O60  1  0.35535835  0.50344654  0.07716260  1
  O  O61  1  0.13828431  0.64832666  0.07580973  1
  O  O62  1  0.50726852  0.86487728  0.07547457  1
  O  O63  1  0.35760776  0.86487728  0.57547457  1
  O  O64  1  0.51004136  0.64832666  0.57580973  1
  O  O65  1  0.14808719  0.50344654  0.57716260  1
  O  O66  1  0.30302317  0.83233601  0.25742824  1
  O  O67  1  0.51802526  0.69518813  0.25777214  1
  O  O68  1  0.16447166  0.47260552  0.25753629  1
  O  O69  1  0.30813286  0.47260552  0.75753629  1
  O  O70  1  0.17716187  0.69518813  0.75777214  1
  O  O71  1  0.52931184  0.83233601  0.75742824  1
loop_
_geom_bond_atom_site_label_1
_geom_bond_atom_site_label_2
_geom_bond_distance
_geom_bond_site_symmetry_2
Na0 O38 2.569250 1_555
Na0 O42 2.620931 1_455
Na0 O36 2.654647 1_545
Na0 O43 2.660170 1_555
Na0 O37 2.660652 1_445
Na0 O44 2.681037 1_445
Na1 O39 2.569250 1_555
Na1 O47 2.620931 1_556
Na1 O41 2.654647 1_445
Na1 O46 2.660170 1_456
Na1 O40 2.660652 1_545
Na1 O45 2.681037 1_446
Na2 O50 2.554650 1_555
Na2 O55 2.618779 1_555
Na2 O48 2.665760 1_555
Na2 O49 2.667678 1_555
Na2 O56 2.669457 1_555
Na2 O54 2.670496 1_555
Na3 O51 2.554650 1_555
Na3 O58 2.618779 1_555
Na3 O53 2.665760 1_555
Na3 O52 2.667678 1_555
Na3 O57 2.669457 1_555
Na3 O59 2.670496 1_555
Na4 O60 2.558406 1_555
Na4 O67 2.614526 1_555
Na4 O61 2.659175 1_555
Na4 O62 2.661727 1_555
Na4 O68 2.668640 1_555
Na4 O66 2.679828 1_555
Na5 O65 2.558406 1_555
Na5 O70 2.614526 1_555
Na5 O64 2.659175 1_555
Na5 O63 2.661727 1_555
Na5 O69 2.668640 1_555
Na5 O71 2.679828 1_555
Hf0 O1 1.978136 1_455
Hf0 O38 2.029496 1_565
Hf0 O0 2.055867 1_565
Hf0 O2 2.063282 1_465
Hf0 O36 2.086446 1_555
Hf0 O37 2.098669 1_455
Hf1 O4 1.978136 1_555
Hf1 O39 2.029496 1_665
Hf1 O5 2.055867 1_565
Hf1 O3 2.063282 1_665
Hf1 O41 2.086446 1_555
Hf1 O40 2.098669 1_655
Hf2 O12 1.949775 1_555
Hf2 O50 2.004008 1_555
Hf2 O14 2.066658 1_555
Hf2 O13 2.088538 1_555
Hf2 O48 2.089756 1_555
Hf2 O49 2.124904 1_555
Hf3 O17 1.949775 1_555
Hf3 O51 2.004008 1_555
Hf3 O15 2.066658 1_555
Hf3 O16 2.088538 1_555
Hf3 O53 2.089756 1_555
Hf3 O52 2.124904 1_555
Hf4 O25 1.954751 1_554
Hf4 O60 1.999282 1_555
Hf4 O24 2.055293 1_554
Hf4 O26 2.092590 1_554
Hf4 O61 2.097641 1_555
Hf4 O62 2.123844 1_555
Hf5 O28 1.954751 1_555
Hf5 O65 1.999282 1_555
Hf5 O29 2.055293 1_555
Hf5 O27 2.092590 1_555
Hf5 O64 2.097641 1_555
Hf5 O63 2.123844 1_555
Nb0 O8 1.935272 1_555
Nb0 O42 1.973911 1_465
Nb0 O6 2.028450 1_455
Nb0 O7 2.030641 1_565
Nb0 O43 2.054027 1_565
Nb0 O44 2.062468 1_455
Nb1 O9 1.935272 1_555
Nb1 O47 1.973911 1_665
Nb1 O11 2.028450 1_655
Nb1 O10 2.030641 1_665
Nb1 O46 2.054027 1_565
Nb1 O45 2.062468 1_555
Nb2 O18 1.931662 1_556
Nb2 O55 1.979559 1_555
Nb2 O20 2.025921 1_556
Nb2 O19 2.041563 1_556
Nb2 O54 2.053244 1_555
Nb2 O56 2.053460 1_555
Nb3 O23 1.931662 1_555
Nb3 O58 1.979558 1_555
Nb3 O21 2.025921 1_555
Nb3 O22 2.041563 1_555
Nb3 O59 2.053244 1_555
Nb3 O57 2.053460 1_555
Nb4 O32 1.896847 1_555
Nb4 O67 1.935930 1_555
Nb4 O31 2.033286 1_555
Nb4 O68 2.059974 1_555
Nb4 O30 2.081462 1_555
Nb4 O66 2.106334 1_555
Nb5 O33 1.896847 1_555
Nb5 O70 1.935930 1_555
Nb5 O34 2.033286 1_555
Nb5 O69 2.059974 1_555
Nb5 O35 2.081462 1_555
Nb5 O71 2.106334 1_555
O0 P0 1.525982 1_545
O1 Si0 1.598744 1_555
O2 P1 1.522533 1_655
O3 P2 1.522533 1_555
O4 Si1 1.598744 1_555
O5 P3 1.525982 1_545
O6 P3 1.567668 1_555
O7 P2 1.567531 1_555
O8 Si1 1.659221 1_455
O9 Si0 1.659221 1_555
O10 P1 1.567531 1_555
O11 P0 1.567668 1_555
O12 Si2 1.604991 1_555
O13 P4 1.519619 1_555
O14 P5 1.525869 1_555
O15 P6 1.525869 1_555
O16 P7 1.519619 1_555
O17 Si3 1.604991 1_555
O18 Si3 1.663961 1_555
O19 P6 1.561895 1_555
O20 P7 1.568930 1_555
O21 P4 1.568930 1_555
O22 P5 1.561895 1_555
O23 Si2 1.663961 1_555
O24 P8 1.529135 1_555
O25 Si4 1.603083 1_555
O26 P9 1.520929 1_555
O27 P10 1.520929 1_555
O28 Si5 1.603083 1_555
O29 P11 1.529135 1_555
O30 P11 1.553823 1_555
O31 P10 1.567192 1_555
O32 Si5 1.680774 1_555
O33 Si4 1.680774 1_555
O34 P9 1.567192 1_555
O35 P8 1.553823 1_555
O36 P11 1.534616 1_555
O37 P10 1.531799 1_555
O38 Si5 1.604037 1_555
O39 Si4 1.604040 1_555
O40 P9 1.531790 1_555
O41 P8 1.534621 1_555
O42 Si2 1.650013 1_555
O43 P4 1.565623 1_555
O44 P5 1.563570 1_555
O45 P6 1.563574 1_555
O46 P7 1.565615 1_555
O47 Si3 1.650018 1_555
O48 P3 1.536529 1_545
O49 P2 1.530431 1_555
O50 Si1 1.610816 1_555
O51 Si0 1.610819 1_555
O52 P1 1.530422 1_655
O53 P0 1.536534 1_545
O54 P8 1.566050 1_555
O55 Si4 1.646963 1_655
O56 P9 1.565842 1_545
O57 P10 1.565835 1_545
O58 Si5 1.646980 1_555
O59 P11 1.566040 1_655
O60 Si3 1.612514 1_555
O61 P6 1.534674 1_455
O62 P7 1.529972 1_565
O63 P4 1.529965 1_565
O64 P5 1.534692 1_555
O65 Si2 1.612504 1_455
O66 P0 1.552792 1_555
O67 Si0 1.667637 1_555
O68 P1 1.564088 1_555
O69 P2 1.564091 1_555
O70 Si1 1.667628 1_455
O71 P3 1.552797 1_555
