# generated using pymatgen
data_Er4MgTi2O10
_symmetry_space_group_name_H-M   'P 1'
_cell_length_a   3.89456978
_cell_length_b   5.91341922
_cell_length_c   11.59486322
_cell_angle_alpha   78.83377259
_cell_angle_beta   89.99999788
_cell_angle_gamma   70.77373748
_symmetry_Int_Tables_number   1
_chemical_formula_structural   Er4MgTi2O10
_chemical_formula_sum   'Er4 Mg1 Ti2 O10'
_cell_volume   246.77875459
_cell_formula_units_Z   1
loop_
 _symmetry_equiv_pos_site_id
 _symmetry_equiv_pos_as_xyz
  1  'x, y, z'
loop_
 _atom_site_type_symbol
 _atom_site_label
 _atom_site_symmetry_multiplicity
 _atom_site_fract_x
 _atom_site_fract_y
 _atom_site_fract_z
 _atom_site_occupancy
  Er  Er0  1  0.17844920  0.64310161  0.88190886  1
  Er  Er1  1  0.14948268  0.70103465  0.55887392  1
  Er  Er2  1  0.82155080  0.35689839  0.11809114  1
  Er  Er3  1  0.85051732  0.29896535  0.44112608  1
  Mg  Mg0  1  0.50000000  -0.00000000  0.00000000  1
  Ti  Ti0  1  0.13437302  0.73125396  0.26742458  1
  Ti  Ti1  1  0.86562698  0.26874604  0.73257542  1
  O  O0  1  0.02292343  0.95415413  0.37672789  1
  O  O1  1  0.02612104  0.94775892  0.12185860  1
  O  O2  1  0.66495768  0.67008763  0.96505228  1
  O  O3  1  0.72875151  0.54249997  0.57791910  1
  O  O4  1  0.29572324  0.40855252  0.74708945  1
  O  O5  1  0.70427676  0.59144748  0.25291055  1
  O  O6  1  0.33504232  0.32991237  0.03494772  1
  O  O7  1  0.27124849  0.45750003  0.42208090  1
  O  O8  1  0.97707657  0.04584587  0.62327211  1
  O  O9  1  0.97387896  0.05224108  0.87814140  1
loop_
_geom_bond_atom_site_label_1
_geom_bond_atom_site_label_2
_geom_bond_distance
_geom_bond_site_symmetry_2
Er0 O2 2.191700 1_455
Er0 O2 2.191711 1_555
Er0 O6 2.221243 1_556
Er0 O4 2.235736 1_555
Er0 O9 2.275914 1_465
Er1 O3 2.131677 1_455
Er1 O3 2.131688 1_555
Er1 O8 2.203171 1_465
Er1 O0 2.287678 1_555
Er1 O7 2.291167 1_555
Er1 O4 2.442887 1_555
Er2 O6 2.191700 1_655
Er2 O6 2.191711 1_555
Er2 O2 2.221243 1_554
Er2 O5 2.235736 1_555
Er2 O1 2.275914 1_645
Er3 O7 2.131677 1_655
Er3 O7 2.131688 1_555
Er3 O0 2.203171 1_645
Er3 O8 2.287678 1_555
Er3 O3 2.291167 1_555
Er3 O5 2.442887 1_555
Mg0 O2 1.965633 1_544
Mg0 O6 1.965633 1_555
Mg0 O1 2.388372 1_545
Mg0 O9 2.388372 1_554
Mg0 O1 2.388375 1_645
Mg0 O9 2.388375 1_454
O0 Ti0 1.949922 1_555
O1 Ti0 1.863646 1_555
O3 Ti1 2.104214 1_555
O4 Ti1 2.117426 1_455
O4 Ti1 2.117429 1_555
O5 Ti0 2.117426 1_655
O5 Ti0 2.117429 1_555
O7 Ti0 2.104214 1_555
O8 Ti1 1.949922 1_555
O9 Ti1 1.863646 1_555
