# generated using pymatgen
data_MgTl2(FeO2)2
_symmetry_space_group_name_H-M   'P 1'
_cell_length_a   6.53306916
_cell_length_b   6.53306975
_cell_length_c   6.53306935
_cell_angle_alpha   52.44097655
_cell_angle_beta   52.44097552
_cell_angle_gamma   52.44097833
_symmetry_Int_Tables_number   1
_chemical_formula_structural   MgTl2(FeO2)2
_chemical_formula_sum   'Mg1 Tl2 Fe2 O4'
_cell_volume   162.17341820
_cell_formula_units_Z   1
loop_
 _symmetry_equiv_pos_site_id
 _symmetry_equiv_pos_as_xyz
  1  'x, y, z'
loop_
 _atom_site_type_symbol
 _atom_site_label
 _atom_site_symmetry_multiplicity
 _atom_site_fract_x
 _atom_site_fract_y
 _atom_site_fract_z
 _atom_site_occupancy
  Mg  Mg0  1  0.00000000  0.00000000  0.00000000  1
  Tl  Tl0  1  0.80195800  0.80195800  0.80195800  1
  Tl  Tl1  1  0.19804200  0.19804200  0.19804200  1
  Fe  Fe0  1  0.38862300  0.38862300  0.38862300  1
  Fe  Fe1  1  0.61137700  0.61137700  0.61137700  1
  O  O0  1  0.50000000  0.00000000  0.50000000  1
  O  O1  1  0.00000000  0.50000000  0.50000000  1
  O  O2  1  0.50000000  0.50000000  0.50000000  1
  O  O3  1  0.50000000  0.50000000  0.00000000  1
loop_
_geom_bond_atom_site_label_1
_geom_bond_atom_site_label_2
_geom_bond_distance
_geom_bond_site_symmetry_2
Mg0 Tl1 3.338329 1_555
Mg0 Tl0 3.338329 1_444
Fe0 O2 1.877446 1_555
Fe0 O1 1.909421 1_555
Fe0 O3 1.909421 1_555
Fe0 O0 1.909421 1_555
Fe1 O2 1.877446 1_555
Fe1 O1 1.909421 1_655
Fe1 O3 1.909421 1_556
Fe1 O0 1.909421 1_565
O0 Tl0 2.824575 1_545
O0 Tl1 2.824575 1_555
O1 Tl0 2.824576 1_455
O1 Tl1 2.824576 1_555
O3 Tl0 2.824575 1_554
O3 Tl1 2.824575 1_555
