# generated using pymatgen
data_Li2PWO4F
_symmetry_space_group_name_H-M   'P 1'
_cell_length_a   5.31483700
_cell_length_b   5.96664052
_cell_length_c   7.76032705
_cell_angle_alpha   73.45003124
_cell_angle_beta   75.90576386
_cell_angle_gamma   82.64792048
_symmetry_Int_Tables_number   1
_chemical_formula_structural   Li2PWO4F
_chemical_formula_sum   'Li4 P2 W2 O8 F2'
_cell_volume   228.34181326
_cell_formula_units_Z   2
loop_
 _symmetry_equiv_pos_site_id
 _symmetry_equiv_pos_as_xyz
  1  'x, y, z'
loop_
 _atom_site_type_symbol
 _atom_site_label
 _atom_site_symmetry_multiplicity
 _atom_site_fract_x
 _atom_site_fract_y
 _atom_site_fract_z
 _atom_site_occupancy
  Li  Li0  1  0.54709100  0.91426000  0.14097400  1
  Li  Li1  1  0.83785900  0.58532400  0.99277400  1
  Li  Li2  1  0.12105000  0.03052100  0.38414100  1
  Li  Li3  1  0.68611700  0.96293000  0.67976400  1
  P  P0  1  0.60958100  0.33436900  0.30128600  1
  P  P1  1  0.32182700  0.68545600  0.72695600  1
  W  W0  1  0.04207200  0.15731400  0.90469600  1
  W  W1  1  0.96595200  0.45581600  0.53125300  1
  O  O0  1  0.77594600  0.20196700  0.44893600  1
  O  O1  1  0.15863400  0.73205400  0.57566900  1
  O  O2  1  0.61489900  0.63624300  0.65211100  1
  O  O3  1  0.20413900  0.48575600  0.89680200  1
  O  O4  1  0.66674000  0.59332200  0.24454400  1
  O  O5  1  0.31710100  0.91718600  0.78209000  1
  O  O6  1  0.31919900  0.28733000  0.38364500  1
  O  O7  1  0.70294800  0.23641700  0.12679600  1
  F  F0  1  0.78358700  0.90366100  0.91034100  1
  F  F1  1  0.19363100  0.96654100  0.15863200  1
loop_
_geom_bond_atom_site_label_1
_geom_bond_atom_site_label_2
_geom_bond_distance
_geom_bond_site_symmetry_2
Li0 O4 1.943644 1_555
Li0 O7 2.153078 1_565
Li1 O4 1.955350 1_556
Li1 O3 1.986778 1_655
Li1 O7 2.171419 1_556
Li2 O6 1.965875 1_555
Li2 O1 1.991498 1_545
Li2 O0 2.006769 1_455
Li3 O0 1.942455 1_565
Li3 O5 1.951056 1_555
Li3 O2 2.110803 1_555
O0 P0 1.586746 1_555
O0 W1 2.231329 1_555
O1 P1 1.567231 1_555
O1 W1 2.193557 1_455
O2 P1 1.545726 1_555
O2 W1 2.174546 1_555
O3 P1 1.562938 1_555
O3 W0 2.219013 1_555
O4 P0 1.529979 1_555
O5 P1 1.555093 1_555
O5 W0 2.158242 1_565
O6 P0 1.548353 1_555
O6 W1 2.230059 1_455
O7 P0 1.571871 1_555
O7 W0 2.274817 1_654
F0 Li1 1.832370 1_555
F0 Li3 1.907690 1_555
F0 Li0 1.932799 1_556
F0 W0 2.155194 1_665
F1 Li2 1.836094 1_565
F1 Li0 1.842323 1_555
F1 W0 2.255752 1_564
