# generated using pymatgen
data_Na3ScZnP2SO12
_symmetry_space_group_name_H-M   'P 1'
_cell_length_a   9.00675772
_cell_length_b   9.03047509
_cell_length_c   22.18333872
_cell_angle_alpha   89.33658449
_cell_angle_beta   90.00000000
_cell_angle_gamma   119.91315834
_symmetry_Int_Tables_number   1
_chemical_formula_structural   Na3ScZnP2SO12
_chemical_formula_sum   'Na18 Sc6 Zn6 P12 S6 O72'
_cell_volume   1563.78573175
_cell_formula_units_Z   6
loop_
 _symmetry_equiv_pos_site_id
 _symmetry_equiv_pos_as_xyz
  1  'x, y, z'
loop_
 _atom_site_type_symbol
 _atom_site_label
 _atom_site_symmetry_multiplicity
 _atom_site_fract_x
 _atom_site_fract_y
 _atom_site_fract_z
 _atom_site_occupancy
  Na  Na0  1  0.35957472  0.35443595  0.24486085  1
  Na  Na1  1  0.99684854  0.62990009  0.24342439  1
  Na  Na2  1  0.63305155  0.62990009  0.74342439  1
  Na  Na3  1  0.99486123  0.35443595  0.74486085  1
  Na  Na4  1  0.02624172  0.68776895  0.57819385  1
  Na  Na5  1  0.66351554  0.96323309  0.57675739  1
  Na  Na6  1  0.29971855  0.96323309  0.07675739  1
  Na  Na7  1  0.66152823  0.68776895  0.07819385  1
  Na  Na8  1  0.69290772  0.02110295  0.91152785  1
  Na  Na9  1  0.33018154  0.29656709  0.91009139  1
  Na  Na10  1  0.96638455  0.29656709  0.41009139  1
  Na  Na11  1  0.32819423  0.02110295  0.41152785  1
  Na  Na12  1  0.97762338  0.98118911  0.49352600  1
  Na  Na13  1  0.00356573  0.98118911  0.99352600  1
  Na  Na14  1  0.64429038  0.31452211  0.82685900  1
  Na  Na15  1  0.67023273  0.31452211  0.32685900  1
  Na  Na16  1  0.31095638  0.64785611  0.16019300  1
  Na  Na17  1  0.33689873  0.64785611  0.66019300  1
  Sc  Sc0  1  0.00481701  0.01435750  0.64951212  1
  Sc  Sc1  1  0.00954049  0.01435750  0.14951212  1
  Sc  Sc2  1  0.67148401  0.34769050  0.98284512  1
  Sc  Sc3  1  0.67620749  0.34769050  0.48284512  1
  Sc  Sc4  1  0.33815001  0.68102450  0.31617912  1
  Sc  Sc5  1  0.34287349  0.68102450  0.81617912  1
  Zn  Zn0  1  0.98795738  0.99327791  0.34702048  1
  Zn  Zn1  1  0.00532053  0.99327791  0.84702048  1
  Zn  Zn2  1  0.65462438  0.32661091  0.68035348  1
  Zn  Zn3  1  0.67198753  0.32661091  0.18035348  1
  Zn  Zn4  1  0.32129038  0.65994491  0.01368748  1
  Zn  Zn5  1  0.33865353  0.65994491  0.51368748  1
  P  P0  1  0.30054666  0.00546898  0.25135693  1
  P  P1  1  0.99982559  0.29909512  0.25458201  1
  P  P2  1  0.29926953  0.29909512  0.75458201  1
  P  P3  1  0.70492232  0.00546898  0.75135693  1
  P  P4  1  0.96721366  0.33880198  0.58468993  1
  P  P5  1  0.66649259  0.63242812  0.58791501  1
  P  P6  1  0.96593653  0.63242812  0.08791501  1
  P  P7  1  0.37158932  0.33880198  0.08468993  1
  P  P8  1  0.63387966  0.67213598  0.91802393  1
  P  P9  1  0.33315859  0.96576212  0.92124901  1
  P  P10  1  0.63260253  0.96576212  0.42124901  1
  P  P11  1  0.03825532  0.67213598  0.41802393  1
  S  S0  1  0.70030970  0.70202323  0.24931058  1
  S  S1  1  0.00171353  0.70202323  0.74931058  1
  S  S2  1  0.36697670  0.03535623  0.58264358  1
  S  S3  1  0.66838053  0.03535623  0.08264358  1
  S  S4  1  0.03364270  0.36869023  0.91597758  1
  S  S5  1  0.33504653  0.36869023  0.41597758  1
  O  O0  1  0.21593801  0.02723580  0.30845190  1
  O  O1  1  0.80664057  0.78789087  0.30204291  1
  O  O2  1  0.98349080  0.20373752  0.31426784  1
  O  O3  1  0.22024672  0.20373752  0.81426784  1
  O  O4  1  0.98125030  0.78789087  0.80204291  1
  O  O5  1  0.81129779  0.02723580  0.80845190  1
  O  O6  1  0.79477264  0.97901388  0.69544813  1
  O  O7  1  0.18051232  0.19968957  0.70121964  1
  O  O8  1  0.01985461  0.79932591  0.69257797  1
  O  O9  1  0.77947129  0.79932591  0.19257797  1
  O  O10  1  0.01917725  0.19968957  0.20121964  1
  O  O11  1  0.18424124  0.97901388  0.19544813  1
  O  O12  1  0.88260501  0.36056880  0.64178490  1
  O  O13  1  0.47330757  0.12122387  0.63537591  1
  O  O14  1  0.65015780  0.53707052  0.64760084  1
  O  O15  1  0.88691372  0.53707052  0.14760084  1
  O  O16  1  0.64791730  0.12122387  0.13537591  1
  O  O17  1  0.47796479  0.36056880  0.14178490  1
  O  O18  1  0.46143964  0.31234688  0.02878113  1
  O  O19  1  0.84717932  0.53302257  0.03455264  1
  O  O20  1  0.68652161  0.13265891  0.02591097  1
  O  O21  1  0.44613829  0.13265891  0.52591097  1
  O  O22  1  0.68584425  0.53302257  0.53455264  1
  O  O23  1  0.85090824  0.31234688  0.52878113  1
  O  O24  1  0.54927101  0.69390280  0.97511890  1
  O  O25  1  0.13997357  0.45455787  0.96870991  1
  O  O26  1  0.31682380  0.87040452  0.98093484  1
  O  O27  1  0.55357972  0.87040452  0.48093484  1
  O  O28  1  0.31458330  0.45455787  0.46870991  1
  O  O29  1  0.14463079  0.69390280  0.47511890  1
  O  O30  1  0.12810564  0.64568088  0.36211513  1
  O  O31  1  0.51384532  0.86635657  0.36788664  1
  O  O32  1  0.35318761  0.46599291  0.35924497  1
  O  O33  1  0.11280429  0.46599291  0.85924497  1
  O  O34  1  0.35251025  0.86635657  0.86788664  1
  O  O35  1  0.51757424  0.64568088  0.86211513  1
  O  O36  1  0.02212257  0.83329227  0.41094667  1
  O  O37  1  0.81668513  0.99807796  0.41472353  1
  O  O38  1  0.18107931  0.19533232  0.41458999  1
  O  O39  1  0.01425302  0.19533232  0.91458999  1
  O  O40  1  0.18139283  0.99807796  0.91472353  1
  O  O41  1  0.81116969  0.83329227  0.91094667  1
  O  O42  1  0.97846575  0.17171155  0.58783268  1
  O  O43  1  0.19192729  0.01362058  0.58704827  1
  O  O44  1  0.83719446  0.81132388  0.58725711  1
  O  O45  1  0.97412942  0.81132388  0.08725711  1
  O  O46  1  0.82169329  0.01362058  0.08704827  1
  O  O47  1  0.19324580  0.17171155  0.08783268  1
  O  O48  1  0.68878957  0.16662527  0.74427967  1
  O  O49  1  0.48335213  0.33141096  0.74805653  1
  O  O50  1  0.84774631  0.52866532  0.74792299  1
  O  O51  1  0.68092002  0.52866532  0.24792299  1
  O  O52  1  0.84805983  0.33141096  0.24805653  1
  O  O53  1  0.47783669  0.16662527  0.24427967  1
  O  O54  1  0.64513275  0.50504455  0.92116568  1
  O  O55  1  0.85859429  0.34695358  0.92038127  1
  O  O56  1  0.50386146  0.14465688  0.92059011  1
  O  O57  1  0.64079642  0.14465688  0.42059011  1
  O  O58  1  0.48836029  0.34695358  0.42038127  1
  O  O59  1  0.85991280  0.50504455  0.42116568  1
  O  O60  1  0.35545557  0.49995927  0.07761367  1
  O  O61  1  0.15001813  0.66474496  0.08139053  1
  O  O62  1  0.51441231  0.86199932  0.08125699  1
  O  O63  1  0.34758602  0.86199932  0.58125699  1
  O  O64  1  0.51472583  0.66474496  0.58139053  1
  O  O65  1  0.14450269  0.49995927  0.57761367  1
  O  O66  1  0.31179875  0.83837855  0.25449968  1
  O  O67  1  0.52526029  0.68028758  0.25371527  1
  O  O68  1  0.17052746  0.47799088  0.25392411  1
  O  O69  1  0.30746242  0.47799088  0.75392411  1
  O  O70  1  0.15502629  0.68028758  0.75371527  1
  O  O71  1  0.52657880  0.83837855  0.75449968  1
loop_
_geom_bond_atom_site_label_1
_geom_bond_atom_site_label_2
_geom_bond_distance
_geom_bond_site_symmetry_2
Na0 O53 2.411119 1_555
Na0 O68 2.466688 1_555
Na0 O17 2.511304 1_555
Na0 O51 2.513488 1_555
Na0 O67 2.560876 1_555
Na0 O32 2.752035 1_555
Na0 O10 2.836878 1_555
Na0 O0 2.912943 1_555
Na1 O15 2.327035 1_555
Na1 O52 2.337301 1_555
Na1 O66 2.517093 1_655
Na1 O51 2.519110 1_555
Na1 O68 2.552640 1_655
Na1 O30 2.861997 1_655
Na1 O11 2.921617 1_655
Na1 O1 3.023599 1_555
Na2 O14 2.327037 1_555
Na2 O49 2.337301 1_555
Na2 O71 2.517100 1_555
Na2 O50 2.519119 1_555
Na2 O69 2.552648 1_555
Na2 O35 2.862001 1_555
Na2 O6 2.921617 1_555
Na2 O4 3.023599 1_555
Na3 O48 2.411112 1_555
Na3 O69 2.466680 1_655
Na3 O12 2.511301 1_555
Na3 O50 2.513481 1_555
Na3 O70 2.560877 1_655
Na3 O33 2.752033 1_655
Na3 O7 2.836878 1_655
Na3 O5 2.912943 1_555
Na4 O65 2.411104 1_555
Na4 O44 2.466688 1_455
Na4 O29 2.511279 1_555
Na4 O63 2.513482 1_555
Na4 O43 2.560876 1_565
Na4 O8 2.752035 1_555
Na4 O22 2.836878 1_455
Na4 O12 2.912943 1_455
Na5 O27 2.327015 1_555
Na5 O64 2.337294 1_555
Na5 O42 2.517093 1_565
Na5 O63 2.519121 1_555
Na5 O44 2.552640 1_555
Na5 O6 2.861997 1_555
Na5 O23 2.921617 1_565
Na5 O13 3.023599 1_565
Na6 O26 2.327011 1_554
Na6 O61 2.337294 1_555
Na6 O47 2.517100 1_565
Na6 O62 2.519104 1_555
Na6 O45 2.552648 1_455
Na6 O11 2.862001 1_555
Na6 O18 2.921617 1_565
Na6 O16 3.023599 1_565
Na7 O60 2.411118 1_555
Na7 O45 2.466680 1_555
Na7 O24 2.511286 1_554
Na7 O62 2.513497 1_555
Na7 O46 2.560877 1_565
Na7 O9 2.752033 1_555
Na7 O19 2.836878 1_555
Na7 O17 2.912943 1_555
Na8 O41 2.411119 1_545
Na8 O56 2.466671 1_555
Na8 O5 2.511304 1_555
Na8 O39 2.513488 1_655
Na8 O55 2.560867 1_555
Na8 O20 2.752009 1_556
Na8 O34 2.836878 1_545
Na8 O24 2.912943 1_545
Na9 O3 2.327035 1_555
Na9 O40 2.337301 1_545
Na9 O54 2.517096 1_555
Na9 O39 2.519110 1_555
Na9 O56 2.552654 1_555
Na9 O18 2.861982 1_556
Na9 O35 2.921617 1_555
Na9 O25 3.023599 1_555
Na10 O2 2.327037 1_555
Na10 O37 2.337301 1_545
Na10 O59 2.517082 1_555
Na10 O38 2.519119 1_655
Na10 O57 2.552638 1_555
Na10 O23 2.861975 1_555
Na10 O30 2.921617 1_655
Na10 O28 3.023599 1_655
Na11 O36 2.411112 1_545
Na11 O57 2.466688 1_555
Na11 O0 2.511301 1_555
Na11 O38 2.513481 1_555
Na11 O58 2.560867 1_555
Na11 O21 2.752012 1_555
Na11 O31 2.836878 1_545
Na11 O29 2.912943 1_545
Na12 O37 2.322624 1_555
Na12 O36 2.427087 1_655
Na12 O44 2.503440 1_555
Na12 O38 2.559504 1_665
Na12 O42 2.721609 1_565
Na12 O43 2.750592 1_665
Na13 O40 2.322624 1_555
Na13 O41 2.427087 1_455
Na13 O45 2.503440 1_456
Na13 O39 2.559504 1_565
Na13 O47 2.721609 1_566
Na13 O46 2.750592 1_466
Na14 O49 2.322624 1_555
Na14 O48 2.427087 1_555
Na14 O56 2.503440 1_555
Na14 O50 2.559504 1_555
Na14 O54 2.721609 1_555
Na14 O55 2.750592 1_555
Na15 O52 2.322624 1_555
Na15 O53 2.427087 1_555
Na15 O57 2.503440 1_555
Na15 O51 2.559504 1_555
Na15 O59 2.721609 1_555
Na15 O58 2.750592 1_555
Na16 O61 2.322624 1_555
Na16 O60 2.427087 1_555
Na16 O68 2.503440 1_555
Na16 O62 2.559504 1_555
Na16 O66 2.721609 1_555
Na16 O67 2.750592 1_555
Na17 O64 2.322624 1_555
Na17 O65 2.427087 1_555
Na17 O69 2.503440 1_555
Na17 O63 2.559504 1_555
Na17 O71 2.721609 1_555
Na17 O70 2.750592 1_555
O0 P0 1.542300 1_555
O0 Zn0 2.099588 1_445
O1 S0 1.472136 1_555
O1 Zn0 2.030860 1_555
O2 P1 1.537360 1_555
O2 Zn0 2.045943 1_545
O3 P2 1.537360 1_555
O3 Zn1 2.045943 1_545
O4 S1 1.472136 1_655
O4 Zn1 2.030860 1_655
O5 P3 1.542300 1_555
O5 Zn1 2.099588 1_645
O6 P3 1.565206 1_565
O6 Sc0 2.027185 1_665
O7 P2 1.555038 1_555
O7 Sc0 2.005961 1_555
O8 S1 1.487904 1_555
O8 Sc0 2.218358 1_565
O9 S0 1.487904 1_555
O9 Sc1 2.218358 1_665
O10 P1 1.555038 1_455
O10 Sc1 2.005961 1_555
O11 P0 1.565206 1_565
O11 Sc1 2.027185 1_565
O12 P4 1.542300 1_555
O12 Zn2 2.099588 1_555
O13 S2 1.472136 1_555
O13 Zn2 2.030860 1_555
O14 P5 1.537360 1_555
O14 Zn2 2.045943 1_555
O15 P6 1.537360 1_555
O15 Zn3 2.045943 1_555
O16 S3 1.472136 1_555
O16 Zn3 2.030860 1_555
O17 P7 1.542300 1_555
O17 Zn3 2.099588 1_555
O18 P7 1.565206 1_555
O18 Sc2 2.027185 1_554
O19 P6 1.555038 1_555
O19 Sc2 2.005961 1_554
O20 S3 1.487904 1_555
O20 Sc2 2.218358 1_554
O21 S2 1.487904 1_555
O21 Sc3 2.218358 1_555
O22 P5 1.555038 1_555
O22 Sc3 2.005961 1_555
O23 P4 1.565206 1_555
O23 Sc3 2.027185 1_555
O24 P8 1.542300 1_555
O24 Zn4 2.099588 1_556
O25 S4 1.472136 1_555
O25 Zn4 2.030860 1_556
O26 P9 1.537360 1_555
O26 Zn4 2.045943 1_556
O27 P10 1.537360 1_555
O27 Zn5 2.045943 1_555
O28 S5 1.472136 1_555
O28 Zn5 2.030860 1_555
O29 P11 1.542300 1_555
O29 Zn5 2.099588 1_555
O30 P11 1.565206 1_555
O30 Sc4 2.027185 1_555
O31 P10 1.555038 1_555
O31 Sc4 2.005961 1_555
O32 S5 1.487904 1_555
O32 Sc4 2.218358 1_555
O33 S4 1.487904 1_555
O33 Sc5 2.218358 1_555
O34 P9 1.555038 1_555
O34 Sc5 2.005961 1_555
O35 P8 1.565206 1_555
O35 Sc5 2.027185 1_555
O36 P11 1.539262 1_555
O36 Zn0 2.142182 1_455
O37 P10 1.539963 1_555
O37 Zn0 2.169184 1_555
O38 S5 1.486834 1_555
O38 Zn0 2.345098 1_445
O39 S4 1.486838 1_555
O39 Zn1 2.345098 1_545
O40 P9 1.539954 1_555
O40 Zn1 2.169184 1_555
O41 P8 1.539267 1_555
O41 Zn1 2.142182 1_655
O42 P4 1.562693 1_555
O42 Sc0 2.058881 1_655
O43 S2 1.491554 1_555
O43 Sc0 2.184394 1_555
O44 P5 1.579901 1_555
O44 Sc0 2.201371 1_665
O45 P6 1.579905 1_555
O45 Sc1 2.201371 1_665
O46 S3 1.491545 1_555
O46 Sc1 2.184394 1_655
O47 P7 1.562698 1_555
O47 Sc1 2.058881 1_555
O48 P3 1.539262 1_555
O48 Zn2 2.142182 1_555
O49 P2 1.539963 1_555
O49 Zn2 2.169184 1_555
O50 S1 1.486834 1_655
O50 Zn2 2.345098 1_555
O51 S0 1.486838 1_555
O51 Zn3 2.345098 1_555
O52 P1 1.539954 1_555
O52 Zn3 2.169184 1_555
O53 P0 1.539267 1_555
O53 Zn3 2.142182 1_555
O54 P8 1.562707 1_555
O54 Sc2 2.058881 1_555
O55 S4 1.491540 1_655
O55 Sc2 2.184394 1_555
O56 P9 1.579900 1_545
O56 Sc2 2.201371 1_555
O57 P10 1.579891 1_545
O57 Sc3 2.201371 1_555
O58 S5 1.491558 1_555
O58 Sc3 2.184394 1_555
O59 P11 1.562697 1_655
O59 Sc3 2.058881 1_555
O60 P7 1.539274 1_555
O60 Zn4 2.142182 1_555
O61 P6 1.539949 1_455
O61 Zn4 2.169184 1_555
O62 S3 1.486832 1_565
O62 Zn4 2.345098 1_555
O63 S2 1.486824 1_565
O63 Zn5 2.345098 1_555
O64 P5 1.539967 1_555
O64 Zn5 2.169184 1_555
O65 P4 1.539264 1_455
O65 Zn5 2.142182 1_555
O66 P0 1.562693 1_565
O66 Sc4 2.058881 1_555
O67 S0 1.491554 1_555
O67 Sc4 2.184394 1_555
O68 P1 1.579901 1_455
O68 Sc4 2.201371 1_555
O69 P2 1.579905 1_555
O69 Sc5 2.201371 1_555
O70 S1 1.491545 1_555
O70 Sc5 2.184394 1_555
O71 P3 1.562698 1_565
O71 Sc5 2.058881 1_555
