# generated using pymatgen
data_Na2MgTi3Si2(SO6)4
_symmetry_space_group_name_H-M   'P 1'
_cell_length_a   8.69610953
_cell_length_b   8.67893913
_cell_length_c   22.53782658
_cell_angle_alpha   89.30796228
_cell_angle_beta   90.10135767
_cell_angle_gamma   119.95218044
_symmetry_Int_Tables_number   1
_chemical_formula_structural   Na2MgTi3Si2(SO6)4
_chemical_formula_sum   'Na6 Mg3 Ti9 Si6 S12 O72'
_cell_volume   1473.69104210
_cell_formula_units_Z   3
loop_
 _symmetry_equiv_pos_site_id
 _symmetry_equiv_pos_as_xyz
  1  'x, y, z'
loop_
 _atom_site_type_symbol
 _atom_site_label
 _atom_site_symmetry_multiplicity
 _atom_site_fract_x
 _atom_site_fract_y
 _atom_site_fract_z
 _atom_site_occupancy
  Na  Na0  1  0.99197186  0.99174103  0.50589554  1
  Na  Na1  1  0.01624706  0.01115447  0.00183496  1
  Na  Na2  1  0.67116080  0.32608887  0.83440269  1
  Na  Na3  1  0.66346122  0.32064614  0.33458452  1
  Na  Na4  1  0.33466511  0.66492805  0.16536865  1
  Na  Na5  1  0.34738458  0.67361540  0.67063222  1
  Mg  Mg0  1  0.98357736  0.98828062  0.64561268  1
  Mg  Mg1  1  0.00810163  0.00753732  0.14493118  1
  Mg  Mg2  1  0.33806502  0.67523283  0.31522044  1
  Ti  Ti0  1  0.98808384  0.99932730  0.35462241  1
  Ti  Ti1  1  0.99688556  0.01795928  0.85628592  1
  Ti  Ti2  1  0.66374344  0.33469530  0.69038751  1
  Ti  Ti3  1  0.65409459  0.33441031  0.18319729  1
  Ti  Ti4  1  0.65075318  0.31810430  0.97538626  1
  Ti  Ti5  1  0.67281556  0.33767081  0.48141586  1
  Ti  Ti6  1  0.31776968  0.65092934  0.01845084  1
  Ti  Ti7  1  0.35907417  0.67666517  0.52169625  1
  Ti  Ti8  1  0.33368410  0.68395006  0.81549889  1
  Si  Si0  1  0.70875029  0.99608039  0.74771777  1
  Si  Si1  1  0.67469379  0.62425058  0.58335749  1
  Si  Si2  1  0.37179085  0.33518880  0.07991288  1
  Si  Si3  1  0.04207984  0.38335961  0.91592559  1
  Si  Si4  1  0.32180814  0.94943801  0.91805188  1
  Si  Si5  1  0.62014918  0.96193025  0.41403085  1
  S  S0  1  0.28863360  0.99908632  0.24910109  1
  S  S1  1  0.71187538  0.70993911  0.24873209  1
  S  S2  1  0.00072285  0.29201965  0.24965399  1
  S  S3  1  0.28704440  0.28948706  0.74887789  1
  S  S4  1  0.00028891  0.71143999  0.74952444  1
  S  S5  1  0.95837526  0.33910355  0.58317856  1
  S  S6  1  0.37989220  0.04546859  0.58344676  1
  S  S7  1  0.95155687  0.61896349  0.08328197  1
  S  S8  1  0.66518040  0.04577718  0.08393999  1
  S  S9  1  0.62051537  0.66725808  0.91670417  1
  S  S10  1  0.33260837  0.37541893  0.41626761  1
  S  S11  1  0.04546705  0.66812605  0.41607917  1
  O  O0  1  0.20808240  0.02713609  0.30357512  1
  O  O1  1  0.82225864  0.79674449  0.30350120  1
  O  O2  1  0.97644132  0.17605914  0.30473124  1
  O  O3  1  0.20710712  0.17886519  0.80352509  1
  O  O4  1  0.97379323  0.78973729  0.80285933  1
  O  O5  1  0.83400177  0.02844692  0.80776949  1
  O  O6  1  0.78604644  0.96139953  0.68979258  1
  O  O7  1  0.18590472  0.20760440  0.69550888  1
  O  O8  1  0.03141974  0.81574556  0.69529000  1
  O  O9  1  0.79660785  0.81690395  0.19619613  1
  O  O10  1  0.02272235  0.20857380  0.19754006  1
  O  O11  1  0.18596424  0.98290995  0.19631575  1
  O  O12  1  0.87073706  0.35912798  0.63632994  1
  O  O13  1  0.49063018  0.12085773  0.63691512  1
  O  O14  1  0.64086253  0.49445180  0.64136975  1
  O  O15  1  0.86720865  0.50508915  0.13860296  1
  O  O16  1  0.64539189  0.13900876  0.13752026  1
  O  O17  1  0.50232028  0.36118716  0.14050526  1
  O  O18  1  0.48677977  0.31943219  0.02528340  1
  O  O19  1  0.84977610  0.53366482  0.03023034  1
  O  O20  1  0.69359318  0.15502211  0.02952018  1
  O  O21  1  0.46901628  0.15063089  0.52892982  1
  O  O22  1  0.67954187  0.51103187  0.52554357  1
  O  O23  1  0.84595155  0.31149054  0.52897217  1
  O  O24  1  0.53963075  0.69389724  0.97058580  1
  O  O25  1  0.16757548  0.46551772  0.97565385  1
  O  O26  1  0.30463981  0.82922639  0.97654232  1
  O  O27  1  0.53310091  0.83282966  0.47467454  1
  O  O28  1  0.30123431  0.45515608  0.46983281  1
  O  O29  1  0.15208906  0.69355005  0.46948818  1
  O  O30  1  0.11729714  0.63487584  0.36259377  1
  O  O31  1  0.50741439  0.88130140  0.35691147  1
  O  O32  1  0.35928200  0.48090725  0.36268439  1
  O  O33  1  0.14156565  0.50255158  0.85809342  1
  O  O34  1  0.36572308  0.86720940  0.85954834  1
  O  O35  1  0.51248070  0.63872171  0.86318252  1
  O  O36  1  0.02646663  0.83084760  0.40870544  1
  O  O37  1  0.82205777  0.97938887  0.40586795  1
  O  O38  1  0.17305138  0.19275733  0.41062644  1
  O  O39  1  0.02188695  0.18556055  0.90972038  1
  O  O40  1  0.14754538  0.96573978  0.90729694  1
  O  O41  1  0.79917468  0.82566287  0.91078997  1
  O  O42  1  0.98412403  0.18579578  0.58687739  1
  O  O43  1  0.20787872  0.03499013  0.58862152  1
  O  O44  1  0.84577252  0.81431591  0.58214318  1
  O  O45  1  0.96595163  0.79238874  0.09071559  1
  O  O46  1  0.82041084  0.02489552  0.09109484  1
  O  O47  1  0.18343918  0.16167248  0.08511791  1
  O  O48  1  0.68511417  0.17560503  0.74125186  1
  O  O49  1  0.46914294  0.30559521  0.74515839  1
  O  O50  1  0.83751967  0.52780469  0.74392920  1
  O  O51  1  0.70328106  0.53109864  0.24567208  1
  O  O52  1  0.83563845  0.30420881  0.24704161  1
  O  O53  1  0.47305574  0.16447509  0.24385666  1
  O  O54  1  0.64194307  0.50853428  0.92269826  1
  O  O55  1  0.85010671  0.36561128  0.92625997  1
  O  O56  1  0.50046124  0.14713264  0.92475241  1
  O  O57  1  0.65706146  0.16063369  0.42861900  1
  O  O58  1  0.49027985  0.35214064  0.42409457  1
  O  O59  1  0.86098813  0.51268096  0.42384815  1
  O  O60  1  0.37196238  0.52384664  0.07707614  1
  O  O61  1  0.13131402  0.63496353  0.08099849  1
  O  O62  1  0.49969224  0.87376778  0.08086504  1
  O  O63  1  0.35634099  0.86243113  0.57646944  1
  O  O64  1  0.48483469  0.63077315  0.57531279  1
  O  O65  1  0.13017583  0.50629486  0.57499938  1
  O  O66  1  0.30962283  0.84206882  0.25441541  1
  O  O67  1  0.53175533  0.68081729  0.25555407  1
  O  O68  1  0.15724213  0.46769621  0.25825689  1
  O  O69  1  0.31234801  0.46912414  0.75573588  1
  O  O70  1  0.15596307  0.68228838  0.75574279  1
  O  O71  1  0.50923233  0.82425370  0.76048666  1
loop_
_geom_bond_atom_site_label_1
_geom_bond_atom_site_label_2
_geom_bond_distance
_geom_bond_site_symmetry_2
Na0 O44 2.220259 1_555
Na0 O42 2.522263 1_565
Na0 O43 2.538326 1_665
Na0 O37 2.667018 1_555
Na0 O38 2.704038 1_665
Na0 O36 2.707847 1_655
Na1 O47 2.344484 1_555
Na1 O39 2.540458 1_554
Na1 O40 2.545017 1_544
Na1 O45 2.625053 1_445
Na1 O46 2.679968 1_455
Na1 O41 2.719765 1_444
Na2 O55 2.509572 1_555
Na2 O48 2.520595 1_555
Na2 O56 2.528705 1_555
Na2 O50 2.590517 1_555
Na2 O49 2.616796 1_555
Na2 O54 2.647927 1_555
Na3 O57 2.505077 1_555
Na3 O52 2.526965 1_555
Na3 O53 2.563970 1_555
Na3 O51 2.598864 1_555
Na3 O58 2.616799 1_555
Na3 O59 2.643054 1_555
Na4 O60 2.453962 1_555
Na4 O62 2.510145 1_555
Na4 O61 2.520189 1_555
Na4 O67 2.616555 1_555
Na4 O66 2.617084 1_555
Na4 O68 2.642158 1_555
Na5 O71 2.451069 1_555
Na5 O69 2.510265 1_555
Na5 O70 2.568279 1_555
Na5 O64 2.579590 1_555
Na5 O63 2.642808 1_555
Na5 O65 2.764850 1_555
Mg0 O6 1.896529 1_555
Mg0 O44 2.000322 1_555
Mg0 O8 2.061274 1_655
Mg0 O42 2.151280 1_565
Mg0 O7 2.164265 1_665
Mg0 O43 2.196704 1_665
Mg1 O47 1.964336 1_555
Mg1 O11 2.024103 1_545
Mg1 O10 2.072249 1_555
Mg1 O9 2.092296 1_445
Mg1 O46 2.095959 1_455
Mg1 O45 2.117582 1_445
Mg2 O31 1.912052 1_555
Mg2 O30 2.067637 1_555
Mg2 O32 2.071047 1_555
Mg2 O66 2.084293 1_555
Mg2 O67 2.138379 1_555
Mg2 O68 2.141418 1_555
O0 S0 1.495926 1_545
O0 Ti0 2.140554 1_445
O1 S1 1.519483 1_555
O1 Ti0 2.002386 1_555
O2 S2 1.535214 1_655
O2 Ti0 1.933985 1_545
O3 S3 1.493294 1_555
O3 Ti1 2.030886 1_455
O4 S4 1.461796 1_655
O4 Ti1 2.252349 1_565
O5 Si0 1.671975 1_545
O5 Ti1 1.825139 1_555
O6 Si0 1.568883 1_555
O7 S3 1.455383 1_555
O8 S4 1.454852 1_555
O9 S1 1.449208 1_555
O10 S2 1.449249 1_555
O11 S0 1.451642 1_555
O12 S5 1.478694 1_555
O12 Ti2 2.095192 1_555
O13 S6 1.481012 1_555
O13 Ti2 2.102555 1_555
O14 Si1 1.643140 1_555
O14 Ti2 1.849380 1_555
O15 S7 1.522799 1_555
O15 Ti3 1.966812 1_555
O16 S8 1.518543 1_555
O16 Ti3 1.963481 1_555
O17 Si2 1.717698 1_555
O17 Ti3 1.737294 1_555
O18 Si2 1.636921 1_555
O18 Ti4 1.822216 1_554
O19 S7 1.457536 1_555
O19 Ti4 2.199629 1_554
O20 S8 1.484375 1_555
O20 Ti4 2.028260 1_554
O21 S6 1.487720 1_555
O21 Ti5 2.003681 1_555
O22 Si1 1.654574 1_555
O22 Ti5 1.790081 1_555
O23 S5 1.508197 1_555
O23 Ti5 1.948664 1_555
O24 S9 1.481586 1_555
O24 Ti6 2.074689 1_556
O25 Si3 1.659060 1_555
O25 Ti6 1.777650 1_556
O26 Si4 1.631103 1_555
O26 Ti6 1.854844 1_556
O27 Si5 1.678169 1_555
O27 Ti7 1.781329 1_555
O28 S10 1.490190 1_555
O28 Ti7 2.098046 1_555
O29 S11 1.468164 1_555
O29 Ti7 2.213053 1_555
O30 S11 1.455203 1_555
O31 Si5 1.562146 1_555
O32 S10 1.453492 1_555
O33 Si3 1.610967 1_555
O33 Ti8 1.879910 1_555
O34 Si4 1.640231 1_555
O34 Ti8 1.785381 1_555
O35 S9 1.473057 1_555
O35 Ti8 2.078433 1_555
O36 S11 1.508845 1_555
O36 Ti0 2.044047 1_455
O37 Si5 1.695439 1_555
O37 Ti0 1.788849 1_555
O38 S10 1.504116 1_555
O38 Ti0 2.084781 1_445
O39 Si3 1.643808 1_555
O39 Ti1 1.827309 1_455
O40 Si4 1.608477 1_555
O40 Ti1 1.954140 1_465
O41 S9 1.478200 1_555
O41 Ti1 2.083993 1_565
O42 S5 1.456777 1_555
O43 S6 1.457380 1_555
O44 Si1 1.575955 1_555
O45 S7 1.458453 1_555
O46 S8 1.457358 1_555
O47 Si2 1.580436 1_555
O48 Si0 1.674905 1_545
O48 Ti2 1.863431 1_555
O49 S3 1.520961 1_555
O49 Ti2 2.006096 1_555
O50 S4 1.520224 1_655
O50 Ti2 2.015463 1_555
O51 S1 1.518628 1_555
O51 Ti3 2.099139 1_555
O52 S2 1.492241 1_655
O52 Ti3 2.242234 1_555
O53 S0 1.531092 1_545
O53 Ti3 2.040374 1_555
O54 S9 1.484036 1_555
O54 Ti4 2.055769 1_555
O55 Si3 1.615137 1_655
O55 Ti4 1.919186 1_555
O56 Si4 1.650457 1_545
O56 Ti4 1.819708 1_555
O57 Si5 1.626566 1_545
O57 Ti5 1.904968 1_555
O58 S10 1.492254 1_555
O58 Ti5 2.095789 1_555
O59 S11 1.502820 1_655
O59 Ti5 2.036213 1_555
O60 Si2 1.637082 1_555
O60 Ti6 1.914679 1_555
O61 S7 1.499615 1_455
O61 Ti6 2.101072 1_555
O62 S8 1.470144 1_565
O62 Ti6 2.285724 1_555
O63 S6 1.507075 1_565
O63 Ti7 2.051896 1_555
O64 Si1 1.689384 1_555
O64 Ti7 1.798206 1_555
O65 S5 1.483687 1_455
O65 Ti7 2.149025 1_555
O66 S0 1.465978 1_555
O67 S1 1.464770 1_555
O68 S2 1.465886 1_555
O69 S3 1.471772 1_555
O69 Ti8 2.244817 1_555
O70 S4 1.502266 1_555
O70 Ti8 2.042882 1_555
O71 Si0 1.650691 1_555
O71 Ti8 1.861312 1_555
