# generated using pymatgen
data_Mg5Pd2
_symmetry_space_group_name_H-M   'P 1'
_cell_length_a   8.63939111
_cell_length_b   8.63939040
_cell_length_c   8.15856745
_cell_angle_alpha   90.00000000
_cell_angle_beta   90.00000000
_cell_angle_gamma   120.00055593
_symmetry_Int_Tables_number   1
_chemical_formula_structural   Mg5Pd2
_chemical_formula_sum   'Mg20 Pd8'
_cell_volume   527.36140385
_cell_formula_units_Z   4
loop_
 _symmetry_equiv_pos_site_id
 _symmetry_equiv_pos_as_xyz
  1  'x, y, z'
loop_
 _atom_site_type_symbol
 _atom_site_label
 _atom_site_symmetry_multiplicity
 _atom_site_fract_x
 _atom_site_fract_y
 _atom_site_fract_z
 _atom_site_occupancy
  Mg  Mg0  1  0.00000000  0.00000000  -0.00000000  1
  Mg  Mg1  1  0.00000000  0.00000000  0.50000000  1
  Mg  Mg2  1  0.46006923  0.92016631  0.25000000  1
  Mg  Mg3  1  0.53989623  0.46010477  0.75000000  1
  Mg  Mg4  1  0.92016631  0.46006923  0.75000000  1
  Mg  Mg5  1  0.07983369  0.53993077  0.25000000  1
  Mg  Mg6  1  0.46010477  0.53989623  0.25000000  1
  Mg  Mg7  1  0.53993077  0.07983369  0.75000000  1
  Mg  Mg8  1  0.19309296  0.38619265  0.93659696  1
  Mg  Mg9  1  0.80690265  0.19309735  0.43661277  1
  Mg  Mg10  1  0.38619265  0.19309296  0.43659696  1
  Mg  Mg11  1  0.61380835  0.80690704  0.93659696  1
  Mg  Mg12  1  0.19309735  0.80690265  0.93661277  1
  Mg  Mg13  1  0.80690704  0.61380835  0.06340304  1
  Mg  Mg14  1  0.80690265  0.19309735  0.06338723  1
  Mg  Mg15  1  0.80690704  0.61380835  0.43659696  1
  Mg  Mg16  1  0.38619265  0.19309296  0.06340304  1
  Mg  Mg17  1  0.61380835  0.80690704  0.56340304  1
  Mg  Mg18  1  0.19309296  0.38619265  0.56340304  1
  Mg  Mg19  1  0.19309735  0.80690265  0.56338723  1
  Pd  Pd0  1  0.33333702  0.66666298  0.75000000  1
  Pd  Pd1  1  0.66666298  0.33333702  0.25000000  1
  Pd  Pd2  1  0.12252001  0.24503969  0.25000000  1
  Pd  Pd3  1  0.87748053  0.12252047  0.75000000  1
  Pd  Pd4  1  0.24503969  0.12252001  0.75000000  1
  Pd  Pd5  1  0.75496131  0.87748099  0.25000000  1
  Pd  Pd6  1  0.12252047  0.87748053  0.25000000  1
  Pd  Pd7  1  0.87748099  0.75496131  0.75000000  1
loop_
_geom_bond_atom_site_label_1
_geom_bond_atom_site_label_2
_geom_bond_distance
_geom_bond_site_symmetry_2
Mg0 Pd7 2.742503 1_444
Mg0 Pd5 2.742503 1_445
Mg0 Pd2 2.742508 1_555
Mg0 Pd4 2.742508 1_554
Mg0 Pd3 2.742519 1_454
Mg0 Pd6 2.742519 1_545
Mg1 Pd7 2.742503 1_445
Mg1 Pd5 2.742503 1_445
Mg1 Pd2 2.742508 1_555
Mg1 Pd4 2.742508 1_555
Mg1 Pd3 2.742519 1_455
Mg1 Pd6 2.742519 1_545
Mg2 Pd6 2.750428 1_555
Mg2 Pd5 2.750682 1_555
Mg2 Pd1 3.091298 1_565
Mg3 Pd4 2.750572 1_555
Mg3 Pd7 2.750572 1_555
Mg3 Pd0 3.090925 1_555
Mg4 Pd3 2.750428 1_555
Mg4 Pd7 2.750681 1_555
Mg4 Pd0 3.091298 1_655
Mg5 Pd6 2.750433 1_555
Mg5 Pd2 2.750678 1_555
Mg5 Pd1 3.091298 1_455
Mg6 Pd5 2.750572 1_555
Mg6 Pd2 2.750572 1_555
Mg6 Pd1 3.090925 1_555
Mg7 Pd3 2.750433 1_555
Mg7 Pd4 2.750678 1_555
Mg7 Pd0 3.091298 1_545
Mg8 Pd0 2.592504 1_555
Mg8 Pd2 2.766436 1_556
Mg8 Pd3 2.954688 1_455
Mg8 Pd4 2.954741 1_555
Mg9 Pd1 2.592648 1_555
Mg9 Pd3 2.766325 1_555
Mg9 Pd5 2.954794 1_545
Mg9 Pd2 2.954799 1_655
Mg10 Pd1 2.592504 1_555
Mg10 Pd4 2.766436 1_555
Mg10 Pd6 2.954688 1_545
Mg10 Pd2 2.954742 1_555
Mg11 Pd0 2.592510 1_555
Mg11 Pd5 2.766436 1_556
Mg11 Pd3 2.954692 1_565
Mg11 Pd7 2.954737 1_555
Mg12 Pd0 2.592648 1_555
Mg12 Pd6 2.766325 1_556
Mg12 Pd7 2.954794 1_455
Mg12 Pd4 2.954799 1_565
Mg13 Pd1 2.592510 1_555
Mg13 Pd7 2.766436 1_554
Mg13 Pd6 2.954692 1_655
Mg13 Pd5 2.954737 1_555
Mg14 Pd1 2.592648 1_555
Mg14 Pd3 2.766325 1_554
Mg14 Pd5 2.954794 1_545
Mg14 Pd2 2.954799 1_655
Mg15 Pd1 2.592510 1_555
Mg15 Pd7 2.766436 1_555
Mg15 Pd6 2.954692 1_655
Mg15 Pd5 2.954737 1_555
Mg16 Pd1 2.592504 1_555
Mg16 Pd4 2.766436 1_554
Mg16 Pd6 2.954688 1_545
Mg16 Pd2 2.954742 1_555
Mg17 Pd0 2.592510 1_555
Mg17 Pd5 2.766436 1_555
Mg17 Pd3 2.954692 1_565
Mg17 Pd7 2.954737 1_555
Mg18 Pd0 2.592504 1_555
Mg18 Pd2 2.766436 1_555
Mg18 Pd3 2.954688 1_455
Mg18 Pd4 2.954741 1_555
Mg19 Pd0 2.592648 1_555
Mg19 Pd6 2.766325 1_555
Mg19 Pd7 2.954794 1_455
Mg19 Pd4 2.954799 1_565
