# generated using pymatgen
data_ScIr2
_symmetry_space_group_name_H-M   'P 1'
_cell_length_a   5.21383718
_cell_length_b   5.21383699
_cell_length_c   5.21383799
_cell_angle_alpha   60.00000005
_cell_angle_beta   60.00000129
_cell_angle_gamma   60.00000336
_symmetry_Int_Tables_number   1
_chemical_formula_structural   ScIr2
_chemical_formula_sum   'Sc2 Ir4'
_cell_volume   100.22070729
_cell_formula_units_Z   2
loop_
 _symmetry_equiv_pos_site_id
 _symmetry_equiv_pos_as_xyz
  1  'x, y, z'
loop_
 _atom_site_type_symbol
 _atom_site_label
 _atom_site_symmetry_multiplicity
 _atom_site_fract_x
 _atom_site_fract_y
 _atom_site_fract_z
 _atom_site_occupancy
  Sc  Sc0  1  0.12500000  0.12500000  0.12500000  1
  Sc  Sc1  1  0.87500000  0.87500000  0.87500000  1
  Ir  Ir0  1  -0.00000000  0.50000000  0.50000000  1
  Ir  Ir1  1  0.50000000  -0.00000000  0.50000000  1
  Ir  Ir2  1  0.50000000  0.50000000  -0.00000000  1
  Ir  Ir3  1  0.50000000  0.50000000  0.50000000  1
loop_
_geom_bond_atom_site_label_1
_geom_bond_atom_site_label_2
_geom_bond_distance
_geom_bond_site_symmetry_2
Sc0 Sc1 3.192810 1_454
Sc0 Sc1 3.192810 1_444
Sc0 Sc1 3.192810 1_544
Sc0 Sc1 3.192811 1_445
Ir0 Ir3 2.606919 1_555
Ir0 Ir3 2.606919 1_455
Ir0 Ir1 2.606919 1_465
Ir0 Ir1 2.606919 1_555
Ir0 Ir2 2.606919 1_555
Ir0 Ir2 2.606919 1_456
Ir0 Sc1 3.056883 1_445
Ir0 Sc0 3.056883 1_565
Ir0 Sc0 3.056883 1_555
Ir0 Sc1 3.056883 1_455
Ir0 Sc1 3.056883 1_454
Ir0 Sc0 3.056883 1_556
Ir1 Ir3 2.606918 1_555
Ir1 Ir3 2.606918 1_545
Ir1 Ir2 2.606919 1_546
Ir1 Ir2 2.606919 1_555
Ir1 Sc1 3.056883 1_445
Ir1 Sc0 3.056883 1_655
Ir1 Sc1 3.056883 1_545
Ir1 Sc0 3.056883 1_555
Ir1 Sc0 3.056883 1_556
Ir1 Sc1 3.056883 1_544
Ir2 Ir3 2.606919 1_555
Ir2 Ir3 2.606919 1_554
Ir2 Sc1 3.056883 1_554
Ir2 Sc0 3.056883 1_555
Ir2 Sc0 3.056883 1_565
Ir2 Sc1 3.056883 1_544
Ir2 Sc0 3.056883 1_655
Ir2 Sc1 3.056883 1_454
Ir3 Sc0 3.056883 1_565
Ir3 Sc1 3.056883 1_545
Ir3 Sc0 3.056883 1_556
Ir3 Sc1 3.056883 1_554
Ir3 Sc1 3.056883 1_455
Ir3 Sc0 3.056883 1_655
