# generated using pymatgen
data_Na3Y2Zn2PS5O24
_symmetry_space_group_name_H-M   'P 1'
_cell_length_a   8.99500476
_cell_length_b   9.02046907
_cell_length_c   23.57552212
_cell_angle_alpha   90.51910650
_cell_angle_beta   89.37917884
_cell_angle_gamma   119.87232865
_symmetry_Int_Tables_number   1
_chemical_formula_structural   Na3Y2Zn2PS5O24
_chemical_formula_sum   'Na9 Y6 Zn6 P3 S15 O72'
_cell_volume   1658.63331354
_cell_formula_units_Z   3
loop_
 _symmetry_equiv_pos_site_id
 _symmetry_equiv_pos_as_xyz
  1  'x, y, z'
loop_
 _atom_site_type_symbol
 _atom_site_label
 _atom_site_symmetry_multiplicity
 _atom_site_fract_x
 _atom_site_fract_y
 _atom_site_fract_z
 _atom_site_occupancy
  Na  Na0  1  0.36618561  0.99160402  0.75011419  1
  Na  Na1  1  0.66044536  0.96734871  0.58775217  1
  Na  Na2  1  0.67192675  0.69759311  0.08251928  1
  Na  Na3  1  0.02357221  0.00210753  0.50703558  1
  Na  Na4  1  0.01432996  0.00434174  0.00614419  1
  Na  Na5  1  0.68013134  0.33726629  0.83315857  1
  Na  Na6  1  0.66689219  0.33343161  0.33286005  1
  Na  Na7  1  0.31011397  0.66386991  0.16700730  1
  Na  Na8  1  0.32983598  0.65760191  0.66652807  1
  Y  Y0  1  0.00121741  0.00081305  0.35280725  1
  Y  Y1  1  0.98868415  0.00007907  0.85268447  1
  Y  Y2  1  0.66887442  0.33252841  0.68176551  1
  Y  Y3  1  0.67558969  0.33664996  0.18350388  1
  Y  Y4  1  0.67316525  0.33691775  0.98296778  1
  Y  Y5  1  0.65561892  0.32818375  0.48239306  1
  Zn  Zn0  1  0.00375640  0.99867677  0.65303928  1
  Zn  Zn1  1  0.01187869  0.99502003  0.15221114  1
  Zn  Zn2  1  0.31019229  0.66662373  0.01620533  1
  Zn  Zn3  1  0.32413061  0.67322744  0.51599609  1
  Zn  Zn4  1  0.33248778  0.66536910  0.31691495  1
  Zn  Zn5  1  0.35036180  0.67155051  0.81632902  1
  P  P0  1  0.69754072  0.99080575  0.74675039  1
  P  P1  1  0.35436568  0.02225207  0.58486482  1
  P  P2  1  0.97446208  0.64406410  0.08370512  1
  S  S0  1  0.29472872  0.99129833  0.24922192  1
  S  S1  1  0.69642165  0.70747198  0.24881590  1
  S  S2  1  0.00987647  0.29806099  0.24902570  1
  S  S3  1  0.29073006  0.29901827  0.74956512  1
  S  S4  1  0.00680927  0.70707094  0.75001840  1
  S  S5  1  0.97458369  0.33423024  0.58150610  1
  S  S6  1  0.66622535  0.64015566  0.58274068  1
  S  S7  1  0.66700344  0.02606534  0.08292391  1
  S  S8  1  0.36144994  0.33368099  0.08348568  1
  S  S9  1  0.61503310  0.66371446  0.91893670  1
  S  S10  1  0.05298283  0.38620411  0.91563094  1
  S  S11  1  0.33419775  0.95444391  0.91530670  1
  S  S12  1  0.61692490  0.95041695  0.41703265  1
  S  S13  1  0.33352840  0.38692067  0.41655806  1
  S  S14  1  0.04707426  0.66464304  0.41607476  1
  O  O0  1  0.21419818  0.01696029  0.30110190  1
  O  O1  1  0.80594144  0.79253349  0.29895428  1
  O  O2  1  0.98660778  0.19559033  0.30089551  1
  O  O3  1  0.21341096  0.18898116  0.80047964  1
  O  O4  1  0.98383933  0.78768559  0.80209297  1
  O  O5  1  0.80749937  0.01509915  0.79946556  1
  O  O6  1  0.78236481  0.97476864  0.69130999  1
  O  O7  1  0.19039762  0.21711964  0.69817086  1
  O  O8  1  0.03179094  0.81398694  0.69955957  1
  O  O9  1  0.77678926  0.80405086  0.19600158  1
  O  O10  1  0.02546422  0.21145973  0.19775365  1
  O  O11  1  0.19254414  0.97272016  0.19833489  1
  O  O12  1  0.89487821  0.36257205  0.63337032  1
  O  O13  1  0.46992326  0.10492611  0.63849297  1
  O  O14  1  0.64542199  0.53606879  0.63379344  1
  O  O15  1  0.88669030  0.53030393  0.13620179  1
  O  O16  1  0.63918041  0.10754186  0.13384303  1
  O  O17  1  0.47351679  0.35983417  0.13342064  1
  O  O18  1  0.44281362  0.30480228  0.03212421  1
  O  O19  1  0.85434545  0.55734500  0.03173454  1
  O  O20  1  0.68922918  0.13268879  0.03225023  1
  O  O21  1  0.44773081  0.14003156  0.53322508  1
  O  O22  1  0.69186566  0.55625778  0.53200635  1
  O  O23  1  0.86062097  0.30851261  0.53218358  1
  O  O24  1  0.53520023  0.67982023  0.97209335  1
  O  O25  1  0.14759396  0.46370957  0.96812626  1
  O  O26  1  0.31852225  0.85440816  0.96595084  1
  O  O27  1  0.54151193  0.85791806  0.47060324  1
  O  O28  1  0.31734393  0.46819558  0.46874320  1
  O  O29  1  0.14436452  0.68450714  0.46796521  1
  O  O30  1  0.12806409  0.64680534  0.36375925  1
  O  O31  1  0.51655736  0.86686282  0.36618828  1
  O  O32  1  0.35025697  0.48194387  0.36424569  1
  O  O33  1  0.13454272  0.48363387  0.86381270  1
  O  O34  1  0.35120855  0.87731931  0.86140714  1
  O  O35  1  0.51810155  0.64824459  0.86745194  1
  O  O36  1  0.02682123  0.82023409  0.41278838  1
  O  O37  1  0.79277000  0.97108662  0.41284416  1
  O  O38  1  0.17934317  0.21023701  0.41353764  1
  O  O39  1  0.03217945  0.21047409  0.91313659  1
  O  O40  1  0.17867983  0.97474725  0.91316380  1
  O  O41  1  0.79119895  0.81836074  0.91545729  1
  O  O42  1  0.97845666  0.17205106  0.58732865  1
  O  O43  1  0.17627578  0.00536294  0.59200606  1
  O  O44  1  0.81902519  0.81425859  0.58758547  1
  O  O45  1  0.97934079  0.81893365  0.09046212  1
  O  O46  1  0.82325882  0.01075471  0.08875224  1
  O  O47  1  0.18948949  0.18308520  0.09046732  1
  O  O48  1  0.67121707  0.15147487  0.74504260  1
  O  O49  1  0.46504143  0.31305747  0.74476662  1
  O  O50  1  0.85145735  0.53497793  0.74527408  1
  O  O51  1  0.67866176  0.53278555  0.24580531  1
  O  O52  1  0.85157595  0.31477439  0.24630901  1
  O  O53  1  0.46797777  0.14782166  0.24475269  1
  O  O54  1  0.63600069  0.50846751  0.92052216  1
  O  O55  1  0.87556277  0.36392229  0.91887601  1
  O  O56  1  0.49010048  0.12899106  0.91966396  1
  O  O57  1  0.63867020  0.12695925  0.41971768  1
  O  O58  1  0.48937943  0.36547165  0.41904258  1
  O  O59  1  0.87176561  0.51017724  0.42011550  1
  O  O60  1  0.35695764  0.49544545  0.07732224  1
  O  O61  1  0.15279460  0.66187258  0.07687946  1
  O  O62  1  0.51602345  0.85146576  0.07679303  1
  O  O63  1  0.35222770  0.84933595  0.57709252  1
  O  O64  1  0.51077041  0.65673515  0.57741324  1
  O  O65  1  0.14613314  0.48419500  0.57487169  1
  O  O66  1  0.31134870  0.83651040  0.25469992  1
  O  O67  1  0.52490619  0.69091430  0.25574528  1
  O  O68  1  0.16317851  0.47067767  0.25421191  1
  O  O69  1  0.30936462  0.46988655  0.75664592  1
  O  O70  1  0.16350987  0.69215130  0.75513940  1
  O  O71  1  0.51350744  0.83247744  0.75321910  1
loop_
_geom_bond_atom_site_label_1
_geom_bond_atom_site_label_2
_geom_bond_distance
_geom_bond_site_symmetry_2
Na0 O48 2.382580 1_565
Na0 O71 2.391770 1_555
Na0 O70 2.393695 1_555
Na0 O49 2.578831 1_565
Na0 O34 2.805029 1_555
Na0 O13 2.808193 1_565
Na0 O8 2.877043 1_555
Na0 O3 2.971846 1_565
Na1 O44 2.429754 1_555
Na1 O63 2.439880 1_555
Na1 O64 2.441229 1_555
Na1 O42 2.516025 1_565
Na1 O6 2.673888 1_555
Na1 O13 2.820510 1_565
Na1 O27 2.951164 1_555
Na1 O23 2.988514 1_565
Na2 O62 2.420292 1_555
Na2 O45 2.423209 1_555
Na2 O46 2.453726 1_565
Na2 O60 2.494804 1_555
Na2 O19 2.779243 1_555
Na2 O9 2.841743 1_555
Na2 O24 2.860260 1_554
Na2 O17 2.917393 1_555
Na3 O43 2.432867 1_555
Na3 O42 2.578453 1_455
Na3 O44 2.596091 1_445
Na3 O36 2.758556 1_545
Na3 O38 2.781078 1_555
Na3 O37 2.971435 1_445
Na4 O45 2.523896 1_445
Na4 O47 2.552118 1_555
Na4 O46 2.602797 1_455
Na4 O40 2.715538 1_544
Na4 O39 2.839013 1_554
Na4 O41 2.843880 1_444
Na5 O55 2.622774 1_555
Na5 O48 2.633880 1_555
Na5 O50 2.666163 1_555
Na5 O54 2.705534 1_555
Na5 O56 2.721316 1_555
Na5 O49 2.791366 1_555
Na6 O58 2.672083 1_555
Na6 O52 2.674026 1_555
Na6 O59 2.695467 1_555
Na6 O57 2.704305 1_555
Na6 O51 2.707338 1_555
Na6 O53 2.711580 1_555
Na7 O61 2.560603 1_555
Na7 O66 2.573785 1_555
Na7 O68 2.592712 1_555
Na7 O60 2.741616 1_555
Na7 O62 2.770424 1_555
Na7 O67 2.788878 1_555
Na8 O71 2.610291 1_555
Na8 O64 2.645944 1_555
Na8 O70 2.661683 1_555
Na8 O69 2.676012 1_555
Na8 O63 2.680941 1_555
Na8 O65 2.699605 1_555
O0 S0 1.488949 1_545
O0 Y0 2.202708 1_555
O1 S1 1.487371 1_555
O1 Y0 2.223692 1_665
O2 S2 1.488556 1_655
O2 Y0 2.207828 1_655
O3 S3 1.491834 1_555
O3 Y1 2.248863 1_455
O4 S4 1.485492 1_655
O4 Y1 2.229722 1_565
O5 P0 1.541627 1_545
O5 Y1 2.125088 1_555
O6 P0 1.548013 1_555
O6 Zn0 2.088801 1_655
O7 S3 1.473660 1_555
O7 Zn0 2.130426 1_545
O8 S4 1.481510 1_555
O8 Zn0 2.121212 1_555
O9 S1 1.484821 1_555
O9 Zn1 2.204811 1_655
O10 S2 1.476261 1_555
O10 Zn1 2.169505 1_545
O11 S0 1.476139 1_555
O11 Zn1 2.057105 1_555
O12 S5 1.494109 1_555
O12 Y2 2.216852 1_555
O13 P1 1.572989 1_555
O13 Y2 2.190916 1_555
O14 S6 1.485192 1_555
O14 Y2 2.263451 1_555
O15 P2 1.550126 1_555
O15 Y3 2.141481 1_555
O16 S7 1.484787 1_555
O16 Y3 2.244844 1_555
O17 S8 1.497162 1_555
O17 Y3 2.274063 1_555
O18 S8 1.494891 1_555
O18 Y4 2.253064 1_554
O19 P2 1.565211 1_555
O19 Y4 2.168546 1_554
O20 S7 1.488734 1_555
O20 Y4 2.252163 1_554
O21 P1 1.558420 1_555
O21 Y5 2.154125 1_555
O22 S6 1.485952 1_555
O22 Y5 2.236853 1_555
O23 S5 1.496932 1_555
O23 Y5 2.277349 1_555
O24 S9 1.479322 1_555
O24 Zn2 2.215556 1_556
O25 S10 1.469409 1_555
O25 Zn2 2.026281 1_556
O26 S11 1.465888 1_555
O26 Zn2 2.046125 1_556
O27 S12 1.479228 1_555
O27 Zn3 2.118043 1_555
O28 S13 1.469148 1_555
O28 Zn3 2.125326 1_555
O29 S14 1.468860 1_555
O29 Zn3 2.028032 1_555
O30 S14 1.473600 1_555
O30 Zn4 2.069171 1_555
O31 S12 1.466024 1_555
O31 Zn4 2.097622 1_555
O32 S13 1.471399 1_555
O32 Zn4 2.075827 1_555
O33 S10 1.469961 1_555
O33 Zn5 2.145802 1_555
O34 S11 1.485908 1_555
O34 Zn5 2.127216 1_555
O35 S9 1.466836 1_555
O35 Zn5 2.033060 1_555
O36 S14 1.505320 1_555
O36 Y0 2.264622 1_565
O37 S12 1.499850 1_555
O37 Y0 2.244855 1_665
O38 S13 1.505616 1_555
O38 Y0 2.274069 1_555
O39 S10 1.501432 1_555
O39 Y1 2.238199 1_455
O40 S11 1.499961 1_555
O40 Y1 2.335305 1_465
O41 S9 1.503658 1_555
O41 Y1 2.262516 1_565
O42 S5 1.488200 1_555
O42 Zn0 2.302954 1_645
O43 P1 1.539225 1_555
O43 Zn0 2.083775 1_545
O44 S6 1.489466 1_555
O44 Zn0 2.272695 1_655
O45 P2 1.562739 1_555
O45 Zn1 2.057210 1_655
O46 S7 1.487054 1_555
O46 Zn1 2.331459 1_645
O47 S8 1.473240 1_555
O47 Zn1 2.200846 1_545
O48 P0 1.581549 1_545
O48 Y2 2.229864 1_555
O49 S3 1.511908 1_555
O49 Y2 2.285496 1_555
O50 S4 1.488085 1_655
O50 Y2 2.300020 1_555
O51 S1 1.503669 1_555
O51 Y3 2.278901 1_555
O52 S2 1.506771 1_655
O52 Y3 2.259299 1_555
O53 S0 1.496823 1_545
O53 Y3 2.300286 1_555
O54 S9 1.504091 1_555
O54 Y4 2.289318 1_555
O55 S10 1.507063 1_655
O55 Y4 2.272048 1_555
O56 S11 1.502297 1_545
O56 Y4 2.320059 1_555
O57 S12 1.505476 1_545
O57 Y5 2.276382 1_555
O58 S13 1.509407 1_555
O58 Y5 2.266771 1_555
O59 S14 1.499194 1_655
O59 Y5 2.330917 1_555
O60 S8 1.488184 1_555
O60 Zn2 2.310364 1_555
O61 P2 1.537215 1_455
O61 Zn2 1.987260 1_555
O62 S7 1.488369 1_565
O62 Zn2 2.277563 1_555
O63 P1 1.559452 1_565
O63 Zn3 2.056368 1_555
O64 S6 1.485227 1_555
O64 Zn3 2.289649 1_555
O65 S5 1.467915 1_455
O65 Zn3 2.161671 1_555
O66 S0 1.483302 1_555
O66 Zn4 2.215906 1_555
O67 S1 1.481424 1_555
O67 Zn4 2.164047 1_555
O68 S2 1.484022 1_555
O68 Zn4 2.219533 1_555
O69 S3 1.473158 1_555
O69 Zn5 2.172918 1_555
O70 S4 1.487410 1_555
O70 Zn5 2.304116 1_555
O71 P0 1.564188 1_555
O71 Zn5 2.084290 1_555
