# generated using pymatgen
data_Na12Mg2Ta10Si15(SO24)3
_symmetry_space_group_name_H-M   'P 1'
_cell_length_a   8.97314944
_cell_length_b   8.96731667
_cell_length_c   22.66749450
_cell_angle_alpha   90.13828006
_cell_angle_beta   90.05423718
_cell_angle_gamma   120.05881029
_symmetry_Int_Tables_number   1
_chemical_formula_structural   Na12Mg2Ta10Si15(SO24)3
_chemical_formula_sum   'Na12 Mg2 Ta10 Si15 S3 O72'
_cell_volume   1578.63334900
_cell_formula_units_Z   1
loop_
 _symmetry_equiv_pos_site_id
 _symmetry_equiv_pos_as_xyz
  1  'x, y, z'
loop_
 _atom_site_type_symbol
 _atom_site_label
 _atom_site_symmetry_multiplicity
 _atom_site_fract_x
 _atom_site_fract_y
 _atom_site_fract_z
 _atom_site_occupancy
  Na  Na0  1  0.37272331  0.36287445  0.24229990  1
  Na  Na1  1  0.98824132  0.61831290  0.24016031  1
  Na  Na2  1  0.63640079  0.62727577  0.74260642  1
  Na  Na3  1  0.38028141  0.01090548  0.74028436  1
  Na  Na4  1  0.02239899  0.68208477  0.58487292  1
  Na  Na5  1  0.65874801  0.97818929  0.58451043  1
  Na  Na6  1  0.00972692  0.01017571  0.49713158  1
  Na  Na7  1  0.00365047  0.99862757  0.99968938  1
  Na  Na8  1  0.69015362  0.33363021  0.82974419  1
  Na  Na9  1  0.66576736  0.31118943  0.33098895  1
  Na  Na10  1  0.33057241  0.66677166  0.16213506  1
  Na  Na11  1  0.32194366  0.65028625  0.66392985  1
  Mg  Mg0  1  0.68330505  0.33661875  0.68509396  1
  Mg  Mg1  1  0.66809928  0.32623451  0.18519999  1
  Ta  Ta0  1  0.00946954  0.01396489  0.35802462  1
  Ta  Ta1  1  0.98677017  0.98894785  0.85872366  1
  Ta  Ta2  1  0.99264934  0.99056051  0.64295840  1
  Ta  Ta3  1  0.02030888  0.00935051  0.14261044  1
  Ta  Ta4  1  0.66572619  0.34561669  0.97711664  1
  Ta  Ta5  1  0.66614341  0.32979553  0.47836361  1
  Ta  Ta6  1  0.32074123  0.65763473  0.01996417  1
  Ta  Ta7  1  0.33443629  0.66686005  0.51888362  1
  Ta  Ta8  1  0.32553070  0.66620272  0.31452578  1
  Ta  Ta9  1  0.33075244  0.67429630  0.81503171  1
  Si  Si0  1  0.29456759  0.00138311  0.25117837  1
  Si  Si1  1  0.99362103  0.28680623  0.25008642  1
  Si  Si2  1  0.99814813  0.70613852  0.75060272  1
  Si  Si3  1  0.71018404  0.00396766  0.75120786  1
  Si  Si4  1  0.95865965  0.33605415  0.58426135  1
  Si  Si5  1  0.37911841  0.04875583  0.58601034  1
  Si  Si6  1  0.65484580  0.60958542  0.58669501  1
  Si  Si7  1  0.95348173  0.62135257  0.08752779  1
  Si  Si8  1  0.38825351  0.34357004  0.08668473  1
  Si  Si9  1  0.61328738  0.66491067  0.91699109  1
  Si  Si10  1  0.04141437  0.37512303  0.91578602  1
  Si  Si11  1  0.33598382  0.96040105  0.91827610  1
  Si  Si12  1  0.62331188  0.95618774  0.41617221  1
  Si  Si13  1  0.34185653  0.38353878  0.41551007  1
  Si  Si14  1  0.03916341  0.66593262  0.41732693  1
  S  S0  1  0.71235448  0.71930495  0.25047618  1
  S  S1  1  0.28073081  0.28710157  0.75097479  1
  S  S2  1  0.66628765  0.04264236  0.08373441  1
  O  O0  1  0.18160568  0.01388076  0.30625916  1
  O  O1  1  0.81827484  0.80384392  0.30365680  1
  O  O2  1  0.98039627  0.16783399  0.30726590  1
  O  O3  1  0.19701930  0.18263984  0.80384345  1
  O  O4  1  0.99125188  0.82241424  0.80594941  1
  O  O5  1  0.83362351  0.01844186  0.80696606  1
  O  O6  1  0.80552145  0.97365762  0.69268316  1
  O  O7  1  0.17600177  0.20509916  0.69695383  1
  O  O8  1  0.03493349  0.83336996  0.69176380  1
  O  O9  1  0.79257902  0.82314979  0.19684506  1
  O  O10  1  0.02373169  0.18618240  0.19355854  1
  O  O11  1  0.16415678  0.96474157  0.19243911  1
  O  O12  1  0.89203797  0.39127022  0.64041308  1
  O  O13  1  0.49110711  0.11307057  0.64520224  1
  O  O14  1  0.62704398  0.51429107  0.64797658  1
  O  O15  1  0.88605543  0.51861054  0.14763223  1
  O  O16  1  0.63900852  0.11594436  0.13644947  1
  O  O17  1  0.48397061  0.36553271  0.14760723  1
  O  O18  1  0.47780457  0.30880642  0.02830754  1
  O  O19  1  0.83293873  0.52015944  0.02890653  1
  O  O20  1  0.69434020  0.14858564  0.02977660  1
  O  O21  1  0.47390444  0.16879780  0.52796041  1
  O  O22  1  0.70105339  0.52617362  0.52963656  1
  O  O23  1  0.83086395  0.29296841  0.52623136  1
  O  O24  1  0.52263321  0.69435083  0.97339973  1
  O  O25  1  0.16304687  0.46814658  0.97343719  1
  O  O26  1  0.30479461  0.83304372  0.97310765  1
  O  O27  1  0.53504163  0.84263376  0.47532409  1
  O  O28  1  0.31105601  0.47800835  0.47154405  1
  O  O29  1  0.16107962  0.69714616  0.47475740  1
  O  O30  1  0.13422231  0.63791533  0.35855318  1
  O  O31  1  0.49743870  0.85514499  0.35944441  1
  O  O32  1  0.36121459  0.49481525  0.35576761  1
  O  O33  1  0.13915871  0.50163305  0.85899196  1
  O  O34  1  0.36403047  0.86886065  0.85803290  1
  O  O35  1  0.50227098  0.63827955  0.85649414  1
  O  O36  1  0.02045716  0.83539549  0.40743424  1
  O  O37  1  0.81117011  0.97165303  0.40776705  1
  O  O38  1  0.16695720  0.19182639  0.41070645  1
  O  O39  1  0.02893292  0.18908089  0.90751542  1
  O  O40  1  0.16765064  0.98133667  0.90775432  1
  O  O41  1  0.80844245  0.83344553  0.91090508  1
  O  O42  1  0.97253726  0.15887337  0.59177471  1
  O  O43  1  0.18144740  0.01945956  0.59028922  1
  O  O44  1  0.83611765  0.80967364  0.59057087  1
  O  O45  1  0.96617115  0.81445978  0.09014016  1
  O  O46  1  0.82276415  0.02171194  0.08929713  1
  O  O47  1  0.18729298  0.16634234  0.08900245  1
  O  O48  1  0.67203172  0.15912029  0.75076759  1
  O  O49  1  0.45262080  0.30482846  0.74694885  1
  O  O50  1  0.82168134  0.52779319  0.75096753  1
  O  O51  1  0.69353972  0.54663900  0.24742563  1
  O  O52  1  0.83784789  0.32391857  0.24913984  1
  O  O53  1  0.47424352  0.17560266  0.24821773  1
  O  O54  1  0.63807192  0.49618889  0.92329965  1
  O  O55  1  0.85270156  0.35431888  0.92525802  1
  O  O56  1  0.50938942  0.14614390  0.92595559  1
  O  O57  1  0.64011397  0.14456215  0.42229578  1
  O  O58  1  0.50882234  0.36148895  0.42327147  1
  O  O59  1  0.85344606  0.49279806  0.42391807  1
  O  O60  1  0.35720741  0.50766290  0.07462685  1
  O  O61  1  0.15157164  0.65770540  0.07445938  1
  O  O62  1  0.51274447  0.86608959  0.07568897  1
  O  O63  1  0.34797035  0.85152541  0.57408456  1
  O  O64  1  0.50423764  0.65978048  0.57503658  1
  O  O65  1  0.15134522  0.50242236  0.57204260  1
  O  O66  1  0.29904814  0.81933130  0.25559035  1
  O  O67  1  0.53639882  0.69888639  0.25517486  1
  O  O68  1  0.18118102  0.47478402  0.25531874  1
  O  O69  1  0.30051824  0.46262787  0.75493142  1
  O  O70  1  0.17936913  0.69929517  0.75562349  1
  O  O71  1  0.52286724  0.81598648  0.75597462  1
loop_
_geom_bond_atom_site_label_1
_geom_bond_atom_site_label_2
_geom_bond_distance
_geom_bond_site_symmetry_2
Na0 O53 2.280644 1_555
Na0 O17 2.363206 1_555
Na0 O68 2.403251 1_555
Na0 O51 2.502462 1_555
Na0 O67 2.623524 1_555
Na0 O32 2.852029 1_555
Na0 O10 2.924412 1_555
Na1 O15 2.281484 1_555
Na1 O52 2.294776 1_555
Na1 O51 2.394112 1_555
Na1 O66 2.471563 1_655
Na1 O68 2.646728 1_655
Na1 O11 2.901623 1_655
Na1 O30 2.951143 1_655
Na2 O50 2.254290 1_555
Na2 O14 2.353430 1_555
Na2 O71 2.391330 1_555
Na2 O49 2.512920 1_555
Na2 O69 2.624398 1_555
Na2 O35 2.871643 1_555
Na2 O6 2.920559 1_555
Na3 O48 2.277743 1_555
Na3 O13 2.361011 1_555
Na3 O49 2.382241 1_555
Na3 O70 2.477599 1_545
Na3 O71 2.657269 1_545
Na3 O8 2.896546 1_545
Na3 O34 2.932356 1_545
Na4 O65 2.425855 1_555
Na4 O44 2.456679 1_455
Na4 O63 2.541544 1_555
Na4 O12 2.591670 1_455
Na4 O43 2.622428 1_565
Na4 O8 2.748548 1_555
Na4 O29 2.763358 1_555
Na4 O22 2.789800 1_455
Na5 O63 2.438635 1_555
Na5 O42 2.451120 1_565
Na5 O64 2.480260 1_555
Na5 O44 2.691728 1_555
Na5 O13 2.727080 1_565
Na5 O27 2.732009 1_555
Na5 O23 2.784384 1_565
Na5 O6 2.792222 1_555
Na6 O38 2.490002 1_555
Na6 O43 2.589358 1_555
Na6 O36 2.595352 1_545
Na6 O37 2.601976 1_445
Na6 O42 2.631556 1_455
Na6 O44 2.713724 1_445
Na7 O45 2.550584 1_456
Na7 O47 2.563629 1_566
Na7 O41 2.586938 1_455
Na7 O40 2.601012 1_555
Na7 O39 2.638866 1_565
Na7 O46 2.672803 1_466
Na8 O48 2.326185 1_555
Na8 O50 2.360821 1_555
Na8 O55 2.563264 1_555
Na8 O56 2.739760 1_555
Na8 O54 2.740434 1_555
Na8 O49 2.751455 1_555
Na9 O52 2.381041 1_555
Na9 O53 2.416943 1_555
Na9 O57 2.498106 1_555
Na9 O59 2.674832 1_555
Na9 O58 2.683240 1_555
Na9 O51 2.756972 1_555
Na10 O60 2.521170 1_555
Na10 O61 2.529538 1_555
Na10 O62 2.608159 1_555
Na10 O66 2.610365 1_555
Na10 O68 2.633145 1_555
Na10 O67 2.720051 1_555
Na11 O65 2.527258 1_555
Na11 O64 2.571121 1_555
Na11 O70 2.591089 1_555
Na11 O69 2.610979 1_555
Na11 O63 2.656142 1_555
Na11 O71 2.665663 1_555
Mg0 O12 1.964813 1_555
Mg0 O14 2.076680 1_555
Mg0 O13 2.082172 1_555
Mg0 O50 2.135881 1_555
Mg0 O48 2.147142 1_555
Mg0 O49 2.397535 1_555
Mg1 O15 2.038745 1_555
Mg1 O17 2.040144 1_555
Mg1 O16 2.083642 1_555
Mg1 O52 2.109217 1_555
Mg1 O53 2.133327 1_555
Mg1 O51 2.341340 1_555
O0 Si0 1.647536 1_555
O0 Ta0 1.940940 1_555
O1 S0 1.484189 1_555
O1 Ta0 2.181477 1_665
O2 Si1 1.646915 1_555
O2 Ta0 1.914000 1_655
O3 S1 1.476522 1_555
O3 Ta1 2.203591 1_445
O4 Si2 1.650282 1_555
O4 Ta1 1.927280 1_555
O5 Si3 1.641247 1_555
O5 Ta1 1.922856 1_545
O6 Si3 1.673005 1_565
O6 Ta2 1.965279 1_555
O7 S1 1.491481 1_555
O7 Ta2 2.172563 1_445
O8 Si2 1.679408 1_455
O8 Ta2 1.974150 1_455
O9 S0 1.482844 1_555
O9 Ta3 2.252023 1_665
O10 Si1 1.663834 1_455
O10 Ta3 1.947160 1_555
O11 Si0 1.691122 1_565
O11 Ta3 1.902243 1_565
O12 Si4 1.586672 1_555
O13 Si5 1.598687 1_555
O14 Si6 1.585840 1_555
O15 Si7 1.587537 1_555
O16 S2 1.441446 1_555
O17 Si8 1.584458 1_555
O18 Si8 1.656766 1_555
O18 Ta4 1.935666 1_554
O19 Si7 1.663518 1_555
O19 Ta4 1.927278 1_554
O20 S2 1.492811 1_555
O20 Ta4 2.253120 1_554
O21 Si5 1.644804 1_555
O21 Ta5 1.959718 1_555
O22 Si6 1.646582 1_555
O22 Ta5 1.996695 1_555
O23 Si4 1.656918 1_555
O23 Ta5 1.989653 1_555
O24 Si9 1.606798 1_555
O24 Ta6 1.977922 1_556
O25 Si10 1.635476 1_555
O25 Ta6 1.892536 1_556
O26 Si11 1.617009 1_555
O26 Ta6 1.963668 1_556
O27 Si12 1.631774 1_555
O27 Ta7 1.966764 1_555
O28 Si13 1.623985 1_555
O28 Ta7 1.923095 1_555
O29 Si14 1.630525 1_555
O29 Ta7 1.978776 1_555
O30 Si14 1.667576 1_555
O30 Ta8 1.890879 1_555
O31 Si12 1.648209 1_555
O31 Ta8 1.912422 1_555
O32 Si13 1.641067 1_555
O32 Ta8 1.959039 1_555
O33 Si10 1.651063 1_555
O33 Ta9 1.920934 1_555
O34 Si11 1.674551 1_555
O34 Ta9 1.884844 1_555
O35 Si9 1.639328 1_555
O35 Ta9 1.962912 1_555
O36 Si14 1.626293 1_555
O36 Ta0 1.998708 1_565
O37 Si12 1.632053 1_555
O37 Ta0 1.977622 1_665
O38 Si13 1.651146 1_555
O38 Ta0 1.922651 1_555
O39 Si10 1.625479 1_555
O39 Ta1 1.973975 1_445
O40 Si11 1.630118 1_555
O40 Ta1 1.995532 1_455
O41 Si9 1.649197 1_555
O41 Ta1 1.918410 1_555
O42 Si4 1.663845 1_555
O42 Ta2 1.984339 1_545
O43 Si5 1.660781 1_555
O43 Ta2 1.981928 1_445
O44 Si6 1.717007 1_555
O44 Ta2 1.928541 1_555
O45 Si7 1.678411 1_555
O45 Ta3 1.960418 1_665
O46 S2 1.512074 1_555
O46 Ta3 2.192771 1_655
O47 Si8 1.705833 1_555
O47 Ta3 1.897939 1_555
O48 Si3 1.590672 1_555
O49 S1 1.472174 1_555
O50 Si2 1.590065 1_555
O51 S0 1.472503 1_555
O52 Si1 1.590903 1_555
O53 Si0 1.588093 1_555
O54 Si9 1.642280 1_555
O54 Ta4 1.927659 1_555
O55 Si10 1.622573 1_655
O55 Ta4 2.018859 1_555
O56 Si11 1.620953 1_545
O56 Ta4 1.996385 1_555
O57 Si12 1.624542 1_545
O57 Ta5 2.007350 1_555
O58 Si13 1.615894 1_555
O58 Ta5 2.008324 1_555
O59 Si14 1.618509 1_655
O59 Ta5 2.008981 1_555
O60 Si8 1.652270 1_555
O60 Ta6 1.974608 1_555
O61 Si7 1.665678 1_455
O61 Ta6 1.958233 1_555
O62 S2 1.500334 1_565
O62 Ta6 2.194597 1_555
O63 Si5 1.667808 1_565
O63 Ta7 2.027522 1_555
O64 Si6 1.645625 1_555
O64 Ta7 2.009803 1_555
O65 Si4 1.646421 1_455
O65 Ta7 1.977600 1_555
O66 Si0 1.656279 1_565
O66 Ta8 2.015399 1_555
O67 S0 1.499509 1_555
O67 Ta8 2.219739 1_555
O68 Si1 1.686610 1_455
O68 Ta8 2.045384 1_555
O69 S1 1.495448 1_555
O69 Ta9 2.236796 1_555
O70 Si2 1.661519 1_455
O70 Ta9 2.002982 1_555
O71 Si3 1.685593 1_565
O71 Ta9 2.048545 1_555
