# generated using pymatgen
data_Na6In4Si3(SO8)3
_symmetry_space_group_name_H-M   'P 1'
_cell_length_a   9.25399882
_cell_length_b   9.20133975
_cell_length_c   22.88337336
_cell_angle_alpha   90.31078196
_cell_angle_beta   89.85681390
_cell_angle_gamma   120.02939551
_symmetry_Int_Tables_number   1
_chemical_formula_structural   Na6In4Si3(SO8)3
_chemical_formula_sum   'Na18 In12 Si9 S9 O72'
_cell_volume   1686.92612678
_cell_formula_units_Z   3
loop_
 _symmetry_equiv_pos_site_id
 _symmetry_equiv_pos_as_xyz
  1  'x, y, z'
loop_
 _atom_site_type_symbol
 _atom_site_label
 _atom_site_symmetry_multiplicity
 _atom_site_fract_x
 _atom_site_fract_y
 _atom_site_fract_z
 _atom_site_occupancy
  Na  Na0  1  0.63145602  0.00917888  0.25798733  1
  Na  Na1  1  0.34987318  0.35161772  0.25393009  1
  Na  Na2  1  0.64652326  0.64677288  0.73798362  1
  Na  Na3  1  0.98646387  0.36781710  0.74560122  1
  Na  Na4  1  0.01847244  0.68590626  0.59095956  1
  Na  Na5  1  0.67879696  0.96580646  0.58285601  1
  Na  Na6  1  0.31168134  0.96855528  0.09503560  1
  Na  Na7  1  0.02438149  0.32267345  0.08274104  1
  Na  Na8  1  0.97020750  0.65830638  0.90140918  1
  Na  Na9  1  0.71495720  0.04601194  0.90987863  1
  Na  Na10  1  0.95336359  0.28758738  0.42120093  1
  Na  Na11  1  0.34433306  0.03156004  0.41338165  1
  Na  Na12  1  0.97384374  0.99271540  0.50612681  1
  Na  Na13  1  0.99173027  0.01405483  0.99792296  1
  Na  Na14  1  0.66860405  0.32646815  0.82267999  1
  Na  Na15  1  0.67487494  0.32990012  0.33412380  1
  Na  Na16  1  0.32825910  0.67436035  0.17354562  1
  Na  Na17  1  0.33300029  0.66562837  0.66457584  1
  In  In0  1  0.98888646  0.99886650  0.34829412  1
  In  In1  1  0.99790223  0.01402122  0.84303651  1
  In  In2  1  0.98566013  0.99285703  0.65019134  1
  In  In3  1  0.99411057  0.00585593  0.15496808  1
  In  In4  1  0.68239707  0.34233722  0.68196389  1
  In  In5  1  0.66619999  0.31624685  0.18626262  1
  In  In6  1  0.67914862  0.32891308  0.98393870  1
  In  In7  1  0.67441496  0.32840148  0.48938181  1
  In  In8  1  0.33806776  0.66193907  0.01455268  1
  In  In9  1  0.35081759  0.66009346  0.52078993  1
  In  In10  1  0.32660644  0.68047879  0.31523935  1
  In  In11  1  0.32038076  0.67080117  0.81166801  1
  Si  Si0  1  0.28990467  0.99954047  0.24835821  1
  Si  Si1  1  0.00535674  0.30748874  0.25009742  1
  Si  Si2  1  0.99980345  0.70845666  0.75108419  1
  Si  Si3  1  0.69223062  0.00018281  0.75146252  1
  Si  Si4  1  0.97566117  0.33405721  0.58203821  1
  Si  Si5  1  0.66646167  0.62509826  0.58498610  1
  Si  Si6  1  0.66446874  0.02359368  0.08198800  1
  Si  Si7  1  0.04190433  0.36946568  0.91849783  1
  Si  Si8  1  0.63079045  0.96441039  0.41696021  1
  S  S0  1  0.70097871  0.69756335  0.24878564  1
  S  S1  1  0.29955430  0.29502644  0.75040410  1
  S  S2  1  0.36662969  0.03756607  0.58213993  1
  S  S3  1  0.96059755  0.63293178  0.08272998  1
  S  S4  1  0.37778491  0.33509331  0.08289194  1
  S  S5  1  0.63207541  0.66224486  0.91734354  1
  S  S6  1  0.33258163  0.96728948  0.91959530  1
  S  S7  1  0.33471068  0.36778929  0.41410708  1
  S  S8  1  0.03534654  0.66737166  0.41758465  1
  O  O0  1  0.20119509  0.02199065  0.30722516  1
  O  O1  1  0.80267280  0.77024170  0.30176954  1
  O  O2  1  0.96145314  0.18187213  0.30590791  1
  O  O3  1  0.22827924  0.20012386  0.80568380  1
  O  O4  1  0.98271796  0.79498240  0.81315633  1
  O  O5  1  0.80633016  0.04560747  0.81209111  1
  O  O6  1  0.77585794  0.96345848  0.69478537  1
  O  O7  1  0.19046836  0.21317407  0.69977785  1
  O  O8  1  0.02787215  0.82123141  0.69352604  1
  O  O9  1  0.77608606  0.80337227  0.19637536  1
  O  O10  1  0.04119773  0.23482947  0.18861829  1
  O  O11  1  0.18422151  0.97357658  0.18737296  1
  O  O12  1  0.89570145  0.37185068  0.64031877  1
  O  O13  1  0.47909921  0.12389174  0.63193111  1
  O  O14  1  0.63693671  0.51898783  0.64508114  1
  O  O15  1  0.87159607  0.52475100  0.13316218  1
  O  O16  1  0.62153620  0.10557593  0.13873363  1
  O  O17  1  0.47371551  0.35673769  0.13717151  1
  O  O18  1  0.46577920  0.32117703  0.03069380  1
  O  O19  1  0.86600411  0.56141358  0.02733077  1
  O  O20  1  0.70363173  0.14180736  0.02342940  1
  O  O21  1  0.43667736  0.12867394  0.52577993  1
  O  O22  1  0.68992728  0.53343702  0.52721698  1
  O  O23  1  0.85861552  0.28755332  0.52246319  1
  O  O24  1  0.55579093  0.69402279  0.97003262  1
  O  O25  1  0.14004138  0.44897805  0.98127102  1
  O  O26  1  0.30832787  0.86713813  0.97416121  1
  O  O27  1  0.53781310  0.85731358  0.47497281  1
  O  O28  1  0.30400251  0.44833938  0.46491237  1
  O  O29  1  0.13785917  0.69176000  0.46999406  1
  O  O30  1  0.11081406  0.63435176  0.36480728  1
  O  O31  1  0.51976381  0.88477578  0.35664563  1
  O  O32  1  0.35344025  0.46365869  0.35956183  1
  O  O33  1  0.13225103  0.49516044  0.86378320  1
  O  O34  1  0.36771620  0.88832794  0.86926139  1
  O  O35  1  0.53473902  0.64139075  0.86442684  1
  O  O36  1  0.02885108  0.82537892  0.41080560  1
  O  O37  1  0.82193839  0.99194503  0.41334165  1
  O  O38  1  0.18155217  0.19562123  0.41176653  1
  O  O39  1  0.01114942  0.17664466  0.91426995  1
  O  O40  1  0.17862068  0.97625637  0.91334279  1
  O  O41  1  0.80391913  0.81318422  0.91498815  1
  O  O42  1  0.99052742  0.16516438  0.58866843  1
  O  O43  1  0.19931661  0.01662597  0.58805065  1
  O  O44  1  0.84234173  0.80873921  0.58443891  1
  O  O45  1  0.98974804  0.80589213  0.08728260  1
  O  O46  1  0.83968650  0.01756553  0.08840310  1
  O  O47  1  0.21136263  0.17651388  0.08360100  1
  O  O48  1  0.67533111  0.16794992  0.74438900  1
  O  O49  1  0.46786938  0.31787144  0.74534190  1
  O  O50  1  0.82354976  0.52532737  0.75121430  1
  O  O51  1  0.67636199  0.52653036  0.24121386  1
  O  O52  1  0.83610317  0.32297651  0.24644158  1
  O  O53  1  0.47224441  0.17976765  0.24723462  1
  O  O54  1  0.64925070  0.51003924  0.92467980  1
  O  O55  1  0.85382821  0.35794921  0.91940777  1
  O  O56  1  0.48365112  0.13806315  0.92439905  1
  O  O57  1  0.64478385  0.15460197  0.41943977  1
  O  O58  1  0.48240966  0.34674279  0.41973215  1
  O  O59  1  0.86619571  0.51671686  0.42055217  1
  O  O60  1  0.34853392  0.48012530  0.07994185  1
  O  O61  1  0.12747716  0.64134966  0.08045923  1
  O  O62  1  0.48633216  0.84211939  0.07579870  1
  O  O63  1  0.35077581  0.86722861  0.57916614  1
  O  O64  1  0.51333266  0.66752574  0.58413067  1
  O  O65  1  0.14897065  0.51594731  0.57433267  1
  O  O66  1  0.33345291  0.84700393  0.24948890  1
  O  O67  1  0.53311370  0.68207617  0.25448522  1
  O  O68  1  0.18440799  0.48404834  0.25726514  1
  O  O69  1  0.31360579  0.46476963  0.75495507  1
  O  O70  1  0.15221663  0.66484426  0.75102036  1
  O  O71  1  0.51949978  0.81775587  0.75923656  1
loop_
_geom_bond_atom_site_label_1
_geom_bond_atom_site_label_2
_geom_bond_distance
_geom_bond_site_symmetry_2
Na0 O66 2.397981 1_545
Na0 O31 2.511515 1_545
Na0 O52 2.554597 1_555
Na0 O53 2.648728 1_555
Na0 O67 2.673884 1_545
Na0 O2 2.862537 1_555
Na0 O16 2.889846 1_555
Na1 O53 2.365365 1_555
Na1 O68 2.387717 1_555
Na1 O32 2.616507 1_555
Na1 O51 2.633839 1_555
Na1 O67 2.638226 1_555
Na1 O17 2.895914 1_555
Na1 O0 2.904226 1_555
Na1 O10 2.911967 1_555
Na2 O14 2.404024 1_555
Na2 O50 2.421260 1_555
Na2 O71 2.435833 1_555
Na2 O49 2.629961 1_555
Na2 O69 2.698875 1_555
Na2 O6 2.726777 1_555
Na3 O70 2.374678 1_655
Na3 O48 2.524460 1_555
Na3 O12 2.559971 1_555
Na3 O50 2.563942 1_555
Na3 O69 2.702719 1_655
Na4 O44 2.408973 1_455
Na4 O65 2.435209 1_555
Na4 O8 2.632044 1_555
Na4 O43 2.640044 1_565
Na4 O63 2.679267 1_555
Na4 O12 2.767688 1_455
Na4 O29 2.968609 1_555
Na4 O22 3.011710 1_455
Na5 O64 2.381715 1_555
Na5 O42 2.531257 1_565
Na5 O44 2.563312 1_555
Na5 O63 2.699782 1_555
Na5 O6 2.720133 1_555
Na5 O27 2.734800 1_555
Na5 O23 2.923290 1_565
Na6 O11 2.428815 1_555
Na6 O62 2.456060 1_555
Na6 O47 2.525152 1_565
Na6 O45 2.585328 1_455
Na6 O61 2.633766 1_555
Na6 O16 2.682114 1_565
Na6 O26 2.909648 1_554
Na7 O46 2.453528 1_455
Na7 O25 2.580630 1_554
Na7 O10 2.587790 1_555
Na7 O61 2.590837 1_555
Na7 O60 2.598379 1_555
Na7 O47 2.670700 1_555
Na7 O20 2.910936 1_455
Na8 O4 2.356714 1_555
Na8 O55 2.449193 1_555
Na8 O41 2.585177 1_555
Na8 O40 2.588390 1_655
Na8 O54 2.628842 1_555
Na8 O33 2.734240 1_655
Na9 O39 2.381235 1_655
Na9 O5 2.390802 1_555
Na9 O55 2.498019 1_555
Na9 O41 2.655076 1_545
Na9 O56 2.686554 1_555
Na9 O20 2.757897 1_556
Na9 O34 2.937451 1_545
Na10 O37 2.365578 1_545
Na10 O23 2.475454 1_555
Na10 O57 2.481141 1_555
Na10 O59 2.607374 1_555
Na10 O38 2.646888 1_655
Na10 O2 2.820716 1_555
Na11 O57 2.425093 1_555
Na11 O58 2.520281 1_555
Na11 O36 2.565542 1_545
Na11 O38 2.612713 1_555
Na11 O21 2.714030 1_555
Na11 O0 2.749626 1_555
Na11 O31 2.882765 1_545
Na12 O44 2.349070 1_555
Na12 O42 2.415176 1_565
Na12 O37 2.547362 1_555
Na12 O43 2.733511 1_665
Na12 O36 2.851366 1_655
Na12 O38 2.876451 1_665
Na13 O39 2.386443 1_655
Na13 O46 2.509555 1_556
Na13 O41 2.608028 1_545
Na13 O47 2.675195 1_656
Na13 O40 2.726934 1_645
Na13 O45 2.803132 1_546
Na14 O48 2.324436 1_555
Na14 O50 2.339499 1_555
Na14 O49 2.541025 1_555
Na14 O55 2.726972 1_555
Na14 O56 2.899465 1_555
Na14 O54 2.931054 1_555
Na15 O57 2.464279 1_555
Na15 O52 2.516908 1_555
Na15 O53 2.602703 1_555
Na15 O59 2.633543 1_555
Na15 O58 2.699905 1_555
Na15 O51 2.794736 1_555
Na16 O66 2.332368 1_555
Na16 O68 2.489828 1_555
Na16 O67 2.628833 1_555
Na16 O62 2.699409 1_555
Na16 O61 2.744068 1_555
Na16 O60 2.847716 1_555
Na17 O64 2.475838 1_555
Na17 O70 2.585240 1_555
Na17 O65 2.588581 1_555
Na17 O63 2.649584 1_555
Na17 O71 2.682917 1_555
Na17 O69 2.726340 1_555
In0 O2 2.070642 1_565
In0 O0 2.088800 1_665
In0 O37 2.120753 1_555
In0 O1 2.210181 1_555
In0 O38 2.306465 1_665
In0 O36 2.312914 1_655
In1 O4 2.061890 1_545
In1 O5 2.062275 1_555
In1 O3 2.135602 1_655
In1 O39 2.168442 1_655
In1 O41 2.458934 1_545
In1 O40 2.471255 1_645
In2 O8 2.065460 1_655
In2 O6 2.086003 1_555
In2 O42 2.109544 1_565
In2 O44 2.150919 1_555
In2 O7 2.264842 1_665
In2 O43 2.352792 1_665
In3 O11 2.065208 1_645
In3 O10 2.070483 1_655
In3 O46 2.130907 1_555
In3 O9 2.164943 1_545
In3 O45 2.383494 1_545
In3 O47 2.454874 1_655
In4 O14 2.057275 1_555
In4 O12 2.082104 1_555
In4 O48 2.130492 1_555
In4 O50 2.198308 1_555
In4 O13 2.256384 1_555
In4 O49 2.374252 1_555
In5 O52 2.069966 1_555
In5 O16 2.070949 1_555
In5 O53 2.120324 1_555
In5 O51 2.264057 1_555
In5 O15 2.265817 1_555
In5 O17 2.291811 1_555
In6 O20 2.059191 1_556
In6 O55 2.103590 1_555
In6 O19 2.199014 1_556
In6 O18 2.213167 1_556
In6 O56 2.240458 1_555
In6 O54 2.276155 1_555
In7 O22 2.010302 1_555
In7 O23 2.066582 1_555
In7 O57 2.174800 1_555
In7 O21 2.207249 1_555
In7 O59 2.360222 1_555
In7 O58 2.458256 1_555
In8 O25 2.043197 1_554
In8 O62 2.074379 1_555
In8 O24 2.140602 1_554
In8 O26 2.243948 1_554
In8 O60 2.288475 1_555
In8 O61 2.393151 1_555
In9 O27 2.062854 1_555
In9 O64 2.067419 1_555
In9 O65 2.067833 1_555
In9 O28 2.179427 1_555
In9 O63 2.321665 1_555
In9 O29 2.430968 1_555
In10 O31 2.062178 1_555
In10 O68 2.088199 1_555
In10 O66 2.131427 1_555
In10 O30 2.144784 1_555
In10 O67 2.354540 1_555
In10 O32 2.364230 1_555
In11 O71 2.043533 1_555
In11 O33 2.063842 1_555
In11 O70 2.067700 1_555
In11 O34 2.243147 1_555
In11 O69 2.266464 1_555
In11 O35 2.453275 1_555
O0 Si0 1.640845 1_545
O1 S0 1.473053 1_555
O2 Si1 1.635697 1_655
O3 S1 1.493018 1_555
O4 Si2 1.670045 1_555
O5 Si3 1.665452 1_555
O6 Si3 1.627013 1_565
O7 S1 1.470994 1_555
O8 Si2 1.619385 1_455
O9 S0 1.483423 1_555
O10 Si1 1.656990 1_555
O11 Si0 1.652407 1_555
O12 Si4 1.641546 1_555
O13 S2 1.476838 1_555
O14 Si5 1.632399 1_555
O15 S3 1.479251 1_555
O16 Si6 1.643116 1_555
O17 S4 1.482036 1_555
O18 S4 1.484614 1_555
O19 S3 1.492102 1_555
O20 Si6 1.651958 1_555
O21 S2 1.499987 1_555
O22 Si5 1.635795 1_555
O23 Si4 1.658910 1_555
O24 S5 1.495355 1_555
O25 Si7 1.659382 1_555
O26 S6 1.504256 1_555
O27 Si8 1.622824 1_555
O28 S7 1.476999 1_555
O29 S8 1.475914 1_555
O30 S8 1.497604 1_555
O31 Si8 1.655325 1_555
O32 S7 1.491300 1_555
O33 Si7 1.626942 1_555
O34 S6 1.478426 1_555
O35 S5 1.464383 1_555
O36 S8 1.493788 1_555
O37 Si8 1.658594 1_555
O38 S7 1.507803 1_555
O39 Si7 1.652593 1_555
O40 S6 1.475130 1_555
O41 S5 1.500162 1_555
O42 Si4 1.635124 1_555
O43 S2 1.467428 1_555
O44 Si5 1.658891 1_555
O45 S3 1.478188 1_555
O46 Si6 1.656826 1_555
O47 S4 1.500711 1_555
O48 Si3 1.636483 1_555
O49 S1 1.468109 1_555
O50 Si2 1.657978 1_555
O51 S0 1.482218 1_555
O52 Si1 1.644599 1_655
O53 Si0 1.672569 1_545
O54 S5 1.496766 1_555
O55 Si7 1.690000 1_655
O56 S6 1.495264 1_545
O57 Si8 1.689582 1_545
O58 S7 1.479292 1_555
O59 S8 1.484971 1_655
O60 S4 1.490406 1_555
O61 S3 1.507811 1_455
O62 Si6 1.664123 1_565
O63 S2 1.500477 1_565
O64 Si5 1.647650 1_555
O65 Si4 1.649107 1_455
O66 Si0 1.643037 1_555
O67 S0 1.492670 1_555
O68 Si1 1.647988 1_555
O69 S1 1.504063 1_555
O70 Si2 1.648283 1_455
O71 Si3 1.649429 1_565
