# generated using pymatgen
data_CaHI
_symmetry_space_group_name_H-M   'P 1'
_cell_length_a   4.02334212
_cell_length_b   4.02334212
_cell_length_c   9.34312645
_cell_angle_alpha   90.00000000
_cell_angle_beta   90.00000000
_cell_angle_gamma   90.00000000
_symmetry_Int_Tables_number   1
_chemical_formula_structural   CaHI
_chemical_formula_sum   'Ca2 H2 I2'
_cell_volume   151.23982088
_cell_formula_units_Z   2
loop_
 _symmetry_equiv_pos_site_id
 _symmetry_equiv_pos_as_xyz
  1  'x, y, z'
loop_
 _atom_site_type_symbol
 _atom_site_label
 _atom_site_symmetry_multiplicity
 _atom_site_fract_x
 _atom_site_fract_y
 _atom_site_fract_z
 _atom_site_occupancy
  Ca  Ca0  1  -0.00000000  0.50000000  0.13019281  1
  Ca  Ca1  1  0.50000000  0.00000000  0.86980719  1
  H  H0  1  0.50000000  0.50000000  0.00000000  1
  H  H1  1  -0.00000000  0.00000000  0.00000000  1
  I  I0  1  0.00000000  0.50000000  0.69979029  1
  I  I1  1  0.50000000  -0.00000000  0.30020971  1
loop_
_geom_bond_atom_site_label_1
_geom_bond_atom_site_label_2
_geom_bond_distance
_geom_bond_site_symmetry_2
Ca0 H1 2.350844 1_555
Ca0 H1 2.350844 1_565
Ca0 H0 2.350844 1_455
Ca0 H0 2.350844 1_555
Ca0 I1 3.258365 1_555
Ca0 I1 3.258365 1_465
Ca0 I1 3.258365 1_455
Ca0 I1 3.258365 1_565
Ca1 H1 2.350844 1_656
Ca1 H0 2.350844 1_556
Ca1 H1 2.350844 1_556
Ca1 H0 2.350844 1_546
Ca1 I0 3.258365 1_555
Ca1 I0 3.258365 1_655
Ca1 I0 3.258365 1_545
Ca1 I0 3.258365 1_645
