# generated using pymatgen
data_K2MgMn3V2(HO5)2
_symmetry_space_group_name_H-M   'P 1'
_cell_length_a   6.21766302
_cell_length_b   8.91410009
_cell_length_c   5.54439544
_cell_angle_alpha   70.03760530
_cell_angle_beta   89.93224228
_cell_angle_gamma   69.65300506
_symmetry_Int_Tables_number   1
_chemical_formula_structural   K2MgMn3V2(HO5)2
_chemical_formula_sum   'K2 Mg1 Mn3 V2 H2 O10'
_cell_volume   268.39301195
_cell_formula_units_Z   1
loop_
 _symmetry_equiv_pos_site_id
 _symmetry_equiv_pos_as_xyz
  1  'x, y, z'
loop_
 _atom_site_type_symbol
 _atom_site_label
 _atom_site_symmetry_multiplicity
 _atom_site_fract_x
 _atom_site_fract_y
 _atom_site_fract_z
 _atom_site_occupancy
  K  K0  1  0.76649674  0.46599067  0.72990135  1
  K  K1  1  0.26647325  0.45733071  0.22281359  1
  Mg  Mg0  1  0.14591728  0.70876106  0.49274816  1
  Mn  Mn0  1  0.26104134  0.01714848  0.50203669  1
  Mn  Mn1  1  0.72190321  0.01708690  0.50207857  1
  Mn  Mn2  1  0.98645412  0.02662499  0.99450036  1
  V  V0  1  0.62287592  0.75442625  0.11118616  1
  V  V1  1  0.38438241  0.23164917  0.86118002  1
  H  H0  1  0.11052824  0.77899227  0.89875369  1
  H  H1  1  0.86401290  0.27248570  0.26162598  1
  O  O0  1  0.07501171  0.84984690  0.71506559  1
  O  O1  1  0.57134817  0.85594760  0.76112487  1
  O  O2  1  0.85728538  0.81479285  0.24538142  1
  O  O3  1  0.32948488  0.81478994  0.24504047  1
  O  O4  1  0.26547363  0.47003097  0.72256254  1
  O  O5  1  0.73819045  0.53092566  0.21125791  1
  O  O6  1  0.16502659  0.17053925  0.74868994  1
  O  O7  1  0.66501273  0.17033417  0.74896284  1
  O  O8  1  0.42504918  0.15038246  0.21962045  1
  O  O9  1  0.92386485  0.15285198  0.26975440  1
loop_
_geom_bond_atom_site_label_1
_geom_bond_atom_site_label_2
_geom_bond_distance
_geom_bond_site_symmetry_2
K0 O5 2.725570 1_555
K0 O7 2.884677 1_555
K0 O6 2.891753 1_655
K0 O5 2.910592 1_556
K0 O4 3.103008 1_555
K0 O4 3.115233 1_655
K0 O1 3.326094 1_555
K1 O8 2.572166 1_555
K1 O4 2.736933 1_554
K1 O4 2.811384 1_555
K1 O5 3.113988 1_455
K1 O5 3.216483 1_555
Mg0 O4 1.937906 1_555
Mg0 O2 1.983969 1_455
Mg0 O3 1.985539 1_555
Mg0 O0 1.991739 1_555
Mn0 O8 2.114446 1_555
Mn0 O1 2.126031 1_545
Mn0 O9 2.167044 1_455
Mn0 O6 2.191662 1_555
Mn0 O0 2.225003 1_545
Mn0 O3 2.585538 1_545
Mn1 O8 2.117140 1_555
Mn1 O1 2.127348 1_545
Mn1 O9 2.165473 1_555
Mn1 O7 2.191924 1_555
Mn1 O0 2.228270 1_645
Mn1 O2 2.584554 1_545
Mn2 O7 2.126971 1_555
Mn2 O6 2.128161 1_655
Mn2 O9 2.147824 1_556
Mn2 O2 2.324656 1_546
Mn2 O3 2.336575 1_646
Mn2 O0 2.499661 1_645
H0 O0 0.974285 1_555
H0 Mn2 2.316160 1_465
H0 K1 2.634951 1_556
H1 O9 0.984393 1_555
H1 K0 2.799808 1_554
O1 V0 1.813605 1_556
O2 V0 1.946469 1_555
O3 V0 1.937758 1_555
O4 V1 1.856458 1_555
O5 V0 1.744706 1_555
O6 V1 1.815642 1_555
O7 V1 1.815714 1_555
O8 V1 1.851761 1_554
