# generated using pymatgen
data_YbSnPt
_symmetry_space_group_name_H-M   'P 1'
_cell_length_a   7.49939425
_cell_length_b   7.49939425
_cell_length_c   4.06811200
_cell_angle_alpha   90.00000000
_cell_angle_beta   90.00000000
_cell_angle_gamma   120.00000216
_symmetry_Int_Tables_number   1
_chemical_formula_structural   YbSnPt
_chemical_formula_sum   'Yb3 Sn3 Pt3'
_cell_volume   198.14170404
_cell_formula_units_Z   3
loop_
 _symmetry_equiv_pos_site_id
 _symmetry_equiv_pos_as_xyz
  1  'x, y, z'
loop_
 _atom_site_type_symbol
 _atom_site_label
 _atom_site_symmetry_multiplicity
 _atom_site_fract_x
 _atom_site_fract_y
 _atom_site_fract_z
 _atom_site_occupancy
  Yb  Yb0  1  0.40633900  0.40633900  0.00000000  1
  Yb  Yb1  1  0.59366100  0.00000000  0.00000000  1
  Yb  Yb2  1  0.00000000  0.59366100  0.00000000  1
  Sn  Sn0  1  0.00000000  0.26019200  0.50000000  1
  Sn  Sn1  1  0.73980800  0.73980800  0.50000000  1
  Sn  Sn2  1  0.26019200  0.00000000  0.50000000  1
  Pt  Pt0  1  0.66666700  0.33333300  0.50000000  1
  Pt  Pt1  1  0.00000000  0.00000000  0.00000000  1
  Pt  Pt2  1  0.33333300  0.66666700  0.50000000  1
loop_
_geom_bond_atom_site_label_1
_geom_bond_atom_site_label_2
_geom_bond_distance
_geom_bond_site_symmetry_2
Sn0 Yb2 3.223579 1_556
Sn0 Yb2 3.223579 1_555
Sn0 Yb1 3.359281 1_455
Sn0 Yb1 3.359281 1_456
Sn0 Yb0 3.359281 1_555
Sn0 Yb0 3.359281 1_556
Sn1 Yb0 3.223579 1_555
Sn1 Yb0 3.223579 1_556
Sn1 Yb2 3.359281 1_655
Sn1 Yb1 3.359281 1_566
Sn1 Yb1 3.359281 1_565
Sn1 Yb2 3.359281 1_656
Sn2 Yb1 3.223579 1_555
Sn2 Yb1 3.223579 1_556
Sn2 Yb2 3.359281 1_546
Sn2 Yb2 3.359281 1_545
Sn2 Yb0 3.359281 1_555
Sn2 Yb0 3.359281 1_556
Pt0 Sn0 2.814430 1_655
Pt0 Sn2 2.814435 1_555
Pt0 Sn1 2.814437 1_555
Pt0 Yb1 3.052455 1_556
Pt0 Yb1 3.052455 1_555
Pt0 Yb2 3.052456 1_656
Pt0 Yb2 3.052456 1_655
Pt0 Yb0 3.052460 1_555
Pt0 Yb0 3.052460 1_556
Pt1 Sn1 2.818668 1_444
Pt1 Sn1 2.818668 1_445
Pt1 Sn0 2.818668 1_555
Pt1 Sn2 2.818668 1_554
Pt1 Sn0 2.818668 1_554
Pt1 Sn2 2.818668 1_555
Pt1 Yb0 3.047296 1_555
Pt1 Yb1 3.047296 1_455
Pt1 Yb2 3.047296 1_545
Pt2 Sn2 2.814430 1_565
Pt2 Sn0 2.814435 1_555
Pt2 Sn1 2.814437 1_555
Pt2 Yb2 3.052455 1_556
Pt2 Yb2 3.052455 1_555
Pt2 Yb1 3.052456 1_565
Pt2 Yb1 3.052456 1_566
Pt2 Yb0 3.052460 1_555
Pt2 Yb0 3.052460 1_556
