# generated using pymatgen
data_NaHf3MgP3(SO8)3
_symmetry_space_group_name_H-M   'P 1'
_cell_length_a   8.83785873
_cell_length_b   8.84255940
_cell_length_c   22.95305644
_cell_angle_alpha   90.03545819
_cell_angle_beta   90.02486811
_cell_angle_gamma   120.09893546
_symmetry_Int_Tables_number   1
_chemical_formula_structural   NaHf3MgP3(SO8)3
_chemical_formula_sum   'Na3 Hf9 Mg3 P9 S9 O72'
_cell_volume   1551.89425172
_cell_formula_units_Z   3
loop_
 _symmetry_equiv_pos_site_id
 _symmetry_equiv_pos_as_xyz
  1  'x, y, z'
loop_
 _atom_site_type_symbol
 _atom_site_label
 _atom_site_symmetry_multiplicity
 _atom_site_fract_x
 _atom_site_fract_y
 _atom_site_fract_z
 _atom_site_occupancy
  Na  Na0  1  0.66011312  0.33254921  0.83131119  1
  Na  Na1  1  0.67063878  0.33097334  0.33045838  1
  Na  Na2  1  0.33147316  0.67073120  0.16797878  1
  Hf  Hf0  1  0.99427889  0.99357002  0.35712526  1
  Hf  Hf1  1  0.00771783  0.00573609  0.85795049  1
  Hf  Hf2  1  0.99982910  0.00122419  0.64483691  1
  Hf  Hf3  1  0.99499517  0.99547431  0.14183768  1
  Hf  Hf4  1  0.67479205  0.33546495  0.98026911  1
  Hf  Hf5  1  0.67534743  0.34255310  0.47983795  1
  Hf  Hf6  1  0.33410338  0.67340054  0.01928094  1
  Hf  Hf7  1  0.34188648  0.67561360  0.52072075  1
  Hf  Hf8  1  0.33383877  0.65989045  0.81180323  1
  Mg  Mg0  1  0.65757441  0.33876574  0.68614620  1
  Mg  Mg1  1  0.67262164  0.33067063  0.18307066  1
  Mg  Mg2  1  0.33019811  0.67319441  0.31603627  1
  P  P0  1  0.29409486  0.28732527  0.74967064  1
  P  P1  1  0.66537522  0.61993534  0.58547611  1
  P  P2  1  0.95515440  0.61768143  0.08591536  1
  P  P3  1  0.66307008  0.04549542  0.08577101  1
  P  P4  1  0.62254570  0.66512711  0.91644252  1
  P  P5  1  0.04490891  0.38008049  0.91646093  1
  P  P6  1  0.33733414  0.95714696  0.91538033  1
  P  P7  1  0.61816246  0.95621551  0.41447598  1
  P  P8  1  0.04905970  0.66532905  0.41496329  1
  S  S0  1  0.29349634  0.00167246  0.24985979  1
  S  S1  1  0.70475285  0.70476609  0.24983658  1
  S  S2  1  0.00153031  0.29343824  0.25025559  1
  S  S3  1  0.99667887  0.70716974  0.74996503  1
  S  S4  1  0.71125669  0.00496663  0.74985506  1
  S  S5  1  0.95594009  0.33569521  0.58507980  1
  S  S6  1  0.38024159  0.04665044  0.58457690  1
  S  S7  1  0.38040999  0.33566225  0.08508460  1
  S  S8  1  0.33424557  0.37986258  0.41539360  1
  O  O0  1  0.20448440  0.02449512  0.30245369  1
  O  O1  1  0.81892184  0.79406226  0.30226710  1
  O  O2  1  0.97802975  0.18062019  0.30268464  1
  O  O3  1  0.19798683  0.17163803  0.80338530  1
  O  O4  1  0.97004778  0.79159913  0.80193295  1
  O  O5  1  0.82016594  0.02744057  0.80195309  1
  O  O6  1  0.79309448  0.97375383  0.69733959  1
  O  O7  1  0.17404002  0.19795658  0.69569881  1
  O  O8  1  0.02491493  0.81923966  0.69755547  1
  O  O9  1  0.79398534  0.81898348  0.19794875  1
  O  O10  1  0.02470864  0.20487536  0.19792376  1
  O  O11  1  0.18069667  0.97769125  0.19766461  1
  O  O12  1  0.87540278  0.36182154  0.63645164  1
  O  O13  1  0.48811843  0.12234246  0.63604486  1
  O  O14  1  0.63559860  0.50731710  0.63784974  1
  O  O15  1  0.87391278  0.50926430  0.13937220  1
  O  O16  1  0.63024484  0.12312797  0.13909717  1
  O  O17  1  0.48623769  0.36432081  0.13691523  1
  O  O18  1  0.45602619  0.30587403  0.03155916  1
  O  O19  1  0.84369117  0.53889897  0.02989486  1
  O  O20  1  0.69229610  0.15561376  0.02979395  1
  O  O21  1  0.45803398  0.15318836  0.53122439  1
  O  O22  1  0.69507630  0.53592598  0.52967923  1
  O  O23  1  0.84544110  0.30275471  0.53165639  1
  O  O24  1  0.53733221  0.69322812  0.97067193  1
  O  O25  1  0.15703428  0.46233945  0.97091510  1
  O  O26  1  0.30635128  0.84424816  0.97019851  1
  O  O27  1  0.53770951  0.84399466  0.47035575  1
  O  O28  1  0.30563314  0.45667009  0.46871434  1
  O  O29  1  0.15668033  0.69114840  0.47104925  1
  O  O30  1  0.12331741  0.62956040  0.36135211  1
  O  O31  1  0.50877804  0.87490295  0.36114080  1
  O  O32  1  0.36605147  0.48652730  0.36351165  1
  O  O33  1  0.12868866  0.49458269  0.86203657  1
  O  O34  1  0.36486510  0.87057137  0.86138960  1
  O  O35  1  0.50636880  0.63596302  0.86210772  1
  O  O36  1  0.02498856  0.82702329  0.40691194  1
  O  O37  1  0.80399356  0.97936279  0.40685669  1
  O  O38  1  0.17853288  0.20280080  0.40796117  1
  O  O39  1  0.02271947  0.19829154  0.90709621  1
  O  O40  1  0.17318814  0.97306889  0.90726934  1
  O  O41  1  0.80210632  0.82614673  0.90536148  1
  O  O42  1  0.97433498  0.17760703  0.59159135  1
  O  O43  1  0.20275326  0.02462521  0.59180826  1
  O  O44  1  0.82762887  0.80524051  0.59380015  1
  O  O45  1  0.97891804  0.80398754  0.09350682  1
  O  O46  1  0.82762009  0.02541400  0.09350099  1
  O  O47  1  0.20295943  0.17847276  0.09248094  1
  O  O48  1  0.69422687  0.15946363  0.74204898  1
  O  O49  1  0.47351783  0.30621311  0.74427466  1
  O  O50  1  0.84466374  0.53312784  0.74294083  1
  O  O51  1  0.69187463  0.53383793  0.24393882  1
  O  O52  1  0.84301128  0.30664322  0.24513874  1
  O  O53  1  0.46525371  0.16067950  0.24432729  1
  O  O54  1  0.64032527  0.50126753  0.92390499  1
  O  O55  1  0.86096697  0.35867084  0.92281318  1
  O  O56  1  0.49701751  0.14088545  0.92391312  1
  O  O57  1  0.64302540  0.14099100  0.42635264  1
  O  O58  1  0.48867849  0.35495629  0.42446381  1
  O  O59  1  0.85997414  0.50536704  0.42483619  1
  O  O60  1  0.35619072  0.48945262  0.07680887  1
  O  O61  1  0.14076945  0.64306042  0.07606681  1
  O  O62  1  0.50547333  0.85753602  0.07615801  1
  O  O63  1  0.35555608  0.86931769  0.57487135  1
  O  O64  1  0.50610827  0.64273851  0.57199014  1
  O  O65  1  0.13053459  0.48727951  0.57387581  1
  O  O66  1  0.30663422  0.84313760  0.25536381  1
  O  O67  1  0.53373126  0.69181325  0.25644925  1
  O  O68  1  0.16069591  0.46519559  0.25635116  1
  O  O69  1  0.30563379  0.46670664  0.75854599  1
  O  O70  1  0.15773322  0.69668050  0.75754161  1
  O  O71  1  0.53769384  0.84569611  0.75729481  1
loop_
_geom_bond_atom_site_label_1
_geom_bond_atom_site_label_2
_geom_bond_distance
_geom_bond_site_symmetry_2
Na0 O49 2.525108 1_555
Na0 O56 2.650409 1_555
Na0 O50 2.650687 1_555
Na0 O54 2.651676 1_555
Na0 O48 2.662820 1_555
Na0 O55 2.683350 1_555
Na1 O52 2.555965 1_555
Na1 O53 2.592772 1_555
Na1 O51 2.619906 1_555
Na1 O59 2.697278 1_555
Na1 O57 2.705597 1_555
Na1 O58 2.762483 1_555
Na2 O66 2.593770 1_555
Na2 O61 2.633212 1_555
Na2 O68 2.636580 1_555
Na2 O62 2.644720 1_555
Na2 O67 2.648731 1_555
Na2 O60 2.709940 1_555
Hf0 O37 1.984158 1_555
Hf0 O36 1.987740 1_655
Hf0 O1 2.086359 1_555
Hf0 O38 2.100031 1_665
Hf0 O2 2.135049 1_565
Hf0 O0 2.143294 1_665
Hf1 O40 1.981462 1_545
Hf1 O39 1.990041 1_555
Hf1 O3 2.019463 1_555
Hf1 O41 2.029208 1_445
Hf1 O4 2.171129 1_445
Hf1 O5 2.180341 1_455
Hf2 O44 2.010556 1_545
Hf2 O7 2.017230 1_655
Hf2 O42 2.081247 1_555
Hf2 O43 2.090611 1_655
Hf2 O6 2.099204 1_545
Hf2 O8 2.112569 1_645
Hf3 O45 1.968272 1_555
Hf3 O46 1.969999 1_565
Hf3 O47 2.073901 1_665
Hf3 O9 2.115178 1_555
Hf3 O11 2.148844 1_655
Hf3 O10 2.159596 1_665
Hf4 O19 2.016026 1_556
Hf4 O20 2.023404 1_556
Hf4 O55 2.037692 1_555
Hf4 O54 2.089490 1_555
Hf4 O56 2.094341 1_555
Hf4 O18 2.165059 1_556
Hf5 O22 1.990309 1_555
Hf5 O59 1.994201 1_555
Hf5 O57 2.061975 1_555
Hf5 O23 2.080355 1_555
Hf5 O58 2.128146 1_555
Hf5 O21 2.159281 1_555
Hf6 O26 1.996292 1_554
Hf6 O62 2.042441 1_555
Hf6 O24 2.046392 1_554
Hf6 O25 2.056961 1_554
Hf6 O61 2.057414 1_555
Hf6 O60 2.179060 1_555
Hf7 O27 1.991938 1_555
Hf7 O64 1.999481 1_555
Hf7 O29 2.054755 1_555
Hf7 O63 2.069531 1_555
Hf7 O65 2.153022 1_555
Hf7 O28 2.156483 1_555
Hf8 O35 2.006320 1_555
Hf8 O69 2.011115 1_555
Hf8 O33 2.024628 1_555
Hf8 O34 2.079892 1_555
Hf8 O71 2.132194 1_555
Hf8 O70 2.141507 1_555
Mg0 O14 1.944265 1_555
Mg0 O49 2.010419 1_555
Mg0 O13 2.085396 1_555
Mg0 O50 2.128910 1_555
Mg0 O12 2.158082 1_555
Mg0 O48 2.186878 1_555
Mg1 O16 1.958315 1_555
Mg1 O15 1.962260 1_555
Mg1 O17 2.101130 1_555
Mg1 O52 2.159134 1_555
Mg1 O53 2.199304 1_555
Mg1 O51 2.213241 1_555
Mg2 O30 1.966804 1_555
Mg2 O31 1.979114 1_555
Mg2 O32 2.130471 1_555
Mg2 O66 2.134757 1_555
Mg2 O68 2.176078 1_555
Mg2 O67 2.199721 1_555
O0 S0 1.508858 1_555
O1 S1 1.512784 1_555
O2 S2 1.510106 1_655
O3 P0 1.555309 1_555
O4 S3 1.486934 1_555
O5 S4 1.484170 1_555
O6 S4 1.500943 1_565
O7 P0 1.562565 1_555
O8 S3 1.498378 1_455
O9 S1 1.504610 1_555
O10 S2 1.502669 1_555
O11 S0 1.503565 1_565
O12 S5 1.454542 1_555
O13 S6 1.452771 1_555
O14 P1 1.498324 1_555
O15 P2 1.500651 1_555
O16 P3 1.500862 1_555
O17 S7 1.454387 1_555
O18 S7 1.483996 1_555
O19 P2 1.555183 1_555
O20 P3 1.554112 1_555
O21 S6 1.487400 1_555
O22 P1 1.567051 1_555
O23 S5 1.501797 1_555
O24 P4 1.538308 1_555
O25 P5 1.532362 1_555
O26 P6 1.543524 1_555
O27 P7 1.558860 1_555
O28 S8 1.481414 1_555
O29 P8 1.547518 1_555
O30 P8 1.501127 1_555
O31 P7 1.500310 1_555
O32 S8 1.456882 1_555
O33 P5 1.544131 1_555
O34 P6 1.538483 1_555
O35 P4 1.552104 1_555
O36 P8 1.558552 1_555
O37 P7 1.559782 1_555
O38 S8 1.487508 1_555
O39 P5 1.533625 1_555
O40 P6 1.537421 1_555
O41 P4 1.531291 1_555
O42 S5 1.493680 1_555
O43 S6 1.489929 1_555
O44 P1 1.555759 1_555
O45 P2 1.562389 1_555
O46 P3 1.561005 1_555
O47 S7 1.494816 1_555
O48 S4 1.458639 1_555
O49 P0 1.514031 1_555
O50 S3 1.457782 1_555
O51 S1 1.463875 1_555
O52 S2 1.467682 1_655
O53 S0 1.468663 1_555
O54 P4 1.543403 1_555
O55 P5 1.546417 1_655
O56 P6 1.539264 1_545
O57 P7 1.559323 1_545
O58 S8 1.501991 1_555
O59 P8 1.573092 1_655
O60 S7 1.491128 1_555
O61 P2 1.556807 1_455
O62 P3 1.558348 1_565
O63 S6 1.487442 1_565
O64 P1 1.549878 1_555
O65 S5 1.473116 1_455
O66 S0 1.469047 1_565
O67 S1 1.465356 1_555
O68 S2 1.470290 1_555
O69 P0 1.550884 1_555
O70 S3 1.482250 1_455
O71 S4 1.483007 1_565
