# generated using pymatgen
data_USe2O7
_symmetry_space_group_name_H-M   'P 1'
_cell_length_a   6.70210830
_cell_length_b   9.43046914
_cell_length_c   11.61484355
_cell_angle_alpha   109.92577121
_cell_angle_beta   92.64348038
_cell_angle_gamma   93.82507687
_symmetry_Int_Tables_number   1
_chemical_formula_structural   USe2O7
_chemical_formula_sum   'U4 Se8 O28'
_cell_volume   686.76249825
_cell_formula_units_Z   4
loop_
 _symmetry_equiv_pos_site_id
 _symmetry_equiv_pos_as_xyz
  1  'x, y, z'
loop_
 _atom_site_type_symbol
 _atom_site_label
 _atom_site_symmetry_multiplicity
 _atom_site_fract_x
 _atom_site_fract_y
 _atom_site_fract_z
 _atom_site_occupancy
  U  U0  1  0.86979824  0.34606472  0.76043066  1
  U  U1  1  0.13020176  0.65393528  0.23956934  1
  U  U2  1  0.57648667  0.95195304  0.76060668  1
  U  U3  1  0.42351333  0.04804696  0.23939332  1
  Se  Se0  1  0.51101720  0.63495762  0.88158741  1
  Se  Se1  1  0.48898280  0.36504238  0.11841259  1
  Se  Se2  1  0.96411091  0.76514229  0.88291169  1
  Se  Se3  1  0.03588909  0.23485771  0.11708831  1
  Se  Se4  1  0.34498096  0.24885777  0.65204337  1
  Se  Se5  1  0.65501904  0.75114223  0.34795663  1
  Se  Se6  1  0.07060592  0.95747596  0.65220680  1
  Se  Se7  1  0.92939408  0.04252404  0.34779320  1
  O  O0  1  0.43532602  0.75083724  0.81061743  1
  O  O1  1  0.56467398  0.24916276  0.18938257  1
  O  O2  1  0.02366525  0.58958384  0.81054240  1
  O  O3  1  0.97633475  0.41041616  0.18945760  1
  O  O4  1  0.54296341  0.18317106  0.70997987  1
  O  O5  1  0.45703659  0.81682894  0.29002013  1
  O  O6  1  0.89155315  0.07497512  0.71721562  1
  O  O7  1  0.10844685  0.92502488  0.28278438  1
  O  O8  1  0.23866807  0.99031119  0.77174740  1
  O  O9  1  0.76133193  0.00968881  0.22825260  1
  O  O10  1  0.21181420  0.31642131  0.77504956  1
  O  O11  1  0.78818580  0.68357869  0.22495044  1
  O  O12  1  0.47306887  0.15470818  0.40018701  1
  O  O13  1  0.52693113  0.84529182  0.59981299  1
  O  O14  1  0.36739945  0.93535021  0.08086482  1
  O  O15  1  0.63260055  0.06464979  0.91913518  1
  O  O16  1  0.15590024  0.62980652  0.08131505  1
  O  O17  1  0.84409976  0.37019348  0.91868495  1
  O  O18  1  0.10853094  0.68581841  0.39957086  1
  O  O19  1  0.89146906  0.31418159  0.60042914  1
  O  O20  1  0.80385274  0.93067951  0.42747949  1
  O  O21  1  0.19614726  0.06932049  0.57252051  1
  O  O22  1  0.25317139  0.26700878  0.03894874  1
  O  O23  1  0.74682861  0.73299122  0.96105126  1
  O  O24  1  0.15036743  0.19065305  0.23241061  1
  O  O25  1  0.84963257  0.80934695  0.76758939  1
  O  O26  1  0.40226000  0.50580742  0.23498369  1
  O  O27  1  0.59774000  0.49419258  0.76501631  1
loop_
_geom_bond_atom_site_label_1
_geom_bond_atom_site_label_2
_geom_bond_distance
_geom_bond_site_symmetry_2
O0 Se0 1.667458 1_555
O0 U2 2.322028 1_555
O1 Se1 1.667458 1_555
O1 U3 2.322028 1_555
O2 Se2 1.666563 1_455
O2 U0 2.322437 1_455
O3 Se3 1.666563 1_655
O3 U1 2.322437 1_655
O4 Se4 1.705475 1_555
O4 U2 2.465344 1_545
O4 U0 2.514056 1_555
O5 Se5 1.705475 1_555
O5 U3 2.465344 1_565
O5 U1 2.514056 1_555
O6 Se6 1.711357 1_645
O6 U0 2.447601 1_555
O6 U2 2.495735 1_545
O7 Se7 1.711357 1_465
O7 U1 2.447601 1_555
O7 U3 2.495735 1_565
O8 Se6 1.675869 1_555
O8 U2 2.319078 1_555
O9 Se7 1.675869 1_555
O9 U3 2.319078 1_555
O10 Se4 1.678309 1_555
O10 U0 2.333074 1_455
O11 Se5 1.678309 1_555
O11 U1 2.333074 1_655
O12 U3 1.796598 1_555
O13 U2 1.796598 1_555
O14 U3 1.791716 1_565
O15 U2 1.791716 1_545
O16 U1 1.791479 1_555
O17 U0 1.791479 1_555
O18 U1 1.793038 1_555
O19 U0 1.793038 1_555
O20 Se7 1.815456 1_565
O20 Se5 1.827168 1_555
O21 Se6 1.815456 1_545
O21 Se4 1.827168 1_555
O22 Se3 1.812969 1_555
O22 Se1 1.814728 1_555
O23 Se2 1.812969 1_555
O23 Se0 1.814728 1_555
O24 Se3 1.698542 1_555
O24 U3 2.357031 1_555
O25 Se2 1.698542 1_555
O25 U2 2.357031 1_555
O26 Se1 1.698138 1_555
O26 U1 2.361556 1_555
O27 Se0 1.698138 1_555
O27 U0 2.361556 1_555
