# generated using pymatgen
data_MgFe4(OF)4
_symmetry_space_group_name_H-M   'P 1'
_cell_length_a   5.66264640
_cell_length_b   5.99050780
_cell_length_c   5.82566061
_cell_angle_alpha   120.12713137
_cell_angle_beta   86.46636159
_cell_angle_gamma   89.38875960
_symmetry_Int_Tables_number   1
_chemical_formula_structural   MgFe4(OF)4
_chemical_formula_sum   'Mg1 Fe4 O4 F4'
_cell_volume   170.40004662
_cell_formula_units_Z   1
loop_
 _symmetry_equiv_pos_site_id
 _symmetry_equiv_pos_as_xyz
  1  'x, y, z'
loop_
 _atom_site_type_symbol
 _atom_site_label
 _atom_site_symmetry_multiplicity
 _atom_site_fract_x
 _atom_site_fract_y
 _atom_site_fract_z
 _atom_site_occupancy
  Mg  Mg0  1  0.99990400  0.49649300  0.24497600  1
  Fe  Fe0  1  0.90345400  0.91948800  0.93495500  1
  Fe  Fe1  1  0.10781800  0.08263500  0.54512500  1
  Fe  Fe2  1  0.42918800  0.58011600  0.56738900  1
  Fe  Fe3  1  0.58523300  0.42119400  0.92221200  1
  O  O0  1  0.12578200  0.75930400  0.61278000  1
  O  O1  1  0.37719100  0.29841300  0.61469000  1
  O  O2  1  0.62524900  0.73830100  0.86644300  1
  O  O3  1  0.87818800  0.21905500  0.88941400  1
  F  F0  1  0.07466100  0.76150500  0.12980600  1
  F  F1  1  0.33196000  0.35664700  0.16293400  1
  F  F2  1  0.67091600  0.65962600  0.35138200  1
  F  F3  1  0.90434500  0.21912800  0.33497400  1
loop_
_geom_bond_atom_site_label_1
_geom_bond_atom_site_label_2
_geom_bond_distance
_geom_bond_site_symmetry_2
Mg0 O3 2.066997 1_554
Mg0 O0 2.098512 1_655
Fe0 O2 1.870381 1_555
Fe0 O3 1.946390 1_565
Fe0 O0 1.975724 1_655
Fe1 O1 1.937588 1_555
Fe1 O3 2.095703 1_455
Fe1 O0 2.164351 1_545
Fe2 O1 1.864896 1_555
Fe2 O2 1.941494 1_555
Fe2 O0 1.947738 1_555
Fe3 O3 1.985091 1_555
Fe3 O1 2.023429 1_555
Fe3 O2 2.094076 1_555
F0 Mg0 2.048969 1_455
F0 Fe0 2.078125 1_454
F0 Fe1 2.231896 1_565
F1 Mg0 1.979777 1_455
F1 Fe3 2.116907 1_554
F1 Fe2 2.157836 1_555
F2 Mg0 2.005125 1_555
F2 Fe2 2.021712 1_555
F2 Fe3 2.259652 1_554
F3 Mg0 2.046259 1_555
F3 Fe0 2.110745 1_544
F3 Fe1 2.157226 1_655
