# generated using pymatgen
data_Na6Sc4Si5Sn4S7O48
_symmetry_space_group_name_H-M   'P 1'
_cell_length_a   17.87709377
_cell_length_b   8.91733804
_cell_length_c   23.06800849
_cell_angle_alpha   89.99914177
_cell_angle_beta   89.97164498
_cell_angle_gamma   119.98766296
_symmetry_Int_Tables_number   1
_chemical_formula_structural   Na6Sc4Si5Sn4S7O48
_chemical_formula_sum   'Na18 Sc12 Si15 Sn12 S21 O144'
_cell_volume   3185.12723954
_cell_formula_units_Z   3
loop_
 _symmetry_equiv_pos_site_id
 _symmetry_equiv_pos_as_xyz
  1  'x, y, z'
loop_
 _atom_site_type_symbol
 _atom_site_label
 _atom_site_symmetry_multiplicity
 _atom_site_fract_x
 _atom_site_fract_y
 _atom_site_fract_z
 _atom_site_occupancy
  Na  Na0  1  0.99975872  0.62905340  0.25430370  1
  Na  Na1  1  0.49755414  0.62953465  0.25125226  1
  Na  Na2  1  0.99756839  0.36830994  0.75083594  1
  Na  Na3  1  0.50148198  0.36276921  0.75286657  1
  Na  Na4  1  0.66392123  0.30463889  0.91766344  1
  Na  Na5  1  0.16564724  0.02253149  0.42690117  1
  Na  Na6  1  0.99947395  0.99456160  0.50619600  1
  Na  Na7  1  0.50637080  0.99946604  0.50353442  1
  Na  Na8  1  0.00480453  0.01072598  0.99848010  1
  Na  Na9  1  0.50095986  0.00939806  0.99977379  1
  Na  Na10  1  0.32948378  0.32303687  0.83797952  1
  Na  Na11  1  0.83347550  0.33444294  0.82261542  1
  Na  Na12  1  0.34309359  0.34620666  0.32799037  1
  Na  Na13  1  0.82534267  0.33065365  0.34032960  1
  Na  Na14  1  0.18263567  0.66200484  0.16478797  1
  Na  Na15  1  0.66991435  0.65279786  0.16247648  1
  Na  Na16  1  0.17130235  0.68974628  0.66563422  1
  Na  Na17  1  0.68073366  0.69011969  0.67140692  1
  Sc  Sc0  1  0.99693018  0.98944074  0.35701203  1
  Sc  Sc1  1  0.50204324  0.01205070  0.85375281  1
  Sc  Sc2  1  0.32470923  0.33306380  0.67936860  1
  Sc  Sc3  1  0.82370440  0.31163242  0.69165621  1
  Sc  Sc4  1  0.33082033  0.34723060  0.18744645  1
  Sc  Sc5  1  0.82273145  0.31494277  0.17794419  1
  Sc  Sc6  1  0.82953524  0.31857123  0.98688420  1
  Sc  Sc7  1  0.33165217  0.34533007  0.48973467  1
  Sc  Sc8  1  0.17033784  0.66579295  0.31453193  1
  Sc  Sc9  1  0.66563555  0.64593683  0.31441157  1
  Sc  Sc10  1  0.16745701  0.68683922  0.81407997  1
  Sc  Sc11  1  0.66807392  0.66146490  0.81057629  1
  Si  Si0  1  0.35606527  0.71821617  0.25062586  1
  Si  Si1  1  0.49858634  0.29662121  0.24921650  1
  Si  Si2  1  0.64330440  0.28833989  0.75046289  1
  Si  Si3  1  0.00091807  0.70133762  0.74888359  1
  Si  Si4  1  0.85727728  0.99555397  0.75082591  1
  Si  Si5  1  0.18151904  0.04012788  0.58228102  1
  Si  Si6  1  0.68968737  0.03783825  0.58133258  1
  Si  Si7  1  0.33318317  0.63505434  0.58381462  1
  Si  Si8  1  0.83065698  0.03209371  0.08263063  1
  Si  Si9  1  0.19007489  0.34164773  0.08222023  1
  Si  Si10  1  0.68135415  0.32587929  0.08196688  1
  Si  Si11  1  0.51941774  0.37952569  0.91638085  1
  Si  Si12  1  0.16286804  0.95922002  0.91795637  1
  Si  Si13  1  0.66402145  0.36730463  0.41781122  1
  Si  Si14  1  0.02044693  0.65753176  0.41507473  1
  Sn  Sn0  1  0.50058467  0.01378801  0.35056806  1
  Sn  Sn1  1  0.00050137  0.98552216  0.84993468  1
  Sn  Sn2  1  0.00174859  0.98795536  0.65038166  1
  Sn  Sn3  1  0.50689782  0.99849865  0.64445676  1
  Sn  Sn4  1  0.00196110  0.01427022  0.14197701  1
  Sn  Sn5  1  0.50098113  0.01451500  0.14902898  1
  Sn  Sn6  1  0.32812670  0.32289634  0.97911671  1
  Sn  Sn7  1  0.82908643  0.33560219  0.48080001  1
  Sn  Sn8  1  0.16497475  0.66494250  0.01586739  1
  Sn  Sn9  1  0.66688589  0.65791704  0.02109828  1
  Sn  Sn10  1  0.16615661  0.67682520  0.52344503  1
  Sn  Sn11  1  0.66393852  0.66179359  0.51786421  1
  S  S0  1  0.14233364  0.99916653  0.25019154  1
  S  S1  1  0.64870851  0.00263811  0.25142781  1
  S  S2  1  0.85730050  0.71329944  0.24849103  1
  S  S3  1  0.99918460  0.29098175  0.25109990  1
  S  S4  1  0.14893338  0.29497729  0.75149238  1
  S  S5  1  0.49749434  0.70450237  0.75102063  1
  S  S6  1  0.35555775  -0.00004225  0.74821263  1
  S  S7  1  0.48066926  0.33413323  0.58434933  1
  S  S8  1  0.97754508  0.32872845  0.58283209  1
  S  S9  1  0.83336249  0.62753098  0.58296701  1
  S  S10  1  0.47818046  0.62811435  0.08323909  1
  S  S11  1  0.98174762  0.62731822  0.08576617  1
  S  S12  1  0.33226185  0.03871221  0.08343105  1
  S  S13  1  0.31294519  0.66713241  0.91614801  1
  S  S14  1  0.81495335  0.66911108  0.91759355  1
  S  S15  1  0.01865919  0.36972537  0.91523424  1
  S  S16  1  0.66681824  0.95566112  0.91702889  1
  S  S17  1  0.31443508  0.96037222  0.41701083  1
  S  S18  1  0.81205952  0.95835906  0.41577317  1
  S  S19  1  0.16754205  0.37499578  0.41657584  1
  S  S20  1  0.51840626  0.66740961  0.41481869  1
  O  O0  1  0.10201680  0.02264170  0.30312398  1
  O  O1  1  0.60931342  0.03043545  0.30421910  1
  O  O2  1  0.42179391  0.79876550  0.30739653  1
  O  O3  1  0.91200452  0.79866541  0.30030664  1
  O  O4  1  0.48107971  0.18144335  0.30796189  1
  O  O5  1  0.98921731  0.18448311  0.30223346  1
  O  O6  1  0.10958447  0.18785870  0.80419670  1
  O  O7  1  0.59910335  0.17549937  0.80976151  1
  O  O8  1  0.48410540  0.78646251  0.80219089  1
  O  O9  1  0.98310751  0.78088034  0.80780722  1
  O  O10  1  0.40864593  0.02290852  0.80045456  1
  O  O11  1  0.92390891  0.04654499  0.80749135  1
  O  O12  1  0.39416942  0.97428092  0.69514124  1
  O  O13  1  0.90158693  0.96992693  0.69118589  1
  O  O14  1  0.09374426  0.21937424  0.69899174  1
  O  O15  1  0.57466208  0.19876378  0.69529514  1
  O  O16  1  0.02677830  0.82827942  0.69233363  1
  O  O17  1  0.50831448  0.80475676  0.69691501  1
  O  O18  1  0.40103154  0.83017262  0.19138038  1
  O  O19  1  0.89967956  0.81856270  0.19562239  1
  O  O20  1  0.01235839  0.21257729  0.19740951  1
  O  O21  1  0.52367912  0.22152139  0.19260608  1
  O  O22  1  0.08372576  0.96493092  0.19880879  1
  O  O23  1  0.59329915  0.96794397  0.19919829  1
  O  O24  1  0.44190377  0.35722731  0.63764443  1
  O  O25  1  0.94103603  0.35836635  0.63500341  1
  O  O26  1  0.24211114  0.13244778  0.63804735  1
  O  O27  1  0.74709440  0.12075936  0.63782017  1
  O  O28  1  0.31906208  0.51709894  0.64062519  1
  O  O29  1  0.82445405  0.52592839  0.63391723  1
  O  O30  1  0.44119313  0.52489030  0.13661405  1
  O  O31  1  0.94310429  0.52749350  0.13971046  1
  O  O32  1  0.32269531  0.12126573  0.13535333  1
  O  O33  1  0.81890397  0.11919967  0.14139895  1
  O  O34  1  0.24555368  0.37114589  0.14025881  1
  O  O35  1  0.74113029  0.35486576  0.13910502  1
  O  O36  1  0.23210494  0.30942550  0.02443275  1
  O  O37  1  0.72555391  0.30537787  0.02245769  1
  O  O38  1  0.42467562  0.54466009  0.03119894  1
  O  O39  1  0.92885862  0.54628897  0.03417036  1
  O  O40  1  0.34652064  0.14255422  0.02986985  1
  O  O41  1  0.85076054  0.15577422  0.02640775  1
  O  O42  1  0.22373462  0.14481961  0.52109580  1
  O  O43  1  0.73033956  0.15145362  0.52173896  1
  O  O44  1  0.35220515  0.55230458  0.52609082  1
  O  O45  1  0.84855197  0.55530063  0.52820921  1
  O  O46  1  0.42870502  0.31594536  0.53214830  1
  O  O47  1  0.92561790  0.30657651  0.52927490  1
  O  O48  1  0.27519113  0.69555456  0.97065813  1
  O  O49  1  0.77700862  0.69786257  0.97119468  1
  O  O50  1  0.07273440  0.44828051  0.96915222  1
  O  O51  1  0.58575675  0.46484674  0.97222279  1
  O  O52  1  0.14731446  0.84079431  0.97724446  1
  O  O53  1  0.65670924  0.85536299  0.97095996  1
  O  O54  1  0.27494713  0.85469636  0.46980712  1
  O  O55  1  0.77459512  0.85352741  0.46912894  1
  O  O56  1  0.15423287  0.45229910  0.46909798  1
  O  O57  1  0.64850556  0.45695969  0.47579603  1
  O  O58  1  0.08872583  0.70832590  0.46924817  1
  O  O59  1  0.57235798  0.69511716  0.46771944  1
  O  O60  1  0.06145760  0.63553122  0.35444286  1
  O  O61  1  0.56153415  0.65177966  0.36213554  1
  O  O62  1  0.25919154  0.87625357  0.36543574  1
  O  O63  1  0.75906310  0.87764071  0.36427919  1
  O  O64  1  0.17915056  0.48020730  0.36431749  1
  O  O65  1  0.67860970  0.48633461  0.36095788  1
  O  O66  1  0.06261824  0.47292374  0.86332263  1
  O  O67  1  0.56063763  0.48747601  0.85734990  1
  O  O68  1  0.17735823  0.86797799  0.86216702  1
  O  O69  1  0.67834618  0.87382903  0.86580967  1
  O  O70  1  0.25836603  0.64003203  0.86552759  1
  O  O71  1  0.76014804  0.64195583  0.86662204  1
  O  O72  1  0.01393843  0.83769508  0.40979954  1
  O  O73  1  0.50908101  0.82411881  0.41161730  1
  O  O74  1  0.40010238  0.97372472  0.41239235  1
  O  O75  1  0.89980418  0.97767466  0.41007266  1
  O  O76  1  0.08945724  0.19811289  0.40993325  1
  O  O77  1  0.57735814  0.17191887  0.41325338  1
  O  O78  1  0.00918077  0.19462462  0.91232695  1
  O  O79  1  0.51109323  0.18606991  0.91374422  1
  O  O80  1  0.07676586  0.98248127  0.91377932  1
  O  O81  1  0.58808679  0.97354488  0.91354188  1
  O  O82  1  0.39947022  0.82020468  0.91089098  1
  O  O83  1  0.90128249  0.82689236  0.91329619  1
  O  O84  1  0.48874199  0.17715542  0.58677995  1
  O  O85  1  0.98649943  0.17193308  0.58639977  1
  O  O86  1  0.08603279  0.02985645  0.58614722  1
  O  O87  1  0.59294907  0.01792651  0.58484257  1
  O  O88  1  0.41631865  0.83192004  0.59042570  1
  O  O89  1  0.90964271  0.80678216  0.58526706  1
  O  O90  1  0.48623961  0.80179994  0.08810929  1
  O  O91  1  0.99193908  0.80413497  0.09078593  1
  O  O92  1  0.40870554  0.01330987  0.08606338  1
  O  O93  1  0.91508356  0.00213255  0.08772794  1
  O  O94  1  0.09399153  0.16351286  0.08720307  1
  O  O95  1  0.58601680  0.14355294  0.08623055  1
  O  O96  1  0.35038267  0.16172001  0.74420216  1
  O  O97  1  0.85328733  0.17279066  0.74620299  1
  O  O98  1  0.23478611  0.31014368  0.74581734  1
  O  O99  1  0.73728715  0.30903327  0.74565804  1
  O  O100  1  0.42218038  0.52526187  0.74552434  1
  O  O101  1  0.91792720  0.51163696  0.74145195  1
  O  O102  1  0.34840557  0.52783079  0.24619364  1
  O  O103  1  0.85215473  0.54193356  0.24448209  1
  O  O104  1  0.41367328  0.31831474  0.24267998  1
  O  O105  1  0.92303396  0.31457260  0.24573000  1
  O  O106  1  0.22777615  0.15028816  0.24343067  1
  O  O107  1  0.73485408  0.16021460  0.24592855  1
  O  O108  1  0.32139100  0.50989286  0.92194612  1
  O  O109  1  0.82291698  0.51190412  0.92333134  1
  O  O110  1  0.42498857  0.36621710  0.92637571  1
  O  O111  1  0.93439698  0.36047143  0.92149207  1
  O  O112  1  0.25006842  0.15021654  0.92104067  1
  O  O113  1  0.74313233  0.13539248  0.92143093  1
  O  O114  1  0.32202807  0.13299126  0.42169192  1
  O  O115  1  0.82333267  0.13410946  0.42112022  1
  O  O116  1  0.24363204  0.34988010  0.42034757  1
  O  O117  1  0.75162209  0.35223578  0.42099678  1
  O  O118  1  0.43330905  0.50808929  0.42021182  1
  O  O119  1  0.92597001  0.48647820  0.42530699  1
  O  O120  1  0.17616775  0.51265569  0.07462955  1
  O  O121  1  0.67059613  0.49816150  0.08084775  1
  O  O122  1  0.06962228  0.64683249  0.08093832  1
  O  O123  1  0.56565116  0.64927529  0.07711253  1
  O  O124  1  0.25253936  0.86432337  0.07783544  1
  O  O125  1  0.74119996  0.84567521  0.07608900  1
  O  O126  1  0.17005997  0.84506614  0.58122160  1
  O  O127  1  0.67731856  0.83931348  0.57398352  1
  O  O128  1  0.24246589  0.63934825  0.57560344  1
  O  O129  1  0.75340406  0.64099294  0.57672142  1
  O  O130  1  0.06611400  0.48319500  0.57570721  1
  O  O131  1  0.56893769  0.49177723  0.57979916  1
  O  O132  1  0.14772669  0.83814303  0.25454245  1
  O  O133  1  0.65709433  0.84747410  0.25825078  1
  O  O134  1  0.26068567  0.69925596  0.25736750  1
  O  O135  1  0.77199825  0.69754992  0.25367360  1
  O  O136  1  0.07774067  0.46644082  0.25451753  1
  O  O137  1  0.58225719  0.49585774  0.25535825  1
  O  O138  1  0.15693307  0.46656154  0.75831810  1
  O  O139  1  0.64645730  0.47521337  0.75319719  1
  O  O140  1  0.08545605  0.67273575  0.75507426  1
  O  O141  1  0.57648302  0.69082707  0.75510605  1
  O  O142  1  0.26879792  0.84606578  0.75404491  1
  O  O143  1  0.76249177  0.82753420  0.75779368  1
loop_
_geom_bond_atom_site_label_1
_geom_bond_atom_site_label_2
_geom_bond_distance
_geom_bond_site_symmetry_2
Na0 O132 2.354465 1_655
Na0 O103 2.359907 1_555
Na0 O105 2.437207 1_555
Na0 O136 2.463129 1_655
Na0 O60 2.548514 1_655
Na0 O31 2.814172 1_555
Na0 O3 2.871437 1_555
Na0 O22 2.892506 1_655
Na1 O137 2.351038 1_555
Na1 O102 2.351287 1_555
Na1 O104 2.414542 1_555
Na1 O133 2.529269 1_555
Na1 O61 2.768811 1_555
Na1 O2 2.798300 1_555
Na1 O30 2.818167 1_555
Na1 O23 2.883178 1_555
Na2 O97 2.282334 1_555
Na2 O101 2.350908 1_555
Na2 O140 2.363071 1_655
Na2 O138 2.533653 1_655
Na2 O66 2.806142 1_655
Na2 O11 2.810007 1_555
Na2 O25 2.842897 1_555
Na2 O14 2.903608 1_655
Na3 O139 2.263807 1_555
Na3 O96 2.389620 1_555
Na3 O100 2.488334 1_555
Na3 O141 2.537233 1_555
Na3 O67 2.644091 1_555
Na3 O15 2.743184 1_555
Na3 O10 2.848599 1_555
Na3 O24 2.855120 1_555
Na4 O79 2.388133 1_555
Na4 O109 2.502232 1_555
Na4 O113 2.535161 1_555
Na4 O81 2.561843 1_545
Na4 O37 2.655788 1_556
Na4 O7 2.744708 1_555
Na4 O51 2.751627 1_555
Na4 O71 2.866850 1_555
Na5 O72 2.400087 1_545
Na5 O42 2.420589 1_555
Na5 O114 2.459110 1_555
Na5 O116 2.533612 1_555
Na5 O76 2.567526 1_555
Na5 O58 2.615882 1_545
Na6 O86 2.326169 1_665
Na6 O89 2.453332 1_555
Na6 O85 2.518914 1_565
Na6 O72 2.707291 1_655
Na6 O75 2.801778 1_555
Na6 O76 2.809091 1_665
Na7 O87 2.385123 1_565
Na7 O77 2.521718 1_565
Na7 O88 2.536519 1_555
Na7 O84 2.606965 1_565
Na7 O73 2.649317 1_555
Na7 O74 2.765905 1_555
Na8 O80 2.420223 1_545
Na8 O94 2.533585 1_556
Na8 O78 2.552750 1_555
Na8 O93 2.586682 1_456
Na8 O83 2.635268 1_445
Na8 O91 2.748921 1_446
Na9 O95 2.430131 1_556
Na9 O79 2.483436 1_555
Na9 O92 2.595703 1_556
Na9 O81 2.641954 1_545
Na9 O90 2.676000 1_546
Na9 O82 2.699264 1_545
Na10 O112 2.423212 1_555
Na10 O110 2.562738 1_555
Na10 O108 2.605741 1_555
Na10 O98 2.684784 1_555
Na10 O96 2.724910 1_555
Na10 O100 2.748793 1_555
Na11 O99 2.402775 1_555
Na11 O97 2.412521 1_555
Na11 O101 2.427744 1_555
Na11 O113 2.843528 1_555
Na11 O111 2.845502 1_555
Na11 O109 2.869833 1_555
Na12 O104 2.416187 1_555
Na12 O102 2.457329 1_555
Na12 O118 2.624279 1_555
Na12 O106 2.740604 1_555
Na12 O114 2.777094 1_555
Na12 O116 2.784986 1_555
Na13 O117 2.342594 1_555
Na13 O115 2.546224 1_555
Na13 O119 2.552331 1_555
Na13 O107 2.686046 1_555
Na13 O103 2.786409 1_555
Na13 O105 2.842409 1_555
Na14 O120 2.441087 1_555
Na14 O134 2.481486 1_555
Na14 O124 2.565852 1_555
Na14 O136 2.751206 1_555
Na14 O122 2.751737 1_555
Na14 O132 2.849908 1_555
Na15 O121 2.337569 1_555
Na15 O125 2.521866 1_555
Na15 O137 2.609460 1_555
Na15 O135 2.681653 1_555
Na15 O123 2.701473 1_555
Na15 O133 2.888708 1_555
Na16 O126 2.396090 1_555
Na16 O140 2.529668 1_555
Na16 O128 2.588944 1_555
Na16 O142 2.591383 1_555
Na16 O130 2.788126 1_555
Na16 O138 2.843658 1_555
Na17 O143 2.412791 1_555
Na17 O139 2.536279 1_555
Na17 O127 2.627852 1_555
Na17 O141 2.685048 1_555
Na17 O129 2.686365 1_555
Na17 O131 2.838836 1_555
O0 S0 1.484659 1_545
O0 Sc0 2.145673 1_445
O1 S1 1.487992 1_555
O1 Sn0 2.157047 1_555
O2 Si0 1.664186 1_555
O2 Sn0 1.988463 1_565
O3 S2 1.490496 1_555
O3 Sc0 2.080954 1_555
O4 Si1 1.633236 1_555
O4 Sn0 1.960641 1_555
O5 S3 1.468192 1_555
O5 Sc0 2.209215 1_545
O6 S4 1.487557 1_555
O6 Sn1 2.156902 1_545
O7 Si2 1.646855 1_555
O7 Sc1 1.906585 1_555
O8 S5 1.469493 1_555
O8 Sc1 2.218085 1_565
O9 Si3 1.636283 1_655
O9 Sn1 1.950465 1_655
O10 S6 1.483877 1_555
O10 Sc1 2.114815 1_555
O11 Si4 1.671663 1_545
O11 Sn1 1.968677 1_645
O12 S6 1.478122 1_565
O12 Sn3 2.244440 1_555
O13 Si4 1.659016 1_555
O13 Sn2 1.956694 1_655
O14 S4 1.493640 1_555
O14 Sn2 2.197734 1_545
O15 Si2 1.668880 1_555
O15 Sn3 1.967471 1_545
O16 Si3 1.634947 1_555
O16 Sn2 1.949739 1_555
O17 S5 1.490401 1_555
O17 Sn3 2.119793 1_555
O18 Si0 1.645400 1_555
O18 Sn5 1.977738 1_565
O19 S2 1.493522 1_555
O19 Sn4 2.174462 1_665
O20 S3 1.497524 1_455
O20 Sn4 2.113891 1_555
O21 Si1 1.629359 1_555
O21 Sn5 1.958155 1_555
O22 S0 1.509100 1_555
O22 Sn4 2.166485 1_565
O23 S1 1.491103 1_565
O23 Sn5 2.218688 1_565
O24 S7 1.475114 1_555
O24 Sc2 2.215623 1_555
O25 S8 1.454608 1_555
O25 Sc3 2.324811 1_555
O26 Si5 1.617389 1_555
O26 Sc2 1.910545 1_555
O27 Si6 1.593966 1_555
O27 Sc3 1.996643 1_555
O28 Si7 1.619178 1_555
O28 Sc2 1.915159 1_555
O29 S9 1.443318 1_555
O29 Sc3 2.323840 1_555
O30 S10 1.480282 1_555
O30 Sc4 2.156621 1_555
O31 S11 1.484095 1_555
O31 Sc5 2.218557 1_555
O32 S12 1.459946 1_555
O32 Sc4 2.287588 1_555
O33 Si8 1.627335 1_555
O33 Sc5 1.908633 1_555
O34 Si9 1.608064 1_555
O34 Sc4 1.969901 1_555
O35 Si10 1.634426 1_555
O35 Sc5 1.891549 1_555
O36 Si9 1.624489 1_555
O36 Sn6 1.961113 1_554
O37 Si10 1.638775 1_555
O37 Sc6 1.980546 1_554
O38 S10 1.483053 1_555
O38 Sn6 2.218867 1_554
O39 S11 1.466590 1_555
O39 Sc6 2.205409 1_554
O40 S12 1.487524 1_555
O40 Sn6 2.143362 1_554
O41 Si8 1.622005 1_555
O41 Sc6 1.906215 1_554
O42 Si5 1.651616 1_555
O42 Sc7 1.998179 1_555
O43 Si6 1.645413 1_555
O43 Sn7 1.950705 1_555
O44 Si7 1.638186 1_555
O44 Sc7 1.888726 1_555
O45 S9 1.502891 1_555
O45 Sn7 2.115242 1_555
O46 S7 1.479806 1_555
O46 Sc7 2.119520 1_555
O47 S8 1.498321 1_555
O47 Sn7 2.178040 1_555
O48 S13 1.507015 1_555
O48 Sn8 2.122428 1_556
O49 S14 1.492573 1_555
O49 Sn9 2.150470 1_556
O50 S15 1.515422 1_555
O50 Sn8 2.104836 1_556
O51 Si11 1.656585 1_555
O51 Sn9 1.960720 1_556
O52 Si12 1.664056 1_555
O52 Sn8 1.961540 1_556
O53 S16 1.489466 1_555
O53 Sn9 2.188878 1_556
O54 S17 1.484514 1_555
O54 Sn10 2.177880 1_555
O55 S18 1.486822 1_555
O55 Sn11 2.171918 1_555
O56 S19 1.470857 1_555
O56 Sn10 2.280255 1_555
O57 Si13 1.651246 1_555
O57 Sn11 1.962341 1_555
O58 Si14 1.644880 1_555
O58 Sn10 1.987070 1_555
O59 S20 1.497809 1_555
O59 Sn11 2.143581 1_555
O60 Si14 1.635547 1_555
O60 Sc8 2.045071 1_555
O61 S20 1.482333 1_555
O61 Sc9 2.184725 1_555
O62 S17 1.487998 1_555
O62 Sc8 2.108582 1_555
O63 S18 1.464983 1_555
O63 Sc9 2.221331 1_555
O64 S19 1.477027 1_555
O64 Sc8 2.084061 1_555
O65 Si13 1.624060 1_555
O65 Sc9 1.887445 1_555
O66 S15 1.474639 1_555
O66 Sc10 2.205851 1_555
O67 Si11 1.616738 1_555
O67 Sc11 2.068665 1_555
O68 Si12 1.611128 1_555
O68 Sc10 1.893508 1_555
O69 S16 1.456395 1_555
O69 Sc11 2.212685 1_555
O70 S13 1.462671 1_555
O70 Sc10 2.214481 1_555
O71 S14 1.471423 1_555
O71 Sc11 2.167830 1_555
O72 Si14 1.672216 1_555
O72 Sc0 1.953949 1_455
O73 S20 1.489610 1_555
O73 Sn0 2.263609 1_565
O74 S17 1.479365 1_555
O74 Sn0 2.178145 1_565
O75 S18 1.495740 1_555
O75 Sc0 2.083223 1_555
O76 S19 1.503083 1_555
O76 Sc0 2.148076 1_445
O77 Si13 1.657965 1_555
O77 Sn0 2.007612 1_555
O78 S15 1.485535 1_555
O78 Sn1 2.298591 1_545
O79 Si11 1.656874 1_555
O79 Sc1 2.024518 1_555
O80 Si12 1.655577 1_555
O80 Sn1 2.016817 1_555
O81 S16 1.495800 1_555
O81 Sc1 2.217270 1_565
O82 S13 1.469612 1_555
O82 Sc1 2.210915 1_565
O83 S14 1.483406 1_555
O83 Sn1 2.184658 1_655
O84 S7 1.478319 1_555
O84 Sn3 2.220567 1_545
O85 S8 1.486977 1_555
O85 Sn2 2.321991 1_645
O86 Si5 1.665474 1_555
O86 Sn2 2.010107 1_545
O87 Si6 1.649791 1_555
O87 Sn3 2.004777 1_545
O88 Si7 1.645014 1_555
O88 Sn3 1.994921 1_555
O89 S9 1.496185 1_555
O89 Sn2 2.218302 1_655
O90 S10 1.486325 1_555
O90 Sn5 2.267840 1_565
O91 S11 1.498519 1_555
O91 Sn4 2.145354 1_665
O92 S12 1.494021 1_555
O92 Sn5 2.194480 1_555
O93 Si8 1.663271 1_555
O93 Sn4 1.955460 1_655
O94 Si9 1.661101 1_555
O94 Sn4 1.970686 1_555
O95 Si10 1.669655 1_555
O95 Sn5 1.995683 1_555
O96 S6 1.493753 1_555
O96 Sc2 2.341709 1_555
O97 Si4 1.620824 1_545
O97 Sc3 2.012711 1_555
O98 S4 1.477612 1_555
O98 Sc2 2.155167 1_555
O99 Si2 1.599718 1_555
O99 Sc3 1.975177 1_555
O100 S5 1.494169 1_555
O100 Sc2 2.306519 1_555
O101 Si3 1.607358 1_655
O101 Sc3 2.082449 1_555
O102 Si0 1.636803 1_555
O102 Sc4 2.005830 1_555
O103 S2 1.487171 1_555
O103 Sc5 2.380413 1_555
O104 Si1 1.630414 1_555
O104 Sc4 2.065767 1_555
O105 S3 1.483011 1_555
O105 Sc5 2.380983 1_555
O106 S0 1.454515 1_545
O106 Sc4 2.215660 1_555
O107 S1 1.482865 1_555
O107 Sc5 2.159148 1_555
O108 S13 1.489421 1_555
O108 Sn6 2.176044 1_555
O109 S14 1.484095 1_555
O109 Sc6 2.310734 1_555
O110 Si11 1.648131 1_555
O110 Sn6 1.989248 1_555
O111 S15 1.473874 1_655
O111 Sc6 2.286111 1_555
O112 Si12 1.637698 1_545
O112 Sn6 1.991767 1_555
O113 S16 1.501561 1_545
O113 Sc6 2.194094 1_555
O114 S17 1.480098 1_545
O114 Sc7 2.398606 1_555
O115 S18 1.482002 1_545
O115 Sn7 2.224802 1_555
O116 S19 1.487520 1_555
O116 Sc7 2.259644 1_555
O117 Si13 1.639031 1_555
O117 Sn7 2.012493 1_555
O118 S20 1.479028 1_555
O118 Sc7 2.311192 1_555
O119 Si14 1.630738 1_655
O119 Sn7 2.029042 1_555
O120 Si9 1.672400 1_555
O120 Sn8 1.998369 1_555
O121 Si10 1.641105 1_555
O121 Sn9 2.007005 1_555
O122 S11 1.495696 1_455
O122 Sn8 2.215237 1_555
O123 S10 1.485134 1_555
O123 Sn9 2.192975 1_555
O124 S12 1.500287 1_565
O124 Sn8 2.207966 1_555
O125 Si8 1.639051 1_565
O125 Sn9 1.988877 1_555
O126 Si5 1.646813 1_565
O126 Sn10 1.981788 1_555
O127 Si6 1.679400 1_565
O127 Sn11 1.964909 1_555
O128 Si7 1.652220 1_555
O128 Sn10 1.969190 1_555
O129 S9 1.500052 1_555
O129 Sn11 2.175897 1_555
O130 S8 1.500309 1_455
O130 Sn10 2.131737 1_555
O131 S7 1.503199 1_555
O131 Sn11 2.155870 1_555
O132 S0 1.489823 1_555
O132 Sc8 2.249885 1_555
O133 S1 1.472787 1_565
O133 Sc9 2.281657 1_555
O134 Si0 1.634541 1_555
O134 Sc8 1.988155 1_555
O135 S2 1.464663 1_555
O135 Sc9 2.216525 1_555
O136 S3 1.493361 1_455
O136 Sc8 2.208559 1_555
O137 Si1 1.660626 1_555
O137 Sc9 1.968889 1_555
O138 S4 1.472300 1_555
O138 Sc10 2.275816 1_555
O139 Si2 1.640185 1_555
O139 Sc11 2.004688 1_555
O140 Si3 1.659814 1_555
O140 Sc10 1.958365 1_555
O141 S5 1.479869 1_555
O141 Sc11 2.194888 1_555
O142 S6 1.476172 1_565
O142 Sc10 2.154579 1_555
O143 Si4 1.613640 1_555
O143 Sc11 2.005955 1_555
