# generated using pymatgen
data_Na4Ta3AlSi4(PO12)2
_symmetry_space_group_name_H-M   'P 1'
_cell_length_a   8.84205548
_cell_length_b   8.84960029
_cell_length_c   22.51227249
_cell_angle_alpha   89.95278541
_cell_angle_beta   89.85011534
_cell_angle_gamma   119.97062840
_symmetry_Int_Tables_number   1
_chemical_formula_structural   Na4Ta3AlSi4(PO12)2
_chemical_formula_sum   'Na12 Ta9 Al3 Si12 P6 O72'
_cell_volume   1525.99292654
_cell_formula_units_Z   3
loop_
 _symmetry_equiv_pos_site_id
 _symmetry_equiv_pos_as_xyz
  1  'x, y, z'
loop_
 _atom_site_type_symbol
 _atom_site_label
 _atom_site_symmetry_multiplicity
 _atom_site_fract_x
 _atom_site_fract_y
 _atom_site_fract_z
 _atom_site_occupancy
  Na  Na0  1  0.63537474  0.62806030  0.74697925  1
  Na  Na1  1  0.99489143  0.36385409  0.74776434  1
  Na  Na2  1  0.30672634  0.97292530  0.08378212  1
  Na  Na3  1  0.02876214  0.33701912  0.08387288  1
  Na  Na4  1  0.96787976  0.29775505  0.41393833  1
  Na  Na5  1  0.70481275  0.67508862  0.41515849  1
  Na  Na6  1  0.00400423  0.99762846  0.49910471  1
  Na  Na7  1  0.99375466  0.99365961  0.99734493  1
  Na  Na8  1  0.65832795  0.32426697  0.83260472  1
  Na  Na9  1  0.66099965  0.32712877  0.32630674  1
  Na  Na10  1  0.33978358  0.66613942  0.16608965  1
  Na  Na11  1  0.33453098  0.67046775  0.66583443  1
  Ta  Ta0  1  0.00358385  0.00814688  0.85514888  1
  Ta  Ta1  1  0.99400959  0.00175049  0.64426142  1
  Ta  Ta2  1  0.99561915  0.99631999  0.14670791  1
  Ta  Ta3  1  0.66721780  0.33417946  0.97838407  1
  Ta  Ta4  1  0.66916883  0.33203402  0.48118350  1
  Ta  Ta5  1  0.33802983  0.66742882  0.02089224  1
  Ta  Ta6  1  0.33454126  0.66915931  0.52281010  1
  Ta  Ta7  1  0.33139103  0.67159533  0.30996647  1
  Ta  Ta8  1  0.33658069  0.67012179  0.81370803  1
  Al  Al0  1  0.99975158  0.99515214  0.35069727  1
  Al  Al1  1  0.65987051  0.32730967  0.68557629  1
  Al  Al2  1  0.66637693  0.33297846  0.18355144  1
  Si  Si0  1  0.29942452  0.28711865  0.74799361  1
  Si  Si1  1  0.70616120  0.00802569  0.74881940  1
  Si  Si2  1  0.95081387  0.33527224  0.58763676  1
  Si  Si3  1  0.66717977  0.61601433  0.58694742  1
  Si  Si4  1  0.94514625  0.61428600  0.08667312  1
  Si  Si5  1  0.66510766  0.05022588  0.08687550  1
  Si  Si6  1  0.38940846  0.33878719  0.08739208  1
  Si  Si7  1  0.62559041  0.66617058  0.91616985  1
  Si  Si8  1  0.04290244  0.37864414  0.91679660  1
  Si  Si9  1  0.33334104  0.95774379  0.91732094  1
  Si  Si10  1  0.62698228  0.95759935  0.41478568  1
  Si  Si11  1  0.04803680  0.67958199  0.41539856  1
  P  P0  1  0.29101273  0.01061003  0.25199004  1
  P  P1  1  0.71445644  0.70511631  0.25238313  1
  P  P2  1  0.99193776  0.28340771  0.25238612  1
  P  P3  1  -0.00043138  0.71201843  0.74908443  1
  P  P4  1  0.38164421  0.04907243  0.58576093  1
  P  P5  1  0.32829507  0.37343334  0.41516544  1
  O  O0  1  0.19477561  0.02619282  0.30555601  1
  O  O1  1  0.82367951  0.79716709  0.30750002  1
  O  O2  1  0.97504490  0.17340736  0.30753227  1
  O  O3  1  0.19930526  0.16716982  0.80629393  1
  O  O4  1  0.96814017  0.79733214  0.80417888  1
  O  O5  1  0.83386720  0.03343161  0.80542627  1
  O  O6  1  0.79945817  0.96220749  0.69304981  1
  O  O7  1  0.16245014  0.19502112  0.69283221  1
  O  O8  1  0.03194701  0.82880014  0.69418970  1
  O  O9  1  0.80097499  0.82812654  0.19695807  1
  O  O10  1  0.02716642  0.20118591  0.19557396  1
  O  O11  1  0.17530532  0.97208241  0.19476777  1
  O  O12  1  0.86096657  0.36350507  0.64477447  1
  O  O13  1  0.49703610  0.13182229  0.63963674  1
  O  O14  1  0.63613955  0.49771198  0.64443629  1
  O  O15  1  0.86358639  0.48946718  0.14284777  1
  O  O16  1  0.62777671  0.13573556  0.14315268  1
  O  O17  1  0.50445649  0.36494857  0.14431503  1
  O  O18  1  0.46319246  0.29255751  0.02720787  1
  O  O19  1  0.83226153  0.53376120  0.02600684  1
  O  O20  1  0.70702209  0.16985970  0.02685984  1
  O  O21  1  0.46535985  0.16039627  0.52831656  1
  O  O22  1  0.69247211  0.52973086  0.52457552  1
  O  O23  1  0.83509780  0.30199499  0.52553726  1
  O  O24  1  0.53167106  0.69856108  0.97363094  1
  O  O25  1  0.16296864  0.46587208  0.97581129  1
  O  O26  1  0.30190568  0.83722275  0.97646927  1
  O  O27  1  0.53363792  0.82913327  0.47216278  1
  O  O28  1  0.29819016  0.46077499  0.47075606  1
  O  O29  1  0.16736172  0.69628715  0.47313715  1
  O  O30  1  0.13553503  0.62827811  0.35965557  1
  O  O31  1  0.49634462  0.85809946  0.35862157  1
  O  O32  1  0.36849923  0.49839332  0.36116878  1
  O  O33  1  0.13262594  0.49611186  0.85699399  1
  O  O34  1  0.36318844  0.86266520  0.85931927  1
  O  O35  1  0.50345563  0.63579695  0.85714484  1
  O  O36  1  0.01696252  0.84179359  0.40610226  1
  O  O37  1  0.82031380  0.98187310  0.40609804  1
  O  O38  1  0.16529909  0.19608275  0.40717736  1
  O  O39  1  0.02600844  0.18742786  0.91016338  1
  O  O40  1  0.15873695  0.97171612  0.90908224  1
  O  O41  1  0.81482165  0.83837908  0.90817740  1
  O  O42  1  0.97650943  0.16329903  0.58993234  1
  O  O43  1  0.19728997  0.02508552  0.59050370  1
  O  O44  1  0.84141648  0.81097575  0.59000736  1
  O  O45  1  0.98207753  0.81669151  0.09309690  1
  O  O46  1  0.84061795  0.02968286  0.09325364  1
  O  O47  1  0.18735332  0.16403644  0.09395177  1
  O  O48  1  0.69755556  0.18328503  0.74059041  1
  O  O49  1  0.49393000  0.31919127  0.74149348  1
  O  O50  1  0.83762312  0.52978768  0.74351142  1
  O  O51  1  0.69330165  0.52510859  0.24355262  1
  O  O52  1  0.83367068  0.30671187  0.24405115  1
  O  O53  1  0.47422908  0.16623662  0.24406911  1
  O  O54  1  0.63973864  0.49244070  0.92266218  1
  O  O55  1  0.85195002  0.35829819  0.92245080  1
  O  O56  1  0.50612490  0.14676074  0.92318940  1
  O  O57  1  0.64454054  0.14992696  0.42272392  1
  O  O58  1  0.49714677  0.36248180  0.42341221  1
  O  O59  1  0.85325700  0.49848622  0.42352623  1
  O  O60  1  0.34862361  0.49921442  0.07804348  1
  O  O61  1  0.14459039  0.64402052  0.07744993  1
  O  O62  1  0.49362443  0.85611016  0.07764114  1
  O  O63  1  0.36158747  0.86508075  0.57591419  1
  O  O64  1  0.49721973  0.64261984  0.57522549  1
  O  O65  1  0.14580259  0.50413286  0.57530920  1
  O  O66  1  0.30436812  0.83685371  0.25791333  1
  O  O67  1  0.52931337  0.69129799  0.25798074  1
  O  O68  1  0.16449523  0.46816623  0.25805384  1
  O  O69  1  0.30624666  0.47786862  0.75557718  1
  O  O70  1  0.16248908  0.68912802  0.75546914  1
  O  O71  1  0.51999898  0.82503785  0.75499798  1
loop_
_geom_bond_atom_site_label_1
_geom_bond_atom_site_label_2
_geom_bond_distance
_geom_bond_site_symmetry_2
Na0 O50 2.348115 1_555
Na0 O49 2.374150 1_555
Na0 O71 2.426572 1_555
Na0 O69 2.530850 1_555
Na0 O14 2.582990 1_555
Na0 O35 2.753358 1_555
Na0 O6 2.832245 1_555
Na0 O4 2.859855 1_555
Na1 O48 2.301470 1_555
Na1 O69 2.419844 1_655
Na1 O50 2.477869 1_555
Na1 O70 2.500474 1_655
Na1 O12 2.605495 1_555
Na1 O33 2.737893 1_655
Na1 O5 2.843783 1_555
Na1 O7 2.856882 1_655
Na2 O62 2.350456 1_555
Na2 O47 2.410346 1_565
Na2 O45 2.495344 1_455
Na2 O61 2.525921 1_555
Na2 O26 2.689711 1_554
Na2 O11 2.751216 1_555
Na2 O18 2.759016 1_565
Na2 O16 2.803102 1_565
Na3 O61 2.381092 1_555
Na3 O46 2.384544 1_455
Na3 O60 2.453202 1_555
Na3 O47 2.550903 1_555
Na3 O25 2.693494 1_554
Na3 O15 2.770779 1_455
Na3 O20 2.783237 1_455
Na3 O10 2.783253 1_555
Na4 O38 2.334070 1_655
Na4 O37 2.430198 1_545
Na4 O59 2.455117 1_555
Na4 O57 2.486785 1_555
Na4 O2 2.650717 1_555
Na4 O23 2.778571 1_555
Na4 O30 2.810505 1_655
Na4 O28 2.839059 1_655
Na5 O37 2.383943 1_555
Na5 O36 2.400875 1_655
Na5 O58 2.445711 1_555
Na5 O59 2.500227 1_555
Na5 O1 2.644563 1_555
Na5 O22 2.754494 1_555
Na5 O27 2.801829 1_555
Na5 O32 2.853336 1_555
Na6 O36 2.541637 1_555
Na6 O44 2.567007 1_455
Na6 O42 2.597692 1_465
Na6 O43 2.611112 1_565
Na6 O37 2.614086 1_455
Na6 O38 2.622451 1_565
Na7 O41 2.503992 1_555
Na7 O39 2.525215 1_665
Na7 O40 2.526342 1_655
Na7 O45 2.634696 1_556
Na7 O46 2.648393 1_566
Na7 O47 2.716569 1_666
Na8 O49 2.504522 1_555
Na8 O56 2.511085 1_555
Na8 O48 2.529954 1_555
Na8 O54 2.569036 1_555
Na8 O55 2.572305 1_555
Na8 O50 2.634499 1_555
Na9 O53 2.419322 1_555
Na9 O52 2.460498 1_555
Na9 O51 2.472611 1_555
Na9 O57 2.637502 1_555
Na9 O58 2.722719 1_555
Na9 O59 2.725599 1_555
Na10 O60 2.497291 1_555
Na10 O62 2.517328 1_555
Na10 O61 2.584599 1_555
Na10 O67 2.604520 1_555
Na10 O68 2.649931 1_555
Na10 O66 2.669833 1_555
Na11 O71 2.523908 1_555
Na11 O69 2.571979 1_555
Na11 O64 2.574982 1_555
Na11 O70 2.578497 1_555
Na11 O65 2.583248 1_555
Na11 O63 2.588679 1_555
Al0 O0 1.897074 1_665
Al0 O36 1.904032 1_655
Al0 O1 1.929945 1_555
Al0 O2 1.955343 1_565
Al0 O37 1.972240 1_555
Al0 O38 2.081859 1_665
Al1 O14 1.868339 1_555
Al1 O12 1.878801 1_555
Al1 O49 1.904600 1_555
Al1 O13 1.912474 1_555
Al1 O48 1.921791 1_555
Al1 O50 2.140762 1_555
Al2 O17 1.822352 1_555
Al2 O15 1.837113 1_555
Al2 O16 1.843767 1_555
Al2 O51 2.091223 1_555
Al2 O53 2.097576 1_555
Al2 O52 2.109665 1_555
O0 P0 1.519680 1_555
O1 P1 1.535512 1_555
O2 P2 1.537183 1_555
O3 Si0 1.638843 1_555
O3 Ta0 1.933710 1_555
O4 P3 1.547561 1_655
O4 Ta0 2.077660 1_665
O5 Si1 1.644360 1_555
O5 Ta0 1.974550 1_655
O6 Si1 1.658560 1_565
O6 Ta1 1.917302 1_565
O7 Si0 1.642106 1_555
O7 Ta1 1.950813 1_455
O8 P3 1.541971 1_555
O8 Ta1 2.056830 1_465
O9 P1 1.577294 1_555
O9 Ta2 1.970998 1_555
O10 P2 1.577384 1_455
O10 Ta2 2.018545 1_445
O11 P0 1.575289 1_565
O11 Ta2 2.022364 1_455
O12 Si2 1.594244 1_555
O13 P4 1.519790 1_555
O14 Si3 1.598493 1_555
O15 Si4 1.592642 1_555
O16 Si5 1.592371 1_555
O17 Si6 1.581954 1_555
O18 Si6 1.640631 1_555
O18 Ta3 1.980723 1_554
O19 Si4 1.633220 1_555
O19 Ta3 1.958228 1_554
O20 Si5 1.639105 1_555
O20 Ta3 1.984977 1_554
O21 P4 1.566895 1_555
O21 Ta4 1.983196 1_555
O22 Si3 1.665948 1_555
O22 Ta4 1.923871 1_555
O23 Si2 1.671861 1_555
O23 Ta4 1.901871 1_555
O24 Si7 1.636448 1_555
O24 Ta5 1.912637 1_556
O25 Si8 1.636548 1_555
O25 Ta5 1.964742 1_556
O26 Si9 1.639331 1_555
O26 Ta5 1.959260 1_556
O27 Si10 1.642152 1_555
O27 Ta6 1.974879 1_555
O28 P5 1.562014 1_555
O28 Ta6 2.071388 1_555
O29 Si11 1.635924 1_555
O29 Ta6 1.963668 1_555
O30 Si11 1.651143 1_555
O30 Ta7 1.929550 1_555
O31 Si10 1.643636 1_555
O31 Ta7 1.912425 1_555
O32 P5 1.558742 1_555
O32 Ta7 2.070568 1_555
O33 Si8 1.640326 1_555
O33 Ta8 1.945983 1_555
O34 Si9 1.644526 1_555
O34 Ta8 1.901763 1_555
O35 Si7 1.649920 1_555
O35 Ta8 1.918463 1_555
O36 Si11 1.604323 1_555
O37 Si10 1.624163 1_555
O38 P5 1.521377 1_555
O39 Si8 1.629753 1_555
O39 Ta0 1.944379 1_555
O40 Si9 1.620302 1_555
O40 Ta0 1.977405 1_565
O41 Si7 1.613934 1_555
O41 Ta0 1.987285 1_665
O42 Si2 1.647985 1_555
O42 Ta1 1.944954 1_555
O43 P4 1.538482 1_555
O43 Ta1 2.086939 1_455
O44 Si3 1.643180 1_555
O44 Ta1 1.974502 1_565
O45 Si4 1.658991 1_555
O45 Ta2 1.952348 1_555
O46 Si5 1.656796 1_555
O46 Ta2 1.956008 1_545
O47 Si6 1.686138 1_555
O47 Ta2 1.990009 1_445
O48 Si1 1.600982 1_555
O49 Si0 1.603338 1_555
O50 P3 1.536542 1_655
O51 P1 1.521563 1_555
O52 P2 1.525036 1_555
O53 P0 1.523789 1_555
O54 Si7 1.610162 1_555
O54 Ta3 1.983141 1_555
O55 Si8 1.610733 1_655
O55 Ta3 1.984845 1_555
O56 Si9 1.611734 1_545
O56 Ta3 1.993995 1_555
O57 Si10 1.639988 1_545
O57 Ta4 2.007726 1_555
O58 P5 1.555277 1_555
O58 Ta4 2.120577 1_555
O59 Si11 1.675779 1_655
O59 Ta4 2.023445 1_555
O60 Si6 1.643584 1_555
O60 Ta5 2.004230 1_555
O61 Si4 1.660312 1_455
O61 Ta5 2.055165 1_555
O62 Si5 1.641070 1_565
O62 Ta5 2.007613 1_555
O63 P4 1.563360 1_565
O63 Ta6 2.020692 1_555
O64 Si3 1.654980 1_555
O64 Ta6 1.965329 1_555
O65 Si2 1.644784 1_455
O65 Ta6 1.966333 1_555
O66 P0 1.605408 1_565
O66 Ta7 1.979110 1_555
O67 P1 1.584183 1_555
O67 Ta7 2.036361 1_555
O68 P2 1.589491 1_455
O68 Ta7 2.035348 1_555
O69 Si0 1.667671 1_555
O69 Ta8 2.056391 1_555
O70 P3 1.558677 1_555
O70 Ta8 2.094195 1_555
O71 Si1 1.639034 1_565
O71 Ta8 2.005236 1_555
