# generated using pymatgen
data_K2Zr7Cl18
_symmetry_space_group_name_H-M   'P 1'
_cell_length_a   10.29677003
_cell_length_b   10.26279925
_cell_length_c   10.26370392
_cell_angle_alpha   55.36379651
_cell_angle_beta   55.40811527
_cell_angle_gamma   55.57288981
_symmetry_Int_Tables_number   1
_chemical_formula_structural   K2Zr7Cl18
_chemical_formula_sum   'K2 Zr7 Cl18'
_cell_volume   685.85500066
_cell_formula_units_Z   1
loop_
 _symmetry_equiv_pos_site_id
 _symmetry_equiv_pos_as_xyz
  1  'x, y, z'
loop_
 _atom_site_type_symbol
 _atom_site_label
 _atom_site_symmetry_multiplicity
 _atom_site_fract_x
 _atom_site_fract_y
 _atom_site_fract_z
 _atom_site_occupancy
  K  K0  1  0.77756956  0.77570747  0.77566923  1
  K  K1  1  0.22367588  0.22324565  0.22498124  1
  Zr  Zr0  1  0.50146139  0.50108894  0.49872802  1
  Zr  Zr1  1  0.16595973  0.78595071  0.89980574  1
  Zr  Zr2  1  0.89668078  0.16412718  0.79204866  1
  Zr  Zr3  1  0.78892040  0.90657079  0.15912690  1
  Zr  Zr4  1  0.83416617  0.21173972  0.09808267  1
  Zr  Zr5  1  0.10212242  0.83410467  0.21342961  1
  Zr  Zr6  1  0.21318229  0.09845670  0.83686091  1
  Cl  Cl0  1  0.36025445  0.51989699  0.78446275  1
  Cl  Cl1  1  0.78199930  0.36115007  0.52205303  1
  Cl  Cl2  1  0.52203468  0.78363813  0.35972242  1
  Cl  Cl3  1  0.63734220  0.48008479  0.21606119  1
  Cl  Cl4  1  0.21613887  0.63787628  0.48060637  1
  Cl  Cl5  1  0.47906769  0.21613426  0.63860186  1
  Cl  Cl6  1  0.13474711  0.28293182  0.57359973  1
  Cl  Cl7  1  0.57014885  0.13585774  0.28571693  1
  Cl  Cl8  1  0.28413853  0.56973004  0.13661171  1
  Cl  Cl9  1  0.05842137  0.34834741  0.93286249  1
  Cl  Cl10  1  0.35016243  0.93260681  0.05911897  1
  Cl  Cl11  1  0.93293363  0.05792623  0.34886860  1
  Cl  Cl12  1  0.94428740  0.64793240  0.07184028  1
  Cl  Cl13  1  0.64636191  0.07120374  0.94246992  1
  Cl  Cl14  1  0.07180779  0.94395840  0.64766469  1
  Cl  Cl15  1  0.71053741  0.42992286  0.86602703  1
  Cl  Cl16  1  0.42701458  0.86794085  0.70997310  1
  Cl  Cl17  1  0.86886320  0.71186835  0.42500695  1
loop_
_geom_bond_atom_site_label_1
_geom_bond_atom_site_label_2
_geom_bond_distance
_geom_bond_site_symmetry_2
Cl0 Zr0 2.497298 1_555
Cl0 Zr1 2.769094 1_555
Cl0 K1 3.696400 1_556
Cl1 Zr0 2.483474 1_555
Cl1 Zr2 2.794382 1_555
Cl1 K1 3.723599 1_655
Cl2 Zr0 2.477408 1_555
Cl2 Zr3 2.815274 1_555
Cl2 K1 3.710096 1_565
Cl3 Zr0 2.486346 1_555
Cl3 Zr4 2.802016 1_555
Cl3 K0 3.697923 1_554
Cl4 Zr0 2.509347 1_555
Cl4 Zr5 2.767365 1_555
Cl4 K0 3.699126 1_455
Cl5 Zr0 2.506126 1_555
Cl5 Zr6 2.777415 1_555
Cl5 K0 3.718793 1_545
Cl6 Zr6 2.543915 1_555
Cl6 Zr2 2.560078 1_455
Cl6 K1 3.486204 1_555
Cl7 Zr4 2.539703 1_555
Cl7 Zr3 2.541305 1_545
Cl7 K1 3.491738 1_555
Cl8 Zr1 2.546843 1_554
Cl8 Zr5 2.549484 1_555
Cl8 K1 3.471384 1_555
Cl9 Zr6 2.560463 1_555
Cl9 Zr4 2.585539 1_456
Cl9 K1 3.532698 1_556
Cl9 K0 3.621429 1_455
Cl10 Zr5 2.561199 1_555
Cl10 Zr6 2.572054 1_564
Cl10 K1 3.514707 1_565
Cl10 K0 3.633077 1_554
Cl11 Zr5 2.568835 1_645
Cl11 Zr4 2.586479 1_555
Cl11 K1 3.525094 1_655
Cl11 K0 3.605137 1_545
Cl12 Zr1 2.563284 1_654
Cl12 Zr3 2.584924 1_555
Cl12 K0 3.571488 1_554
Cl12 K1 3.593372 1_655
Cl13 Zr2 2.554166 1_555
Cl13 Zr3 2.566202 1_546
Cl13 K0 3.549047 1_545
Cl13 K1 3.594412 1_556
Cl14 Zr1 2.562710 1_555
Cl14 Zr2 2.591961 1_465
Cl14 K0 3.564226 1_455
Cl14 K1 3.565363 1_565
Cl15 Zr4 2.542509 1_556
Cl15 Zr2 2.545842 1_555
Cl15 K0 3.497360 1_555
Cl16 Zr1 2.544965 1_555
Cl16 Zr6 2.548982 1_565
Cl16 K0 3.543226 1_555
Cl17 Zr5 2.538935 1_655
Cl17 Zr3 2.570921 1_555
Cl17 K0 3.522624 1_555
