# generated using pymatgen
data_NaHO
_symmetry_space_group_name_H-M   'P 1'
_cell_length_a   3.37789285
_cell_length_b   3.37206360
_cell_length_c   5.60694632
_cell_angle_alpha   90.00000000
_cell_angle_beta   106.10298053
_cell_angle_gamma   90.00000000
_symmetry_Int_Tables_number   1
_chemical_formula_structural   NaHO
_chemical_formula_sum   'Na2 H2 O2'
_cell_volume   61.35996095
_cell_formula_units_Z   2
loop_
 _symmetry_equiv_pos_site_id
 _symmetry_equiv_pos_as_xyz
  1  'x, y, z'
loop_
 _atom_site_type_symbol
 _atom_site_label
 _atom_site_symmetry_multiplicity
 _atom_site_fract_x
 _atom_site_fract_y
 _atom_site_fract_z
 _atom_site_occupancy
  Na  Na0  1  0.66702716  0.25000000  0.81837155  1
  Na  Na1  1  0.33297284  0.75000000  0.18162845  1
  H  H0  1  0.95947182  0.25000000  0.41905505  1
  H  H1  1  0.04052818  0.75000000  0.58094495  1
  O  O0  1  0.14622684  0.75000000  0.75947481  1
  O  O1  1  0.85377316  0.25000000  0.24052519  1
loop_
_geom_bond_atom_site_label_1
_geom_bond_atom_site_label_2
_geom_bond_distance
_geom_bond_site_symmetry_2
Na0 O1 2.274269 1_556
Na0 O0 2.392551 1_555
Na0 O0 2.392551 1_545
Na0 O0 2.422483 1_655
Na0 O0 2.422483 1_645
Na1 O0 2.274269 1_554
Na1 O1 2.392551 1_565
Na1 O1 2.392551 1_555
Na1 O1 2.422483 1_465
Na1 O1 2.422483 1_455
H0 O1 0.965004 1_555
H1 O0 0.965004 1_555
