# generated using pymatgen
data_MgTe2Mo3W(Se2S)2
_symmetry_space_group_name_H-M   'P 1'
_cell_length_a   3.34756100
_cell_length_b   3.34748295
_cell_length_c   44.21319739
_cell_angle_alpha   90.01338246
_cell_angle_beta   89.99996734
_cell_angle_gamma   120.00074433
_symmetry_Int_Tables_number   1
_chemical_formula_structural   MgTe2Mo3W(Se2S)2
_chemical_formula_sum   'Mg1 Te2 Mo3 W1 Se4 S2'
_cell_volume   429.06802823
_cell_formula_units_Z   1
loop_
 _symmetry_equiv_pos_site_id
 _symmetry_equiv_pos_as_xyz
  1  'x, y, z'
loop_
 _atom_site_type_symbol
 _atom_site_label
 _atom_site_symmetry_multiplicity
 _atom_site_fract_x
 _atom_site_fract_y
 _atom_site_fract_z
 _atom_site_occupancy
  Mg  Mg0  1  0.00030900  0.00060300  0.37095800  1
  Te  Te0  1  0.33325200  0.66650500  0.70130800  1
  Te  Te1  1  0.33336800  0.66673600  0.61502000  1
  Mo  Mo0  1  0.33324500  0.66649000  0.09372500  1
  Mo  Mo1  1  0.33330500  0.66660900  0.47469400  1
  Mo  Mo2  1  0.66666900  0.33334000  0.27645700  1
  W  W0  1  0.66663400  0.33327000  0.65817300  1
  Se  Se0  1  0.66661200  0.33322300  0.05604800  1
  Se  Se1  1  0.66662700  0.33325500  0.43658100  1
  Se  Se2  1  0.66654800  0.33309700  0.13140500  1
  Se  Se3  1  0.66663300  0.33326800  0.51223500  1
  S  S0  1  0.33385400  0.66770900  0.31128600  1
  S  S1  1  0.33294500  0.66589500  0.24238500  1
loop_
_geom_bond_atom_site_label_1
_geom_bond_atom_site_label_2
_geom_bond_distance
_geom_bond_site_symmetry_2
Te0 W0 2.714948 1_555
Te0 W0 2.714952 1_455
Te0 W0 2.715771 1_565
Te1 W0 2.715123 1_565
Te1 W0 2.716112 1_555
Te1 W0 2.716115 1_455
Mo0 Se2 2.551109 1_565
Mo0 Se0 2.551284 1_455
Mo0 Se0 2.551284 1_555
Mo0 Se2 2.551848 1_555
Mo0 Se2 2.551850 1_455
Mo0 Se0 2.551979 1_565
Mo1 Se3 2.547215 1_565
Mo1 Se3 2.547780 1_555
Mo1 Se3 2.547786 1_455
Mo1 Se1 2.564002 1_555
Mo1 Se1 2.564008 1_455
Mo1 Se1 2.564417 1_565
Mo2 S1 2.449710 1_655
Mo2 S1 2.449717 1_555
Mo2 S1 2.451867 1_545
Mo2 S0 2.469101 1_545
Mo2 S0 2.472170 1_555
Mo2 S0 2.472174 1_655
