# generated using pymatgen
data_NdFeO3
_symmetry_space_group_name_H-M   'P 1'
_cell_length_a   5.46086797
_cell_length_b   5.63890520
_cell_length_c   7.77694011
_cell_angle_alpha   90.00000000
_cell_angle_beta   90.00000000
_cell_angle_gamma   90.00000000
_symmetry_Int_Tables_number   1
_chemical_formula_structural   NdFeO3
_chemical_formula_sum   'Nd4 Fe4 O12'
_cell_volume   239.47778048
_cell_formula_units_Z   4
loop_
 _symmetry_equiv_pos_site_id
 _symmetry_equiv_pos_as_xyz
  1  'x, y, z'
loop_
 _atom_site_type_symbol
 _atom_site_label
 _atom_site_symmetry_multiplicity
 _atom_site_fract_x
 _atom_site_fract_y
 _atom_site_fract_z
 _atom_site_occupancy
  Nd  Nd0  1  0.01299226  0.94487046  0.75000000  1
  Nd  Nd1  1  0.51299226  0.55512954  0.25000000  1
  Nd  Nd2  1  0.48700774  0.44487046  0.75000000  1
  Nd  Nd3  1  0.98700774  0.05512954  0.25000000  1
  Fe  Fe0  1  -0.00000000  0.50000000  0.50000000  1
  Fe  Fe1  1  0.50000000  -0.00000000  0.50000000  1
  Fe  Fe2  1  0.50000000  -0.00000000  0.00000000  1
  Fe  Fe3  1  -0.00000000  0.50000000  0.00000000  1
  O  O0  1  0.70384190  0.29571580  0.45170828  1
  O  O1  1  0.20384190  0.20428420  0.54829172  1
  O  O2  1  0.79615810  0.79571580  0.04829172  1
  O  O3  1  0.29615810  0.70428420  0.95170828  1
  O  O4  1  0.29615810  0.70428420  0.54829172  1
  O  O5  1  0.79615810  0.79571580  0.45170828  1
  O  O6  1  0.20384190  0.20428420  0.95170828  1
  O  O7  1  0.70384190  0.29571580  0.04829172  1
  O  O8  1  0.09153749  0.47401449  0.25000000  1
  O  O9  1  0.59153749  0.02598551  0.75000000  1
  O  O10  1  0.40846251  0.97401449  0.25000000  1
  O  O11  1  0.90846251  0.52598551  0.75000000  1
loop_
_geom_bond_atom_site_label_1
_geom_bond_atom_site_label_2
_geom_bond_distance
_geom_bond_site_symmetry_2
Nd0 O9 2.346520 1_465
Nd0 O6 2.384688 1_565
Nd0 O1 2.384688 1_565
Nd0 O11 2.430048 1_455
Nd0 O4 2.586959 1_555
Nd0 O3 2.586959 1_555
Nd0 O2 2.736961 1_456
Nd0 O5 2.736961 1_455
Nd1 O8 2.346520 1_555
Nd1 O0 2.384688 1_555
Nd1 O7 2.384688 1_555
Nd1 O10 2.430048 1_555
Nd1 O5 2.586959 1_555
Nd1 O2 2.586959 1_555
Nd1 O3 2.736961 1_554
Nd1 O4 2.736961 1_555
Nd2 O11 2.346520 1_555
Nd2 O3 2.384688 1_555
Nd2 O4 2.384688 1_555
Nd2 O9 2.430048 1_555
Nd2 O6 2.586959 1_555
Nd2 O1 2.586959 1_555
Nd2 O0 2.736961 1_555
Nd2 O7 2.736961 1_556
Nd3 O10 2.346520 1_645
Nd3 O2 2.384688 1_545
Nd3 O5 2.384688 1_545
Nd3 O8 2.430048 1_655
Nd3 O0 2.586959 1_555
Nd3 O7 2.586959 1_555
Nd3 O1 2.736961 1_655
Nd3 O6 2.736961 1_654
Fe0 O11 2.012808 1_455
Fe0 O8 2.012808 1_555
Fe0 O0 2.020793 1_455
Fe0 O4 2.020793 1_555
Fe0 O5 2.039794 1_455
Fe0 O1 2.039794 1_555
Fe1 O10 2.012808 1_545
Fe1 O9 2.012808 1_555
Fe1 O5 2.020793 1_545
Fe1 O1 2.020793 1_555
Fe1 O0 2.039794 1_555
Fe1 O4 2.039794 1_545
Fe2 O9 2.012808 1_554
Fe2 O10 2.012808 1_545
Fe2 O6 2.020793 1_554
Fe2 O2 2.020793 1_545
Fe2 O7 2.039794 1_555
Fe2 O3 2.039794 1_544
Fe3 O11 2.012808 1_454
Fe3 O8 2.012808 1_555
Fe3 O7 2.020793 1_455
Fe3 O3 2.020793 1_554
Fe3 O2 2.039794 1_455
Fe3 O6 2.039794 1_554
