# generated using pymatgen
data_MgCr2(Fe2O5)2
_symmetry_space_group_name_H-M   'P 1'
_cell_length_a   3.87387900
_cell_length_b   5.38649437
_cell_length_c   9.94868800
_cell_angle_alpha   90.00000000
_cell_angle_beta   90.00000000
_cell_angle_gamma   111.07506181
_symmetry_Int_Tables_number   1
_chemical_formula_structural   MgCr2(Fe2O5)2
_chemical_formula_sum   'Mg1 Cr2 Fe4 O10'
_cell_volume   193.70952691
_cell_formula_units_Z   1
loop_
 _symmetry_equiv_pos_site_id
 _symmetry_equiv_pos_as_xyz
  1  'x, y, z'
loop_
 _atom_site_type_symbol
 _atom_site_label
 _atom_site_symmetry_multiplicity
 _atom_site_fract_x
 _atom_site_fract_y
 _atom_site_fract_z
 _atom_site_occupancy
  Mg  Mg0  1  0.50873500  0.01731300  0.25000000  1
  Cr  Cr0  1  0.20558700  0.41078000  0.25000000  1
  Cr  Cr1  1  0.79716100  0.59435300  0.75000000  1
  Fe  Fe0  1  0.12355100  0.24700700  0.57052800  1
  Fe  Fe1  1  0.12355100  0.24700700  0.92947200  1
  Fe  Fe2  1  0.85484200  0.70957100  0.44395300  1
  Fe  Fe3  1  0.85484200  0.70957100  0.05604700  1
  O  O0  1  0.34643400  0.69273400  0.39171300  1
  O  O1  1  0.34643400  0.69273400  0.10828700  1
  O  O2  1  0.05102200  0.10183400  0.12124300  1
  O  O3  1  0.05102200  0.10183400  0.37875700  1
  O  O4  1  0.23360000  0.46717000  0.75000000  1
  O  O5  1  0.72424800  0.44834900  0.25000000  1
  O  O6  1  0.94225500  0.88468000  0.61689000  1
  O  O7  1  0.68830300  0.37644100  0.56690400  1
  O  O8  1  0.68830300  0.37644100  0.93309600  1
  O  O9  1  0.94225500  0.88468000  0.88311000  1
loop_
_geom_bond_atom_site_label_1
_geom_bond_atom_site_label_2
_geom_bond_distance
_geom_bond_site_symmetry_2
Mg0 O0 2.156190 1_545
Mg0 O1 2.156190 1_545
Mg0 O5 2.166470 1_555
Mg0 O2 2.360651 1_555
Mg0 O3 2.360651 1_555
Mg0 O3 2.360820 1_655
Mg0 O2 2.360820 1_655
Cr0 O5 1.945646 1_555
Cr0 O5 1.946598 1_455
Cr0 O0 1.999007 1_555
Cr0 O1 1.999007 1_555
Cr0 O2 2.012989 1_555
Cr0 O3 2.012989 1_555
Cr1 O9 1.970551 1_555
Cr1 O6 1.970551 1_555
Cr1 O4 2.039587 1_555
Cr1 O4 2.039810 1_655
Cr1 O7 2.125491 1_555
Cr1 O8 2.125491 1_555
Fe0 O6 1.878627 1_445
Fe0 O3 2.042641 1_555
Fe0 O7 2.043461 1_455
Fe0 O7 2.043720 1_555
Fe0 O4 2.100612 1_555
Fe1 O9 1.878627 1_445
Fe1 O2 2.042641 1_556
Fe1 O8 2.043461 1_455
Fe1 O8 2.043720 1_555
Fe1 O4 2.100612 1_555
Fe2 O6 1.932547 1_555
Fe2 O0 2.007199 1_555
Fe2 O0 2.007277 1_655
Fe2 O7 2.073585 1_555
Fe2 O3 2.075540 1_665
Fe2 O5 2.333905 1_555
Fe3 O9 1.932547 1_554
Fe3 O1 2.007199 1_555
Fe3 O1 2.007277 1_655
Fe3 O8 2.073585 1_554
Fe3 O2 2.075540 1_665
Fe3 O5 2.333905 1_555
