# generated using pymatgen
data_BaBrF
_symmetry_space_group_name_H-M   'P 1'
_cell_length_a   4.53992335
_cell_length_b   4.53992335
_cell_length_c   7.49539352
_cell_angle_alpha   90.00000000
_cell_angle_beta   90.00000000
_cell_angle_gamma   90.00000000
_symmetry_Int_Tables_number   1
_chemical_formula_structural   BaBrF
_chemical_formula_sum   'Ba2 Br2 F2'
_cell_volume   154.48683646
_cell_formula_units_Z   2
loop_
 _symmetry_equiv_pos_site_id
 _symmetry_equiv_pos_as_xyz
  1  'x, y, z'
loop_
 _atom_site_type_symbol
 _atom_site_label
 _atom_site_symmetry_multiplicity
 _atom_site_fract_x
 _atom_site_fract_y
 _atom_site_fract_z
 _atom_site_occupancy
  Ba  Ba0  1  0.75000000  0.75000000  0.80838260  1
  Ba  Ba1  1  0.25000000  0.25000000  0.19161740  1
  Br  Br0  1  0.25000000  0.25000000  0.64960908  1
  Br  Br1  1  0.75000000  0.75000000  0.35039092  1
  F  F0  1  0.25000000  0.75000000  0.00000000  1
  F  F1  1  0.75000000  0.25000000  0.00000000  1
loop_
_geom_bond_atom_site_label_1
_geom_bond_atom_site_label_2
_geom_bond_distance
_geom_bond_site_symmetry_2
Ba0 F0 2.686175 1_556
Ba0 F0 2.686175 1_656
Ba0 F1 2.686175 1_556
Ba0 F1 2.686175 1_566
Ba0 Br0 3.423700 1_565
Ba0 Br0 3.423700 1_555
Ba0 Br0 3.423700 1_655
Ba0 Br0 3.423700 1_665
Ba0 Br1 3.432828 1_555
Ba1 F0 2.686175 1_555
Ba1 F1 2.686175 1_555
Ba1 F1 2.686175 1_455
Ba1 F0 2.686175 1_545
Ba1 Br1 3.423700 1_445
Ba1 Br1 3.423700 1_455
Ba1 Br1 3.423700 1_555
Ba1 Br1 3.423700 1_545
Ba1 Br0 3.432828 1_555
