# generated using pymatgen
data_Na4MgCu(AsO4)2
_symmetry_space_group_name_H-M   'P 1'
_cell_length_a   5.39260428
_cell_length_b   6.98493252
_cell_length_c   6.55660963
_cell_angle_alpha   87.10785063
_cell_angle_beta   85.29781548
_cell_angle_gamma   91.16241157
_symmetry_Int_Tables_number   1
_chemical_formula_structural   Na4MgCu(AsO4)2
_chemical_formula_sum   'Na4 Mg1 Cu1 As2 O8'
_cell_volume   245.74891825
_cell_formula_units_Z   1
loop_
 _symmetry_equiv_pos_site_id
 _symmetry_equiv_pos_as_xyz
  1  'x, y, z'
loop_
 _atom_site_type_symbol
 _atom_site_label
 _atom_site_symmetry_multiplicity
 _atom_site_fract_x
 _atom_site_fract_y
 _atom_site_fract_z
 _atom_site_occupancy
  Na  Na0  1  0.14849018  0.49020830  0.21694595  1
  Na  Na1  1  0.85150982  0.50979170  0.78305405  1
  Na  Na2  1  0.39157966  0.26353407  0.74255004  1
  Na  Na3  1  0.60842034  0.73646593  0.25744996  1
  Mg  Mg0  1  0.00000000  -0.00000000  0.50000000  1
  Cu  Cu0  1  0.00000000  -0.00000000  -0.00000000  1
  As  As0  1  0.36153303  0.75864663  0.68092976  1
  As  As1  1  0.63846697  0.24135337  0.31907024  1
  O  O0  1  0.78023504  0.25130601  0.55295441  1
  O  O1  1  0.31644423  0.21663697  0.37247322  1
  O  O2  1  0.27553150  0.56189120  0.84727374  1
  O  O3  1  0.68355577  0.78336303  0.62752678  1
  O  O4  1  0.72446850  0.43810880  0.15272626  1
  O  O5  1  0.80128745  0.02701002  0.23821934  1
  O  O6  1  0.19871255  0.97298998  0.76178066  1
  O  O7  1  0.21976496  0.74869399  0.44704559  1
loop_
_geom_bond_atom_site_label_1
_geom_bond_atom_site_label_2
_geom_bond_distance
_geom_bond_site_symmetry_2
Na0 O1 2.353003 1_555
Na0 O4 2.382800 1_455
Na0 O7 2.454683 1_555
Na0 O2 2.487207 1_554
Na1 O3 2.353003 1_555
Na1 O2 2.382800 1_655
Na1 O0 2.454683 1_555
Na1 O4 2.487207 1_556
Na2 O6 2.254605 1_545
Na2 O2 2.309336 1_555
Na2 O0 2.352886 1_555
Na2 O1 2.528861 1_555
Na3 O5 2.254605 1_565
Na3 O4 2.309336 1_555
Na3 O7 2.352886 1_555
Na3 O3 2.528861 1_555
Mg0 O5 2.099275 1_455
Mg0 O6 2.099275 1_545
Mg0 O7 2.164426 1_545
Mg0 O0 2.164426 1_455
Mg0 O3 2.331204 1_445
Mg0 O1 2.331204 1_555
Cu0 O6 1.840372 1_544
Cu0 O5 1.840372 1_455
As0 O2 1.741644 1_555
As0 O3 1.746433 1_555
As0 O7 1.772480 1_555
As0 O6 1.830461 1_555
As1 O4 1.741644 1_555
As1 O1 1.746433 1_555
As1 O0 1.772480 1_555
As1 O5 1.830461 1_555
