# generated using pymatgen
data_ThTl3
_symmetry_space_group_name_H-M   'P 1'
_cell_length_a   4.80347449
_cell_length_b   4.80347449
_cell_length_c   4.80347449
_cell_angle_alpha   90.00000000
_cell_angle_beta   90.00000000
_cell_angle_gamma   90.00000000
_symmetry_Int_Tables_number   1
_chemical_formula_structural   ThTl3
_chemical_formula_sum   'Th1 Tl3'
_cell_volume   110.83233063
_cell_formula_units_Z   1
loop_
 _symmetry_equiv_pos_site_id
 _symmetry_equiv_pos_as_xyz
  1  'x, y, z'
loop_
 _atom_site_type_symbol
 _atom_site_label
 _atom_site_symmetry_multiplicity
 _atom_site_fract_x
 _atom_site_fract_y
 _atom_site_fract_z
 _atom_site_occupancy
  Th  Th0  1  -0.00000000  -0.00000000  -0.00000000  1
  Tl  Tl0  1  0.50000000  0.00000000  0.50000000  1
  Tl  Tl1  1  -0.00000000  0.50000000  0.50000000  1
  Tl  Tl2  1  0.50000000  0.50000000  -0.00000000  1
loop_
_geom_bond_atom_site_label_1
_geom_bond_atom_site_label_2
_geom_bond_distance
_geom_bond_site_symmetry_2
Th0 Tl2 3.396569 1_455
Th0 Tl0 3.396569 1_554
Th0 Tl2 3.396569 1_545
Th0 Tl0 3.396569 1_455
Th0 Tl0 3.396569 1_454
Th0 Tl2 3.396569 1_445
Th0 Tl0 3.396569 1_555
Th0 Tl1 3.396569 1_544
Th0 Tl1 3.396569 1_545
Th0 Tl1 3.396569 1_554
Th0 Tl1 3.396569 1_555
Th0 Tl2 3.396569 1_555
Tl0 Tl2 3.396569 1_556
Tl0 Tl2 3.396569 1_545
Tl0 Tl1 3.396569 1_655
Tl0 Tl2 3.396569 1_546
Tl0 Tl1 3.396569 1_545
Tl0 Tl1 3.396569 1_645
Tl0 Tl1 3.396569 1_555
Tl0 Tl2 3.396569 1_555
Tl1 Tl2 3.396569 1_556
Tl1 Tl2 3.396569 1_455
Tl1 Tl2 3.396569 1_456
Tl1 Tl2 3.396569 1_555
