# generated using pymatgen
data_Na5La3NbSiP5O24
_symmetry_space_group_name_H-M   'P 1'
_cell_length_a   9.48751470
_cell_length_b   9.48424903
_cell_length_c   23.97300904
_cell_angle_alpha   90.01031506
_cell_angle_beta   90.04054998
_cell_angle_gamma   120.26053788
_symmetry_Int_Tables_number   1
_chemical_formula_structural   Na5La3NbSiP5O24
_chemical_formula_sum   'Na15 La9 Nb3 Si3 P15 O72'
_cell_volume   1863.21179774
_cell_formula_units_Z   3
loop_
 _symmetry_equiv_pos_site_id
 _symmetry_equiv_pos_as_xyz
  1  'x, y, z'
loop_
 _atom_site_type_symbol
 _atom_site_label
 _atom_site_symmetry_multiplicity
 _atom_site_fract_x
 _atom_site_fract_y
 _atom_site_fract_z
 _atom_site_occupancy
  Na  Na0  1  0.63721606  0.00096645  0.25210307  1
  Na  Na1  1  0.36215273  0.36064535  0.25091850  1
  Na  Na2  1  0.00169873  0.63906477  0.25147693  1
  Na  Na3  1  0.31071388  0.34287968  0.58575988  1
  Na  Na4  1  0.03209084  0.69782424  0.58236910  1
  Na  Na5  1  0.66255538  0.96208732  0.58261595  1
  Na  Na6  1  0.29678705  0.95604218  0.07640987  1
  Na  Na7  1  0.97591187  0.67882699  0.91579472  1
  Na  Na8  1  0.69491295  0.01962269  0.91352052  1
  Na  Na9  1  0.99594235  0.99586387  0.49805118  1
  Na  Na10  1  0.00879216  0.01697838  0.99729617  1
  Na  Na11  1  0.65404661  0.33326754  0.82737585  1
  Na  Na12  1  0.66616124  0.33054711  0.33909783  1
  Na  Na13  1  0.33159343  0.65482690  0.16308356  1
  Na  Na14  1  0.34236878  0.66508593  0.67430596  1
  La  La0  1  0.00036344  -0.00000506  0.35454914  1
  La  La1  1  0.01134171  0.01174710  0.84802161  1
  La  La2  1  0.99612112  0.99666422  0.65697820  1
  La  La3  1  0.99014309  0.00033862  0.14298310  1
  La  La4  1  0.66613481  0.33568518  0.68846609  1
  La  La5  1  0.67294723  0.33902941  0.17903328  1
  La  La6  1  0.33218964  0.65209620  0.01489141  1
  La  La7  1  0.33589253  0.66658360  0.51070151  1
  La  La8  1  0.33387356  0.66741092  0.32834366  1
  Nb  Nb0  1  0.66515162  0.33280764  0.97817408  1
  Nb  Nb1  1  0.66732544  0.33865408  0.48282229  1
  Nb  Nb2  1  0.32768551  0.66599876  0.81915096  1
  Si  Si0  1  0.66963551  0.62808455  0.58095515  1
  Si  Si1  1  0.02704723  0.37272462  0.91634859  1
  Si  Si2  1  0.34088200  0.96284388  0.91967241  1
  P  P0  1  0.29979774  0.99644945  0.24788176  1
  P  P1  1  0.69530074  0.69953399  0.25064552  1
  P  P2  1  0.00393203  0.30406617  0.25056690  1
  P  P3  1  0.30673348  0.32547404  0.75145852  1
  P  P4  1  0.01634475  0.69583802  0.75477758  1
  P  P5  1  0.67729240  0.98226220  0.75479654  1
  P  P6  1  0.95207689  0.33012103  0.57925083  1
  P  P7  1  0.37736536  0.04770569  0.57927513  1
  P  P8  1  0.95951963  0.62966805  0.07826544  1
  P  P9  1  0.66759167  0.04743020  0.07795582  1
  P  P10  1  0.37814421  0.32657434  0.07996613  1
  P  P11  1  0.62303080  0.65417709  0.91522344  1
  P  P12  1  0.64424305  0.99296468  0.42022666  1
  P  P13  1  0.34802052  0.35645259  0.42036274  1
  P  P14  1  0.01015172  0.65273819  0.42058094  1
  O  O0  1  0.21223824  0.01882749  0.29795380  1
  O  O1  1  0.80160038  0.78244138  0.30177431  1
  O  O2  1  0.98005847  0.19769689  0.30165541  1
  O  O3  1  0.21511847  0.20979105  0.79920026  1
  O  O4  1  0.99433746  0.78019400  0.80528513  1
  O  O5  1  0.78439585  0.00298637  0.80521783  1
  O  O6  1  0.75230787  0.95870896  0.69960962  1
  O  O7  1  0.21237122  0.25693254  0.69533488  1
  O  O8  1  0.04236217  0.79410426  0.69976190  1
  O  O9  1  0.77770334  0.80369136  0.19802334  1
  O  O10  1  0.02459169  0.22175854  0.19783857  1
  O  O11  1  0.20118761  0.97610276  0.19365160  1
  O  O12  1  0.87803952  0.35355623  0.63231154  1
  O  O13  1  0.47753008  0.11735848  0.63227832  1
  O  O14  1  0.63832651  0.51363270  0.63405817  1
  O  O15  1  0.88687743  0.54886912  0.13474616  1
  O  O16  1  0.65903730  0.12079355  0.13421389  1
  O  O17  1  0.45611856  0.33331979  0.13675333  1
  O  O18  1  0.49362632  0.32801212  0.03065334  1
  O  O19  1  0.84558106  0.51881591  0.02851482  1
  O  O20  1  0.67408447  0.16430607  0.02779573  1
  O  O21  1  0.48149011  0.15995408  0.52868173  1
  O  O22  1  0.67895699  0.51270624  0.52697963  1
  O  O23  1  0.83920678  0.31917632  0.52850161  1
  O  O24  1  0.56261353  0.69649410  0.96766709  1
  O  O25  1  0.13024604  0.44647474  0.97139792  1
  O  O26  1  0.31813290  0.86656828  0.97670040  1
  O  O27  1  0.55826757  0.88481426  0.47096236  1
  O  O28  1  0.32733067  0.44156910  0.47132142  1
  O  O29  1  0.11553481  0.67348625  0.47169290  1
  O  O30  1  0.08385777  0.62707664  0.36619229  1
  O  O31  1  0.54387704  0.91760882  0.36568706  1
  O  O32  1  0.37512849  0.45676936  0.36612107  1
  O  O33  1  0.13829380  0.50409775  0.86381336  1
  O  O34  1  0.36893182  0.85611950  0.86700446  1
  O  O35  1  0.50550192  0.63073046  0.86533119  1
  O  O36  1  0.98431270  0.79910354  0.41703989  1
  O  O37  1  0.81561910  0.01577193  0.41672085  1
  O  O38  1  0.20074014  0.18381376  0.41697211  1
  O  O39  1  0.97207471  0.18292545  0.90909011  1
  O  O40  1  0.18038570  0.97676271  0.91022302  1
  O  O41  1  0.79879885  0.79393547  0.90573453  1
  O  O42  1  0.95971427  0.16970103  0.58038037  1
  O  O43  1  0.21202841  0.04551155  0.58087789  1
  O  O44  1  0.84315814  0.80380256  0.58150811  1
  O  O45  1  0.97263972  0.79972125  0.07424843  1
  O  O46  1  0.82297503  0.03563519  0.07343287  1
  O  O47  1  0.21692472  0.15980368  0.07448258  1
  O  O48  1  0.65079694  0.12891015  0.75105292  1
  O  O49  1  0.48001010  0.35149586  0.75034975  1
  O  O50  1  0.87178121  0.52072089  0.75113461  1
  O  O51  1  0.67387600  0.52541857  0.24750202  1
  O  O52  1  0.85123573  0.32533487  0.24756959  1
  O  O53  1  0.47532549  0.14919949  0.24649550  1
  O  O54  1  0.63618792  0.49414499  0.92531230  1
  O  O55  1  0.84751518  0.37459011  0.92560157  1
  O  O56  1  0.51660307  0.14867257  0.92683539  1
  O  O57  1  0.65455698  0.16229368  0.42872715  1
  O  O58  1  0.50731781  0.34450600  0.42886477  1
  O  O59  1  0.83925620  0.49104557  0.42871389  1
  O  O60  1  0.35500414  0.47397658  0.07838931  1
  O  O61  1  0.13332176  0.65570858  0.07726058  1
  O  O62  1  0.50801939  0.88310547  0.07534342  1
  O  O63  1  0.34630890  0.87173720  0.57287792  1
  O  O64  1  0.51230287  0.65484143  0.57629578  1
  O  O65  1  0.12551974  0.48054922  0.57359484  1
  O  O66  1  0.31535153  0.84005638  0.25418261  1
  O  O67  1  0.52225580  0.68171403  0.25510223  1
  O  O68  1  0.16013447  0.47737351  0.25502724  1
  O  O69  1  0.31626249  0.49440522  0.76379769  1
  O  O70  1  0.17930016  0.68765918  0.76463424  1
  O  O71  1  0.50633087  0.82052403  0.76409892  1
loop_
_geom_bond_atom_site_label_1
_geom_bond_atom_site_label_2
_geom_bond_distance
_geom_bond_site_symmetry_2
Na0 O53 2.555344 1_555
Na0 O66 2.638155 1_545
Na0 O67 2.652266 1_545
Na0 O52 2.702522 1_555
Na0 O31 2.849959 1_545
Na1 O51 2.556915 1_555
Na1 O67 2.632075 1_555
Na1 O68 2.654747 1_555
Na1 O53 2.712207 1_555
Na1 O32 2.891204 1_555
Na1 O17 2.930619 1_555
Na2 O52 2.572716 1_455
Na2 O66 2.603031 1_555
Na2 O68 2.634682 1_555
Na2 O51 2.732243 1_455
Na2 O30 2.875730 1_555
Na2 O15 2.967335 1_455
Na3 O43 2.486531 1_555
Na3 O64 2.600198 1_555
Na3 O65 2.681165 1_555
Na3 O7 2.770019 1_555
Na3 O28 2.877531 1_555
Na3 O42 2.879354 1_455
Na3 O14 2.923244 1_555
Na4 O44 2.457555 1_455
Na4 O63 2.589374 1_555
Na4 O65 2.630114 1_555
Na4 O29 2.811877 1_555
Na4 O43 2.848847 1_565
Na4 O8 2.944891 1_555
Na5 O42 2.496745 1_565
Na5 O64 2.521773 1_555
Na5 O63 2.683059 1_555
Na5 O44 2.789784 1_555
Na5 O27 2.818753 1_555
Na5 O6 2.935399 1_555
Na6 O47 2.405546 1_565
Na6 O62 2.427499 1_555
Na6 O61 2.463124 1_555
Na6 O26 2.578370 1_554
Na6 O45 2.657621 1_455
Na6 O11 2.989292 1_555
Na7 O41 2.433528 1_555
Na7 O40 2.498296 1_655
Na7 O55 2.514579 1_555
Na7 O4 2.793838 1_555
Na7 O54 2.796407 1_555
Na8 O39 2.284834 1_555
Na8 O56 2.559160 1_555
Na8 O5 2.761270 1_555
Na8 O41 2.777466 1_545
Na8 O34 2.893810 1_545
Na8 O55 2.932668 1_555
Na8 O24 2.962972 1_545
Na9 O44 2.601216 1_555
Na9 O36 2.656531 1_555
Na9 O37 2.661764 1_565
Na9 O38 2.691963 1_665
Na9 O42 2.702358 1_565
Na9 O43 2.718144 1_665
Na10 O47 2.540900 1_556
Na10 O46 2.605679 1_456
Na10 O45 2.656417 1_446
Na10 O39 2.760903 1_455
Na10 O40 2.789886 1_545
Na10 O41 3.001121 1_445
Na11 O49 2.539587 1_555
Na11 O48 2.653990 1_555
Na11 O50 2.659651 1_555
Na11 O54 2.851126 1_555
Na11 O56 2.855800 1_555
Na11 O55 2.887253 1_555
Na12 O57 2.645734 1_555
Na12 O59 2.665311 1_555
Na12 O58 2.669320 1_555
Na12 O52 2.827200 1_555
Na12 O53 2.831770 1_555
Na12 O51 2.847497 1_555
Na13 O60 2.738087 1_555
Na13 O68 2.753940 1_555
Na13 O67 2.780775 1_555
Na13 O61 2.789632 1_555
Na13 O66 2.855064 1_555
Na13 O62 2.875349 1_555
Na14 O69 2.623428 1_555
Na14 O71 2.628630 1_555
Na14 O70 2.732570 1_555
Na14 O64 2.879683 1_555
La0 O1 2.342697 1_445
La0 O2 2.350615 1_455
La0 O38 2.355324 1_555
La0 O0 2.357021 1_555
La0 O37 2.363037 1_455
La0 O36 2.367821 1_445
La1 O3 2.231516 1_555
La1 O40 2.332157 1_545
La1 O5 2.347861 1_455
La1 O39 2.351026 1_455
La1 O4 2.353813 1_445
La1 O41 2.460591 1_445
La2 O6 2.385188 1_555
La2 O8 2.405140 1_655
La2 O7 2.457715 1_665
La2 O44 2.458643 1_555
La2 O42 2.599237 1_565
La2 O43 2.605392 1_665
La3 O9 2.344741 1_545
La3 O10 2.356446 1_655
La3 O46 2.437015 1_555
La3 O11 2.449072 1_645
La3 O45 2.458264 1_545
La3 O47 2.517865 1_655
La4 O14 2.251281 1_555
La4 O12 2.354431 1_555
La4 O13 2.359060 1_555
La4 O49 2.368996 1_555
La4 O50 2.384847 1_555
La4 O48 2.414962 1_555
La5 O15 2.267197 1_555
La5 O17 2.268690 1_555
La5 O16 2.275885 1_555
La5 O52 2.407318 1_555
La5 O51 2.408836 1_555
La5 O53 2.444493 1_555
La6 O25 2.189015 1_554
La6 O26 2.295108 1_554
La6 O24 2.305238 1_554
La6 O60 2.363660 1_555
La6 O61 2.421925 1_555
La6 O62 2.448491 1_555
La7 O27 2.290223 1_555
La7 O28 2.297096 1_555
La7 O29 2.320518 1_555
La7 O64 2.338929 1_555
La7 O63 2.412950 1_555
La7 O65 2.413709 1_555
La8 O31 2.373529 1_555
La8 O30 2.384276 1_555
La8 O32 2.398486 1_555
La8 O68 2.460741 1_555
La8 O67 2.460860 1_555
La8 O66 2.482621 1_555
Nb0 O55 2.012760 1_555
Nb0 O56 2.016681 1_555
Nb0 O20 2.028125 1_556
Nb0 O18 2.039959 1_556
Nb0 O54 2.108754 1_555
Nb0 O19 2.109887 1_556
Nb1 O22 1.916604 1_555
Nb1 O59 2.014907 1_555
Nb1 O58 2.015688 1_555
Nb1 O21 2.044852 1_555
Nb1 O23 2.047862 1_555
Nb1 O57 2.070977 1_555
Nb2 O33 1.988816 1_555
Nb2 O34 2.001998 1_555
Nb2 O70 2.005285 1_555
Nb2 O69 2.059718 1_555
Nb2 O71 2.064623 1_555
Nb2 O35 2.179411 1_555
O0 P0 1.534623 1_545
O1 P1 1.528536 1_555
O2 P2 1.529571 1_655
O3 P3 1.519834 1_555
O4 P4 1.522541 1_655
O5 P5 1.526152 1_545
O6 P5 1.571055 1_555
O7 P3 1.563888 1_555
O8 P4 1.561422 1_555
O9 P1 1.549820 1_555
O10 P2 1.549143 1_555
O11 P0 1.555283 1_555
O12 P6 1.522949 1_555
O13 P7 1.522927 1_555
O14 Si0 1.601003 1_555
O15 P8 1.537849 1_555
O16 P9 1.538303 1_555
O17 P10 1.534769 1_555
O18 P10 1.607772 1_555
O19 P8 1.596443 1_555
O20 P9 1.615631 1_555
O21 P7 1.588249 1_555
O22 Si0 1.725333 1_555
O23 P6 1.588626 1_555
O24 P11 1.517558 1_555
O25 Si1 1.580221 1_555
O26 Si2 1.597382 1_555
O27 P12 1.534737 1_555
O28 P13 1.530454 1_555
O29 P14 1.529586 1_555
O30 P14 1.555955 1_555
O31 P12 1.561735 1_555
O32 P13 1.554521 1_555
O33 Si1 1.711616 1_555
O34 Si2 1.720772 1_555
O35 P11 1.572096 1_555
O36 P14 1.528824 1_655
O37 P12 1.530764 1_545
O38 P13 1.527718 1_555
O39 Si1 1.611270 1_655
O40 Si2 1.609195 1_555
O41 P11 1.537026 1_555
O42 P6 1.559474 1_555
O43 P7 1.558755 1_555
O44 Si0 1.650034 1_555
O45 P8 1.556828 1_555
O46 P9 1.537523 1_555
O47 P10 1.555611 1_555
O48 P5 1.535606 1_545
O49 P3 1.534725 1_555
O50 P4 1.533339 1_655
O51 P1 1.560639 1_555
O52 P2 1.561728 1_655
O53 P0 1.562602 1_545
O54 P11 1.602744 1_555
O55 Si1 1.726760 1_655
O56 Si2 1.718492 1_545
O57 P12 1.572156 1_545
O58 P13 1.584511 1_555
O59 P14 1.585294 1_655
O60 P10 1.520977 1_555
O61 P8 1.539552 1_455
O62 P9 1.531880 1_565
O63 P7 1.549158 1_565
O64 Si0 1.639076 1_555
O65 P6 1.547866 1_455
O66 P0 1.570139 1_555
O67 P1 1.567155 1_555
O68 P2 1.566538 1_555
O69 P3 1.586341 1_555
O70 P4 1.603888 1_555
O71 P5 1.589540 1_555
