# generated using pymatgen
data_BaTi8O16
_symmetry_space_group_name_H-M   'P 1'
_cell_length_a   5.91931002
_cell_length_b   7.27558357
_cell_length_c   7.38135269
_cell_angle_alpha   89.26315949
_cell_angle_beta   101.61838947
_cell_angle_gamma   101.84981991
_symmetry_Int_Tables_number   1
_chemical_formula_structural   BaTi8O16
_chemical_formula_sum   'Ba1 Ti8 O16'
_cell_volume   304.60490524
_cell_formula_units_Z   1
loop_
 _symmetry_equiv_pos_site_id
 _symmetry_equiv_pos_as_xyz
  1  'x, y, z'
loop_
 _atom_site_type_symbol
 _atom_site_label
 _atom_site_symmetry_multiplicity
 _atom_site_fract_x
 _atom_site_fract_y
 _atom_site_fract_z
 _atom_site_occupancy
  Ba  Ba0  1  0.00226383  -0.00009905  0.00004238  1
  Ti  Ti0  1  0.57861624  0.48159744  0.82041004  1
  Ti  Ti1  1  0.07744575  0.49467485  0.81535622  1
  Ti  Ti2  1  0.66418339  0.17881255  0.46893270  1
  Ti  Ti3  1  0.17106106  0.18746447  0.48740439  1
  Ti  Ti4  1  0.83228345  0.81250728  0.51257641  1
  Ti  Ti5  1  0.33919142  0.82116357  0.53106837  1
  Ti  Ti6  1  0.92565933  0.50518595  0.18465118  1
  Ti  Ti7  1  0.42456220  0.51850058  0.17949732  1
  O  O0  1  0.83139778  0.35412077  0.94805507  1
  O  O1  1  0.32337978  0.35770241  0.94670959  1
  O  O2  1  0.97779852  0.30307842  0.61801883  1
  O  O3  1  0.48729690  0.30435450  0.61489283  1
  O  O4  1  0.85404570  0.03754434  0.35404838  1
  O  O5  1  0.34691634  0.03792491  0.35790059  1
  O  O6  1  0.83901694  0.64230354  0.71905252  1
  O  O7  1  0.34144670  0.63224740  0.71332830  1
  O  O8  1  0.66160795  0.36780494  0.28668869  1
  O  O9  1  0.16422694  0.35778001  0.28100932  1
  O  O10  1  0.14929671  0.96246844  0.64595922  1
  O  O11  1  0.65639342  0.96210721  0.64204229  1
  O  O12  1  0.02545052  0.69694219  0.38192682  1
  O  O13  1  0.51597319  0.69562654  0.38514853  1
  O  O14  1  0.67967224  0.64226841  0.05326323  1
  O  O15  1  0.17186770  0.64591535  0.05202077  1
loop_
_geom_bond_atom_site_label_1
_geom_bond_atom_site_label_2
_geom_bond_distance
_geom_bond_site_symmetry_2
Ba0 O15 2.944380 1_545
Ba0 O10 2.948643 1_544
Ba0 O0 2.949690 1_454
Ba0 O4 2.951820 1_455
Ba0 O1 2.964379 1_554
Ba0 O14 2.967528 1_445
Ba0 O5 2.971937 1_555
Ba0 O11 2.976312 1_444
Ba0 O6 3.209921 1_444
Ba0 O9 3.211347 1_555
O0 Ti0 1.991592 1_555
O0 Ti6 1.993553 1_556
O0 Ti1 2.015817 1_655
O1 Ti0 1.987618 1_555
O1 Ti7 2.007315 1_556
O1 Ti1 2.013669 1_555
O2 Ti1 1.944555 1_655
O2 Ti3 1.950910 1_655
O2 Ti2 1.997007 1_555
O3 Ti0 1.920974 1_555
O3 Ti3 1.941668 1_555
O3 Ti2 1.990928 1_555
O4 Ti2 1.979703 1_555
O4 Ti4 1.997834 1_545
O4 Ti3 2.030514 1_655
O5 Ti2 1.964778 1_555
O5 Ti5 2.016217 1_545
O5 Ti3 2.018344 1_555
O6 Ti4 1.950670 1_555
O6 Ti1 1.962057 1_655
O6 Ti0 2.001137 1_555
O7 Ti5 1.911021 1_555
O7 Ti1 1.955328 1_555
O7 Ti0 1.989903 1_555
O8 Ti2 1.911360 1_555
O8 Ti6 1.955119 1_555
O8 Ti7 1.989792 1_555
O9 Ti3 1.950718 1_555
O9 Ti6 1.961647 1_455
O9 Ti7 2.001495 1_555
O10 Ti5 1.980046 1_555
O10 Ti3 1.997712 1_565
O10 Ti4 2.030671 1_455
O11 Ti5 1.964519 1_555
O11 Ti2 2.015630 1_565
O11 Ti4 2.018615 1_555
O12 Ti6 1.945014 1_455
O12 Ti4 1.950434 1_455
O12 Ti5 1.997611 1_555
O13 Ti7 1.921169 1_555
O13 Ti4 1.941861 1_555
O13 Ti5 1.990261 1_555
O14 Ti7 1.986481 1_555
O14 Ti0 2.007206 1_554
O14 Ti6 2.014492 1_555
O15 Ti7 1.990536 1_555
O15 Ti1 1.994606 1_554
O15 Ti6 2.016631 1_455
