# generated using pymatgen
data_MgFe12(OF)12
_symmetry_space_group_name_H-M   'P 1'
_cell_length_a   9.87808577
_cell_length_b   14.97263124
_cell_length_c   3.13365000
_cell_angle_alpha   90.00000000
_cell_angle_beta   90.00000000
_cell_angle_gamma   84.93607454
_symmetry_Int_Tables_number   1
_chemical_formula_structural   MgFe12(OF)12
_chemical_formula_sum   'Mg1 Fe12 O12 F12'
_cell_volume   461.66076877
_cell_formula_units_Z   1
loop_
 _symmetry_equiv_pos_site_id
 _symmetry_equiv_pos_as_xyz
  1  'x, y, z'
loop_
 _atom_site_type_symbol
 _atom_site_label
 _atom_site_symmetry_multiplicity
 _atom_site_fract_x
 _atom_site_fract_y
 _atom_site_fract_z
 _atom_site_occupancy
  Mg  Mg0  1  0.25148100  0.67151200  0.50000000  1
  Fe  Fe0  1  0.00783900  0.99950600  0.00000000  1
  Fe  Fe1  1  0.98328000  0.31577000  0.00000000  1
  Fe  Fe2  1  0.97413600  0.65669300  0.00000000  1
  Fe  Fe3  1  0.21692600  0.14726300  0.50000000  1
  Fe  Fe4  1  0.22551900  0.35592300  0.50000000  1
  Fe  Fe5  1  0.29123000  0.89799500  0.50000000  1
  Fe  Fe6  1  0.53186400  0.34922200  0.00000000  1
  Fe  Fe7  1  0.53385200  0.01275200  0.00000000  1
  Fe  Fe8  1  0.55237700  0.68603800  0.00000000  1
  Fe  Fe9  1  0.75176600  0.14408400  0.50000000  1
  Fe  Fe10  1  0.72395100  0.50209000  0.50000000  1
  Fe  Fe11  1  0.73636700  0.84401300  0.50000000  1
  O  O0  1  0.08708300  0.25910400  0.50000000  1
  O  O1  1  0.10565300  0.92959500  0.50000000  1
  O  O2  1  0.15243000  0.08995700  0.00000000  1
  O  O3  1  0.12943300  0.40058200  0.00000000  1
  O  O4  1  0.37560400  0.93441500  0.00000000  1
  O  O5  1  0.40926000  0.37356000  0.50000000  1
  O  O6  1  0.61748600  0.95406400  0.50000000  1
  O  O7  1  0.60890100  0.62580000  0.50000000  1
  O  O8  1  0.65203100  0.11143600  0.00000000  1
  O  O9  1  0.64380900  0.43967800  0.00000000  1
  O  O10  1  0.65211200  0.79027200  0.00000000  1
  O  O11  1  0.90653800  0.05680900  0.50000000  1
  F  F0  1  0.09641700  0.59653500  0.50000000  1
  F  F1  1  0.15090400  0.73221000  0.00000000  1
  F  F2  1  0.30604800  0.22923500  0.00000000  1
  F  F3  1  0.36693900  0.62588800  0.00000000  1
  F  F4  1  0.40963600  0.08419500  0.50000000  1
  F  F5  1  0.37773100  0.76971800  0.50000000  1
  F  F6  1  0.62834000  0.26925000  0.50000000  1
  F  F7  1  0.85050700  0.22159000  0.00000000  1
  F  F8  1  0.85500300  0.89222200  0.00000000  1
  F  F9  1  0.84586300  0.55606300  0.00000000  1
  F  F10  1  0.88517900  0.37972800  0.50000000  1
  F  F11  1  0.88507800  0.73411600  0.50000000  1
loop_
_geom_bond_atom_site_label_1
_geom_bond_atom_site_label_2
_geom_bond_distance
_geom_bond_site_symmetry_2
Fe0 O11 2.010180 1_464
Fe0 O11 2.010180 1_465
Fe0 O2 2.053183 1_565
Fe0 O1 2.075008 1_555
Fe0 O1 2.075008 1_554
Fe1 O3 2.005115 1_655
Fe1 O0 2.018069 1_654
Fe1 O0 2.018069 1_655
Fe3 O2 1.921857 1_555
Fe3 O2 1.921857 1_556
Fe3 O0 2.017433 1_555
Fe4 O5 1.857042 1_555
Fe4 O3 1.921169 1_555
Fe4 O3 1.921169 1_556
Fe4 O0 2.078799 1_555
Fe5 O1 1.852341 1_555
Fe5 O4 1.878077 1_555
Fe5 O4 1.878077 1_556
Fe6 O9 1.822495 1_555
Fe6 O5 1.994133 1_554
Fe6 O5 1.994133 1_555
Fe7 O6 1.944592 1_544
Fe7 O6 1.944592 1_545
Fe7 O8 1.962259 1_555
Fe7 O4 2.035423 1_545
Fe8 O7 1.868490 1_555
Fe8 O7 1.868490 1_554
Fe8 O10 1.917728 1_555
Fe9 O11 1.921527 1_555
Fe9 O8 1.936365 1_555
Fe9 O8 1.936365 1_556
Fe10 O9 2.021258 1_556
Fe10 O9 2.021258 1_555
Fe10 O7 2.085867 1_555
Fe11 O6 1.937142 1_555
Fe11 O10 1.978207 1_555
Fe11 O10 1.978207 1_556
F0 Mg0 1.977374 1_555
F0 Fe2 2.129132 1_456
F0 Fe2 2.129132 1_455
F1 Mg0 2.026953 1_554
F1 Mg0 2.026953 1_555
F1 Fe2 2.162397 1_455
F2 Fe3 2.219699 1_554
F2 Fe3 2.219699 1_555
F2 Fe4 2.533653 1_554
F2 Fe4 2.533653 1_555
F3 Mg0 2.021088 1_555
F3 Mg0 2.021088 1_554
F3 Fe8 2.111328 1_555
F4 Fe3 2.048920 1_555
F4 Fe7 2.207496 1_556
F4 Fe7 2.207496 1_555
F5 Mg0 2.010244 1_555
F5 Fe5 2.032060 1_555
F5 Fe8 2.572810 1_555
F5 Fe8 2.572810 1_556
F6 Fe9 2.143650 1_555
F6 Fe6 2.143699 1_556
F6 Fe6 2.143699 1_555
F7 Fe1 2.008751 1_555
F7 Fe9 2.225488 1_554
F7 Fe9 2.225488 1_555
F8 Fe11 2.120997 1_555
F8 Fe11 2.120997 1_554
F8 Fe0 2.299493 1_655
F9 Fe2 2.052481 1_555
F9 Fe10 2.174863 1_554
F9 Fe10 2.174863 1_555
F10 Fe1 2.036471 1_555
F10 Fe1 2.036471 1_556
F10 Fe10 2.319025 1_555
F11 Fe2 2.095860 1_556
F11 Fe2 2.095860 1_555
F11 Fe11 2.106821 1_555
