# generated using pymatgen
data_MgV4O7F5
_symmetry_space_group_name_H-M   'P 1'
_cell_length_a   5.26837572
_cell_length_b   7.28549438
_cell_length_c   5.39617949
_cell_angle_alpha   93.09735348
_cell_angle_beta   88.27286046
_cell_angle_gamma   88.26555107
_symmetry_Int_Tables_number   1
_chemical_formula_structural   MgV4O7F5
_chemical_formula_sum   'Mg1 V4 O7 F5'
_cell_volume   206.61794543
_cell_formula_units_Z   1
loop_
 _symmetry_equiv_pos_site_id
 _symmetry_equiv_pos_as_xyz
  1  'x, y, z'
loop_
 _atom_site_type_symbol
 _atom_site_label
 _atom_site_symmetry_multiplicity
 _atom_site_fract_x
 _atom_site_fract_y
 _atom_site_fract_z
 _atom_site_occupancy
  Mg  Mg0  1  0.51989500  0.25173500  0.93365500  1
  V  V0  1  0.48684300  0.52257800  0.50602200  1
  V  V1  1  0.51771400  0.01686400  0.48419100  1
  V  V2  1  0.00250000  0.49002400  0.98146300  1
  V  V3  1  0.02281600  0.98792100  0.98932900  1
  O  O0  1  0.88883100  0.24457100  0.99537900  1
  O  O1  1  0.67971600  0.97816000  0.20990800  1
  O  O2  1  0.57896000  0.25247700  0.53735400  1
  O  O3  1  0.41606200  0.74766800  0.48849500  1
  O  O4  1  0.31579700  0.04459200  0.80377600  1
  O  O5  1  0.20053300  0.45974900  0.72136000  1
  O  O6  1  0.05727300  0.75320800  0.02097600  1
  F  F0  1  0.81184500  0.53263800  0.31296000  1
  F  F1  1  0.80442900  0.94380300  0.68068400  1
  F  F2  1  0.67100200  0.54134000  0.82623100  1
  F  F3  1  0.32211200  0.42353100  0.18741400  1
  F  F4  1  0.20367300  0.05913800  0.30830700  1
loop_
_geom_bond_atom_site_label_1
_geom_bond_atom_site_label_2
_geom_bond_distance
_geom_bond_site_symmetry_2
Mg0 O0 1.981507 1_555
Mg0 O4 1.988529 1_555
Mg0 O2 2.152052 1_555
Mg0 O5 2.566977 1_555
Mg0 O1 2.683076 1_546
O0 V2 1.907541 1_655
O0 V3 1.976787 1_645
O1 V1 1.691973 1_565
O1 V3 2.139255 1_654
O2 V1 1.766033 1_555
O2 V0 2.029658 1_555
O3 V0 1.679022 1_555
O3 V1 2.049757 1_565
O4 V3 1.882979 1_545
O4 V1 1.996301 1_555
O5 V2 1.723799 1_555
O5 V0 1.956689 1_555
O6 V3 1.732297 1_554
O6 V2 1.948916 1_554
F0 V0 1.982618 1_555
F0 V2 2.029275 1_654
F1 V1 1.948879 1_565
F1 V3 2.069061 1_655
F2 V2 1.993504 1_655
F2 V0 2.007293 1_555
F2 Mg0 2.372248 1_555
F3 Mg0 2.043820 1_554
F3 V0 2.055131 1_555
F3 V2 2.103968 1_554
F4 V1 1.956623 1_555
F4 V3 2.042572 1_544
