# generated using pymatgen
data_MgMn6O11F
_symmetry_space_group_name_H-M   'P 1'
_cell_length_a   11.85199288
_cell_length_b   6.38943321
_cell_length_c   2.95817422
_cell_angle_alpha   89.82786583
_cell_angle_beta   88.83371315
_cell_angle_gamma   108.13145848
_symmetry_Int_Tables_number   1
_chemical_formula_structural   MgMn6O11F
_chemical_formula_sum   'Mg1 Mn6 O11 F1'
_cell_volume   212.83733189
_cell_formula_units_Z   1
loop_
 _symmetry_equiv_pos_site_id
 _symmetry_equiv_pos_as_xyz
  1  'x, y, z'
loop_
 _atom_site_type_symbol
 _atom_site_label
 _atom_site_symmetry_multiplicity
 _atom_site_fract_x
 _atom_site_fract_y
 _atom_site_fract_z
 _atom_site_occupancy
  Mg  Mg0  1  0.82937100  0.65898800  0.95484400  1
  Mn  Mn0  1  0.05917800  0.00457800  0.01134100  1
  Mn  Mn1  1  0.33884900  0.16841400  0.50814400  1
  Mn  Mn2  1  0.04447700  0.48884300  0.47963100  1
  Mn  Mn3  1  0.62407300  0.34163600  0.97749000  1
  Mn  Mn4  1  0.33227500  0.66505900  0.99758800  1
  Mn  Mn5  1  0.61583300  0.84630600  0.47666100  1
  O  O0  1  0.16479500  0.04871000  0.51763600  1
  O  O1  1  0.02670000  0.28414200  0.98246600  1
  O  O2  1  0.32875900  0.35621800  0.00472900  1
  O  O3  1  0.00496500  0.66408400  0.97734300  1
  O  O4  1  0.63573400  0.04933700  0.97476800  1
  O  O5  1  0.51715400  0.29587100  0.48670000  1
  O  O6  1  0.22174100  0.61021400  0.50270900  1
  O  O7  1  0.44214800  0.72055900  0.48882300  1
  O  O8  1  0.74727600  0.42898500  0.46722400  1
  O  O9  1  0.65547400  0.67596200  0.97345800  1
  O  O10  1  0.34879300  0.98094500  0.00369100  1
  F  F0  1  0.89365000  0.88823000  0.44392000  1
loop_
_geom_bond_atom_site_label_1
_geom_bond_atom_site_label_2
_geom_bond_distance
_geom_bond_site_symmetry_2
Mg0 O3 2.073669 1_655
Mg0 O8 2.089740 1_555
Mg0 O9 2.096941 1_555
Mg0 O8 2.107224 1_556
Mn0 O0 1.866231 1_554
Mn0 O0 1.936167 1_555
Mn0 O1 1.942819 1_554
Mn0 O3 2.071221 1_544
Mn1 O10 1.918832 1_546
Mn1 O2 1.924806 1_556
Mn1 O2 1.938483 1_555
Mn1 O10 1.940863 1_545
Mn1 O0 1.963869 1_555
Mn1 O5 2.014009 1_555
Mn2 O1 1.941822 1_554
Mn2 O1 1.942079 1_555
Mn2 O3 1.987189 1_555
Mn2 O6 2.003017 1_555
Mn2 O3 2.006354 1_554
Mn3 O5 1.909443 1_555
Mn3 O5 1.910332 1_556
Mn3 O4 1.915172 1_555
Mn3 O8 2.029808 1_555
Mn3 O8 2.031307 1_556
Mn3 O9 2.051015 1_555
Mn4 O6 1.924371 1_556
Mn4 O7 1.927740 1_555
Mn4 O7 1.930259 1_556
Mn4 O6 1.943596 1_555
Mn4 O2 1.960792 1_556
Mn4 O10 1.966406 1_556
Mn5 O4 1.930421 1_564
Mn5 O4 1.935163 1_565
Mn5 O7 1.962582 1_555
Mn5 O9 1.975317 1_555
Mn5 O9 1.980077 1_554
F0 Mg0 2.045005 1_554
F0 Mg0 2.062876 1_555
F0 Mn0 2.241272 1_665
F0 Mn0 2.540224 1_666
