# generated using pymatgen
data_Mg(MoO2)4
_symmetry_space_group_name_H-M   'P 1'
_cell_length_a   5.08111268
_cell_length_b   5.90595063
_cell_length_c   6.40615333
_cell_angle_alpha   123.59006069
_cell_angle_beta   89.78721369
_cell_angle_gamma   91.26165814
_symmetry_Int_Tables_number   1
_chemical_formula_structural   Mg(MoO2)4
_chemical_formula_sum   'Mg1 Mo4 O8'
_cell_volume   160.09294737
_cell_formula_units_Z   1
loop_
 _symmetry_equiv_pos_site_id
 _symmetry_equiv_pos_as_xyz
  1  'x, y, z'
loop_
 _atom_site_type_symbol
 _atom_site_label
 _atom_site_symmetry_multiplicity
 _atom_site_fract_x
 _atom_site_fract_y
 _atom_site_fract_z
 _atom_site_occupancy
  Mg  Mg0  1  0.97761502  0.48593236  0.99322647  1
  Mo  Mo0  1  0.47714659  0.48776173  0.24233604  1
  Mo  Mo1  1  0.98192113  0.03451187  0.26698493  1
  Mo  Mo2  1  0.47868992  0.48327918  0.74313209  1
  Mo  Mo3  1  0.97383546  0.93665133  0.71850433  1
  O  O0  1  0.14072515  0.75889073  0.36281481  1
  O  O1  1  0.66806948  0.71688170  0.10946815  1
  O  O2  1  0.81542311  0.21268133  0.62313995  1
  O  O3  1  0.28718043  0.25517516  0.87662114  1
  O  O4  1  0.81858613  0.21294551  0.08394097  1
  O  O5  1  0.28857120  0.28265172  0.38907001  1
  O  O6  1  0.13694476  0.75794085  0.90130219  1
  O  O7  1  0.66825461  0.68719651  0.59570891  1
loop_
_geom_bond_atom_site_label_1
_geom_bond_atom_site_label_2
_geom_bond_distance
_geom_bond_site_symmetry_2
Mg0 O3 1.961807 1_655
Mg0 O1 1.962312 1_556
Mg0 O4 2.136781 1_556
Mg0 O6 2.137494 1_655
Mg0 O0 2.150312 1_656
Mg0 O2 2.151001 1_555
Mo0 O7 2.114356 1_555
Mo0 O5 2.114535 1_555
Mo0 O3 2.169078 1_554
Mo0 O1 2.169599 1_555
Mo0 O0 2.196599 1_555
Mo0 O4 2.227643 1_555
Mo1 O5 1.956372 1_655
Mo1 O2 2.096892 1_555
Mo1 O6 2.141345 1_644
Mo1 O4 2.141816 1_555
Mo1 O0 2.201128 1_645
Mo1 O1 2.205919 1_545
Mo2 O7 2.114413 1_555
Mo2 O5 2.115158 1_555
Mo2 O3 2.168837 1_555
Mo2 O1 2.170854 1_556
Mo2 O2 2.196298 1_555
Mo2 O6 2.228353 1_555
Mo3 O7 1.956056 1_555
Mo3 O0 2.095519 1_655
Mo3 O4 2.140454 1_566
Mo3 O6 2.141377 1_655
Mo3 O2 2.200488 1_565
Mo3 O3 2.207136 1_665
