# generated using pymatgen
data_RbVBr3
_symmetry_space_group_name_H-M   'P 1'
_cell_length_a   12.90835489
_cell_length_b   12.90826948
_cell_length_c   6.46967678
_cell_angle_alpha   89.99976785
_cell_angle_beta   90.00013511
_cell_angle_gamma   119.99929243
_symmetry_Int_Tables_number   1
_chemical_formula_structural   RbVBr3
_chemical_formula_sum   'Rb6 V6 Br18'
_cell_volume   933.58793978
_cell_formula_units_Z   6
loop_
 _symmetry_equiv_pos_site_id
 _symmetry_equiv_pos_as_xyz
  1  'x, y, z'
loop_
 _atom_site_type_symbol
 _atom_site_label
 _atom_site_symmetry_multiplicity
 _atom_site_fract_x
 _atom_site_fract_y
 _atom_site_fract_z
 _atom_site_occupancy
  Rb  Rb0  1  0.33267524  0.33267200  0.26652872  1
  Rb  Rb1  1  0.66732886  0.66732535  0.76652851  1
  Rb  Rb2  1  0.99999733  0.66732519  0.26652814  1
  Rb  Rb3  1  0.66732921  0.00000305  0.26652844  1
  Rb  Rb4  1  0.33267551  0.00000334  0.76652851  1
  Rb  Rb5  1  0.99999754  0.33267157  0.76652867  1
  V  V0  1  0.00000027  0.00000022  0.99555201  1
  V  V1  1  0.00000127  0.00000100  0.49555249  1
  V  V2  1  0.33333321  0.66666602  0.05410015  1
  V  V3  1  0.66666638  0.33333325  0.55413245  1
  V  V4  1  0.33333407  0.66666689  0.55410388  1
  V  V5  1  0.66666715  0.33333420  0.05413009  1
  Br  Br0  1  0.50460372  0.33340689  0.80450444  1
  Br  Br1  1  0.49538173  0.66662560  0.30445230  1
  Br  Br2  1  0.33337107  0.82875548  0.30445273  1
  Br  Br3  1  0.17124625  0.50461691  0.30445596  1
  Br  Br4  1  0.82878586  0.49538849  0.80450051  1
  Br  Br5  1  -0.00000410  0.16227806  0.24458903  1
  Br  Br6  1  0.16228180  0.00000465  0.24458689  1
  Br  Br7  1  0.16228161  0.16227716  0.74458804  1
  Br  Br8  1  -0.00000318  0.83771934  0.74458666  1
  Br  Br9  1  0.50460305  0.17119742  0.30450152  1
  Br  Br10  1  0.83772433  0.83771983  0.24458814  1
  Br  Br11  1  0.83772404  0.00000575  0.74458814  1
  Br  Br12  1  0.49538351  0.82875375  0.80445425  1
  Br  Br13  1  0.33337540  0.50461823  0.80445373  1
  Br  Br14  1  0.17124607  0.66662946  0.80445495  1
  Br  Br15  1  0.82880308  0.33340582  0.30450000  1
  Br  Br16  1  0.66659454  0.49539824  0.30449955  1
  Br  Br17  1  0.66659418  0.17119686  0.80450309  1
loop_
_geom_bond_atom_site_label_1
_geom_bond_atom_site_label_2
_geom_bond_distance
_geom_bond_site_symmetry_2
Br0 V5 2.643201 1_556
Br0 V3 2.646157 1_555
Br0 Rb0 3.720138 1_556
Br0 Rb4 3.735808 1_555
Br0 Rb1 3.741338 1_555
Br0 Rb0 4.125341 1_555
Br1 V4 2.642988 1_555
Br1 V2 2.645759 1_555
Br1 Rb1 3.720677 1_555
Br1 Rb3 3.735501 1_565
Br1 Rb0 3.741717 1_555
Br1 Rb1 4.125316 1_554
Br2 V4 2.642985 1_555
Br2 V2 2.645776 1_555
Br2 Rb4 3.720665 1_565
Br2 Rb2 3.735483 1_455
Br2 Rb3 3.741793 1_565
Br2 Rb4 4.125288 1_564
Br3 V4 2.642991 1_555
Br3 V2 2.645779 1_555
Br3 Rb5 3.720668 1_455
Br3 Rb0 3.735435 1_555
Br3 Rb2 3.741731 1_455
Br3 Rb5 4.125341 1_454
Br4 V5 2.643094 1_556
Br4 V3 2.646029 1_555
Br4 Rb2 3.720264 1_556
Br4 Rb1 3.735671 1_555
Br4 Rb5 3.741428 1_555
Br4 Rb2 4.125423 1_555
Br5 V0 2.642717 1_554
Br5 V1 2.650321 1_555
Br5 Rb3 3.721971 1_455
Br5 Rb0 3.722113 1_555
Br5 Rb5 3.795213 1_454
Br5 Rb5 4.029938 1_455
Br6 V0 2.642704 1_554
Br6 V1 2.650338 1_555
Br6 Rb0 3.721957 1_555
Br6 Rb2 3.722088 1_445
Br6 Rb4 3.795235 1_554
Br6 Rb4 4.029956 1_555
Br7 V1 2.642713 1_555
Br7 V0 2.650343 1_555
Br7 Rb4 3.721932 1_555
Br7 Rb5 3.722051 1_455
Br7 Rb0 3.795241 1_555
Br7 Rb0 4.029967 1_556
Br8 V1 2.642689 1_565
Br8 V0 2.650333 1_565
Br8 Rb1 3.721987 1_455
Br8 Rb4 3.722105 1_565
Br8 Rb2 3.795230 1_455
Br8 Rb2 4.029945 1_456
Br9 V3 2.643237 1_555
Br9 V5 2.646172 1_555
Br9 Rb4 3.720153 1_555
Br9 Rb0 3.735764 1_555
Br9 Rb3 3.741335 1_555
Br9 Rb4 4.125341 1_554
Br10 V0 2.642710 1_664
Br10 V1 2.650348 1_665
Br10 Rb2 3.721930 1_555
Br10 Rb3 3.722050 1_565
Br10 Rb1 3.795254 1_554
Br10 Rb1 4.029964 1_555
Br11 V1 2.642716 1_655
Br11 V0 2.650328 1_655
Br11 Rb5 3.721937 1_555
Br11 Rb1 3.722100 1_545
Br11 Rb3 3.795227 1_555
Br11 Rb3 4.029952 1_556
Br12 V2 2.642980 1_556
Br12 V4 2.645763 1_555
Br12 Rb3 3.720685 1_566
Br12 Rb1 3.735434 1_555
Br12 Rb4 3.741733 1_565
Br12 Rb3 4.125330 1_565
Br13 V2 2.642965 1_556
Br13 V4 2.645742 1_555
Br13 Rb0 3.720650 1_556
Br13 Rb5 3.735531 1_455
Br13 Rb1 3.741740 1_555
Br13 Rb0 4.125311 1_555
Br14 V2 2.642962 1_556
Br14 V4 2.645766 1_555
Br14 Rb2 3.720665 1_456
Br14 Rb4 3.735460 1_565
Br14 Rb5 3.741767 1_455
Br14 Rb2 4.125319 1_455
Br15 V3 2.643241 1_555
Br15 V5 2.646149 1_555
Br15 Rb5 3.720157 1_555
Br15 Rb3 3.735796 1_555
Br15 Rb2 3.741349 1_555
Br15 Rb5 4.125329 1_554
Br16 V3 2.643228 1_555
Br16 V5 2.646147 1_555
Br16 Rb1 3.720148 1_555
Br16 Rb2 3.735821 1_555
Br16 Rb0 3.741371 1_555
Br16 Rb1 4.125297 1_554
Br17 V5 2.643215 1_556
Br17 V3 2.646141 1_555
Br17 Rb3 3.720126 1_556
Br17 Rb5 3.735828 1_555
Br17 Rb4 3.741367 1_555
Br17 Rb3 4.125341 1_555
