# generated using pymatgen
data_Nd4PdO7
_symmetry_space_group_name_H-M   'P 1'
_cell_length_a   6.94079546
_cell_length_b   7.23530918
_cell_length_c   7.96764049
_cell_angle_alpha   70.04449689
_cell_angle_beta   71.98775887
_cell_angle_gamma   83.47976375
_symmetry_Int_Tables_number   1
_chemical_formula_structural   Nd4PdO7
_chemical_formula_sum   'Nd8 Pd2 O14'
_cell_volume   357.65407974
_cell_formula_units_Z   2
loop_
 _symmetry_equiv_pos_site_id
 _symmetry_equiv_pos_as_xyz
  1  'x, y, z'
loop_
 _atom_site_type_symbol
 _atom_site_label
 _atom_site_symmetry_multiplicity
 _atom_site_fract_x
 _atom_site_fract_y
 _atom_site_fract_z
 _atom_site_occupancy
  Nd  Nd0  1  0.66865205  0.83517107  0.37699247  1
  Nd  Nd1  1  0.33134795  0.16482893  0.62300753  1
  Nd  Nd2  1  0.64527289  0.85653025  0.85675108  1
  Nd  Nd3  1  0.35472711  0.14346975  0.14324892  1
  Nd  Nd4  1  0.79039146  0.39617676  0.72740523  1
  Nd  Nd5  1  0.20960854  0.60382324  0.27259477  1
  Nd  Nd6  1  0.77811235  0.39036542  0.21184363  1
  Nd  Nd7  1  0.22188765  0.60963458  0.78815637  1
  Pd  Pd0  1  -0.00000000  0.00000000  0.50000000  1
  Pd  Pd1  1  -0.00000000  0.00000000  -0.00000000  1
  O  O0  1  0.95041306  0.06362339  0.74330525  1
  O  O1  1  0.04958694  0.93637661  0.25669475  1
  O  O2  1  0.70703567  0.08553144  0.50948313  1
  O  O3  1  0.29296433  0.91446856  0.49051687  1
  O  O4  1  0.73323824  0.13925128  0.07963608  1
  O  O5  1  0.26676176  0.86074872  0.92036392  1
  O  O6  1  0.43048947  0.32846119  0.30262132  1
  O  O7  1  0.56951053  0.67153881  0.69737868  1
  O  O8  1  0.46836244  0.24511617  0.82240981  1
  O  O9  1  0.53163756  0.75488383  0.17759019  1
  O  O10  1  0.14536453  0.41636635  0.10229125  1
  O  O11  1  0.85463547  0.58363365  0.89770875  1
  O  O12  1  0.15497590  0.45661672  0.59848540  1
  O  O13  1  0.84502410  0.54338328  0.40151460  1
loop_
_geom_bond_atom_site_label_1
_geom_bond_atom_site_label_2
_geom_bond_distance
_geom_bond_site_symmetry_2
Nd0 O13 2.296351 1_555
Nd0 O7 2.329667 1_555
Nd0 O9 2.335773 1_555
Nd0 O2 2.460775 1_565
Nd0 O3 2.550015 1_555
Nd0 O4 2.581445 1_565
Nd0 O1 2.615136 1_655
Nd1 O12 2.296351 1_555
Nd1 O6 2.329667 1_555
Nd1 O8 2.335773 1_555
Nd1 O3 2.460775 1_545
Nd1 O2 2.550015 1_555
Nd1 O5 2.581445 1_545
Nd1 O0 2.615136 1_455
Nd2 O9 2.302026 1_556
Nd2 O11 2.306201 1_555
Nd2 O7 2.326671 1_555
Nd2 O0 2.481947 1_565
Nd2 O5 2.515689 1_555
Nd2 O2 2.623610 1_565
Nd2 O8 2.895858 1_565
Nd3 O8 2.302026 1_554
Nd3 O10 2.306201 1_555
Nd3 O6 2.326671 1_555
Nd3 O1 2.481947 1_545
Nd3 O4 2.515689 1_555
Nd3 O3 2.623610 1_545
Nd3 O9 2.895858 1_545
Nd4 O7 2.363212 1_555
Nd4 O13 2.369703 1_555
Nd4 O11 2.376424 1_555
Nd4 O8 2.388965 1_555
Nd4 O12 2.446835 1_655
Nd4 O0 2.512194 1_555
Nd4 O4 2.721599 1_556
Nd5 O6 2.363212 1_555
Nd5 O12 2.369703 1_555
Nd5 O10 2.376424 1_555
Nd5 O9 2.388965 1_555
Nd5 O13 2.446835 1_455
Nd5 O1 2.512194 1_555
Nd5 O5 2.721599 1_554
Nd6 O13 2.327684 1_555
Nd6 O11 2.336580 1_554
Nd6 O6 2.343140 1_555
Nd6 O10 2.432205 1_655
Nd6 O4 2.479013 1_555
Nd6 O2 2.585577 1_555
Nd6 O9 2.954610 1_555
Nd7 O12 2.327684 1_555
Nd7 O10 2.336580 1_556
Nd7 O7 2.343140 1_555
Nd7 O11 2.432205 1_455
Nd7 O5 2.479013 1_555
Nd7 O3 2.585577 1_555
Nd7 O8 2.954610 1_555
O0 Pd0 2.061294 1_655
O0 Pd1 2.066426 1_656
O1 Pd0 2.061294 1_565
O1 Pd1 2.066426 1_565
O2 Pd0 2.043167 1_655
O3 Pd0 2.043167 1_565
O4 Pd1 2.032745 1_655
O5 Pd1 2.032745 1_566
