# generated using pymatgen
data_PNCl2
_symmetry_space_group_name_H-M   'P 1'
_cell_length_a   6.55379400
_cell_length_b   13.75048000
_cell_length_c   14.74003200
_cell_angle_alpha   90.00000000
_cell_angle_beta   90.00000000
_cell_angle_gamma   90.00000000
_symmetry_Int_Tables_number   1
_chemical_formula_structural   PNCl2
_chemical_formula_sum   'P12 N12 Cl24'
_cell_volume   1328.33945212
_cell_formula_units_Z   12
loop_
 _symmetry_equiv_pos_site_id
 _symmetry_equiv_pos_as_xyz
  1  'x, y, z'
loop_
 _atom_site_type_symbol
 _atom_site_label
 _atom_site_symmetry_multiplicity
 _atom_site_fract_x
 _atom_site_fract_y
 _atom_site_fract_z
 _atom_site_occupancy
  P  P0  1  0.93797900  0.35092500  0.90548500  1
  P  P1  1  0.43797900  0.64907500  0.59451500  1
  P  P2  1  0.06202100  0.85092500  0.09451500  1
  P  P3  1  0.56202100  0.14907500  0.40548500  1
  P  P4  1  0.06202100  0.64907500  0.09451500  1
  P  P5  1  0.56202100  0.35092500  0.40548500  1
  P  P6  1  0.93797900  0.14907500  0.90548500  1
  P  P7  1  0.43797900  0.85092500  0.59451500  1
  P  P8  1  0.90982500  0.75000000  0.94619400  1
  P  P9  1  0.40982500  0.25000000  0.55380600  1
  P  P10  1  0.09017500  0.25000000  0.05380600  1
  P  P11  1  0.59017500  0.75000000  0.44619400  1
  N  N0  1  0.04386200  0.34988100  0.00280200  1
  N  N1  1  0.54386300  0.65011900  0.49719800  1
  N  N2  1  0.95613700  0.84988100  0.99719800  1
  N  N3  1  0.45613700  0.15011900  0.50280200  1
  N  N4  1  0.95613700  0.65011900  0.99719800  1
  N  N5  1  0.45613700  0.34988100  0.50280200  1
  N  N6  1  0.04386200  0.15011900  0.00280200  1
  N  N7  1  0.54386300  0.84988100  0.49719800  1
  N  N8  1  0.10339000  0.75000000  0.14476800  1
  N  N9  1  0.60339000  0.25000000  0.35523200  1
  N  N10  1  0.89661000  0.25000000  0.85523200  1
  N  N11  1  0.39661000  0.75000000  0.64476800  1
  Cl  Cl0  1  0.44216300  0.75000000  0.32609600  1
  Cl  Cl1  1  0.94216300  0.25000000  0.17390400  1
  Cl  Cl2  1  0.55783700  0.25000000  0.67390400  1
  Cl  Cl3  1  0.05783700  0.75000000  0.82609600  1
  Cl  Cl4  1  0.88362600  0.75000000  0.40593600  1
  Cl  Cl5  1  0.38362600  0.25000000  0.09406400  1
  Cl  Cl6  1  0.11637400  0.25000000  0.59406400  1
  Cl  Cl7  1  0.61637400  0.75000000  0.90593600  1
  Cl  Cl8  1  0.17232300  0.92476800  0.58639400  1
  Cl  Cl9  1  0.67232300  0.07523200  0.91360600  1
  Cl  Cl10  1  0.82767700  0.42476800  0.41360600  1
  Cl  Cl11  1  0.32767700  0.57523200  0.08639400  1
  Cl  Cl12  1  0.82767700  0.07523200  0.41360600  1
  Cl  Cl13  1  0.32767700  0.92476800  0.08639400  1
  Cl  Cl14  1  0.17232300  0.57523200  0.58639400  1
  Cl  Cl15  1  0.67232300  0.42476800  0.91360600  1
  Cl  Cl16  1  0.60203900  0.93648600  0.67786400  1
  Cl  Cl17  1  0.10203900  0.06351400  0.82213600  1
  Cl  Cl18  1  0.39796100  0.43648600  0.32213600  1
  Cl  Cl19  1  0.89796100  0.56351400  0.17786400  1
  Cl  Cl20  1  0.39796100  0.06351400  0.32213600  1
  Cl  Cl21  1  0.89796100  0.93648600  0.17786400  1
  Cl  Cl22  1  0.60203900  0.56351400  0.67786400  1
  Cl  Cl23  1  0.10203900  0.43648600  0.82213600  1
loop_
_geom_bond_atom_site_label_1
_geom_bond_atom_site_label_2
_geom_bond_distance
_geom_bond_site_symmetry_2
N0 P0 1.593554 1_454
N0 P10 1.594864 1_555
N1 P1 1.593557 1_555
N1 P11 1.594863 1_555
N2 P2 1.593557 1_656
N2 P8 1.594863 1_555
N3 P3 1.593557 1_555
N3 P9 1.594863 1_555
N4 P4 1.593557 1_656
N4 P8 1.594863 1_555
N5 P5 1.593557 1_555
N5 P9 1.594863 1_555
N6 P6 1.593554 1_454
N6 P10 1.594864 1_555
N7 P7 1.593557 1_555
N7 P11 1.594863 1_555
N8 P2 1.596273 1_555
N8 P4 1.596273 1_555
N9 P3 1.596273 1_555
N9 P5 1.596273 1_555
N10 P6 1.596273 1_555
N10 P0 1.596273 1_555
N11 P7 1.596273 1_555
N11 P1 1.596273 1_555
Cl0 P11 2.018603 1_555
Cl1 P10 2.018603 1_655
Cl2 P9 2.018603 1_555
Cl3 P8 2.018603 1_455
Cl4 P11 2.012683 1_555
Cl5 P10 2.012683 1_555
Cl6 P9 2.012683 1_555
Cl7 P8 2.012683 1_555
Cl8 P7 2.019057 1_555
Cl9 P6 2.019057 1_555
Cl10 P5 2.019057 1_555
Cl11 P4 2.019057 1_555
Cl12 P3 2.019057 1_555
Cl13 P2 2.019057 1_555
Cl14 P1 2.019057 1_555
Cl15 P0 2.019057 1_555
Cl16 P7 2.012369 1_555
Cl17 P6 2.012369 1_455
Cl18 P5 2.012369 1_555
Cl19 P4 2.012369 1_655
Cl20 P3 2.012369 1_555
Cl21 P2 2.012369 1_655
Cl22 P1 2.012369 1_555
Cl23 P0 2.012369 1_455
