# generated using pymatgen
data_Yb(Ga4Co)2
_symmetry_space_group_name_H-M   'P 1'
_cell_length_a   3.99019900
_cell_length_b   12.37962300
_cell_length_c   14.38010400
_cell_angle_alpha   90.00000000
_cell_angle_beta   90.00000000
_cell_angle_gamma   90.00000000
_symmetry_Int_Tables_number   1
_chemical_formula_structural   Yb(Ga4Co)2
_chemical_formula_sum   'Yb4 Ga32 Co8'
_cell_volume   710.33628825
_cell_formula_units_Z   4
loop_
 _symmetry_equiv_pos_site_id
 _symmetry_equiv_pos_as_xyz
  1  'x, y, z'
loop_
 _atom_site_type_symbol
 _atom_site_label
 _atom_site_symmetry_multiplicity
 _atom_site_fract_x
 _atom_site_fract_y
 _atom_site_fract_z
 _atom_site_occupancy
  Yb  Yb0  1  0.00000000  0.15671600  0.81929700  1
  Yb  Yb1  1  0.00000000  0.84328400  0.18070300  1
  Yb  Yb2  1  0.00000000  0.65671600  0.68070300  1
  Yb  Yb3  1  0.00000000  0.34328400  0.31929700  1
  Ga  Ga0  1  0.00000000  0.50000000  0.50000000  1
  Ga  Ga1  1  0.50000000  0.00000000  0.50000000  1
  Ga  Ga2  1  0.50000000  0.50000000  0.00000000  1
  Ga  Ga3  1  0.00000000  0.00000000  0.00000000  1
  Ga  Ga4  1  0.50000000  0.33105100  0.48915900  1
  Ga  Ga5  1  0.50000000  0.66894900  0.51084100  1
  Ga  Ga6  1  0.50000000  0.83105100  0.01084100  1
  Ga  Ga7  1  0.50000000  0.16894900  0.98915900  1
  Ga  Ga8  1  0.50000000  0.02056300  0.13388200  1
  Ga  Ga9  1  0.50000000  0.97943700  0.86611800  1
  Ga  Ga10  1  0.50000000  0.52056300  0.36611800  1
  Ga  Ga11  1  0.50000000  0.47943700  0.63388200  1
  Ga  Ga12  1  0.50000000  0.23908000  0.17737200  1
  Ga  Ga13  1  0.50000000  0.76092000  0.82262800  1
  Ga  Ga14  1  0.50000000  0.73908000  0.32262800  1
  Ga  Ga15  1  0.50000000  0.26092000  0.67737200  1
  Ga  Ga16  1  0.50000000  0.44932800  0.18366700  1
  Ga  Ga17  1  0.50000000  0.55067200  0.81633300  1
  Ga  Ga18  1  0.50000000  0.94932800  0.31633300  1
  Ga  Ga19  1  0.50000000  0.05067200  0.68366700  1
  Ga  Ga20  1  0.50000000  0.16672700  0.37793100  1
  Ga  Ga21  1  0.50000000  0.83327300  0.62206900  1
  Ga  Ga22  1  0.50000000  0.66672700  0.12206900  1
  Ga  Ga23  1  0.50000000  0.33327300  0.87793100  1
  Ga  Ga24  1  0.00000000  0.33813700  0.04512000  1
  Ga  Ga25  1  0.00000000  0.66186300  0.95488000  1
  Ga  Ga26  1  0.00000000  0.83813700  0.45488000  1
  Ga  Ga27  1  0.00000000  0.16186300  0.54512000  1
  Ga  Ga28  1  0.00000000  0.09977800  0.25486600  1
  Ga  Ga29  1  0.00000000  0.90022200  0.74513400  1
  Ga  Ga30  1  0.00000000  0.59977800  0.24513400  1
  Ga  Ga31  1  0.00000000  0.40022200  0.75486600  1
  Co  Co0  1  0.00000000  0.03400200  0.40643600  1
  Co  Co1  1  0.00000000  0.34807100  0.59748200  1
  Co  Co2  1  0.00000000  0.65192900  0.40251800  1
  Co  Co3  1  0.00000000  0.84807100  0.90251800  1
  Co  Co4  1  0.00000000  0.15192900  0.09748200  1
  Co  Co5  1  0.00000000  0.96599800  0.59356400  1
  Co  Co6  1  0.00000000  0.53400200  0.09356400  1
  Co  Co7  1  0.00000000  0.46599800  0.90643600  1
loop_
_geom_bond_atom_site_label_1
_geom_bond_atom_site_label_2
_geom_bond_distance
_geom_bond_site_symmetry_2
Ga0 Ga11 2.784199 1_555
Ga0 Ga11 2.784199 1_455
Ga0 Ga10 2.784199 1_555
Ga0 Ga10 2.784199 1_455
Ga0 Ga4 2.894685 1_455
Ga0 Ga5 2.894685 1_555
Ga0 Ga5 2.894685 1_455
Ga0 Ga4 2.894685 1_555
Ga0 Yb2 3.242881 1_555
Ga0 Yb3 3.242881 1_555
Ga1 Ga18 2.714624 1_545
Ga1 Ga19 2.714624 1_555
Ga3 Ga9 2.784199 1_544
Ga3 Ga9 2.784199 1_444
Ga3 Ga8 2.784199 1_455
Ga3 Ga8 2.784199 1_555
Ga3 Ga7 2.894685 1_554
Ga3 Ga6 2.894685 1_445
Ga3 Ga6 2.894685 1_545
Ga3 Ga7 2.894685 1_454
Ga3 Yb0 3.242881 1_554
Ga3 Yb1 3.242881 1_545
Ga4 Yb3 3.157501 1_555
Ga4 Yb3 3.157501 1_655
Ga5 Yb2 3.157501 1_555
Ga5 Yb2 3.157501 1_655
Ga6 Ga9 2.775886 1_554
Ga6 Ga8 2.938486 1_565
Ga6 Yb1 3.157501 1_655
Ga6 Yb1 3.157501 1_555
Ga7 Ga8 2.775886 1_556
Ga7 Ga9 2.938486 1_545
Ga7 Yb0 3.157501 1_655
Ga7 Yb0 3.157501 1_555
Ga8 Yb1 3.041417 1_545
Ga8 Yb1 3.041417 1_645
Ga9 Yb0 3.041417 1_665
Ga9 Yb0 3.041417 1_565
Ga10 Ga16 2.767905 1_555
Ga10 Ga5 2.775886 1_555
Ga10 Ga14 2.776507 1_555
Ga10 Ga30 2.822919 1_655
Ga10 Ga30 2.822919 1_555
Ga10 Ga4 2.938486 1_555
Ga10 Yb3 3.041417 1_555
Ga10 Yb3 3.041417 1_655
Ga11 Ga17 2.767905 1_555
Ga11 Ga4 2.775886 1_555
Ga11 Ga15 2.776507 1_555
Ga11 Ga31 2.822919 1_655
Ga11 Ga31 2.822919 1_555
Ga11 Ga5 2.938486 1_555
Ga11 Yb2 3.041417 1_555
Ga11 Yb2 3.041417 1_655
Ga12 Ga16 2.604365 1_555
Ga12 Ga8 2.776507 1_555
Ga12 Ga7 2.842363 1_554
Ga12 Ga28 2.862895 1_555
Ga12 Ga28 2.862895 1_655
Ga12 Ga24 3.016793 1_555
Ga12 Ga24 3.016793 1_655
Ga12 Ga20 3.019947 1_555
Ga12 Yb3 3.132059 1_555
Ga12 Yb3 3.132059 1_655
Ga13 Ga17 2.604365 1_555
Ga13 Ga9 2.776507 1_555
Ga13 Ga6 2.842363 1_556
Ga13 Ga29 2.862895 1_555
Ga13 Ga29 2.862895 1_655
Ga13 Ga25 3.016793 1_655
Ga13 Ga25 3.016793 1_555
Ga13 Ga21 3.019947 1_555
Ga13 Yb2 3.132059 1_655
Ga13 Yb2 3.132059 1_555
Ga14 Ga18 2.604365 1_555
Ga14 Ga5 2.842363 1_555
Ga14 Ga30 2.862895 1_655
Ga14 Ga30 2.862895 1_555
Ga14 Ga26 3.016793 1_655
Ga14 Ga26 3.016793 1_555
Ga14 Ga22 3.019947 1_555
Ga14 Yb1 3.132059 1_555
Ga14 Yb1 3.132059 1_655
Ga15 Ga19 2.604365 1_555
Ga15 Ga4 2.842363 1_555
Ga15 Ga31 2.862895 1_655
Ga15 Ga31 2.862895 1_555
Ga15 Ga27 3.016793 1_655
Ga15 Ga27 3.016793 1_555
Ga15 Ga23 3.019947 1_555
Ga15 Yb0 3.132059 1_555
Ga15 Yb0 3.132059 1_655
Ga16 Ga2 2.714624 1_555
Ga16 Ga22 2.833338 1_555
Ga16 Ga30 2.868913 1_555
Ga16 Ga30 2.868913 1_655
Ga16 Yb3 3.083469 1_555
Ga16 Yb3 3.083469 1_655
Ga17 Ga2 2.714624 1_556
Ga17 Ga23 2.833338 1_555
Ga17 Ga31 2.868913 1_655
Ga17 Ga31 2.868913 1_555
Ga17 Yb2 3.083469 1_555
Ga17 Yb2 3.083469 1_655
Ga18 Ga8 2.767905 1_565
Ga18 Ga20 2.833338 1_565
Ga18 Ga28 2.868913 1_665
Ga18 Ga28 2.868913 1_565
Ga18 Yb1 3.083469 1_555
Ga18 Yb1 3.083469 1_655
Ga19 Ga9 2.767905 1_545
Ga19 Ga21 2.833338 1_545
Ga19 Ga29 2.868913 1_545
Ga19 Ga29 2.868913 1_645
Ga19 Yb0 3.083469 1_655
Ga19 Yb0 3.083469 1_555
Ga20 Ga4 2.587770 1_555
Ga20 Ga28 2.792692 1_655
Ga20 Ga28 2.792692 1_555
Ga20 Yb3 3.077120 1_555
Ga20 Yb3 3.077120 1_655
Ga21 Ga5 2.587770 1_555
Ga21 Ga29 2.792692 1_555
Ga21 Ga29 2.792692 1_655
Ga21 Yb2 3.077120 1_555
Ga21 Yb2 3.077120 1_655
Ga22 Ga6 2.587770 1_555
Ga22 Ga30 2.792692 1_555
Ga22 Ga30 2.792692 1_655
Ga22 Yb1 3.077120 1_655
Ga22 Yb1 3.077120 1_555
Ga23 Ga7 2.587770 1_555
Ga23 Ga31 2.792692 1_655
Ga23 Ga31 2.792692 1_555
Ga23 Yb0 3.077120 1_655
Ga23 Yb0 3.077120 1_555
Ga24 Ga7 3.002477 1_454
Ga24 Ga7 3.002477 1_554
Ga25 Ga6 3.002477 1_556
Ga25 Ga6 3.002477 1_456
Ga26 Ga5 3.002477 1_455
Ga26 Ga5 3.002477 1_555
Ga27 Ga4 3.002477 1_555
Ga27 Ga4 3.002477 1_455
Ga28 Ga8 2.822919 1_555
Ga28 Ga8 2.822919 1_455
Ga28 Yb3 3.153686 1_555
Ga28 Yb1 3.349610 1_545
Ga29 Ga9 2.822919 1_555
Ga29 Ga9 2.822919 1_455
Ga29 Yb2 3.153686 1_555
Ga29 Yb0 3.349610 1_565
Ga30 Yb1 3.153686 1_555
Ga30 Yb3 3.349610 1_555
Ga31 Yb0 3.153686 1_555
Ga31 Yb2 3.349610 1_555
Co0 Ga28 2.326731 1_555
Co0 Ga1 2.442922 1_555
Co0 Ga1 2.442922 1_455
Co0 Ga26 2.522822 1_545
Co0 Ga27 2.546110 1_555
Co0 Ga18 2.599620 1_445
Co0 Ga18 2.599620 1_545
Co0 Ga20 2.616902 1_455
Co0 Ga20 2.616902 1_555
Co1 Ga0 2.345750 1_555
Co1 Ga31 2.353482 1_555
Co1 Ga27 2.425045 1_555
Co1 Ga4 2.539928 1_555
Co1 Ga4 2.539928 1_455
Co1 Ga15 2.542487 1_455
Co1 Ga15 2.542487 1_555
Co1 Ga11 2.626620 1_455
Co1 Ga11 2.626620 1_555
Co2 Ga0 2.345750 1_555
Co2 Ga30 2.353482 1_555
Co2 Ga26 2.425045 1_555
Co2 Ga5 2.539928 1_455
Co2 Ga5 2.539928 1_555
Co2 Ga14 2.542487 1_455
Co2 Ga14 2.542487 1_555
Co2 Ga10 2.626620 1_555
Co2 Ga10 2.626620 1_455
Co3 Ga3 2.345750 1_566
Co3 Ga29 2.353482 1_555
Co3 Ga25 2.425045 1_555
Co3 Ga6 2.539928 1_456
Co3 Ga6 2.539928 1_556
Co3 Ga13 2.542487 1_555
Co3 Ga13 2.542487 1_455
Co3 Ga9 2.626620 1_555
Co3 Ga9 2.626620 1_455
Co4 Ga3 2.345750 1_555
Co4 Ga28 2.353482 1_555
Co4 Ga24 2.425045 1_555
Co4 Ga7 2.539928 1_554
Co4 Ga7 2.539928 1_454
Co4 Ga12 2.542487 1_555
Co4 Ga12 2.542487 1_455
Co4 Ga8 2.626620 1_555
Co4 Ga8 2.626620 1_455
Co5 Ga29 2.326731 1_555
Co5 Ga1 2.442922 1_465
Co5 Ga1 2.442922 1_565
Co5 Ga27 2.522822 1_565
Co5 Ga26 2.546110 1_555
Co5 Ga19 2.599620 1_465
Co5 Ga19 2.599620 1_565
Co5 Ga21 2.616902 1_555
Co5 Ga21 2.616902 1_455
Co6 Ga30 2.326731 1_555
Co6 Ga2 2.442922 1_555
Co6 Ga2 2.442922 1_455
Co6 Ga24 2.522822 1_555
Co6 Ga25 2.546110 1_554
Co6 Ga16 2.599620 1_555
Co6 Ga16 2.599620 1_455
Co6 Ga22 2.616902 1_555
Co6 Ga22 2.616902 1_455
Co7 Ga31 2.326731 1_555
Co7 Ga2 2.442922 1_456
Co7 Ga2 2.442922 1_556
Co7 Ga25 2.522822 1_555
Co7 Ga24 2.546110 1_556
Co7 Ga17 2.599620 1_555
Co7 Ga17 2.599620 1_455
Co7 Ga23 2.616902 1_455
Co7 Ga23 2.616902 1_555
