# generated using pymatgen
data_Sm2InGe2
_symmetry_space_group_name_H-M   'P 1'
_cell_length_a   4.26212794
_cell_length_b   7.49738246
_cell_length_c   7.49738246
_cell_angle_alpha   90.00000000
_cell_angle_beta   90.00000000
_cell_angle_gamma   90.00000000
_symmetry_Int_Tables_number   1
_chemical_formula_structural   Sm2InGe2
_chemical_formula_sum   'Sm4 In2 Ge4'
_cell_volume   239.57738147
_cell_formula_units_Z   2
loop_
 _symmetry_equiv_pos_site_id
 _symmetry_equiv_pos_as_xyz
  1  'x, y, z'
loop_
 _atom_site_type_symbol
 _atom_site_label
 _atom_site_symmetry_multiplicity
 _atom_site_fract_x
 _atom_site_fract_y
 _atom_site_fract_z
 _atom_site_occupancy
  Sm  Sm0  1  0.50000000  0.82006475  0.32006475  1
  Sm  Sm1  1  0.50000000  0.67993525  0.82006475  1
  Sm  Sm2  1  0.50000000  0.32006475  0.17993525  1
  Sm  Sm3  1  0.50000000  0.17993525  0.67993525  1
  In  In0  1  -0.00000000  -0.00000000  0.00000000  1
  In  In1  1  -0.00000000  0.50000000  0.50000000  1
  Ge  Ge0  1  -0.00000000  0.61774279  0.11774279  1
  Ge  Ge1  1  -0.00000000  0.88225721  0.61774279  1
  Ge  Ge2  1  0.00000000  0.11774279  0.38225721  1
  Ge  Ge3  1  0.00000000  0.38225721  0.88225721  1
loop_
_geom_bond_atom_site_label_1
_geom_bond_atom_site_label_2
_geom_bond_distance
_geom_bond_site_symmetry_2
In0 Sm3 3.481330 1_554
In0 Sm1 3.481330 1_444
In0 Sm0 3.481330 1_445
In0 Sm0 3.481330 1_545
In0 Sm2 3.481330 1_455
In0 Sm3 3.481330 1_454
In0 Sm2 3.481330 1_555
In0 Sm1 3.481330 1_544
In1 Sm0 3.481330 1_455
In1 Sm3 3.481330 1_555
In1 Sm0 3.481330 1_555
In1 Sm2 3.481330 1_455
In1 Sm3 3.481330 1_455
In1 Sm2 3.481330 1_555
In1 Sm1 3.481330 1_555
In1 Sm1 3.481330 1_455
Ge0 Ge3 2.496830 1_554
Ge0 In0 2.998802 1_565
Ge0 In1 2.998802 1_555
Ge0 Sm0 3.023791 1_455
Ge0 Sm0 3.023791 1_555
Ge0 Sm1 3.120867 1_554
Ge0 Sm2 3.120867 1_455
Ge0 Sm2 3.120867 1_555
Ge0 Sm1 3.120867 1_454
Ge1 Ge2 2.496830 1_565
Ge1 In0 2.998802 1_566
Ge1 In1 2.998802 1_555
Ge1 Sm1 3.023791 1_455
Ge1 Sm1 3.023791 1_555
Ge1 Sm0 3.120867 1_555
Ge1 Sm3 3.120867 1_565
Ge1 Sm3 3.120867 1_465
Ge1 Sm0 3.120867 1_455
Ge2 In0 2.998802 1_555
Ge2 In1 2.998802 1_555
Ge2 Sm2 3.023791 1_455
Ge2 Sm2 3.023791 1_555
Ge2 Sm3 3.120867 1_555
Ge2 Sm0 3.120867 1_445
Ge2 Sm0 3.120867 1_545
Ge2 Sm3 3.120867 1_455
Ge3 In0 2.998802 1_556
Ge3 In1 2.998802 1_555
Ge3 Sm3 3.023791 1_555
Ge3 Sm3 3.023791 1_455
Ge3 Sm2 3.120867 1_456
Ge3 Sm1 3.120867 1_555
Ge3 Sm2 3.120867 1_556
Ge3 Sm1 3.120867 1_455
