# generated using pymatgen
data_MgMn12(O7F5)2
_symmetry_space_group_name_H-M   'P 1'
_cell_length_a   4.85108467
_cell_length_b   5.78816944
_cell_length_c   15.17524130
_cell_angle_alpha   92.70314023
_cell_angle_beta   89.20496479
_cell_angle_gamma   89.00238453
_symmetry_Int_Tables_number   1
_chemical_formula_structural   MgMn12(O7F5)2
_chemical_formula_sum   'Mg1 Mn12 O14 F10'
_cell_volume   425.51935899
_cell_formula_units_Z   1
loop_
 _symmetry_equiv_pos_site_id
 _symmetry_equiv_pos_as_xyz
  1  'x, y, z'
loop_
 _atom_site_type_symbol
 _atom_site_label
 _atom_site_symmetry_multiplicity
 _atom_site_fract_x
 _atom_site_fract_y
 _atom_site_fract_z
 _atom_site_occupancy
  Mg  Mg0  1  0.50328900  0.09630700  0.07809200  1
  Mn  Mn0  1  0.99744700  0.12844000  0.41669800  1
  Mn  Mn1  1  0.05081500  0.82983000  0.23813100  1
  Mn  Mn2  1  0.01834800  0.35840800  0.08337200  1
  Mn  Mn3  1  0.01111000  0.17380100  0.74183000  1
  Mn  Mn4  1  0.01185200  0.82843800  0.57995300  1
  Mn  Mn5  1  0.01317900  0.87782600  0.91310600  1
  Mn  Mn6  1  0.49444200  0.35778100  0.59249400  1
  Mn  Mn7  1  0.44923500  0.35024600  0.90997300  1
  Mn  Mn8  1  0.50237300  0.28557600  0.26830400  1
  Mn  Mn9  1  0.52495800  0.62022700  0.09463200  1
  Mn  Mn10  1  0.51643300  0.63875500  0.42573500  1
  Mn  Mn11  1  0.45794100  0.66026800  0.74876800  1
  O  O0  1  0.21066200  0.08681200  0.30876800  1
  O  O1  1  0.21406700  0.12374500  0.63607700  1
  O  O2  1  0.20423900  0.15658200  0.98811300  1
  O  O3  1  0.33348100  0.86074500  0.15171600  1
  O  O4  1  0.21004700  0.86691500  0.47039900  1
  O  O5  1  0.22307500  0.91114100  0.79922400  1
  O  O6  1  0.33909500  0.35940000  0.15357000  1
  O  O7  1  0.27024100  0.61210900  0.64130000  1
  O  O8  1  0.23629900  0.40535100  0.80815700  1
  O  O9  1  0.68441800  0.37246500  0.01868500  1
  O  O10  1  0.85064300  0.59036600  0.16915100  1
  O  O11  1  0.72598600  0.35260500  0.36826600  1
  O  O12  1  0.72011500  0.60716000  0.53134000  1
  O  O13  1  0.70152600  0.39648400  0.69573500  1
  F  F0  1  0.29525600  0.59421100  0.31618900  1
  F  F1  1  0.26823500  0.36529500  0.48359200  1
  F  F2  1  0.22595200  0.62722700  0.99227700  1
  F  F3  1  0.67237000  0.64057100  0.86092000  1
  F  F4  1  0.80208600  0.11491900  0.17402900  1
  F  F5  1  0.74853200  0.11155600  0.52562800  1
  F  F6  1  0.76970300  0.85058100  0.33734800  1
  F  F7  1  0.72311800  0.86172000  0.01637200  1
  F  F8  1  0.76407000  0.14280000  0.85091400  1
  F  F9  1  0.76924900  0.89048000  0.69030300  1
loop_
_geom_bond_atom_site_label_1
_geom_bond_atom_site_label_2
_geom_bond_distance
_geom_bond_site_symmetry_2
Mg0 O3 1.985739 1_545
Mg0 O6 2.008308 1_555
Mg0 O2 2.042802 1_554
Mg0 O9 2.074290 1_555
Mn0 O0 1.928099 1_655
Mn0 O11 2.003791 1_555
Mn0 O4 2.025963 1_645
Mn1 O3 1.900730 1_555
Mn1 O0 1.968679 1_565
Mn1 O10 1.974357 1_455
Mn2 O6 1.897792 1_555
Mn2 O9 1.908261 1_455
Mn2 O10 1.981582 1_455
Mn2 O2 2.008842 1_554
Mn3 O1 1.879132 1_555
Mn3 O8 1.989218 1_555
Mn3 O5 2.054895 1_545
Mn3 O13 2.110186 1_455
Mn4 O4 1.932864 1_555
Mn4 O7 2.023219 1_555
Mn4 O12 2.047079 1_455
Mn4 O1 2.133915 1_565
Mn5 O5 2.012469 1_555
Mn5 O2 2.160121 1_565
Mn6 O13 1.879455 1_555
Mn6 O7 1.928102 1_555
Mn6 O1 2.060610 1_555
Mn6 O12 2.072789 1_555
Mn7 O8 1.906658 1_555
Mn7 O9 2.019187 1_556
Mn7 O2 2.051302 1_555
Mn8 O11 1.906090 1_555
Mn8 O0 1.949980 1_555
Mn8 O6 1.984470 1_555
Mn9 O3 1.835813 1_555
Mn9 O9 1.940108 1_555
Mn9 O10 1.965542 1_555
Mn9 O6 2.011096 1_555
Mn10 O12 1.908744 1_555
Mn10 O4 2.057139 1_555
Mn10 O11 2.077923 1_555
Mn11 O7 1.890410 1_555
Mn11 O5 1.950971 1_555
Mn11 O13 2.042074 1_555
Mn11 O8 2.073449 1_555
F0 Mn10 1.999982 1_555
F0 Mn8 2.126895 1_555
F0 Mn1 2.191869 1_555
F1 Mn6 1.998160 1_555
F1 Mn0 2.145705 1_455
F1 Mn10 2.212245 1_555
F2 Mn9 2.141177 1_556
F2 Mn5 2.181624 1_555
F2 Mn7 2.239780 1_555
F2 Mn2 2.359049 1_556
F3 Mn11 2.013684 1_555
F3 Mn7 2.169952 1_555
F3 Mn5 2.293301 1_655
F4 Mg0 2.069150 1_555
F4 Mn8 2.212549 1_555
F4 Mn2 2.274618 1_655
F4 Mn1 2.289058 1_645
F5 Mn0 2.040617 1_555
F5 Mn6 2.085150 1_555
F5 Mn4 2.254009 1_645
F6 Mn1 2.015271 1_655
F6 Mn10 2.230187 1_555
F6 Mn0 2.274494 1_565
F7 Mg0 1.913134 1_565
F7 Mn5 2.097991 1_654
F7 Mn9 2.111882 1_555
F8 Mn3 2.046732 1_655
F8 Mn7 2.091475 1_555
F8 Mn5 2.192485 1_645
F9 Mn4 2.047471 1_655
F9 Mn3 2.156117 1_665
F9 Mn11 2.233334 1_555
