# generated using pymatgen
data_MgCo2(SbO3)4
_symmetry_space_group_name_H-M   'P 1'
_cell_length_a   5.33390400
_cell_length_b   5.33394947
_cell_length_c   9.61642279
_cell_angle_alpha   84.59072896
_cell_angle_beta   84.59071591
_cell_angle_gamma   77.15196772
_symmetry_Int_Tables_number   1
_chemical_formula_structural   MgCo2(SbO3)4
_chemical_formula_sum   'Mg1 Co2 Sb4 O12'
_cell_volume   264.79839665
_cell_formula_units_Z   1
loop_
 _symmetry_equiv_pos_site_id
 _symmetry_equiv_pos_as_xyz
  1  'x, y, z'
loop_
 _atom_site_type_symbol
 _atom_site_label
 _atom_site_symmetry_multiplicity
 _atom_site_fract_x
 _atom_site_fract_y
 _atom_site_fract_z
 _atom_site_occupancy
  Mg  Mg0  1  0.21035812  0.21034468  0.85342288  1
  Co  Co0  1  0.91403557  0.91402736  0.01464166  1
  Co  Co1  1  0.50278636  0.50280128  0.49942240  1
  Sb  Sb0  1  0.95753247  0.95758454  0.64258017  1
  Sb  Sb1  1  0.04140593  0.04139227  0.31270865  1
  Sb  Sb2  1  0.48130424  0.48129090  0.17105050  1
  Sb  Sb3  1  0.55323010  0.55322940  0.84160439  1
  O  O0  1  0.27436016  0.27435077  0.30780365  1
  O  O1  1  0.36060628  0.36060139  0.00224085  1
  O  O2  1  0.23901660  0.83842133  0.85936598  1
  O  O3  1  0.67787828  0.67787724  0.01094237  1
  O  O4  1  0.39202414  0.39198859  0.70375092  1
  O  O5  1  0.16863122  0.79024922  0.16679556  1
  O  O6  1  0.83843080  0.23902692  0.85937223  1
  O  O7  1  0.62234197  0.62235490  0.31376280  1
  O  O8  1  0.16752054  0.78599226  0.47229575  1
  O  O9  1  0.78596499  0.16751626  0.47227816  1
  O  O10  1  0.71674822  0.71676923  0.67202689  1
  O  O11  1  0.79026802  0.16862546  0.16679120  1
loop_
_geom_bond_atom_site_label_1
_geom_bond_atom_site_label_2
_geom_bond_distance
_geom_bond_site_symmetry_2
Mg0 O6 1.951285 1_455
Mg0 O2 1.951303 1_545
Mg0 O4 1.959830 1_555
Mg0 O1 2.012652 1_556
Co0 O3 1.974112 1_555
Co0 O11 2.052944 1_565
Co0 O5 2.052966 1_655
Co0 O2 2.170633 1_654
Co0 O6 2.170673 1_564
Co1 O7 1.937120 1_555
Co1 O4 2.068027 1_555
Co1 O8 2.088062 1_555
Co1 O9 2.088127 1_555
Co1 O10 2.579466 1_555
O0 Sb1 1.937719 1_555
O0 Sb2 2.039788 1_555
O1 Sb2 2.010601 1_555
O1 Sb3 2.090112 1_554
O2 Sb3 2.003326 1_555
O2 Sb0 2.630610 1_455
O3 Sb3 2.034872 1_554
O3 Sb2 2.109423 1_555
O4 Sb3 1.998791 1_555
O5 Sb1 1.998608 1_565
O5 Sb2 2.068033 1_555
O6 Sb3 2.003321 1_555
O6 Sb0 2.630522 1_545
O7 Sb2 1.912219 1_555
O8 Sb1 2.014058 1_565
O8 Sb0 2.062665 1_455
O9 Sb1 2.014058 1_655
O9 Sb0 2.062635 1_545
O10 Sb0 1.994023 1_555
O10 Sb3 1.995727 1_555
O11 Sb1 1.998620 1_655
O11 Sb2 2.068027 1_555
