# generated using pymatgen
data_Na10La4Al4Si5S7O48
_symmetry_space_group_name_H-M   'P 1'
_cell_length_a   18.26443505
_cell_length_b   9.18725126
_cell_length_c   23.10825017
_cell_angle_alpha   89.54743647
_cell_angle_beta   88.59113572
_cell_angle_gamma   120.19610771
_symmetry_Int_Tables_number   1
_chemical_formula_structural   Na10La4Al4Si5S7O48
_chemical_formula_sum   'Na30 La12 Al12 Si15 S21 O144'
_cell_volume   3349.47803064
_cell_formula_units_Z   3
loop_
 _symmetry_equiv_pos_site_id
 _symmetry_equiv_pos_as_xyz
  1  'x, y, z'
loop_
 _atom_site_type_symbol
 _atom_site_label
 _atom_site_symmetry_multiplicity
 _atom_site_fract_x
 _atom_site_fract_y
 _atom_site_fract_z
 _atom_site_occupancy
  Na  Na0  1  0.32827582  0.99911390  0.25068291  1
  Na  Na1  1  0.81661437  0.98575971  0.25877251  1
  Na  Na2  1  0.18835555  0.38630315  0.24208185  1
  Na  Na3  1  0.66554042  0.35175206  0.24792434  1
  Na  Na4  1  0.99426954  0.63937495  0.26473035  1
  Na  Na5  1  0.49568182  0.61835182  0.25924241  1
  Na  Na6  1  0.83089921  0.65171358  0.73529597  1
  Na  Na7  1  0.98936914  0.35517760  0.75077658  1
  Na  Na8  1  0.49371990  0.34667188  0.75532450  1
  Na  Na9  1  0.17433576  0.99579039  0.73437218  1
  Na  Na10  1  0.01967913  0.71483038  0.58751761  1
  Na  Na11  1  0.33008718  0.98980576  0.59396316  1
  Na  Na12  1  0.02497398  0.32693638  0.08583160  1
  Na  Na13  1  0.50985633  0.33272927  0.09075753  1
  Na  Na14  1  0.15947076  0.30198572  0.93031996  1
  Na  Na15  1  0.66295753  0.29876755  0.93138601  1
  Na  Na16  1  0.16542393  0.01747470  0.42594975  1
  Na  Na17  1  0.66059987  0.03810763  0.42129521  1
  Na  Na18  1  0.99029434  0.99325191  0.50893283  1
  Na  Na19  1  0.51285373  0.99421580  0.48707091  1
  Na  Na20  1  0.00376703  0.00695210  0.00214611  1
  Na  Na21  1  0.50792394  0.00395952  0.01004869  1
  Na  Na22  1  0.34826075  0.33163784  0.83579279  1
  Na  Na23  1  0.85084407  0.31781694  0.82690567  1
  Na  Na24  1  0.35428817  0.36516275  0.34068705  1
  Na  Na25  1  0.84441623  0.36201605  0.34296043  1
  Na  Na26  1  0.17793125  0.66002470  0.17451871  1
  Na  Na27  1  0.67771916  0.65818335  0.16429235  1
  Na  Na28  1  0.17150451  0.67848197  0.66901205  1
  Na  Na29  1  0.68740342  0.72067600  0.65121971  1
  La  La0  1  0.98511133  0.98207611  0.35541264  1
  La  La1  1  0.98501732  0.98364133  0.84396876  1
  La  La2  1  0.49500002  0.02257005  0.84729765  1
  La  La3  1  0.51512326  0.01059203  0.63776094  1
  La  La4  1  0.99435131  0.99824725  0.16441662  1
  La  La5  1  0.82030738  0.32698551  0.18016976  1
  La  La6  1  0.34147173  0.33520614  0.99186428  1
  La  La7  1  0.83274423  0.33292996  0.98917551  1
  La  La8  1  0.17416113  0.65728234  0.02197225  1
  La  La9  1  0.17026653  0.66945147  0.51975035  1
  La  La10  1  0.16253287  0.66566700  0.81239948  1
  La  La11  1  0.67191049  0.69697641  0.81058183  1
  Al  Al0  1  0.48077970  0.95945086  0.34359423  1
  Al  Al1  1  0.01039607  0.99583643  0.64998004  1
  Al  Al2  1  0.49753532  0.02253052  0.15859466  1
  Al  Al3  1  0.33058522  0.32406047  0.67714269  1
  Al  Al4  1  0.82955743  0.30732329  0.67983810  1
  Al  Al5  1  0.34025352  0.36154633  0.18777656  1
  Al  Al6  1  0.34103203  0.35860412  0.48577367  1
  Al  Al7  1  0.84695098  0.36267067  0.48909820  1
  Al  Al8  1  0.65856371  0.63623659  0.01778555  1
  Al  Al9  1  0.65465866  0.72698860  0.51418983  1
  Al  Al10  1  0.16095774  0.64300196  0.31774104  1
  Al  Al11  1  0.64180675  0.59899783  0.32128771  1
  Si  Si0  1  0.35534263  0.71188971  0.24994304  1
  Si  Si1  1  0.82681955  0.68232245  0.25652647  1
  Si  Si2  1  0.00486099  0.32763372  0.25090543  1
  Si  Si3  1  0.49278659  0.27860325  0.25300806  1
  Si  Si4  1  0.98826429  0.67937908  0.73546111  1
  Si  Si5  1  0.34894345  0.02293525  0.73574115  1
  Si  Si6  1  0.85795843  0.01054363  0.73353195  1
  Si  Si7  1  0.19018756  0.07092035  0.58068291  1
  Si  Si8  1  0.70478762  0.06713099  0.57432867  1
  Si  Si9  1  0.18921888  0.33181758  0.09157294  1
  Si  Si10  1  0.66320000  0.32137866  0.08381464  1
  Si  Si11  1  0.00897069  0.34613925  0.91716782  1
  Si  Si12  1  0.52353833  0.37756722  0.91740725  1
  Si  Si13  1  0.01566103  0.64354129  0.41953482  1
  Si  Si14  1  0.51490668  0.66647912  0.41463903  1
  S  S0  1  0.16349564  0.00220349  0.25403433  1
  S  S1  1  0.63051832  0.98440538  0.25416004  1
  S  S2  1  0.15542493  0.29099423  0.73885943  1
  S  S3  1  0.66494015  0.30783676  0.74768667  1
  S  S4  1  0.48721425  0.67221948  0.74438485  1
  S  S5  1  0.47656525  0.35660821  0.57816335  1
  S  S6  1  0.97027723  0.32236328  0.58409080  1
  S  S7  1  0.33491698  0.60336812  0.58440872  1
  S  S8  1  0.83344547  0.61977563  0.58183415  1
  S  S9  1  0.48799497  0.64910041  0.09222237  1
  S  S10  1  0.99129145  0.65491989  0.08685725  1
  S  S11  1  0.34107315  0.03741083  0.09836458  1
  S  S12  1  0.82116591  0.98691779  0.08170211  1
  S  S13  1  0.32531587  0.66170148  0.91284229  1
  S  S14  1  0.80863329  0.67102596  0.92360429  1
  S  S15  1  0.16785443  0.98131011  0.91599790  1
  S  S16  1  0.66072998  0.95498540  0.92640532  1
  S  S17  1  0.32344376  0.97119898  0.41065817  1
  S  S18  1  0.80105975  0.95371692  0.42005501  1
  S  S19  1  0.17859255  0.37717663  0.41261985  1
  S  S20  1  0.66644371  0.37840756  0.41963132  1
  O  O0  1  0.12583727  0.03947768  0.30496798  1
  O  O1  1  0.59075085  0.01164780  0.30715048  1
  O  O2  1  0.41464558  0.77427472  0.30620919  1
  O  O3  1  0.90690107  0.76430586  0.30008283  1
  O  O4  1  0.47613940  0.13617362  0.30327889  1
  O  O5  1  0.98615097  0.18540922  0.30009595  1
  O  O6  1  0.12664638  0.20208766  0.79626845  1
  O  O7  1  0.63412129  0.21924910  0.80472397  1
  O  O8  1  0.48344787  0.74762072  0.79954935  1
  O  O9  1  0.96597688  0.74843167  0.79464636  1
  O  O10  1  0.40891497  0.06170928  0.79275958  1
  O  O11  1  0.90214926  0.04882949  0.79741186  1
  O  O12  1  0.39551300  -0.00013769  0.67868746  1
  O  O13  1  0.92464069  0.99956996  0.68716610  1
  O  O14  1  0.09685082  0.18438269  0.69399534  1
  O  O15  1  0.60078962  0.21695502  0.70380312  1
  O  O16  1  0.01138662  0.81986474  0.68273062  1
  O  O17  1  0.50207978  0.78545190  0.69480554  1
  O  O18  1  0.40454298  0.85280120  0.19795050  1
  O  O19  1  0.85976499  0.80559365  0.19844606  1
  O  O20  1  0.02436294  0.26458001  0.18889620  1
  O  O21  1  0.51666293  0.21431086  0.19334538  1
  O  O22  1  0.10606246  0.95574877  0.20447769  1
  O  O23  1  0.58507287  0.98332435  0.20170245  1
  O  O24  1  0.43765945  0.36612199  0.63500881  1
  O  O25  1  0.92687006  0.34068353  0.63596497  1
  O  O26  1  0.25079911  0.16060905  0.63568476  1
  O  O27  1  0.75059263  0.15308577  0.63414153  1
  O  O28  1  0.34004846  0.51225326  0.63593778  1
  O  O29  1  0.82240963  0.51949634  0.63550896  1
  O  O30  1  0.44083092  0.51917544  0.14088424  1
  O  O31  1  0.94645904  0.56382824  0.14135091  1
  O  O32  1  0.33841154  0.14629689  0.14437963  1
  O  O33  1  0.80790514  0.05060592  0.13787532  1
  O  O34  1  0.25332941  0.33424401  0.14193424  1
  O  O35  1  0.72110913  0.36329967  0.14083966  1
  O  O36  1  0.22539013  0.33712992  0.02496110  1
  O  O37  1  0.70503209  0.29237727  0.02496840  1
  O  O38  1  0.44022346  0.58680824  0.03832159  1
  O  O39  1  0.94501883  0.55817572  0.03631896  1
  O  O40  1  0.35627033  0.12339329  0.04043969  1
  O  O41  1  0.83697296  0.11191537  0.03506781  1
  O  O42  1  0.24226798  0.17619201  0.51942220  1
  O  O43  1  0.75659414  0.18428627  0.51779196  1
  O  O44  1  0.33379846  0.51938929  0.53000238  1
  O  O45  1  0.85127502  0.53791267  0.53104354  1
  O  O46  1  0.41890752  0.33656995  0.53087898  1
  O  O47  1  0.92601104  0.32172709  0.53095050  1
  O  O48  1  0.28453935  0.67402871  0.96701576  1
  O  O49  1  0.75362801  0.66860644  0.97181475  1
  O  O50  1  0.06543395  0.45306129  0.97373062  1
  O  O51  1  0.57820910  0.49567143  0.97127209  1
  O  O52  1  0.17114401  0.88753184  0.96696333  1
  O  O53  1  0.66602055  0.85356161  0.97414130  1
  O  O54  1  0.29268830  0.88303888  0.46819885  1
  O  O55  1  0.75169778  0.84002008  0.47059888  1
  O  O56  1  0.16887804  0.45405906  0.46522645  1
  O  O57  1  0.65631226  0.46837233  0.46816706  1
  O  O58  1  0.06723667  0.67402842  0.47936292  1
  O  O59  1  0.57907962  0.71961978  0.46955635  1
  O  O60  1  0.07282368  0.63339359  0.36341959  1
  O  O61  1  0.56151536  0.62643913  0.35889594  1
  O  O62  1  0.26239744  0.87319065  0.36488988  1
  O  O63  1  0.76145681  0.87249028  0.36546379  1
  O  O64  1  0.18132653  0.47711757  0.35983341  1
  O  O65  1  0.67293711  0.47016623  0.36281481  1
  O  O66  1  0.05719448  0.43918743  0.85508690  1
  O  O67  1  0.56765037  0.45396472  0.85287642  1
  O  O68  1  0.17128585  0.90210381  0.86107948  1
  O  O69  1  0.66655128  0.89020766  0.86877179  1
  O  O70  1  0.28002326  0.67190851  0.86214584  1
  O  O71  1  0.77573621  0.68145805  0.86664692  1
  O  O72  1  0.01369057  0.81972085  0.41444570  1
  O  O73  1  0.50918383  0.84119632  0.40188514  1
  O  O74  1  0.40798727  0.98676821  0.40076041  1
  O  O75  1  0.88725788  0.97778925  0.42666524  1
  O  O76  1  0.10576775  0.20248270  0.41115899  1
  O  O77  1  0.59285056  0.20314495  0.41563479  1
  O  O78  1  0.01027094  0.16948218  0.92078208  1
  O  O79  1  0.52148909  0.19437489  0.92425309  1
  O  O80  1  0.08936508  0.99119138  0.91937480  1
  O  O81  1  0.58189823  0.96269410  0.93028990  1
  O  O82  1  0.41320999  0.80072684  0.91353256  1
  O  O83  1  0.89456857  0.81489263  0.93040015  1
  O  O84  1  0.48142399  0.19967255  0.57763544  1
  O  O85  1  0.98019004  0.17351862  0.58574817  1
  O  O86  1  0.09081358  0.03676093  0.58985135  1
  O  O87  1  0.60789000  0.03795645  0.57016711  1
  O  O88  1  0.40904314  0.77591643  0.57999402  1
  O  O89  1  0.91326179  0.78956849  0.58446408  1
  O  O90  1  0.49918940  0.81361582  0.10472746  1
  O  O91  1  0.99998604  0.82247185  0.08326229  1
  O  O92  1  0.41491207  0.01418173  0.10361787  1
  O  O93  1  0.89975064  0.97634775  0.08245341  1
  O  O94  1  0.09200541  0.16908277  0.09320728  1
  O  O95  1  0.57071841  0.15039891  0.09696516  1
  O  O96  1  0.34247897  0.19594248  0.73178415  1
  O  O97  1  0.84170997  0.16891955  0.72878805  1
  O  O98  1  0.24200518  0.32024610  0.72844935  1
  O  O99  1  0.74713235  0.32211971  0.73436539  1
  O  O100  1  0.40775997  0.50704021  0.73862580  1
  O  O101  1  0.90589577  0.49460237  0.72373263  1
  O  O102  1  0.34261483  0.52161800  0.23630002  1
  O  O103  1  0.80941989  0.49050040  0.24954665  1
  O  O104  1  0.41302252  0.31678465  0.24222746  1
  O  O105  1  0.92110349  0.34952330  0.24891206  1
  O  O106  1  0.24757034  0.15494529  0.24088332  1
  O  O107  1  0.71968053  0.12972565  0.25254563  1
  O  O108  1  0.32132650  0.49686528  0.91133872  1
  O  O109  1  0.80944187  0.51025444  0.92372958  1
  O  O110  1  0.42734556  0.34520812  0.91768402  1
  O  O111  1  0.91552686  0.32821225  0.91593037  1
  O  O112  1  0.24157648  0.15626752  0.91413222  1
  O  O113  1  0.73333060  0.13159370  0.92487932  1
  O  O114  1  0.32847315  0.13781029  0.41396552  1
  O  O115  1  0.80595161  0.11906947  0.42136918  1
  O  O116  1  0.25793842  0.36830286  0.41334168  1
  O  O117  1  0.74527323  0.36707832  0.42073295  1
  O  O118  1  0.42161063  0.49635088  0.43185290  1
  O  O119  1  0.91961898  0.47495364  0.42893344  1
  O  O120  1  0.17665479  0.49836623  0.09816710  1
  O  O121  1  0.65186911  0.48888873  0.07293334  1
  O  O122  1  0.07498418  0.66621406  0.08807639  1
  O  O123  1  0.57072947  0.65310230  0.08476476  1
  O  O124  1  0.26169658  0.87362871  0.09916601  1
  O  O125  1  0.74521250  0.82223934  0.07035267  1
  O  O126  1  0.18154087  0.88040435  0.58155875  1
  O  O127  1  0.68800920  0.86866286  0.57148968  1
  O  O128  1  0.25714993  0.61524188  0.59076139  1
  O  O129  1  0.75917274  0.63764208  0.57387313  1
  O  O130  1  0.05606081  0.47940131  0.58507822  1
  O  O131  1  0.56197305  0.50785123  0.57087124  1
  O  O132  1  0.17605205  0.85603666  0.26521437  1
  O  O133  1  0.63612211  0.82992237  0.25680116  1
  O  O134  1  0.25924798  0.68708595  0.26452877  1
  O  O135  1  0.73770280  0.67997590  0.27469133  1
  O  O136  1  0.09216720  0.51052875  0.26203177  1
  O  O137  1  0.57652296  0.46410541  0.26505926  1
  O  O138  1  0.15721456  0.45375364  0.73868475  1
  O  O139  1  0.67611043  0.47932590  0.74937827  1
  O  O140  1  0.07227188  0.65871570  0.74040134  1
  O  O141  1  0.55946232  0.63716480  0.74304828  1
  O  O142  1  0.25259787  0.86381317  0.74276298  1
  O  O143  1  0.76929336  0.82704390  0.73394359  1
loop_
_geom_bond_atom_site_label_1
_geom_bond_atom_site_label_2
_geom_bond_distance
_geom_bond_site_symmetry_2
Na0 O132 2.416905 1_555
Na0 O134 2.497962 1_555
Na0 O104 2.526601 1_565
Na0 O106 2.531373 1_565
Na0 O18 2.656711 1_555
Na0 O4 2.668531 1_565
Na0 O32 2.751436 1_565
Na0 O62 2.854207 1_555
Na1 O135 2.447338 1_555
Na1 O19 2.568841 1_555
Na1 O63 2.637996 1_555
Na1 O107 2.696227 1_565
Na1 O133 2.860082 1_555
Na1 O33 2.876805 1_565
Na1 O5 2.885180 1_565
Na1 O105 2.900650 1_565
Na2 O102 2.440684 1_555
Na2 O134 2.457282 1_555
Na2 O136 2.566500 1_555
Na2 O34 2.728755 1_555
Na2 O106 2.828479 1_555
Na2 O64 2.871071 1_555
Na2 O20 2.926746 1_555
Na3 O103 2.273325 1_555
Na3 O137 2.351305 1_555
Na3 O35 2.632248 1_555
Na3 O107 2.679698 1_555
Na3 O135 2.698966 1_555
Na3 O21 2.705350 1_555
Na3 O65 2.857585 1_555
Na4 O105 2.338888 1_555
Na4 O3 2.514802 1_555
Na4 O136 2.593655 1_655
Na4 O60 2.738720 1_655
Na4 O132 2.887894 1_655
Na4 O22 2.895229 1_655
Na4 O103 2.968691 1_555
Na4 O31 2.986127 1_555
Na5 O133 2.310125 1_555
Na5 O104 2.439009 1_555
Na5 O137 2.513536 1_555
Na5 O102 2.543180 1_555
Na5 O61 2.608310 1_555
Na5 O2 2.738425 1_555
Na5 O30 2.927496 1_555
Na6 O143 2.384506 1_555
Na6 O101 2.451140 1_555
Na6 O139 2.459566 1_555
Na6 O29 2.586334 1_555
Na6 O9 2.595696 1_555
Na6 O99 2.617784 1_555
Na7 O140 2.418879 1_655
Na7 O97 2.428693 1_555
Na7 O101 2.520791 1_555
Na7 O11 2.641594 1_555
Na7 O66 2.674867 1_655
Na7 O138 2.730801 1_655
Na7 O25 2.891590 1_555
Na8 O141 2.322208 1_555
Na8 O10 2.412620 1_555
Na8 O96 2.466153 1_555
Na8 O67 2.592778 1_555
Na8 O100 2.670627 1_555
Na9 O142 2.303117 1_555
Na9 O98 2.590567 1_565
Na9 O26 2.665619 1_565
Na9 O96 2.669239 1_565
Na9 O140 2.694051 1_555
Na9 O6 2.835285 1_565
Na9 O16 2.874081 1_555
Na9 O14 2.895073 1_565
Na9 O68 3.036606 1_555
Na10 O89 2.367003 1_455
Na10 O16 2.441147 1_555
Na10 O126 2.554543 1_555
Na10 O130 2.562990 1_555
Na10 O86 2.564990 1_565
Na10 O58 2.716048 1_555
Na11 O12 2.297046 1_565
Na11 O126 2.398557 1_555
Na11 O84 2.465017 1_565
Na12 O94 2.328846 1_555
Na12 O120 2.427663 1_555
Na12 O20 2.443614 1_555
Na12 O50 2.756145 1_554
Na12 O122 2.773766 1_555
Na12 O93 2.866000 1_445
Na13 O121 2.269473 1_555
Na13 O95 2.437092 1_555
Na13 O92 2.552676 1_555
Na13 O123 2.571528 1_555
Na13 O21 2.632249 1_555
Na13 O40 2.772821 1_555
Na13 O30 2.827913 1_555
Na14 O78 2.377647 1_555
Na14 O36 2.467051 1_556
Na14 O112 2.486131 1_555
Na14 O80 2.491200 1_545
Na14 O108 2.595528 1_555
Na14 O50 2.866694 1_555
Na15 O79 2.270218 1_555
Na15 O37 2.322843 1_556
Na15 O109 2.388867 1_555
Na15 O113 2.452240 1_555
Na15 O81 2.670313 1_545
Na16 O72 2.455764 1_545
Na16 O76 2.462750 1_555
Na16 O114 2.609637 1_555
Na16 O42 2.627128 1_555
Na16 O116 2.794852 1_555
Na16 O0 2.935462 1_555
Na16 O58 2.972063 1_545
Na16 O62 3.025464 1_545
Na17 O115 2.369587 1_555
Na17 O77 2.395703 1_555
Na17 O73 2.482583 1_545
Na17 O117 2.612090 1_555
Na17 O59 2.739824 1_545
Na17 O43 2.778652 1_555
Na17 O1 2.916789 1_555
Na18 O89 2.388910 1_555
Na18 O85 2.503110 1_565
Na18 O86 2.543479 1_665
Na18 O75 2.662148 1_555
Na18 O72 2.861135 1_655
Na18 O76 2.977736 1_665
Na19 O77 2.356783 1_565
Na19 O73 2.410650 1_555
Na19 O87 2.517152 1_565
Na19 O74 2.776563 1_555
Na19 O88 2.852147 1_555
Na20 O78 2.354801 1_554
Na20 O80 2.491717 1_544
Na20 O91 2.493316 1_445
Na20 O93 2.532432 1_445
Na20 O83 2.551227 1_444
Na20 O94 2.654329 1_555
Na21 O95 2.400678 1_555
Na21 O81 2.402084 1_544
Na21 O79 2.556848 1_554
Na21 O90 2.740808 1_545
Na21 O92 2.748279 1_555
Na21 O82 2.908525 1_544
Na22 O110 2.374863 1_555
Na22 O112 2.508433 1_555
Na22 O108 2.518866 1_555
Na22 O100 2.623107 1_555
Na22 O96 2.696169 1_555
Na23 O111 2.376136 1_555
Na23 O97 2.622583 1_555
Na23 O101 2.740674 1_555
Na23 O99 2.904447 1_555
Na23 O113 2.943723 1_555
Na24 O116 2.413081 1_555
Na24 O118 2.465647 1_555
Na24 O114 2.523242 1_555
Na24 O104 2.626895 1_555
Na24 O102 2.865147 1_555
Na25 O119 2.375553 1_555
Na25 O117 2.537127 1_555
Na25 O105 2.591170 1_555
Na25 O115 2.656038 1_555
Na25 O103 2.692248 1_555
Na26 O120 2.308220 1_555
Na26 O124 2.453303 1_555
Na26 O136 2.462898 1_555
Na26 O134 2.526376 1_555
Na26 O132 2.784746 1_555
Na26 O122 2.796288 1_555
Na27 O125 2.539953 1_555
Na27 O121 2.541884 1_555
Na27 O123 2.698925 1_555
Na27 O135 2.770102 1_555
Na27 O137 2.902625 1_555
Na27 O133 2.969139 1_555
Na27 O19 3.021368 1_555
Na28 O140 2.357219 1_555
Na28 O142 2.372866 1_555
Na28 O138 2.511524 1_555
Na28 O128 2.616474 1_555
Na28 O126 2.671991 1_555
Na28 O130 2.816170 1_555
Na29 O127 2.277592 1_555
Na29 O143 2.355011 1_555
Na29 O129 2.531211 1_555
Na29 O131 2.877393 1_555
Na29 O141 2.911872 1_555
La0 O3 2.221139 1_555
La0 O5 2.247095 1_565
La0 O72 2.268108 1_655
La0 O75 2.385429 1_555
La0 O76 2.511610 1_665
La0 O0 2.592824 1_665
La1 O11 2.188298 1_565
La1 O9 2.322080 1_555
La1 O78 2.361039 1_665
La1 O83 2.516798 1_555
La1 O6 2.556713 1_665
La1 O80 2.589523 1_655
La2 O10 2.201979 1_555
La2 O79 2.281734 1_555
La2 O82 2.346019 1_545
La2 O7 2.433075 1_555
La2 O8 2.676216 1_545
La2 O81 2.740599 1_545
La3 O87 2.192922 1_555
La3 O12 2.314516 1_555
La3 O17 2.349163 1_545
La3 O15 2.356005 1_555
La3 O88 2.480903 1_545
La3 O84 2.531074 1_555
La4 O20 2.301204 1_665
La4 O19 2.302165 1_555
La4 O94 2.313277 1_665
La4 O22 2.461902 1_655
La4 O91 2.518111 1_555
La4 O93 2.535835 1_555
La5 O35 2.214534 1_555
La5 O103 2.278015 1_555
La5 O31 2.381697 1_555
La5 O105 2.391866 1_555
La5 O107 2.431019 1_555
La5 O33 2.631618 1_555
La6 O36 2.244664 1_556
La6 O110 2.264324 1_555
La6 O40 2.372631 1_556
La6 O38 2.385238 1_556
La6 O108 2.518634 1_555
La6 O112 2.539412 1_555
La7 O111 2.256984 1_555
La7 O37 2.299992 1_556
La7 O41 2.319778 1_556
La7 O39 2.356064 1_556
La7 O113 2.392377 1_555
La7 O109 2.410925 1_555
La8 O50 2.258423 1_554
La8 O48 2.293402 1_554
La8 O120 2.294357 1_555
La8 O122 2.374193 1_555
La8 O52 2.484322 1_554
La8 O124 2.586196 1_555
La9 O58 2.139913 1_555
La9 O56 2.344036 1_555
La9 O126 2.344202 1_555
La9 O54 2.384893 1_555
La9 O130 2.412147 1_555
La9 O128 2.523697 1_555
La10 O66 2.202583 1_555
La10 O142 2.328221 1_555
La10 O140 2.349588 1_555
La10 O68 2.389053 1_555
La10 O70 2.434787 1_555
La10 O138 2.563550 1_555
La11 O67 2.272295 1_555
La11 O69 2.274931 1_555
La11 O143 2.324121 1_555
La11 O71 2.384260 1_555
La11 O141 2.447728 1_555
La11 O139 2.489624 1_555
Al0 O2 1.762681 1_555
Al0 O4 1.905142 1_565
Al0 O74 1.957084 1_555
Al0 O73 1.960127 1_555
Al0 O1 1.978646 1_565
Al1 O13 1.783569 1_455
Al1 O16 1.788172 1_555
Al1 O86 1.888170 1_565
Al1 O14 1.970751 1_565
Al1 O89 2.413747 1_455
Al1 O85 2.465798 1_465
Al2 O21 1.813360 1_555
Al2 O18 1.838714 1_545
Al2 O95 1.869576 1_555
Al2 O92 1.968884 1_555
Al2 O23 2.080922 1_545
Al2 O90 2.308358 1_545
Al3 O26 1.785076 1_555
Al3 O96 1.809473 1_555
Al3 O28 1.895034 1_555
Al3 O98 1.967833 1_555
Al3 O24 2.015465 1_555
Al3 O100 2.141040 1_555
Al4 O97 1.794193 1_555
Al4 O27 1.801616 1_555
Al4 O101 1.901894 1_555
Al4 O25 1.907699 1_555
Al4 O99 1.996952 1_555
Al4 O29 2.257679 1_555
Al5 O102 1.840245 1_555
Al5 O34 1.841727 1_555
Al5 O30 1.961434 1_555
Al5 O104 2.035357 1_555
Al5 O106 2.145530 1_555
Al5 O32 2.209879 1_555
Al6 O118 1.825225 1_555
Al6 O44 1.859464 1_555
Al6 O46 1.873411 1_555
Al6 O42 1.880576 1_555
Al6 O116 2.317615 1_555
Al6 O114 2.554349 1_555
Al7 O43 1.748551 1_555
Al7 O119 1.807761 1_555
Al7 O45 1.854275 1_555
Al7 O47 1.941971 1_555
Al7 O117 2.482959 1_555
Al7 O115 2.538932 1_555
Al8 O51 1.780430 1_554
Al8 O121 1.808345 1_555
Al8 O49 1.901723 1_554
Al8 O125 2.075391 1_555
Al8 O53 2.170274 1_554
Al8 O123 2.263834 1_555
Al9 O59 1.717850 1_555
Al9 O127 1.757209 1_555
Al9 O55 1.810691 1_555
Al9 O131 2.248456 1_555
Al10 O136 1.811954 1_555
Al10 O60 1.866872 1_555
Al10 O64 1.992953 1_555
Al10 O134 2.012722 1_555
Al10 O132 2.187053 1_555
Al10 O62 2.299212 1_555
Al11 O137 1.805839 1_555
Al11 O61 1.811650 1_555
Al11 O65 1.825082 1_555
Al11 O135 1.834244 1_555
O0 S0 1.476192 1_555
O1 S1 1.494526 1_545
O2 Si0 1.627508 1_555
O3 Si1 1.641914 1_555
O4 Si3 1.646996 1_555
O5 Si2 1.620028 1_655
O6 S2 1.489999 1_555
O7 S3 1.483976 1_555
O8 S4 1.472135 1_555
O9 Si4 1.638533 1_555
O10 Si5 1.657896 1_555
O11 Si6 1.653906 1_555
O12 Si5 1.623960 1_555
O13 Si6 1.643929 1_565
O14 S2 1.481623 1_555
O15 S3 1.478520 1_555
O16 Si4 1.652426 1_455
O17 S4 1.466387 1_555
O18 Si0 1.636790 1_555
O19 Si1 1.642189 1_555
O20 Si2 1.646602 1_555
O21 Si3 1.637769 1_555
O22 S0 1.486731 1_565
O23 S1 1.483195 1_555
O24 S5 1.502170 1_555
O25 S6 1.478002 1_555
O26 Si7 1.639532 1_555
O27 Si8 1.625867 1_555
O28 S7 1.481908 1_555
O29 S8 1.486836 1_555
O30 S9 1.525835 1_555
O31 S10 1.483208 1_555
O32 S11 1.482206 1_555
O33 S12 1.491674 1_545
O34 Si9 1.663462 1_555
O35 Si10 1.634094 1_555
O36 Si9 1.650637 1_555
O37 Si10 1.631965 1_555
O38 S9 1.484122 1_555
O39 S10 1.475616 1_555
O40 S11 1.495732 1_555
O41 S12 1.481581 1_545
O42 Si7 1.682540 1_555
O43 Si8 1.628862 1_555
O44 S7 1.475485 1_555
O45 S8 1.513520 1_555
O46 S5 1.483755 1_555
O47 S6 1.485199 1_555
O48 S13 1.475084 1_555
O49 S14 1.474121 1_555
O50 Si11 1.674641 1_555
O51 Si12 1.648125 1_555
O52 S15 1.473925 1_555
O53 S16 1.474447 1_555
O54 S17 1.492701 1_555
O55 S18 1.499913 1_555
O56 S19 1.461922 1_555
O57 S20 1.460690 1_555
O58 Si13 1.637661 1_555
O59 Si14 1.652245 1_555
O60 Si13 1.677338 1_555
O61 Si14 1.669681 1_555
O62 S17 1.495207 1_555
O63 S18 1.479274 1_555
O64 S19 1.505544 1_555
O65 S20 1.524075 1_555
O66 Si11 1.650961 1_555
O67 Si12 1.649536 1_555
O68 S15 1.483424 1_555
O69 S16 1.486072 1_555
O70 S13 1.479698 1_555
O71 S14 1.482352 1_555
O72 Si13 1.640369 1_555
O73 Si14 1.684391 1_555
O74 S17 1.488985 1_555
O75 S18 1.487605 1_555
O76 S19 1.483868 1_555
O77 S20 1.496412 1_555
O78 Si11 1.636574 1_555
O79 Si12 1.670679 1_555
O80 S15 1.481539 1_555
O81 S16 1.477317 1_555
O82 S13 1.465523 1_555
O83 S14 1.470965 1_555
O84 S5 1.488544 1_555
O85 S6 1.467240 1_555
O86 Si7 1.686623 1_555
O87 Si8 1.656749 1_555
O88 S7 1.479223 1_555
O89 S8 1.510157 1_555
O90 S9 1.452142 1_555
O91 S10 1.467353 1_555
O92 S11 1.475206 1_555
O93 S12 1.487024 1_555
O94 Si9 1.647657 1_555
O95 Si10 1.646565 1_555
O96 Si5 1.653996 1_555
O97 Si6 1.628090 1_555
O98 S2 1.477669 1_555
O99 S3 1.464256 1_555
O100 S4 1.491308 1_555
O101 Si4 1.636106 1_555
O102 Si0 1.677120 1_555
O103 Si1 1.635974 1_555
O104 Si3 1.684647 1_555
O105 Si2 1.641825 1_655
O106 S0 1.490722 1_555
O107 S1 1.498340 1_545
O108 S13 1.479816 1_555
O109 S14 1.484512 1_555
O110 Si12 1.627622 1_555
O111 Si11 1.631098 1_655
O112 S15 1.489118 1_545
O113 S16 1.491557 1_545
O114 S17 1.489320 1_545
O115 S18 1.476823 1_545
O116 S19 1.492361 1_555
O117 S20 1.495642 1_555
O118 Si14 1.668098 1_555
O119 Si13 1.663163 1_655
O120 Si9 1.665031 1_555
O121 Si10 1.670709 1_555
O122 S10 1.480133 1_455
O123 S9 1.498559 1_555
O124 S11 1.473146 1_565
O125 S12 1.481599 1_555
O126 Si7 1.676362 1_565
O127 Si8 1.692251 1_565
O128 S7 1.482149 1_555
O129 S8 1.461778 1_555
O130 S6 1.505084 1_455
O131 S5 1.481723 1_555
O132 S0 1.493275 1_565
O133 S1 1.474314 1_555
O134 Si0 1.677300 1_555
O135 Si1 1.660399 1_555
O136 Si2 1.662521 1_555
O137 Si3 1.651549 1_555
O138 S2 1.479112 1_555
O139 S3 1.484393 1_555
O140 Si4 1.644561 1_455
O141 S4 1.507178 1_555
O142 Si5 1.629259 1_565
O143 Si6 1.648464 1_565
