# generated using pymatgen
data_MgZn2Fe2(SiO5)2
_symmetry_space_group_name_H-M   'P 1'
_cell_length_a   5.46495589
_cell_length_b   7.22616699
_cell_length_c   7.93322336
_cell_angle_alpha   90.12198914
_cell_angle_beta   42.92956248
_cell_angle_gamma   73.16645685
_symmetry_Int_Tables_number   1
_chemical_formula_structural   MgZn2Fe2(SiO5)2
_chemical_formula_sum   'Mg1 Zn2 Fe2 Si2 O10'
_cell_volume   192.90132793
_cell_formula_units_Z   1
loop_
 _symmetry_equiv_pos_site_id
 _symmetry_equiv_pos_as_xyz
  1  'x, y, z'
loop_
 _atom_site_type_symbol
 _atom_site_label
 _atom_site_symmetry_multiplicity
 _atom_site_fract_x
 _atom_site_fract_y
 _atom_site_fract_z
 _atom_site_occupancy
  Mg  Mg0  1  0.99977600  0.98560100  0.49570500  1
  Zn  Zn0  1  0.28611800  0.30058500  0.78842200  1
  Zn  Zn1  1  0.71277900  0.66918200  0.20314300  1
  Fe  Fe0  1  0.49927900  0.48587400  0.99566700  1
  Fe  Fe1  1  0.50019500  0.98566900  0.99569600  1
  Si  Si0  1  0.52635000  0.23773000  0.34069000  1
  Si  Si1  1  0.47156000  0.73411700  0.65167700  1
  O  O0  1  0.47005700  0.06479400  0.25088500  1
  O  O1  1  0.68656400  0.37603900  0.14032500  1
  O  O2  1  0.52794900  0.90704400  0.74155000  1
  O  O3  1  0.31185800  0.59545300  0.85152700  1
  O  O4  1  0.89760300  0.58623600  0.34419700  1
  O  O5  1  0.16688600  0.83721800  0.64623000  1
  O  O6  1  0.10026900  0.38604500  0.64800100  1
  O  O7  1  0.83053300  0.13470900  0.34655000  1
  O  O8  1  0.44369200  0.75489200  0.12272100  1
  O  O9  1  0.55526100  0.21668000  0.86902200  1
loop_
_geom_bond_atom_site_label_1
_geom_bond_atom_site_label_2
_geom_bond_distance
_geom_bond_site_symmetry_2
Mg0 O0 2.062000 1_665
Mg0 O2 2.064689 1_555
Mg0 O5 2.108318 1_655
Mg0 O7 2.108898 1_565
Mg0 O8 2.131856 1_655
Mg0 O9 2.134177 1_565
Fe0 O9 2.020856 1_555
Fe0 O8 2.022003 1_556
Fe0 O3 2.057402 1_555
Fe0 O1 2.061046 1_556
Fe0 O6 2.066063 1_655
Fe0 O4 2.068712 1_456
Fe1 O8 1.934315 1_556
Fe1 O9 1.934512 1_565
Fe1 O0 1.976052 1_566
Fe1 O2 1.976930 1_555
Fe1 O5 2.245750 1_655
Fe1 O7 2.255694 1_466
O0 Si0 1.644296 1_555
O1 Si0 1.663637 1_555
O1 Zn0 2.095357 1_654
O1 Zn1 2.243189 1_555
O2 Si1 1.644930 1_555
O3 Si1 1.663241 1_555
O3 Zn1 2.096070 1_456
O3 Zn0 2.254497 1_555
O4 Si1 1.656539 1_555
O4 Zn1 1.984695 1_555
O5 Si1 1.648115 1_555
O5 Zn1 2.292985 1_555
O6 Si0 1.656716 1_555
O6 Zn0 1.987563 1_555
O7 Si0 1.648125 1_555
O7 Zn0 2.284897 1_555
O8 Zn1 1.949678 1_555
O9 Zn0 1.949938 1_555
