# generated using pymatgen
data_Na4CaIn(PO4)3
_symmetry_space_group_name_H-M   'P 1'
_cell_length_a   9.35403583
_cell_length_b   9.35403548
_cell_length_c   22.58763559
_cell_angle_alpha   90.00000000
_cell_angle_beta   90.00000000
_cell_angle_gamma   120.00000119
_symmetry_Int_Tables_number   1
_chemical_formula_structural   Na4CaIn(PO4)3
_chemical_formula_sum   'Na24 Ca6 In6 P18 O72'
_cell_volume   1711.58882077
_cell_formula_units_Z   6
loop_
 _symmetry_equiv_pos_site_id
 _symmetry_equiv_pos_as_xyz
  1  'x, y, z'
loop_
 _atom_site_type_symbol
 _atom_site_label
 _atom_site_symmetry_multiplicity
 _atom_site_fract_x
 _atom_site_fract_y
 _atom_site_fract_z
 _atom_site_occupancy
  Na  Na0  1  0.63683827  0.00474646  0.24851281  1
  Na  Na1  1  0.36790819  0.36316173  0.24851281  1
  Na  Na2  1  0.99525354  0.63209181  0.24851281  1
  Na  Na3  1  0.63683827  0.63209181  0.74851281  1
  Na  Na4  1  0.99525354  0.36316173  0.74851281  1
  Na  Na5  1  0.36790819  0.00474646  0.74851281  1
  Na  Na6  1  0.30350527  0.33807946  0.58184581  1
  Na  Na7  1  0.03457519  0.69649473  0.58184581  1
  Na  Na8  1  0.66192054  0.96542481  0.58184581  1
  Na  Na9  1  0.30350527  0.96542481  0.08184581  1
  Na  Na10  1  0.66192054  0.69649473  0.08184581  1
  Na  Na11  1  0.03457519  0.33807946  0.08184581  1
  Na  Na12  1  0.97017127  0.67141346  0.91517981  1
  Na  Na13  1  0.70124119  0.02982873  0.91517981  1
  Na  Na14  1  0.32858654  0.29875881  0.91517981  1
  Na  Na15  1  0.97017127  0.29875881  0.41517981  1
  Na  Na16  1  0.32858654  0.02982873  0.41517981  1
  Na  Na17  1  0.70124119  0.67141346  0.41517981  1
  Na  Na18  1  0.00000000  0.00000000  0.49953719  1
  Na  Na19  1  0.00000000  0.00000000  0.99953719  1
  Na  Na20  1  0.66666700  0.33333300  0.83287019  1
  Na  Na21  1  0.66666700  0.33333300  0.33287019  1
  Na  Na22  1  0.33333300  0.66666700  0.16620419  1
  Na  Na23  1  0.33333300  0.66666700  0.66620419  1
  Ca  Ca0  1  0.00000000  0.00000000  0.34869811  1
  Ca  Ca1  1  0.00000000  0.00000000  0.84869811  1
  Ca  Ca2  1  0.66666700  0.33333300  0.68203111  1
  Ca  Ca3  1  0.66666700  0.33333300  0.18203111  1
  Ca  Ca4  1  0.33333300  0.66666700  0.01536511  1
  Ca  Ca5  1  0.33333300  0.66666700  0.51536511  1
  In  In0  1  0.00000000  0.00000000  0.65302477  1
  In  In1  1  0.00000000  0.00000000  0.15302477  1
  In  In2  1  0.66666700  0.33333300  0.98635777  1
  In  In3  1  0.66666700  0.33333300  0.48635777  1
  In  In4  1  0.33333300  0.66666700  0.31969177  1
  In  In5  1  0.33333300  0.66666700  0.81969177  1
  P  P0  1  0.29984666  0.99244903  0.25099471  1
  P  P1  1  0.69260237  0.70015334  0.25099471  1
  P  P2  1  0.00755097  0.30739763  0.25099471  1
  P  P3  1  0.29984666  0.30739763  0.75099471  1
  P  P4  1  0.00755097  0.70015334  0.75099471  1
  P  P5  1  0.69260237  0.99244903  0.75099471  1
  P  P6  1  0.96651366  0.32578203  0.58432771  1
  P  P7  1  0.35926937  0.03348634  0.58432771  1
  P  P8  1  0.67421797  0.64073063  0.58432771  1
  P  P9  1  0.96651366  0.64073063  0.08432771  1
  P  P10  1  0.67421797  0.03348634  0.08432771  1
  P  P11  1  0.35926937  0.32578203  0.08432771  1
  P  P12  1  0.63317966  0.65911603  0.91766171  1
  P  P13  1  0.02593537  0.36682034  0.91766171  1
  P  P14  1  0.34088397  0.97406463  0.91766171  1
  P  P15  1  0.63317966  0.97406463  0.41766171  1
  P  P16  1  0.34088397  0.36682034  0.41766171  1
  P  P17  1  0.02593537  0.65911603  0.41766171  1
  O  O0  1  0.22033669  0.01512189  0.30626284  1
  O  O1  1  0.79478521  0.77966331  0.30626284  1
  O  O2  1  0.98487811  0.20521479  0.30626284  1
  O  O3  1  0.22033669  0.20521479  0.80626284  1
  O  O4  1  0.98487811  0.77966331  0.80626284  1
  O  O5  1  0.79478521  0.01512189  0.80626284  1
  O  O6  1  0.77561938  0.96663321  0.69425911  1
  O  O7  1  0.19101383  0.22438062  0.69425911  1
  O  O8  1  0.03336679  0.80898617  0.69425911  1
  O  O9  1  0.77561938  0.80898617  0.19425911  1
  O  O10  1  0.03336679  0.22438062  0.19425911  1
  O  O11  1  0.19101383  0.96663321  0.19425911  1
  O  O12  1  0.88700369  0.34845489  0.63959584  1
  O  O13  1  0.46145221  0.11299631  0.63959584  1
  O  O14  1  0.65154511  0.53854779  0.63959584  1
  O  O15  1  0.88700369  0.53854779  0.13959584  1
  O  O16  1  0.65154511  0.11299631  0.13959584  1
  O  O17  1  0.46145221  0.34845489  0.13959584  1
  O  O18  1  0.44228638  0.29996621  0.02759211  1
  O  O19  1  0.85768083  0.55771362  0.02759211  1
  O  O20  1  0.70003379  0.14231917  0.02759211  1
  O  O21  1  0.44228638  0.14231917  0.52759211  1
  O  O22  1  0.70003379  0.55771362  0.52759211  1
  O  O23  1  0.85768083  0.29996621  0.52759211  1
  O  O24  1  0.55366969  0.68178889  0.97292984  1
  O  O25  1  0.12811821  0.44633031  0.97292984  1
  O  O26  1  0.31821111  0.87188179  0.97292984  1
  O  O27  1  0.55366969  0.87188179  0.47292984  1
  O  O28  1  0.31821111  0.44633031  0.47292984  1
  O  O29  1  0.12811821  0.68178889  0.47292984  1
  O  O30  1  0.10895238  0.63330021  0.36092611  1
  O  O31  1  0.52434683  0.89104762  0.36092611  1
  O  O32  1  0.36669979  0.47565317  0.36092611  1
  O  O33  1  0.10895238  0.47565317  0.86092611  1
  O  O34  1  0.36669979  0.89104762  0.86092611  1
  O  O35  1  0.52434683  0.63330021  0.86092611  1
  O  O36  1  0.00240653  0.81049213  0.41327063  1
  O  O37  1  0.80808560  0.99759347  0.41327063  1
  O  O38  1  0.18950787  0.19191440  0.41327063  1
  O  O39  1  0.00240653  0.19191440  0.91327063  1
  O  O40  1  0.18950787  0.99759347  0.91327063  1
  O  O41  1  0.80808560  0.81049213  0.91327063  1
  O  O42  1  0.97791062  0.16296278  0.58627988  1
  O  O43  1  0.18505216  0.02208938  0.58627988  1
  O  O44  1  0.83703722  0.81494784  0.58627988  1
  O  O45  1  0.97791062  0.81494784  0.08627988  1
  O  O46  1  0.83703722  0.02208938  0.08627988  1
  O  O47  1  0.18505216  0.16296278  0.08627988  1
  O  O48  1  0.66907353  0.14382513  0.74660363  1
  O  O49  1  0.47475260  0.33092647  0.74660363  1
  O  O50  1  0.85617487  0.52524740  0.74660363  1
  O  O51  1  0.66907353  0.52524740  0.24660363  1
  O  O52  1  0.85617487  0.33092647  0.24660363  1
  O  O53  1  0.47475260  0.14382513  0.24660363  1
  O  O54  1  0.64457762  0.49629578  0.91961288  1
  O  O55  1  0.85171916  0.35542238  0.91961288  1
  O  O56  1  0.50370422  0.14828084  0.91961288  1
  O  O57  1  0.64457762  0.14828084  0.41961288  1
  O  O58  1  0.50370422  0.35542238  0.41961288  1
  O  O59  1  0.85171916  0.49629578  0.41961288  1
  O  O60  1  0.33573953  0.47715913  0.07993763  1
  O  O61  1  0.14141860  0.66426047  0.07993763  1
  O  O62  1  0.52284087  0.85858140  0.07993763  1
  O  O63  1  0.33573953  0.85858140  0.57993763  1
  O  O64  1  0.52284087  0.66426047  0.57993763  1
  O  O65  1  0.14141860  0.47715913  0.57993763  1
  O  O66  1  0.31124362  0.82962978  0.25294688  1
  O  O67  1  0.51838516  0.68875638  0.25294688  1
  O  O68  1  0.17037022  0.48161484  0.25294688  1
  O  O69  1  0.31124362  0.48161484  0.75294688  1
  O  O70  1  0.17037022  0.68875638  0.75294688  1
  O  O71  1  0.51838516  0.82962978  0.75294688  1
loop_
_geom_bond_atom_site_label_1
_geom_bond_atom_site_label_2
_geom_bond_distance
_geom_bond_site_symmetry_2
Na0 O53 2.442434 1_555
Na0 O67 2.588306 1_545
Na0 O16 2.637689 1_555
Na0 O66 2.642003 1_545
Na0 O52 2.694546 1_555
Na0 O31 2.750732 1_545
Na1 O51 2.442442 1_555
Na1 O68 2.588315 1_555
Na1 O17 2.637692 1_555
Na1 O67 2.642003 1_555
Na1 O53 2.694554 1_555
Na1 O32 2.750734 1_555
Na2 O52 2.442443 1_555
Na2 O66 2.588307 1_655
Na2 O15 2.637690 1_555
Na2 O68 2.641995 1_655
Na2 O51 2.694545 1_555
Na2 O30 2.750730 1_655
Na3 O49 2.442442 1_555
Na3 O71 2.588315 1_555
Na3 O14 2.637692 1_555
Na3 O69 2.642003 1_555
Na3 O50 2.694554 1_555
Na3 O35 2.750734 1_555
Na4 O50 2.442434 1_555
Na4 O69 2.588306 1_655
Na4 O12 2.637689 1_555
Na4 O70 2.642003 1_655
Na4 O48 2.694547 1_555
Na4 O33 2.750732 1_655
Na5 O48 2.442443 1_555
Na5 O70 2.588307 1_545
Na5 O13 2.637690 1_555
Na5 O71 2.641995 1_545
Na5 O49 2.694545 1_555
Na5 O34 2.750730 1_545
Na6 O65 2.442450 1_555
Na6 O43 2.588306 1_555
Na6 O28 2.637672 1_555
Na6 O42 2.642003 1_455
Na6 O64 2.694551 1_555
Na6 O7 2.750732 1_555
Na7 O63 2.442434 1_555
Na7 O44 2.588315 1_455
Na7 O29 2.637666 1_555
Na7 O43 2.642003 1_565
Na7 O65 2.694537 1_555
Na7 O8 2.750734 1_555
Na8 O64 2.442434 1_555
Na8 O42 2.588307 1_565
Na8 O27 2.637670 1_555
Na8 O44 2.641995 1_555
Na8 O63 2.694555 1_555
Na8 O6 2.750730 1_555
Na9 O61 2.442434 1_555
Na9 O47 2.588315 1_565
Na9 O26 2.637666 1_554
Na9 O45 2.642003 1_455
Na9 O62 2.694537 1_555
Na9 O11 2.750734 1_555
Na10 O62 2.442450 1_555
Na10 O45 2.588306 1_555
Na10 O24 2.637672 1_554
Na10 O46 2.642003 1_565
Na10 O60 2.694551 1_555
Na10 O9 2.750732 1_555
Na11 O60 2.442434 1_555
Na11 O46 2.588307 1_455
Na11 O25 2.637670 1_554
Na11 O47 2.641995 1_555
Na11 O61 2.694555 1_555
Na11 O10 2.750730 1_555
Na12 O41 2.442434 1_555
Na12 O55 2.588315 1_555
Na12 O4 2.637689 1_555
Na12 O54 2.641995 1_555
Na12 O40 2.694546 1_655
Na12 O19 2.750711 1_556
Na13 O39 2.442442 1_655
Na13 O56 2.588298 1_555
Na13 O5 2.637692 1_555
Na13 O55 2.641994 1_555
Na13 O41 2.694554 1_545
Na13 O20 2.750707 1_556
Na14 O40 2.442443 1_545
Na14 O54 2.588312 1_555
Na14 O3 2.637690 1_555
Na14 O56 2.642010 1_555
Na14 O39 2.694545 1_555
Na14 O18 2.750715 1_556
Na15 O37 2.442442 1_545
Na15 O59 2.588298 1_555
Na15 O2 2.637692 1_555
Na15 O57 2.641994 1_555
Na15 O38 2.694554 1_655
Na15 O23 2.750707 1_555
Na16 O38 2.442434 1_555
Na16 O57 2.588315 1_555
Na16 O0 2.637689 1_555
Na16 O58 2.641994 1_555
Na16 O36 2.694547 1_545
Na16 O21 2.750711 1_555
Na17 O36 2.442443 1_655
Na17 O58 2.588312 1_555
Na17 O1 2.637690 1_555
Na17 O59 2.642010 1_555
Na17 O37 2.694545 1_555
Na17 O22 2.750715 1_555
Na18 O44 2.553476 1_445
Na18 O42 2.553476 1_455
Na18 O43 2.553476 1_555
Na18 O38 2.641898 1_555
Na18 O36 2.641898 1_545
Na18 O37 2.641898 1_445
Na19 O45 2.553476 1_446
Na19 O47 2.553476 1_556
Na19 O46 2.553476 1_456
Na19 O39 2.641898 1_555
Na19 O41 2.641898 1_445
Na19 O40 2.641898 1_545
Na20 O56 2.553476 1_555
Na20 O54 2.553476 1_555
Na20 O55 2.553476 1_555
Na20 O50 2.641898 1_555
Na20 O48 2.641898 1_555
Na20 O49 2.641898 1_555
Na21 O57 2.553476 1_555
Na21 O59 2.553476 1_555
Na21 O58 2.553476 1_555
Na21 O51 2.641898 1_555
Na21 O53 2.641898 1_555
Na21 O52 2.641898 1_555
Na22 O68 2.553476 1_555
Na22 O66 2.553476 1_555
Na22 O67 2.553476 1_555
Na22 O62 2.641898 1_555
Na22 O60 2.641898 1_555
Na22 O61 2.641898 1_555
Na23 O69 2.553476 1_555
Na23 O71 2.553476 1_555
Na23 O70 2.553476 1_555
Na23 O63 2.641898 1_555
Na23 O65 2.641898 1_555
Na23 O64 2.641898 1_555
Ca0 O2 2.212486 1_455
Ca0 O1 2.212486 1_445
Ca0 O0 2.212486 1_555
Ca0 O38 2.304363 1_555
Ca0 O36 2.304363 1_545
Ca0 O37 2.304363 1_445
Ca1 O3 2.212486 1_555
Ca1 O5 2.212486 1_455
Ca1 O4 2.212486 1_445
Ca1 O39 2.304363 1_555
Ca1 O41 2.304363 1_445
Ca1 O40 2.304363 1_545
Ca2 O14 2.212486 1_555
Ca2 O13 2.212486 1_555
Ca2 O12 2.212486 1_555
Ca2 O50 2.304363 1_555
Ca2 O48 2.304363 1_555
Ca2 O49 2.304363 1_555
Ca3 O15 2.212486 1_555
Ca3 O17 2.212486 1_555
Ca3 O16 2.212486 1_555
Ca3 O51 2.304363 1_555
Ca3 O53 2.304363 1_555
Ca3 O52 2.304363 1_555
Ca4 O26 2.212486 1_554
Ca4 O25 2.212486 1_554
Ca4 O24 2.212486 1_554
Ca4 O62 2.304363 1_555
Ca4 O60 2.304363 1_555
Ca4 O61 2.304363 1_555
Ca5 O27 2.212486 1_555
Ca5 O29 2.212486 1_555
Ca5 O28 2.212486 1_555
Ca5 O63 2.304363 1_555
Ca5 O65 2.304363 1_555
Ca5 O64 2.304363 1_555
In0 O7 2.171415 1_555
In0 O8 2.171415 1_545
In0 O6 2.171415 1_445
In0 O44 2.225808 1_445
In0 O42 2.225808 1_455
In0 O43 2.225808 1_555
In1 O10 2.171415 1_555
In1 O9 2.171415 1_445
In1 O11 2.171415 1_545
In1 O45 2.225808 1_445
In1 O47 2.225808 1_555
In1 O46 2.225808 1_455
In2 O19 2.171415 1_556
In2 O20 2.171415 1_556
In2 O18 2.171415 1_556
In2 O56 2.225808 1_555
In2 O54 2.225808 1_555
In2 O55 2.225808 1_555
In3 O22 2.171415 1_555
In3 O21 2.171415 1_555
In3 O23 2.171415 1_555
In3 O57 2.225808 1_555
In3 O59 2.225808 1_555
In3 O58 2.225808 1_555
In4 O31 2.171415 1_555
In4 O32 2.171415 1_555
In4 O30 2.171415 1_555
In4 O68 2.225808 1_555
In4 O66 2.225808 1_555
In4 O67 2.225808 1_555
In5 O34 2.171415 1_555
In5 O33 2.171415 1_555
In5 O35 2.171415 1_555
In5 O69 2.225808 1_555
In5 O71 2.225808 1_555
In5 O70 2.225808 1_555
O0 P0 1.521284 1_545
O1 P1 1.521284 1_555
O2 P2 1.521284 1_655
O3 P3 1.521284 1_555
O4 P4 1.521284 1_655
O5 P5 1.521284 1_545
O6 P5 1.578340 1_555
O7 P3 1.578340 1_555
O8 P4 1.578340 1_555
O9 P1 1.578340 1_555
O10 P2 1.578340 1_555
O11 P0 1.578340 1_555
O12 P6 1.521284 1_555
O13 P7 1.521284 1_555
O14 P8 1.521284 1_555
O15 P9 1.521284 1_555
O16 P10 1.521284 1_555
O17 P11 1.521284 1_555
O18 P11 1.578340 1_555
O19 P9 1.578340 1_555
O20 P10 1.578340 1_555
O21 P7 1.578340 1_555
O22 P8 1.578340 1_555
O23 P6 1.578340 1_555
O24 P12 1.521284 1_555
O25 P13 1.521284 1_555
O26 P14 1.521284 1_555
O27 P15 1.521284 1_555
O28 P16 1.521284 1_555
O29 P17 1.521284 1_555
O30 P17 1.578340 1_555
O31 P15 1.578340 1_555
O32 P16 1.578340 1_555
O33 P13 1.578340 1_555
O34 P14 1.578340 1_555
O35 P12 1.578340 1_555
O36 P17 1.541075 1_555
O37 P15 1.541084 1_555
O38 P16 1.541080 1_555
O39 P13 1.541084 1_555
O40 P14 1.541075 1_555
O41 P12 1.541080 1_555
O42 P6 1.579638 1_555
O43 P7 1.579647 1_555
O44 P8 1.579643 1_555
O45 P9 1.579647 1_555
O46 P10 1.579638 1_555
O47 P11 1.579643 1_555
O48 P5 1.541075 1_545
O49 P3 1.541084 1_555
O50 P4 1.541080 1_655
O51 P1 1.541084 1_555
O52 P2 1.541075 1_655
O53 P0 1.541080 1_545
O54 P12 1.579652 1_555
O55 P13 1.579633 1_655
O56 P14 1.579641 1_545
O57 P15 1.579633 1_545
O58 P16 1.579652 1_555
O59 P17 1.579641 1_655
O60 P11 1.541088 1_555
O61 P9 1.541070 1_455
O62 P10 1.541077 1_565
O63 P7 1.541069 1_565
O64 P8 1.541088 1_555
O65 P6 1.541077 1_455
O66 P0 1.579638 1_555
O67 P1 1.579647 1_555
O68 P2 1.579643 1_555
O69 P3 1.579647 1_555
O70 P4 1.579638 1_555
O71 P5 1.579643 1_555
