# generated using pymatgen
data_CoS2
_symmetry_space_group_name_H-M   'P 1'
_cell_length_a   5.52406223
_cell_length_b   5.52405371
_cell_length_c   5.52408168
_cell_angle_alpha   89.99990707
_cell_angle_beta   90.00001566
_cell_angle_gamma   90.00003091
_symmetry_Int_Tables_number   1
_chemical_formula_structural   CoS2
_chemical_formula_sum   'Co4 S8'
_cell_volume   168.56854819
_cell_formula_units_Z   4
loop_
 _symmetry_equiv_pos_site_id
 _symmetry_equiv_pos_as_xyz
  1  'x, y, z'
loop_
 _atom_site_type_symbol
 _atom_site_label
 _atom_site_symmetry_multiplicity
 _atom_site_fract_x
 _atom_site_fract_y
 _atom_site_fract_z
 _atom_site_occupancy
  Co  Co0  1  -0.00000000  0.50000000  0.50000000  1
  Co  Co1  1  0.50000000  0.50000000  0.00000000  1
  Co  Co2  1  0.50000000  -0.00000000  0.50000000  1
  Co  Co3  1  -0.00000000  -0.00000000  0.00000000  1
  S  S0  1  0.39087318  0.10912395  0.89087839  1
  S  S1  1  0.10911566  0.89086725  0.39087647  1
  S  S2  1  0.89088166  0.39087675  0.10913108  1
  S  S3  1  0.60913083  0.60911639  0.60912365  1
  S  S4  1  0.39086917  0.39088361  0.39087635  1
  S  S5  1  0.10911834  0.60912325  0.89086892  1
  S  S6  1  0.89088434  0.10913275  0.60912353  1
  S  S7  1  0.60912682  0.89087605  0.10912161  1
loop_
_geom_bond_atom_site_label_1
_geom_bond_atom_site_label_2
_geom_bond_distance
_geom_bond_site_symmetry_2
Co0 S6 2.321361 1_455
Co0 S1 2.321361 1_555
Co0 S4 2.321376 1_555
Co0 S3 2.321376 1_455
Co0 S2 2.321384 1_455
Co0 S5 2.321384 1_555
Co1 S0 2.321421 1_554
Co1 S7 2.321421 1_555
Co1 S4 2.321429 1_555
Co1 S3 2.321429 1_554
Co1 S5 2.321460 1_554
Co1 S2 2.321460 1_555
Co2 S7 2.321446 1_545
Co2 S0 2.321446 1_555
Co2 S4 2.321467 1_555
Co2 S3 2.321467 1_545
Co2 S1 2.321477 1_545
Co2 S6 2.321477 1_555
Co3 S0 2.321404 1_554
Co3 S7 2.321404 1_445
Co3 S2 2.321427 1_455
Co3 S5 2.321427 1_544
Co3 S6 2.321431 1_454
Co3 S1 2.321431 1_545
S0 S7 2.088190 1_546
S1 S6 2.088190 1_465
S2 S5 2.088192 1_654
S3 S4 2.088182 1_555
