# generated using pymatgen
data_Ba2Ti13O22
_symmetry_space_group_name_H-M   'P 1'
_cell_length_a   7.69552706
_cell_length_b   7.69552706
_cell_length_c   14.14539034
_cell_angle_alpha   90.00000000
_cell_angle_beta   90.00000000
_cell_angle_gamma   98.98685769
_symmetry_Int_Tables_number   1
_chemical_formula_structural   Ba2Ti13O22
_chemical_formula_sum   'Ba4 Ti26 O44'
_cell_volume   827.42257993
_cell_formula_units_Z   2
loop_
 _symmetry_equiv_pos_site_id
 _symmetry_equiv_pos_as_xyz
  1  'x, y, z'
loop_
 _atom_site_type_symbol
 _atom_site_label
 _atom_site_symmetry_multiplicity
 _atom_site_fract_x
 _atom_site_fract_y
 _atom_site_fract_z
 _atom_site_occupancy
  Ba  Ba0  1  0.66676711  0.66676711  0.91325620  1
  Ba  Ba1  1  0.83323289  0.83323289  0.41325620  1
  Ba  Ba2  1  0.16676711  0.16676711  0.58674380  1
  Ba  Ba3  1  0.33323289  0.33323289  0.08674380  1
  Ti  Ti0  1  0.29993377  0.55656031  0.32535897  1
  Ti  Ti1  1  0.20006623  0.94343969  0.82535897  1
  Ti  Ti2  1  0.05656031  0.79993377  0.17464103  1
  Ti  Ti3  1  0.44343969  0.70006623  0.67464103  1
  Ti  Ti4  1  0.70006623  0.44343969  0.67464103  1
  Ti  Ti5  1  0.79993377  0.05656031  0.17464103  1
  Ti  Ti6  1  0.94343969  0.20006623  0.82535897  1
  Ti  Ti7  1  0.55656031  0.29993377  0.32535897  1
  Ti  Ti8  1  0.75657532  0.24342468  0.50000000  1
  Ti  Ti9  1  0.74342468  0.25657532  -0.00000000  1
  Ti  Ti10  1  0.24342468  0.75657532  0.50000000  1
  Ti  Ti11  1  0.25657532  0.74342468  -0.00000000  1
  Ti  Ti12  1  0.92011672  0.42499762  0.15203982  1
  Ti  Ti13  1  0.57988328  0.07500238  0.65203982  1
  Ti  Ti14  1  0.92499762  0.42011672  0.34796018  1
  Ti  Ti15  1  0.57500238  0.07988328  0.84796018  1
  Ti  Ti16  1  0.07988328  0.57500238  0.84796018  1
  Ti  Ti17  1  0.42011672  0.92499762  0.34796018  1
  Ti  Ti18  1  0.07500238  0.57988328  0.65203982  1
  Ti  Ti19  1  0.42499762  0.92011672  0.15203982  1
  Ti  Ti20  1  0.50000000  0.50000000  0.50000000  1
  Ti  Ti21  1  0.00000000  -0.00000000  -0.00000000  1
  Ti  Ti22  1  0.83109416  0.83109416  0.66703306  1
  Ti  Ti23  1  0.66890584  0.66890584  0.16703306  1
  Ti  Ti24  1  0.33109416  0.33109416  0.83296694  1
  Ti  Ti25  1  0.16890584  0.16890584  0.33296694  1
  O  O0  1  0.96981030  0.21091726  0.41940366  1
  O  O1  1  0.53018970  0.28908274  0.91940366  1
  O  O2  1  0.71091726  0.46981030  0.08059634  1
  O  O3  1  0.78908274  0.03018970  0.58059634  1
  O  O4  1  0.03018970  0.78908274  0.58059634  1
  O  O5  1  0.46981030  0.71091726  0.08059634  1
  O  O6  1  0.28908274  0.53018970  0.91940366  1
  O  O7  1  0.21091726  0.96981030  0.41940366  1
  O  O8  1  0.12180046  0.38205805  0.25213036  1
  O  O9  1  0.37819954  0.11794195  0.75213036  1
  O  O10  1  0.88205805  0.62180046  0.24786964  1
  O  O11  1  0.61794195  0.87819954  0.74786964  1
  O  O12  1  0.87819954  0.61794195  0.74786964  1
  O  O13  1  0.62180046  0.88205805  0.24786964  1
  O  O14  1  0.11794195  0.37819954  0.75213036  1
  O  O15  1  0.38205805  0.12180046  0.25213036  1
  O  O16  1  0.65954524  0.65954524  0.59381484  1
  O  O17  1  0.84045476  0.84045476  0.09381484  1
  O  O18  1  0.15954524  0.15954524  0.90618516  1
  O  O19  1  0.34045476  0.34045476  0.40618516  1
  O  O20  1  0.96380347  0.21312644  0.07940869  1
  O  O21  1  0.53619653  0.28687356  0.57940869  1
  O  O22  1  0.71312644  0.46380347  0.42059131  1
  O  O23  1  0.78687356  0.03619653  0.92059131  1
  O  O24  1  0.03619653  0.78687356  0.92059131  1
  O  O25  1  0.46380347  0.71312644  0.42059131  1
  O  O26  1  0.28687356  0.53619653  0.57940869  1
  O  O27  1  0.21312644  0.96380347  0.07940869  1
  O  O28  1  0.77037960  0.27037960  0.25000000  1
  O  O29  1  0.72962040  0.22962040  0.75000000  1
  O  O30  1  0.59619336  0.10015142  0.41019758  1
  O  O31  1  0.90380664  0.39984858  0.91019758  1
  O  O32  1  0.60015142  0.09619336  0.08980242  1
  O  O33  1  0.89984858  0.40380664  0.58980242  1
  O  O34  1  0.40380664  0.89984858  0.58980242  1
  O  O35  1  0.09619336  0.60015142  0.08980242  1
  O  O36  1  0.39984858  0.90380664  0.91019758  1
  O  O37  1  0.10015142  0.59619336  0.41019758  1
  O  O38  1  0.00320787  0.00320787  0.25077911  1
  O  O39  1  0.49679213  0.49679213  0.75077911  1
  O  O40  1  0.50320787  0.50320787  0.24922089  1
  O  O41  1  0.99679213  0.99679213  0.74922089  1
  O  O42  1  0.27037960  0.77037960  0.25000000  1
  O  O43  1  0.22962040  0.72962040  0.75000000  1
loop_
_geom_bond_atom_site_label_1
_geom_bond_atom_site_label_2
_geom_bond_distance
_geom_bond_site_symmetry_2
Ba0 O24 2.850705 1_655
Ba0 O23 2.850705 1_565
Ba0 O39 2.858256 1_555
Ba0 O5 2.859501 1_556
Ba0 O2 2.859501 1_556
Ba0 O12 2.907342 1_555
Ba0 O11 2.907342 1_555
Ba0 O6 2.933512 1_555
Ba0 O1 2.933512 1_555
Ba0 O31 2.952832 1_555
Ba0 O36 2.952832 1_555
Ba0 O17 3.088403 1_556
Ba1 O25 2.850705 1_555
Ba1 O22 2.850705 1_555
Ba1 O38 2.858256 1_665
Ba1 O4 2.859501 1_655
Ba1 O3 2.859501 1_565
Ba1 O13 2.907342 1_555
Ba1 O10 2.907342 1_555
Ba1 O0 2.933512 1_565
Ba1 O7 2.933512 1_655
Ba1 O30 2.952832 1_565
Ba1 O37 2.952832 1_655
Ba1 O16 3.088403 1_555
Ba2 O21 2.850705 1_555
Ba2 O26 2.850705 1_555
Ba2 O41 2.858256 1_445
Ba2 O0 2.859501 1_455
Ba2 O7 2.859501 1_545
Ba2 O9 2.907342 1_555
Ba2 O14 2.907342 1_555
Ba2 O3 2.933512 1_455
Ba2 O4 2.933512 1_545
Ba2 O33 2.952832 1_455
Ba2 O34 2.952832 1_545
Ba2 O19 3.088403 1_555
Ba3 O20 2.850705 1_455
Ba3 O27 2.850705 1_545
Ba3 O40 2.858256 1_555
Ba3 O6 2.859501 1_554
Ba3 O1 2.859501 1_554
Ba3 O8 2.907342 1_555
Ba3 O15 2.907342 1_555
Ba3 O2 2.933512 1_555
Ba3 O5 2.933512 1_555
Ba3 O35 2.952832 1_555
Ba3 O32 2.952832 1_555
Ba3 O18 3.088403 1_554
O0 Ti14 1.976223 1_555
O0 Ti25 2.025264 1_655
O0 Ti8 2.045316 1_555
O1 Ti15 1.976223 1_555
O1 Ti24 2.025264 1_555
O1 Ti9 2.045316 1_556
O2 Ti12 1.976223 1_555
O2 Ti23 2.025264 1_555
O2 Ti9 2.045316 1_555
O3 Ti13 1.976223 1_555
O3 Ti22 2.025264 1_545
O3 Ti8 2.045316 1_555
O4 Ti18 1.976223 1_555
O4 Ti22 2.025264 1_455
O4 Ti10 2.045316 1_555
O5 Ti19 1.976223 1_555
O5 Ti23 2.025264 1_555
O5 Ti11 2.045316 1_555
O6 Ti16 1.976223 1_555
O6 Ti24 2.025264 1_555
O6 Ti11 2.045316 1_556
O7 Ti17 1.976223 1_555
O7 Ti25 2.025264 1_565
O7 Ti10 2.045316 1_555
O8 Ti0 2.044598 1_555
O8 Ti25 2.077338 1_555
O8 Ti14 2.087005 1_455
O8 Ti12 2.163993 1_455
O9 Ti1 2.044598 1_545
O9 Ti24 2.077338 1_555
O9 Ti15 2.087005 1_555
O9 Ti13 2.163993 1_555
O10 Ti2 2.044598 1_655
O10 Ti23 2.077338 1_555
O10 Ti12 2.087005 1_555
O10 Ti14 2.163993 1_555
O11 Ti3 2.044598 1_555
O11 Ti22 2.077338 1_555
O11 Ti13 2.087005 1_565
O11 Ti15 2.163993 1_565
O12 Ti4 2.044598 1_555
O12 Ti22 2.077338 1_555
O12 Ti18 2.087005 1_655
O12 Ti16 2.163993 1_655
O13 Ti5 2.044598 1_565
O13 Ti23 2.077338 1_555
O13 Ti19 2.087005 1_555
O13 Ti17 2.163993 1_555
O14 Ti6 2.044598 1_455
O14 Ti24 2.077338 1_555
O14 Ti16 2.087005 1_555
O14 Ti18 2.163993 1_555
O15 Ti7 2.044598 1_555
O15 Ti25 2.077338 1_555
O15 Ti17 2.087005 1_545
O15 Ti19 2.163993 1_545
O16 Ti22 2.003455 1_555
O16 Ti20 2.074852 1_555
O16 Ti3 2.081382 1_555
O16 Ti4 2.081382 1_555
O17 Ti23 2.003455 1_555
O17 Ti21 2.074852 1_665
O17 Ti5 2.081382 1_565
O17 Ti2 2.081382 1_655
O18 Ti24 2.003455 1_555
O18 Ti21 2.074852 1_556
O18 Ti6 2.081382 1_455
O18 Ti1 2.081382 1_545
O19 Ti25 2.003455 1_555
O19 Ti20 2.074852 1_555
O19 Ti0 2.081382 1_555
O19 Ti7 2.081382 1_555
O20 Ti12 1.999555 1_555
O20 Ti21 2.042558 1_655
O20 Ti5 2.093312 1_555
O20 Ti9 2.104012 1_555
O21 Ti13 1.999555 1_555
O21 Ti20 2.042558 1_555
O21 Ti4 2.093312 1_555
O21 Ti8 2.104012 1_555
O22 Ti14 1.999555 1_555
O22 Ti20 2.042558 1_555
O22 Ti7 2.093312 1_555
O22 Ti8 2.104012 1_555
O23 Ti15 1.999555 1_555
O23 Ti21 2.042558 1_656
O23 Ti6 2.093312 1_555
O23 Ti9 2.104012 1_556
O24 Ti16 1.999555 1_555
O24 Ti21 2.042558 1_566
O24 Ti1 2.093312 1_555
O24 Ti11 2.104012 1_556
O25 Ti17 1.999555 1_555
O25 Ti20 2.042558 1_555
O25 Ti0 2.093312 1_555
O25 Ti10 2.104012 1_555
O26 Ti18 1.999555 1_555
O26 Ti20 2.042558 1_555
O26 Ti3 2.093312 1_555
O26 Ti10 2.104012 1_555
O27 Ti19 1.999555 1_555
O27 Ti21 2.042558 1_565
O27 Ti2 2.093312 1_555
O27 Ti11 2.104012 1_555
O28 Ti7 2.003116 1_555
O28 Ti5 2.003116 1_555
O28 Ti14 2.058000 1_555
O28 Ti12 2.058000 1_555
O29 Ti4 2.003116 1_555
O29 Ti6 2.003116 1_555
O29 Ti13 2.058000 1_555
O29 Ti15 2.058000 1_555
O30 Ti17 1.964007 1_545
O30 Ti8 1.981780 1_555
O30 Ti7 2.010819 1_555
O31 Ti16 1.964007 1_655
O31 Ti9 1.981780 1_556
O31 Ti6 2.010819 1_555
O32 Ti19 1.964007 1_545
O32 Ti9 1.981780 1_555
O32 Ti5 2.010819 1_555
O33 Ti18 1.964007 1_655
O33 Ti8 1.981780 1_555
O33 Ti4 2.010819 1_555
O34 Ti13 1.964007 1_565
O34 Ti10 1.981780 1_555
O34 Ti3 2.010819 1_555
O35 Ti12 1.964007 1_455
O35 Ti11 1.981780 1_555
O35 Ti2 2.010819 1_555
O36 Ti15 1.964007 1_565
O36 Ti11 1.981780 1_556
O36 Ti1 2.010819 1_555
O37 Ti14 1.964007 1_455
O37 Ti10 1.981780 1_555
O37 Ti0 2.010819 1_555
O38 Ti2 1.994041 1_545
O38 Ti5 1.994041 1_455
O38 Ti25 2.023745 1_555
O39 Ti4 1.994041 1_555
O39 Ti3 1.994041 1_555
O39 Ti24 2.023745 1_555
O40 Ti0 1.994041 1_555
O40 Ti7 1.994041 1_555
O40 Ti23 2.023745 1_555
O41 Ti1 1.994041 1_655
O41 Ti6 1.994041 1_565
O41 Ti22 2.023745 1_555
O42 Ti0 2.003116 1_555
O42 Ti2 2.003116 1_555
O42 Ti17 2.058000 1_555
O42 Ti19 2.058000 1_555
O43 Ti3 2.003116 1_555
O43 Ti1 2.003116 1_555
O43 Ti18 2.058000 1_555
O43 Ti16 2.058000 1_555
