# generated using pymatgen
data_MgFe4(HO2)4
_symmetry_space_group_name_H-M   'P 1'
_cell_length_a   7.73133742
_cell_length_b   7.73133742
_cell_length_c   7.73115799
_cell_angle_alpha   92.30469315
_cell_angle_beta   92.30194941
_cell_angle_gamma   156.87094741
_symmetry_Int_Tables_number   1
_chemical_formula_structural   MgFe4(HO2)4
_chemical_formula_sum   'Mg1 Fe4 H4 O8'
_cell_volume   177.83679084
_cell_formula_units_Z   1
loop_
 _symmetry_equiv_pos_site_id
 _symmetry_equiv_pos_as_xyz
  1  'x, y, z'
loop_
 _atom_site_type_symbol
 _atom_site_label
 _atom_site_symmetry_multiplicity
 _atom_site_fract_x
 _atom_site_fract_y
 _atom_site_fract_z
 _atom_site_occupancy
  Mg  Mg0  1  0.50000000  0.50000000  0.00000000  1
  Fe  Fe0  1  0.35110100  0.85329600  0.20439700  1
  Fe  Fe1  1  0.64889900  0.14670400  0.79560300  1
  Fe  Fe2  1  0.14671600  0.35108500  0.49780200  1
  Fe  Fe3  1  0.85328400  0.64891500  0.50219800  1
  H  H0  1  0.09181600  0.84660600  0.93842300  1
  H  H1  1  0.90818400  0.15339400  0.06157700  1
  H  H2  1  0.15338200  0.09179100  0.24517200  1
  H  H3  1  0.84661800  0.90820900  0.75482800  1
  O  O0  1  0.16157000  0.78636100  0.94793100  1
  O  O1  1  0.83843000  0.21363900  0.05206900  1
  O  O2  1  0.21364900  0.16158400  0.37523300  1
  O  O3  1  0.78635100  0.83841600  0.62476700  1
  O  O4  1  0.53431700  0.82826100  0.36257900  1
  O  O5  1  0.46568300  0.17173900  0.63742100  1
  O  O6  1  0.17172000  0.53433200  0.70605200  1
  O  O7  1  0.82828000  0.46566800  0.29394800  1
loop_
_geom_bond_atom_site_label_1
_geom_bond_atom_site_label_2
_geom_bond_distance
_geom_bond_site_symmetry_2
Fe0 O7 1.977584 1_565
Fe0 O7 1.977584 1_455
Fe0 O4 1.980821 1_555
Fe0 O0 2.153085 1_554
Fe0 O1 2.158351 1_565
Fe0 O1 2.158351 1_455
Fe1 O6 1.977584 1_545
Fe1 O6 1.977584 1_655
Fe1 O5 1.980821 1_555
Fe1 O1 2.153085 1_556
Fe1 O0 2.158351 1_655
Fe1 O0 2.158351 1_545
Fe2 O4 1.977774 1_445
Fe2 O4 1.977774 1_555
Fe2 O6 1.981034 1_555
Fe2 O2 2.152769 1_555
Fe2 O3 2.158212 1_445
Fe2 O3 2.158215 1_555
Fe3 O5 1.977774 1_555
Fe3 O5 1.977774 1_665
Fe3 O7 1.981034 1_555
Fe3 O3 2.152769 1_555
Fe3 O2 2.158212 1_665
Fe3 O2 2.158215 1_555
H0 O0 0.987295 1_555
H0 Mg0 2.463600 1_456
H0 Mg0 2.463602 1_566
H1 O1 0.987295 1_555
H1 Mg0 2.463600 1_655
H1 Mg0 2.463602 1_545
H2 O2 0.987746 1_555
H2 Mg0 2.463389 1_555
H2 Mg0 2.463391 1_445
H3 O3 0.987746 1_555
H3 Mg0 2.463389 1_556
H3 Mg0 2.463391 1_666
