# generated using pymatgen
data_Sr2MgCu2(BiO4)2
_symmetry_space_group_name_H-M   'P 1'
_cell_length_a   3.60162825
_cell_length_b   3.60162964
_cell_length_c   19.30066263
_cell_angle_alpha   95.35365801
_cell_angle_beta   95.35366329
_cell_angle_gamma   90.00001624
_symmetry_Int_Tables_number   1
_chemical_formula_structural   Sr2MgCu2(BiO4)2
_chemical_formula_sum   'Sr2 Mg1 Cu2 Bi2 O8'
_cell_volume   248.17390703
_cell_formula_units_Z   1
loop_
 _symmetry_equiv_pos_site_id
 _symmetry_equiv_pos_as_xyz
  1  'x, y, z'
loop_
 _atom_site_type_symbol
 _atom_site_label
 _atom_site_symmetry_multiplicity
 _atom_site_fract_x
 _atom_site_fract_y
 _atom_site_fract_z
 _atom_site_occupancy
  Sr  Sr0  1  0.90109471  0.90109471  0.80219042  1
  Sr  Sr1  1  0.09890529  0.09890529  0.19780958  1
  Mg  Mg0  1  0.75000000  0.25000000  0.50000000  1
  Cu  Cu0  1  0.54387721  0.54387721  0.08775342  1
  Cu  Cu1  1  0.45612279  0.45612279  0.91224658  1
  Bi  Bi0  1  0.31686723  0.31686723  0.63373446  1
  Bi  Bi1  1  0.68313277  0.68313277  0.36626554  1
  O  O0  1  0.22218615  0.22218615  0.44437230  1
  O  O1  1  0.94488975  0.44488975  0.88977950  1
  O  O2  1  0.05482766  0.55482766  0.10965331  1
  O  O3  1  0.77781385  0.77781385  0.55562770  1
  O  O4  1  0.37166237  0.37166237  0.74332573  1
  O  O5  1  0.62833763  0.62833763  0.25667427  1
  O  O6  1  0.44517334  0.94517334  0.89034669  1
  O  O7  1  0.55511125  0.05511025  0.11022050  1
loop_
_geom_bond_atom_site_label_1
_geom_bond_atom_site_label_2
_geom_bond_distance
_geom_bond_site_symmetry_2
Mg0 O0 2.091791 1_655
Mg0 O0 2.091791 1_555
Mg0 O3 2.091791 1_545
Mg0 O3 2.091792 1_555
Cu0 O2 1.848912 1_555
Cu0 O2 1.848915 1_655
Cu0 O7 1.851402 1_565
Cu0 O7 1.851405 1_555
Cu1 O6 1.848913 1_545
Cu1 O6 1.848916 1_555
Cu1 O1 1.851401 1_455
Cu1 O1 1.851404 1_555
Bi0 O4 2.096690 1_555
Bi1 O5 2.096690 1_555
O1 Sr0 2.459888 1_555
O1 Sr0 2.459891 1_545
O2 Sr1 2.467294 1_565
O2 Sr1 2.467296 1_555
O4 Sr0 2.784632 1_445
O4 Sr0 2.784632 1_555
O4 Sr0 2.784633 1_545
O4 Sr0 2.784633 1_455
O5 Sr1 2.784632 1_665
O5 Sr1 2.784632 1_555
O5 Sr1 2.784633 1_565
O5 Sr1 2.784633 1_655
O6 Sr0 2.467293 1_555
O6 Sr0 2.467296 1_455
O7 Sr1 2.459888 1_655
O7 Sr1 2.459891 1_555
