# generated using pymatgen
data_SrO2
_symmetry_space_group_name_H-M   'P 1'
_cell_length_a   3.54424074
_cell_length_b   3.54423991
_cell_length_c   4.17749883
_cell_angle_alpha   115.10041547
_cell_angle_beta   115.10042384
_cell_angle_gamma   89.99999561
_symmetry_Int_Tables_number   1
_chemical_formula_structural   SrO2
_chemical_formula_sum   'Sr1 O2'
_cell_volume   41.98421694
_cell_formula_units_Z   1
loop_
 _symmetry_equiv_pos_site_id
 _symmetry_equiv_pos_as_xyz
  1  'x, y, z'
loop_
 _atom_site_type_symbol
 _atom_site_label
 _atom_site_symmetry_multiplicity
 _atom_site_fract_x
 _atom_site_fract_y
 _atom_site_fract_z
 _atom_site_occupancy
  Sr  Sr0  1  0.00000000  0.00000000  0.00000000  1
  O  O0  1  0.38787763  0.38787763  0.77575525  1
  O  O1  1  0.61212237  0.61212237  0.22424475  1
loop_
_geom_bond_atom_site_label_1
_geom_bond_atom_site_label_2
_geom_bond_distance
_geom_bond_site_symmetry_2
O0 O1 1.498967 1_556
O0 Sr0 2.592773 1_555
O0 Sr0 2.615826 1_656
O0 Sr0 2.615826 1_566
O0 Sr0 2.615826 1_666
O0 Sr0 2.615826 1_556
O1 Sr0 2.592773 1_666
O1 Sr0 2.615826 1_565
O1 Sr0 2.615826 1_655
O1 Sr0 2.615826 1_555
O1 Sr0 2.615826 1_665
