# generated using pymatgen
data_La4In5S13
_symmetry_space_group_name_H-M   'P 1'
_cell_length_a   4.04599900
_cell_length_b   11.98986900
_cell_length_c   21.87397500
_cell_angle_alpha   90.00000000
_cell_angle_beta   90.00000000
_cell_angle_gamma   90.00000000
_symmetry_Int_Tables_number   1
_chemical_formula_structural   La4In5S13
_chemical_formula_sum   'La8 In10 S26'
_cell_volume   1061.12835713
_cell_formula_units_Z   2
loop_
 _symmetry_equiv_pos_site_id
 _symmetry_equiv_pos_as_xyz
  1  'x, y, z'
loop_
 _atom_site_type_symbol
 _atom_site_label
 _atom_site_symmetry_multiplicity
 _atom_site_fract_x
 _atom_site_fract_y
 _atom_site_fract_z
 _atom_site_occupancy
  La  La0  1  0.00000000  0.51943400  0.16791100  1
  La  La1  1  0.00000000  0.48056600  0.83208900  1
  La  La2  1  0.00000000  0.01943400  0.33208900  1
  La  La3  1  0.00000000  0.98056600  0.66791100  1
  La  La4  1  0.00000000  0.66536300  0.34343400  1
  La  La5  1  0.00000000  0.33463700  0.65656600  1
  La  La6  1  0.00000000  0.16536300  0.15656600  1
  La  La7  1  0.00000000  0.83463700  0.84343400  1
  In  In0  1  0.50000000  0.84835200  0.17066800  1
  In  In1  1  0.50000000  0.15164800  0.82933200  1
  In  In2  1  0.50000000  0.34835200  0.32933200  1
  In  In3  1  0.50000000  0.65164800  0.67066800  1
  In  In4  1  0.50000000  0.65488600  0.99289600  1
  In  In5  1  0.50000000  0.34511400  0.00710400  1
  In  In6  1  0.50000000  0.15488600  0.50710400  1
  In  In7  1  0.50000000  0.84511400  0.49289600  1
  In  In8  1  0.00000000  0.00000000  0.00000000  1
  In  In9  1  0.00000000  0.50000000  0.50000000  1
  S  S0  1  0.00000000  0.50000000  0.00000000  1
  S  S1  1  0.00000000  0.00000000  0.50000000  1
  S  S2  1  0.50000000  0.66408500  0.11303300  1
  S  S3  1  0.50000000  0.33591500  0.88696700  1
  S  S4  1  0.50000000  0.16408500  0.38696700  1
  S  S5  1  0.50000000  0.83591500  0.61303300  1
  S  S6  1  0.50000000  0.00017800  0.09014500  1
  S  S7  1  0.50000000  0.99982200  0.90985500  1
  S  S8  1  0.50000000  0.50017800  0.40985500  1
  S  S9  1  0.50000000  0.49982200  0.59014500  1
  S  S10  1  0.00000000  0.79727600  0.97864700  1
  S  S11  1  0.00000000  0.20272400  0.02135300  1
  S  S12  1  0.00000000  0.29727600  0.52135300  1
  S  S13  1  0.00000000  0.70272400  0.47864700  1
  S  S14  1  0.00000000  0.82665800  0.23714700  1
  S  S15  1  0.00000000  0.17334200  0.76285300  1
  S  S16  1  0.00000000  0.32665800  0.26285300  1
  S  S17  1  0.00000000  0.67334200  0.73714700  1
  S  S18  1  0.50000000  0.84570400  0.36692400  1
  S  S19  1  0.50000000  0.15429600  0.63307600  1
  S  S20  1  0.50000000  0.34570400  0.13307600  1
  S  S21  1  0.50000000  0.65429600  0.86692400  1
  S  S22  1  0.50000000  0.92562000  0.76151400  1
  S  S23  1  0.50000000  0.07438000  0.23848600  1
  S  S24  1  0.50000000  0.42562000  0.73848600  1
  S  S25  1  0.50000000  0.57438000  0.26151400  1
loop_
_geom_bond_atom_site_label_1
_geom_bond_atom_site_label_2
_geom_bond_distance
_geom_bond_site_symmetry_2
La0 S2 2.922575 1_455
La0 S2 2.922575 1_555
La0 S25 2.952739 1_555
La0 S25 2.952739 1_455
La0 S20 3.002004 1_555
La0 S20 3.002004 1_455
La0 S16 3.107299 1_555
La0 S0 3.680265 1_555
La1 S3 2.922575 1_555
La1 S3 2.922575 1_455
La1 S24 2.952739 1_455
La1 S24 2.952739 1_555
La1 S21 3.002004 1_455
La1 S21 3.002004 1_555
La1 S17 3.107299 1_555
La1 S0 3.680265 1_556
La2 S4 2.922575 1_555
La2 S4 2.922575 1_455
La2 S23 2.952739 1_455
La2 S23 2.952739 1_555
La2 S18 3.002004 1_545
La2 S18 3.002004 1_445
La2 S14 3.107299 1_545
La2 S1 3.680265 1_555
La3 S5 2.922575 1_455
La3 S5 2.922575 1_555
La3 S22 2.952739 1_555
La3 S22 2.952739 1_455
La3 S19 3.002004 1_565
La3 S19 3.002004 1_465
La3 S15 3.107299 1_565
La3 S1 3.680265 1_565
La4 S25 2.914360 1_455
La4 S25 2.914360 1_555
La4 S13 2.991376 1_555
La4 S18 3.005317 1_455
La4 S18 3.005317 1_555
La4 S14 3.024110 1_555
La4 S8 3.182135 1_455
La4 S8 3.182135 1_555
La5 S24 2.914360 1_555
La5 S24 2.914360 1_455
La5 S12 2.991376 1_555
La5 S19 3.005317 1_455
La5 S19 3.005317 1_555
La5 S15 3.024110 1_555
La5 S9 3.182135 1_455
La5 S9 3.182135 1_555
La6 S23 2.914360 1_455
La6 S23 2.914360 1_555
La6 S11 2.991376 1_555
La6 S20 3.005317 1_555
La6 S20 3.005317 1_455
La6 S16 3.024110 1_555
La6 S6 3.182135 1_455
La6 S6 3.182135 1_555
La7 S22 2.914360 1_455
La7 S22 2.914360 1_555
La7 S10 2.991376 1_555
La7 S21 3.005317 1_455
La7 S21 3.005317 1_555
La7 S17 3.024110 1_555
La7 S7 3.182135 1_455
La7 S7 3.182135 1_555
In0 S14 2.504948 1_555
In0 S14 2.504948 1_655
In0 S6 2.533011 1_565
In0 S2 2.543728 1_555
In0 S23 3.089494 1_565
In1 S15 2.504948 1_555
In1 S15 2.504948 1_655
In1 S7 2.533011 1_545
In1 S3 2.543728 1_555
In1 S22 3.089494 1_545
In2 S16 2.504948 1_555
In2 S16 2.504948 1_655
In2 S8 2.533011 1_555
In2 S4 2.543728 1_555
In2 S25 3.089494 1_555
In3 S17 2.504948 1_555
In3 S17 2.504948 1_655
In3 S9 2.533011 1_555
In3 S5 2.543728 1_555
In3 S24 3.089494 1_555
In4 S2 2.630187 1_556
In4 S10 2.665395 1_555
In4 S10 2.665395 1_655
In4 S0 2.750519 1_556
In4 S0 2.750519 1_656
In4 S21 2.755517 1_555
In5 S3 2.630187 1_554
In5 S11 2.665395 1_555
In5 S11 2.665395 1_655
In5 S0 2.750519 1_655
In5 S0 2.750519 1_555
In5 S20 2.755517 1_555
In6 S4 2.630187 1_555
In6 S12 2.665395 1_555
In6 S12 2.665395 1_655
In6 S1 2.750519 1_555
In6 S1 2.750519 1_655
In6 S19 2.755517 1_555
In7 S5 2.630187 1_555
In7 S13 2.665395 1_555
In7 S13 2.665395 1_655
In7 S1 2.750519 1_565
In7 S1 2.750519 1_665
In7 S18 2.755517 1_555
In8 S11 2.475104 1_555
In8 S10 2.475104 1_544
In8 S6 2.825003 1_555
In8 S6 2.825003 1_455
In8 S7 2.825003 1_444
In8 S7 2.825003 1_544
In9 S13 2.475104 1_555
In9 S12 2.475104 1_555
In9 S9 2.825003 1_455
In9 S9 2.825003 1_555
In9 S8 2.825003 1_555
In9 S8 2.825003 1_455
