# generated using pymatgen
data_Tm2MgW2(ClO4)2
_symmetry_space_group_name_H-M   'P 1'
_cell_length_a   6.19356531
_cell_length_b   7.03092396
_cell_length_c   6.72422287
_cell_angle_alpha   72.64309457
_cell_angle_beta   78.94586420
_cell_angle_gamma   66.31128175
_symmetry_Int_Tables_number   1
_chemical_formula_structural   Tm2MgW2(ClO4)2
_chemical_formula_sum   'Tm2 Mg1 W2 Cl2 O8'
_cell_volume   255.06721045
_cell_formula_units_Z   1
loop_
 _symmetry_equiv_pos_site_id
 _symmetry_equiv_pos_as_xyz
  1  'x, y, z'
loop_
 _atom_site_type_symbol
 _atom_site_label
 _atom_site_symmetry_multiplicity
 _atom_site_fract_x
 _atom_site_fract_y
 _atom_site_fract_z
 _atom_site_occupancy
  Tm  Tm0  1  0.31682305  0.19428025  0.80691825  1
  Tm  Tm1  1  0.68812709  0.78264075  0.19803882  1
  Mg  Mg0  1  0.22108051  0.66621711  0.58389228  1
  W  W0  1  0.34687084  0.39855687  0.19515995  1
  W  W1  1  0.64679283  0.61039747  0.79559753  1
  Cl  Cl0  1  0.00811423  0.91611343  0.28757990  1
  Cl  Cl1  1  0.04467934  0.00350497  0.75389632  1
  O  O0  1  0.36480557  0.36842138  0.48934566  1
  O  O1  1  0.53671440  0.71845672  0.51244462  1
  O  O2  1  0.40089324  0.47518187  0.85041558  1
  O  O3  1  0.58437425  0.53690221  0.11973426  1
  O  O4  1  0.96943375  0.49694902  0.74835644  1
  O  O5  1  0.02703469  0.50993574  0.19062225  1
  O  O6  1  0.44243288  0.12205775  0.13333196  1
  O  O7  1  0.58932332  0.88038446  0.85318520  1
loop_
_geom_bond_atom_site_label_1
_geom_bond_atom_site_label_2
_geom_bond_distance
_geom_bond_site_symmetry_2
Mg0 O1 2.073370 1_555
Mg0 O2 2.093654 1_555
Mg0 O0 2.158713 1_555
Mg0 O4 2.261152 1_455
Cl0 Mg0 2.419439 1_555
Cl0 Tm1 2.731321 1_455
Cl1 Tm0 2.664540 1_555
Cl1 Mg0 2.679705 1_545
O0 W0 1.945679 1_555
O0 Tm0 2.153257 1_555
O1 W1 1.971213 1_555
O1 Tm1 2.136165 1_555
O2 W1 2.024419 1_555
O2 W0 2.208672 1_556
O2 Tm0 2.342366 1_555
O3 W0 1.984054 1_555
O3 W1 2.081444 1_554
O3 Tm1 2.289113 1_555
O4 W1 1.832298 1_555
O4 Tm0 2.336392 1_655
O5 W0 1.816775 1_555
O5 Tm1 2.206298 1_455
O6 W0 1.940557 1_555
O6 Tm1 2.217274 1_545
O6 Tm0 2.313648 1_554
O7 W1 1.929462 1_555
O7 Tm0 2.148184 1_565
O7 Tm1 2.340802 1_556
