# generated using pymatgen
data_Na2Si5Ge8S7O48
_symmetry_space_group_name_H-M   'P 1'
_cell_length_a   16.93990541
_cell_length_b   8.46543115
_cell_length_c   21.99951866
_cell_angle_alpha   90.06281838
_cell_angle_beta   90.16156101
_cell_angle_gamma   120.10469284
_symmetry_Int_Tables_number   1
_chemical_formula_structural   Na2Si5Ge8S7O48
_chemical_formula_sum   'Na6 Si15 Ge24 S21 O144'
_cell_volume   2729.23661600
_cell_formula_units_Z   3
loop_
 _symmetry_equiv_pos_site_id
 _symmetry_equiv_pos_as_xyz
  1  'x, y, z'
loop_
 _atom_site_type_symbol
 _atom_site_label
 _atom_site_symmetry_multiplicity
 _atom_site_fract_x
 _atom_site_fract_y
 _atom_site_fract_z
 _atom_site_occupancy
  Na  Na0  1  0.99737134  0.99884772  0.49967398  1
  Na  Na1  1  0.49691131  0.99590173  0.99695379  1
  Na  Na2  1  0.33748940  0.34096454  0.83408469  1
  Na  Na3  1  0.83382502  0.33794792  0.83156947  1
  Na  Na4  1  0.33523488  0.33176368  0.33238128  1
  Na  Na5  1  0.83472010  0.33327832  0.33614606  1
  Si  Si0  1  0.14238621  0.00301310  0.24866373  1
  Si  Si1  1  0.50399097  0.28898991  0.25076517  1
  Si  Si2  1  0.64176248  0.27826286  0.74823922  1
  Si  Si3  1  0.00429410  0.71925523  0.75073083  1
  Si  Si4  1  0.50066154  0.71619303  0.75148843  1
  Si  Si5  1  0.97526642  0.32757883  0.58714431  1
  Si  Si6  1  0.33478514  0.63294764  0.58406893  1
  Si  Si7  1  0.47625908  0.62258789  0.08652113  1
  Si  Si8  1  0.83379155  0.03724722  0.08316410  1
  Si  Si9  1  0.31065183  0.67137533  0.91382373  1
  Si  Si10  1  0.02205976  0.37225361  0.91570697  1
  Si  Si11  1  0.52529238  0.37676577  0.91822686  1
  Si  Si12  1  0.80938281  0.94935533  0.41407153  1
  Si  Si13  1  0.02481650  0.66499739  0.41929623  1
  Si  Si14  1  0.52099465  0.67039667  0.41668384  1
  Ge  Ge0  1  0.00177051  0.98831585  0.35690309  1
  Ge  Ge1  1  0.49872456  0.00245869  0.35603418  1
  Ge  Ge2  1  0.99733960  0.99501835  0.85512940  1
  Ge  Ge3  1  0.49928906  0.99987847  0.85295510  1
  Ge  Ge4  1  0.99957777  0.00032838  0.64892427  1
  Ge  Ge5  1  0.50231804  0.98927794  0.64873690  1
  Ge  Ge6  1  0.00252918  0.00211343  0.14385302  1
  Ge  Ge7  1  0.49880178  -0.00000854  0.14750251  1
  Ge  Ge8  1  0.33917644  0.35691456  0.68621688  1
  Ge  Ge9  1  0.83814636  0.34863076  0.69072694  1
  Ge  Ge10  1  0.33863782  0.32606910  0.18958250  1
  Ge  Ge11  1  0.83234826  0.32434224  0.18184368  1
  Ge  Ge12  1  0.34434564  0.36458627  0.97546653  1
  Ge  Ge13  1  0.84036870  0.32463378  0.97864700  1
  Ge  Ge14  1  0.34348288  0.35730299  0.48278394  1
  Ge  Ge15  1  0.84214335  0.32197771  0.47806764  1
  Ge  Ge16  1  0.16955396  0.65512523  0.01412820  1
  Ge  Ge17  1  0.65933330  0.66577059  0.02447023  1
  Ge  Ge18  1  0.15942285  0.65678457  0.52796009  1
  Ge  Ge19  1  0.66877376  0.68473195  0.51705066  1
  Ge  Ge20  1  0.16011936  0.67733831  0.31224211  1
  Ge  Ge21  1  0.65787582  0.66022146  0.31558675  1
  Ge  Ge22  1  0.15990873  0.65654481  0.81390406  1
  Ge  Ge23  1  0.65048822  0.63560932  0.80608234  1
  S  S0  1  0.64564041  0.00014580  0.24974268  1
  S  S1  1  0.35288964  0.70982916  0.25119873  1
  S  S2  1  0.85360013  0.70825517  0.24868959  1
  S  S3  1  0.00094761  0.29029677  0.25054404  1
  S  S4  1  0.14512330  0.28989090  0.75003823  1
  S  S5  1  0.35302745  0.99850747  0.74890663  1
  S  S6  1  0.85333282  0.99551621  0.75097740  1
  S  S7  1  0.48097439  0.33397761  0.58300417  1
  S  S8  1  0.19170689  0.04894864  0.58346892  1
  S  S9  1  0.68996658  0.04692314  0.58299366  1
  S  S10  1  0.82995523  0.61910825  0.58203650  1
  S  S11  1  0.98021584  0.62419735  0.08239069  1
  S  S12  1  0.32985594  0.04046767  0.08183105  1
  S  S13  1  0.19048631  0.33524198  0.08318338  1
  S  S14  1  0.69021806  0.33503496  0.08224305  1
  S  S15  1  0.80968717  0.66588608  0.91741401  1
  S  S16  1  0.16659141  0.95603493  0.91768482  1
  S  S17  1  0.66737168  0.95409678  0.91593829  1
  S  S18  1  0.31076437  0.95522814  0.41837981  1
  S  S19  1  0.16764253  0.38093012  0.41579541  1
  S  S20  1  0.66661986  0.37790767  0.41794419  1
  O  O0  1  0.09795275  0.04321340  0.30891822  1
  O  O1  1  0.60734356  0.03806848  0.30451041  1
  O  O2  1  0.41217824  0.78796686  0.30570986  1
  O  O3  1  0.91176087  0.78219086  0.30404022  1
  O  O4  1  0.48221542  0.15560327  0.31047381  1
  O  O5  1  0.98027197  0.17597521  0.30499003  1
  O  O6  1  0.10572975  0.17545433  0.80488906  1
  O  O7  1  0.60008247  0.15885062  0.80975996  1
  O  O8  1  0.47735327  0.79690731  0.81104090  1
  O  O9  1  0.98222125  0.80819369  0.81061547  1
  O  O10  1  0.41041437  0.04300877  0.80443783  1
  O  O11  1  0.91424814  0.04022349  0.80550383  1
  O  O12  1  0.39224591  0.96606851  0.69394039  1
  O  O13  1  0.89384285  0.96321134  0.69495809  1
  O  O14  1  0.08807370  0.21230328  0.69412260  1
  O  O15  1  0.57779850  0.19817302  0.68725902  1
  O  O16  1  0.01916636  0.84370503  0.68920155  1
  O  O17  1  0.51872357  0.83065322  0.68975445  1
  O  O18  1  0.39192116  0.82314717  0.19566983  1
  O  O19  1  0.89381806  0.82099949  0.19390062  1
  O  O20  1  0.01605703  0.21193796  0.19487216  1
  O  O21  1  0.51906587  0.19399987  0.18950222  1
  O  O22  1  0.07696430  0.96111779  0.18878181  1
  O  O23  1  0.58954431  0.96698661  0.19413428  1
  O  O24  1  0.43972520  0.37072310  0.63742778  1
  O  O25  1  0.92808679  0.36495274  0.64470623  1
  O  O26  1  0.24766552  0.12753343  0.63926678  1
  O  O27  1  0.74702983  0.12379855  0.63747855  1
  O  O28  1  0.31010791  0.49250068  0.64166747  1
  O  O29  1  0.81339974  0.51031198  0.63766268  1
  O  O30  1  0.42897764  0.49308844  0.14512469  1
  O  O31  1  0.93971993  0.50911959  0.13907638  1
  O  O32  1  0.31317430  0.11578793  0.13843064  1
  O  O33  1  0.81258854  0.12710968  0.14372857  1
  O  O34  1  0.24617221  0.36889658  0.13864853  1
  O  O35  1  0.74677253  0.37003575  0.13984280  1
  O  O36  1  0.22757920  0.29487593  0.02822118  1
  O  O37  1  0.73061528  0.29852065  0.02797570  1
  O  O38  1  0.41317209  0.54262716  0.02591627  1
  O  O39  1  0.91957115  0.54481902  0.02844503  1
  O  O40  1  0.34823066  0.15605063  0.02786138  1
  O  O41  1  0.85405028  0.17299920  0.02571850  1
  O  O42  1  0.23072359  0.16233251  0.52682275  1
  O  O43  1  0.72932167  0.16164838  0.52678690  1
  O  O44  1  0.35369676  0.53994897  0.52441225  1
  O  O45  1  0.84839353  0.54043951  0.52696356  1
  O  O46  1  0.42029010  0.29361961  0.52713970  1
  O  O47  1  0.91455743  0.28393288  0.52516962  1
  O  O48  1  0.27199282  0.71381323  0.97711171  1
  O  O49  1  0.77241908  0.70145034  0.97282571  1
  O  O50  1  0.08147596  0.45915423  0.97806953  1
  O  O51  1  0.59003255  0.46921755  0.97824637  1
  O  O52  1  0.14727808  0.84033044  0.97360918  1
  O  O53  1  0.65221721  0.84614324  0.97246487  1
  O  O54  1  0.27192339  0.84196049  0.47175882  1
  O  O55  1  0.77142766  0.82784186  0.47620185  1
  O  O56  1  0.15127425  0.45825781  0.47063399  1
  O  O57  1  0.64776687  0.45483192  0.47290850  1
  O  O58  1  0.09183413  0.70890475  0.47730557  1
  O  O59  1  0.58274206  0.70429683  0.47721896  1
  O  O60  1  0.06342728  0.61784979  0.35760004  1
  O  O61  1  0.56122282  0.62389140  0.35689619  1
  O  O62  1  0.25550892  0.87868401  0.36074650  1
  O  O63  1  0.74667435  0.85885022  0.35344446  1
  O  O64  1  0.18658167  0.49410512  0.35962105  1
  O  O65  1  0.68630636  0.49055172  0.36198298  1
  O  O66  1  0.06285379  0.50138108  0.85691161  1
  O  O67  1  0.56484460  0.50856648  0.85946111  1
  O  O68  1  0.18620884  0.88195504  0.86253480  1
  O  O69  1  0.68802146  0.88179098  0.86192917  1
  O  O70  1  0.24555799  0.63242999  0.85454390  1
  O  O71  1  0.75553105  0.63323871  0.86179894  1
  O  O72  1  0.01531181  0.84578280  0.41085100  1
  O  O73  1  0.51047596  0.84926378  0.40443275  1
  O  O74  1  0.40200352  0.97509433  0.41016476  1
  O  O75  1  0.91293568  0.98259255  0.40468693  1
  O  O76  1  0.08354501  0.19933805  0.40973470  1
  O  O77  1  0.58439160  0.19565885  0.41009251  1
  O  O78  1  0.01071934  0.17140737  0.90496683  1
  O  O79  1  0.51457767  0.17800032  0.90898013  1
  O  O80  1  0.08453909  0.97327746  0.91049032  1
  O  O81  1  0.58582378  0.97231881  0.91220472  1
  O  O82  1  0.41167540  0.84655768  0.90880714  1
  O  O83  1  0.90262897  0.82872331  0.91099466  1
  O  O84  1  0.48732831  0.17111081  0.58935657  1
  O  O85  1  0.98828488  0.14611362  0.59466043  1
  O  O86  1  0.09948259  0.03042907  0.58838316  1
  O  O87  1  0.59942420  0.02816741  0.58774040  1
  O  O88  1  0.42396061  0.83155720  0.59394085  1
  O  O89  1  0.91388676  0.80370016  0.58855742  1
  O  O90  1  0.48820386  0.82966761  0.09507264  1
  O  O91  1  0.98634071  0.80310496  0.08979513  1
  O  O92  1  0.41387692  0.02426889  0.08917437  1
  O  O93  1  0.92499597  0.02339724  0.09624162  1
  O  O94  1  0.09772402  0.17107093  0.09015224  1
  O  O95  1  0.59923163  0.16774398  0.08889917  1
  O  O96  1  0.34288878  0.16553387  0.74088108  1
  O  O97  1  0.84597376  0.16111179  0.74394230  1
  O  O98  1  0.23489420  0.29864874  0.74364348  1
  O  O99  1  0.74326926  0.29933987  0.73863352  1
  O  O100  1  0.41063082  0.50679946  0.74417854  1
  O  O101  1  0.91316186  0.51956214  0.74441840  1
  O  O102  1  0.34415472  0.52887561  0.24414285  1
  O  O103  1  0.84613145  0.52001682  0.24138161  1
  O  O104  1  0.41265389  0.30604784  0.24457152  1
  O  O105  1  0.91785401  0.31405735  0.24367048  1
  O  O106  1  0.24273342  0.18456282  0.23905487  1
  O  O107  1  0.73830424  0.17371335  0.24395589  1
  O  O108  1  0.31314143  0.48110321  0.92186487  1
  O  O109  1  0.81885439  0.49743535  0.92524207  1
  O  O110  1  0.42204533  0.34801294  0.92522787  1
  O  O111  1  0.92208208  0.35993786  0.92228815  1
  O  O112  1  0.24847173  0.13750392  0.92611200  1
  O  O113  1  0.74949680  0.14447420  0.92350786  1
  O  O114  1  0.31858246  0.13887908  0.42424836  1
  O  O115  1  0.81464150  0.14651595  0.42159810  1
  O  O116  1  0.24771587  0.35368809  0.42194791  1
  O  O117  1  0.74827544  0.35895991  0.42517698  1
  O  O118  1  0.42053637  0.48214976  0.42254271  1
  O  O119  1  0.92090695  0.49250967  0.42528462  1
  O  O120  1  0.18034093  0.50064230  0.07750421  1
  O  O121  1  0.68285982  0.49783164  0.07756284  1
  O  O122  1  0.07064160  0.64253482  0.07589440  1
  O  O123  1  0.57465170  0.64377461  0.07657040  1
  O  O124  1  0.24707243  0.85677407  0.07607365  1
  O  O125  1  0.74658265  0.84024143  0.07079097  1
  O  O126  1  0.18301927  0.86919241  0.57720983  1
  O  O127  1  0.68158886  0.86122621  0.57687273  1
  O  O128  1  0.24597843  0.65051168  0.57017750  1
  O  O129  1  0.74727846  0.63694761  0.57538775  1
  O  O130  1  0.07331705  0.50414243  0.57666634  1
  O  O131  1  0.57135351  0.50129838  0.57472135  1
  O  O132  1  0.15635908  0.82713964  0.25802557  1
  O  O133  1  0.65601268  0.83994117  0.25510547  1
  O  O134  1  0.26189538  0.69139085  0.25944380  1
  O  O135  1  0.76429842  0.68826230  0.25672079  1
  O  O136  1  0.08468347  0.47096910  0.25667446  1
  O  O137  1  0.59465847  0.48793996  0.25960631  1
  O  O138  1  0.15509837  0.47110786  0.75510619  1
  O  O139  1  0.66099618  0.48472520  0.75760006  1
  O  O140  1  0.09434584  0.70139242  0.75967003  1
  O  O141  1  0.59233167  0.70399651  0.75749819  1
  O  O142  1  0.26294909  0.83586732  0.75725960  1
  O  O143  1  0.76546975  0.83425088  0.75937917  1
loop_
_geom_bond_atom_site_label_1
_geom_bond_atom_site_label_2
_geom_bond_distance
_geom_bond_site_symmetry_2
Na0 O72 2.445926 1_655
Na0 O85 2.476518 1_565
Na0 O75 2.493305 1_555
Na0 O89 2.496337 1_555
Na0 O86 2.527453 1_665
Na0 O76 2.542583 1_665
Na1 O82 2.364574 1_555
Na1 O79 2.399713 1_565
Na1 O81 2.470060 1_555
Na1 O90 2.541994 1_556
Na1 O92 2.550708 1_566
Na1 O95 2.580000 1_566
Na2 O100 2.386009 1_555
Na2 O108 2.407708 1_555
Na2 O110 2.444074 1_555
Na2 O98 2.542038 1_555
Na2 O96 2.559063 1_555
Na2 O112 2.599755 1_555
Na3 O101 2.407099 1_555
Na3 O111 2.440518 1_555
Na3 O99 2.473471 1_555
Na3 O97 2.510886 1_555
Na3 O109 2.544442 1_555
Na3 O113 2.547658 1_555
Na4 O118 2.403319 1_555
Na4 O104 2.408083 1_555
Na4 O106 2.498201 1_555
Na4 O102 2.516203 1_555
Na4 O114 2.525615 1_555
Na4 O116 2.531149 1_555
Na5 O115 2.370661 1_555
Na5 O119 2.407893 1_555
Na5 O117 2.522399 1_555
Na5 O107 2.523428 1_555
Na5 O105 2.528614 1_555
Na5 O103 2.566240 1_555
Ge0 O72 1.787829 1_555
Ge0 O0 1.798950 1_565
Ge0 O75 1.818761 1_455
Ge0 O76 1.991214 1_565
Ge0 O3 2.009648 1_455
Ge0 O5 2.131350 1_465
Ge1 O73 1.765211 1_545
Ge1 O4 1.768772 1_555
Ge1 O74 1.946058 1_545
Ge1 O77 1.949426 1_555
Ge1 O2 1.997012 1_545
Ge1 O1 2.053621 1_555
Ge2 O9 1.764868 1_555
Ge2 O78 1.771620 1_665
Ge2 O83 1.953328 1_555
Ge2 O11 1.962694 1_565
Ge2 O80 1.990535 1_655
Ge2 O6 2.031689 1_665
Ge3 O8 1.815150 1_555
Ge3 O7 1.826557 1_565
Ge3 O79 1.860713 1_565
Ge3 O82 1.865063 1_555
Ge3 O10 2.020495 1_565
Ge3 O81 2.057973 1_555
Ge4 O16 1.759402 1_645
Ge4 O85 1.795431 1_555
Ge4 O14 1.935255 1_655
Ge4 O13 1.943930 1_545
Ge4 O89 2.049860 1_545
Ge4 O86 2.069738 1_655
Ge5 O17 1.752223 1_555
Ge5 O15 1.789589 1_565
Ge5 O88 1.790912 1_555
Ge5 O87 2.021173 1_565
Ge5 O12 2.036588 1_555
Ge5 O84 2.129569 1_565
Ge6 O93 1.756317 1_455
Ge6 O22 1.766362 1_545
Ge6 O94 1.934569 1_555
Ge6 O91 1.964182 1_445
Ge6 O20 2.013259 1_555
Ge6 O19 2.033967 1_445
Ge7 O21 1.760184 1_555
Ge7 O90 1.782448 1_545
Ge7 O23 1.978878 1_545
Ge7 O18 1.984282 1_545
Ge7 O92 2.011270 1_555
Ge7 O95 2.041060 1_555
Ge8 O28 1.757033 1_555
Ge8 O100 1.774288 1_555
Ge8 O24 1.969200 1_555
Ge8 O98 2.024811 1_555
Ge8 O96 2.044752 1_555
Ge8 O26 2.051202 1_555
Ge9 O25 1.778550 1_555
Ge9 O99 1.790459 1_555
Ge9 O101 1.801952 1_555
Ge9 O29 1.997047 1_555
Ge9 O97 2.030377 1_555
Ge9 O27 2.101214 1_555
Ge10 O30 1.771587 1_555
Ge10 O104 1.808130 1_555
Ge10 O106 1.821931 1_555
Ge10 O32 1.960565 1_555
Ge10 O102 2.056916 1_555
Ge10 O34 2.097897 1_555
Ge11 O33 1.742873 1_555
Ge11 O35 1.913274 1_555
Ge11 O31 1.949114 1_555
Ge11 O107 2.002334 1_555
Ge11 O105 2.017749 1_555
Ge11 O103 2.029663 1_555
Ge12 O38 1.757560 1_556
Ge12 O108 1.779029 1_555
Ge12 O110 1.779543 1_555
Ge12 O112 2.089389 1_555
Ge12 O36 2.109786 1_556
Ge12 O40 2.137752 1_556
Ge13 O41 1.753240 1_556
Ge13 O111 1.771479 1_555
Ge13 O113 1.948683 1_555
Ge13 O39 1.988250 1_556
Ge13 O109 2.046765 1_555
Ge13 O37 2.069498 1_556
Ge14 O44 1.728273 1_555
Ge14 O118 1.790545 1_555
Ge14 O46 1.906138 1_555
Ge14 O42 2.040270 1_555
Ge14 O116 2.088498 1_555
Ge14 O114 2.112943 1_555
Ge15 O47 1.752749 1_555
Ge15 O115 1.806974 1_555
Ge15 O119 1.814615 1_555
Ge15 O43 2.013978 1_555
Ge15 O45 2.094532 1_555
Ge15 O117 2.114267 1_555
Ge16 O48 1.750790 1_554
Ge16 O50 1.764940 1_554
Ge16 O120 1.982381 1_555
Ge16 O52 1.997444 1_554
Ge16 O124 2.057091 1_555
Ge16 O122 2.121155 1_555
Ge17 O123 1.774251 1_555
Ge17 O125 1.789606 1_555
Ge17 O51 1.791890 1_554
Ge17 O53 1.960281 1_554
Ge17 O121 2.028212 1_555
Ge17 O49 2.117645 1_554
Ge18 O130 1.751154 1_555
Ge18 O128 1.756652 1_555
Ge18 O58 1.802238 1_555
Ge18 O126 1.959387 1_555
Ge18 O56 2.048331 1_555
Ge18 O54 2.153733 1_555
Ge19 O59 1.776084 1_555
Ge19 O55 1.788027 1_555
Ge19 O127 1.918377 1_555
Ge19 O129 2.027416 1_555
Ge19 O57 2.038759 1_555
Ge19 O131 2.046907 1_555
Ge20 O60 1.764952 1_555
Ge20 O132 1.766002 1_555
Ge20 O62 1.969345 1_555
Ge20 O136 1.981513 1_555
Ge20 O134 2.035095 1_555
Ge20 O64 2.095678 1_555
Ge21 O61 1.762121 1_555
Ge21 O137 1.792318 1_555
Ge21 O63 1.798962 1_555
Ge21 O65 2.007781 1_555
Ge21 O133 2.034313 1_555
Ge21 O135 2.137294 1_555
Ge22 O66 1.780087 1_555
Ge22 O140 1.793791 1_555
Ge22 O70 1.798973 1_555
Ge22 O138 2.002688 1_555
Ge22 O68 2.030834 1_555
Ge22 O142 2.064556 1_555
Ge23 O141 1.736567 1_555
Ge23 O139 1.739814 1_555
Ge23 O67 1.757156 1_555
Ge23 O143 2.099184 1_555
Ge23 O71 2.166272 1_555
Ge23 O69 2.217579 1_555
O0 Si0 1.643504 1_555
O1 S0 1.479228 1_555
O2 S1 1.486404 1_555
O3 S2 1.489348 1_555
O4 Si1 1.650664 1_555
O5 S3 1.469298 1_655
O6 S4 1.482733 1_555
O7 Si2 1.626206 1_555
O8 Si4 1.615796 1_555
O9 Si3 1.650853 1_655
O10 S5 1.484695 1_545
O11 S6 1.499078 1_545
O12 S5 1.471679 1_555
O13 S6 1.502267 1_555
O14 S4 1.494427 1_555
O15 Si2 1.638996 1_555
O16 Si3 1.656636 1_555
O17 Si4 1.607730 1_555
O18 S1 1.490161 1_555
O19 S2 1.477419 1_555
O20 S3 1.475081 1_555
O21 Si1 1.653435 1_555
O22 Si0 1.638873 1_565
O23 S0 1.484420 1_565
O24 S7 1.496825 1_555
O25 Si5 1.612744 1_555
O26 S8 1.485597 1_555
O27 S9 1.468112 1_555
O28 Si6 1.643681 1_555
O29 S10 1.473011 1_555
O30 Si7 1.622830 1_555
O31 S11 1.520482 1_555
O32 S12 1.489241 1_555
O33 Si8 1.660586 1_555
O34 S13 1.477518 1_555
O35 S14 1.522791 1_555
O36 S13 1.480673 1_555
O37 S14 1.484971 1_555
O38 Si7 1.625491 1_555
O39 S11 1.488029 1_555
O40 S12 1.470739 1_555
O41 Si8 1.626518 1_555
O42 S8 1.510625 1_555
O43 S9 1.508120 1_555
O44 Si6 1.642555 1_555
O45 S10 1.489302 1_555
O46 S7 1.524314 1_555
O47 Si5 1.631820 1_555
O48 Si9 1.654238 1_555
O49 S15 1.472904 1_555
O50 Si10 1.638198 1_555
O51 Si11 1.639285 1_555
O52 S16 1.504506 1_555
O53 S17 1.488774 1_555
O54 S18 1.450956 1_555
O55 Si12 1.638398 1_555
O56 S19 1.463931 1_555
O57 S20 1.482319 1_555
O58 Si13 1.619602 1_555
O59 Si14 1.624864 1_555
O60 Si13 1.641652 1_555
O61 Si14 1.619396 1_555
O62 S18 1.512171 1_555
O63 Si12 1.633305 1_555
O64 S19 1.498181 1_555
O65 S20 1.490658 1_555
O66 Si10 1.611172 1_555
O67 Si11 1.619664 1_555
O68 S16 1.478314 1_555
O69 S17 1.457509 1_555
O70 Si9 1.628376 1_555
O71 S15 1.467498 1_555
O72 Si13 1.627972 1_555
O73 Si14 1.633535 1_555
O74 S18 1.480088 1_555
O75 Si12 1.644982 1_555
O76 S19 1.487279 1_555
O77 S20 1.480746 1_555
O78 Si10 1.629351 1_555
O79 Si11 1.611910 1_555
O80 S16 1.476712 1_555
O81 S17 1.466970 1_555
O82 Si9 1.611088 1_555
O83 S15 1.491133 1_555
O84 S7 1.442650 1_555
O85 Si5 1.666141 1_555
O86 S8 1.494070 1_555
O87 S9 1.464663 1_555
O88 Si6 1.614141 1_555
O89 S10 1.501171 1_555
O90 Si7 1.671119 1_555
O91 S11 1.474052 1_555
O92 S12 1.505076 1_555
O93 Si8 1.631812 1_555
O94 S13 1.495085 1_555
O95 S14 1.488185 1_555
O96 S5 1.517865 1_545
O97 S6 1.476590 1_545
O98 S4 1.491971 1_555
O99 Si2 1.651539 1_555
O100 Si4 1.667327 1_555
O101 Si3 1.624980 1_655
O102 S1 1.471231 1_555
O103 S2 1.542152 1_555
O104 Si1 1.629835 1_555
O105 S3 1.525630 1_655
O106 Si0 1.636536 1_555
O107 S0 1.525434 1_555
O108 Si9 1.642032 1_555
O109 S15 1.519805 1_555
O110 Si11 1.648179 1_555
O111 Si10 1.650588 1_655
O112 S16 1.476009 1_545
O113 S17 1.519677 1_545
O114 S18 1.498054 1_545
O115 Si12 1.634392 1_545
O116 S19 1.491394 1_555
O117 S20 1.478439 1_555
O118 Si14 1.653276 1_555
O119 Si13 1.634386 1_655
O120 S13 1.499109 1_555
O121 S14 1.448442 1_555
O122 S11 1.467545 1_455
O123 Si7 1.600138 1_555
O124 S12 1.487192 1_565
O125 Si8 1.600959 1_565
O126 S8 1.459796 1_565
O127 S9 1.511654 1_565
O128 Si6 1.612622 1_555
O129 S10 1.488883 1_555
O130 Si5 1.599523 1_455
O131 S7 1.486675 1_555
O132 Si0 1.633715 1_565
O133 S0 1.457173 1_565
O134 S1 1.481068 1_555
O135 S2 1.446735 1_555
O136 S3 1.480416 1_555
O137 Si1 1.623575 1_555
O138 S4 1.460773 1_555
O139 Si2 1.622010 1_555
O140 Si3 1.618138 1_555
O141 Si4 1.612234 1_555
O142 S5 1.467107 1_555
O143 S6 1.441161 1_555
