# generated using pymatgen
data_LiMn2NiO6
_symmetry_space_group_name_H-M   'P 1'
_cell_length_a   5.04900018
_cell_length_b   5.04906524
_cell_length_c   10.42357366
_cell_angle_alpha   86.33280131
_cell_angle_beta   93.66216847
_cell_angle_gamma   120.76071514
_symmetry_Int_Tables_number   1
_chemical_formula_structural   LiMn2NiO6
_chemical_formula_sum   'Li2 Mn4 Ni2 O12'
_cell_volume   227.72263393
_cell_formula_units_Z   2
loop_
 _symmetry_equiv_pos_site_id
 _symmetry_equiv_pos_as_xyz
  1  'x, y, z'
loop_
 _atom_site_type_symbol
 _atom_site_label
 _atom_site_symmetry_multiplicity
 _atom_site_fract_x
 _atom_site_fract_y
 _atom_site_fract_z
 _atom_site_occupancy
  Li  Li0  1  0.34338300  0.84339700  0.24991300  1
  Li  Li1  1  0.65661800  0.15660300  0.75008600  1
  Mn  Mn0  1  0.16946100  0.83536300  0.50507300  1
  Mn  Mn1  1  0.33536200  0.66946400  0.99492000  1
  Mn  Mn2  1  0.66464200  0.33053800  0.00508400  1
  Mn  Mn3  1  0.83054200  0.16464600  0.49492700  1
  Ni  Ni0  1  0.49999500  0.49999700  0.49999900  1
  Ni  Ni1  1  0.99999900  0.00000100  0.00000100  1
  O  O0  1  0.51588800  0.85871400  0.60235600  1
  O  O1  1  0.64120400  0.98409300  0.10240600  1
  O  O2  1  0.35879700  0.01590600  0.89759400  1
  O  O3  1  0.83481200  0.47973600  0.59475900  1
  O  O4  1  0.48411100  0.14128300  0.39764200  1
  O  O5  1  0.82464300  0.83663200  0.40756200  1
  O  O6  1  0.02021000  0.66506100  0.09481800  1
  O  O7  1  0.97978900  0.33493800  0.90518000  1
  O  O8  1  0.66336000  0.67534000  0.90751300  1
  O  O9  1  0.17535600  0.16336600  0.59243700  1
  O  O10  1  0.33663900  0.32465800  0.09248700  1
  O  O11  1  0.16518700  0.52026300  0.40523900  1
loop_
_geom_bond_atom_site_label_1
_geom_bond_atom_site_label_2
_geom_bond_distance
_geom_bond_site_symmetry_2
Li0 O1 2.047626 1_555
Li0 O4 2.049765 1_565
Li0 O6 2.105493 1_555
Li0 O11 2.106972 1_555
Li1 O2 2.047633 1_555
Li1 O0 2.049781 1_545
Li1 O7 2.105480 1_555
Li1 O3 2.106977 1_555
Mn0 O4 1.913004 1_565
Mn0 O0 1.918157 1_555
Mn0 O9 1.926628 1_565
Mn0 O11 1.946362 1_555
Mn0 O3 1.958728 1_455
Mn0 O5 1.961808 1_455
Mn1 O1 1.913320 1_556
Mn1 O2 1.918209 1_565
Mn1 O8 1.926796 1_555
Mn1 O6 1.946595 1_556
Mn1 O7 1.958755 1_455
Mn1 O10 1.961983 1_556
Mn2 O2 1.913357 1_554
Mn2 O1 1.918197 1_545
Mn2 O10 1.926788 1_555
Mn2 O7 1.946617 1_554
Mn2 O6 1.958708 1_655
Mn2 O8 1.961996 1_554
Mn3 O0 1.913022 1_545
Mn3 O4 1.918161 1_555
Mn3 O5 1.926673 1_545
Mn3 O3 1.946316 1_555
Mn3 O11 1.958707 1_655
Mn3 O9 1.961810 1_655
Ni0 O9 1.909566 1_555
Ni0 O5 1.909589 1_555
Ni0 O11 1.947924 1_555
Ni0 O3 1.947952 1_555
Ni0 O0 2.124325 1_555
Ni0 O4 2.124331 1_555
Ni1 O10 1.910024 1_655
Ni1 O8 1.910041 1_544
Ni1 O6 1.948584 1_645
Ni1 O7 1.948587 1_554
Ni1 O1 2.124807 1_545
Ni1 O2 2.124838 1_654
