# generated using pymatgen
data_Na6Hf2Zn6SiS11O48
_symmetry_space_group_name_H-M   'P 1'
_cell_length_a   17.68789211
_cell_length_b   8.84959104
_cell_length_c   22.81052119
_cell_angle_alpha   90.22548003
_cell_angle_beta   89.78917051
_cell_angle_gamma   120.10156491
_symmetry_Int_Tables_number   1
_chemical_formula_structural   Na6Hf2Zn6SiS11O48
_chemical_formula_sum   'Na18 Hf6 Zn18 Si3 S33 O144'
_cell_volume   3088.98309866
_cell_formula_units_Z   3
loop_
 _symmetry_equiv_pos_site_id
 _symmetry_equiv_pos_as_xyz
  1  'x, y, z'
loop_
 _atom_site_type_symbol
 _atom_site_label
 _atom_site_symmetry_multiplicity
 _atom_site_fract_x
 _atom_site_fract_y
 _atom_site_fract_z
 _atom_site_occupancy
  Na  Na0  1  0.68647235  0.36417145  0.24566357  1
  Na  Na1  1  0.99657470  0.63299017  0.25279293  1
  Na  Na2  1  0.33453144  0.96504788  0.58759697  1
  Na  Na3  1  0.83524178  0.96569160  0.58759749  1
  Na  Na4  1  0.33409627  0.70035351  0.08262610  1
  Na  Na5  1  0.34707573  0.66519335  0.41545976  1
  Na  Na6  1  0.00423861  0.99853684  0.49766009  1
  Na  Na7  1  0.50667788  0.00884520  0.50053980  1
  Na  Na8  1  0.99986805  0.99930524  0.99898415  1
  Na  Na9  1  0.50604335  0.00930118  0.00256249  1
  Na  Na10  1  0.33364769  0.32763522  0.83768109  1
  Na  Na11  1  0.83319871  0.32763430  0.83778343  1
  Na  Na12  1  0.33045190  0.32533087  0.33125494  1
  Na  Na13  1  0.83636896  0.33678251  0.33421225  1
  Na  Na14  1  0.16793782  0.66892909  0.16628759  1
  Na  Na15  1  0.66786876  0.67162544  0.16007874  1
  Na  Na16  1  0.16771371  0.66766849  0.67214823  1
  Na  Na17  1  0.66847621  0.66827369  0.67253608  1
  Hf  Hf0  1  0.99578070  0.00295607  0.85230864  1
  Hf  Hf1  1  0.49658784  0.00373393  0.85264053  1
  Hf  Hf2  1  0.99489439  0.99501476  0.14819391  1
  Hf  Hf3  1  0.33407257  0.32828495  0.68916557  1
  Hf  Hf4  1  0.83414335  0.32868174  0.68875991  1
  Hf  Hf5  1  0.66995524  0.67295074  0.31455428  1
  Zn  Zn0  1  0.99842433  0.99069015  0.34999963  1
  Zn  Zn1  1  0.49880826  0.00246298  0.34801428  1
  Zn  Zn2  1  0.99739889  0.99718065  0.65462416  1
  Zn  Zn3  1  0.49785326  0.99748594  0.65521337  1
  Zn  Zn4  1  0.50233703  0.00401219  0.14814073  1
  Zn  Zn5  1  0.33403369  0.33472100  0.18161231  1
  Zn  Zn6  1  0.83300246  0.33797206  0.18085529  1
  Zn  Zn7  1  0.33494216  0.32988381  0.98294705  1
  Zn  Zn8  1  0.83062430  0.33052105  0.98329302  1
  Zn  Zn9  1  0.33003483  0.32520587  0.48337464  1
  Zn  Zn10  1  0.83684551  0.34157275  0.48136305  1
  Zn  Zn11  1  0.16318320  0.66971524  0.01374057  1
  Zn  Zn12  1  0.66643420  0.66493742  0.01569448  1
  Zn  Zn13  1  0.16019465  0.65789239  0.51377418  1
  Zn  Zn14  1  0.66448595  0.66045624  0.51661564  1
  Zn  Zn15  1  0.16868470  0.66503930  0.31849147  1
  Zn  Zn16  1  0.17326272  0.68004581  0.81543052  1
  Zn  Zn17  1  0.67396784  0.68073091  0.81592504  1
  Si  Si0  1  0.85473749  0.70413218  0.25199844  1
  Si  Si1  1  0.35011570  0.98822980  0.74721983  1
  Si  Si2  1  0.84983179  0.98871671  0.74708426  1
  S  S0  1  0.14847137  0.00444101  0.25081196  1
  S  S1  1  0.64394918  -0.00047967  0.25014874  1
  S  S2  1  0.35282266  0.70552608  0.25000488  1
  S  S3  1  0.00060438  0.29258279  0.25153464  1
  S  S4  1  0.49674596  0.28782478  0.25055603  1
  S  S5  1  0.14412734  0.29262091  0.74902513  1
  S  S6  1  0.64432956  0.29293493  0.74897125  1
  S  S7  1  0.00213988  0.71151208  0.74903399  1
  S  S8  1  0.50216541  0.71150994  0.74907883  1
  S  S9  1  0.48096957  0.33668741  0.58135847  1
  S  S10  1  0.98090715  0.33586884  0.58148749  1
  S  S11  1  0.18476683  0.04031880  0.58238210  1
  S  S12  1  0.68547096  0.04194239  0.58159303  1
  S  S13  1  0.33343527  0.62592807  0.58109815  1
  S  S14  1  0.83337756  0.62493935  0.58156406  1
  S  S15  1  0.48007186  0.62412000  0.08350320  1
  S  S16  1  0.98083461  0.62342685  0.08281941  1
  S  S17  1  0.33301115  0.04143406  0.08349373  1
  S  S18  1  0.83135445  0.04323689  0.08302351  1
  S  S19  1  0.18845028  0.33492627  0.08273675  1
  S  S20  1  0.68585288  0.33355704  0.08334076  1
  S  S21  1  0.31126409  0.66078499  0.91770315  1
  S  S22  1  0.81075295  0.66074667  0.91742950  1
  S  S23  1  0.02160352  0.38136154  0.91649738  1
  S  S24  1  0.52195641  0.38179293  0.91644087  1
  S  S25  1  0.16814671  0.96066718  0.91708016  1
  S  S26  1  0.66806926  0.95910723  0.91753756  1
  S  S27  1  0.31323791  0.96159165  0.41720269  1
  S  S28  1  0.81445809  0.96296734  0.41952911  1
  S  S29  1  0.16523703  0.37105491  0.41677389  1
  S  S30  1  0.66579184  0.37097569  0.41758475  1
  S  S31  1  0.02024298  0.66707328  0.41660234  1
  S  S32  1  0.51994731  0.66729938  0.41821276  1
  O  O0  1  0.10996890  0.03317508  0.30321970  1
  O  O1  1  0.60578556  0.03157441  0.30338296  1
  O  O2  1  0.40597402  0.78414047  0.30434768  1
  O  O3  1  0.91627087  0.78918542  0.30718961  1
  O  O4  1  0.48537689  0.18600351  0.30394590  1
  O  O5  1  0.98828690  0.18809467  0.30345226  1
  O  O6  1  0.10609130  0.17915188  0.80217194  1
  O  O7  1  0.60603857  0.17917550  0.80207681  1
  O  O8  1  0.48651431  0.79197970  0.80218948  1
  O  O9  1  0.98676075  0.79229484  0.80225041  1
  O  O10  1  0.41550708  0.02887263  0.80451108  1
  O  O11  1  0.91523548  0.02943843  0.80445542  1
  O  O12  1  0.39196085  0.96852516  0.68674014  1
  O  O13  1  0.89200811  0.96865287  0.68691319  1
  O  O14  1  0.09401949  0.21196783  0.69591310  1
  O  O15  1  0.59405755  0.21226543  0.69582125  1
  O  O16  1  0.01602951  0.81505321  0.69617745  1
  O  O17  1  0.51587682  0.81469051  0.69611906  1
  O  O18  1  0.39341105  0.81388412  0.19688441  1
  O  O19  1  0.89791796  0.82686917  0.19334959  1
  O  O20  1  0.01472435  0.20966675  0.19746853  1
  O  O21  1  0.51808754  0.21756004  0.19838148  1
  O  O22  1  0.09051307  0.97459495  0.19751826  1
  O  O23  1  0.59114878  0.96698517  0.19744709  1
  O  O24  1  0.43714195  0.36041249  0.63502402  1
  O  O25  1  0.93691126  0.36023297  0.63517729  1
  O  O26  1  0.24382913  0.12819520  0.63513789  1
  O  O27  1  0.74349079  0.12773054  0.63496804  1
  O  O28  1  0.32151455  0.51565752  0.63367622  1
  O  O29  1  0.82074006  0.51652022  0.63501794  1
  O  O30  1  0.44046780  0.51877653  0.13696324  1
  O  O31  1  0.94345076  0.52477511  0.13782470  1
  O  O32  1  0.31916191  0.11931436  0.13682232  1
  O  O33  1  0.82034618  0.12201775  0.13720253  1
  O  O34  1  0.24199146  0.36560382  0.13601350  1
  O  O35  1  0.73680507  0.36000194  0.13847013  1
  O  O36  1  0.22614375  0.30370342  0.02999575  1
  O  O37  1  0.72716679  0.30530709  0.03154669  1
  O  O38  1  0.42348495  0.54626154  0.03117559  1
  O  O39  1  0.92599552  0.54787578  0.03118758  1
  O  O40  1  0.34700032  0.14660604  0.03066122  1
  O  O41  1  0.84864852  0.15012258  0.03046693  1
  O  O42  1  0.22570258  0.14762402  0.53002989  1
  O  O43  1  0.72687335  0.14930654  0.52948783  1
  O  O44  1  0.34555569  0.54511313  0.52739575  1
  O  O45  1  0.84471237  0.54148436  0.52929022  1
  O  O46  1  0.42394606  0.30427222  0.52995750  1
  O  O47  1  0.92358752  0.30236113  0.53034081  1
  O  O48  1  0.27655191  0.69652400  0.97227445  1
  O  O49  1  0.77540335  0.69825766  0.97039845  1
  O  O50  1  0.07458253  0.45240380  0.97014225  1
  O  O51  1  0.57415249  0.45284217  0.96991272  1
  O  O52  1  0.15112086  0.85430711  0.97049847  1
  O  O53  1  0.65142089  0.85222030  0.97052313  1
  O  O54  1  0.27559399  0.85288992  0.47122656  1
  O  O55  1  0.77293475  0.85425020  0.47201474  1
  O  O56  1  0.15311897  0.45149121  0.47034859  1
  O  O57  1  0.65205421  0.45399844  0.46910464  1
  O  O58  1  0.07452151  0.69250874  0.46912389  1
  O  O59  1  0.57394154  0.69463593  0.46994495  1
  O  O60  1  0.05880157  0.63883344  0.36187443  1
  O  O61  1  0.56219758  0.64198643  0.36461109  1
  O  O62  1  0.25955587  0.88005777  0.36467707  1
  O  O63  1  0.75649777  0.87131220  0.36618624  1
  O  O64  1  0.18371325  0.48500185  0.36447130  1
  O  O65  1  0.67765389  0.48179524  0.36298268  1
  O  O66  1  0.06195791  0.48307890  0.86344106  1
  O  O67  1  0.56174465  0.48285273  0.86312847  1
  O  O68  1  0.18022804  0.88103401  0.86429197  1
  O  O69  1  0.68009771  0.88089499  0.86415569  1
  O  O70  1  0.25881411  0.63672867  0.86566538  1
  O  O71  1  0.75965752  0.63568467  0.86432478  1
  O  O72  1  0.01278104  0.82613660  0.41282670  1
  O  O73  1  0.50907825  0.82304353  0.41088441  1
  O  O74  1  0.40114306  0.97307888  0.41098353  1
  O  O75  1  0.90034650  0.97935181  0.41155208  1
  O  O76  1  0.08768463  0.19654364  0.40991747  1
  O  O77  1  0.58676807  0.19726539  0.40961801  1
  O  O78  1  0.01349730  0.19975088  0.91037893  1
  O  O79  1  0.51332698  0.19977797  0.91020430  1
  O  O80  1  0.08754132  0.97911253  0.90989718  1
  O  O81  1  0.58755567  0.97851939  0.90989710  1
  O  O82  1  0.40212560  0.82349352  0.91026167  1
  O  O83  1  0.90236166  0.82371167  0.91000748  1
  O  O84  1  0.48838124  0.17780442  0.58767688  1
  O  O85  1  0.98849187  0.17747127  0.58814766  1
  O  O86  1  0.09846133  0.02176054  0.59096279  1
  O  O87  1  0.59850480  0.02206844  0.59038806  1
  O  O88  1  0.41239248  0.80234962  0.58626957  1
  O  O89  1  0.91191867  0.80174644  0.58667839  1
  O  O90  1  0.48599853  0.80024425  0.08963724  1
  O  O91  1  0.99115568  0.80551044  0.09020829  1
  O  O92  1  0.41141237  0.01733708  0.08929581  1
  O  O93  1  0.91405848  0.02737432  0.08969422  1
  O  O94  1  0.09899989  0.17672634  0.09067495  1
  O  O95  1  0.59748602  0.17347045  0.08922696  1
  O  O96  1  0.34477021  0.17287107  0.74250316  1
  O  O97  1  0.84458007  0.17318468  0.74239712  1
  O  O98  1  0.23395279  0.31112078  0.74284546  1
  O  O99  1  0.73385590  0.31089236  0.74283849  1
  O  O100  1  0.41870876  0.53611485  0.74281025  1
  O  O101  1  0.91882355  0.53623695  0.74296326  1
  O  O102  1  0.34436546  0.52984700  0.24410339  1
  O  O103  1  0.84075637  0.50782110  0.24347573  1
  O  O104  1  0.42095033  0.31177672  0.24388233  1
  O  O105  1  0.92254144  0.31192275  0.24316019  1
  O  O106  1  0.23614487  0.15803712  0.24189870  1
  O  O107  1  0.73272998  0.15332224  0.24432764  1
  O  O108  1  0.32369422  0.50829680  0.92374703  1
  O  O109  1  0.82391465  0.50899974  0.92363941  1
  O  O110  1  0.43221337  0.35373750  0.92237698  1
  O  O111  1  0.93240057  0.35411624  0.92299746  1
  O  O112  1  0.24577509  0.13780121  0.92349850  1
  O  O113  1  0.74563010  0.13705638  0.92347589  1
  O  O114  1  0.32385476  0.13790946  0.42329775  1
  O  O115  1  0.81882270  0.13409719  0.42213376  1
  O  O116  1  0.24792433  0.36062713  0.42254858  1
  O  O117  1  0.74561844  0.35853928  0.42109575  1
  O  O118  1  0.43110815  0.50960086  0.42200152  1
  O  O119  1  0.93225439  0.50653300  0.42237652  1
  O  O120  1  0.17967062  0.49389843  0.07704952  1
  O  O121  1  0.67736981  0.49211082  0.07737327  1
  O  O122  1  0.06954474  0.64673792  0.07699164  1
  O  O123  1  0.56811947  0.64544397  0.07700273  1
  O  O124  1  0.25483779  0.85996438  0.07786063  1
  O  O125  1  0.75549292  0.86483992  0.07752720  1
  O  O126  1  0.18174199  0.86889067  0.57811089  1
  O  O127  1  0.68144472  0.86901008  0.57783752  1
  O  O128  1  0.25471618  0.64648248  0.57725375  1
  O  O129  1  0.75436935  0.64611593  0.57767210  1
  O  O130  1  0.06738719  0.49545624  0.57772431  1
  O  O131  1  0.56736475  0.49569510  0.57725024  1
  O  O132  1  0.15184823  0.83866947  0.25430440  1
  O  O133  1  0.65256811  0.83910947  0.25874387  1
  O  O134  1  0.26501884  0.68964607  0.25638969  1
  O  O135  1  0.75477681  0.67942123  0.25723218  1
  O  O136  1  0.07932288  0.47238994  0.25446206  1
  O  O137  1  0.57918187  0.46782409  0.25898615  1
  O  O138  1  0.15364708  0.46446848  0.75752892  1
  O  O139  1  0.65353694  0.46448655  0.75745778  1
  O  O140  1  0.07547714  0.68221709  0.75713031  1
  O  O141  1  0.57534917  0.68196660  0.75713233  1
  O  O142  1  0.25412239  0.82339444  0.75511934  1
  O  O143  1  0.75395670  0.82352205  0.75509646  1
loop_
_geom_bond_atom_site_label_1
_geom_bond_atom_site_label_2
_geom_bond_distance
_geom_bond_site_symmetry_2
Na0 O103 2.363355 1_555
Na0 O107 2.383869 1_555
Na0 O135 2.434767 1_555
Na0 O137 2.504967 1_555
Na0 O35 2.605548 1_555
Na0 O21 2.802460 1_555
Na0 O1 2.869964 1_555
Na0 O65 2.899531 1_555
Na1 O103 2.410063 1_555
Na1 O132 2.417251 1_655
Na1 O105 2.470067 1_555
Na1 O136 2.500210 1_655
Na1 O60 2.714286 1_655
Na1 O3 2.722272 1_555
Na1 O31 2.788050 1_555
Na1 O22 2.909568 1_655
Na2 O126 2.402218 1_555
Na2 O84 2.410595 1_565
Na2 O88 2.441105 1_555
Na2 O128 2.449791 1_555
Na2 O12 2.476333 1_555
Na2 O54 2.842511 1_555
Na2 O26 2.851788 1_565
Na2 O46 2.914676 1_565
Na3 O85 2.400962 1_565
Na3 O127 2.418717 1_555
Na3 O89 2.432720 1_555
Na3 O129 2.456650 1_555
Na3 O13 2.476079 1_555
Na3 O55 2.837083 1_555
Na3 O27 2.857768 1_565
Na3 O47 2.893093 1_565
Na4 O90 2.376069 1_555
Na4 O120 2.410410 1_555
Na4 O92 2.431569 1_565
Na4 O124 2.441498 1_555
Na4 O48 2.712363 1_554
Na4 O18 2.800910 1_555
Na4 O38 2.805924 1_555
Na4 O34 2.843544 1_555
Na5 O116 2.371994 1_555
Na5 O74 2.395113 1_555
Na5 O73 2.481347 1_555
Na5 O118 2.486684 1_555
Na5 O2 2.742034 1_555
Na5 O64 2.762836 1_555
Na5 O44 2.764344 1_555
Na5 O54 2.837948 1_555
Na6 O72 2.510167 1_555
Na6 O76 2.581942 1_565
Na6 O89 2.640727 1_455
Na6 O75 2.640959 1_455
Na6 O86 2.651128 1_565
Na6 O85 2.694042 1_465
Na7 O87 2.585372 1_555
Na7 O77 2.593215 1_555
Na7 O84 2.597768 1_555
Na7 O88 2.625260 1_545
Na7 O73 2.632626 1_545
Na7 O74 2.681076 1_545
Na8 O80 2.611169 1_655
Na8 O83 2.611743 1_555
Na8 O78 2.623998 1_665
Na8 O93 2.645329 1_566
Na8 O91 2.656245 1_556
Na8 O94 2.674661 1_666
Na9 O95 2.505721 1_555
Na9 O92 2.610527 1_555
Na9 O90 2.619029 1_545
Na9 O81 2.643455 1_544
Na9 O79 2.665418 1_554
Na9 O82 2.735825 1_544
Na10 O110 2.538237 1_555
Na10 O112 2.540542 1_555
Na10 O108 2.587736 1_555
Na10 O96 2.621398 1_555
Na10 O100 2.752051 1_555
Na10 O98 2.752752 1_555
Na11 O113 2.539230 1_555
Na11 O111 2.553644 1_555
Na11 O109 2.583738 1_555
Na11 O97 2.625307 1_555
Na11 O99 2.750339 1_555
Na11 O101 2.753662 1_555
Na12 O106 2.579338 1_555
Na12 O104 2.591535 1_555
Na12 O102 2.620347 1_555
Na12 O116 2.644786 1_555
Na12 O114 2.646533 1_555
Na12 O118 2.683686 1_555
Na13 O103 2.546876 1_555
Na13 O119 2.573569 1_555
Na13 O115 2.607898 1_555
Na13 O117 2.612479 1_555
Na13 O105 2.644763 1_555
Na13 O107 2.686311 1_555
Na14 O124 2.585870 1_555
Na14 O132 2.601760 1_555
Na14 O136 2.607114 1_555
Na14 O120 2.623044 1_555
Na14 O122 2.626112 1_555
Na14 O134 2.629378 1_555
Na15 O125 2.493448 1_555
Na15 O121 2.520506 1_555
Na15 O123 2.523645 1_555
Na15 O135 2.682627 1_555
Na15 O133 2.776129 1_555
Na15 O137 2.823437 1_555
Na16 O142 2.388547 1_555
Na16 O140 2.573219 1_555
Na16 O138 2.581440 1_555
Na16 O128 2.711180 1_555
Na16 O130 2.720355 1_555
Na16 O126 2.723365 1_555
Na17 O143 2.374272 1_555
Na17 O139 2.572995 1_555
Na17 O141 2.574235 1_555
Na17 O129 2.701919 1_555
Na17 O127 2.737205 1_555
Na17 O131 2.741882 1_555
Hf0 O11 1.903808 1_555
Hf0 O78 2.079251 1_655
Hf0 O83 2.085681 1_545
Hf0 O9 2.119201 1_545
Hf0 O6 2.119471 1_655
Hf0 O80 2.183077 1_645
Hf1 O10 1.909215 1_555
Hf1 O79 2.071565 1_555
Hf1 O82 2.095363 1_545
Hf1 O7 2.114577 1_555
Hf1 O8 2.125413 1_545
Hf1 O81 2.173116 1_545
Hf2 O19 1.912133 1_555
Hf2 O20 2.076666 1_665
Hf2 O93 2.082016 1_565
Hf2 O91 2.106716 1_555
Hf2 O22 2.116880 1_655
Hf2 O94 2.174107 1_665
Hf3 O96 1.919258 1_555
Hf3 O100 2.086891 1_555
Hf3 O26 2.089097 1_555
Hf3 O98 2.091457 1_555
Hf3 O24 2.096651 1_555
Hf3 O28 2.188380 1_555
Hf4 O97 1.922068 1_555
Hf4 O25 2.086454 1_555
Hf4 O27 2.091936 1_555
Hf4 O101 2.093338 1_555
Hf4 O99 2.097234 1_555
Hf4 O29 2.176164 1_555
Hf5 O135 1.965676 1_555
Hf5 O63 2.028161 1_555
Hf5 O65 2.085043 1_555
Hf5 O133 2.085350 1_555
Hf5 O61 2.115245 1_555
Hf5 O137 2.133812 1_555
O0 S0 1.457010 1_555
O0 Zn0 2.101495 1_445
O1 S1 1.481212 1_555
O1 Zn1 2.045035 1_555
O2 S2 1.500054 1_555
O2 Zn1 2.058138 1_565
O3 Si0 1.586493 1_555
O3 Zn0 1.908561 1_555
O4 S4 1.469903 1_555
O4 Zn1 2.026524 1_555
O5 S3 1.452456 1_655
O5 Zn0 2.131090 1_545
O6 S5 1.502190 1_555
O7 S6 1.503078 1_555
O8 S8 1.496641 1_555
O9 S7 1.498137 1_655
O10 Si1 1.662873 1_545
O11 Si2 1.664343 1_545
O12 Si1 1.612920 1_555
O12 Zn3 1.897645 1_555
O13 Si2 1.610999 1_555
O13 Zn2 1.897506 1_555
O14 S5 1.459209 1_555
O14 Zn2 2.039620 1_445
O15 S6 1.461016 1_555
O15 Zn3 2.029728 1_545
O16 S7 1.460940 1_555
O16 Zn2 2.037609 1_455
O17 S8 1.461621 1_555
O17 Zn3 2.029895 1_555
O18 S2 1.488414 1_555
O18 Zn4 2.127578 1_565
O19 Si0 1.650648 1_555
O20 S3 1.515323 1_555
O21 S4 1.473727 1_555
O21 Zn4 2.102274 1_555
O22 S0 1.527606 1_565
O23 S1 1.461542 1_565
O23 Zn4 2.090994 1_565
O24 S9 1.515855 1_555
O25 S10 1.520249 1_555
O26 S11 1.526845 1_555
O27 S12 1.527188 1_555
O28 S13 1.495359 1_555
O29 S14 1.499777 1_555
O30 S15 1.481374 1_555
O30 Zn5 2.039024 1_555
O31 S16 1.482279 1_555
O31 Zn6 2.066887 1_555
O32 S17 1.474900 1_555
O32 Zn5 2.056825 1_555
O33 S18 1.476115 1_555
O33 Zn6 2.061910 1_555
O34 S19 1.481699 1_555
O34 Zn5 2.065930 1_555
O35 S20 1.497612 1_555
O35 Zn6 2.052875 1_555
O36 S19 1.464396 1_555
O36 Zn7 2.109111 1_554
O37 S20 1.472039 1_555
O37 Zn8 2.046349 1_554
O38 S15 1.487227 1_555
O38 Zn7 2.077903 1_554
O39 S16 1.458314 1_555
O39 Zn8 2.116926 1_554
O40 S17 1.468151 1_555
O40 Zn7 2.055075 1_554
O41 S18 1.463389 1_555
O41 Zn8 2.082014 1_554
O42 S11 1.471383 1_555
O42 Zn9 2.024237 1_555
O43 S12 1.468411 1_555
O43 Zn10 2.136106 1_555
O44 S13 1.484245 1_555
O44 Zn9 2.078866 1_555
O45 S14 1.465359 1_555
O45 Zn10 2.020731 1_555
O46 S9 1.479920 1_555
O46 Zn9 2.060540 1_555
O47 S10 1.476962 1_555
O47 Zn10 2.066954 1_555
O48 S21 1.487480 1_555
O48 Zn11 2.117214 1_556
O49 S22 1.469861 1_555
O49 Zn12 2.070547 1_556
O50 S23 1.477222 1_555
O50 Zn11 2.028974 1_556
O51 S24 1.468128 1_555
O51 Zn12 2.049844 1_556
O52 S25 1.477624 1_555
O52 Zn11 2.012664 1_556
O53 S26 1.472825 1_555
O53 Zn12 2.082314 1_556
O54 S27 1.499376 1_555
O54 Zn13 2.133454 1_555
O55 S28 1.480615 1_555
O55 Zn14 2.086955 1_555
O56 S29 1.479986 1_555
O56 Zn13 2.022519 1_555
O57 S30 1.466328 1_555
O57 Zn14 2.035736 1_555
O58 S31 1.482326 1_555
O58 Zn13 1.976615 1_555
O59 S32 1.461992 1_555
O59 Zn14 2.071414 1_555
O60 S31 1.499429 1_555
O60 Zn15 2.084749 1_555
O61 S32 1.504213 1_555
O62 S27 1.473802 1_555
O62 Zn15 2.059847 1_555
O63 S28 1.535184 1_555
O64 S29 1.490989 1_555
O64 Zn15 2.036957 1_555
O65 S30 1.535701 1_555
O66 S23 1.463620 1_555
O66 Zn16 2.161151 1_555
O67 S24 1.464552 1_555
O67 Zn17 2.162981 1_555
O68 S25 1.461061 1_555
O68 Zn16 2.046132 1_555
O69 S26 1.464998 1_555
O69 Zn17 2.037833 1_555
O70 S21 1.457052 1_555
O70 Zn16 2.085167 1_555
O71 S22 1.462270 1_555
O71 Zn17 2.072891 1_555
O72 S31 1.481115 1_555
O72 Zn0 2.151501 1_455
O73 S32 1.494113 1_555
O73 Zn1 2.218078 1_565
O74 S27 1.512608 1_555
O74 Zn1 2.156170 1_565
O75 S28 1.462627 1_555
O75 Zn0 2.190772 1_555
O76 S29 1.471694 1_555
O76 Zn0 2.188757 1_445
O77 S30 1.481315 1_555
O77 Zn1 2.161895 1_555
O78 S23 1.546059 1_555
O79 S24 1.545904 1_555
O80 S25 1.523679 1_555
O81 S26 1.528219 1_555
O82 S21 1.537445 1_555
O83 S22 1.545961 1_555
O84 S9 1.483766 1_555
O84 Zn3 2.288485 1_545
O85 S10 1.482043 1_555
O85 Zn2 2.267759 1_545
O86 S11 1.463642 1_555
O86 Zn2 2.223702 1_445
O87 S12 1.471062 1_555
O87 Zn3 2.235635 1_545
O88 S13 1.488132 1_555
O88 Zn3 2.262308 1_555
O89 S14 1.486996 1_555
O89 Zn2 2.247785 1_555
O90 S15 1.514723 1_555
O90 Zn4 2.139467 1_565
O91 S16 1.536636 1_555
O92 S17 1.511382 1_555
O92 Zn4 2.146977 1_555
O93 S18 1.546159 1_555
O94 S19 1.508025 1_555
O95 S20 1.498977 1_555
O95 Zn4 2.086839 1_555
O96 Si1 1.687275 1_545
O97 Si2 1.684803 1_545
O98 S5 1.519424 1_555
O99 S6 1.516088 1_555
O100 S8 1.519959 1_555
O101 S7 1.517836 1_655
O102 S2 1.490897 1_555
O102 Zn5 2.170971 1_555
O103 Si0 1.638238 1_555
O103 Zn6 2.023908 1_555
O104 S4 1.467068 1_555
O104 Zn5 2.180314 1_555
O105 S3 1.487128 1_655
O105 Zn6 2.228590 1_555
O106 S0 1.476240 1_555
O106 Zn5 2.148861 1_555
O107 S1 1.480582 1_555
O107 Zn6 2.237128 1_555
O108 S21 1.479080 1_555
O108 Zn7 2.165602 1_555
O109 S22 1.480867 1_555
O109 Zn8 2.136938 1_555
O110 S24 1.484274 1_555
O110 Zn7 2.129358 1_555
O111 S23 1.478707 1_655
O111 Zn8 2.187004 1_555
O112 S25 1.484830 1_545
O112 Zn7 2.127032 1_555
O113 S26 1.487612 1_545
O113 Zn8 2.113768 1_555
O114 S27 1.481157 1_545
O114 Zn9 2.106818 1_555
O115 S28 1.478187 1_545
O115 Zn10 2.166718 1_555
O116 S29 1.517187 1_555
O116 Zn9 2.146535 1_555
O117 S30 1.472734 1_555
O117 Zn10 2.185669 1_555
O118 S32 1.491496 1_555
O118 Zn9 2.211815 1_555
O119 S31 1.496671 1_655
O119 Zn10 2.077751 1_555
O120 S19 1.496953 1_555
O120 Zn11 2.251060 1_555
O121 S20 1.490863 1_555
O121 Zn12 2.161421 1_555
O122 S16 1.481986 1_455
O122 Zn11 2.124409 1_555
O123 S15 1.478766 1_555
O123 Zn12 2.166248 1_555
O124 S17 1.509888 1_565
O124 Zn11 2.205059 1_555
O125 S18 1.477642 1_565
O125 Zn12 2.191295 1_555
O126 S11 1.493757 1_565
O126 Zn13 2.248176 1_555
O127 S12 1.498054 1_565
O127 Zn14 2.207708 1_555
O128 S13 1.494843 1_555
O128 Zn13 2.256194 1_555
O129 S14 1.503236 1_555
O129 Zn14 2.168752 1_555
O130 S10 1.474720 1_455
O130 Zn13 2.126250 1_555
O131 S9 1.472123 1_555
O131 Zn14 2.115645 1_555
O132 S0 1.500294 1_565
O132 Zn15 2.252400 1_555
O133 S1 1.515371 1_565
O134 S2 1.494169 1_555
O134 Zn15 2.137759 1_555
O135 Si0 1.673035 1_555
O136 S3 1.500869 1_555
O136 Zn15 2.198295 1_555
O137 S4 1.539591 1_555
O138 S5 1.455957 1_555
O138 Zn16 2.196357 1_555
O139 S6 1.455584 1_555
O139 Zn17 2.204811 1_555
O140 S7 1.457210 1_555
O140 Zn16 2.193387 1_555
O141 S8 1.455797 1_555
O141 Zn17 2.208595 1_555
O142 Si1 1.599593 1_555
O142 Zn16 1.930497 1_555
O143 Si2 1.599836 1_555
O143 Zn17 1.931273 1_555
