# generated using pymatgen
data_HfSnP2SO12
_symmetry_space_group_name_H-M   'P 1'
_cell_length_a   8.81823808
_cell_length_b   8.82373097
_cell_length_c   22.86155621
_cell_angle_alpha   90.14209334
_cell_angle_beta   89.96050403
_cell_angle_gamma   119.89985640
_symmetry_Int_Tables_number   1
_chemical_formula_structural   HfSnP2SO12
_chemical_formula_sum   'Hf6 Sn6 P12 S6 O72'
_cell_volume   1542.07837287
_cell_formula_units_Z   6
loop_
 _symmetry_equiv_pos_site_id
 _symmetry_equiv_pos_as_xyz
  1  'x, y, z'
loop_
 _atom_site_type_symbol
 _atom_site_label
 _atom_site_symmetry_multiplicity
 _atom_site_fract_x
 _atom_site_fract_y
 _atom_site_fract_z
 _atom_site_occupancy
  Hf  Hf0  1  0.00332408  0.00392739  0.85588598  1
  Hf  Hf1  1  0.66888023  0.33448054  0.19015466  1
  Hf  Hf2  1  0.65893407  0.33926159  0.97800654  1
  Hf  Hf3  1  0.33283653  0.66937430  0.02339196  1
  Hf  Hf4  1  0.33549189  0.66852008  0.52279724  1
  Hf  Hf5  1  0.34666722  0.67188286  0.80994844  1
  Sn  Sn0  1  0.99942471  0.00083243  0.35483405  1
  Sn  Sn1  1  0.99201024  0.00365861  0.64572414  1
  Sn  Sn2  1  0.01273396  0.00508385  0.14609376  1
  Sn  Sn3  1  0.66664254  0.33498278  0.68774393  1
  Sn  Sn4  1  0.67998379  0.33825377  0.47882462  1
  Sn  Sn5  1  0.32525474  0.67137578  0.31318544  1
  P  P0  1  0.28770286  0.99920739  0.25115719  1
  P  P1  1  0.00450445  0.28867186  0.25093501  1
  P  P2  1  0.28904358  0.28580988  0.74867966  1
  P  P3  1  0.71442354  0.00629316  0.74948400  1
  P  P4  1  0.95460941  0.33282078  0.58424329  1
  P  P5  1  0.67041442  0.62158195  0.58386115  1
  P  P6  1  0.95246365  0.62389404  0.08427885  1
  P  P7  1  0.37697122  0.33272822  0.08446393  1
  P  P8  1  0.62207092  0.66985143  0.91695095  1
  P  P9  1  0.33425330  0.95344921  0.91658248  1
  P  P10  1  0.62255257  0.95641005  0.41640149  1
  P  P11  1  0.04377151  0.66944950  0.41687373  1
  S  S0  1  0.70779124  0.71224713  0.25024124  1
  S  S1  1  -0.00035595  0.71097979  0.74933268  1
  S  S2  1  0.37500503  0.04577886  0.58330966  1
  S  S3  1  0.67117324  0.04576151  0.08390077  1
  S  S4  1  0.04460922  0.38007741  0.91664385  1
  S  S5  1  0.33552348  0.37708542  0.41661408  1
  O  O0  1  0.20823512  0.03512802  0.30593279  1
  O  O1  1  0.81836968  0.78569352  0.30291634  1
  O  O2  1  0.96560549  0.17270643  0.30561282  1
  O  O3  1  0.20235133  0.17023506  0.80258058  1
  O  O4  1  0.96986876  0.79268914  0.80127710  1
  O  O5  1  0.82877817  0.03218827  0.80325944  1
  O  O6  1  0.78639127  0.96232942  0.69444200  1
  O  O7  1  0.17651712  0.20566305  0.69321123  1
  O  O8  1  0.03365479  0.81892045  0.69601058  1
  O  O9  1  0.78398128  0.82099514  0.19735480  1
  O  O10  1  0.03386371  0.20658931  0.19526373  1
  O  O11  1  0.17162241  0.95939038  0.19634625  1
  O  O12  1  0.87533240  0.36861945  0.63909553  1
  O  O13  1  0.48507535  0.11891421  0.63610606  1
  O  O14  1  0.63179369  0.50636212  0.63871992  1
  O  O15  1  0.86775160  0.50776186  0.13823925  1
  O  O16  1  0.63948370  0.12456066  0.13627248  1
  O  O17  1  0.49232104  0.36040617  0.13817804  1
  O  O18  1  0.46241442  0.30151363  0.03005785  1
  O  O19  1  0.83974472  0.53508399  0.02974886  1
  O  O20  1  0.69919467  0.15328577  0.03146976  1
  O  O21  1  0.45138562  0.15473721  0.53048139  1
  O  O22  1  0.70005096  0.53907624  0.52838968  1
  O  O23  1  0.83805551  0.29288164  0.52952961  1
  O  O24  1  0.53499481  0.69633323  0.97097592  1
  O  O25  1  0.15470490  0.45858593  0.96904550  1
  O  O26  1  0.30393561  0.83860490  0.97080673  1
  O  O27  1  0.53527007  0.83954448  0.47006782  1
  O  O28  1  0.30577177  0.45910538  0.46851005  1
  O  O29  1  0.15998674  0.69628596  0.47040574  1
  O  O30  1  0.11868537  0.62880953  0.36163390  1
  O  O31  1  0.51097404  0.87486588  0.36062308  1
  O  O32  1  0.36833151  0.48478885  0.36322511  1
  O  O33  1  0.12348765  0.48724482  0.86416184  1
  O  O34  1  0.35915413  0.86504548  0.86218018  1
  O  O35  1  0.50553045  0.63570273  0.86258413  1
  O  O36  1  0.02677354  0.83350720  0.40854375  1
  O  O37  1  0.80501540  0.97526252  0.40864051  1
  O  O38  1  0.17726685  0.20385129  0.41041291  1
  O  O39  1  0.02699826  0.20554758  0.90891386  1
  O  O40  1  0.17340206  0.97508560  0.90668941  1
  O  O41  1  0.80293612  0.82901550  0.90626082  1
  O  O42  1  0.97669937  0.17136150  0.59059498  1
  O  O43  1  0.19945623  0.02409377  0.59134462  1
  O  O44  1  0.83473838  0.80246304  0.59217896  1
  O  O45  1  0.96853558  0.80506680  0.09220361  1
  O  O46  1  0.82527822  0.02396587  0.09187043  1
  O  O47  1  0.19385774  0.17029482  0.08994796  1
  O  O48  1  0.69392849  0.16789637  0.74139570  1
  O  O49  1  0.47211146  0.30632918  0.74143881  1
  O  O50  1  0.84190199  0.53725445  0.74328198  1
  O  O51  1  0.69098634  0.53869087  0.24203263  1
  O  O52  1  0.84306904  0.30886453  0.24062285  1
  O  O53  1  0.46771218  0.16059365  0.24049980  1
  O  O54  1  0.64286020  0.50768561  0.92505456  1
  O  O55  1  0.86977336  0.35749221  0.92570146  1
  O  O56  1  0.49669027  0.13363551  0.92671290  1
  O  O57  1  0.63752055  0.13732376  0.42515503  1
  O  O58  1  0.49039429  0.35623244  0.42490346  1
  O  O59  1  0.86040028  0.50715631  0.42345775  1
  O  O60  1  0.35810348  0.49409213  0.07368604  1
  O  O61  1  0.13435226  0.64417499  0.07415931  1
  O  O62  1  0.51443080  0.87179774  0.07614898  1
  O  O63  1  0.35814507  0.87204840  0.57510114  1
  O  O64  1  0.50904528  0.64219560  0.57353811  1
  O  O65  1  0.13468908  0.49447259  0.57342852  1
  O  O66  1  0.31006022  0.83770763  0.25744315  1
  O  O67  1  0.53222673  0.69080859  0.25838303  1
  O  O68  1  0.16887761  0.46976330  0.25924589  1
  O  O69  1  0.30550263  0.46572193  0.75908237  1
  O  O70  1  0.15304544  0.68980223  0.75831120  1
  O  O71  1  0.53183364  0.84436459  0.75835265  1
loop_
_geom_bond_atom_site_label_1
_geom_bond_atom_site_label_2
_geom_bond_distance
_geom_bond_site_symmetry_2
Hf0 O40 2.011836 1_545
Hf0 O41 2.029249 1_445
Hf0 O3 2.038878 1_555
Hf0 O5 2.065306 1_455
Hf0 O39 2.073070 1_555
Hf0 O4 2.135545 1_445
Hf1 O52 2.022768 1_555
Hf1 O53 2.029324 1_555
Hf1 O15 2.038327 1_555
Hf1 O17 2.060913 1_555
Hf1 O51 2.081101 1_555
Hf1 O16 2.127429 1_555
Hf2 O54 1.978208 1_555
Hf2 O18 1.988412 1_556
Hf2 O56 2.029238 1_555
Hf2 O19 2.042764 1_556
Hf2 O55 2.147606 1_555
Hf2 O20 2.214545 1_556
Hf3 O61 2.017535 1_555
Hf3 O60 2.028923 1_555
Hf3 O26 2.031921 1_554
Hf3 O24 2.060626 1_554
Hf3 O62 2.085590 1_555
Hf3 O25 2.132827 1_554
Hf4 O64 2.024850 1_555
Hf4 O65 2.031911 1_555
Hf4 O27 2.046866 1_555
Hf4 O29 2.066851 1_555
Hf4 O63 2.080125 1_555
Hf4 O28 2.128307 1_555
Hf5 O71 1.975478 1_555
Hf5 O35 1.990611 1_555
Hf5 O69 2.031001 1_555
Hf5 O34 2.036174 1_555
Hf5 O70 2.146317 1_555
Hf5 O33 2.207634 1_555
O0 P0 1.542055 1_545
O0 Sn0 2.043343 1_455
O1 S0 1.479437 1_555
O1 Sn0 2.128682 1_565
O2 P1 1.543720 1_655
O2 Sn0 2.028547 1_555
O3 P2 1.539662 1_555
O4 S1 1.477511 1_655
O5 P3 1.533328 1_555
O6 P3 1.542269 1_565
O6 Sn1 2.000287 1_565
O7 P2 1.546121 1_555
O7 Sn1 2.025938 1_455
O8 S1 1.484447 1_555
O8 Sn1 2.172634 1_465
O9 S0 1.481855 1_555
O9 Sn2 2.195548 1_665
O10 P1 1.547051 1_555
O10 Sn2 2.029728 1_555
O11 P0 1.543519 1_555
O11 Sn2 2.003312 1_565
O12 P4 1.542081 1_555
O12 Sn3 2.041060 1_555
O13 S2 1.479428 1_555
O13 Sn3 2.130765 1_555
O14 P5 1.543713 1_555
O14 Sn3 2.027190 1_555
O15 P6 1.540043 1_555
O16 S3 1.477897 1_555
O17 P7 1.534545 1_555
O18 P7 1.547425 1_555
O19 P6 1.541590 1_555
O20 S3 1.472919 1_555
O21 S2 1.481775 1_555
O21 Sn4 2.198231 1_555
O22 P5 1.546345 1_555
O22 Sn4 2.032979 1_555
O23 P4 1.543905 1_555
O23 Sn4 2.001975 1_555
O24 P8 1.531603 1_555
O25 S4 1.478032 1_555
O26 P9 1.539732 1_555
O27 P10 1.541014 1_555
O28 S5 1.478112 1_555
O29 P11 1.537016 1_555
O30 P11 1.546806 1_555
O30 Sn5 2.000798 1_555
O31 P10 1.550251 1_555
O31 Sn5 2.035518 1_555
O32 S5 1.485856 1_555
O32 Sn5 2.190217 1_555
O33 S4 1.471837 1_555
O34 P9 1.539193 1_555
O35 P8 1.543674 1_555
O36 P11 1.540135 1_555
O36 Sn0 2.027342 1_465
O37 P10 1.543031 1_555
O37 Sn0 2.028764 1_565
O38 S5 1.475345 1_555
O38 Sn0 2.115082 1_455
O39 S4 1.478923 1_555
O40 P9 1.539533 1_555
O41 P8 1.530978 1_555
O42 P4 1.538333 1_555
O42 Sn1 2.001264 1_555
O43 S2 1.473509 1_555
O43 Sn1 2.143258 1_455
O44 P5 1.541556 1_555
O44 Sn1 2.027430 1_565
O45 P6 1.543118 1_555
O45 Sn2 2.022056 1_665
O46 S3 1.475791 1_555
O46 Sn2 2.139012 1_655
O47 P7 1.539684 1_555
O47 Sn2 2.002217 1_555
O48 P3 1.535726 1_555
O48 Sn3 2.024607 1_555
O49 P2 1.540988 1_555
O49 Sn3 2.019828 1_555
O50 S1 1.475542 1_655
O50 Sn3 2.104175 1_555
O51 S0 1.474709 1_555
O52 P1 1.538649 1_655
O53 P0 1.534448 1_545
O54 P8 1.542178 1_555
O55 S4 1.467316 1_655
O56 P9 1.536679 1_545
O57 P10 1.547301 1_545
O57 Sn4 2.029039 1_555
O58 S5 1.478489 1_555
O58 Sn4 2.146640 1_555
O59 P11 1.542800 1_655
O59 Sn4 1.999286 1_555
O60 P7 1.534167 1_555
O61 P6 1.540030 1_455
O62 S3 1.477109 1_565
O63 S2 1.476025 1_565
O64 P5 1.540261 1_555
O65 P4 1.536351 1_455
O66 P0 1.539930 1_555
O66 Sn5 2.000388 1_555
O67 S0 1.474808 1_555
O67 Sn5 2.148507 1_555
O68 P1 1.542773 1_555
O68 Sn5 2.032902 1_555
O69 P2 1.538256 1_555
O70 S1 1.469529 1_555
O71 P3 1.543535 1_565
