# generated using pymatgen
data_Mn3Si
_symmetry_space_group_name_H-M   'P 1'
_cell_length_a   3.99079508
_cell_length_b   3.99079560
_cell_length_c   3.99079408
_cell_angle_alpha   59.99999526
_cell_angle_beta   59.99999089
_cell_angle_gamma   59.99999332
_symmetry_Int_Tables_number   1
_chemical_formula_structural   Mn3Si
_chemical_formula_sum   'Mn3 Si1'
_cell_volume   44.94311460
_cell_formula_units_Z   1
loop_
 _symmetry_equiv_pos_site_id
 _symmetry_equiv_pos_as_xyz
  1  'x, y, z'
loop_
 _atom_site_type_symbol
 _atom_site_label
 _atom_site_symmetry_multiplicity
 _atom_site_fract_x
 _atom_site_fract_y
 _atom_site_fract_z
 _atom_site_occupancy
  Mn  Mn0  1  0.25000000  0.25000000  0.25000000  1
  Mn  Mn1  1  0.75000000  0.75000000  0.75000000  1
  Mn  Mn2  1  0.50000000  0.50000000  0.50000000  1
  Si  Si0  1  0.00000000  -0.00000000  -0.00000000  1
loop_
_geom_bond_atom_site_label_1
_geom_bond_atom_site_label_2
_geom_bond_distance
_geom_bond_site_symmetry_2
Mn0 Si0 2.443852 1_556
Mn0 Mn2 2.443852 1_554
Mn0 Mn2 2.443853 1_455
Mn0 Si0 2.443853 1_655
Mn0 Si0 2.443853 1_555
Mn0 Mn2 2.443853 1_555
Mn0 Mn2 2.443853 1_545
Mn0 Si0 2.443853 1_565
Mn1 Si0 2.443852 1_665
Mn1 Mn2 2.443852 1_556
Mn1 Mn2 2.443853 1_655
Mn1 Si0 2.443853 1_566
Mn1 Si0 2.443853 1_666
Mn1 Mn2 2.443853 1_555
Mn1 Si0 2.443853 1_656
Mn1 Mn2 2.443853 1_565
Mn2 Si0 2.821918 1_655
Mn2 Si0 2.821918 1_566
Mn2 Si0 2.821918 1_656
Mn2 Si0 2.821918 1_565
Mn2 Si0 2.821918 1_665
Mn2 Si0 2.821918 1_556
