# generated using pymatgen
data_Na7MgIn3Si3(SO8)3
_symmetry_space_group_name_H-M   'P 1'
_cell_length_a   9.23821896
_cell_length_b   9.21699573
_cell_length_c   22.58303408
_cell_angle_alpha   90.33190726
_cell_angle_beta   89.96898060
_cell_angle_gamma   119.79934868
_symmetry_Int_Tables_number   1
_chemical_formula_structural   Na7MgIn3Si3(SO8)3
_chemical_formula_sum   'Na21 Mg3 In9 Si9 S9 O72'
_cell_volume   1668.61540638
_cell_formula_units_Z   3
loop_
 _symmetry_equiv_pos_site_id
 _symmetry_equiv_pos_as_xyz
  1  'x, y, z'
loop_
 _atom_site_type_symbol
 _atom_site_label
 _atom_site_symmetry_multiplicity
 _atom_site_fract_x
 _atom_site_fract_y
 _atom_site_fract_z
 _atom_site_occupancy
  Na  Na0  1  0.63724322  0.99412282  0.24103477  1
  Na  Na1  1  0.38756768  0.37853583  0.23790379  1
  Na  Na2  1  0.98179219  0.63261075  0.25550614  1
  Na  Na3  1  0.62439620  0.62812190  0.73752988  1
  Na  Na4  1  0.99530865  0.34591896  0.74863958  1
  Na  Na5  1  0.38691739  0.02005049  0.75717589  1
  Na  Na6  1  0.01733680  0.69688247  0.57556695  1
  Na  Na7  1  0.66845888  0.95364851  0.58479630  1
  Na  Na8  1  0.31764491  0.98403682  0.08006358  1
  Na  Na9  1  0.65480825  0.69661857  0.09298403  1
  Na  Na10  1  0.68952147  0.03516683  0.91737447  1
  Na  Na11  1  0.33407298  0.28603975  0.91865069  1
  Na  Na12  1  0.95982464  0.30041390  0.41087951  1
  Na  Na13  1  0.33403998  0.01722782  0.41467077  1
  Na  Na14  1  0.72396763  0.68748167  0.41599826  1
  Na  Na15  1  0.98395282  0.98164250  0.49549111  1
  Na  Na16  1  0.01165693  0.01272526  0.00530041  1
  Na  Na17  1  0.65087108  0.31570007  0.82949029  1
  Na  Na18  1  0.68012305  0.34849196  0.33155760  1
  Na  Na19  1  0.34776088  0.66006828  0.16111261  1
  Na  Na20  1  0.35469537  0.64979630  0.66766198  1
  Mg  Mg0  1  0.98416472  0.97885707  0.35293192  1
  Mg  Mg1  1  0.65240034  0.33422854  0.68575959  1
  Mg  Mg2  1  0.65752843  0.33813114  0.17693776  1
  In  In0  1  0.00888590  0.00434154  0.84750250  1
  In  In1  1  0.99483065  0.00280627  0.65292793  1
  In  In2  1  0.98659797  0.00525053  0.14804575  1
  In  In3  1  0.64808913  0.31203510  0.98959422  1
  In  In4  1  0.67625249  0.34790089  0.48403312  1
  In  In5  1  0.33236261  0.67339028  0.01992384  1
  In  In6  1  0.34909239  0.67110618  0.51504705  1
  In  In7  1  0.34844480  0.68163068  0.32021739  1
  In  In8  1  0.34181042  0.67293132  0.81675698  1
  Si  Si0  1  0.70094871  0.69528032  0.25171610  1
  Si  Si1  1  0.30023641  0.29996763  0.75142807  1
  Si  Si2  1  0.70042570  0.00293495  0.75021815  1
  Si  Si3  1  0.66849425  0.63338076  0.58587142  1
  Si  Si4  1  0.66867112  0.03752672  0.08501487  1
  Si  Si5  1  0.36043741  0.33329355  0.08424511  1
  Si  Si6  1  0.32574505  0.96264348  0.91696843  1
  Si  Si7  1  0.64204031  0.97729083  0.41790778  1
  Si  Si8  1  0.04312401  0.66922901  0.41715467  1
  S  S0  1  0.29135086  0.00105812  0.25111664  1
  S  S1  1  0.00457399  0.29981315  0.25367312  1
  S  S2  1  0.99761697  0.69674866  0.74785704  1
  S  S3  1  0.96452900  0.33510929  0.58465412  1
  S  S4  1  0.37002062  0.03892739  0.58476226  1
  S  S5  1  0.95676219  0.62162111  0.08525994  1
  S  S6  1  0.63741102  0.66512617  0.91704855  1
  S  S7  1  0.03425989  0.37335113  0.91607915  1
  S  S8  1  0.32762507  0.36189485  0.41447085  1
  O  O0  1  0.21007417  0.02169438  0.30446495  1
  O  O1  1  0.81339629  0.78197510  0.31027546  1
  O  O2  1  0.98871792  0.19977784  0.30690087  1
  O  O3  1  0.22865619  0.18720026  0.81156854  1
  O  O4  1  0.96521967  0.77516959  0.79999226  1
  O  O5  1  0.81559039  0.02928247  0.80991466  1
  O  O6  1  0.77379325  0.95582119  0.69128084  1
  O  O7  1  0.17163005  0.21128841  0.69576061  1
  O  O8  1  0.03171325  0.80215152  0.69409788  1
  O  O9  1  0.78062045  0.81534685  0.19272570  1
  O  O10  1  0.03659999  0.22480633  0.20037314  1
  O  O11  1  0.19175587  0.98169544  0.19702172  1
  O  O12  1  0.87598402  0.34976286  0.63688944  1
  O  O13  1  0.47583705  0.12592630  0.63641597  1
  O  O14  1  0.65756098  0.52673992  0.64330962  1
  O  O15  1  0.87620117  0.52679680  0.13936380  1
  O  O16  1  0.65122338  0.13540517  0.14233709  1
  O  O17  1  0.48177790  0.37101562  0.14118630  1
  O  O18  1  0.43537472  0.30284340  0.02160917  1
  O  O19  1  0.85399750  0.54230401  0.03146546  1
  O  O20  1  0.69833505  0.13609165  0.02159458  1
  O  O21  1  0.44494880  0.12969481  0.52869900  1
  O  O22  1  0.69786563  0.55706789  0.52329031  1
  O  O23  1  0.86449243  0.30918256  0.52925936  1
  O  O24  1  0.55411060  0.68932760  0.96960083  1
  O  O25  1  0.14610695  0.45843420  0.96684593  1
  O  O26  1  0.30794058  0.85636557  0.97670729  1
  O  O27  1  0.56446979  0.85313853  0.47520426  1
  O  O28  1  0.29539603  0.43817550  0.46737399  1
  O  O29  1  0.15326314  0.68912970  0.47762292  1
  O  O30  1  0.12440803  0.62675593  0.35891337  1
  O  O31  1  0.52243096  0.90363880  0.35863470  1
  O  O32  1  0.36248889  0.46887161  0.36133441  1
  O  O33  1  0.11084722  0.46187098  0.85973103  1
  O  O34  1  0.35755352  0.87933981  0.85729864  1
  O  O35  1  0.53087892  0.63072016  0.86285587  1
  O  O36  1  0.03464545  0.84205321  0.41319588  1
  O  O37  1  0.83059054  0.00689381  0.41118096  1
  O  O38  1  0.17992374  0.19534107  0.40649524  1
  O  O39  1  0.01335946  0.20061095  0.91514808  1
  O  O40  1  0.16238587  0.99052461  0.91444760  1
  O  O41  1  0.79859455  0.82258678  0.91118966  1
  O  O42  1  0.98367596  0.18412642  0.58657257  1
  O  O43  1  0.19825549  0.01407862  0.58859730  1
  O  O44  1  0.84321424  0.82455575  0.58583862  1
  O  O45  1  0.97793990  0.79382524  0.08801903  1
  O  O46  1  0.81907485  0.99043872  0.08397507  1
  O  O47  1  0.18498461  0.15226401  0.09056563  1
  O  O48  1  0.68985206  0.17444534  0.74365797  1
  O  O49  1  0.48760100  0.32708616  0.74518269  1
  O  O50  1  0.85036674  0.52842933  0.74133886  1
  O  O51  1  0.68342294  0.50851749  0.24450199  1
  O  O52  1  0.85023596  0.31136930  0.24824090  1
  O  O53  1  0.46250912  0.14845748  0.24744188  1
  O  O54  1  0.65906634  0.51694692  0.92310676  1
  O  O55  1  0.86760094  0.35892013  0.92078738  1
  O  O56  1  0.50041232  0.15095147  0.91744220  1
  O  O57  1  0.64466237  0.15778750  0.42565799  1
  O  O58  1  0.47819895  0.34329901  0.42163798  1
  O  O59  1  0.85232599  0.50507327  0.41827489  1
  O  O60  1  0.34591109  0.50384728  0.07769231  1
  O  O61  1  0.12560167  0.64083864  0.08189026  1
  O  O62  1  0.48985199  0.85420058  0.08414572  1
  O  O63  1  0.35452607  0.86797256  0.58315907  1
  O  O64  1  0.50249693  0.65927072  0.58200858  1
  O  O65  1  0.12835324  0.49204187  0.58103603  1
  O  O66  1  0.30296389  0.84361489  0.25318488  1
  O  O67  1  0.50794890  0.67475692  0.25412913  1
  O  O68  1  0.15314588  0.47295277  0.25640452  1
  O  O69  1  0.30771253  0.48418123  0.75590536  1
  O  O70  1  0.14802675  0.67929233  0.75508974  1
  O  O71  1  0.51124044  0.83719777  0.75309134  1
loop_
_geom_bond_atom_site_label_1
_geom_bond_atom_site_label_2
_geom_bond_distance
_geom_bond_site_symmetry_2
Na0 O16 2.558617 1_565
Na0 O67 2.587272 1_555
Na0 O52 2.593168 1_565
Na0 O53 2.632463 1_565
Na0 O66 2.698495 1_555
Na0 O9 2.794052 1_555
Na0 O31 2.831434 1_555
Na1 O17 2.364118 1_555
Na1 O51 2.381502 1_555
Na1 O67 2.407560 1_555
Na1 O53 2.547056 1_555
Na1 O68 2.736762 1_555
Na1 O10 2.943039 1_555
Na1 O32 2.946336 1_555
Na2 O51 2.414873 1_555
Na2 O52 2.586261 1_555
Na2 O66 2.618043 1_655
Na2 O68 2.643397 1_655
Na2 O30 2.695850 1_655
Na2 O15 2.794566 1_555
Na2 O1 2.819947 1_555
Na3 O14 2.399022 1_555
Na3 O49 2.417797 1_555
Na3 O69 2.576563 1_555
Na3 O71 2.631308 1_555
Na3 O50 2.667827 1_555
Na3 O6 2.830229 1_555
Na3 O35 2.962153 1_555
Na4 O48 2.457437 1_555
Na4 O69 2.514514 1_655
Na4 O50 2.625291 1_555
Na4 O70 2.671974 1_655
Na4 O33 2.722771 1_655
Na4 O7 2.758419 1_655
Na4 O12 2.761908 1_555
Na4 O5 2.901197 1_555
Na5 O48 2.448688 1_555
Na5 O71 2.467798 1_545
Na5 O49 2.517828 1_555
Na5 O34 2.559630 1_545
Na5 O70 2.801107 1_545
Na5 O3 2.869646 1_555
Na5 O13 2.880270 1_555
Na6 O44 2.429811 1_455
Na6 O29 2.560989 1_555
Na6 O65 2.561077 1_555
Na6 O43 2.561504 1_565
Na6 O63 2.708246 1_555
Na6 O8 2.822492 1_555
Na6 O22 2.823255 1_455
Na7 O64 2.362188 1_555
Na7 O44 2.435630 1_555
Na7 O6 2.590894 1_555
Na7 O63 2.599900 1_555
Na7 O42 2.616281 1_565
Na7 O27 2.645334 1_555
Na8 O47 2.417967 1_565
Na8 O62 2.421818 1_555
Na8 O26 2.589273 1_554
Na8 O45 2.736630 1_455
Na8 O61 2.752982 1_555
Na8 O11 2.881268 1_555
Na8 O18 2.902901 1_565
Na8 O16 3.021516 1_565
Na9 O46 2.366353 1_555
Na9 O9 2.516375 1_555
Na9 O60 2.524676 1_555
Na9 O62 2.583658 1_555
Na9 O45 2.658753 1_555
Na9 O17 2.830989 1_555
Na9 O24 2.927841 1_554
Na10 O56 2.458470 1_555
Na10 O20 2.512164 1_556
Na10 O55 2.595189 1_555
Na10 O39 2.597005 1_655
Na10 O41 2.613983 1_545
Na10 O5 2.703102 1_555
Na11 O40 2.376307 1_545
Na11 O56 2.411161 1_555
Na11 O18 2.481950 1_556
Na11 O3 2.592574 1_555
Na11 O39 2.661831 1_555
Na11 O54 2.683400 1_555
Na12 O37 2.352522 1_555
Na12 O59 2.535852 1_555
Na12 O57 2.552720 1_555
Na12 O2 2.581785 1_555
Na12 O38 2.652925 1_655
Na12 O23 2.827507 1_555
Na12 O30 2.868763 1_655
Na12 O28 2.987234 1_655
Na13 O36 2.412239 1_545
Na13 O57 2.505299 1_555
Na13 O58 2.616740 1_555
Na13 O38 2.661429 1_555
Na13 O31 2.742225 1_545
Na13 O0 2.749254 1_555
Na13 O21 2.769800 1_555
Na14 O36 2.491573 1_655
Na14 O59 2.493592 1_555
Na14 O1 2.539336 1_555
Na14 O37 2.602048 1_565
Na14 O22 2.668119 1_555
Na14 O58 2.842595 1_555
Na14 O27 2.915558 1_555
Na15 O36 2.428743 1_655
Na15 O37 2.454060 1_565
Na15 O44 2.471839 1_555
Na15 O42 2.770224 1_565
Na15 O38 2.773829 1_665
Na15 O43 2.799792 1_665
Na16 O47 2.419417 1_555
Na16 O46 2.449841 1_445
Na16 O40 2.542771 1_544
Na16 O45 2.660018 1_445
Na16 O39 2.675418 1_554
Na16 O41 2.827598 1_444
Na17 O48 2.453155 1_555
Na17 O49 2.464494 1_555
Na17 O56 2.473259 1_555
Na17 O55 2.760537 1_555
Na17 O50 2.766520 1_555
Na17 O54 2.780489 1_555
Na18 O51 2.455674 1_555
Na18 O59 2.477375 1_555
Na18 O52 2.578917 1_555
Na18 O57 2.680119 1_555
Na18 O53 2.707178 1_555
Na18 O58 2.743845 1_555
Na19 O60 2.359394 1_555
Na19 O62 2.375910 1_555
Na19 O67 2.534113 1_555
Na19 O61 2.661417 1_555
Na19 O68 2.791908 1_555
Na19 O66 2.830341 1_555
Na20 O64 2.343962 1_555
Na20 O69 2.421891 1_555
Na20 O71 2.505712 1_555
Na20 O65 2.695004 1_555
Na20 O63 2.780856 1_555
Na20 O70 2.850078 1_555
Mg0 O1 1.961057 1_555
Mg0 O37 2.041680 1_565
Mg0 O36 2.065091 1_655
Mg0 O0 2.212010 1_665
Mg0 O38 2.258962 1_665
Mg0 O2 2.273309 1_565
Mg1 O14 2.001317 1_555
Mg1 O49 2.005550 1_555
Mg1 O13 2.110205 1_555
Mg1 O48 2.127786 1_555
Mg1 O50 2.201546 1_555
Mg1 O12 2.282605 1_555
Mg2 O17 1.968058 1_555
Mg2 O16 1.995069 1_555
Mg2 O15 2.085319 1_555
Mg2 O51 2.109705 1_555
Mg2 O53 2.394966 1_555
Mg2 O52 2.503451 1_555
In0 O3 2.057710 1_555
In0 O5 2.091421 1_455
In0 O40 2.120563 1_545
In0 O4 2.214251 1_445
In0 O41 2.332223 1_445
In0 O39 2.345565 1_555
In1 O7 2.038755 1_655
In1 O6 2.056924 1_545
In1 O44 2.154715 1_545
In1 O8 2.246668 1_645
In1 O42 2.291177 1_555
In1 O43 2.336193 1_655
In2 O46 2.073026 1_545
In2 O9 2.100151 1_545
In2 O47 2.104637 1_655
In2 O10 2.179160 1_655
In2 O11 2.297086 1_645
In2 O45 2.335820 1_545
In3 O20 2.032153 1_556
In3 O18 2.055535 1_556
In3 O56 2.163725 1_555
In3 O19 2.232278 1_556
In3 O54 2.382048 1_555
In3 O55 2.418051 1_555
In4 O22 2.034794 1_555
In4 O57 2.087797 1_555
In4 O59 2.151734 1_555
In4 O23 2.194903 1_555
In4 O58 2.293449 1_555
In4 O21 2.319076 1_555
In5 O26 2.060369 1_554
In5 O60 2.092313 1_555
In5 O62 2.135858 1_555
In5 O25 2.215668 1_554
In5 O61 2.264766 1_555
In5 O24 2.282540 1_554
In6 O27 2.069059 1_555
In6 O29 2.077681 1_555
In6 O64 2.113039 1_555
In6 O28 2.220289 1_555
In6 O63 2.353336 1_555
In6 O65 2.404833 1_555
In7 O31 2.057970 1_555
In7 O30 2.065389 1_555
In7 O67 2.119459 1_555
In7 O32 2.235768 1_555
In7 O66 2.312480 1_555
In7 O68 2.356460 1_555
In8 O34 2.045415 1_555
In8 O69 2.107691 1_555
In8 O71 2.115841 1_555
In8 O35 2.228914 1_555
In8 O33 2.274402 1_555
In8 O70 2.292533 1_555
O0 S0 1.479775 1_555
O1 Si0 1.621948 1_555
O2 S1 1.481522 1_655
O3 Si1 1.641467 1_555
O4 S2 1.484252 1_555
O5 Si2 1.658103 1_555
O6 Si2 1.644490 1_565
O7 Si1 1.638460 1_555
O8 S2 1.491988 1_455
O9 Si0 1.657577 1_555
O10 S1 1.485796 1_555
O11 S0 1.485347 1_565
O12 S3 1.478449 1_555
O13 S4 1.473299 1_555
O14 Si3 1.604621 1_555
O15 S5 1.474959 1_555
O16 Si4 1.626769 1_555
O17 Si5 1.624812 1_555
O18 Si5 1.657204 1_555
O19 S5 1.487520 1_555
O20 Si4 1.648904 1_555
O21 S4 1.489209 1_555
O22 Si3 1.656339 1_555
O23 S3 1.501472 1_555
O24 S6 1.488957 1_555
O25 S7 1.477330 1_555
O26 Si6 1.631428 1_555
O27 Si7 1.642661 1_555
O28 S8 1.486019 1_555
O29 Si8 1.657340 1_555
O30 Si8 1.652937 1_555
O31 Si7 1.648965 1_555
O32 S8 1.487798 1_555
O33 S7 1.490923 1_555
O34 Si6 1.644245 1_555
O35 S6 1.501175 1_555
O36 Si8 1.636212 1_555
O37 Si7 1.630779 1_545
O38 S8 1.471737 1_555
O39 S7 1.505562 1_555
O40 Si6 1.653038 1_555
O41 S6 1.481601 1_555
O42 S3 1.488323 1_555
O43 S4 1.488880 1_555
O44 Si3 1.698033 1_555
O45 S5 1.500534 1_555
O46 Si4 1.648863 1_565
O47 Si5 1.657130 1_555
O48 Si2 1.639103 1_555
O49 Si1 1.627440 1_555
O50 S2 1.476135 1_555
O51 Si0 1.653999 1_555
O52 S1 1.486812 1_655
O53 S0 1.489576 1_555
O54 S6 1.482507 1_555
O55 S7 1.481859 1_655
O56 Si6 1.682990 1_545
O57 Si7 1.659965 1_545
O58 S8 1.492678 1_555
O59 Si8 1.657238 1_655
O60 Si5 1.650292 1_555
O61 S5 1.481719 1_455
O62 Si4 1.676237 1_565
O63 S4 1.509889 1_565
O64 Si3 1.667435 1_555
O65 S3 1.488223 1_455
O66 S0 1.508333 1_565
O67 Si0 1.697804 1_555
O68 S1 1.502081 1_555
O69 Si1 1.667126 1_555
O70 S2 1.485290 1_455
O71 Si2 1.655217 1_565
