# generated using pymatgen
data_ScAlAu
_symmetry_space_group_name_H-M   'P 1'
_cell_length_a   7.14004449
_cell_length_b   7.14004449
_cell_length_c   7.52802488
_cell_angle_alpha   90.00000000
_cell_angle_beta   90.00000000
_cell_angle_gamma   119.99999531
_symmetry_Int_Tables_number   1
_chemical_formula_structural   ScAlAu
_chemical_formula_sum   'Sc6 Al6 Au6'
_cell_volume   332.36366113
_cell_formula_units_Z   6
loop_
 _symmetry_equiv_pos_site_id
 _symmetry_equiv_pos_as_xyz
  1  'x, y, z'
loop_
 _atom_site_type_symbol
 _atom_site_label
 _atom_site_symmetry_multiplicity
 _atom_site_fract_x
 _atom_site_fract_y
 _atom_site_fract_z
 _atom_site_occupancy
  Sc  Sc0  1  0.59171958  0.99526041  0.75000000  1
  Sc  Sc1  1  0.00473959  0.59645916  0.75000000  1
  Sc  Sc2  1  0.40354084  0.40828042  0.75000000  1
  Sc  Sc3  1  0.99526041  0.59171958  0.25000000  1
  Sc  Sc4  1  0.59645916  0.00473959  0.25000000  1
  Sc  Sc5  1  0.40828042  0.40354084  0.25000000  1
  Al  Al0  1  0.74448351  0.74448351  0.00000000  1
  Al  Al1  1  0.25551649  -0.00000000  0.00000000  1
  Al  Al2  1  -0.00000000  0.25551649  0.00000000  1
  Al  Al3  1  0.74448351  0.74448351  0.50000000  1
  Al  Al4  1  0.25551649  -0.00000000  0.50000000  1
  Al  Al5  1  -0.00000000  0.25551649  0.50000000  1
  Au  Au0  1  -0.00000000  -0.00000000  0.75000000  1
  Au  Au1  1  -0.00000000  -0.00000000  0.25000000  1
  Au  Au2  1  0.66666700  0.33333300  0.99355906  1
  Au  Au3  1  0.66666700  0.33333300  0.50644094  1
  Au  Au4  1  0.33333300  0.66666700  0.49355906  1
  Au  Au5  1  0.33333300  0.66666700  0.00644094  1
loop_
_geom_bond_atom_site_label_1
_geom_bond_atom_site_label_2
_geom_bond_distance
_geom_bond_site_symmetry_2
Al0 Au1 2.621141 1_665
Al0 Au0 2.621141 1_664
Al0 Au2 2.701467 1_554
Al0 Au5 2.701467 1_555
Al0 Sc5 3.063781 1_555
Al0 Sc2 3.063781 1_554
Al0 Sc0 3.144964 1_554
Al0 Sc3 3.144964 1_555
Al0 Sc4 3.174274 1_565
Al0 Sc1 3.174274 1_654
Al1 Au0 2.621141 1_554
Al1 Au1 2.621141 1_555
Al1 Au5 2.701459 1_545
Al1 Au2 2.701464 1_554
Al1 Sc4 3.063781 1_555
Al1 Sc0 3.063781 1_544
Al1 Sc5 3.144964 1_555
Al1 Sc1 3.144964 1_544
Al1 Sc2 3.174274 1_554
Al1 Sc3 3.174274 1_445
Al2 Au0 2.621141 1_554
Al2 Au1 2.621141 1_555
Al2 Au2 2.701459 1_454
Al2 Au5 2.701464 1_555
Al2 Sc1 3.063781 1_554
Al2 Sc3 3.063781 1_455
Al2 Sc2 3.144964 1_554
Al2 Sc4 3.144964 1_455
Al2 Sc5 3.174274 1_555
Al2 Sc0 3.174274 1_444
Al3 Au0 2.621141 1_665
Al3 Au1 2.621141 1_665
Al3 Au3 2.701467 1_555
Al3 Au4 2.701467 1_555
Al3 Sc5 3.063781 1_555
Al3 Sc2 3.063781 1_555
Al3 Sc0 3.144964 1_555
Al3 Sc3 3.144964 1_555
Al3 Sc4 3.174274 1_565
Al3 Sc1 3.174274 1_655
Al4 Au0 2.621141 1_555
Al4 Au1 2.621141 1_555
Al4 Au4 2.701459 1_545
Al4 Au3 2.701464 1_555
Al4 Sc4 3.063781 1_555
Al4 Sc0 3.063781 1_545
Al4 Sc5 3.144964 1_555
Al4 Sc1 3.144964 1_545
Al4 Sc2 3.174274 1_555
Al4 Sc3 3.174274 1_445
Al5 Au0 2.621141 1_555
Al5 Au1 2.621141 1_555
Al5 Au3 2.701459 1_455
Al5 Au4 2.701464 1_555
Al5 Sc1 3.063781 1_555
Al5 Sc3 3.063781 1_455
Al5 Sc2 3.144964 1_555
Al5 Sc4 3.144964 1_455
Al5 Sc5 3.174274 1_555
Al5 Sc0 3.174274 1_445
Au0 Sc0 2.898368 1_445
Au0 Sc1 2.898368 1_545
Au0 Sc2 2.898368 1_555
Au1 Sc3 2.898368 1_445
Au1 Sc4 2.898368 1_455
Au1 Sc5 2.898368 1_555
Au2 Sc0 2.860615 1_545
Au2 Sc1 2.860617 1_655
Au2 Sc2 2.860621 1_555
Au2 Sc4 2.882102 1_556
Au2 Sc3 2.882104 1_556
Au2 Sc5 2.882107 1_556
Au3 Sc0 2.860615 1_545
Au3 Sc1 2.860617 1_655
Au3 Sc2 2.860621 1_555
Au3 Sc4 2.882102 1_555
Au3 Sc3 2.882104 1_555
Au3 Sc5 2.882107 1_555
Au4 Sc3 2.860615 1_455
Au4 Sc4 2.860617 1_565
Au4 Sc5 2.860621 1_555
Au4 Sc1 2.882102 1_555
Au4 Sc0 2.882104 1_555
Au4 Sc2 2.882107 1_555
Au5 Sc3 2.860615 1_455
Au5 Sc4 2.860617 1_565
Au5 Sc5 2.860621 1_555
Au5 Sc1 2.882102 1_554
Au5 Sc0 2.882104 1_554
Au5 Sc2 2.882107 1_554
