# generated using pymatgen
data_Lu2MgCr2O8
_symmetry_space_group_name_H-M   'P 1'
_cell_length_a   6.09605972
_cell_length_b   6.11851145
_cell_length_c   5.96888684
_cell_angle_alpha   105.91420914
_cell_angle_beta   105.77077663
_cell_angle_gamma   117.79005018
_symmetry_Int_Tables_number   1
_chemical_formula_structural   Lu2MgCr2O8
_chemical_formula_sum   'Lu2 Mg1 Cr2 O8'
_cell_volume   167.20888776
_cell_formula_units_Z   1
loop_
 _symmetry_equiv_pos_site_id
 _symmetry_equiv_pos_as_xyz
  1  'x, y, z'
loop_
 _atom_site_type_symbol
 _atom_site_label
 _atom_site_symmetry_multiplicity
 _atom_site_fract_x
 _atom_site_fract_y
 _atom_site_fract_z
 _atom_site_occupancy
  Lu  Lu0  1  0.37688300  0.62682300  0.75355200  1
  Lu  Lu1  1  0.59473500  0.34467500  0.18937000  1
  Mg  Mg0  1  0.88271500  0.63251900  0.76523200  1
  Cr  Cr0  1  0.87272900  0.12291400  0.74565800  1
  Cr  Cr1  1  0.15130300  0.90152800  0.30266500  1
  O  O0  1  0.35264400  0.27065000  0.46906800  1
  O  O1  1  0.86471200  0.30881700  0.55920700  1
  O  O2  1  0.24555600  0.31782100  0.92752900  1
  O  O3  1  0.27661900  0.86694500  0.05130900  1
  O  O4  1  0.11633600  0.69841500  0.46915800  1
  O  O5  1  0.69446500  0.75038500  0.55941600  1
  O  O6  1  0.68208200  0.10966600  0.92744100  1
  O  O7  1  0.77463700  0.68426000  0.05122600  1
loop_
_geom_bond_atom_site_label_1
_geom_bond_atom_site_label_2
_geom_bond_distance
_geom_bond_site_symmetry_2
Lu0 O4 2.277521 1_555
Lu0 O0 2.277798 1_555
Lu0 O6 2.325950 1_565
Lu0 O2 2.326156 1_555
Lu0 O7 2.383469 1_556
Lu0 O3 2.384682 1_556
Lu0 O5 2.448978 1_555
Lu0 O1 2.451230 1_455
Lu1 O2 2.173780 1_554
Lu1 O6 2.174633 1_554
Lu1 O7 2.346493 1_555
Lu1 O3 2.347009 1_545
Lu1 O1 2.501463 1_555
Lu1 O5 2.503255 1_555
Lu1 O4 2.509587 1_655
Lu1 O0 2.510176 1_555
Mg0 O1 1.958384 1_555
Mg0 O5 1.958938 1_555
Mg0 O3 1.988857 1_656
Mg0 O7 1.989440 1_556
Mg0 O4 2.556822 1_655
Mg0 O0 2.558513 1_555
Cr0 O6 1.783380 1_555
Cr0 O2 1.785412 1_655
Cr0 O1 1.803110 1_555
Cr0 O5 1.804478 1_545
Cr1 O0 1.765238 1_565
Cr1 O4 1.767164 1_555
Cr1 O7 1.865049 1_455
Cr1 O3 1.865199 1_555
