# generated using pymatgen
data_Ba2LuMgRuO6
_symmetry_space_group_name_H-M   'P 1'
_cell_length_a   6.22126572
_cell_length_b   6.22126583
_cell_length_c   5.84286500
_cell_angle_alpha   61.99244165
_cell_angle_beta   61.99244110
_cell_angle_gamma   58.10732474
_symmetry_Int_Tables_number   1
_chemical_formula_structural   Ba2LuMgRuO6
_chemical_formula_sum   'Ba2 Lu1 Mg1 Ru1 O6'
_cell_volume   161.94892296
_cell_formula_units_Z   1
loop_
 _symmetry_equiv_pos_site_id
 _symmetry_equiv_pos_as_xyz
  1  'x, y, z'
loop_
 _atom_site_type_symbol
 _atom_site_label
 _atom_site_symmetry_multiplicity
 _atom_site_fract_x
 _atom_site_fract_y
 _atom_site_fract_z
 _atom_site_occupancy
  Ba  Ba0  1  0.69126200  0.69126200  0.80873800  1
  Ba  Ba1  1  0.30873800  0.30873800  0.19126200  1
  Lu  Lu0  1  0.00000000  0.00000000  0.00000000  1
  Mg  Mg0  1  0.00000000  0.00000000  0.50000000  1
  Ru  Ru0  1  0.50000000  0.50000000  0.50000000  1
  O  O0  1  0.24095900  0.75904100  0.73364500  1
  O  O1  1  0.24095900  0.75904100  0.26635500  1
  O  O2  1  0.75904100  0.24095900  0.73364500  1
  O  O3  1  0.26098400  0.26098400  0.73901600  1
  O  O4  1  0.75904100  0.24095900  0.26635500  1
  O  O5  1  0.73901600  0.73901600  0.26098400  1
loop_
_geom_bond_atom_site_label_1
_geom_bond_atom_site_label_2
_geom_bond_distance
_geom_bond_site_symmetry_2
Ba0 O0 2.819730 1_555
Ba0 O2 2.819730 1_555
Ba0 O1 2.819731 1_556
Ba0 O4 2.819731 1_556
Ba0 Mg0 2.832431 1_665
Ba0 O5 2.954100 1_556
Ba0 O5 2.954100 1_555
Ba0 O3 3.088194 1_655
Ba0 O3 3.088194 1_565
Ba1 O4 2.819730 1_555
Ba1 O1 2.819730 1_555
Ba1 O2 2.819731 1_554
Ba1 O0 2.819731 1_554
Ba1 Mg0 2.832431 1_555
Ba1 O3 2.954100 1_554
Ba1 O3 2.954100 1_555
Ba1 O5 3.088194 1_455
Ba1 O5 3.088194 1_545
Lu0 O4 2.131169 1_455
Lu0 O0 2.131169 1_544
Lu0 O1 2.131169 1_545
Lu0 O2 2.131169 1_454
Lu0 O5 2.394325 1_445
Lu0 O3 2.394325 1_554
Mg0 O4 1.995880 1_455
Mg0 O2 1.995880 1_455
Mg0 O0 1.995880 1_545
Mg0 O1 1.995880 1_545
O0 Ru0 2.076929 1_555
O1 Ru0 2.076929 1_555
O2 Ru0 2.076929 1_555
O3 Ru0 2.192786 1_555
O4 Ru0 2.076929 1_555
O5 Ru0 2.192786 1_555
