# generated using pymatgen
data_Na4ZnGa(PO4)3
_symmetry_space_group_name_H-M   'P 1'
_cell_length_a   8.98751219
_cell_length_b   8.98751188
_cell_length_c   21.54694375
_cell_angle_alpha   90.00000000
_cell_angle_beta   90.00000000
_cell_angle_gamma   120.00000110
_symmetry_Int_Tables_number   1
_chemical_formula_structural   Na4ZnGa(PO4)3
_chemical_formula_sum   'Na24 Zn6 Ga6 P18 O72'
_cell_volume   1507.28464439
_cell_formula_units_Z   6
loop_
 _symmetry_equiv_pos_site_id
 _symmetry_equiv_pos_as_xyz
  1  'x, y, z'
loop_
 _atom_site_type_symbol
 _atom_site_label
 _atom_site_symmetry_multiplicity
 _atom_site_fract_x
 _atom_site_fract_y
 _atom_site_fract_z
 _atom_site_occupancy
  Na  Na0  1  0.63825803  0.00892318  0.24727535  1
  Na  Na1  1  0.37066515  0.36174197  0.24727535  1
  Na  Na2  1  0.99107682  0.62933485  0.24727535  1
  Na  Na3  1  0.63825803  0.62933485  0.74727535  1
  Na  Na4  1  0.99107682  0.36174197  0.74727535  1
  Na  Na5  1  0.37066515  0.00892318  0.74727535  1
  Na  Na6  1  0.30492503  0.34225618  0.58060835  1
  Na  Na7  1  0.03733215  0.69507497  0.58060835  1
  Na  Na8  1  0.65774382  0.96266785  0.58060835  1
  Na  Na9  1  0.30492503  0.96266785  0.08060835  1
  Na  Na10  1  0.65774382  0.69507497  0.08060835  1
  Na  Na11  1  0.03733215  0.34225618  0.08060835  1
  Na  Na12  1  0.97159103  0.67559018  0.91394235  1
  Na  Na13  1  0.70399815  0.02840897  0.91394235  1
  Na  Na14  1  0.32440982  0.29600185  0.91394235  1
  Na  Na15  1  0.97159103  0.29600185  0.41394235  1
  Na  Na16  1  0.32440982  0.02840897  0.41394235  1
  Na  Na17  1  0.70399815  0.67559018  0.41394235  1
  Na  Na18  1  0.00000000  0.00000000  0.49688803  1
  Na  Na19  1  0.00000000  0.00000000  0.99688803  1
  Na  Na20  1  0.66666700  0.33333300  0.83022103  1
  Na  Na21  1  0.66666700  0.33333300  0.33022103  1
  Na  Na22  1  0.33333300  0.66666700  0.16355503  1
  Na  Na23  1  0.33333300  0.66666700  0.66355503  1
  Zn  Zn0  1  0.00000000  0.00000000  0.34662227  1
  Zn  Zn1  1  0.00000000  0.00000000  0.84662227  1
  Zn  Zn2  1  0.66666700  0.33333300  0.67995527  1
  Zn  Zn3  1  0.66666700  0.33333300  0.17995527  1
  Zn  Zn4  1  0.33333300  0.66666700  0.01328927  1
  Zn  Zn5  1  0.33333300  0.66666700  0.51328927  1
  Ga  Ga0  1  0.00000000  0.00000000  0.65036830  1
  Ga  Ga1  1  0.00000000  0.00000000  0.15036830  1
  Ga  Ga2  1  0.66666700  0.33333300  0.98370130  1
  Ga  Ga3  1  0.66666700  0.33333300  0.48370130  1
  Ga  Ga4  1  0.33333300  0.66666700  0.31703530  1
  Ga  Ga5  1  0.33333300  0.66666700  0.81703530  1
  P  P0  1  0.29317009  0.99264787  0.25129506  1
  P  P1  1  0.69947778  0.70682991  0.25129506  1
  P  P2  1  0.00735213  0.30052222  0.25129506  1
  P  P3  1  0.29317009  0.30052222  0.75129506  1
  P  P4  1  0.00735213  0.70682991  0.75129506  1
  P  P5  1  0.69947778  0.99264787  0.75129506  1
  P  P6  1  0.95983709  0.32598087  0.58462806  1
  P  P7  1  0.36614478  0.04016291  0.58462806  1
  P  P8  1  0.67401913  0.63385522  0.58462806  1
  P  P9  1  0.95983709  0.63385522  0.08462806  1
  P  P10  1  0.67401913  0.04016291  0.08462806  1
  P  P11  1  0.36614478  0.32598087  0.08462806  1
  P  P12  1  0.62650309  0.65931487  0.91796206  1
  P  P13  1  0.03281078  0.37349691  0.91796206  1
  P  P14  1  0.34068513  0.96718922  0.91796206  1
  P  P15  1  0.62650309  0.96718922  0.41796206  1
  P  P16  1  0.34068513  0.37349691  0.41796206  1
  P  P17  1  0.03281078  0.65931487  0.41796206  1
  O  O0  1  0.21360288  0.01709999  0.31057099  1
  O  O1  1  0.80349711  0.78639712  0.31057099  1
  O  O2  1  0.98290001  0.19650289  0.31057099  1
  O  O3  1  0.21360288  0.19650289  0.81057099  1
  O  O4  1  0.98290001  0.78639712  0.81057099  1
  O  O5  1  0.80349711  0.01709999  0.81057099  1
  O  O6  1  0.78923642  0.96723463  0.69292238  1
  O  O7  1  0.17799821  0.21076358  0.69292238  1
  O  O8  1  0.03276537  0.82200179  0.69292238  1
  O  O9  1  0.78923642  0.82200179  0.19292238  1
  O  O10  1  0.03276537  0.21076358  0.19292238  1
  O  O11  1  0.17799821  0.96723463  0.19292238  1
  O  O12  1  0.88026988  0.35043299  0.64390399  1
  O  O13  1  0.47016411  0.11973012  0.64390399  1
  O  O14  1  0.64956701  0.52983589  0.64390399  1
  O  O15  1  0.88026988  0.52983589  0.14390399  1
  O  O16  1  0.64956701  0.11973012  0.14390399  1
  O  O17  1  0.47016411  0.35043299  0.14390399  1
  O  O18  1  0.45590342  0.30056763  0.02625538  1
  O  O19  1  0.84466521  0.54409658  0.02625538  1
  O  O20  1  0.69943237  0.15533479  0.02625538  1
  O  O21  1  0.45590342  0.15533479  0.52625538  1
  O  O22  1  0.69943237  0.54409658  0.52625538  1
  O  O23  1  0.84466521  0.30056763  0.52625538  1
  O  O24  1  0.54693588  0.68376699  0.97723799  1
  O  O25  1  0.13683011  0.45306412  0.97723799  1
  O  O26  1  0.31623301  0.86316989  0.97723799  1
  O  O27  1  0.54693588  0.86316989  0.47723799  1
  O  O28  1  0.31623301  0.45306412  0.47723799  1
  O  O29  1  0.13683011  0.68376699  0.47723799  1
  O  O30  1  0.12256942  0.63390163  0.35958938  1
  O  O31  1  0.51133121  0.87743058  0.35958938  1
  O  O32  1  0.36609837  0.48866879  0.35958938  1
  O  O33  1  0.12256942  0.48866879  0.85958938  1
  O  O34  1  0.36609837  0.87743058  0.85958938  1
  O  O35  1  0.51133121  0.63390163  0.85958938  1
  O  O36  1  0.00807632  0.81688448  0.41326310  1
  O  O37  1  0.80880817  0.99192368  0.41326310  1
  O  O38  1  0.18311552  0.19119183  0.41326310  1
  O  O39  1  0.00807632  0.19119183  0.91326310  1
  O  O40  1  0.18311552  0.99192368  0.91326310  1
  O  O41  1  0.80880817  0.81688448  0.91326310  1
  O  O42  1  0.97150441  0.15689461  0.58671360  1
  O  O43  1  0.18539021  0.02849559  0.58671360  1
  O  O44  1  0.84310539  0.81460979  0.58671360  1
  O  O45  1  0.97150441  0.81460979  0.08671360  1
  O  O46  1  0.84310539  0.02849559  0.08671360  1
  O  O47  1  0.18539021  0.15689461  0.08671360  1
  O  O48  1  0.67474332  0.15021748  0.74659610  1
  O  O49  1  0.47547517  0.32525668  0.74659610  1
  O  O50  1  0.84978252  0.52452483  0.74659610  1
  O  O51  1  0.67474332  0.52452483  0.24659610  1
  O  O52  1  0.84978252  0.32525668  0.24659610  1
  O  O53  1  0.47547517  0.15021748  0.24659610  1
  O  O54  1  0.63817141  0.49022761  0.92004660  1
  O  O55  1  0.85205721  0.36182859  0.92004660  1
  O  O56  1  0.50977239  0.14794279  0.92004660  1
  O  O57  1  0.63817141  0.14794279  0.42004660  1
  O  O58  1  0.50977239  0.36182859  0.42004660  1
  O  O59  1  0.85205721  0.49022761  0.42004660  1
  O  O60  1  0.34140932  0.48355148  0.07993010  1
  O  O61  1  0.14214117  0.65859068  0.07993010  1
  O  O62  1  0.51644852  0.85785883  0.07993010  1
  O  O63  1  0.34140932  0.85785883  0.57993010  1
  O  O64  1  0.51644852  0.65859068  0.57993010  1
  O  O65  1  0.14214117  0.48355148  0.57993010  1
  O  O66  1  0.30483741  0.82356161  0.25338060  1
  O  O67  1  0.51872321  0.69516259  0.25338060  1
  O  O68  1  0.17643839  0.48127679  0.25338060  1
  O  O69  1  0.30483741  0.48127679  0.75338060  1
  O  O70  1  0.17643839  0.69516259  0.75338060  1
  O  O71  1  0.51872321  0.82356161  0.75338060  1
loop_
_geom_bond_atom_site_label_1
_geom_bond_atom_site_label_2
_geom_bond_distance
_geom_bond_site_symmetry_2
Na0 O53 2.368773 1_555
Na0 O16 2.421139 1_555
Na0 O67 2.468593 1_545
Na0 O52 2.508464 1_555
Na0 O66 2.603884 1_545
Na0 O31 2.684462 1_545
Na0 O9 2.883510 1_545
Na0 O2 3.012406 1_555
Na1 O51 2.368780 1_555
Na1 O17 2.421142 1_555
Na1 O68 2.468602 1_555
Na1 O53 2.508471 1_555
Na1 O67 2.603884 1_555
Na1 O32 2.684464 1_555
Na1 O10 2.883510 1_555
Na1 O0 3.012406 1_555
Na2 O52 2.368781 1_555
Na2 O15 2.421140 1_555
Na2 O66 2.468595 1_655
Na2 O51 2.508462 1_555
Na2 O68 2.603877 1_655
Na2 O30 2.684460 1_655
Na2 O11 2.883510 1_655
Na2 O1 3.012406 1_555
Na3 O49 2.368780 1_555
Na3 O14 2.421142 1_555
Na3 O71 2.468602 1_555
Na3 O50 2.508471 1_555
Na3 O69 2.603884 1_555
Na3 O35 2.684464 1_555
Na3 O6 2.883510 1_555
Na3 O4 3.012406 1_555
Na4 O50 2.368773 1_555
Na4 O12 2.421139 1_555
Na4 O69 2.468593 1_655
Na4 O48 2.508464 1_555
Na4 O70 2.603884 1_655
Na4 O33 2.684462 1_655
Na4 O7 2.883510 1_655
Na4 O5 3.012406 1_555
Na5 O48 2.368781 1_555
Na5 O13 2.421140 1_555
Na5 O70 2.468594 1_545
Na5 O49 2.508462 1_555
Na5 O71 2.603877 1_545
Na5 O34 2.684460 1_545
Na5 O8 2.883510 1_545
Na5 O3 3.012406 1_555
Na6 O65 2.368788 1_555
Na6 O28 2.421124 1_555
Na6 O43 2.468593 1_555
Na6 O64 2.508469 1_555
Na6 O42 2.603884 1_455
Na6 O7 2.684462 1_555
Na6 O21 2.883510 1_555
Na6 O14 3.012406 1_555
Na7 O63 2.368773 1_555
Na7 O29 2.421117 1_555
Na7 O44 2.468602 1_455
Na7 O65 2.508455 1_555
Na7 O43 2.603884 1_565
Na7 O8 2.684464 1_555
Na7 O22 2.883510 1_455
Na7 O12 3.012406 1_455
Na8 O64 2.368772 1_555
Na8 O27 2.421121 1_555
Na8 O42 2.468595 1_565
Na8 O63 2.508472 1_555
Na8 O44 2.603877 1_555
Na8 O6 2.684460 1_555
Na8 O23 2.883510 1_565
Na8 O13 3.012406 1_565
Na9 O61 2.368773 1_555
Na9 O26 2.421117 1_554
Na9 O47 2.468602 1_565
Na9 O62 2.508455 1_555
Na9 O45 2.603884 1_455
Na9 O11 2.684464 1_555
Na9 O18 2.883510 1_565
Na9 O16 3.012406 1_565
Na10 O62 2.368788 1_555
Na10 O24 2.421124 1_554
Na10 O45 2.468593 1_555
Na10 O60 2.508469 1_555
Na10 O46 2.603884 1_565
Na10 O9 2.684462 1_555
Na10 O19 2.883510 1_555
Na10 O17 3.012406 1_555
Na11 O60 2.368772 1_555
Na11 O25 2.421121 1_554
Na11 O46 2.468594 1_455
Na11 O61 2.508472 1_555
Na11 O47 2.603877 1_555
Na11 O10 2.684460 1_555
Na11 O20 2.883510 1_455
Na11 O15 3.012406 1_455
Na12 O41 2.368773 1_555
Na12 O4 2.421139 1_555
Na12 O55 2.468602 1_555
Na12 O40 2.508464 1_655
Na12 O54 2.603876 1_555
Na12 O19 2.684443 1_556
Na12 O33 2.883510 1_655
Na12 O26 3.012406 1_655
Na13 O39 2.368780 1_655
Na13 O5 2.421142 1_555
Na13 O56 2.468585 1_555
Na13 O41 2.508471 1_545
Na13 O55 2.603875 1_555
Na13 O20 2.684439 1_556
Na13 O34 2.883510 1_545
Na13 O24 3.012406 1_545
Na14 O40 2.368781 1_545
Na14 O3 2.421140 1_555
Na14 O54 2.468599 1_555
Na14 O39 2.508462 1_555
Na14 O56 2.603891 1_555
Na14 O18 2.684446 1_556
Na14 O35 2.883510 1_555
Na14 O25 3.012406 1_555
Na15 O37 2.368780 1_545
Na15 O2 2.421142 1_555
Na15 O59 2.468585 1_555
Na15 O38 2.508471 1_655
Na15 O57 2.603875 1_555
Na15 O23 2.684439 1_555
Na15 O30 2.883510 1_655
Na15 O28 3.012406 1_655
Na16 O38 2.368773 1_555
Na16 O0 2.421139 1_555
Na16 O57 2.468602 1_555
Na16 O36 2.508464 1_545
Na16 O58 2.603876 1_555
Na16 O21 2.684443 1_555
Na16 O31 2.883510 1_545
Na16 O29 3.012406 1_545
Na17 O36 2.368781 1_655
Na17 O1 2.421140 1_555
Na17 O58 2.468599 1_555
Na17 O37 2.508462 1_555
Na17 O59 2.603891 1_555
Na17 O22 2.684446 1_555
Na17 O32 2.883510 1_555
Na17 O27 3.012406 1_555
Na18 O38 2.465752 1_555
Na18 O37 2.465752 1_445
Na18 O36 2.465753 1_545
Na18 O42 2.482159 1_455
Na18 O44 2.482159 1_445
Na18 O43 2.482159 1_555
Na19 O39 2.465752 1_555
Na19 O41 2.465752 1_445
Na19 O40 2.465753 1_545
Na19 O46 2.482159 1_456
Na19 O47 2.482159 1_556
Na19 O45 2.482159 1_446
Na20 O50 2.465752 1_555
Na20 O49 2.465752 1_555
Na20 O48 2.465753 1_555
Na20 O54 2.482159 1_555
Na20 O56 2.482159 1_555
Na20 O55 2.482159 1_555
Na21 O51 2.465752 1_555
Na21 O53 2.465752 1_555
Na21 O52 2.465753 1_555
Na21 O58 2.482159 1_555
Na21 O59 2.482159 1_555
Na21 O57 2.482159 1_555
Na22 O62 2.465752 1_555
Na22 O61 2.465752 1_555
Na22 O60 2.465753 1_555
Na22 O66 2.482159 1_555
Na22 O68 2.482159 1_555
Na22 O67 2.482159 1_555
Na23 O63 2.465752 1_555
Na23 O65 2.465752 1_555
Na23 O64 2.465753 1_555
Na23 O70 2.482159 1_555
Na23 O71 2.482159 1_555
Na23 O69 2.482159 1_555
Ga0 O7 1.989416 1_555
Ga0 O8 1.989416 1_545
Ga0 O6 1.989416 1_445
Ga0 O42 2.072744 1_455
Ga0 O44 2.072744 1_445
Ga0 O43 2.072744 1_555
Ga1 O10 1.989416 1_555
Ga1 O9 1.989416 1_445
Ga1 O11 1.989416 1_545
Ga1 O46 2.072744 1_455
Ga1 O47 2.072744 1_555
Ga1 O45 2.072744 1_445
Ga2 O19 1.989416 1_556
Ga2 O20 1.989416 1_556
Ga2 O18 1.989416 1_556
Ga2 O54 2.072744 1_555
Ga2 O56 2.072744 1_555
Ga2 O55 2.072744 1_555
Ga3 O22 1.989416 1_555
Ga3 O21 1.989416 1_555
Ga3 O23 1.989416 1_555
Ga3 O58 2.072744 1_555
Ga3 O59 2.072744 1_555
Ga3 O57 2.072744 1_555
Ga4 O31 1.989416 1_555
Ga4 O32 1.989416 1_555
Ga4 O30 1.989416 1_555
Ga4 O66 2.072744 1_555
Ga4 O68 2.072744 1_555
Ga4 O67 2.072744 1_555
Ga5 O34 1.989416 1_555
Ga5 O33 1.989416 1_555
Ga5 O35 1.989416 1_555
Ga5 O70 2.072744 1_555
Ga5 O71 2.072744 1_555
Ga5 O69 2.072744 1_555
O0 P0 1.532356 1_545
O0 Zn0 2.004361 1_555
O1 P1 1.532356 1_555
O1 Zn0 2.004361 1_665
O2 P2 1.532356 1_655
O2 Zn0 2.004361 1_655
O3 P3 1.532356 1_555
O3 Zn1 2.004361 1_555
O4 P4 1.532356 1_655
O4 Zn1 2.004361 1_665
O5 P5 1.532356 1_545
O5 Zn1 2.004361 1_655
O6 P5 1.571349 1_555
O7 P3 1.571349 1_555
O8 P4 1.571349 1_555
O9 P1 1.571349 1_555
O10 P2 1.571349 1_555
O11 P0 1.571349 1_555
O12 P6 1.532356 1_555
O12 Zn2 2.004361 1_555
O13 P7 1.532356 1_555
O13 Zn2 2.004361 1_555
O14 P8 1.532356 1_555
O14 Zn2 2.004361 1_555
O15 P9 1.532356 1_555
O15 Zn3 2.004361 1_555
O16 P10 1.532356 1_555
O16 Zn3 2.004361 1_555
O17 P11 1.532356 1_555
O17 Zn3 2.004361 1_555
O18 P11 1.571349 1_555
O19 P9 1.571349 1_555
O20 P10 1.571349 1_555
O21 P7 1.571349 1_555
O22 P8 1.571349 1_555
O23 P6 1.571349 1_555
O24 P12 1.532356 1_555
O24 Zn4 2.004361 1_556
O25 P13 1.532356 1_555
O25 Zn4 2.004361 1_556
O26 P14 1.532356 1_555
O26 Zn4 2.004361 1_556
O27 P15 1.532356 1_555
O27 Zn5 2.004361 1_555
O28 P16 1.532356 1_555
O28 Zn5 2.004361 1_555
O29 P17 1.532356 1_555
O29 Zn5 2.004361 1_555
O30 P17 1.571349 1_555
O31 P15 1.571349 1_555
O32 P16 1.571349 1_555
O33 P13 1.571349 1_555
O34 P14 1.571349 1_555
O35 P12 1.571349 1_555
O36 P17 1.542721 1_555
O36 Zn0 2.212478 1_565
O37 P15 1.542730 1_555
O37 Zn0 2.212477 1_665
O38 P16 1.542727 1_555
O38 Zn0 2.212477 1_555
O39 P13 1.542730 1_555
O39 Zn1 2.212477 1_555
O40 P14 1.542721 1_555
O40 Zn1 2.212478 1_565
O41 P12 1.542727 1_555
O41 Zn1 2.212477 1_665
O42 P6 1.575357 1_555
O43 P7 1.575366 1_555
O44 P8 1.575361 1_555
O45 P9 1.575365 1_555
O46 P10 1.575357 1_555
O47 P11 1.575361 1_555
O48 P5 1.542721 1_545
O48 Zn2 2.212478 1_555
O49 P3 1.542730 1_555
O49 Zn2 2.212477 1_555
O50 P4 1.542727 1_655
O50 Zn2 2.212477 1_555
O51 P1 1.542730 1_555
O51 Zn3 2.212477 1_555
O52 P2 1.542721 1_655
O52 Zn3 2.212478 1_555
O53 P0 1.542727 1_545
O53 Zn3 2.212477 1_555
O54 P12 1.575370 1_555
O55 P13 1.575352 1_655
O56 P14 1.575360 1_545
O57 P15 1.575352 1_545
O58 P16 1.575370 1_555
O59 P17 1.575360 1_655
O60 P11 1.542734 1_555
O60 Zn4 2.212478 1_555
O61 P9 1.542716 1_455
O61 Zn4 2.212477 1_555
O62 P10 1.542723 1_565
O62 Zn4 2.212477 1_555
O63 P7 1.542716 1_565
O63 Zn5 2.212477 1_555
O64 P8 1.542734 1_555
O64 Zn5 2.212478 1_555
O65 P6 1.542723 1_455
O65 Zn5 2.212477 1_555
O66 P0 1.575357 1_555
O67 P1 1.575366 1_555
O68 P2 1.575361 1_555
O69 P3 1.575365 1_555
O70 P4 1.575357 1_555
O71 P5 1.575361 1_555
