# generated using pymatgen
data_MgTl2(FeS2)2
_symmetry_space_group_name_H-M   'P 1'
_cell_length_a   5.01386139
_cell_length_b   6.76394909
_cell_length_c   7.43824637
_cell_angle_alpha   116.62459239
_cell_angle_beta   90.02028604
_cell_angle_gamma   111.71555948
_symmetry_Int_Tables_number   1
_chemical_formula_structural   MgTl2(FeS2)2
_chemical_formula_sum   'Mg1 Tl2 Fe2 S4'
_cell_volume   205.26825181
_cell_formula_units_Z   1
loop_
 _symmetry_equiv_pos_site_id
 _symmetry_equiv_pos_as_xyz
  1  'x, y, z'
loop_
 _atom_site_type_symbol
 _atom_site_label
 _atom_site_symmetry_multiplicity
 _atom_site_fract_x
 _atom_site_fract_y
 _atom_site_fract_z
 _atom_site_occupancy
  Mg  Mg0  1  0.19252000  0.38561500  0.98790800  1
  Tl  Tl0  1  0.64236200  0.28551000  0.50603000  1
  Tl  Tl1  1  0.34306000  0.68834000  0.47687200  1
  Fe  Fe0  1  0.25082300  0.00340500  0.00652700  1
  Fe  Fe1  1  0.75169000  0.00311000  0.00647700  1
  S  S0  1  0.34121000  0.68321500  0.86704000  1
  S  S1  1  0.66369500  0.32827700  0.11179100  1
  S  S2  1  0.00196200  0.00433100  0.23783800  1
  S  S3  1  0.97517800  0.95153000  0.74396100  1
loop_
_geom_bond_atom_site_label_1
_geom_bond_atom_site_label_2
_geom_bond_distance
_geom_bond_site_symmetry_2
Mg0 S0 2.434761 1_555
Mg0 S3 2.440628 1_445
Mg0 S1 2.752681 1_556
Mg0 S1 2.755146 1_456
Mg0 Tl1 3.189039 1_556
Fe0 S2 2.124820 1_555
Fe0 S0 2.164479 1_544
Fe0 S1 2.194898 1_555
Fe0 S3 2.207381 1_444
Fe0 Mg0 2.769162 1_554
Fe1 S2 2.124687 1_655
Fe1 S0 2.164483 1_544
Fe1 S1 2.195405 1_555
Fe1 S3 2.206909 1_544
Fe1 Mg0 2.772544 1_654
S0 Tl1 2.917842 1_555
S1 Tl0 3.071155 1_555
S2 Tl0 3.159495 1_555
S2 Tl0 3.160215 1_455
S3 Tl1 3.127425 1_655
S3 Tl1 3.132302 1_555
