# generated using pymatgen
data_LiSnPO4
_symmetry_space_group_name_H-M   'P 1'
_cell_length_a   7.95763160
_cell_length_b   7.95763160
_cell_length_c   10.27308400
_cell_angle_alpha   90.00000000
_cell_angle_beta   90.00000000
_cell_angle_gamma   119.99999664
_symmetry_Int_Tables_number   1
_chemical_formula_structural   LiSnPO4
_chemical_formula_sum   'Li6 Sn6 P6 O24'
_cell_volume   563.37704080
_cell_formula_units_Z   6
loop_
 _symmetry_equiv_pos_site_id
 _symmetry_equiv_pos_as_xyz
  1  'x, y, z'
loop_
 _atom_site_type_symbol
 _atom_site_label
 _atom_site_symmetry_multiplicity
 _atom_site_fract_x
 _atom_site_fract_y
 _atom_site_fract_z
 _atom_site_occupancy
  Li  Li0  1  0.21131200  0.97863700  0.25176300  1
  Li  Li1  1  0.02136300  0.23267500  0.25176300  1
  Li  Li2  1  0.23267500  0.02136300  0.75176300  1
  Li  Li3  1  0.76732500  0.78868800  0.25176300  1
  Li  Li4  1  0.78868800  0.76732500  0.75176300  1
  Li  Li5  1  0.97863700  0.21131200  0.75176300  1
  Sn  Sn0  1  0.00565200  0.57461700  0.47332600  1
  Sn  Sn1  1  0.56896500  0.99434800  0.47332600  1
  Sn  Sn2  1  0.42538300  0.43103500  0.47332600  1
  Sn  Sn3  1  0.43103500  0.42538300  0.97332600  1
  Sn  Sn4  1  0.57461700  0.00565200  0.97332600  1
  Sn  Sn5  1  0.99434800  0.56896500  0.97332600  1
  P  P0  1  0.00000000  0.00000000  0.49975200  1
  P  P1  1  0.00000000  0.00000000  0.99975200  1
  P  P2  1  0.33333300  0.66666700  0.19510500  1
  P  P3  1  0.33333300  0.66666700  0.75434200  1
  P  P4  1  0.66666700  0.33333300  0.69510500  1
  P  P5  1  0.66666700  0.33333300  0.25434200  1
  O  O0  1  0.09794800  0.88718500  0.44320500  1
  O  O1  1  0.22220600  0.76974200  0.14458400  1
  O  O2  1  0.22956400  0.77592000  0.80709800  1
  O  O3  1  0.22408000  0.45364400  0.80709800  1
  O  O4  1  0.33333300  0.66666700  0.34593000  1
  O  O5  1  0.00000000  0.00000000  0.15035800  1
  O  O6  1  0.33333300  0.66666700  0.60403000  1
  O  O7  1  0.11281500  0.21076300  0.44320500  1
  O  O8  1  0.23025800  0.45246400  0.14458400  1
  O  O9  1  0.54753600  0.77779400  0.14458400  1
  O  O10  1  0.21076300  0.11281500  0.94320500  1
  O  O11  1  0.54635600  0.77043600  0.80709800  1
  O  O12  1  0.45246400  0.23025800  0.64458400  1
  O  O13  1  0.78923700  0.90205200  0.44320500  1
  O  O14  1  0.45364400  0.22408000  0.30709800  1
  O  O15  1  0.77043600  0.54635600  0.30709800  1
  O  O16  1  0.66666700  0.33333300  0.84593000  1
  O  O17  1  0.66666700  0.33333300  0.10403000  1
  O  O18  1  0.90205200  0.78923700  0.94320500  1
  O  O19  1  0.77779400  0.54753600  0.64458400  1
  O  O20  1  0.76974200  0.22220600  0.64458400  1
  O  O21  1  0.77592000  0.22956400  0.30709800  1
  O  O22  1  0.88718500  0.09794800  0.94320500  1
  O  O23  1  0.00000000  0.00000000  0.65035800  1
loop_
_geom_bond_atom_site_label_1
_geom_bond_atom_site_label_2
_geom_bond_distance
_geom_bond_site_symmetry_2
Li0 O14 2.022420 1_565
Li0 O1 2.031557 1_555
Li0 O5 2.056106 1_565
Li0 O0 2.134201 1_555
Li1 O21 2.022420 1_455
Li1 O8 2.031557 1_555
Li1 O5 2.056106 1_555
Li1 O7 2.134201 1_555
Li2 O2 2.022420 1_545
Li2 O12 2.031557 1_555
Li2 O23 2.056106 1_555
Li2 O10 2.134201 1_555
Li3 O15 2.022420 1_555
Li3 O9 2.031557 1_555
Li3 O5 2.056107 1_665
Li3 O13 2.134201 1_555
Li4 O11 2.022420 1_555
Li4 O19 2.031557 1_555
Li4 O23 2.056107 1_665
Li4 O18 2.134201 1_555
Li5 O3 2.022420 1_655
Li5 O20 2.031557 1_555
Li5 O23 2.056106 1_655
Li5 O22 2.134201 1_555
O0 P0 1.565453 1_565
O0 Sn0 2.234956 1_555
O1 P2 1.565084 1_555
O1 Sn5 2.457382 1_454
O2 P3 1.565042 1_555
O2 Sn5 2.459528 1_455
O3 P3 1.565048 1_555
O3 Sn3 2.459528 1_555
O4 P2 1.549438 1_555
O4 Sn0 2.671841 1_555
O4 Sn1 2.671843 1_555
O4 Sn2 2.671848 1_555
O5 P1 1.547188 1_554
O6 P3 1.544168 1_555
O6 Sn0 2.688650 1_555
O6 Sn1 2.688652 1_555
O6 Sn2 2.688657 1_555
O7 P0 1.565453 1_555
O7 Sn2 2.234956 1_555
O8 P2 1.565091 1_555
O8 Sn3 2.457382 1_554
O9 P2 1.565091 1_555
O9 Sn4 2.457382 1_564
O10 P1 1.565453 1_555
O10 Sn3 2.234956 1_555
O11 P3 1.565048 1_555
O11 Sn4 2.459528 1_565
O12 P4 1.565091 1_555
O12 Sn2 2.457382 1_555
O13 P0 1.565453 1_665
O13 Sn1 2.234956 1_555
O14 P5 1.565048 1_555
O14 Sn2 2.459528 1_555
O15 P5 1.565048 1_555
O15 Sn0 2.459528 1_655
O16 P4 1.549438 1_555
O16 Sn4 2.671841 1_555
O16 Sn5 2.671843 1_555
O16 Sn3 2.671848 1_555
O17 P5 1.544168 1_555
O17 Sn4 2.688650 1_554
O17 Sn5 2.688652 1_554
O17 Sn3 2.688657 1_554
O18 P1 1.565453 1_665
O18 Sn5 2.234956 1_555
O19 P4 1.565091 1_555
O19 Sn0 2.457382 1_655
O20 P4 1.565084 1_555
O20 Sn1 2.457382 1_545
O21 P5 1.565042 1_555
O21 Sn1 2.459528 1_545
O22 P1 1.565453 1_655
O22 Sn4 2.234956 1_555
O23 P0 1.547188 1_555
