# generated using pymatgen
data_NaHCO2
_symmetry_space_group_name_H-M   'P 1'
_cell_length_a   4.67552685
_cell_length_b   4.67552685
_cell_length_c   6.23459223
_cell_angle_alpha   72.66906217
_cell_angle_beta   72.66906217
_cell_angle_gamma   95.24817893
_symmetry_Int_Tables_number   1
_chemical_formula_structural   NaHCO2
_chemical_formula_sum   'Na2 H2 C2 O4'
_cell_volume   121.74451366
_cell_formula_units_Z   2
loop_
 _symmetry_equiv_pos_site_id
 _symmetry_equiv_pos_as_xyz
  1  'x, y, z'
loop_
 _atom_site_type_symbol
 _atom_site_label
 _atom_site_symmetry_multiplicity
 _atom_site_fract_x
 _atom_site_fract_y
 _atom_site_fract_z
 _atom_site_occupancy
  Na  Na0  1  0.86252800  0.13747200  0.75000000  1
  Na  Na1  1  0.13747200  0.86252800  0.25000000  1
  H  H0  1  0.43770400  0.56229600  0.75000000  1
  H  H1  1  0.56229600  0.43770400  0.25000000  1
  C  C0  1  0.27657800  0.72342200  0.75000000  1
  C  C1  1  0.72342200  0.27657800  0.25000000  1
  O  O0  1  0.05449600  0.67037500  0.68031000  1
  O  O1  1  0.32962500  0.94550400  0.81969000  1
  O  O2  1  0.67037500  0.05449600  0.18031000  1
  O  O3  1  0.94550400  0.32962500  0.31969000  1
loop_
_geom_bond_atom_site_label_1
_geom_bond_atom_site_label_2
_geom_bond_distance
_geom_bond_site_symmetry_2
Na0 O1 2.432289 1_545
Na0 O0 2.432289 1_655
Na0 O2 2.456677 1_556
Na0 O3 2.456677 1_555
Na0 O0 2.540766 1_645
Na0 O1 2.540766 1_645
Na1 O3 2.432289 1_455
Na1 O2 2.432289 1_565
Na1 O0 2.456677 1_555
Na1 O1 2.456677 1_554
Na1 O3 2.540766 1_465
Na1 O2 2.540766 1_465
C0 H0 1.113056 1_555
C0 O0 1.270569 1_555
C0 O1 1.270569 1_555
C1 H1 1.113056 1_555
C1 O2 1.270569 1_555
C1 O3 1.270569 1_555
