# generated using pymatgen
data_SrNb2Bi2O9
_symmetry_space_group_name_H-M   'P 1'
_cell_length_a   13.01244535
_cell_length_b   13.01244535
_cell_length_c   5.68848400
_cell_angle_alpha   90.00000000
_cell_angle_beta   90.00000000
_cell_angle_gamma   154.93326168
_symmetry_Int_Tables_number   1
_chemical_formula_structural   SrNb2Bi2O9
_chemical_formula_sum   'Sr2 Nb4 Bi4 O18'
_cell_volume   408.08048555
_cell_formula_units_Z   2
loop_
 _symmetry_equiv_pos_site_id
 _symmetry_equiv_pos_as_xyz
  1  'x, y, z'
loop_
 _atom_site_type_symbol
 _atom_site_label
 _atom_site_symmetry_multiplicity
 _atom_site_fract_x
 _atom_site_fract_y
 _atom_site_fract_z
 _atom_site_occupancy
  Sr  Sr0  1  0.25159700  0.25159700  0.01657700  1
  Sr  Sr1  1  0.74840300  0.74840300  0.51657700  1
  Nb  Nb0  1  0.83397300  0.66860300  0.02467900  1
  Nb  Nb1  1  0.33139700  0.16602700  0.52467900  1
  Nb  Nb2  1  0.66860300  0.83397300  0.02467900  1
  Nb  Nb3  1  0.16602700  0.33139700  0.52467900  1
  Bi  Bi0  1  0.48647700  0.08596500  0.93440900  1
  Bi  Bi1  1  0.51352300  0.91403500  0.43440900  1
  Bi  Bi2  1  0.91403500  0.51352300  0.43440900  1
  Bi  Bi3  1  0.08596500  0.48647700  0.93440900  1
  O  O0  1  0.54113800  0.41050900  0.28396300  1
  O  O1  1  0.45886200  0.58949100  0.78396300  1
  O  O2  1  0.58949100  0.45886200  0.78396300  1
  O  O3  1  0.41050900  0.54113800  0.28396300  1
  O  O4  1  0.05731300  0.88477600  0.33094000  1
  O  O5  1  0.94268700  0.11522400  0.83094000  1
  O  O6  1  0.11522400  0.94268700  0.83094000  1
  O  O7  1  0.88477600  0.05731300  0.33094000  1
  O  O8  1  0.22773600  0.72905900  0.22559200  1
  O  O9  1  0.77226400  0.27094100  0.72559200  1
  O  O10  1  0.19354300  0.19354300  0.56596700  1
  O  O11  1  0.80645700  0.80645700  0.06596700  1
  O  O12  1  0.48617200  0.17598700  0.56214500  1
  O  O13  1  0.51382800  0.82401300  0.06214500  1
  O  O14  1  0.82401300  0.51382800  0.06214500  1
  O  O15  1  0.17598700  0.48617200  0.56214500  1
  O  O16  1  0.72905900  0.22773600  0.22559200  1
  O  O17  1  0.27094100  0.77226400  0.72559200  1
loop_
_geom_bond_atom_site_label_1
_geom_bond_atom_site_label_2
_geom_bond_distance
_geom_bond_site_symmetry_2
Nb0 O14 1.909331 1_555
Nb0 O6 1.918852 1_654
Nb0 O2 1.927409 1_554
Nb0 O11 2.136519 1_555
Nb0 O4 2.140967 1_655
Nb0 O0 2.188703 1_555
Nb1 O12 1.909331 1_555
Nb1 O4 1.918852 1_545
Nb1 O0 1.927409 1_555
Nb1 O10 2.136519 1_555
Nb1 O6 2.140967 1_545
Nb1 O2 2.188703 1_555
Nb2 O13 1.909331 1_555
Nb2 O5 1.918852 1_564
Nb2 O1 1.927409 1_554
Nb2 O11 2.136519 1_555
Nb2 O7 2.140967 1_565
Nb2 O3 2.188703 1_555
Nb3 O15 1.909331 1_555
Nb3 O7 1.918852 1_455
Nb3 O3 1.927409 1_555
Nb3 O10 2.136519 1_555
Nb3 O5 2.140967 1_455
Nb3 O1 2.188703 1_555
Bi0 O9 2.194977 1_555
Bi0 O17 2.280184 1_545
Bi0 O16 2.358254 1_556
Bi0 O12 2.421763 1_555
Bi0 O14 2.552610 1_556
Bi0 O8 2.705684 1_546
Bi1 O8 2.194977 1_555
Bi1 O16 2.280184 1_565
Bi1 O17 2.358254 1_555
Bi1 O13 2.421763 1_555
Bi1 O15 2.552610 1_555
Bi1 O9 2.705684 1_565
Bi2 O16 2.194977 1_555
Bi2 O8 2.280184 1_655
Bi2 O9 2.358254 1_555
Bi2 O14 2.421763 1_555
Bi2 O12 2.552610 1_555
Bi2 O17 2.705684 1_655
Bi3 O17 2.194977 1_555
Bi3 O9 2.280184 1_455
Bi3 O8 2.358254 1_556
Bi3 O15 2.421763 1_555
Bi3 O13 2.552610 1_556
Bi3 O16 2.705684 1_456
O0 Sr0 2.582711 1_555
O0 Sr1 2.621832 1_555
O1 Sr1 2.582711 1_555
O1 Sr0 2.621832 1_556
O2 Sr1 2.582711 1_555
O2 Sr0 2.621832 1_556
O3 Sr0 2.582711 1_555
O3 Sr1 2.621832 1_555
O4 Sr1 2.738501 1_455
O5 Sr0 2.738501 1_656
O6 Sr0 2.738501 1_566
O7 Sr1 2.738501 1_545
O10 Sr1 2.529629 1_445
O10 Sr0 2.584171 1_556
O11 Sr0 2.529629 1_665
O11 Sr1 2.584171 1_555
