# generated using pymatgen
data_LiB(HO)4
_symmetry_space_group_name_H-M   'P 1'
_cell_length_a   7.84440900
_cell_length_b   8.63483100
_cell_length_c   9.26610500
_cell_angle_alpha   90.00000000
_cell_angle_beta   90.00000000
_cell_angle_gamma   90.00000000
_symmetry_Int_Tables_number   1
_chemical_formula_structural   LiB(HO)4
_chemical_formula_sum   'Li8 B8 H32 O32'
_cell_volume   627.64097512
_cell_formula_units_Z   8
loop_
 _symmetry_equiv_pos_site_id
 _symmetry_equiv_pos_as_xyz
  1  'x, y, z'
loop_
 _atom_site_type_symbol
 _atom_site_label
 _atom_site_symmetry_multiplicity
 _atom_site_fract_x
 _atom_site_fract_y
 _atom_site_fract_z
 _atom_site_occupancy
  Li  Li0  1  0.37216500  0.37428200  0.30125400  1
  Li  Li1  1  0.87216500  0.12571800  0.69874600  1
  Li  Li2  1  0.62783500  0.87428200  0.19874600  1
  Li  Li3  1  0.12783500  0.62571800  0.80125400  1
  Li  Li4  1  0.62783500  0.62571800  0.69874600  1
  Li  Li5  1  0.12783500  0.87428200  0.30125400  1
  Li  Li6  1  0.37216500  0.12571800  0.80125400  1
  Li  Li7  1  0.87216500  0.37428200  0.19874600  1
  B  B0  1  0.67171800  0.15966300  0.40879100  1
  B  B1  1  0.17171800  0.34033700  0.59120900  1
  B  B2  1  0.32828200  0.65966300  0.09120900  1
  B  B3  1  0.82828200  0.84033700  0.90879100  1
  B  B4  1  0.32828200  0.84033700  0.59120900  1
  B  B5  1  0.82828200  0.65966300  0.40879100  1
  B  B6  1  0.67171800  0.34033700  0.90879100  1
  B  B7  1  0.17171800  0.15966300  0.09120900  1
  H  H0  1  0.92305600  0.21299900  0.42734800  1
  H  H1  1  0.42305600  0.28700100  0.57265200  1
  H  H2  1  0.07694400  0.71299900  0.07265200  1
  H  H3  1  0.57694400  0.78700100  0.92734800  1
  H  H4  1  0.07694400  0.78700100  0.57265200  1
  H  H5  1  0.57694400  0.71299900  0.42734800  1
  H  H6  1  0.92305600  0.28700100  0.92734800  1
  H  H7  1  0.42305600  0.21299900  0.07265200  1
  H  H8  1  0.98365900  0.11538300  0.24453600  1
  H  H9  1  0.48365900  0.38461700  0.75546400  1
  H  H10  1  0.01634100  0.61538300  0.25546400  1
  H  H11  1  0.51634100  0.88461700  0.74453600  1
  H  H12  1  0.01634100  0.88461700  0.75546400  1
  H  H13  1  0.51634100  0.61538300  0.24453600  1
  H  H14  1  0.98365900  0.38461700  0.74453600  1
  H  H15  1  0.48365900  0.11538300  0.25546400  1
  H  H16  1  0.10488100  0.46962200  0.41357200  1
  H  H17  1  0.60488100  0.03037800  0.58642800  1
  H  H18  1  0.89511900  0.96962200  0.08642800  1
  H  H19  1  0.39511900  0.53037800  0.91357200  1
  H  H20  1  0.89511900  0.53037800  0.58642800  1
  H  H21  1  0.39511900  0.96962200  0.41357200  1
  H  H22  1  0.10488100  0.03037800  0.91357200  1
  H  H23  1  0.60488100  0.46962200  0.08642800  1
  H  H24  1  0.64257400  0.38842900  0.46822900  1
  H  H25  1  0.14257400  0.11157100  0.53177100  1
  H  H26  1  0.35742600  0.88842900  0.03177100  1
  H  H27  1  0.85742600  0.61157100  0.96822900  1
  H  H28  1  0.35742600  0.61157100  0.53177100  1
  H  H29  1  0.85742600  0.88842900  0.46822900  1
  H  H30  1  0.64257400  0.11157100  0.96822900  1
  H  H31  1  0.14257400  0.38842900  0.03177100  1
  O  O0  1  0.83913200  0.20586800  0.34617100  1
  O  O1  1  0.33913200  0.29413200  0.65382900  1
  O  O2  1  0.16086800  0.70586800  0.15382900  1
  O  O3  1  0.66086800  0.79413200  0.84617100  1
  O  O4  1  0.16086800  0.79413200  0.65382900  1
  O  O5  1  0.66086800  0.70586800  0.34617100  1
  O  O6  1  0.83913200  0.29413200  0.84617100  1
  O  O7  1  0.33913200  0.20586800  0.15382900  1
  O  O8  1  0.57005400  0.05834400  0.31413200  1
  O  O9  1  0.07005400  0.44165600  0.68586800  1
  O  O10  1  0.42994600  0.55834400  0.18586800  1
  O  O11  1  0.92994600  0.94165600  0.81413200  1
  O  O12  1  0.42994600  0.94165600  0.68586800  1
  O  O13  1  0.92994600  0.55834400  0.31413200  1
  O  O14  1  0.57005400  0.44165600  0.81413200  1
  O  O15  1  0.07005400  0.05834400  0.18586800  1
  O  O16  1  0.71013600  0.07509700  0.54425600  1
  O  O17  1  0.21013600  0.42490300  0.45574400  1
  O  O18  1  0.28986400  0.57509700  0.95574400  1
  O  O19  1  0.78986400  0.92490300  0.04425600  1
  O  O20  1  0.28986400  0.92490300  0.45574400  1
  O  O21  1  0.78986400  0.57509700  0.54425600  1
  O  O22  1  0.71013600  0.42490300  0.04425600  1
  O  O23  1  0.21013600  0.07509700  0.95574400  1
  O  O24  1  0.56771900  0.30470500  0.43337700  1
  O  O25  1  0.06771900  0.19529500  0.56662300  1
  O  O26  1  0.43228100  0.80470500  0.06662300  1
  O  O27  1  0.93228100  0.69529500  0.93337700  1
  O  O28  1  0.43228100  0.69529500  0.56662300  1
  O  O29  1  0.93228100  0.80470500  0.43337700  1
  O  O30  1  0.56771900  0.19529500  0.93337700  1
  O  O31  1  0.06771900  0.30470500  0.06662300  1
loop_
_geom_bond_atom_site_label_1
_geom_bond_atom_site_label_2
_geom_bond_distance
_geom_bond_site_symmetry_2
Li0 O17 1.963621 1_555
Li0 O10 1.968401 1_555
Li0 O7 2.011971 1_555
Li0 O24 2.052545 1_555
Li1 O16 1.963621 1_555
Li1 O11 1.968401 1_545
Li1 O6 2.011971 1_555
Li1 O25 2.052545 1_655
Li2 O19 1.963621 1_555
Li2 O8 1.968401 1_565
Li2 O5 2.011971 1_555
Li2 O26 2.052545 1_555
Li3 O18 1.963621 1_555
Li3 O9 1.968401 1_555
Li3 O4 2.011971 1_555
Li3 O27 2.052545 1_455
Li4 O21 1.963621 1_555
Li4 O14 1.968401 1_555
Li4 O3 2.011971 1_555
Li4 O28 2.052545 1_555
Li5 O20 1.963621 1_555
Li5 O15 1.968401 1_565
Li5 O2 2.011971 1_555
Li5 O29 2.052545 1_455
Li6 O23 1.963621 1_555
Li6 O12 1.968401 1_545
Li6 O1 2.011971 1_555
Li6 O30 2.052545 1_555
Li7 O22 1.963621 1_555
Li7 O13 1.968401 1_555
Li7 O0 2.011971 1_555
Li7 O31 2.052545 1_655
B0 O8 1.473343 1_555
B0 O16 1.483119 1_555
B0 O0 1.490142 1_555
B0 O24 1.511948 1_555
B1 O9 1.473343 1_555
B1 O17 1.483119 1_555
B1 O1 1.490142 1_555
B1 O25 1.511948 1_555
B2 O10 1.473343 1_555
B2 O18 1.483119 1_554
B2 O2 1.490142 1_555
B2 O26 1.511948 1_555
B3 O11 1.473343 1_555
B3 O19 1.483119 1_556
B3 O3 1.490142 1_555
B3 O27 1.511948 1_555
B4 O12 1.473343 1_555
B4 O20 1.483119 1_555
B4 O4 1.490142 1_555
B4 O28 1.511948 1_555
B5 O13 1.473343 1_555
B5 O21 1.483119 1_555
B5 O5 1.490142 1_555
B5 O29 1.511948 1_555
B6 O14 1.473343 1_555
B6 O22 1.483119 1_556
B6 O6 1.490142 1_555
B6 O30 1.511948 1_555
B7 O15 1.473343 1_555
B7 O23 1.483119 1_554
B7 O7 1.490142 1_555
B7 O31 1.511948 1_555
H0 O0 1.001495 1_555
H0 O25 1.725287 1_655
H1 O1 1.001495 1_555
H1 O24 1.725287 1_555
H2 O2 1.001495 1_555
H2 O27 1.725287 1_454
H3 O3 1.001495 1_555
H3 O26 1.725287 1_556
H4 O4 1.001495 1_555
H4 O29 1.725287 1_455
H5 O5 1.001495 1_555
H5 O28 1.725287 1_555
H6 O6 1.001495 1_555
H6 O31 1.725287 1_656
H7 O7 1.001495 1_555
H7 O30 1.725287 1_554
H8 O15 0.998702 1_655
H8 O0 1.668148 1_555
H9 O14 0.998702 1_555
H9 O1 1.668148 1_555
H10 O13 0.998702 1_455
H10 O2 1.668148 1_555
H11 O12 0.998702 1_555
H11 O3 1.668148 1_555
H12 O11 0.998702 1_455
H12 O4 1.668148 1_555
H13 O10 0.998702 1_555
H13 O5 1.668148 1_555
H14 O9 0.998702 1_655
H14 O6 1.668148 1_555
H15 O8 0.998702 1_555
H15 O7 1.668148 1_555
H16 O17 0.991729 1_555
H17 O16 0.991729 1_555
H18 O19 0.991729 1_555
H19 O18 0.991729 1_555
H20 O21 0.991729 1_555
H21 O20 0.991729 1_555
H22 O23 0.991729 1_555
H23 O22 0.991729 1_555
H24 O24 0.985765 1_555
H25 O25 0.985765 1_555
H26 O26 0.985765 1_555
H27 O27 0.985765 1_555
H28 O28 0.985765 1_555
H29 O29 0.985765 1_555
H30 O30 0.985765 1_555
H31 O31 0.985765 1_555
