# generated using pymatgen
data_MgFe2Mo2(ClO4)2
_symmetry_space_group_name_H-M   'P 1'
_cell_length_a   7.09046533
_cell_length_b   6.83747381
_cell_length_c   5.81905150
_cell_angle_alpha   89.94687025
_cell_angle_beta   90.25806456
_cell_angle_gamma   90.02641422
_symmetry_Int_Tables_number   1
_chemical_formula_structural   MgFe2Mo2(ClO4)2
_chemical_formula_sum   'Mg1 Fe2 Mo2 Cl2 O8'
_cell_volume   282.10967307
_cell_formula_units_Z   1
loop_
 _symmetry_equiv_pos_site_id
 _symmetry_equiv_pos_as_xyz
  1  'x, y, z'
loop_
 _atom_site_type_symbol
 _atom_site_label
 _atom_site_symmetry_multiplicity
 _atom_site_fract_x
 _atom_site_fract_y
 _atom_site_fract_z
 _atom_site_occupancy
  Mg  Mg0  1  0.91709700  0.24983800  0.59234700  1
  Fe  Fe0  1  0.75448700  0.75004900  0.75732600  1
  Fe  Fe1  1  0.24074800  0.24979600  0.22442400  1
  Mo  Mo0  1  0.24937800  0.74994800  0.98279300  1
  Mo  Mo1  1  0.74928100  0.24972700  0.03238400  1
  Cl  Cl0  1  0.24187300  0.24989300  0.65265900  1
  Cl  Cl1  1  0.74802600  0.75148200  0.34266000  1
  O  O0  1  0.92741300  0.25042500  0.25963300  1
  O  O1  1  0.78946100  0.44243000  0.82254100  1
  O  O2  1  0.78973500  0.05719500  0.82285700  1
  O  O3  1  0.52695300  0.24934700  0.15723500  1
  O  O4  1  0.47060400  0.75025000  0.83178000  1
  O  O5  1  0.23268800  0.96570700  0.15772300  1
  O  O6  1  0.04936500  0.74983700  0.79301200  1
  O  O7  1  0.23289200  0.53407700  0.15812700  1
loop_
_geom_bond_atom_site_label_1
_geom_bond_atom_site_label_2
_geom_bond_distance
_geom_bond_site_symmetry_2
Mg0 O0 1.937791 1_555
Mg0 O2 2.087166 1_555
Mg0 O1 2.088702 1_555
Fe0 O4 2.060870 1_555
Fe0 O6 2.100179 1_655
Fe0 O2 2.149057 1_565
Fe0 O1 2.151206 1_555
Fe1 O5 1.981951 1_545
Fe1 O7 1.982087 1_555
Fe1 O3 2.068379 1_555
Fe1 O0 2.232043 1_455
Mo0 O6 1.793522 1_555
Mo0 O5 1.797377 1_556
Mo0 O7 1.797600 1_556
Mo0 O4 1.801419 1_555
Mo1 O3 1.738737 1_555
Mo1 O1 1.818818 1_554
Mo1 O2 1.818877 1_554
Mo1 O0 1.824533 1_555
Cl0 Mg0 2.327840 1_455
Cl0 Fe1 2.491899 1_555
Cl1 Fe0 2.413202 1_555
