# generated using pymatgen
data_AsSe6IF6
_symmetry_space_group_name_H-M   'P 1'
_cell_length_a   7.16780800
_cell_length_b   9.33605000
_cell_length_c   11.95419589
_cell_angle_alpha   59.74931646
_cell_angle_beta   90.00000000
_cell_angle_gamma   90.00000000
_symmetry_Int_Tables_number   1
_chemical_formula_structural   AsSe6IF6
_chemical_formula_sum   'As2 Se12 I2 F12'
_cell_volume   691.03163497
_cell_formula_units_Z   2
loop_
 _symmetry_equiv_pos_site_id
 _symmetry_equiv_pos_as_xyz
  1  'x, y, z'
loop_
 _atom_site_type_symbol
 _atom_site_label
 _atom_site_symmetry_multiplicity
 _atom_site_fract_x
 _atom_site_fract_y
 _atom_site_fract_z
 _atom_site_occupancy
  As  As0  1  0.00000000  0.00000000  0.00000000  1
  As  As1  1  0.00000000  0.00000000  0.50000000  1
  Se  Se0  1  0.25654000  0.66788600  0.38491600  1
  Se  Se1  1  0.75951000  0.55613600  0.39073100  1
  Se  Se2  1  0.24049000  0.55613600  0.89073100  1
  Se  Se3  1  0.24049000  0.44386400  0.60926900  1
  Se  Se4  1  0.74346000  0.66788600  0.88491600  1
  Se  Se5  1  0.74346000  0.33211400  0.61508400  1
  Se  Se6  1  0.25654000  0.33211400  0.11508400  1
  Se  Se7  1  0.57247600  0.76288200  0.38317700  1
  Se  Se8  1  0.42752400  0.76288200  0.88317700  1
  Se  Se9  1  0.42752400  0.23711800  0.61682300  1
  Se  Se10  1  0.57247600  0.23711800  0.11682300  1
  Se  Se11  1  0.75951000  0.44386400  0.10926900  1
  I  I0  1  0.72118200  0.50000000  0.75000000  1
  I  I1  1  0.27881800  0.50000000  0.25000000  1
  F  F0  1  0.90612400  0.92932500  0.39896300  1
  F  F1  1  0.90612400  0.07067500  0.10103700  1
  F  F2  1  0.09387600  0.07067500  0.60103700  1
  F  F3  1  0.09387600  0.92932500  0.89896300  1
  F  F4  1  0.08571200  0.79666600  0.60802500  1
  F  F5  1  0.08571200  0.20333400  0.89197500  1
  F  F6  1  0.91428800  0.20333400  0.39197500  1
  F  F7  1  0.91428800  0.79666600  0.10802500  1
  F  F8  1  0.21304800  0.04866400  0.41191600  1
  F  F9  1  0.21304800  0.95133600  0.08808400  1
  F  F10  1  0.78695200  0.95133600  0.58808400  1
  F  F11  1  0.78695200  0.04866400  0.91191600  1
loop_
_geom_bond_atom_site_label_1
_geom_bond_atom_site_label_2
_geom_bond_distance
_geom_bond_site_symmetry_2
As0 F1 1.774808 1_455
As0 F3 1.774808 1_544
As0 F9 1.779086 1_545
As0 F11 1.779086 1_454
As0 F7 1.782903 1_445
As0 F5 1.782903 1_554
As1 F0 1.774808 1_445
As1 F2 1.774808 1_555
As1 F8 1.779086 1_555
As1 F10 1.779086 1_445
As1 F6 1.782903 1_455
As1 F4 1.782903 1_545
Se0 Se7 2.428311 1_555
Se0 Se3 2.434895 1_555
Se1 Se7 2.314183 1_555
Se1 Se5 2.434895 1_555
Se2 Se8 2.314183 1_555
Se2 Se6 2.434895 1_556
Se3 Se9 2.314183 1_555
Se4 Se8 2.428311 1_555
Se5 Se9 2.428311 1_555
Se10 Se11 2.314183 1_555
Se10 Se6 2.428311 1_555
Se11 Se4 2.434895 1_554
I0 Se4 2.762322 1_555
I0 Se5 2.762322 1_555
I1 Se0 2.762322 1_555
I1 Se6 2.762322 1_555
