# generated using pymatgen
data_Na4LaScSi2SO12
_symmetry_space_group_name_H-M   'P 1'
_cell_length_a   9.53099203
_cell_length_b   9.51961428
_cell_length_c   23.02096561
_cell_angle_alpha   90.16720105
_cell_angle_beta   89.90190215
_cell_angle_gamma   119.98215781
_symmetry_Int_Tables_number   1
_chemical_formula_structural   Na4LaScSi2SO12
_chemical_formula_sum   'Na24 La6 Sc6 Si12 S6 O72'
_cell_volume   1809.20513357
_cell_formula_units_Z   6
loop_
 _symmetry_equiv_pos_site_id
 _symmetry_equiv_pos_as_xyz
  1  'x, y, z'
loop_
 _atom_site_type_symbol
 _atom_site_label
 _atom_site_symmetry_multiplicity
 _atom_site_fract_x
 _atom_site_fract_y
 _atom_site_fract_z
 _atom_site_occupancy
  Na  Na0  1  0.64962883  0.99880591  0.25910330  1
  Na  Na1  1  0.36204931  0.38060810  0.24420233  1
  Na  Na2  1  0.98966561  0.61825267  0.25813396  1
  Na  Na3  1  0.62264732  0.62656521  0.73110852  1
  Na  Na4  1  0.99159153  0.34551459  0.75132160  1
  Na  Na5  1  0.38941146  0.02250569  0.74834452  1
  Na  Na6  1  0.32098169  0.33162957  0.59203296  1
  Na  Na7  1  0.03644297  0.72033097  0.57507176  1
  Na  Na8  1  0.66212153  0.95119501  0.58887747  1
  Na  Na9  1  0.28258339  0.96965025  0.07575826  1
  Na  Na10  1  0.66982225  0.68157081  0.09638853  1
  Na  Na11  1  0.05024424  0.34070634  0.09344901  1
  Na  Na12  1  0.98684215  0.66769692  0.92510829  1
  Na  Na13  1  0.69751442  0.04748729  0.90338489  1
  Na  Na14  1  0.31934712  0.28349959  0.92222726  1
  Na  Na15  1  0.95003275  0.30074723  0.40575750  1
  Na  Na16  1  0.33091719  0.01561259  0.41986631  1
  Na  Na17  1  0.71371227  0.67726741  0.41967311  1
  Na  Na18  1  0.98995453  0.97144685  0.50018267  1
  Na  Na19  1  0.02733183  0.01373555  0.00025294  1
  Na  Na20  1  0.65516509  0.30490079  0.83210284  1
  Na  Na21  1  0.68715195  0.34180639  0.33471266  1
  Na  Na22  1  0.32057112  0.64027402  0.17116200  1
  Na  Na23  1  0.35875407  0.67834062  0.66442974  1
  La  La0  1  0.01041862  0.01639248  0.84106630  1
  La  La1  1  0.99889362  0.00158324  0.16296955  1
  La  La2  1  0.66621022  0.33350583  0.98934043  1
  La  La3  1  0.31984096  0.65695530  0.01826056  1
  La  La4  1  0.34268574  0.68204199  0.51281257  1
  La  La5  1  0.33281218  0.66625574  0.81393511  1
  Sc  Sc0  1  0.97552224  0.98790909  0.34823086  1
  Sc  Sc1  1  0.99925706  0.00249820  0.64703768  1
  Sc  Sc2  1  0.64922905  0.32364433  0.68033614  1
  Sc  Sc3  1  0.67762976  0.35620839  0.18665876  1
  Sc  Sc4  1  0.66238203  0.33509548  0.48314384  1
  Sc  Sc5  1  0.32886237  0.66885793  0.32096876  1
  Si  Si0  1  0.68255837  0.69065422  0.25182656  1
  Si  Si1  1  0.00170279  0.31127185  0.25217285  1
  Si  Si2  1  0.30843163  0.30272173  0.74320749  1
  Si  Si3  1  0.70074940  0.00892357  0.74383658  1
  Si  Si4  1  0.36671039  0.04366821  0.58218690  1
  Si  Si5  1  0.67470888  0.62896378  0.58369453  1
  Si  Si6  1  0.96997305  0.64053631  0.08651670  1
  Si  Si7  1  0.36637664  0.33212293  0.08833588  1
  Si  Si8  1  0.01762530  0.35169562  0.91434438  1
  Si  Si9  1  0.33189228  0.97735487  0.91659083  1
  Si  Si10  1  0.63990304  0.97649339  0.41546021  1
  Si  Si11  1  0.02541376  0.66983576  0.41643618  1
  S  S0  1  0.31047503  0.99777515  0.25458736  1
  S  S1  1  0.99072702  0.69295511  0.74325069  1
  S  S2  1  0.95133446  0.32458836  0.58355905  1
  S  S3  1  0.66643089  0.03316090  0.08987638  1
  S  S4  1  0.64660260  0.66976532  0.91633505  1
  S  S5  1  0.33149989  0.35858669  0.41434329  1
  O  O0  1  0.21948787  0.02028533  0.30232466  1
  O  O1  1  0.81845801  0.79630166  0.30240235  1
  O  O2  1  0.98032757  0.17763455  0.30246166  1
  O  O3  1  0.24619055  0.21296117  0.80634219  1
  O  O4  1  0.96928524  0.75520457  0.79988514  1
  O  O5  1  0.78702778  0.02570345  0.80732415  1
  O  O6  1  0.81083622  0.98889990  0.69212803  1
  O  O7  1  0.18010632  0.18738438  0.69216219  1
  O  O8  1  0.00276400  0.80335777  0.69541468  1
  O  O9  1  0.74415751  0.79411251  0.19120548  1
  O  O10  1  0.04450708  0.25402460  0.19042803  1
  O  O11  1  0.22130858  0.96979399  0.19853075  1
  O  O12  1  0.87263891  0.34335416  0.63615708  1
  O  O13  1  0.47880897  0.13500360  0.63920406  1
  O  O14  1  0.66381613  0.52085723  0.64058908  1
  O  O15  1  0.85558547  0.51994475  0.13955821  1
  O  O16  1  0.66208707  0.13212423  0.13855400  1
  O  O17  1  0.48330210  0.33077686  0.14149734  1
  O  O18  1  0.43558704  0.31701453  0.02449342  1
  O  O19  1  0.88420646  0.56736892  0.02339788  1
  O  O20  1  0.67526896  0.11140741  0.03282926  1
  O  O21  1  0.46325730  0.15418553  0.52433102  1
  O  O22  1  0.68951775  0.53539801  0.52495448  1
  O  O23  1  0.85574915  0.31277181  0.53046699  1
  O  O24  1  0.56500148  0.68194377  0.96973996  1
  O  O25  1  0.12673455  0.44226809  0.97241157  1
  O  O26  1  0.32853825  0.87893833  0.97614706  1
  O  O27  1  0.58003045  0.86912854  0.47552288  1
  O  O28  1  0.29794518  0.41954157  0.46933662  1
  O  O29  1  0.12894212  0.70557494  0.47732278  1
  O  O30  1  0.12923765  0.64315188  0.36422785  1
  O  O31  1  0.50998367  0.87179079  0.36345194  1
  O  O32  1  0.35173570  0.47038832  0.36574230  1
  O  O33  1  0.11213078  0.45389570  0.85554122  1
  O  O34  1  0.34771632  0.88500985  0.85831056  1
  O  O35  1  0.55093139  0.66214633  0.86400009  1
  O  O36  1  0.01010215  0.83493087  0.40653676  1
  O  O37  1  0.82432156  0.00260707  0.40546970  1
  O  O38  1  0.19406158  0.19179851  0.40403484  1
  O  O39  1  0.99374358  0.16858220  0.91661522  1
  O  O40  1  0.16015759  0.97890288  0.91728362  1
  O  O41  1  0.81085733  0.81330172  0.91441545  1
  O  O42  1  0.96241071  0.17293405  0.58592544  1
  O  O43  1  0.18467984  0.02768181  0.58530764  1
  O  O44  1  0.83711762  0.81417331  0.58641649  1
  O  O45  1  0.98868120  0.82162399  0.09051661  1
  O  O46  1  0.81339421  0.01617312  0.09141987  1
  O  O47  1  0.18184019  0.17403520  0.09067567  1
  O  O48  1  0.69234530  0.17794842  0.73863715  1
  O  O49  1  0.49291174  0.32841102  0.73867258  1
  O  O50  1  0.85075084  0.52650089  0.73641088  1
  O  O51  1  0.67009215  0.51033751  0.24862026  1
  O  O52  1  0.83046902  0.31729996  0.24912303  1
  O  O53  1  0.47562379  0.14424453  0.25082679  1
  O  O54  1  0.65752645  0.51975720  0.91561758  1
  O  O55  1  0.84078895  0.34193594  0.91401872  1
  O  O56  1  0.48971140  0.16111588  0.91445856  1
  O  O57  1  0.65275557  0.15629414  0.42077650  1
  O  O58  1  0.48584977  0.35342773  0.41851352  1
  O  O59  1  0.84412364  0.50330479  0.41976020  1
  O  O60  1  0.36655060  0.50533827  0.09324542  1
  O  O61  1  0.14832201  0.65321818  0.09243566  1
  O  O62  1  0.51827198  0.87022646  0.09192924  1
  O  O63  1  0.34484825  0.85960845  0.58274980  1
  O  O64  1  0.50591931  0.63987003  0.58397366  1
  O  O65  1  0.11895391  0.46712653  0.58026214  1
  O  O66  1  0.32698720  0.85114219  0.26247949  1
  O  O67  1  0.50148641  0.66642740  0.26457379  1
  O  O68  1  0.15883608  0.49456174  0.26352864  1
  O  O69  1  0.31957556  0.48100603  0.73961324  1
  O  O70  1  0.14302316  0.68480443  0.74227501  1
  O  O71  1  0.51835590  0.84752635  0.74050996  1
loop_
_geom_bond_atom_site_label_1
_geom_bond_atom_site_label_2
_geom_bond_distance
_geom_bond_site_symmetry_2
Na0 O52 2.644980 1_565
Na0 O53 2.645969 1_565
Na0 O66 2.667908 1_555
Na0 O31 2.720591 1_555
Na0 O67 2.749117 1_555
Na0 O2 2.909783 1_565
Na0 O9 2.963784 1_555
Na0 O16 3.032350 1_565
Na1 O67 2.402081 1_555
Na1 O51 2.555729 1_555
Na1 O68 2.687037 1_555
Na1 O17 2.771792 1_555
Na1 O10 2.916045 1_555
Na1 O32 2.939017 1_555
Na1 O53 2.948702 1_555
Na2 O68 2.429130 1_655
Na2 O52 2.491215 1_555
Na2 O51 2.693357 1_555
Na2 O30 2.735620 1_655
Na2 O66 2.852609 1_655
Na2 O15 2.960075 1_555
Na2 O1 3.053306 1_555
Na3 O14 2.426646 1_555
Na3 O49 2.471788 1_555
Na3 O69 2.510273 1_555
Na3 O71 2.746956 1_555
Na3 O50 2.778528 1_555
Na4 O48 2.493465 1_555
Na4 O33 2.636477 1_655
Na4 O50 2.684163 1_555
Na4 O69 2.734514 1_655
Na4 O70 2.811135 1_655
Na4 O12 2.881198 1_555
Na4 O5 2.968835 1_555
Na5 O48 2.511070 1_555
Na5 O71 2.522120 1_545
Na5 O49 2.575834 1_555
Na5 O13 2.698521 1_555
Na5 O34 2.788512 1_545
Na5 O70 2.884825 1_545
Na6 O43 2.514951 1_555
Na6 O64 2.565988 1_555
Na6 O7 2.677101 1_555
Na6 O65 2.816211 1_555
Na7 O29 2.444554 1_555
Na7 O44 2.483658 1_455
Na7 O43 2.545168 1_565
Na7 O63 2.556274 1_555
Na7 O65 2.887792 1_555
Na7 O8 2.939500 1_555
Na8 O64 2.569320 1_555
Na8 O42 2.571721 1_565
Na8 O44 2.580727 1_555
Na8 O6 2.699206 1_555
Na8 O63 2.699981 1_555
Na8 O27 2.723294 1_555
Na9 O45 2.449923 1_455
Na9 O26 2.561072 1_554
Na9 O47 2.586050 1_565
Na9 O61 2.647899 1_555
Na9 O62 2.865373 1_555
Na9 O11 2.885203 1_555
Na10 O9 2.376402 1_555
Na10 O60 2.515559 1_555
Na10 O45 2.642278 1_555
Na10 O46 2.770712 1_565
Na10 O62 2.813633 1_555
Na11 O10 2.373484 1_555
Na11 O47 2.466319 1_555
Na11 O60 2.611996 1_555
Na11 O61 2.635490 1_555
Na11 O46 2.769809 1_455
Na11 O25 2.921397 1_554
Na12 O19 2.461760 1_556
Na12 O40 2.578538 1_655
Na12 O41 2.668766 1_555
Na12 O55 2.702209 1_555
Na12 O54 2.732253 1_555
Na13 O5 2.414311 1_555
Na13 O55 2.439916 1_555
Na13 O39 2.478096 1_555
Na13 O56 2.701038 1_555
Na14 O56 2.431944 1_555
Na14 O40 2.514852 1_545
Na14 O18 2.554022 1_556
Na14 O39 2.729748 1_455
Na14 O3 2.753565 1_555
Na14 O54 2.868007 1_555
Na15 O37 2.468209 1_555
Na15 O57 2.478645 1_555
Na15 O59 2.604171 1_555
Na15 O2 2.726034 1_555
Na16 O38 2.615151 1_555
Na16 O57 2.664099 1_555
Na16 O36 2.673156 1_545
Na16 O21 2.728269 1_555
Na16 O58 2.788827 1_555
Na16 O29 2.915783 1_545
Na16 O0 2.917133 1_555
Na16 O31 2.965024 1_545
Na17 O36 2.467040 1_655
Na17 O59 2.518882 1_555
Na17 O22 2.730803 1_555
Na17 O58 2.743947 1_555
Na17 O37 2.748060 1_565
Na17 O1 2.906370 1_555
Na17 O27 2.986450 1_555
Na18 O44 2.476318 1_555
Na18 O43 2.566054 1_665
Na18 O36 2.570017 1_655
Na18 O37 2.796029 1_565
Na18 O42 2.850184 1_565
Na18 O38 3.002938 1_665
Na19 O40 2.401754 1_544
Na19 O39 2.544201 1_454
Na19 O47 2.564441 1_555
Na19 O45 2.672908 1_445
Na19 O41 2.803516 1_444
Na19 O46 2.931778 1_455
Na20 O56 2.408806 1_555
Na20 O55 2.488897 1_555
Na20 O48 2.574115 1_555
Na20 O49 2.725408 1_555
Na20 O54 2.794907 1_555
Na20 O50 2.976699 1_555
Na21 O52 2.471670 1_555
Na21 O59 2.475640 1_555
Na21 O57 2.567342 1_555
Na21 O51 2.609370 1_555
Na21 O53 2.744710 1_555
Na21 O58 2.759211 1_555
Na22 O60 2.367693 1_555
Na22 O61 2.491725 1_555
Na22 O68 2.586632 1_555
Na22 O67 2.690735 1_555
Na22 O62 2.749270 1_555
Na22 O66 2.881973 1_555
Na23 O71 2.349357 1_555
Na23 O69 2.445345 1_555
Na23 O64 2.456135 1_555
Na23 O63 2.603719 1_555
Na23 O70 2.748849 1_555
Na23 O65 2.901773 1_555
La0 O3 2.233859 1_555
La0 O5 2.310659 1_455
La0 O39 2.315938 1_455
La0 O40 2.400844 1_545
La0 O4 2.499590 1_445
La0 O41 2.557252 1_445
La1 O10 2.304685 1_655
La1 O9 2.329688 1_545
La1 O45 2.354478 1_545
La1 O47 2.377035 1_655
La1 O11 2.429820 1_645
La1 O46 2.472833 1_555
La2 O18 2.271740 1_556
La2 O19 2.293528 1_556
La2 O55 2.374697 1_555
La2 O20 2.382245 1_556
La2 O56 2.393516 1_555
La2 O54 2.489101 1_555
La3 O25 2.216517 1_554
La3 O26 2.291065 1_554
La3 O61 2.349929 1_555
La3 O60 2.433237 1_555
La3 O24 2.490209 1_554
La3 O62 2.593869 1_555
La4 O27 2.236449 1_555
La4 O29 2.308838 1_555
La4 O63 2.323647 1_555
La4 O64 2.429427 1_555
La4 O28 2.519905 1_555
La4 O65 2.605908 1_555
La5 O34 2.256727 1_555
La5 O33 2.276578 1_555
La5 O35 2.396129 1_555
La5 O69 2.411229 1_555
La5 O71 2.432913 1_555
La5 O70 2.521077 1_555
O0 S0 1.478768 1_545
O0 Sc0 2.428118 1_445
O1 Si0 1.655638 1_555
O1 Sc0 1.986505 1_555
O2 Si1 1.657995 1_655
O2 Sc0 2.074269 1_545
O3 Si2 1.640781 1_555
O4 S1 1.486064 1_555
O5 Si3 1.645997 1_555
O6 Si3 1.657870 1_565
O6 Sc1 2.020232 1_565
O7 Si2 1.654552 1_555
O7 Sc1 2.027631 1_455
O8 S1 1.488713 1_455
O8 Sc1 2.216083 1_465
O9 Si0 1.639988 1_555
O10 Si1 1.643042 1_555
O11 S0 1.494663 1_555
O12 S2 1.479934 1_555
O12 Sc2 2.279905 1_555
O13 Si4 1.640143 1_555
O13 Sc2 1.959541 1_555
O14 Si5 1.638902 1_555
O14 Sc2 2.032215 1_555
O15 Si6 1.658373 1_555
O15 Sc3 1.960431 1_555
O16 S3 1.475694 1_555
O16 Sc3 2.338756 1_555
O17 Si7 1.660986 1_555
O17 Sc3 2.031472 1_555
O18 Si7 1.645037 1_555
O19 Si6 1.641289 1_555
O20 S3 1.493071 1_555
O21 Si4 1.662518 1_555
O21 Sc4 2.050241 1_555
O22 Si5 1.661277 1_555
O22 Sc4 2.031375 1_555
O23 S2 1.495677 1_555
O23 Sc4 2.242377 1_555
O24 S4 1.488568 1_555
O25 Si8 1.647320 1_555
O26 Si9 1.654071 1_555
O27 Si10 1.644612 1_555
O28 S5 1.490484 1_555
O29 Si11 1.649389 1_555
O30 Si11 1.653369 1_555
O30 Sc5 2.049681 1_555
O31 Si10 1.650698 1_555
O31 Sc5 2.080908 1_555
O32 S5 1.490909 1_555
O32 Sc5 2.259069 1_555
O33 Si8 1.648647 1_555
O34 Si9 1.649410 1_555
O35 S4 1.491782 1_555
O36 Si11 1.665752 1_555
O36 Sc0 2.126900 1_455
O37 Si10 1.663253 1_545
O37 Sc0 2.006636 1_545
O38 S5 1.487730 1_555
O38 Sc0 2.389580 1_445
O39 Si8 1.642289 1_655
O40 Si9 1.644266 1_555
O41 S4 1.477157 1_555
O42 S2 1.500386 1_555
O42 Sc1 2.306413 1_555
O43 Si4 1.665551 1_555
O43 Sc1 2.184059 1_455
O44 Si5 1.667503 1_555
O44 Sc1 2.184847 1_565
O45 Si6 1.644374 1_555
O46 S3 1.488621 1_555
O47 Si7 1.647979 1_555
O48 Si3 1.655222 1_555
O48 Sc2 2.115731 1_555
O49 Si2 1.652879 1_555
O49 Sc2 2.021298 1_555
O50 S1 1.483893 1_555
O50 Sc2 2.317662 1_555
O51 Si0 1.661789 1_555
O51 Sc3 2.070127 1_555
O52 Si1 1.663056 1_655
O52 Sc3 2.208291 1_555
O53 S0 1.495303 1_545
O53 Sc3 2.466859 1_555
O54 S4 1.482837 1_555
O55 Si8 1.641000 1_655
O56 Si9 1.641792 1_545
O57 Si10 1.657994 1_545
O57 Sc4 2.190235 1_555
O58 S5 1.499502 1_555
O58 Sc4 2.319184 1_555
O59 Si11 1.663470 1_655
O59 Sc4 2.219561 1_555
O60 Si7 1.651657 1_555
O61 Si6 1.648696 1_455
O62 S3 1.487683 1_565
O63 Si4 1.657991 1_565
O64 Si5 1.663050 1_555
O65 S2 1.494258 1_455
O66 S0 1.492456 1_555
O66 Sc5 2.206632 1_555
O67 Si0 1.648797 1_555
O67 Sc5 2.103219 1_555
O68 Si1 1.656108 1_555
O68 Sc5 2.105908 1_555
O69 Si2 1.649009 1_555
O70 S1 1.491951 1_455
O71 Si3 1.648876 1_565
