# generated using pymatgen
data_Na5Y2SiSn2P5O24
_symmetry_space_group_name_H-M   'P 1'
_cell_length_a   9.16290989
_cell_length_b   9.16394411
_cell_length_c   23.17516322
_cell_angle_alpha   89.97318613
_cell_angle_beta   89.86825243
_cell_angle_gamma   120.27020058
_symmetry_Int_Tables_number   1
_chemical_formula_structural   Na5Y2SiSn2P5O24
_chemical_formula_sum   'Na15 Y6 Si3 Sn6 P15 O72'
_cell_volume   1680.65452189
_cell_formula_units_Z   3
loop_
 _symmetry_equiv_pos_site_id
 _symmetry_equiv_pos_as_xyz
  1  'x, y, z'
loop_
 _atom_site_type_symbol
 _atom_site_label
 _atom_site_symmetry_multiplicity
 _atom_site_fract_x
 _atom_site_fract_y
 _atom_site_fract_z
 _atom_site_occupancy
  Na  Na0  1  0.00229766  0.64121871  0.24979000  1
  Na  Na1  1  0.63168847  0.64091205  0.74972169  1
  Na  Na2  1  0.37406246  0.99901887  0.74945109  1
  Na  Na3  1  0.66351959  0.97122617  0.58638130  1
  Na  Na4  1  0.29842438  0.96926200  0.08131172  1
  Na  Na5  1  0.67823185  0.69704005  0.08017956  1
  Na  Na6  1  0.02732197  0.33375028  0.08278977  1
  Na  Na7  1  0.96589247  0.30093681  0.41737026  1
  Na  Na8  1  0.33717112  0.03433569  0.42063131  1
  Na  Na9  1  0.00701679  0.99001703  0.50302462  1
  Na  Na10  1  0.00002908  0.99252898  0.99335437  1
  Na  Na11  1  0.68071892  0.32894364  0.83580270  1
  Na  Na12  1  0.65494835  0.33477721  0.33149574  1
  Na  Na13  1  0.34103326  0.66597779  0.16974672  1
  Na  Na14  1  0.31785997  0.65510939  0.66493079  1
  Y  Y0  1  0.99333069  0.99476711  0.34906298  1
  Y  Y1  1  0.00029555  0.00190257  0.15255976  1
  Y  Y2  1  0.66888889  0.33793437  0.97680481  1
  Y  Y3  1  0.66206599  0.33969749  0.48735028  1
  Y  Y4  1  0.34419110  0.66786798  0.31407401  1
  Y  Y5  1  0.32782764  0.66259902  0.81339429  1
  Si  Si0  1  0.71854175  0.01105626  0.74745118  1
  Si  Si1  1  0.36083373  0.02933083  0.58398426  1
  Si  Si2  1  0.96741615  0.62803294  0.08317729  1
  Sn  Sn0  1  0.99675688  0.00235125  0.85208139  1
  Sn  Sn1  1  0.00429968  0.00293385  0.64831280  1
  Sn  Sn2  1  0.67076420  0.32987435  0.68268903  1
  Sn  Sn3  1  0.66741433  0.33057481  0.18209033  1
  Sn  Sn4  1  0.32889293  0.66611522  0.01197574  1
  Sn  Sn5  1  0.33212983  0.66519622  0.52111702  1
  P  P0  1  0.31140662  0.00969901  0.24846417  1
  P  P1  1  0.69761849  0.68624881  0.24481065  1
  P  P2  1  0.98964448  0.30328339  0.24842882  1
  P  P3  1  0.29280343  0.28399387  0.74826028  1
  P  P4  1  0.99073362  0.70995298  0.74832807  1
  P  P5  1  0.96782272  0.33466955  0.58387830  1
  P  P6  1  0.66611328  0.63409247  0.58772917  1
  P  P7  1  0.65772608  0.03479075  0.08215814  1
  P  P8  1  0.37789512  0.34215339  0.08265519  1
  P  P9  1  0.63461214  0.67889040  0.91518857  1
  P  P10  1  0.04164634  0.36039066  0.91707537  1
  P  P11  1  0.31960722  0.95912037  0.91409111  1
  P  P12  1  0.62823617  0.96051394  0.42160654  1
  P  P13  1  0.33067918  0.37320662  0.41971603  1
  P  P14  1  0.04510902  0.66774529  0.41745409  1
  O  O0  1  0.22829009  0.03106388  0.30364503  1
  O  O1  1  0.81491970  0.77591920  0.29685907  1
  O  O2  1  0.97267525  0.19935599  0.30320467  1
  O  O3  1  0.21485893  0.16880824  0.80226823  1
  O  O4  1  0.95636468  0.78730257  0.80288354  1
  O  O5  1  0.83366235  0.03646704  0.80468620  1
  O  O6  1  0.79892292  0.97514896  0.68926414  1
  O  O7  1  0.18535365  0.20348162  0.69395203  1
  O  O8  1  0.02577885  0.82461720  0.69502572  1
  O  O9  1  0.77686226  0.78433898  0.18863333  1
  O  O10  1  0.00927450  0.22273032  0.19297688  1
  O  O11  1  0.20295489  0.98513359  0.19437875  1
  O  O12  1  0.88294014  0.36809496  0.63672051  1
  O  O13  1  0.49149903  0.11988950  0.64002731  1
  O  O14  1  0.64051957  0.52574692  0.64337308  1
  O  O15  1  0.88903556  0.50845371  0.14283198  1
  O  O16  1  0.61794991  0.10997687  0.13701484  1
  O  O17  1  0.49137089  0.37511143  0.13737088  1
  O  O18  1  0.45047160  0.29930738  0.03087559  1
  O  O19  1  0.83746290  0.54074064  0.03132464  1
  O  O20  1  0.69051486  0.14735782  0.03029206  1
  O  O21  1  0.43813593  0.13256907  0.52474060  1
  O  O22  1  0.69680908  0.55714603  0.53452097  1
  O  O23  1  0.86240879  0.30190087  0.52886848  1
  O  O24  1  0.54871761  0.69976146  0.97254551  1
  O  O25  1  0.14391372  0.44163053  0.97532495  1
  O  O26  1  0.29704220  0.85215731  0.97140101  1
  O  O27  1  0.54671553  0.85578209  0.47825869  1
  O  O28  1  0.30633297  0.46080595  0.47430755  1
  O  O29  1  0.16253223  0.69414355  0.47055722  1
  O  O30  1  0.12152864  0.64576428  0.36120984  1
  O  O31  1  0.51711930  0.87543516  0.36908744  1
  O  O32  1  0.34804705  0.47415238  0.36541258  1
  O  O33  1  0.13248319  0.47137933  0.86561953  1
  O  O34  1  0.33892792  0.87434740  0.86018471  1
  O  O35  1  0.53257475  0.66294095  0.86118321  1
  O  O36  1  0.03530003  0.83194904  0.41543485  1
  O  O37  1  0.80794244  0.98532711  0.41679908  1
  O  O38  1  0.16593108  0.19625470  0.41724252  1
  O  O39  1  0.03376502  0.18624001  0.91393109  1
  O  O40  1  0.15332123  0.96828966  0.91115514  1
  O  O41  1  0.81241254  0.84273325  0.91373226  1
  O  O42  1  0.97576167  0.16953406  0.59193685  1
  O  O43  1  0.17256936  0.00737738  0.59181736  1
  O  O44  1  0.81932676  0.81813816  0.59247951  1
  O  O45  1  0.00113761  0.82096104  0.08860583  1
  O  O46  1  0.81308672  0.01217361  0.09004397  1
  O  O47  1  0.19442004  0.19406889  0.09081858  1
  O  O48  1  0.69157167  0.17803573  0.74357617  1
  O  O49  1  0.47283309  0.30072120  0.74257155  1
  O  O50  1  0.82353300  0.53455527  0.74141201  1
  O  O51  1  0.69189919  0.51214229  0.24270240  1
  O  O52  1  0.82513469  0.31627812  0.24554553  1
  O  O53  1  0.48834171  0.17182761  0.24255824  1
  O  O54  1  0.65180792  0.52179424  0.91952470  1
  O  O55  1  0.86452231  0.33751927  0.92065387  1
  O  O56  1  0.47482821  0.13510370  0.91951725  1
  O  O57  1  0.64683651  0.13870998  0.42457946  1
  O  O58  1  0.48297206  0.34540896  0.42268507  1
  O  O59  1  0.87181014  0.50595487  0.42382727  1
  O  O60  1  0.37106639  0.51014901  0.07604513  1
  O  O61  1  0.15611432  0.63953929  0.07597958  1
  O  O62  1  0.49558865  0.85422630  0.07591802  1
  O  O63  1  0.35692469  0.84428488  0.58075658  1
  O  O64  1  0.50487666  0.65148512  0.58194974  1
  O  O65  1  0.14794941  0.49159905  0.57937064  1
  O  O66  1  0.32262736  0.84737843  0.25210419  1
  O  O67  1  0.52133994  0.66344879  0.25013447  1
  O  O68  1  0.14140127  0.48580031  0.25169236  1
  O  O69  1  0.32269239  0.46432589  0.75298666  1
  O  O70  1  0.14788695  0.69163034  0.75310239  1
  O  O71  1  0.52800986  0.84279678  0.75069358  1
loop_
_geom_bond_atom_site_label_1
_geom_bond_atom_site_label_2
_geom_bond_distance
_geom_bond_site_symmetry_2
Na0 O68 2.342083 1_555
Na0 O51 2.475077 1_455
Na0 O66 2.568579 1_555
Na0 O52 2.576727 1_455
Na0 O15 2.728239 1_455
Na0 O1 2.791193 1_455
Na0 O30 2.798233 1_555
Na1 O50 2.408933 1_555
Na1 O69 2.453670 1_555
Na1 O71 2.469323 1_555
Na1 O14 2.698600 1_555
Na1 O49 2.700322 1_555
Na1 O35 2.777168 1_555
Na1 O4 2.857086 1_555
Na1 O6 2.991169 1_555
Na2 O49 2.442300 1_565
Na2 O71 2.464996 1_555
Na2 O70 2.520028 1_555
Na2 O48 2.521938 1_565
Na2 O13 2.756602 1_565
Na2 O34 2.759946 1_555
Na2 O3 2.886015 1_565
Na3 O63 2.443266 1_555
Na3 O44 2.458894 1_555
Na3 O42 2.502968 1_565
Na3 O64 2.532977 1_555
Na3 O6 2.682226 1_555
Na3 O27 2.723384 1_555
Na3 O13 2.836110 1_565
Na3 O23 2.949224 1_565
Na4 O45 2.358227 1_555
Na4 O62 2.511936 1_555
Na4 O61 2.621900 1_555
Na4 O47 2.679465 1_565
Na4 O26 2.762068 1_554
Na4 O11 2.787597 1_555
Na4 O16 2.848507 1_565
Na4 O18 2.862871 1_565
Na5 O60 2.450654 1_555
Na5 O46 2.514613 1_565
Na5 O45 2.587943 1_655
Na5 O9 2.656603 1_555
Na5 O62 2.704871 1_555
Na5 O19 2.750082 1_555
Na5 O24 2.770298 1_554
Na5 O17 2.878391 1_555
Na6 O61 2.436163 1_555
Na6 O47 2.448331 1_555
Na6 O46 2.594606 1_455
Na6 O25 2.691099 1_554
Na6 O10 2.722006 1_555
Na6 O60 2.724443 1_555
Na6 O15 2.853776 1_455
Na6 O20 2.937147 1_455
Na7 O59 2.434719 1_555
Na7 O38 2.460199 1_655
Na7 O37 2.497979 1_545
Na7 O57 2.529952 1_555
Na7 O23 2.751978 1_555
Na7 O2 2.816126 1_555
Na8 O36 2.436184 1_545
Na8 O58 2.464609 1_555
Na8 O57 2.497890 1_555
Na8 O21 2.580755 1_555
Na8 O38 2.649049 1_555
Na8 O0 2.886013 1_555
Na8 O29 2.928650 1_545
Na8 O31 2.946039 1_545
Na9 O43 2.516401 1_565
Na9 O36 2.581609 1_555
Na9 O38 2.617847 1_565
Na9 O44 2.643119 1_455
Na9 O37 2.694469 1_455
Na9 O42 2.740373 1_465
Na10 O41 2.425392 1_455
Na10 O40 2.440048 1_555
Na10 O39 2.464921 1_565
Na10 O45 2.712547 1_556
Na10 O46 2.877731 1_466
Na10 O47 2.896811 1_566
Na11 O55 2.567381 1_555
Na11 O48 2.575091 1_555
Na11 O56 2.660809 1_555
Na11 O54 2.725969 1_555
Na11 O50 2.746837 1_555
Na11 O49 2.808288 1_555
Na12 O51 2.535715 1_555
Na12 O53 2.554953 1_555
Na12 O52 2.584710 1_555
Na12 O58 2.664294 1_555
Na12 O57 2.783608 1_555
Na12 O59 2.805022 1_555
Na13 O67 2.500713 1_555
Na13 O68 2.571971 1_555
Na13 O66 2.592085 1_555
Na13 O60 2.688288 1_555
Na13 O62 2.688737 1_555
Na13 O61 2.693596 1_555
Na14 O65 2.503191 1_555
Na14 O63 2.511360 1_555
Na14 O64 2.584218 1_555
Na14 O70 2.687861 1_555
Na14 O69 2.701524 1_555
Na14 O71 2.701557 1_555
O0 P0 1.549137 1_555
O0 Y0 2.262934 1_445
O1 P1 1.549822 1_555
O1 Y0 2.205518 1_555
O2 P2 1.546402 1_555
O2 Y0 2.244356 1_545
O3 P3 1.557406 1_555
O3 Sn0 2.137240 1_455
O4 P4 1.556984 1_555
O4 Sn0 2.142270 1_565
O5 Si0 1.638724 1_555
O5 Sn0 2.003932 1_555
O6 Si0 1.646014 1_565
O6 Sn1 2.003843 1_665
O7 P3 1.540136 1_555
O7 Sn1 2.045632 1_555
O8 P4 1.545955 1_455
O8 Sn1 2.050487 1_565
O9 P1 1.538431 1_555
O9 Y1 2.177347 1_665
O10 P2 1.537027 1_455
O10 Y1 2.193986 1_555
O11 P0 1.545883 1_565
O11 Y1 2.169556 1_565
O12 P5 1.560326 1_555
O12 Sn2 2.083494 1_555
O13 Si1 1.677953 1_555
O13 Sn2 2.049671 1_555
O14 P6 1.570484 1_555
O14 Sn2 2.151750 1_555
O15 Si2 1.681824 1_555
O15 Sn3 2.064355 1_555
O16 P7 1.573420 1_555
O16 Sn3 2.112764 1_555
O17 P8 1.571655 1_555
O17 Sn3 2.124537 1_555
O18 P8 1.515393 1_555
O18 Y2 2.230417 1_554
O19 Si2 1.596571 1_555
O19 Y2 2.133875 1_554
O20 P7 1.511265 1_555
O20 Y2 2.230210 1_554
O21 Si1 1.612627 1_555
O21 Y3 2.151201 1_555
O22 P6 1.515270 1_555
O22 Y3 2.152046 1_555
O23 P5 1.536884 1_555
O23 Y3 2.250442 1_555
O24 P9 1.603162 1_555
O24 Sn4 2.086239 1_556
O25 P10 1.599416 1_555
O25 Sn4 2.078284 1_556
O26 P11 1.600241 1_555
O26 Sn4 2.092219 1_556
O27 P12 1.573027 1_555
O27 Sn5 2.104817 1_555
O28 P13 1.573221 1_555
O28 Sn5 2.073076 1_555
O29 P14 1.573113 1_555
O29 Sn5 2.069286 1_555
O30 P14 1.538887 1_555
O30 Y4 2.229304 1_555
O31 P12 1.527164 1_555
O31 Y4 2.174239 1_555
O32 P13 1.521328 1_555
O32 Y4 2.151652 1_555
O33 P10 1.513321 1_555
O33 Y5 2.136658 1_555
O34 P11 1.527780 1_555
O34 Y5 2.180611 1_555
O35 P9 1.526354 1_555
O35 Y5 2.179428 1_555
O36 P14 1.552693 1_555
O36 Y0 2.306329 1_455
O37 P12 1.548280 1_555
O37 Y0 2.279642 1_555
O38 P13 1.563406 1_555
O38 Y0 2.340375 1_445
O39 P10 1.562494 1_555
O39 Sn0 2.106579 1_455
O40 P11 1.569326 1_555
O40 Sn0 2.118919 1_465
O41 P9 1.563109 1_555
O41 Sn0 2.128420 1_565
O42 P5 1.562371 1_555
O42 Sn1 2.123304 1_655
O43 Si1 1.642520 1_555
O43 Sn1 2.005129 1_555
O44 P6 1.562490 1_555
O44 Sn1 2.129142 1_665
O45 Si2 1.639119 1_455
O45 Y1 2.227414 1_565
O46 P7 1.549672 1_555
O46 Y1 2.285720 1_655
O47 P8 1.549821 1_555
O47 Y1 2.267254 1_555
O48 Si0 1.670875 1_555
O48 Sn2 2.056800 1_555
O49 P3 1.583066 1_555
O49 Sn2 2.187730 1_555
O50 P4 1.573261 1_555
O50 Sn2 2.166536 1_555
O51 P1 1.570526 1_555
O51 Sn3 2.102207 1_555
O52 P2 1.572352 1_555
O52 Sn3 2.113953 1_555
O53 P0 1.557233 1_555
O53 Sn3 2.086494 1_555
O54 P9 1.528414 1_555
O54 Y2 2.211386 1_555
O55 P10 1.530121 1_655
O55 Y2 2.214244 1_555
O56 P11 1.525806 1_545
O56 Y2 2.249548 1_555
O57 P12 1.555631 1_545
O57 Y3 2.296168 1_555
O58 P13 1.541327 1_555
O58 Y3 2.244861 1_555
O59 P14 1.538417 1_655
O59 Y3 2.283635 1_555
O60 P8 1.579363 1_555
O60 Sn4 2.225823 1_555
O61 Si2 1.686216 1_455
O61 Sn4 2.089503 1_555
O62 P7 1.577633 1_565
O62 Sn4 2.204285 1_555
O63 Si1 1.679686 1_565
O63 Sn5 2.069551 1_555
O64 P6 1.569819 1_555
O64 Sn5 2.172419 1_555
O65 P5 1.552185 1_455
O65 Sn5 2.117149 1_555
O66 P0 1.544163 1_565
O66 Y4 2.265939 1_555
O67 P1 1.525337 1_555
O67 Y4 2.210755 1_555
O68 P2 1.546826 1_455
O68 Y4 2.283770 1_555
O69 P3 1.536868 1_555
O69 Y5 2.275949 1_555
O70 P4 1.535726 1_455
O70 Y5 2.279057 1_555
O71 Si0 1.648175 1_565
O71 Y5 2.265986 1_555
