# generated using pymatgen
data_PH6NO4
_symmetry_space_group_name_H-M   'P 1'
_cell_length_a   6.64361723
_cell_length_b   6.64361723
_cell_length_c   6.64361723
_cell_angle_alpha   117.10858475
_cell_angle_beta   105.79289102
_cell_angle_gamma   105.79289102
_symmetry_Int_Tables_number   1
_chemical_formula_structural   PH6NO4
_chemical_formula_sum   'P2 H12 N2 O8'
_cell_volume   222.68555380
_cell_formula_units_Z   2
loop_
 _symmetry_equiv_pos_site_id
 _symmetry_equiv_pos_as_xyz
  1  'x, y, z'
loop_
 _atom_site_type_symbol
 _atom_site_label
 _atom_site_symmetry_multiplicity
 _atom_site_fract_x
 _atom_site_fract_y
 _atom_site_fract_z
 _atom_site_occupancy
  P  P0  1  0.50000000  0.75000000  0.25000000  1
  P  P1  1  0.00000000  0.00000000  -0.00000000  1
  H  H0  1  0.64385467  0.23587982  0.72588793  1
  H  H1  1  0.99000811  0.51412018  0.65797485  1
  H  H2  1  0.35614533  0.08203326  0.59202515  1
  H  H3  1  0.00999189  0.66796674  0.52411207  1
  H  H4  1  0.50999189  0.27411207  0.91796674  1
  H  H5  1  0.14385467  0.47588793  0.48587982  1
  H  H6  1  0.49000811  0.40797485  0.76412018  1
  H  H7  1  0.85614533  0.34202515  0.33203326  1
  H  H8  1  0.86974408  0.99474408  0.62500000  1
  H  H9  1  0.13025592  0.75525592  0.12500000  1
  H  H10  1  0.36974408  0.37500000  0.24474408  1
  H  H11  1  0.63025592  0.87500000  0.00525592  1
  N  N0  1  0.50000000  0.25000000  0.75000000  1
  N  N1  1  0.00000000  0.50000000  0.50000000  1
  O  O0  1  0.72334573  0.00352793  0.47923298  1
  O  O1  1  0.97570505  0.74647207  0.96981780  1
  O  O2  1  0.27665427  0.75588725  0.28018220  1
  O  O3  1  0.02429495  0.99411275  0.77076702  1
  O  O4  1  0.52429495  0.52076702  0.24411275  1
  O  O5  1  0.22334573  0.22923298  0.25352793  1
  O  O6  1  0.47570505  0.71981780  0.99647207  1
  O  O7  1  0.77665427  0.03018220  0.00588725  1
loop_
_geom_bond_atom_site_label_1
_geom_bond_atom_site_label_2
_geom_bond_distance
_geom_bond_site_symmetry_2
H0 N0 1.032615 1_555
H1 N1 1.032615 1_655
H2 N0 1.032615 1_555
H3 N1 1.032615 1_555
H4 N0 1.032615 1_555
H5 N1 1.032615 1_555
H6 N0 1.032615 1_555
H7 N1 1.032615 1_655
H8 O0 1.207031 1_565
H8 O3 1.207031 1_655
H9 O2 1.207031 1_555
H9 O1 1.207031 1_454
H10 O4 1.207031 1_555
H10 O5 1.207031 1_555
H11 O6 1.207031 1_554
H11 O7 1.207031 1_565
O0 P0 1.558803 1_545
O1 P1 1.558803 1_666
O2 P0 1.558803 1_555
O3 P1 1.558803 1_566
O4 P0 1.558803 1_555
O5 P1 1.558803 1_555
O6 P0 1.558803 1_556
O7 P1 1.558803 1_655
