# generated using pymatgen
data_MgFe6(OF)6
_symmetry_space_group_name_H-M   'P 1'
_cell_length_a   5.20292193
_cell_length_b   14.72786935
_cell_length_c   3.05205422
_cell_angle_alpha   90.00000000
_cell_angle_beta   90.00000000
_cell_angle_gamma   98.00283675
_symmetry_Int_Tables_number   1
_chemical_formula_structural   MgFe6(OF)6
_chemical_formula_sum   'Mg1 Fe6 O6 F6'
_cell_volume   231.59502689
_cell_formula_units_Z   1
loop_
 _symmetry_equiv_pos_site_id
 _symmetry_equiv_pos_as_xyz
  1  'x, y, z'
loop_
 _atom_site_type_symbol
 _atom_site_label
 _atom_site_symmetry_multiplicity
 _atom_site_fract_x
 _atom_site_fract_y
 _atom_site_fract_z
 _atom_site_occupancy
  Mg  Mg0  1  0.59659960  0.00581388  0.00000000  1
  Fe  Fe0  1  0.11164231  0.98163119  0.00000000  1
  Fe  Fe1  1  0.96987409  0.34524728  0.00000000  1
  Fe  Fe2  1  0.94773240  0.66085852  0.00000000  1
  Fe  Fe3  1  0.45524081  0.19664302  0.50000000  1
  Fe  Fe4  1  0.48573243  0.49310830  0.50000000  1
  Fe  Fe5  1  0.46052762  0.81160327  0.50000000  1
  O  O0  1  0.35581530  0.93437676  0.50000000  1
  O  O1  1  0.27899944  0.76003036  0.00000000  1
  O  O2  1  0.35619701  0.09875186  0.00000000  1
  O  O3  1  0.28805050  0.43962389  0.00000000  1
  O  O4  1  0.65098439  0.57693192  0.00000000  1
  O  O5  1  0.65317470  0.24864818  -0.00000000  1
  F  F0  1  0.15136641  0.26025047  0.50000000  1
  F  F1  1  0.12258595  0.60872122  0.50000000  1
  F  F2  1  0.75775206  0.88681031  -0.00000000  1
  F  F3  1  0.77520304  0.41828685  0.50000000  1
  F  F4  1  0.78918347  0.73860506  0.50000000  1
  F  F5  1  0.84889849  0.03868666  0.50000000  1
loop_
_geom_bond_atom_site_label_1
_geom_bond_atom_site_label_2
_geom_bond_distance
_geom_bond_site_symmetry_2
Mg0 O2 1.978575 1_555
Mg0 O0 2.153639 1_544
Mg0 O0 2.153639 1_545
Fe0 O2 1.995815 1_565
Fe0 O0 2.161770 1_555
Fe0 O0 2.161770 1_554
Fe1 O3 2.007936 1_655
Fe1 O5 2.021496 1_555
Fe2 O4 1.838548 1_555
Fe2 O1 2.098335 1_655
Fe3 O5 1.938125 1_555
Fe3 O5 1.938125 1_556
Fe3 O2 2.113296 1_555
Fe3 O2 2.113296 1_556
Fe4 O3 1.944613 1_556
Fe4 O3 1.944613 1_555
Fe4 O4 2.072811 1_555
Fe4 O4 2.072811 1_556
Fe5 O1 1.896832 1_555
Fe5 O1 1.896832 1_556
Fe5 O0 1.959765 1_555
F0 Fe3 1.946709 1_555
F0 Fe1 2.262000 1_456
F0 Fe1 2.262000 1_455
F1 Fe2 1.985080 1_456
F1 Fe2 1.985080 1_455
F2 Mg0 2.045497 1_565
F2 Fe0 2.150468 1_655
F2 Fe5 2.338833 1_555
F2 Fe5 2.338833 1_554
F3 Fe4 1.986141 1_555
F3 Fe1 2.194353 1_555
F3 Fe1 2.194353 1_556
F4 Fe2 2.140882 1_556
F4 Fe2 2.140882 1_555
F4 Fe5 2.142837 1_555
F5 Mg0 2.027154 1_556
F5 Mg0 2.027154 1_555
F5 Fe0 2.285501 1_646
F5 Fe0 2.285501 1_645
