# generated using pymatgen
data_LiV2(PO4)3
_symmetry_space_group_name_H-M   'P 1'
_cell_length_a   8.52579711
_cell_length_b   8.52579711
_cell_length_c   8.52579736
_cell_angle_alpha   60.49291265
_cell_angle_beta   60.49291265
_cell_angle_gamma   60.49290955
_symmetry_Int_Tables_number   1
_chemical_formula_structural   LiV2(PO4)3
_chemical_formula_sum   'Li2 V4 P6 O24'
_cell_volume   443.09964283
_cell_formula_units_Z   2
loop_
 _symmetry_equiv_pos_site_id
 _symmetry_equiv_pos_as_xyz
  1  'x, y, z'
loop_
 _atom_site_type_symbol
 _atom_site_label
 _atom_site_symmetry_multiplicity
 _atom_site_fract_x
 _atom_site_fract_y
 _atom_site_fract_z
 _atom_site_occupancy
  Li  Li0  1  0.50000000  0.50000000  0.50000000  1
  Li  Li1  1  0.00000000  0.00000000  0.00000000  1
  V  V0  1  0.85919400  0.85919400  0.85919400  1
  V  V1  1  0.64080600  0.64080600  0.64080600  1
  V  V2  1  0.35919400  0.35919400  0.35919400  1
  V  V3  1  0.14080600  0.14080600  0.14080600  1
  P  P0  1  0.96007400  0.25000000  0.53992600  1
  P  P1  1  0.53992600  0.96007400  0.25000000  1
  P  P2  1  0.25000000  0.53992600  0.96007400  1
  P  P3  1  0.75000000  0.46007400  0.03992600  1
  P  P4  1  0.46007400  0.03992600  0.75000000  1
  P  P5  1  0.03992600  0.75000000  0.46007400  1
  O  O0  1  0.05611300  0.91505700  0.26791800  1
  O  O1  1  0.87594900  0.69163300  0.50180400  1
  O  O2  1  0.50180400  0.87594900  0.69163300  1
  O  O3  1  0.76791800  0.41505700  0.55611300  1
  O  O4  1  0.73208200  0.94388700  0.08494300  1
  O  O5  1  0.08494300  0.73208200  0.94388700  1
  O  O6  1  0.41505700  0.55611300  0.76791800  1
  O  O7  1  0.37594900  0.00180400  0.19163300  1
  O  O8  1  0.44388700  0.23208200  0.58494300  1
  O  O9  1  0.80836700  0.62405100  0.99819600  1
  O  O10  1  0.99819600  0.80836700  0.62405100  1
  O  O11  1  0.69163300  0.50180400  0.87594900  1
  O  O12  1  0.30836700  0.49819600  0.12405100  1
  O  O13  1  0.94388700  0.08494300  0.73208200  1
  O  O14  1  0.19163300  0.37594900  0.00180400  1
  O  O15  1  0.55611300  0.76791800  0.41505700  1
  O  O16  1  0.00180400  0.19163300  0.37594900  1
  O  O17  1  0.58494300  0.44388700  0.23208200  1
  O  O18  1  0.91505700  0.26791800  0.05611300  1
  O  O19  1  0.26791800  0.05611300  0.91505700  1
  O  O20  1  0.23208200  0.58494300  0.44388700  1
  O  O21  1  0.49819600  0.12405100  0.30836700  1
  O  O22  1  0.12405100  0.30836700  0.49819600  1
  O  O23  1  0.62405100  0.99819600  0.80836700  1
loop_
_geom_bond_atom_site_label_1
_geom_bond_atom_site_label_2
_geom_bond_distance
_geom_bond_site_symmetry_2
Li0 O3 2.253137 1_555
Li0 O20 2.253137 1_555
Li0 O15 2.253137 1_555
Li0 O8 2.253137 1_555
Li0 O17 2.253137 1_555
Li0 O6 2.253137 1_555
Li1 O18 2.253137 1_455
Li1 O5 2.253137 1_544
Li1 O19 2.253137 1_554
Li1 O4 2.253137 1_445
Li1 O13 2.253137 1_454
Li1 O0 2.253137 1_545
O0 P5 1.543022 1_555
O0 V3 1.985894 1_565
O1 P5 1.532857 1_655
O1 V1 1.902870 1_555
O2 P4 1.532857 1_565
O2 V1 1.902870 1_555
O3 P0 1.543022 1_555
O3 V1 1.985894 1_555
O4 P1 1.543022 1_555
O4 V0 1.985894 1_554
O5 P2 1.543022 1_555
O5 V0 1.985894 1_455
O6 P2 1.543022 1_555
O6 V1 1.985894 1_555
O7 P1 1.532857 1_545
O7 V3 1.902870 1_555
O8 P4 1.543022 1_555
O8 V2 1.985894 1_555
O9 P3 1.532857 1_556
O9 V0 1.902870 1_555
O10 P5 1.532857 1_655
O10 V0 1.902870 1_555
O11 P3 1.532857 1_556
O11 V1 1.902870 1_555
O12 P2 1.532857 1_554
O12 V2 1.902870 1_555
O13 P0 1.543022 1_555
O13 V0 1.985894 1_545
O14 P2 1.532857 1_554
O14 V3 1.902870 1_555
O15 P1 1.543022 1_555
O15 V1 1.985894 1_555
O16 P0 1.532857 1_455
O16 V3 1.902870 1_555
O17 P3 1.543022 1_555
O17 V2 1.985894 1_555
O18 P3 1.543022 1_555
O18 V3 1.985894 1_655
O19 P4 1.543022 1_555
O19 V3 1.985894 1_556
O20 P5 1.543022 1_555
O20 V2 1.985894 1_555
O21 P1 1.532857 1_545
O21 V2 1.902870 1_555
O22 P0 1.532857 1_455
O22 V2 1.902870 1_555
O23 P4 1.532857 1_565
O23 V0 1.902870 1_555
