# generated using pymatgen
data_Na3Ca3La(SO4)6
_symmetry_space_group_name_H-M   'P 1'
_cell_length_a   9.30749824
_cell_length_b   9.31938876
_cell_length_c   24.55597967
_cell_angle_alpha   89.89289861
_cell_angle_beta   90.18185104
_cell_angle_gamma   120.11406793
_symmetry_Int_Tables_number   1
_chemical_formula_structural   Na3Ca3La(SO4)6
_chemical_formula_sum   'Na9 Ca9 La3 S18 O72'
_cell_volume   1842.49255331
_cell_formula_units_Z   3
loop_
 _symmetry_equiv_pos_site_id
 _symmetry_equiv_pos_as_xyz
  1  'x, y, z'
loop_
 _atom_site_type_symbol
 _atom_site_label
 _atom_site_symmetry_multiplicity
 _atom_site_fract_x
 _atom_site_fract_y
 _atom_site_fract_z
 _atom_site_occupancy
  Na  Na0  1  0.63596993  0.99876738  0.24804560  1
  Na  Na1  1  0.36328443  0.36340250  0.24771984  1
  Na  Na2  1  0.03062148  0.69820602  0.58830650  1
  Na  Na3  1  0.99931826  0.01315858  0.49884859  1
  Na  Na4  1  0.99987575  0.99905639  0.99651997  1
  Na  Na5  1  0.66565460  0.33220017  0.82698450  1
  Na  Na6  1  0.68283932  0.34907489  0.33496177  1
  Na  Na7  1  0.31890304  0.66610215  0.15477958  1
  Na  Na8  1  0.34972329  0.66599352  0.66786540  1
  Ca  Ca0  1  0.00007579  0.99382675  0.35140145  1
  Ca  Ca1  1  -0.00002041  0.99967134  0.84854791  1
  Ca  Ca2  1  0.99924681  0.00853419  0.65318257  1
  Ca  Ca3  1  0.99994992  0.99465510  0.14820597  1
  Ca  Ca4  1  0.66131206  0.32790211  0.68502208  1
  Ca  Ca5  1  0.67541650  0.34157238  0.17830094  1
  Ca  Ca6  1  0.33436671  0.66676410  0.01602566  1
  Ca  Ca7  1  0.34168538  0.66605999  0.51476394  1
  Ca  Ca8  1  0.32344197  0.66604879  0.31969909  1
  La  La0  1  0.66622207  0.33286460  0.98390251  1
  La  La1  1  0.65950073  0.32630151  0.48259606  1
  La  La2  1  0.33230736  0.66652350  0.81505761  1
  S  S0  1  0.30270145  0.00451433  0.25003832  1
  S  S1  1  0.69805724  0.70067052  0.25073506  1
  S  S2  1  0.99902900  0.29152096  0.25034297  1
  S  S3  1  0.30049582  0.29495266  0.74960028  1
  S  S4  1  0.99450842  0.70039385  0.74680892  1
  S  S5  1  0.70523813  0.00545838  0.74937393  1
  S  S6  1  0.96880138  0.33793966  0.58423132  1
  S  S7  1  0.35879117  0.02505964  0.58475786  1
  S  S8  1  0.67033403  0.63464429  0.58495627  1
  S  S9  1  0.97438738  0.63845296  0.08466196  1
  S  S10  1  0.66414033  0.02685002  0.08765970  1
  S  S11  1  0.36241740  0.33589592  0.08740951  1
  S  S12  1  0.63723255  0.67372331  0.91791225  1
  S  S13  1  0.03621790  0.36234147  0.91787367  1
  S  S14  1  0.32601357  0.96300684  0.91778253  1
  S  S15  1  0.63419594  0.96244941  0.41354401  1
  S  S16  1  0.32821227  0.36630017  0.41352665  1
  S  S17  1  0.03662967  0.67091234  0.41855139  1
  O  O0  1  0.22211753  0.02451143  0.29885884  1
  O  O1  1  0.79690086  0.77794238  0.30003625  1
  O  O2  1  0.97522126  0.18900908  0.29928881  1
  O  O3  1  0.21648751  0.20194627  0.79911831  1
  O  O4  1  0.98558788  0.78943921  0.79491044  1
  O  O5  1  0.79862050  0.01514583  0.79898584  1
  O  O6  1  0.78510987  0.98972676  0.69981267  1
  O  O7  1  0.20465651  0.21481455  0.69993674  1
  O  O8  1  0.01010177  0.79144927  0.69536440  1
  O  O9  1  0.77870682  0.80205375  0.20210171  1
  O  O10  1  0.02239532  0.21270218  0.20161695  1
  O  O11  1  0.20405148  0.98387297  0.20090445  1
  O  O12  1  0.88305584  0.35767930  0.63152903  1
  O  O13  1  0.46071775  0.10988468  0.63234809  1
  O  O14  1  0.65127480  0.53228932  0.63284185  1
  O  O15  1  0.89079320  0.53891259  0.13366199  1
  O  O16  1  0.64923182  0.10634403  0.13844701  1
  O  O17  1  0.45726653  0.35116066  0.13829535  1
  O  O18  1  0.45223413  0.32086543  0.03948077  1
  O  O19  1  0.87393049  0.55415265  0.03524516  1
  O  O20  1  0.67998805  0.13206999  0.03960717  1
  O  O21  1  0.43800456  0.12232740  0.53423043  1
  O  O22  1  0.68960701  0.55262154  0.53492578  1
  O  O23  1  0.86911995  0.31704873  0.53371390  1
  O  O24  1  0.55135805  0.68429206  0.96655201  1
  O  O25  1  0.13342211  0.44876324  0.96653692  1
  O  O26  1  0.31608804  0.86677545  0.96653268  1
  O  O27  1  0.54526842  0.86517731  0.46192689  1
  O  O28  1  0.31941052  0.45459128  0.46193764  1
  O  O29  1  0.12647387  0.68022663  0.46943521  1
  O  O30  1  0.12077618  0.65509761  0.37009260  1
  O  O31  1  0.54205318  0.88596616  0.36246712  1
  O  O32  1  0.34413814  0.45836775  0.36244816  1
  O  O33  1  0.11600875  0.46114946  0.86790057  1
  O  O34  1  0.34410674  0.88299874  0.86785091  1
  O  O35  1  0.53844407  0.65528155  0.86790172  1
  O  O36  1  0.01925139  0.82004108  0.41478749  1
  O  O37  1  0.80192741  0.98153659  0.41243591  1
  O  O38  1  0.17919737  0.19865665  0.41219251  1
  O  O39  1  0.01933072  0.19653296  0.91413151  1
  O  O40  1  0.17672718  0.97958088  0.91403782  1
  O  O41  1  0.80375073  0.82269292  0.91424483  1
  O  O42  1  0.99174462  0.19285457  0.58824943  1
  O  O43  1  0.18848297  0.00287103  0.58781695  1
  O  O44  1  0.82751805  0.79831031  0.58823479  1
  O  O45  1  0.98948210  0.80386119  0.08766696  1
  O  O46  1  0.81467849  0.01171990  0.08961110  1
  O  O47  1  0.19650528  0.18513599  0.08918613  1
  O  O48  1  0.68643197  0.15432216  0.74673964  1
  O  O49  1  0.46855252  0.31399768  0.74721638  1
  O  O50  1  0.84537219  0.53228403  0.74536781  1
  O  O51  1  0.66810607  0.52743568  0.24579330  1
  O  O52  1  0.84622699  0.30577855  0.24493344  1
  O  O53  1  0.47185811  0.16010627  0.24580698  1
  O  O54  1  0.65353353  0.52158892  0.92057582  1
  O  O55  1  0.86707785  0.34503812  0.92042107  1
  O  O56  1  0.47818945  0.13211965  0.92024868  1
  O  O57  1  0.65155057  0.13202289  0.41675063  1
  O  O58  1  0.48090541  0.34963012  0.41691478  1
  O  O59  1  0.86603581  0.51867846  0.41950384  1
  O  O60  1  0.34852904  0.48688855  0.08225033  1
  O  O61  1  0.14026204  0.65352793  0.08084085  1
  O  O62  1  0.51250990  0.86193001  0.08246077  1
  O  O63  1  0.33811783  0.85556022  0.57998084  1
  O  O64  1  0.52409531  0.65629932  0.57932203  1
  O  O65  1  0.13195622  0.49576818  0.57904733  1
  O  O66  1  0.33259569  0.86163950  0.25514097  1
  O  O67  1  0.52933763  0.68685859  0.25511465  1
  O  O68  1  0.15149355  0.45837292  0.25581416  1
  O  O69  1  0.31940684  0.46554275  0.75149679  1
  O  O70  1  0.14686573  0.68314065  0.75033980  1
  O  O71  1  0.53453229  0.85317791  0.75130819  1
loop_
_geom_bond_atom_site_label_1
_geom_bond_atom_site_label_2
_geom_bond_distance
_geom_bond_site_symmetry_2
Na0 O66 2.453142 1_555
Na0 O52 2.530499 1_565
Na0 O67 2.562997 1_555
Na0 O53 2.626916 1_565
Na0 O16 2.851541 1_565
Na0 O31 2.974267 1_555
Na0 O9 2.976536 1_555
Na0 O2 3.010423 1_565
Na1 O51 2.457024 1_555
Na1 O68 2.542142 1_555
Na1 O53 2.556311 1_555
Na1 O67 2.614128 1_555
Na1 O17 2.848595 1_555
Na1 O10 2.971981 1_555
Na1 O32 2.987100 1_555
Na1 O0 3.018209 1_555
Na2 O43 2.456502 1_565
Na2 O63 2.484866 1_555
Na2 O44 2.492688 1_455
Na2 O65 2.507789 1_555
Na2 O8 2.807316 1_555
Na3 O37 2.720142 1_545
Na3 O38 2.724739 1_655
Na3 O42 2.786051 1_555
Na3 O36 2.808163 1_645
Na3 O43 2.833055 1_655
Na3 O44 2.859536 1_545
Na4 O41 2.663421 1_555
Na4 O39 2.677084 1_665
Na4 O40 2.677143 1_655
Na4 O45 2.852649 1_556
Na4 O47 2.887602 1_666
Na4 O46 2.905312 1_566
Na5 O49 2.626264 1_555
Na5 O48 2.646614 1_555
Na5 O50 2.677533 1_555
Na5 O56 2.917360 1_555
Na5 O55 2.922676 1_555
Na5 O54 2.937068 1_555
Na6 O59 2.645926 1_555
Na6 O57 2.758189 1_555
Na6 O58 2.759756 1_555
Na6 O51 2.790950 1_555
Na6 O52 2.828988 1_555
Na6 O53 2.875319 1_555
Na7 O61 2.420943 1_555
Na7 O62 2.537657 1_555
Na7 O60 2.552233 1_555
Na8 O71 2.679619 1_555
Na8 O69 2.692067 1_555
Na8 O64 2.745887 1_555
Na8 O63 2.822378 1_555
Na8 O70 2.832010 1_555
Na8 O65 2.853077 1_555
Ca0 O36 2.314402 1_555
Ca0 O1 2.321939 1_455
Ca0 O2 2.326249 1_465
Ca0 O0 2.332394 1_565
Ca0 O38 2.335202 1_565
Ca0 O37 2.337875 1_455
Ca1 O5 2.295758 1_465
Ca1 O3 2.298435 1_565
Ca1 O4 2.310094 1_455
Ca1 O40 2.370379 1_555
Ca1 O41 2.375847 1_455
Ca1 O39 2.381081 1_565
Ca2 O7 2.230524 1_655
Ca2 O6 2.231013 1_545
Ca2 O8 2.317899 1_645
Ca2 O42 2.367992 1_555
Ca2 O44 2.406220 1_545
Ca2 O43 2.406856 1_655
Ca3 O45 2.283892 1_555
Ca3 O46 2.308197 1_565
Ca3 O47 2.312350 1_665
Ca3 O11 2.338570 1_655
Ca3 O10 2.339949 1_665
Ca3 O9 2.348028 1_555
Ca4 O48 2.310072 1_555
Ca4 O49 2.313322 1_555
Ca4 O14 2.333956 1_555
Ca4 O13 2.339877 1_555
Ca4 O50 2.340686 1_555
Ca4 O12 2.345895 1_555
Ca5 O15 2.215701 1_555
Ca5 O17 2.294507 1_555
Ca5 O16 2.300702 1_555
Ca5 O52 2.414463 1_555
Ca5 O51 2.425160 1_555
Ca5 O53 2.447815 1_555
Ca6 O24 2.294637 1_554
Ca6 O25 2.298762 1_554
Ca6 O26 2.299756 1_554
Ca6 O61 2.367744 1_555
Ca6 O60 2.383736 1_555
Ca6 O62 2.384640 1_555
Ca7 O27 2.279390 1_555
Ca7 O28 2.281987 1_555
Ca7 O29 2.349340 1_555
Ca7 O64 2.353978 1_555
Ca7 O65 2.392176 1_555
Ca7 O63 2.398832 1_555
Ca8 O30 2.218348 1_555
Ca8 O32 2.291356 1_555
Ca8 O31 2.292036 1_555
Ca8 O68 2.378112 1_555
Ca8 O66 2.382680 1_555
Ca8 O67 2.422911 1_555
La0 O19 2.360840 1_556
La0 O20 2.370469 1_556
La0 O18 2.373849 1_556
La0 O56 2.390445 1_555
La0 O54 2.392179 1_555
La0 O55 2.396413 1_555
La1 O23 2.354246 1_555
La1 O21 2.355084 1_555
La1 O22 2.364980 1_555
La1 O58 2.399183 1_555
La1 O57 2.402854 1_555
La1 O59 2.420770 1_555
La2 O33 2.353900 1_555
La2 O34 2.355677 1_555
La2 O35 2.358246 1_555
La2 O71 2.396306 1_555
La2 O69 2.396408 1_555
La2 O70 2.403854 1_555
O0 S0 1.476919 1_555
O1 S1 1.470375 1_555
O2 S2 1.480324 1_555
O3 S3 1.470801 1_555
O4 S4 1.471106 1_555
O5 S5 1.470617 1_555
O6 S5 1.473456 1_565
O7 S3 1.472668 1_555
O8 S4 1.486802 1_455
O9 S1 1.473830 1_555
O10 S2 1.477748 1_455
O11 S0 1.467100 1_565
O12 S6 1.474354 1_555
O13 S7 1.460986 1_555
O14 S8 1.466761 1_555
O15 S9 1.480278 1_555
O16 S10 1.493699 1_555
O17 S11 1.492853 1_555
O18 S11 1.492652 1_555
O19 S9 1.491052 1_555
O20 S10 1.492412 1_555
O21 S7 1.495230 1_555
O22 S8 1.506095 1_555
O23 S6 1.499962 1_555
O24 S12 1.469906 1_555
O25 S13 1.469938 1_555
O26 S14 1.469502 1_555
O27 S15 1.472316 1_555
O28 S16 1.472703 1_555
O29 S17 1.479526 1_555
O30 S17 1.474280 1_555
O31 S15 1.483173 1_555
O32 S16 1.483549 1_555
O33 S13 1.490194 1_555
O34 S14 1.489434 1_555
O35 S12 1.489344 1_555
O36 S17 1.480275 1_555
O37 S15 1.480269 1_555
O38 S16 1.480255 1_555
O39 S13 1.475677 1_555
O40 S14 1.475626 1_555
O41 S12 1.476112 1_555
O42 S6 1.473981 1_555
O43 S7 1.494278 1_555
O44 S8 1.494601 1_555
O45 S9 1.477991 1_555
O46 S10 1.477548 1_555
O47 S11 1.477713 1_555
O48 S5 1.484164 1_555
O49 S3 1.484443 1_555
O50 S4 1.483319 1_555
O51 S1 1.499257 1_555
O52 S2 1.498774 1_555
O53 S0 1.517179 1_555
O54 S12 1.500965 1_555
O55 S13 1.501365 1_655
O56 S14 1.501174 1_545
O57 S15 1.507961 1_545
O58 S16 1.507180 1_555
O59 S17 1.508025 1_655
O60 S11 1.481422 1_555
O61 S9 1.481663 1_455
O62 S10 1.480981 1_565
O63 S7 1.497188 1_565
O64 S8 1.478798 1_555
O65 S6 1.498303 1_455
O66 S0 1.495639 1_565
O67 S1 1.514050 1_555
O68 S2 1.495014 1_455
O69 S3 1.509978 1_555
O70 S4 1.507396 1_455
O71 S5 1.509414 1_565
