# generated using pymatgen
data_MgMn6(O5F)2
_symmetry_space_group_name_H-M   'P 1'
_cell_length_a   5.12425441
_cell_length_b   7.50080563
_cell_length_c   5.57843960
_cell_angle_alpha   94.50717488
_cell_angle_beta   98.37492762
_cell_angle_gamma   85.06274070
_symmetry_Int_Tables_number   1
_chemical_formula_structural   MgMn6(O5F)2
_chemical_formula_sum   'Mg1 Mn6 O10 F2'
_cell_volume   210.86453846
_cell_formula_units_Z   1
loop_
 _symmetry_equiv_pos_site_id
 _symmetry_equiv_pos_as_xyz
  1  'x, y, z'
loop_
 _atom_site_type_symbol
 _atom_site_label
 _atom_site_symmetry_multiplicity
 _atom_site_fract_x
 _atom_site_fract_y
 _atom_site_fract_z
 _atom_site_occupancy
  Mg  Mg0  1  0.02360379  0.48774691  0.04623492  1
  Mn  Mn0  1  0.46720205  0.99733551  0.51456192  1
  Mn  Mn1  1  0.52398461  0.68576287  0.15663174  1
  Mn  Mn2  1  0.50704185  0.33827952  0.83335315  1
  Mn  Mn3  1  0.00038900  0.68967220  0.65706849  1
  Mn  Mn4  1  0.89880924  0.27361492  0.45580453  1
  Mn  Mn5  1  0.01119839  0.99890363  0.98606685  1
  O  O0  1  0.84035058  0.46584433  0.68796535  1
  O  O1  1  0.85865838  0.77244611  0.94735836  1
  O  O2  1  0.82564640  0.08164797  0.24004650  1
  O  O3  1  0.73224038  0.12376074  0.74665469  1
  O  O4  1  0.68965170  0.77692530  0.46605237  1
  O  O5  1  0.69419906  0.43663625  0.15948084  1
  O  O6  1  0.30649549  0.57185357  0.87851098  1
  O  O7  1  0.28984084  0.23716685  0.54006617  1
  O  O8  1  0.31794035  0.91220055  0.18739193  1
  O  O9  1  0.17308306  0.90411543  0.70099166  1
  F  F0  1  0.16860798  0.58976775  0.37115776  1
  F  F1  1  0.18494586  0.23668057  0.01983978  1
loop_
_geom_bond_atom_site_label_1
_geom_bond_atom_site_label_2
_geom_bond_distance
_geom_bond_site_symmetry_2
Mg0 O5 1.963499 1_455
Mg0 O6 2.005008 1_554
Mg0 O0 2.081196 1_454
Mg0 O1 2.305974 1_454
Mn0 O7 1.948949 1_565
Mn0 O4 1.949611 1_555
Mn0 O8 1.953979 1_555
Mn0 O3 1.984073 1_565
Mn0 O9 2.143416 1_555
Mn1 O4 1.911851 1_555
Mn1 O8 1.930617 1_555
Mn1 O6 1.957303 1_554
Mn1 O5 1.993228 1_555
Mn1 O1 2.370890 1_554
Mn2 O3 1.968580 1_555
Mn2 O6 1.971076 1_555
Mn2 O7 1.977516 1_555
Mn2 O5 2.043630 1_556
Mn2 O0 2.301571 1_555
Mn3 O4 1.880202 1_455
Mn3 O9 1.884225 1_555
Mn3 O1 1.908465 1_455
Mn3 O0 1.960752 1_455
Mn3 O6 2.033691 1_555
Mn4 O2 1.830742 1_555
Mn4 O0 1.895042 1_555
Mn4 O7 1.990534 1_655
Mn4 O5 2.217913 1_555
Mn4 O3 2.340860 1_555
Mn5 O2 1.857214 1_466
Mn5 O8 1.891955 1_556
Mn5 O1 1.914321 1_455
Mn5 O9 1.956443 1_555
Mn5 O3 2.028332 1_465
F0 Mg0 1.977531 1_555
F0 Mn3 1.987426 1_555
F0 Mn1 2.502547 1_555
F1 Mg0 1.993874 1_555
F1 Mn5 2.044693 1_544
F1 Mn2 2.286574 1_554
