# generated using pymatgen
data_Na6Hf4Si7Sn4S5O48
_symmetry_space_group_name_H-M   'P 1'
_cell_length_a   17.92987757
_cell_length_b   8.92577776
_cell_length_c   23.09940966
_cell_angle_alpha   89.86928577
_cell_angle_beta   89.76235743
_cell_angle_gamma   119.86821271
_symmetry_Int_Tables_number   1
_chemical_formula_structural   Na6Hf4Si7Sn4S5O48
_chemical_formula_sum   'Na18 Hf12 Si21 Sn12 S15 O144'
_cell_volume   3205.68552596
_cell_formula_units_Z   3
loop_
 _symmetry_equiv_pos_site_id
 _symmetry_equiv_pos_as_xyz
  1  'x, y, z'
loop_
 _atom_site_type_symbol
 _atom_site_label
 _atom_site_symmetry_multiplicity
 _atom_site_fract_x
 _atom_site_fract_y
 _atom_site_fract_z
 _atom_site_occupancy
  Na  Na0  1  0.00063173  0.63407623  0.25232095  1
  Na  Na1  1  0.49846701  0.64661882  0.24508544  1
  Na  Na2  1  0.99969577  0.35044089  0.75345313  1
  Na  Na3  1  0.50023757  0.36822497  0.75526169  1
  Na  Na4  1  0.66622618  0.31187923  0.91698672  1
  Na  Na5  1  0.16739178  0.02435639  0.41323295  1
  Na  Na6  1  0.99941225  0.98489540  0.50273111  1
  Na  Na7  1  0.49327572  0.98790520  0.49356028  1
  Na  Na8  1  0.99350062  0.99835295  0.99575351  1
  Na  Na9  1  0.49825226  0.00394536  0.00697930  1
  Na  Na10  1  0.33383282  0.33503875  0.83115891  1
  Na  Na11  1  0.83074935  0.33316814  0.83525324  1
  Na  Na12  1  0.33189739  0.33203299  0.32973875  1
  Na  Na13  1  0.83257406  0.32921595  0.32624570  1
  Na  Na14  1  0.17737286  0.67923258  0.17272812  1
  Na  Na15  1  0.66834523  0.66539732  0.16333279  1
  Na  Na16  1  0.17627931  0.68240843  0.66877811  1
  Na  Na17  1  0.67426457  0.67312275  0.67458902  1
  Hf  Hf0  1  0.49529133  0.97577520  0.35230916  1
  Hf  Hf1  1  0.99535697  0.01572303  0.85470242  1
  Hf  Hf2  1  0.00013841  0.00017928  0.64613993  1
  Hf  Hf3  1  0.49712417  0.99500443  0.65388711  1
  Hf  Hf4  1  0.99782573  0.00127733  0.15328833  1
  Hf  Hf5  1  0.49843365  0.98806714  0.14200335  1
  Hf  Hf6  1  0.34358859  0.33495478  0.98175091  1
  Hf  Hf7  1  0.83892588  0.35311783  0.47902813  1
  Hf  Hf8  1  0.16810096  0.66937166  0.02115846  1
  Hf  Hf9  1  0.66268065  0.64260494  0.02075465  1
  Hf  Hf10  1  0.16917150  0.68936160  0.51775417  1
  Hf  Hf11  1  0.66730248  0.66665721  0.52060304  1
  Si  Si0  1  0.15015324  0.00860589  0.24967515  1
  Si  Si1  1  0.64390997  0.00194289  0.25092304  1
  Si  Si2  1  0.35165203  0.70315251  0.24796408  1
  Si  Si3  1  0.85002121  0.70502312  0.25106793  1
  Si  Si4  1  0.00029772  0.29288239  0.25150268  1
  Si  Si5  1  0.14389102  0.28820086  0.75066954  1
  Si  Si6  1  0.64726279  0.29164861  0.75086694  1
  Si  Si7  1  0.50063080  0.70832697  0.75159153  1
  Si  Si8  1  0.34996322  0.99366418  0.75136225  1
  Si  Si9  1  0.85239766  0.99928549  0.74754632  1
  Si  Si10  1  0.19050175  0.05076223  0.58333335  1
  Si  Si11  1  0.83345481  0.62749553  0.58478977  1
  Si  Si12  1  0.48032496  0.62246592  0.08466189  1
  Si  Si13  1  0.33243550  0.04086297  0.08526561  1
  Si  Si14  1  0.69133666  0.33059254  0.08357816  1
  Si  Si15  1  0.81302834  0.67068907  0.91694112  1
  Si  Si16  1  0.02130185  0.38194895  0.91830226  1
  Si  Si17  1  0.51901102  0.36834079  0.91287869  1
  Si  Si18  1  0.31523353  0.96010753  0.41525375  1
  Si  Si19  1  0.02088860  0.67126552  0.41323678  1
  Si  Si20  1  0.52162398  0.66376714  0.41807297  1
  Sn  Sn0  1  0.00031846  0.99407227  0.34511857  1
  Sn  Sn1  1  0.49926286  0.00337010  0.84757604  1
  Sn  Sn2  1  0.32625522  0.32550972  0.69136924  1
  Sn  Sn3  1  0.82495031  0.32956855  0.68737518  1
  Sn  Sn4  1  0.33189998  0.32920391  0.18459955  1
  Sn  Sn5  1  0.82596591  0.32492806  0.19086302  1
  Sn  Sn6  1  0.83446044  0.34029596  0.97954365  1
  Sn  Sn7  1  0.33470146  0.32920895  0.47898664  1
  Sn  Sn8  1  0.16839293  0.67670174  0.31050717  1
  Sn  Sn9  1  0.66525840  0.67261968  0.31254154  1
  Sn  Sn10  1  0.16726428  0.65975033  0.81473120  1
  Sn  Sn11  1  0.66825163  0.66151197  0.81206831  1
  S  S0  1  0.50058417  0.28832761  0.25117462  1
  S  S1  1  0.00059076  0.71035506  0.75024737  1
  S  S2  1  0.47993978  0.33218796  0.58351337  1
  S  S3  1  0.97803637  0.33424467  0.58328635  1
  S  S4  1  0.68684563  0.04169315  0.58152495  1
  S  S5  1  0.33390066  0.62391457  0.58236700  1
  S  S6  1  0.97998697  0.62746606  0.08362545  1
  S  S7  1  0.83504695  0.04530180  0.08242625  1
  S  S8  1  0.18572374  0.33015214  0.08151873  1
  S  S9  1  0.31287021  0.66665829  0.91735113  1
  S  S10  1  0.16666781  0.95659200  0.91607711  1
  S  S11  1  0.66550789  0.95517366  0.91683520  1
  S  S12  1  0.81307019  0.95863400  0.41785777  1
  S  S13  1  0.16516852  0.37625368  0.41767764  1
  S  S14  1  0.66689303  0.37719680  0.41696868  1
  O  O0  1  0.11250680  0.04085841  0.31129705  1
  O  O1  1  0.60173523  0.03235916  0.30907869  1
  O  O2  1  0.41334905  0.78652898  0.30568017  1
  O  O3  1  0.91059612  0.78024514  0.30875453  1
  O  O4  1  0.49026408  0.18619421  0.30404481  1
  O  O5  1  0.97897286  0.17264029  0.31018657  1
  O  O6  1  0.09949840  0.16846352  0.80721355  1
  O  O7  1  0.60937292  0.18106056  0.81065259  1
  O  O8  1  0.47927833  0.78684571  0.80913715  1
  O  O9  1  0.98745702  0.78840933  0.80224212  1
  O  O10  1  0.41119849  0.03852114  0.80776049  1
  O  O11  1  0.91505886  0.04378479  0.80418083  1
  O  O12  1  0.39390559  0.96119093  0.69375119  1
  O  O13  1  0.89889673  0.97117356  0.69154546  1
  O  O14  1  0.08287059  0.20307391  0.69411534  1
  O  O15  1  0.58444608  0.19662034  0.69495548  1
  O  O16  1  0.01238026  0.81386950  0.69728842  1
  O  O17  1  0.51507106  0.82730375  0.69390475  1
  O  O18  1  0.39820858  0.82738207  0.19327611  1
  O  O19  1  0.89513813  0.82760193  0.19437442  1
  O  O20  1  0.01494985  0.20241181  0.19471808  1
  O  O21  1  0.51273307  0.21271291  0.19873259  1
  O  O22  1  0.08376099  0.97289579  0.19577867  1
  O  O23  1  0.58321038  0.96524776  0.19540095  1
  O  O24  1  0.44398965  0.36418450  0.63640637  1
  O  O25  1  0.94036245  0.36199452  0.63673986  1
  O  O26  1  0.25433596  0.13756415  0.63805186  1
  O  O27  1  0.73870636  0.11241877  0.63491535  1
  O  O28  1  0.32228749  0.52061271  0.63517919  1
  O  O29  1  0.81638147  0.50186424  0.64063505  1
  O  O30  1  0.43962299  0.50867711  0.14436415  1
  O  O31  1  0.94429400  0.52404196  0.13667715  1
  O  O32  1  0.30958348  0.12021591  0.14151720  1
  O  O33  1  0.82401213  0.12613845  0.13525648  1
  O  O34  1  0.23632626  0.36168750  0.13478817  1
  O  O35  1  0.75596509  0.37217869  0.13815211  1
  O  O36  1  0.22759688  0.30886251  0.02947069  1
  O  O37  1  0.73054835  0.29505080  0.02310348  1
  O  O38  1  0.41793438  0.52774523  0.02887365  1
  O  O39  1  0.92721350  0.54734047  0.03139567  1
  O  O40  1  0.34203595  0.15509565  0.02714706  1
  O  O41  1  0.85148957  0.15511230  0.02976244  1
  O  O42  1  0.23054045  0.16347534  0.52307691  1
  O  O43  1  0.73097818  0.14826034  0.53023970  1
  O  O44  1  0.34944897  0.54704790  0.52975827  1
  O  O45  1  0.84461442  0.52879684  0.52806242  1
  O  O46  1  0.42694384  0.30700641  0.53137600  1
  O  O47  1  0.92257382  0.31020846  0.53231570  1
  O  O48  1  0.27002884  0.69234285  0.96842496  1
  O  O49  1  0.76891150  0.70239970  0.97330642  1
  O  O50  1  0.08326894  0.48060867  0.97226586  1
  O  O51  1  0.58131806  0.45839427  0.96885457  1
  O  O52  1  0.15677709  0.84819765  0.96765695  1
  O  O53  1  0.65510797  0.85222926  0.96905929  1
  O  O54  1  0.27012621  0.84076156  0.47331836  1
  O  O55  1  0.77019163  0.84720089  0.46948392  1
  O  O56  1  0.15473231  0.45880155  0.47052591  1
  O  O57  1  0.65831366  0.46625537  0.46891445  1
  O  O58  1  0.08148674  0.70046514  0.47034903  1
  O  O59  1  0.58301652  0.68669428  0.47307379  1
  O  O60  1  0.06068572  0.63538235  0.35569690  1
  O  O61  1  0.56184399  0.62447933  0.35943498  1
  O  O62  1  0.24893081  0.87353156  0.36158865  1
  O  O63  1  0.76153757  0.88298203  0.36513972  1
  O  O64  1  0.17841653  0.47788603  0.36513452  1
  O  O65  1  0.68547619  0.48657561  0.36466340  1
  O  O66  1  0.06008478  0.49579859  0.85757761  1
  O  O67  1  0.55954385  0.48303018  0.85416680  1
  O  O68  1  0.18341024  0.88058674  0.86334993  1
  O  O69  1  0.67913620  0.88103065  0.86341683  1
  O  O70  1  0.26184018  0.64243885  0.86374274  1
  O  O71  1  0.75061253  0.62554175  0.86017842  1
  O  O72  1  0.01500557  0.85161213  0.41128769  1
  O  O73  1  0.51562315  0.83943735  0.41345630  1
  O  O74  1  0.41188368  0.99193952  0.41044339  1
  O  O75  1  0.89958336  0.97664232  0.41378729  1
  O  O76  1  0.08780197  0.19900996  0.41441081  1
  O  O77  1  0.58908184  0.20908171  0.41279951  1
  O  O78  1  0.01524296  0.19345891  0.91302631  1
  O  O79  1  0.51482938  0.17711948  0.91084474  1
  O  O80  1  0.08703320  0.96483696  0.91082356  1
  O  O81  1  0.58820012  0.97744176  0.91262742  1
  O  O82  1  0.39901589  0.82168416  0.91290042  1
  O  O83  1  0.91084025  0.83105821  0.90915427  1
  O  O84  1  0.48991129  0.17721015  0.58801591  1
  O  O85  1  0.98452801  0.17565312  0.58719579  1
  O  O86  1  0.09516170  0.02825943  0.59019478  1
  O  O87  1  0.60082185  0.02540649  0.58679190  1
  O  O88  1  0.41085539  0.79982233  0.58723285  1
  O  O89  1  0.91870688  0.81566964  0.58889478  1
  O  O90  1  0.48653104  0.80961184  0.08662305  1
  O  O91  1  0.98989087  0.80251110  0.08812306  1
  O  O92  1  0.41810867  0.02696814  0.08946586  1
  O  O93  1  0.91316201  0.02618113  0.08758190  1
  O  O94  1  0.09865264  0.17525218  0.08692898  1
  O  O95  1  0.59622079  0.16693549  0.09051406  1
  O  O96  1  0.35023994  0.17589225  0.74417848  1
  O  O97  1  0.85440640  0.18795431  0.73940923  1
  O  O98  1  0.24094658  0.31993288  0.74722906  1
  O  O99  1  0.74245300  0.31015760  0.74729023  1
  O  O100  1  0.41796627  0.51364670  0.74040991  1
  O  O101  1  0.92533113  0.53183704  0.74392334  1
  O  O102  1  0.35048434  0.51691811  0.24337115  1
  O  O103  1  0.85053854  0.52379119  0.24433505  1
  O  O104  1  0.42455167  0.31435374  0.24821815  1
  O  O105  1  0.91786702  0.32237174  0.24087457  1
  O  O106  1  0.24435626  0.17841865  0.24464750  1
  O  O107  1  0.74181706  0.16376869  0.24871869  1
  O  O108  1  0.31754248  0.50712209  0.92384827  1
  O  O109  1  0.81592665  0.48719056  0.92135046  1
  O  O110  1  0.42352819  0.34874954  0.91956406  1
  O  O111  1  0.92373349  0.35253002  0.92478247  1
  O  O112  1  0.24180538  0.13126097  0.92298531  1
  O  O113  1  0.74321444  0.13374498  0.92089420  1
  O  O114  1  0.31562536  0.14551762  0.42143884  1
  O  O115  1  0.81960588  0.12940244  0.42669066  1
  O  O116  1  0.24286451  0.35370047  0.42264236  1
  O  O117  1  0.74340304  0.35357322  0.42523365  1
  O  O118  1  0.42428287  0.49646225  0.42549181  1
  O  O119  1  0.92568591  0.49838111  0.42270323  1
  O  O120  1  0.17609902  0.48701206  0.07463150  1
  O  O121  1  0.68477614  0.50723537  0.07836972  1
  O  O122  1  0.06704720  0.64642029  0.07528931  1
  O  O123  1  0.57622781  0.64761288  0.07629349  1
  O  O124  1  0.24666056  0.84860265  0.07519512  1
  O  O125  1  0.75717142  0.87537912  0.07634299  1
  O  O126  1  0.17963375  0.85525473  0.57803853  1
  O  O127  1  0.67755513  0.86665121  0.57524422  1
  O  O128  1  0.25449031  0.63615514  0.57624734  1
  O  O129  1  0.74710050  0.64295799  0.57549025  1
  O  O130  1  0.06489815  0.48609681  0.57533929  1
  O  O131  1  0.56707571  0.48744573  0.57518781  1
  O  O132  1  0.14961530  0.82535046  0.25176160  1
  O  O133  1  0.64671105  0.81811215  0.25548557  1
  O  O134  1  0.25659982  0.67885906  0.25629623  1
  O  O135  1  0.75377806  0.68004805  0.25863905  1
  O  O136  1  0.08374861  0.48454503  0.25681392  1
  O  O137  1  0.57872704  0.46710461  0.25599039  1
  O  O138  1  0.14646496  0.47713609  0.75524954  1
  O  O139  1  0.64994442  0.47644868  0.75149831  1
  O  O140  1  0.07838209  0.69044806  0.75425507  1
  O  O141  1  0.58456394  0.68467160  0.75641469  1
  O  O142  1  0.25305578  0.82656554  0.75792606  1
  O  O143  1  0.75721305  0.83681726  0.75553481  1
loop_
_geom_bond_atom_site_label_1
_geom_bond_atom_site_label_2
_geom_bond_distance
_geom_bond_site_symmetry_2
Na0 O132 2.346868 1_555
Na0 O103 2.368908 1_455
Na0 O105 2.430453 1_455
Na0 O136 2.448435 1_555
Na0 O60 2.621198 1_555
Na0 O3 2.845280 1_455
Na0 O31 2.857804 1_455
Na0 O22 2.923972 1_555
Na1 O102 2.307269 1_555
Na1 O133 2.328156 1_555
Na1 O104 2.576936 1_555
Na1 O30 2.604182 1_555
Na1 O137 2.645652 1_555
Na1 O23 2.716769 1_555
Na1 O2 2.781432 1_555
Na1 O61 2.924642 1_555
Na2 O97 2.289302 1_555
Na2 O138 2.289696 1_655
Na2 O101 2.568813 1_555
Na2 O140 2.633796 1_655
Na2 O11 2.646016 1_555
Na2 O66 2.697664 1_655
Na2 O14 2.788908 1_655
Na2 O25 2.922780 1_555
Na3 O139 2.358146 1_555
Na3 O96 2.377996 1_555
Na3 O100 2.426459 1_555
Na3 O141 2.451905 1_555
Na3 O67 2.519115 1_555
Na3 O10 2.822759 1_555
Na3 O24 2.922894 1_555
Na3 O15 2.976916 1_555
Na4 O109 2.341542 1_555
Na4 O79 2.363780 1_555
Na4 O113 2.574512 1_555
Na4 O81 2.592540 1_545
Na4 O7 2.698900 1_555
Na4 O51 2.727344 1_555
Na4 O37 2.748727 1_556
Na4 O71 2.756284 1_555
Na5 O114 2.326306 1_555
Na5 O72 2.376971 1_545
Na5 O116 2.561878 1_555
Na5 O76 2.585157 1_555
Na5 O0 2.587767 1_555
Na5 O62 2.706667 1_545
Na5 O42 2.810660 1_555
Na5 O58 2.828689 1_545
Na6 O89 2.474318 1_555
Na6 O72 2.508599 1_655
Na6 O86 2.559196 1_665
Na6 O85 2.690804 1_565
Na6 O76 2.695358 1_665
Na6 O75 2.707449 1_555
Na7 O73 2.423716 1_555
Na7 O74 2.427442 1_555
Na7 O77 2.628168 1_565
Na7 O88 2.677691 1_555
Na7 O84 2.781458 1_565
Na7 O87 2.804135 1_565
Na8 O78 2.477676 1_665
Na8 O83 2.502368 1_555
Na8 O93 2.639974 1_566
Na8 O80 2.688081 1_655
Na8 O91 2.735249 1_556
Na8 O94 2.750715 1_666
Na9 O92 2.451693 1_555
Na9 O90 2.461028 1_545
Na9 O95 2.533971 1_555
Na9 O79 2.632515 1_554
Na9 O82 2.774932 1_544
Na9 O81 2.785720 1_544
Na10 O98 2.520884 1_555
Na10 O96 2.562340 1_555
Na10 O110 2.569810 1_555
Na10 O100 2.602804 1_555
Na10 O108 2.735943 1_555
Na10 O112 2.737566 1_555
Na11 O109 2.507576 1_555
Na11 O99 2.526231 1_555
Na11 O113 2.592456 1_555
Na11 O111 2.613347 1_555
Na11 O97 2.704504 1_555
Na11 O101 2.725641 1_555
Na12 O106 2.470102 1_555
Na12 O102 2.499249 1_555
Na12 O104 2.562664 1_555
Na12 O114 2.615056 1_555
Na12 O118 2.722847 1_555
Na12 O116 2.733515 1_555
Na13 O107 2.382980 1_555
Na13 O103 2.474423 1_555
Na13 O105 2.509965 1_555
Na13 O119 2.750818 1_555
Na13 O117 2.854826 1_555
Na13 O115 2.860407 1_555
Na14 O134 2.402435 1_555
Na14 O132 2.435451 1_555
Na14 O136 2.581166 1_555
Na14 O124 2.644848 1_555
Na14 O120 2.838659 1_555
Na14 O122 2.920217 1_555
Na15 O121 2.520637 1_555
Na15 O123 2.561906 1_555
Na15 O135 2.653294 1_555
Na15 O125 2.658989 1_555
Na15 O133 2.659471 1_555
Na15 O137 2.723441 1_555
Na16 O142 2.462234 1_555
Na16 O138 2.575159 1_555
Na16 O126 2.582428 1_555
Na16 O140 2.661212 1_555
Na16 O128 2.694666 1_555
Na16 O130 2.878334 1_555
Na17 O139 2.375898 1_555
Na17 O143 2.390411 1_555
Na17 O141 2.512110 1_555
Na17 O129 2.710403 1_555
Na17 O127 2.851803 1_555
Na17 O131 2.931543 1_555
Hf0 O2 1.929146 1_555
Hf0 O1 1.979033 1_565
Hf0 O73 2.011748 1_555
Hf0 O74 2.063911 1_555
Hf0 O4 2.222259 1_565
Hf0 O77 2.379439 1_565
Hf1 O11 1.967051 1_555
Hf1 O78 1.977198 1_655
Hf1 O6 1.997313 1_655
Hf1 O83 2.020441 1_545
Hf1 O9 2.309019 1_545
Hf1 O80 2.312434 1_645
Hf2 O13 1.994269 1_445
Hf2 O14 2.013786 1_555
Hf2 O86 2.047090 1_555
Hf2 O89 2.055129 1_445
Hf2 O16 2.136890 1_545
Hf2 O85 2.194401 1_455
Hf3 O17 1.916904 1_555
Hf3 O12 1.947400 1_555
Hf3 O15 1.950269 1_565
Hf3 O88 2.268533 1_555
Hf3 O84 2.275241 1_565
Hf3 O87 2.324715 1_565
Hf4 O20 1.922088 1_655
Hf4 O22 1.949819 1_645
Hf4 O19 1.956971 1_545
Hf4 O93 2.238544 1_555
Hf4 O91 2.279528 1_545
Hf4 O94 2.280196 1_655
Hf5 O90 1.972864 1_555
Hf5 O18 2.024000 1_555
Hf5 O92 2.044073 1_565
Hf5 O23 2.048457 1_555
Hf5 O95 2.055143 1_565
Hf5 O21 2.303525 1_565
Hf6 O40 1.903997 1_556
Hf6 O38 1.912802 1_556
Hf6 O110 1.984777 1_555
Hf6 O108 2.253702 1_555
Hf6 O36 2.256527 1_556
Hf6 O112 2.281615 1_555
Hf7 O45 1.897878 1_555
Hf7 O119 1.939174 1_555
Hf7 O47 2.120500 1_555
Hf7 O117 2.121809 1_555
Hf7 O115 2.212345 1_555
Hf7 O43 2.221518 1_555
Hf8 O124 1.969941 1_555
Hf8 O50 1.974392 1_554
Hf8 O120 2.102491 1_555
Hf8 O52 2.105268 1_554
Hf8 O48 2.114939 1_554
Hf8 O122 2.121013 1_555
Hf9 O121 1.965178 1_555
Hf9 O51 1.975686 1_554
Hf9 O49 2.020279 1_554
Hf9 O123 2.025690 1_555
Hf9 O53 2.278034 1_554
Hf9 O125 2.315201 1_555
Hf10 O54 1.923056 1_555
Hf10 O58 1.962049 1_555
Hf10 O126 1.975298 1_555
Hf10 O56 2.230287 1_555
Hf10 O128 2.264759 1_555
Hf10 O130 2.268557 1_555
Hf11 O59 1.950198 1_555
Hf11 O129 2.003645 1_555
Hf11 O57 2.091735 1_555
Hf11 O55 2.099222 1_555
Hf11 O131 2.118213 1_555
Hf11 O127 2.121047 1_555
O0 Si0 1.658942 1_555
O0 Sn0 1.994940 1_545
O1 Si1 1.627225 1_555
O2 Si2 1.658853 1_555
O3 Si3 1.641892 1_555
O3 Sn0 1.973982 1_655
O4 S0 1.477100 1_555
O5 Si4 1.648016 1_655
O5 Sn0 1.985506 1_645
O6 Si5 1.618479 1_555
O7 Si6 1.631303 1_555
O7 Sn1 2.000438 1_555
O8 Si7 1.634620 1_555
O8 Sn1 1.993149 1_565
O9 S1 1.465686 1_655
O10 Si8 1.624617 1_545
O10 Sn1 1.985363 1_555
O11 Si9 1.643647 1_545
O12 Si8 1.642031 1_555
O13 Si9 1.622443 1_555
O14 Si5 1.633813 1_555
O15 Si6 1.649716 1_555
O16 S1 1.480893 1_555
O17 Si7 1.639285 1_555
O18 Si2 1.607829 1_555
O19 Si3 1.633895 1_555
O20 Si4 1.629390 1_555
O21 S0 1.455465 1_555
O22 Si0 1.644632 1_565
O23 Si1 1.610926 1_565
O24 S2 1.472498 1_555
O24 Sn2 2.331782 1_555
O25 S3 1.484368 1_555
O25 Sn3 2.261812 1_555
O26 Si10 1.625146 1_555
O26 Sn2 1.965165 1_555
O27 S4 1.487464 1_555
O27 Sn3 2.158099 1_555
O28 S5 1.477598 1_555
O28 Sn2 2.199144 1_555
O29 Si11 1.632009 1_555
O29 Sn3 1.945117 1_555
O30 Si12 1.647126 1_555
O30 Sn4 2.014231 1_555
O31 S6 1.470855 1_555
O31 Sn5 2.332105 1_555
O32 Si13 1.626890 1_555
O32 Sn4 1.974456 1_555
O33 S7 1.480946 1_555
O33 Sn5 2.179059 1_555
O34 S8 1.474112 1_555
O34 Sn4 2.203223 1_555
O35 Si14 1.629592 1_555
O35 Sn5 1.942486 1_555
O36 S8 1.476790 1_555
O37 Si14 1.662038 1_555
O37 Sn6 1.969765 1_554
O38 Si12 1.643714 1_555
O39 S6 1.483844 1_555
O39 Sn6 2.140345 1_554
O40 Si13 1.639692 1_555
O41 S7 1.493738 1_555
O41 Sn6 2.160521 1_554
O42 Si10 1.652521 1_555
O42 Sn7 1.984723 1_555
O43 S4 1.473683 1_555
O44 S5 1.488869 1_555
O44 Sn7 2.174139 1_555
O45 Si11 1.646772 1_555
O46 S2 1.483869 1_555
O46 Sn7 2.140350 1_555
O47 S3 1.489816 1_555
O48 S9 1.484447 1_555
O49 Si15 1.617764 1_555
O50 Si16 1.614234 1_555
O51 Si17 1.639616 1_555
O52 S10 1.486336 1_555
O53 S11 1.468592 1_555
O54 Si18 1.647489 1_555
O55 S12 1.492595 1_555
O56 S13 1.485829 1_555
O57 S14 1.489956 1_555
O58 Si19 1.649334 1_555
O59 Si20 1.629758 1_555
O60 Si19 1.612470 1_555
O60 Sn8 2.056022 1_555
O61 Si20 1.650344 1_555
O61 Sn9 1.995926 1_555
O62 Si18 1.627480 1_555
O62 Sn8 2.015147 1_555
O63 S12 1.477931 1_555
O63 Sn9 2.186589 1_555
O64 S13 1.459592 1_555
O64 Sn8 2.254565 1_555
O65 S14 1.480284 1_555
O65 Sn9 2.220947 1_555
O66 Si16 1.662938 1_555
O66 Sn10 1.997667 1_555
O67 Si17 1.630921 1_555
O67 Sn11 2.041352 1_555
O68 S10 1.495783 1_555
O68 Sn10 2.162151 1_555
O69 S11 1.477345 1_555
O69 Sn11 2.217155 1_555
O70 S9 1.493635 1_555
O70 Sn10 2.111216 1_555
O71 Si15 1.642987 1_555
O71 Sn11 2.000755 1_555
O72 Si19 1.665301 1_555
O72 Sn0 2.085769 1_555
O73 Si20 1.627550 1_555
O74 Si18 1.613678 1_555
O75 S12 1.480267 1_555
O75 Sn0 2.344724 1_655
O76 S13 1.499463 1_555
O76 Sn0 2.354738 1_545
O77 S14 1.457396 1_555
O78 Si16 1.635908 1_555
O79 Si17 1.671504 1_555
O79 Sn1 2.049762 1_555
O80 S10 1.471368 1_555
O81 S11 1.498571 1_555
O81 Sn1 2.289156 1_565
O82 S9 1.476576 1_555
O82 Sn1 2.280489 1_565
O83 Si15 1.628751 1_555
O84 S2 1.483955 1_555
O85 S3 1.479562 1_555
O86 Si10 1.625811 1_555
O87 S4 1.479850 1_555
O88 S5 1.491982 1_555
O89 Si11 1.615963 1_555
O90 Si12 1.618641 1_555
O91 S6 1.485939 1_555
O92 Si13 1.604793 1_555
O93 S7 1.498114 1_555
O94 S8 1.487343 1_555
O95 Si14 1.607275 1_555
O96 Si8 1.632138 1_545
O96 Sn2 2.006331 1_555
O97 Si9 1.676492 1_545
O97 Sn3 1.996154 1_555
O98 Si5 1.619459 1_555
O98 Sn2 1.978515 1_555
O99 Si6 1.632494 1_555
O99 Sn3 1.964709 1_555
O100 Si7 1.650153 1_555
O100 Sn2 2.020137 1_555
O101 S1 1.497430 1_655
O101 Sn3 2.235817 1_555
O102 Si2 1.655612 1_555
O102 Sn4 2.054123 1_555
O103 Si3 1.630062 1_555
O103 Sn5 2.026330 1_555
O104 S0 1.494394 1_555
O104 Sn4 2.274979 1_555
O105 Si4 1.644429 1_655
O105 Sn5 2.025679 1_555
O106 Si0 1.615988 1_555
O106 Sn4 2.017037 1_555
O107 Si1 1.626037 1_555
O107 Sn5 1.986072 1_555
O108 S9 1.474863 1_555
O109 Si15 1.667255 1_555
O109 Sn6 2.016463 1_555
O110 Si17 1.638554 1_555
O111 Si16 1.640681 1_655
O111 Sn6 1.995646 1_555
O112 S10 1.477162 1_545
O113 S11 1.510090 1_545
O113 Sn6 2.221830 1_555
O114 Si18 1.657938 1_545
O114 Sn7 2.006860 1_555
O115 S12 1.484044 1_545
O116 S13 1.508271 1_555
O116 Sn7 2.197299 1_555
O117 S14 1.500960 1_555
O118 Si20 1.644971 1_555
O118 Sn7 1.980477 1_555
O119 Si19 1.647605 1_655
O120 S8 1.501740 1_555
O121 Si14 1.642617 1_555
O122 S6 1.495553 1_455
O123 Si12 1.630075 1_555
O124 Si13 1.655405 1_565
O125 S7 1.470727 1_565
O126 Si10 1.661516 1_565
O127 S4 1.493941 1_565
O128 S5 1.488529 1_555
O129 Si11 1.636447 1_555
O130 S3 1.479982 1_455
O131 S2 1.496046 1_555
O132 Si0 1.631516 1_565
O132 Sn8 2.038550 1_555
O133 Si1 1.669519 1_565
O133 Sn9 1.989981 1_555
O134 Si2 1.617907 1_555
O134 Sn8 2.005710 1_555
O135 Si3 1.634700 1_555
O135 Sn9 1.988004 1_555
O136 Si4 1.622791 1_555
O136 Sn8 2.053294 1_555
O137 S0 1.515595 1_555
O137 Sn9 2.161381 1_555
O138 Si5 1.667508 1_555
O138 Sn10 2.023060 1_555
O139 Si6 1.626175 1_555
O139 Sn11 2.065957 1_555
O140 S1 1.494463 1_555
O140 Sn10 2.240074 1_555
O141 Si7 1.624659 1_555
O141 Sn11 2.066561 1_555
O142 Si8 1.637730 1_555
O142 Sn10 1.999509 1_555
O143 Si9 1.606480 1_555
O143 Sn11 2.045844 1_555
