# generated using pymatgen
data_Na6Ca7Ge(SO4)12
_symmetry_space_group_name_H-M   'P 1'
_cell_length_a   18.20285369
_cell_length_b   9.08927086
_cell_length_c   24.05518802
_cell_angle_alpha   90.00966292
_cell_angle_beta   89.94886659
_cell_angle_gamma   119.88674322
_symmetry_Int_Tables_number   1
_chemical_formula_structural   Na6Ca7Ge(SO4)12
_chemical_formula_sum   'Na18 Ca21 Ge3 S36 O144'
_cell_volume   3450.66044145
_cell_formula_units_Z   3
loop_
 _symmetry_equiv_pos_site_id
 _symmetry_equiv_pos_as_xyz
  1  'x, y, z'
loop_
 _atom_site_type_symbol
 _atom_site_label
 _atom_site_symmetry_multiplicity
 _atom_site_fract_x
 _atom_site_fract_y
 _atom_site_fract_z
 _atom_site_occupancy
  Na  Na0  1  0.32238364  0.64306715  0.74915415  1
  Na  Na1  1  0.65125293  0.33213444  0.58502336  1
  Na  Na2  1  0.98850759  0.66828160  0.91879299  1
  Na  Na3  1  0.66414542  0.30234667  0.91546810  1
  Na  Na4  1  0.16648307  0.02754296  0.41792328  1
  Na  Na5  1  0.66682438  0.02716077  0.41791073  1
  Na  Na6  1  0.99343849  0.00248213  0.50253323  1
  Na  Na7  1  0.48128042  0.97779628  0.50213594  1
  Na  Na8  1  0.00341608  0.01935905  0.00498018  1
  Na  Na9  1  0.48957340  0.98210754  0.00129250  1
  Na  Na10  1  0.33920220  0.32253183  0.83870261  1
  Na  Na11  1  0.82859089  0.31284058  0.82964725  1
  Na  Na12  1  0.34168396  0.34921351  0.33538666  1
  Na  Na13  1  0.84226705  0.34950253  0.33451483  1
  Na  Na14  1  0.16720919  0.66692903  0.16499644  1
  Na  Na15  1  0.66598100  0.66597291  0.16518733  1
  Na  Na16  1  0.16388057  0.67220020  0.66220614  1
  Na  Na17  1  0.66259228  0.67694178  0.67035707  1
  Ca  Ca0  1  0.99492111  0.99914745  0.35090156  1
  Ca  Ca1  1  0.49516398  0.00097870  0.35098420  1
  Ca  Ca2  1  0.00170923  0.01146425  0.85123702  1
  Ca  Ca3  1  0.49679966  0.99566087  0.84874559  1
  Ca  Ca4  1  0.49820256  0.99522085  0.65201580  1
  Ca  Ca5  1  0.33632138  0.32571021  0.67932062  1
  Ca  Ca6  1  0.83254931  0.33297239  0.68326165  1
  Ca  Ca7  1  0.33266579  0.33211245  0.18103736  1
  Ca  Ca8  1  0.83236394  0.33325776  0.18080123  1
  Ca  Ca9  1  0.33373681  0.33629198  0.98855195  1
  Ca  Ca10  1  0.83277314  0.32042939  0.99367194  1
  Ca  Ca11  1  0.33546397  0.33958659  0.48745462  1
  Ca  Ca12  1  0.84583563  0.34818277  0.48881834  1
  Ca  Ca13  1  0.17071183  0.66796497  0.01883193  1
  Ca  Ca14  1  0.66581265  0.67115908  0.01856838  1
  Ca  Ca15  1  0.16577350  0.65834246  0.51810435  1
  Ca  Ca16  1  0.66772500  0.67154752  0.51542345  1
  Ca  Ca17  1  0.16699076  0.66095338  0.31281808  1
  Ca  Ca18  1  0.66693988  0.66073511  0.31251462  1
  Ca  Ca19  1  0.16360427  0.66805633  0.81676502  1
  Ca  Ca20  1  0.66786780  0.67102821  0.81612973  1
  Ge  Ge0  1  0.00206063  0.00569643  0.65429656  1
  Ge  Ge1  1  0.00084960  0.00167019  0.15379022  1
  Ge  Ge2  1  0.49861004  0.99820190  0.15326202  1
  S  S0  1  0.14124849  0.99765859  0.24665142  1
  S  S1  1  0.64094173  0.99777271  0.24658123  1
  S  S2  1  0.35714955  0.71649894  0.24459925  1
  S  S3  1  0.85793542  0.71802359  0.24424390  1
  S  S4  1  0.00110743  0.28598735  0.24440076  1
  S  S5  1  0.50106467  0.28502843  0.24415165  1
  S  S6  1  0.14450204  0.29123009  0.74439792  1
  S  S7  1  0.65257843  0.30446616  0.75023600  1
  S  S8  1  0.00116522  0.71914812  0.74620718  1
  S  S9  1  0.49805977  0.69538004  0.74943917  1
  S  S10  1  0.34695883  0.99531219  0.75032819  1
  S  S11  1  0.85844796  0.99800243  0.74459576  1
  S  S12  1  0.48844955  0.33302160  0.58255488  1
  S  S13  1  0.98533302  0.31314872  0.59031976  1
  S  S14  1  0.16955766  0.02605472  0.58767804  1
  S  S15  1  0.68316956  0.03715534  0.58138424  1
  S  S16  1  0.33270755  0.63754617  0.58627658  1
  S  S17  1  0.84153328  0.65178881  0.58826825  1
  S  S18  1  0.48485372  0.65663966  0.08984955  1
  S  S19  1  0.98592696  0.65696265  0.08721236  1
  S  S20  1  0.34324082  0.03018459  0.08957570  1
  S  S21  1  0.84333382  0.02722580  0.09021727  1
  S  S22  1  0.17148930  0.31286956  0.08975471  1
  S  S23  1  0.67117998  0.31441024  0.08740731  1
  S  S24  1  0.31717681  0.66266792  0.91452624  1
  S  S25  1  0.81733176  0.66216967  0.91784083  1
  S  S26  1  0.01523135  0.37089262  0.91799456  1
  S  S27  1  0.51788397  0.36738024  0.91701190  1
  S  S28  1  0.16551158  0.96597389  0.91737673  1
  S  S29  1  0.66817583  0.97474400  0.91672398  1
  S  S30  1  0.31348814  0.96664017  0.41700390  1
  S  S31  1  0.81450861  0.96816656  0.41637474  1
  S  S32  1  0.16705307  0.36102185  0.41584043  1
  S  S33  1  0.66831859  0.36151743  0.41859092  1
  S  S34  1  0.01917491  0.66917911  0.41565435  1
  S  S35  1  0.51790297  0.66897862  0.41482091  1
  O  O0  1  0.10278294  0.01146942  0.29837486  1
  O  O1  1  0.60277695  0.01159175  0.29855378  1
  O  O2  1  0.40501533  0.79666912  0.29474196  1
  O  O3  1  0.90539709  0.79727955  0.29465479  1
  O  O4  1  0.49409949  0.19074645  0.29459945  1
  O  O5  1  0.99386967  0.19049605  0.29460870  1
  O  O6  1  0.10445899  0.19392744  0.79448159  1
  O  O7  1  0.60872704  0.20768873  0.80096718  1
  O  O8  1  0.49014112  0.78138613  0.79921299  1
  O  O9  1  0.99419962  0.79559212  0.79817379  1
  O  O10  1  0.39582920  0.01111639  0.80085767  1
  O  O11  1  0.90607018  0.01136185  0.79476045  1
  O  O12  1  0.38974427  0.97956280  0.70045337  1
  O  O13  1  0.90416599  0.98026343  0.69271486  1
  O  O14  1  0.08969794  0.20121652  0.69294762  1
  O  O15  1  0.60537631  0.21864549  0.69900672  1
  O  O16  1  0.01106478  0.83415941  0.69532430  1
  O  O17  1  0.50537565  0.79268785  0.69893758  1
  O  O18  1  0.40198562  0.82626881  0.19260702  1
  O  O19  1  0.90335855  0.82893774  0.19262211  1
  O  O20  1  0.01087768  0.19539385  0.19255295  1
  O  O21  1  0.51031291  0.19317490  0.19250545  1
  O  O22  1  0.08439579  0.97940593  0.19578848  1
  O  O23  1  0.58390556  0.97923331  0.19588809  1
  O  O24  1  0.44738081  0.34657892  0.63330308  1
  O  O25  1  0.94246023  0.33363834  0.63836518  1
  O  O26  1  0.22397547  0.11677931  0.63482720  1
  O  O27  1  0.73476098  0.12702310  0.63032448  1
  O  O28  1  0.32797164  0.54610910  0.63857179  1
  O  O29  1  0.82974740  0.54278635  0.63623508  1
  O  O30  1  0.44273040  0.55214602  0.13811329  1
  O  O31  1  0.94043054  0.54706161  0.13386020  1
  O  O32  1  0.33290145  0.11367686  0.13804834  1
  O  O33  1  0.83265328  0.11312575  0.13774691  1
  O  O34  1  0.22324291  0.33245991  0.13821105  1
  O  O35  1  0.72588756  0.33289602  0.13408725  1
  O  O36  1  0.20662450  0.28479930  0.03828907  1
  O  O37  1  0.70568259  0.28972626  0.03432036  1
  O  O38  1  0.43620390  0.58631419  0.03822096  1
  O  O39  1  0.93934592  0.58901063  0.03398136  1
  O  O40  1  0.35633922  0.12792263  0.03806951  1
  O  O41  1  0.85751661  0.12380000  0.03809480  1
  O  O42  1  0.20238347  0.11784622  0.53457843  1
  O  O43  1  0.72478246  0.13466043  0.52976054  1
  O  O44  1  0.33677858  0.54379357  0.53744310  1
  O  O45  1  0.85588823  0.58167413  0.53679369  1
  O  O46  1  0.43933302  0.32081907  0.53268048  1
  O  O47  1  0.93757175  0.28391962  0.53829595  1
  O  O48  1  0.27037923  0.67417680  0.96303234  1
  O  O49  1  0.77610422  0.68019309  0.96806626  1
  O  O50  1  0.06532623  0.45628619  0.96796000  1
  O  O51  1  0.56960461  0.45365880  0.96684112  1
  O  O52  1  0.15579766  0.86008282  0.96665362  1
  O  O53  1  0.66246969  0.87813160  0.96725913  1
  O  O54  1  0.27153073  0.86851977  0.46762636  1
  O  O55  1  0.77342859  0.87023609  0.46699684  1
  O  O56  1  0.16016679  0.44446563  0.46629899  1
  O  O57  1  0.66196292  0.44002067  0.47091720  1
  O  O58  1  0.06892638  0.68330674  0.46601875  1
  O  O59  1  0.56804944  0.68572958  0.46516081  1
  O  O60  1  0.06109170  0.65476875  0.36510903  1
  O  O61  1  0.56067988  0.65510820  0.36455209  1
  O  O62  1  0.26357269  0.88122237  0.36661455  1
  O  O63  1  0.76356738  0.88115445  0.36647594  1
  O  O64  1  0.17321402  0.45738808  0.36536977  1
  O  O65  1  0.67345969  0.46333334  0.36958705  1
  O  O66  1  0.05657536  0.46932968  0.86714789  1
  O  O67  1  0.55926818  0.46575777  0.86643577  1
  O  O68  1  0.17264012  0.88471472  0.86619086  1
  O  O69  1  0.67588158  0.89242679  0.86623153  1
  O  O70  1  0.27179719  0.65106617  0.86164079  1
  O  O71  1  0.76748555  0.64585083  0.86768152  1
  O  O72  1  0.01564057  0.83065348  0.41327866  1
  O  O73  1  0.51429102  0.83040745  0.41216674  1
  O  O74  1  0.39997012  0.99173420  0.41441589  1
  O  O75  1  0.90075294  0.99202884  0.41372048  1
  O  O76  1  0.09143373  0.18545001  0.41369036  1
  O  O77  1  0.59247970  0.18687403  0.41481109  1
  O  O78  1  0.00284094  0.19773374  0.91498479  1
  O  O79  1  0.51483163  0.19944714  0.91398368  1
  O  O80  1  0.08468237  0.97308305  0.91438003  1
  O  O81  1  0.59232210  0.99727410  0.91396605  1
  O  O82  1  0.40250652  0.81720445  0.91428685  1
  O  O83  1  0.90548207  0.80787350  0.91351882  1
  O  O84  1  0.49959464  0.18094627  0.58464880  1
  O  O85  1  0.99138226  0.14923751  0.59775186  1
  O  O86  1  0.08208805  0.01515279  0.59622102  1
  O  O87  1  0.59989978  0.03175977  0.58506350  1
  O  O88  1  0.40981664  0.80785305  0.58554455  1
  O  O89  1  0.91925223  0.82695698  0.59618608  1
  O  O90  1  0.49068966  0.83238449  0.09688008  1
  O  O91  1  0.99162305  0.83110560  0.09528317  1
  O  O92  1  0.42498359  0.01829631  0.09660306  1
  O  O93  1  0.92487640  0.01632229  0.09737134  1
  O  O94  1  0.08353140  0.14971874  0.09698118  1
  O  O95  1  0.58453802  0.15245154  0.09524728  1
  O  O96  1  0.33373622  0.14283857  0.74702597  1
  O  O97  1  0.85204878  0.15261728  0.73935308  1
  O  O98  1  0.22963335  0.31202370  0.73784886  1
  O  O99  1  0.73809795  0.31885553  0.74948535  1
  O  O100  1  0.41698732  0.52718910  0.74697441  1
  O  O101  1  0.92461102  0.55321047  0.73908818  1
  O  O102  1  0.34994895  0.54897943  0.23858553  1
  O  O103  1  0.85081438  0.55053099  0.23822957  1
  O  O104  1  0.42472308  0.30000944  0.23855758  1
  O  O105  1  0.92476628  0.30070974  0.23847628  1
  O  O106  1  0.22438289  0.15073520  0.23960969  1
  O  O107  1  0.72415707  0.15107218  0.23960527  1
  O  O108  1  0.32560143  0.50795998  0.91903898  1
  O  O109  1  0.82366789  0.50306096  0.92227147  1
  O  O110  1  0.43127805  0.34243924  0.92165552  1
  O  O111  1  0.93116871  0.36488823  0.92159275  1
  O  O112  1  0.23971613  0.13829130  0.92208904  1
  O  O113  1  0.74414680  0.15112217  0.92010044  1
  O  O114  1  0.31686465  0.13532280  0.42002959  1
  O  O115  1  0.81825342  0.13692475  0.41957457  1
  O  O116  1  0.24285289  0.33671775  0.41856212  1
  O  O117  1  0.74448724  0.33860875  0.42008109  1
  O  O118  1  0.43130963  0.52061080  0.41820764  1
  O  O119  1  0.93256093  0.52116931  0.41882894  1
  O  O120  1  0.15785769  0.45977786  0.08447924  1
  O  O121  1  0.65922466  0.46376770  0.08351720  1
  O  O122  1  0.07246523  0.68186486  0.08320889  1
  O  O123  1  0.57188863  0.68414626  0.08467712  1
  O  O124  1  0.27032415  0.85567732  0.08450978  1
  O  O125  1  0.76965312  0.85380282  0.08468117  1
  O  O126  1  0.15668139  0.85268758  0.58422540  1
  O  O127  1  0.67104809  0.86412890  0.57980248  1
  O  O128  1  0.25577462  0.65555322  0.58362746  1
  O  O129  1  0.76334059  0.66459049  0.58264299  1
  O  O130  1  0.07164301  0.45982928  0.58500869  1
  O  O131  1  0.57608308  0.48458315  0.58032516  1
  O  O132  1  0.14807146  0.84214878  0.24549187  1
  O  O133  1  0.64823631  0.84272939  0.24566504  1
  O  O134  1  0.27295093  0.70399240  0.24477432  1
  O  O135  1  0.77371965  0.70499795  0.24446843  1
  O  O136  1  0.07888044  0.45442793  0.24441582  1
  O  O137  1  0.57884512  0.45328241  0.24397288  1
  O  O138  1  0.15273467  0.46233896  0.74543805  1
  O  O139  1  0.66140298  0.47605615  0.75154867  1
  O  O140  1  0.07815691  0.70399422  0.74508978  1
  O  O141  1  0.57286443  0.67221321  0.75245711  1
  O  O142  1  0.26365196  0.83190906  0.75279482  1
  O  O143  1  0.77416869  0.84426199  0.74428574  1
loop_
_geom_bond_atom_site_label_1
_geom_bond_atom_site_label_2
_geom_bond_distance
_geom_bond_site_symmetry_2
Na0 O100 2.425885 1_555
Na0 O142 2.434188 1_555
Na0 O98 2.629831 1_555
Na0 O138 2.681006 1_555
Na0 O28 2.819766 1_555
Na0 O70 2.870056 1_555
Na0 O12 2.914035 1_555
Na0 O8 2.921572 1_555
Na1 O131 2.386394 1_555
Na1 O84 2.393511 1_555
Na1 O87 2.405069 1_555
Na1 O129 2.674494 1_555
Na1 O57 2.888461 1_555
Na1 O15 2.901343 1_555
Na2 O83 2.412738 1_555
Na2 O111 2.414536 1_555
Na2 O80 2.432619 1_655
Na2 O109 2.602791 1_555
Na2 O39 2.889879 1_556
Na2 O52 2.890107 1_655
Na2 O66 2.928825 1_655
Na3 O79 2.393751 1_555
Na3 O81 2.405557 1_545
Na3 O113 2.453066 1_555
Na3 O109 2.551136 1_555
Na3 O7 2.912640 1_555
Na3 O51 2.955424 1_555
Na3 O71 2.958438 1_555
Na3 O37 2.974760 1_556
Na4 O114 2.404840 1_555
Na4 O72 2.420300 1_545
Na4 O76 2.427119 1_555
Na4 O116 2.436529 1_555
Na4 O42 2.905726 1_555
Na5 O115 2.419606 1_555
Na5 O77 2.429471 1_555
Na5 O73 2.445128 1_545
Na5 O117 2.454942 1_555
Na6 O85 2.660011 1_555
Na6 O75 2.695612 1_545
Na6 O89 2.700534 1_545
Na6 O86 2.741801 1_655
Na6 O76 2.748272 1_655
Na6 O72 2.799758 1_645
Na7 O88 2.469364 1_555
Na7 O84 2.616641 1_565
Na7 O74 2.617600 1_555
Na7 O73 2.763792 1_555
Na7 O87 2.798940 1_565
Na7 O77 2.877752 1_565
Na8 O94 2.590622 1_555
Na8 O93 2.634221 1_455
Na8 O91 2.706836 1_445
Na8 O78 2.708035 1_554
Na8 O80 2.780107 1_544
Na8 O83 2.881679 1_444
Na9 O82 2.603125 1_554
Na9 O92 2.669716 1_565
Na9 O90 2.677353 1_555
Na9 O79 2.760312 1_564
Na9 O81 2.768752 1_554
Na9 O95 2.798565 1_565
Na10 O110 2.554856 1_555
Na10 O108 2.655249 1_555
Na10 O112 2.660783 1_555
Na10 O96 2.716261 1_555
Na10 O100 2.775767 1_555
Na11 O99 2.555423 1_555
Na11 O113 2.645977 1_555
Na11 O97 2.763683 1_555
Na11 O111 2.780089 1_555
Na11 O109 2.848596 1_555
Na11 O101 2.960231 1_555
Na12 O118 2.555311 1_555
Na12 O116 2.653782 1_555
Na12 O114 2.693282 1_555
Na12 O102 2.910378 1_555
Na12 O104 2.928689 1_555
Na12 O106 3.048007 1_555
Na13 O119 2.588190 1_555
Na13 O117 2.689292 1_555
Na13 O115 2.696120 1_555
Na13 O103 2.906018 1_555
Na13 O105 2.906230 1_555
Na13 O107 3.038192 1_555
Na14 O134 2.619419 1_555
Na14 O136 2.620393 1_555
Na14 O132 2.637772 1_555
Na14 O124 2.645829 1_555
Na14 O120 2.646786 1_555
Na14 O122 2.665127 1_555
Na15 O137 2.604788 1_555
Na15 O135 2.631014 1_555
Na15 O133 2.635940 1_555
Na15 O123 2.645663 1_555
Na15 O125 2.647669 1_555
Na15 O121 2.650767 1_555
Na16 O126 2.538289 1_555
Na16 O128 2.576893 1_555
Na16 O130 2.601539 1_555
Na16 O140 2.633860 1_555
Na16 O138 2.702442 1_555
Na16 O142 2.744600 1_555
Na17 O141 2.548371 1_555
Na17 O143 2.554956 1_555
Na17 O139 2.666580 1_555
Na17 O127 2.720869 1_555
Na17 O131 2.736429 1_555
Na17 O129 2.833023 1_555
Ca0 O3 2.208206 1_555
Ca0 O5 2.212001 1_565
Ca0 O75 2.260706 1_555
Ca0 O0 2.289206 1_665
Ca0 O76 2.296580 1_665
Ca0 O72 2.305773 1_655
Ca1 O4 2.202113 1_555
Ca1 O2 2.222146 1_545
Ca1 O74 2.277747 1_545
Ca1 O73 2.287040 1_545
Ca1 O1 2.290077 1_555
Ca1 O77 2.317621 1_555
Ca2 O11 2.208851 1_455
Ca2 O6 2.239988 1_555
Ca2 O78 2.276575 1_555
Ca2 O9 2.286938 1_445
Ca2 O80 2.288957 1_545
Ca2 O83 2.345863 1_445
Ca3 O10 2.232921 1_565
Ca3 O8 2.234228 1_555
Ca3 O7 2.295546 1_565
Ca3 O82 2.298747 1_555
Ca3 O79 2.322806 1_565
Ca3 O81 2.337615 1_555
Ca4 O17 2.218192 1_555
Ca4 O12 2.234164 1_555
Ca4 O15 2.294041 1_565
Ca4 O88 2.306216 1_555
Ca4 O84 2.331239 1_565
Ca4 O87 2.348021 1_565
Ca5 O24 2.227584 1_555
Ca5 O26 2.250982 1_555
Ca5 O28 2.302469 1_555
Ca5 O96 2.310930 1_555
Ca5 O100 2.341302 1_555
Ca5 O98 2.350227 1_555
Ca6 O27 2.230867 1_555
Ca6 O29 2.239847 1_555
Ca6 O25 2.270081 1_555
Ca6 O97 2.283710 1_555
Ca6 O101 2.297588 1_555
Ca6 O99 2.299012 1_555
Ca7 O32 2.240330 1_555
Ca7 O34 2.244671 1_555
Ca7 O30 2.254721 1_555
Ca7 O102 2.298408 1_555
Ca7 O104 2.302000 1_555
Ca7 O106 2.312055 1_555
Ca8 O35 2.239821 1_555
Ca8 O33 2.255175 1_555
Ca8 O31 2.260137 1_555
Ca8 O103 2.293507 1_555
Ca8 O105 2.311196 1_555
Ca8 O107 2.316895 1_555
Ca9 O108 2.341849 1_555
Ca9 O110 2.375128 1_555
Ca9 O112 2.378738 1_555
Ca9 O38 2.418621 1_556
Ca9 O36 2.433154 1_556
Ca9 O40 2.439930 1_556
Ca10 O41 2.311412 1_556
Ca10 O113 2.373378 1_555
Ca10 O111 2.377183 1_555
Ca10 O37 2.395520 1_556
Ca10 O39 2.438453 1_556
Ca10 O109 2.451259 1_555
Ca11 O44 2.201511 1_555
Ca11 O46 2.261108 1_555
Ca11 O116 2.355866 1_555
Ca11 O114 2.359193 1_555
Ca11 O118 2.379240 1_555
Ca11 O42 2.519039 1_555
Ca12 O119 2.306810 1_555
Ca12 O43 2.308014 1_555
Ca12 O45 2.341341 1_555
Ca12 O47 2.349890 1_555
Ca12 O115 2.398600 1_555
Ca12 O117 2.447529 1_555
Ca13 O48 2.233810 1_554
Ca13 O52 2.274239 1_554
Ca13 O50 2.281327 1_554
Ca13 O124 2.369810 1_555
Ca13 O120 2.385011 1_555
Ca13 O122 2.415066 1_555
Ca14 O51 2.253053 1_554
Ca14 O53 2.276205 1_554
Ca14 O49 2.311820 1_554
Ca14 O123 2.379515 1_555
Ca14 O125 2.394850 1_555
Ca14 O121 2.405011 1_555
Ca15 O58 2.265346 1_555
Ca15 O56 2.268075 1_555
Ca15 O54 2.271882 1_555
Ca15 O128 2.283621 1_555
Ca15 O130 2.386777 1_555
Ca15 O126 2.442857 1_555
Ca16 O55 2.203272 1_555
Ca16 O59 2.237746 1_555
Ca16 O131 2.297639 1_555
Ca16 O127 2.315101 1_555
Ca16 O57 2.316293 1_555
Ca16 O129 2.400545 1_555
Ca17 O60 2.277936 1_555
Ca17 O64 2.290038 1_555
Ca17 O62 2.295483 1_555
Ca17 O134 2.407278 1_555
Ca17 O136 2.409736 1_555
Ca17 O132 2.453783 1_555
Ca18 O61 2.282088 1_555
Ca18 O63 2.298668 1_555
Ca18 O65 2.309010 1_555
Ca18 O135 2.415446 1_555
Ca18 O137 2.415729 1_555
Ca18 O133 2.449760 1_555
Ca19 O68 2.235046 1_555
Ca19 O66 2.239788 1_555
Ca19 O142 2.279339 1_555
Ca19 O70 2.318343 1_555
Ca19 O140 2.451522 1_555
Ca19 O138 2.471867 1_555
Ca20 O67 2.274671 1_555
Ca20 O69 2.286989 1_555
Ca20 O71 2.301304 1_555
Ca20 O139 2.315024 1_555
Ca20 O141 2.315162 1_555
Ca20 O143 2.483704 1_555
Ge0 O13 1.915596 1_445
Ge0 O16 1.920237 1_545
Ge0 O14 1.935022 1_555
Ge0 O85 1.960589 1_455
Ge0 O86 1.988148 1_555
Ge0 O89 2.104281 1_445
Ge1 O20 1.919023 1_555
Ge1 O22 1.919346 1_545
Ge1 O19 1.925531 1_445
Ge1 O94 1.980411 1_555
Ge1 O93 1.989745 1_455
Ge1 O91 2.037802 1_445
Ge2 O18 1.920882 1_555
Ge2 O21 1.923711 1_565
Ge2 O23 1.939441 1_555
Ge2 O90 1.978615 1_555
Ge2 O92 1.983538 1_565
Ge2 O95 2.042321 1_565
O0 S0 1.462900 1_545
O1 S1 1.465188 1_545
O2 S2 1.453923 1_555
O3 S3 1.455054 1_555
O4 S5 1.454270 1_555
O5 S4 1.454471 1_655
O6 S6 1.456470 1_555
O7 S7 1.482920 1_555
O8 S9 1.475509 1_555
O9 S8 1.465858 1_655
O10 S10 1.471034 1_545
O11 S11 1.455776 1_545
O12 S10 1.475068 1_555
O13 S11 1.551730 1_555
O14 S6 1.544283 1_555
O15 S7 1.482900 1_555
O16 S8 1.560687 1_555
O17 S9 1.469181 1_555
O18 S2 1.553338 1_555
O19 S3 1.552373 1_555
O20 S4 1.552544 1_555
O21 S5 1.551827 1_555
O22 S0 1.557751 1_555
O23 S1 1.556006 1_555
O24 S12 1.467793 1_555
O25 S13 1.456920 1_555
O26 S14 1.461242 1_555
O27 S15 1.473866 1_555
O28 S16 1.486406 1_555
O29 S17 1.465302 1_555
O30 S18 1.452902 1_555
O31 S19 1.455040 1_555
O32 S20 1.453469 1_555
O33 S21 1.450926 1_555
O34 S22 1.453476 1_555
O35 S23 1.454645 1_555
O36 S22 1.472384 1_555
O37 S23 1.488102 1_555
O38 S18 1.474039 1_555
O39 S19 1.489907 1_555
O40 S20 1.473059 1_555
O41 S21 1.477556 1_555
O42 S14 1.478800 1_555
O43 S15 1.493653 1_555
O44 S16 1.474447 1_555
O45 S17 1.474023 1_555
O46 S12 1.467673 1_555
O47 S13 1.471115 1_555
O48 S24 1.478194 1_555
O49 S25 1.473283 1_555
O50 S26 1.474746 1_555
O51 S27 1.484596 1_555
O52 S28 1.480918 1_555
O53 S29 1.472722 1_555
O54 S30 1.476977 1_555
O55 S31 1.473004 1_555
O56 S32 1.469149 1_555
O57 S33 1.479391 1_555
O58 S34 1.480014 1_555
O59 S35 1.478572 1_555
O60 S34 1.474983 1_555
O61 S35 1.476663 1_555
O62 S30 1.481965 1_555
O63 S31 1.482203 1_555
O64 S32 1.468330 1_555
O65 S33 1.472620 1_555
O66 S26 1.480075 1_555
O67 S27 1.474665 1_555
O68 S28 1.474222 1_555
O69 S29 1.469261 1_555
O70 S24 1.492279 1_555
O71 S25 1.472721 1_555
O72 S34 1.501878 1_555
O73 S35 1.502485 1_555
O74 S30 1.475149 1_555
O75 S31 1.475188 1_555
O76 S32 1.501677 1_555
O77 S33 1.500037 1_555
O78 S26 1.476301 1_555
O79 S27 1.501236 1_555
O80 S28 1.506353 1_555
O81 S29 1.494916 1_555
O82 S24 1.487046 1_555
O83 S25 1.490435 1_555
O84 S12 1.494598 1_555
O85 S13 1.557981 1_555
O86 S14 1.558631 1_555
O87 S15 1.494460 1_555
O88 S16 1.483675 1_555
O89 S17 1.525872 1_555
O90 S18 1.556399 1_555
O91 S19 1.546021 1_555
O92 S20 1.554007 1_555
O93 S21 1.545855 1_555
O94 S22 1.557623 1_555
O95 S23 1.541360 1_555
O96 S10 1.477829 1_545
O97 S11 1.472300 1_545
O98 S6 1.472956 1_555
O99 S7 1.495926 1_555
O100 S9 1.506720 1_555
O101 S8 1.466898 1_655
O102 S2 1.468870 1_555
O103 S3 1.469248 1_555
O104 S5 1.468553 1_555
O105 S4 1.467977 1_655
O106 S0 1.468301 1_545
O107 S1 1.469823 1_545
O108 S24 1.492526 1_555
O109 S25 1.510762 1_555
O110 S27 1.480770 1_555
O111 S26 1.506141 1_655
O112 S28 1.477270 1_545
O113 S29 1.509914 1_545
O114 S30 1.505272 1_545
O115 S31 1.503049 1_545
O116 S32 1.503590 1_555
O117 S33 1.501595 1_555
O118 S35 1.480279 1_555
O119 S34 1.479006 1_655
O120 S22 1.480196 1_555
O121 S23 1.481066 1_555
O122 S19 1.478618 1_455
O123 S18 1.480832 1_555
O124 S20 1.481407 1_565
O125 S21 1.481421 1_565
O126 S14 1.475411 1_565
O127 S15 1.475685 1_565
O128 S16 1.490150 1_555
O129 S17 1.491012 1_555
O130 S13 1.474579 1_455
O131 S12 1.501706 1_555
O132 S0 1.479538 1_555
O133 S1 1.480038 1_555
O134 S2 1.479301 1_555
O135 S3 1.477548 1_555
O136 S4 1.479239 1_555
O137 S5 1.478356 1_555
O138 S6 1.486481 1_555
O139 S7 1.486460 1_555
O140 S8 1.475166 1_555
O141 S9 1.479745 1_555
O142 S10 1.504757 1_555
O143 S11 1.473051 1_555
