# generated using pymatgen
data_EuTa2O6
_symmetry_space_group_name_H-M   'P 1'
_cell_length_a   3.93698252
_cell_length_b   3.93644611
_cell_length_c   7.96587918
_cell_angle_alpha   90.00000116
_cell_angle_beta   89.99999971
_cell_angle_gamma   90.01365607
_symmetry_Int_Tables_number   1
_chemical_formula_structural   EuTa2O6
_chemical_formula_sum   'Eu1 Ta2 O6'
_cell_volume   123.45295767
_cell_formula_units_Z   1
loop_
 _symmetry_equiv_pos_site_id
 _symmetry_equiv_pos_as_xyz
  1  'x, y, z'
loop_
 _atom_site_type_symbol
 _atom_site_label
 _atom_site_symmetry_multiplicity
 _atom_site_fract_x
 _atom_site_fract_y
 _atom_site_fract_z
 _atom_site_occupancy
  Eu  Eu0  1  0.00000003  -0.00000004  0.00000005  1
  Ta  Ta0  1  0.49999989  0.50000002  0.26000509  1
  Ta  Ta1  1  0.49999998  0.49999998  0.73999491  1
  O  O0  1  0.49999990  0.49999999  0.50000001  1
  O  O1  1  0.49999989  0.50000002  -0.00000001  1
  O  O2  1  -0.00000005  0.49999997  0.76973678  1
  O  O3  1  0.50000019  0.00000000  0.23030198  1
  O  O4  1  0.50000023  -0.00000000  0.76969800  1
  O  O5  1  -0.00000006  0.50000006  0.23026319  1
loop_
_geom_bond_atom_site_label_1
_geom_bond_atom_site_label_2
_geom_bond_distance
_geom_bond_site_symmetry_2
Eu0 O5 2.690421 1_545
Eu0 O5 2.690422 1_555
Eu0 O2 2.690422 1_544
Eu0 O2 2.690422 1_554
Eu0 O3 2.690828 1_455
Eu0 O4 2.690829 1_454
Eu0 O3 2.690829 1_555
Eu0 O4 2.690830 1_554
Eu0 O1 2.783345 1_555
Eu0 O1 2.783346 1_445
Eu0 O1 2.784009 1_545
Eu0 O1 2.784010 1_455
O0 Ta1 1.911770 1_555
O0 Ta0 1.911771 1_555
O1 Ta1 2.071169 1_554
O1 Ta0 2.071169 1_555
O2 Ta1 1.982697 1_455
O2 Ta1 1.982698 1_555
O3 Ta0 1.982394 1_545
O3 Ta0 1.982394 1_555
O4 Ta1 1.982394 1_555
O4 Ta1 1.982394 1_545
O5 Ta0 1.982697 1_555
O5 Ta0 1.982698 1_455
