# generated using pymatgen
data_Na3Ca3Al(SO4)6
_symmetry_space_group_name_H-M   'P 1'
_cell_length_a   9.04985780
_cell_length_b   9.04649719
_cell_length_c   23.24762217
_cell_angle_alpha   89.95243755
_cell_angle_beta   90.17759254
_cell_angle_gamma   120.24980777
_symmetry_Int_Tables_number   1
_chemical_formula_structural   Na3Ca3Al(SO4)6
_chemical_formula_sum   'Na9 Ca9 Al3 S18 O72'
_cell_volume   1644.10823532
_cell_formula_units_Z   3
loop_
 _symmetry_equiv_pos_site_id
 _symmetry_equiv_pos_as_xyz
  1  'x, y, z'
loop_
 _atom_site_type_symbol
 _atom_site_label
 _atom_site_symmetry_multiplicity
 _atom_site_fract_x
 _atom_site_fract_y
 _atom_site_fract_z
 _atom_site_occupancy
  Na  Na0  1  0.64030454  0.00014905  0.24962000  1
  Na  Na1  1  0.35830603  0.35747609  0.24943549  1
  Na  Na2  1  0.04325192  0.70370591  0.58644152  1
  Na  Na3  1  0.99943700  0.01528700  0.50013608  1
  Na  Na4  1  -0.00017679  0.99998127  0.99610631  1
  Na  Na5  1  0.66638445  0.33272322  0.83616538  1
  Na  Na6  1  0.68350105  0.34994375  0.34280374  1
  Na  Na7  1  0.31288670  0.66610899  0.15624817  1
  Na  Na8  1  0.35341411  0.66606706  0.67931393  1
  Ca  Ca0  1  0.00020813  0.99329973  0.35555833  1
  Ca  Ca1  1  0.00023067  0.99872173  0.85207189  1
  Ca  Ca2  1  0.99794690  0.01290459  0.65535445  1
  Ca  Ca3  1  0.99942085  0.99384213  0.13927456  1
  Ca  Ca4  1  0.66089148  0.32750698  0.69070393  1
  Ca  Ca5  1  0.67618298  0.34301097  0.18001856  1
  Ca  Ca6  1  0.33585723  0.66653931  0.01500847  1
  Ca  Ca7  1  0.34115721  0.66550721  0.51583410  1
  Ca  Ca8  1  0.32532954  0.66674866  0.32850800  1
  Al  Al0  1  0.66585113  0.33296994  0.97960162  1
  Al  Al1  1  0.66181667  0.32882884  0.48528867  1
  Al  Al2  1  0.33155825  0.66618718  0.82193378  1
  S  S0  1  0.30234388  0.99787839  0.24948599  1
  S  S1  1  0.69263000  0.69908720  0.25073094  1
  S  S2  1  0.00397632  0.29855750  0.25032291  1
  S  S3  1  0.30303017  0.32713847  0.75677468  1
  S  S4  1  0.02370256  0.69709321  0.75311490  1
  S  S5  1  0.67366362  0.97651260  0.75670642  1
  S  S6  1  0.94466503  0.32762212  0.57828698  1
  S  S7  1  0.37484577  0.04860071  0.57815296  1
  S  S8  1  0.67354551  0.61779149  0.57915118  1
  S  S9  1  0.95132342  0.62185113  0.07373926  1
  S  S10  1  0.67019036  0.05063560  0.07777296  1
  S  S11  1  0.38004507  0.32985638  0.07735270  1
  S  S12  1  0.61833345  0.64373919  0.91635230  1
  S  S13  1  0.02570423  0.38137667  0.91605666  1
  S  S14  1  0.35606560  0.97369111  0.91660809  1
  S  S15  1  0.64292391  0.99687717  0.41920757  1
  S  S16  1  0.35304399  0.35684524  0.41925295  1
  S  S17  1  0.00404810  0.64691187  0.42533095  1
  O  O0  1  0.21662194  0.01322830  0.30132367  1
  O  O1  1  0.79119219  0.78288052  0.30331933  1
  O  O2  1  0.98707844  0.19538959  0.30203453  1
  O  O3  1  0.21556864  0.21177135  0.80476380  1
  O  O4  1  0.99820368  0.79243994  0.79915810  1
  O  O5  1  0.78981334  0.00514414  0.80467455  1
  O  O6  1  0.74027745  0.94777793  0.70189413  1
  O  O7  1  0.20647682  0.26001475  0.70193872  1
  O  O8  1  0.05092185  0.78719968  0.69658439  1
  O  O9  1  0.77848641  0.79983765  0.19905976  1
  O  O10  1  0.02125000  0.21452985  0.19819444  1
  O  O11  1  0.20546666  0.98489118  0.19709229  1
  O  O12  1  0.86689262  0.34356106  0.63118576  1
  O  O13  1  0.46580342  0.12707479  0.63132865  1
  O  O14  1  0.66310254  0.52899394  0.63275997  1
  O  O15  1  0.87730545  0.54176847  0.12950284  1
  O  O16  1  0.66501617  0.12160107  0.13490588  1
  O  O17  1  0.45618000  0.33490769  0.13453603  1
  O  O18  1  0.49098702  0.33076011  0.02944097  1
  O  O19  1  0.84402837  0.51435410  0.02450485  1
  O  O20  1  0.67111600  0.16162645  0.02969706  1
  O  O21  1  0.47409649  0.15233896  0.52666478  1
  O  O22  1  0.67908921  0.51649941  0.52834309  1
  O  O23  1  0.83780413  0.31754531  0.52683928  1
  O  O24  1  0.55080550  0.67288416  0.96972933  1
  O  O25  1  0.12368473  0.45069062  0.96944204  1
  O  O26  1  0.32778950  0.87611207  0.96971337  1
  O  O27  1  0.54664106  0.87785821  0.46553580  1
  O  O28  1  0.32974342  0.45219653  0.46571947  1
  O  O29  1  0.11125732  0.67105157  0.47601110  1
  O  O30  1  0.07965010  0.62126637  0.37241074  1
  O  O31  1  0.55349730  0.93171947  0.36286521  1
  O  O32  1  0.37833279  0.44702621  0.36315674  1
  O  O33  1  0.12116560  0.49766347  0.86608655  1
  O  O34  1  0.37696813  0.88003526  0.86638345  1
  O  O35  1  0.50276727  0.62378848  0.86645672  1
  O  O36  1  0.97973160  0.79566038  0.42006904  1
  O  O37  1  0.81758505  0.02325951  0.41755472  1
  O  O38  1  0.20358266  0.18234989  0.41744411  1
  O  O39  1  -0.00320558  0.20781850  0.90766642  1
  O  O40  1  0.21151836  0.00231402  0.90796910  1
  O  O41  1  0.79276092  0.78809840  0.90797814  1
  O  O42  1  0.96160089  0.17359216  0.57820657  1
  O  O43  1  0.20240472  0.03222292  0.57714553  1
  O  O44  1  0.83767095  0.78622814  0.57783093  1
  O  O45  1  0.96107299  0.78989684  0.07002762  1
  O  O46  1  0.82802636  0.04050955  0.07337656  1
  O  O47  1  0.21147960  0.17133031  0.07250525  1
  O  O48  1  0.64571051  0.12347400  0.75203611  1
  O  O49  1  0.47816384  0.35550309  0.75196065  1
  O  O50  1  0.87516526  0.52171216  0.75036837  1
  O  O51  1  0.66381470  0.52193371  0.24883628  1
  O  O52  1  0.84678948  0.31217552  0.24803280  1
  O  O53  1  0.47647969  0.15736558  0.24819496  1
  O  O54  1  0.62534547  0.47996333  0.92173181  1
  O  O55  1  0.85429458  0.37224112  0.92109955  1
  O  O56  1  0.51942819  0.14632867  0.92243359  1
  O  O57  1  0.65360388  0.16618963  0.42883995  1
  O  O58  1  0.51102199  0.34557977  0.42930143  1
  O  O59  1  0.83188432  0.48846582  0.43149158  1
  O  O60  1  0.36141425  0.48283428  0.07529233  1
  O  O61  1  0.12389334  0.64261641  0.07282949  1
  O  O62  1  0.51635882  0.87865078  0.07554501  1
  O  O63  1  0.34928044  0.87279585  0.57446063  1
  O  O64  1  0.52603245  0.64342731  0.57495580  1
  O  O65  1  0.11554184  0.48551256  0.57381887  1
  O  O66  1  0.32890750  0.84823826  0.25314474  1
  O  O67  1  0.52006269  0.68573249  0.25387442  1
  O  O68  1  0.16139554  0.47046095  0.25454526  1
  O  O69  1  0.31349511  0.49669097  0.76716720  1
  O  O70  1  0.18269628  0.68798820  0.76527087  1
  O  O71  1  0.50403570  0.81676763  0.76724258  1
loop_
_geom_bond_atom_site_label_1
_geom_bond_atom_site_label_2
_geom_bond_distance
_geom_bond_site_symmetry_2
Na0 O66 2.436436 1_545
Na0 O52 2.479288 1_555
Na0 O67 2.483149 1_545
Na0 O53 2.519156 1_555
Na0 O31 2.729747 1_545
Na0 O16 2.849639 1_555
Na0 O9 2.919760 1_545
Na0 O2 2.974588 1_555
Na1 O51 2.390315 1_555
Na1 O68 2.463956 1_555
Na1 O53 2.524413 1_555
Na1 O67 2.567418 1_555
Na1 O32 2.744302 1_555
Na1 O17 2.856394 1_555
Na1 O10 2.898521 1_555
Na1 O0 2.962728 1_555
Na2 O44 2.335723 1_455
Na2 O65 2.390306 1_555
Na2 O63 2.413164 1_555
Na2 O43 2.577137 1_565
Na2 O8 2.661031 1_555
Na2 O29 2.692769 1_555
Na3 O42 2.442226 1_555
Na3 O43 2.509794 1_655
Na3 O37 2.549339 1_555
Na3 O38 2.568443 1_655
Na3 O44 2.579390 1_545
Na3 O36 2.662924 1_545
Na4 O45 2.452552 1_456
Na4 O47 2.493642 1_566
Na4 O46 2.524131 1_466
Na4 O41 2.783305 1_455
Na4 O39 2.794327 1_565
Na4 O40 2.802254 1_565
Na5 O55 2.507240 1_555
Na5 O54 2.525188 1_555
Na5 O56 2.526985 1_555
Na5 O48 2.662811 1_555
Na5 O49 2.666142 1_555
Na5 O50 2.689671 1_555
Na6 O59 2.432324 1_555
Na6 O57 2.526217 1_555
Na6 O58 2.537483 1_555
Na6 O51 2.737873 1_555
Na6 O52 2.772124 1_555
Na6 O53 2.841637 1_555
Na7 O61 2.518973 1_555
Na7 O62 2.656288 1_555
Na7 O60 2.688454 1_555
Na7 O66 2.751988 1_555
Na7 O68 2.793227 1_555
Na7 O67 2.887341 1_555
Na8 O71 2.451561 1_555
Na8 O69 2.468057 1_555
Na8 O70 2.597679 1_555
Na8 O64 2.952095 1_555
Ca0 O1 2.244578 1_455
Ca0 O0 2.262110 1_565
Ca0 O2 2.262502 1_465
Ca0 O36 2.267971 1_455
Ca0 O38 2.280015 1_565
Ca0 O37 2.312770 1_465
Ca1 O5 2.223065 1_465
Ca1 O3 2.224285 1_565
Ca1 O4 2.228260 1_455
Ca1 O41 2.291621 1_455
Ca1 O40 2.295206 1_565
Ca1 O39 2.305010 1_565
Ca2 O7 2.339319 1_655
Ca2 O6 2.363406 1_545
Ca2 O42 2.431408 1_555
Ca2 O8 2.509549 1_645
Ca2 O43 2.540566 1_655
Ca2 O44 2.559321 1_545
Ca3 O11 2.329526 1_655
Ca3 O45 2.339299 1_555
Ca3 O9 2.342490 1_555
Ca3 O10 2.346601 1_665
Ca3 O46 2.361152 1_565
Ca3 O47 2.362234 1_665
Ca4 O13 2.252500 1_555
Ca4 O14 2.257595 1_555
Ca4 O12 2.270242 1_555
Ca4 O48 2.280378 1_555
Ca4 O49 2.294317 1_555
Ca4 O50 2.307741 1_555
Ca5 O15 2.153461 1_555
Ca5 O16 2.218321 1_555
Ca5 O17 2.219791 1_555
Ca5 O52 2.319442 1_555
Ca5 O51 2.319469 1_555
Ca5 O53 2.356704 1_555
Ca6 O24 2.189847 1_554
Ca6 O25 2.198894 1_554
Ca6 O26 2.200967 1_554
Ca6 O61 2.265082 1_555
Ca6 O60 2.271748 1_555
Ca6 O62 2.272243 1_555
Ca7 O28 2.212229 1_555
Ca7 O27 2.219512 1_555
Ca7 O64 2.247272 1_555
Ca7 O63 2.290024 1_555
Ca7 O29 2.298143 1_555
Ca7 O65 2.302413 1_555
Ca8 O30 2.290413 1_555
Ca8 O68 2.376064 1_555
Ca8 O31 2.377724 1_555
Ca8 O66 2.389200 1_555
Ca8 O32 2.405313 1_555
Ca8 O67 2.420569 1_555
Al0 O19 1.925844 1_556
Al0 O18 1.956171 1_556
Al0 O20 1.957630 1_556
Al0 O56 2.027714 1_555
Al0 O54 2.048831 1_555
Al0 O55 2.070601 1_555
Al1 O23 1.906346 1_555
Al1 O21 1.906623 1_555
Al1 O22 1.908696 1_555
Al1 O58 1.943294 1_555
Al1 O57 1.945467 1_555
Al1 O59 1.946279 1_555
Al2 O69 1.936053 1_555
Al2 O71 1.943120 1_555
Al2 O70 1.960938 1_555
Al2 O33 2.021879 1_555
Al2 O34 2.044247 1_555
Al2 O35 2.051176 1_555
O0 S0 1.479185 1_545
O1 S1 1.475943 1_555
O2 S2 1.481602 1_655
O3 S3 1.460003 1_555
O4 S4 1.465130 1_655
O5 S5 1.460968 1_545
O6 S5 1.489270 1_555
O7 S3 1.489013 1_555
O8 S4 1.500061 1_555
O9 S1 1.472359 1_555
O10 S2 1.480985 1_555
O11 S0 1.468292 1_555
O12 S6 1.461648 1_555
O13 S7 1.454698 1_555
O14 S8 1.459458 1_555
O15 S9 1.472756 1_555
O16 S10 1.486795 1_555
O17 S11 1.485518 1_555
O18 S11 1.499124 1_555
O19 S9 1.497392 1_555
O20 S10 1.499035 1_555
O21 S7 1.508561 1_555
O22 S8 1.511897 1_555
O23 S6 1.509383 1_555
O24 S12 1.466416 1_555
O25 S13 1.467650 1_555
O26 S14 1.463369 1_555
O27 S15 1.461898 1_555
O28 S16 1.463444 1_555
O29 S17 1.468685 1_555
O30 S17 1.483618 1_555
O31 S15 1.494031 1_555
O32 S16 1.493518 1_555
O33 S13 1.513622 1_555
O34 S14 1.510436 1_555
O35 S12 1.508154 1_555
O36 S17 1.473802 1_655
O37 S15 1.475528 1_545
O38 S16 1.473657 1_555
O39 S13 1.469013 1_555
O40 S14 1.469066 1_545
O41 S12 1.469570 1_555
O42 S6 1.476594 1_555
O43 S7 1.491539 1_555
O44 S8 1.499606 1_555
O45 S9 1.480203 1_555
O46 S10 1.480507 1_555
O47 S11 1.480362 1_555
O48 S5 1.477080 1_545
O49 S3 1.477050 1_555
O50 S4 1.476181 1_655
O51 S1 1.489061 1_555
O52 S2 1.489181 1_655
O53 S0 1.508445 1_545
O54 S12 1.519596 1_555
O55 S13 1.516193 1_655
O56 S14 1.521812 1_545
O57 S15 1.502272 1_545
O58 S16 1.501209 1_555
O59 S17 1.501182 1_655
O60 S11 1.476779 1_555
O61 S9 1.476264 1_455
O62 S10 1.476086 1_565
O63 S7 1.489863 1_565
O64 S8 1.468515 1_555
O65 S6 1.489175 1_455
O66 S0 1.491693 1_555
O67 S1 1.506475 1_555
O68 S2 1.491579 1_555
O69 S3 1.508034 1_555
O70 S4 1.507928 1_555
O71 S5 1.507162 1_555
