# generated using pymatgen
data_MgV2(OF3)2
_symmetry_space_group_name_H-M   'P 1'
_cell_length_a   5.86595231
_cell_length_b   5.72685005
_cell_length_c   5.05900109
_cell_angle_alpha   92.10272314
_cell_angle_beta   87.96522735
_cell_angle_gamma   117.59871218
_symmetry_Int_Tables_number   1
_chemical_formula_structural   MgV2(OF3)2
_chemical_formula_sum   'Mg1 V2 O2 F6'
_cell_volume   150.47707075
_cell_formula_units_Z   1
loop_
 _symmetry_equiv_pos_site_id
 _symmetry_equiv_pos_as_xyz
  1  'x, y, z'
loop_
 _atom_site_type_symbol
 _atom_site_label
 _atom_site_symmetry_multiplicity
 _atom_site_fract_x
 _atom_site_fract_y
 _atom_site_fract_z
 _atom_site_occupancy
  Mg  Mg0  1  0.64273700  0.09874000  0.24980800  1
  V  V0  1  0.32931200  0.35521900  0.23888600  1
  V  V1  1  0.63696400  0.61896900  0.73959400  1
  O  O0  1  0.32646000  0.50156400  0.93727800  1
  O  O1  1  0.51495500  0.31757100  0.51119700  1
  F  F0  1  0.27986300  0.01756300  0.12865300  1
  F  F1  1  0.50313500  0.74431900  0.44279600  1
  F  F2  1  0.73712300  0.95435700  0.93875600  1
  F  F3  1  0.70561600  0.44820600  0.04334900  1
  F  F4  1  0.96144900  0.75346700  0.62528300  1
  F  F5  1  0.99798200  0.26312200  0.38189900  1
loop_
_geom_bond_atom_site_label_1
_geom_bond_atom_site_label_2
_geom_bond_distance
_geom_bond_site_symmetry_2
Mg0 O1 2.135278 1_555
O0 V0 1.771864 1_556
O0 V1 1.885481 1_555
O1 V0 1.864419 1_555
O1 V1 1.895881 1_555
F0 V0 1.883348 1_555
F0 Mg0 2.068235 1_555
F1 V1 2.017688 1_555
F1 Mg0 2.071750 1_565
F1 V0 2.206815 1_555
F2 Mg0 1.932181 1_566
F2 V1 1.975843 1_555
F3 V1 1.999772 1_554
F3 Mg0 2.162038 1_555
F3 V0 2.220163 1_555
F4 V1 1.773921 1_555
F5 V0 1.886116 1_655
F5 Mg0 1.977446 1_555
