# generated using pymatgen
data_MgMnPb2WO6
_symmetry_space_group_name_H-M   'P 1'
_cell_length_a   7.00464375
_cell_length_b   6.92936270
_cell_length_c   7.00462712
_cell_angle_alpha   52.71863721
_cell_angle_beta   53.16448246
_cell_angle_gamma   52.71851928
_symmetry_Int_Tables_number   1
_chemical_formula_structural   MgMnPb2WO6
_chemical_formula_sum   'Mg1 Mn1 Pb2 W1 O6'
_cell_volume   200.18837595
_cell_formula_units_Z   1
loop_
 _symmetry_equiv_pos_site_id
 _symmetry_equiv_pos_as_xyz
  1  'x, y, z'
loop_
 _atom_site_type_symbol
 _atom_site_label
 _atom_site_symmetry_multiplicity
 _atom_site_fract_x
 _atom_site_fract_y
 _atom_site_fract_z
 _atom_site_occupancy
  Mg  Mg0  1  0.09621164  0.08283772  0.09621145  1
  Mn  Mn0  1  0.51270431  0.50852490  0.51270381  1
  Pb  Pb0  1  0.32984942  0.36212391  0.32984786  1
  Pb  Pb1  1  0.68940383  0.84892442  0.68940446  1
  W  W0  1  0.91373728  0.91802016  0.91373638  1
  O  O0  1  0.74271614  0.21609122  0.31516280  1
  O  O1  1  0.74965516  0.26362008  0.74965391  1
  O  O2  1  0.74914532  0.74435042  0.24842044  1
  O  O3  1  0.24841558  0.74435387  0.74914768  1
  O  O4  1  0.28320200  0.72787135  0.28320069  1
  O  O5  1  0.31516432  0.21609096  0.74271552  1
loop_
_geom_bond_atom_site_label_1
_geom_bond_atom_site_label_2
_geom_bond_distance
_geom_bond_site_symmetry_2
Mg0 O0 1.930863 1_455
Mg0 O5 1.930869 1_554
Mg0 O4 1.931924 1_545
Mn0 O4 2.158087 1_555
Mn0 O2 2.185866 1_555
Mn0 O3 2.185887 1_555
Mn0 O1 2.206360 1_555
Mn0 O0 2.320602 1_555
Mn0 O5 2.320606 1_555
O0 Pb1 2.319877 1_545
O0 Pb0 2.371131 1_555
O1 W0 1.814378 1_545
O2 W0 1.815376 1_554
O3 W0 1.815341 1_455
O4 Pb0 2.181346 1_555
O5 Pb1 2.319866 1_545
O5 Pb0 2.371132 1_555
