# generated using pymatgen
data_Na10Ta6Al2Si11SO48
_symmetry_space_group_name_H-M   'P 1'
_cell_length_a   17.82861038
_cell_length_b   8.96385217
_cell_length_c   22.40787375
_cell_angle_alpha   90.11006199
_cell_angle_beta   89.70733320
_cell_angle_gamma   120.16621948
_symmetry_Int_Tables_number   1
_chemical_formula_structural   Na10Ta6Al2Si11SO48
_chemical_formula_sum   'Na30 Ta18 Al6 Si33 S3 O144'
_cell_volume   3096.04894391
_cell_formula_units_Z   3
loop_
 _symmetry_equiv_pos_site_id
 _symmetry_equiv_pos_as_xyz
  1  'x, y, z'
loop_
 _atom_site_type_symbol
 _atom_site_label
 _atom_site_symmetry_multiplicity
 _atom_site_fract_x
 _atom_site_fract_y
 _atom_site_fract_z
 _atom_site_occupancy
  Na  Na0  1  0.31678378  0.99334380  0.25225890  1
  Na  Na1  1  0.81802719  0.99412988  0.25253246  1
  Na  Na2  1  0.82091395  0.64225743  0.74792545  1
  Na  Na3  1  0.18237795  0.98911171  0.75042184  1
  Na  Na4  1  0.68145118  0.00147100  0.74895309  1
  Na  Na5  1  0.01722820  0.70555202  0.58551378  1
  Na  Na6  1  0.83639122  0.96504351  0.58541490  1
  Na  Na7  1  0.64800654  0.97054960  0.08594820  1
  Na  Na8  1  0.33500039  0.70463436  0.08651701  1
  Na  Na9  1  0.83702880  0.70600433  0.08806569  1
  Na  Na10  1  0.01770472  0.32766981  0.08687812  1
  Na  Na11  1  0.51433456  0.32471050  0.08746868  1
  Na  Na12  1  0.98793451  0.66481905  0.91407382  1
  Na  Na13  1  0.34685532  0.02804874  0.91473475  1
  Na  Na14  1  0.48563140  0.30968969  0.41524309  1
  Na  Na15  1  0.98728829  0.31097588  0.41487577  1
  Na  Na16  1  0.34628231  0.66386835  0.41581915  1
  Na  Na17  1  0.84681043  0.66506387  0.41528635  1
  Na  Na18  1  0.00980135  0.01041140  0.50532609  1
  Na  Na19  1  0.50461044  0.99966643  0.50341114  1
  Na  Na20  1  0.00703146  0.01029002  0.00464904  1
  Na  Na21  1  0.50168784  0.99801303  0.00092917  1
  Na  Na22  1  0.33684148  0.34855377  0.83376480  1
  Na  Na23  1  0.83610367  0.32723605  0.83380386  1
  Na  Na24  1  0.33204189  0.33827036  0.33339362  1
  Na  Na25  1  0.83241192  0.33856998  0.33330671  1
  Na  Na26  1  0.16309945  0.65871662  0.17321993  1
  Na  Na27  1  0.66363084  0.65147040  0.17570833  1
  Na  Na28  1  0.17083207  0.66434102  0.67109299  1
  Na  Na29  1  0.65887229  0.65223044  0.66415373  1
  Ta  Ta0  1  0.99648767  0.99653745  0.35438133  1
  Ta  Ta1  1  0.49576528  0.99624048  0.35410141  1
  Ta  Ta2  1  0.99602646  0.00021015  0.85601357  1
  Ta  Ta3  1  0.49878846  0.99510787  0.85499548  1
  Ta  Ta4  1  0.49660577  0.99889552  0.64486454  1
  Ta  Ta5  1  0.33743132  0.33367707  0.68614862  1
  Ta  Ta6  1  0.83741509  0.33801274  0.68774419  1
  Ta  Ta7  1  0.33759505  0.34293226  0.18813975  1
  Ta  Ta8  1  0.83958318  0.34744611  0.18836738  1
  Ta  Ta9  1  0.33076892  0.33920575  0.97874564  1
  Ta  Ta10  1  0.83333209  0.32930914  0.97858537  1
  Ta  Ta11  1  0.33028217  0.32817114  0.47954759  1
  Ta  Ta12  1  0.83288276  0.32911180  0.47938150  1
  Ta  Ta13  1  0.16660951  0.66809881  0.02037123  1
  Ta  Ta14  1  0.66650342  0.66633889  0.02021776  1
  Ta  Ta15  1  0.16886520  0.66825244  0.52206220  1
  Ta  Ta16  1  0.66289438  0.66279125  0.52055978  1
  Ta  Ta17  1  0.66412855  0.66469584  0.81154474  1
  Al  Al0  1  0.99718040  0.98728669  0.64393883  1
  Al  Al1  1  0.99634487  0.00453826  0.14570529  1
  Al  Al2  1  0.49199553  0.00581992  0.14601025  1
  Al  Al3  1  0.16622365  0.64640431  0.31520150  1
  Al  Al4  1  0.66642181  0.64643868  0.31542544  1
  Al  Al5  1  0.16784857  0.67829315  0.81592882  1
  Si  Si0  1  0.35183152  0.71148946  0.24737261  1
  Si  Si1  1  0.85248114  0.71363437  0.24738110  1
  Si  Si2  1  0.00713088  0.29685126  0.24743052  1
  Si  Si3  1  0.50656686  0.29791498  0.24763078  1
  Si  Si4  1  0.64257543  0.28880063  0.74943218  1
  Si  Si5  1  0.00542722  0.71531163  0.74847901  1
  Si  Si6  1  0.49629400  0.70791115  0.74932904  1
  Si  Si7  1  0.34985321  0.98969264  0.75216872  1
  Si  Si8  1  0.85979688  0.00398298  0.74603046  1
  Si  Si9  1  0.47887980  0.33150910  0.58164192  1
  Si  Si10  1  0.98176089  0.32605115  0.58402586  1
  Si  Si11  1  0.18434550  0.04362315  0.58590436  1
  Si  Si12  1  0.68660505  0.04320036  0.58443146  1
  Si  Si13  1  0.33289798  0.62033348  0.58363760  1
  Si  Si14  1  0.83298308  0.62448353  0.58382750  1
  Si  Si15  1  0.47903701  0.63249639  0.08429272  1
  Si  Si16  1  0.98119329  0.63676406  0.08317568  1
  Si  Si17  1  0.33272540  0.04441929  0.08400569  1
  Si  Si18  1  0.83463416  0.04430086  0.08584310  1
  Si  Si19  1  0.18367884  0.32138555  0.08573787  1
  Si  Si20  1  0.68569514  0.32665815  0.08521869  1
  Si  Si21  1  0.30563213  0.66118689  0.91224226  1
  Si  Si22  1  0.81015705  0.66334304  0.91594352  1
  Si  Si23  1  0.02789719  0.38561734  0.91335359  1
  Si  Si24  1  0.52084707  0.37475162  0.91708291  1
  Si  Si25  1  0.16736162  0.95596475  0.91400851  1
  Si  Si26  1  0.66622894  0.95726745  0.91638041  1
  Si  Si27  1  0.30357617  0.95001690  0.41145641  1
  Si  Si28  1  0.80364357  0.94871385  0.41243883  1
  Si  Si29  1  0.16704526  0.38034421  0.41469395  1
  Si  Si30  1  0.66744883  0.37908115  0.41447610  1
  Si  Si31  1  0.02866875  0.67126409  0.41393209  1
  Si  Si32  1  0.52696862  0.66981615  0.41241494  1
  S  S0  1  0.14104102  0.99754120  0.24774584  1
  S  S1  1  0.64248263  0.99789923  0.24793947  1
  S  S2  1  0.14149685  0.28942317  0.74869853  1
  O  O0  1  0.10233116  0.02572088  0.30305190  1
  O  O1  1  0.60177965  0.02500388  0.30196991  1
  O  O2  1  0.41467323  0.80142870  0.30748410  1
  O  O3  1  0.91470107  0.80130747  0.30770428  1
  O  O4  1  0.48675296  0.16680989  0.30660577  1
  O  O5  1  0.98624084  0.16651928  0.30688545  1
  O  O6  1  0.10218103  0.17624112  0.80302694  1
  O  O7  1  0.59891804  0.16369463  0.80734028  1
  O  O8  1  0.48518894  0.80229915  0.80834861  1
  O  O9  1  0.98534763  0.80565713  0.80770547  1
  O  O10  1  0.41425536  0.02971594  0.81011156  1
  O  O11  1  0.91745300  0.02988175  0.80625845  1
  O  O12  1  0.40161193  0.97179942  0.69401378  1
  O  O13  1  0.90241728  0.96516205  0.68928918  1
  O  O14  1  0.08908700  0.20450575  0.69579543  1
  O  O15  1  0.58343654  0.19690382  0.69159300  1
  O  O16  1  0.01752025  0.83579970  0.69095700  1
  O  O17  1  0.51765436  0.83675295  0.69284463  1
  O  O18  1  0.40142100  0.83378814  0.19014144  1
  O  O19  1  0.90124054  0.83505702  0.19020449  1
  O  O20  1  0.01329918  0.19747917  0.18915046  1
  O  O21  1  0.51430846  0.20007843  0.18888196  1
  O  O22  1  0.08931159  0.97829368  0.19568710  1
  O  O23  1  0.59204455  0.97910390  0.19406825  1
  O  O24  1  0.43197975  0.36137640  0.64027297  1
  O  O25  1  0.93183204  0.36539135  0.63955987  1
  O  O26  1  0.24678143  0.13393509  0.64414086  1
  O  O27  1  0.74903678  0.13231970  0.64306165  1
  O  O28  1  0.31913364  0.49619789  0.64102468  1
  O  O29  1  0.81798502  0.50229050  0.64261639  1
  O  O30  1  0.43485836  0.49791150  0.14097002  1
  O  O31  1  0.93325182  0.49731932  0.13951502  1
  O  O32  1  0.31784898  0.13505350  0.14318516  1
  O  O33  1  0.81248064  0.12976120  0.14325634  1
  O  O34  1  0.25284826  0.36577282  0.14075594  1
  O  O35  1  0.75273796  0.36782358  0.14088161  1
  O  O36  1  0.23373661  0.30141870  0.02681305  1
  O  O37  1  0.73410625  0.29846100  0.02700747  1
  O  O38  1  0.41583226  0.53596638  0.02747092  1
  O  O39  1  0.91776393  0.53947200  0.02518790  1
  O  O40  1  0.35052626  0.16948683  0.02571929  1
  O  O41  1  0.84960661  0.17105426  0.02836699  1
  O  O42  1  0.23571473  0.16710469  0.52768444  1
  O  O43  1  0.73713511  0.16659721  0.52668886  1
  O  O44  1  0.34712942  0.53147825  0.52359463  1
  O  O45  1  0.84961269  0.53124757  0.52560134  1
  O  O46  1  0.42048287  0.30670222  0.52260206  1
  O  O47  1  0.91909608  0.29773291  0.52516325  1
  O  O48  1  0.26668280  0.69942929  0.97486505  1
  O  O49  1  0.76649410  0.69465124  0.97562576  1
  O  O50  1  0.08158503  0.46564032  0.97635856  1
  O  O51  1  0.58096426  0.46785230  0.97633582  1
  O  O52  1  0.14829775  0.82809287  0.97259952  1
  O  O53  1  0.65334186  0.83700787  0.97567699  1
  O  O54  1  0.26496524  0.82825640  0.47129300  1
  O  O55  1  0.76700423  0.83176567  0.47362764  1
  O  O56  1  0.14736089  0.46577827  0.47390883  1
  O  O57  1  0.64800323  0.46555709  0.47377111  1
  O  O58  1  0.08163123  0.69755932  0.47664413  1
  O  O59  1  0.58364135  0.69833841  0.47398445  1
  O  O60  1  0.07209878  0.62957727  0.35883721  1
  O  O61  1  0.57181671  0.62949636  0.35796221  1
  O  O62  1  0.24903240  0.86246967  0.35270331  1
  O  O63  1  0.74873068  0.86104795  0.35385123  1
  O  O64  1  0.18955116  0.50544385  0.35875261  1
  O  O65  1  0.68982697  0.50494733  0.35882209  1
  O  O66  1  0.07060618  0.51467841  0.85859829  1
  O  O67  1  0.57017911  0.50061109  0.86000681  1
  O  O68  1  0.18670742  0.87573170  0.85624455  1
  O  O69  1  0.68090533  0.86656284  0.85730545  1
  O  O70  1  0.24596168  0.63744800  0.85689065  1
  O  O71  1  0.75252285  0.63994587  0.85706682  1
  O  O72  1  0.01085757  0.83501432  0.40821721  1
  O  O73  1  0.51127294  0.83608072  0.40780286  1
  O  O74  1  0.40404292  0.97358248  0.40819364  1
  O  O75  1  0.90407541  0.97333577  0.40842941  1
  O  O76  1  0.08011154  0.18816799  0.40809270  1
  O  O77  1  0.58013937  0.18817229  0.40797183  1
  O  O78  1  0.01479305  0.19138558  0.90771929  1
  O  O79  1  0.50963569  0.18410760  0.91156745  1
  O  O80  1  0.08028620  0.97280448  0.90834281  1
  O  O81  1  0.58024195  0.97397875  0.91158397  1
  O  O82  1  0.40272934  0.83838485  0.90982516  1
  O  O83  1  0.90724617  0.83503176  0.91077350  1
  O  O84  1  0.48679247  0.16065088  0.58858005  1
  O  O85  1  0.98571957  0.15340749  0.59316664  1
  O  O86  1  0.08895817  0.01881229  0.59225132  1
  O  O87  1  0.59236341  0.02420586  0.58926101  1
  O  O88  1  0.41840525  0.81029969  0.59033462  1
  O  O89  1  0.91983473  0.81185306  0.58939373  1
  O  O90  1  0.49044625  0.82064252  0.09335777  1
  O  O91  1  0.98599833  0.81735575  0.09337902  1
  O  O92  1  0.41873085  0.02472180  0.08939402  1
  O  O93  1  0.91870841  0.02358841  0.08981207  1
  O  O94  1  0.08835748  0.15843516  0.09272036  1
  O  O95  1  0.59120937  0.15698169  0.09235016  1
  O  O96  1  0.33931269  0.16417117  0.74445376  1
  O  O97  1  0.84282480  0.16764428  0.74358072  1
  O  O98  1  0.22858854  0.29907810  0.74513080  1
  O  O99  1  0.73945763  0.30861973  0.74430865  1
  O  O100  1  0.41134089  0.51646537  0.74479978  1
  O  O101  1  0.91331834  0.52560498  0.74386484  1
  O  O102  1  0.34378779  0.51869136  0.24325344  1
  O  O103  1  0.84385376  0.51948867  0.24323992  1
  O  O104  1  0.41152407  0.29803165  0.24412113  1
  O  O105  1  0.91170312  0.29824609  0.24313331  1
  O  O106  1  0.23072637  0.15654461  0.24485851  1
  O  O107  1  0.73152776  0.15716736  0.24532278  1
  O  O108  1  0.32041228  0.49641783  0.92295313  1
  O  O109  1  0.82486380  0.49932682  0.92234163  1
  O  O110  1  0.42511819  0.35258304  0.92291559  1
  O  O111  1  0.93040040  0.36464311  0.92435907  1
  O  O112  1  0.25379081  0.14453523  0.92455617  1
  O  O113  1  0.75332251  0.14615609  0.92347163  1
  O  O114  1  0.32453328  0.14895188  0.42122775  1
  O  O115  1  0.82492352  0.14881388  0.42165630  1
  O  O116  1  0.25318895  0.36079244  0.42366018  1
  O  O117  1  0.75416241  0.36194539  0.42460542  1
  O  O118  1  0.42820743  0.49960758  0.42227210  1
  O  O119  1  0.92899177  0.49918845  0.42325647  1
  O  O120  1  0.17932518  0.50093398  0.07713446  1
  O  O121  1  0.67871890  0.50254484  0.07745401  1
  O  O122  1  0.07195887  0.63546633  0.07775440  1
  O  O123  1  0.57356251  0.64337785  0.07779470  1
  O  O124  1  0.24879876  0.84994081  0.07721387  1
  O  O125  1  0.74697100  0.85317524  0.07756053  1
  O  O126  1  0.17644261  0.85385534  0.57684652  1
  O  O127  1  0.68388450  0.85894253  0.57701507  1
  O  O128  1  0.24739841  0.64006733  0.57686636  1
  O  O129  1  0.74881534  0.64844093  0.57740197  1
  O  O130  1  0.07220736  0.50818373  0.57800299  1
  O  O131  1  0.57329594  0.50576519  0.57787622  1
  O  O132  1  0.15362952  0.84863936  0.25391226  1
  O  O133  1  0.65429417  0.84887172  0.25382523  1
  O  O134  1  0.25904554  0.70137622  0.25620397  1
  O  O135  1  0.75916924  0.70165187  0.25632032  1
  O  O136  1  0.08769769  0.48781125  0.25754715  1
  O  O137  1  0.58803863  0.48786351  0.25749175  1
  O  O138  1  0.15228563  0.45909159  0.75628475  1
  O  O139  1  0.65814975  0.48431558  0.75552524  1
  O  O140  1  0.08902392  0.69423186  0.75781874  1
  O  O141  1  0.58549323  0.69562144  0.75620951  1
  O  O142  1  0.25468756  0.82238297  0.75744529  1
  O  O143  1  0.76176231  0.83142310  0.75549494  1
loop_
_geom_bond_atom_site_label_1
_geom_bond_atom_site_label_2
_geom_bond_distance
_geom_bond_site_symmetry_2
Na0 O134 2.282392 1_555
Na0 O104 2.389143 1_565
Na0 O132 2.520348 1_555
Na0 O62 2.541529 1_555
Na0 O106 2.604024 1_565
Na0 O32 2.752239 1_565
Na0 O4 2.894561 1_565
Na0 O18 2.898255 1_555
Na1 O135 2.284037 1_555
Na1 O105 2.384940 1_565
Na1 O133 2.529198 1_555
Na1 O63 2.569905 1_555
Na1 O107 2.609357 1_565
Na1 O33 2.760163 1_565
Na1 O5 2.870165 1_565
Na1 O19 2.877855 1_555
Na2 O101 2.354814 1_555
Na2 O143 2.410485 1_555
Na2 O139 2.514176 1_555
Na2 O99 2.587472 1_555
Na2 O29 2.658820 1_555
Na2 O71 2.722608 1_555
Na2 O13 2.825572 1_555
Na2 O9 2.872493 1_555
Na3 O140 2.315564 1_555
Na3 O142 2.420692 1_555
Na3 O96 2.427573 1_565
Na3 O98 2.472347 1_565
Na3 O68 2.598408 1_555
Na3 O26 2.676047 1_565
Na3 O16 2.876871 1_555
Na3 O6 2.938208 1_565
Na4 O141 2.398875 1_545
Na4 O99 2.408119 1_555
Na4 O97 2.490154 1_555
Na4 O143 2.567405 1_545
Na4 O27 2.649322 1_555
Na4 O69 2.712310 1_545
Na4 O17 2.825900 1_545
Na4 O7 2.848671 1_555
Na5 O89 2.364648 1_455
Na5 O130 2.420568 1_555
Na5 O86 2.436083 1_565
Na5 O126 2.462790 1_555
Na5 O16 2.632333 1_555
Na5 O58 2.707077 1_555
Na5 O25 2.900292 1_455
Na5 O45 2.917904 1_455
Na6 O85 2.335555 1_565
Na6 O127 2.395504 1_555
Na6 O129 2.464094 1_555
Na6 O89 2.482275 1_555
Na6 O13 2.613455 1_555
Na6 O55 2.786942 1_555
Na6 O47 2.909669 1_565
Na6 O27 2.943026 1_565
Na7 O95 2.353090 1_565
Na7 O90 2.434462 1_555
Na7 O125 2.473245 1_555
Na7 O123 2.546418 1_555
Na7 O23 2.631062 1_555
Na7 O53 2.765539 1_554
Na7 O33 2.847802 1_565
Na7 O37 2.863564 1_565
Na8 O90 2.427502 1_555
Na8 O120 2.448000 1_555
Na8 O124 2.473465 1_555
Na8 O92 2.482058 1_565
Na8 O18 2.602735 1_555
Na8 O48 2.778256 1_554
Na8 O38 2.876791 1_555
Na8 O34 2.893710 1_555
Na9 O91 2.324404 1_555
Na9 O93 2.461718 1_565
Na9 O121 2.486110 1_555
Na9 O125 2.550990 1_555
Na9 O19 2.563712 1_555
Na9 O49 2.800464 1_554
Na9 O35 2.874998 1_555
Na9 O39 2.901045 1_555
Na10 O93 2.390314 1_455
Na10 O94 2.414128 1_555
Na10 O122 2.430582 1_555
Na10 O120 2.501969 1_555
Na10 O20 2.556621 1_555
Na10 O50 2.743552 1_554
Na10 O31 2.871755 1_455
Na10 O41 2.911394 1_455
Na11 O92 2.351887 1_555
Na11 O95 2.494812 1_555
Na11 O123 2.508013 1_555
Na11 O21 2.534043 1_555
Na11 O121 2.545598 1_555
Na11 O51 2.776514 1_554
Na11 O30 2.835811 1_555
Na11 O40 2.886113 1_555
Na12 O111 2.360384 1_555
Na12 O80 2.404152 1_655
Na12 O109 2.519625 1_555
Na12 O83 2.571054 1_555
Na12 O9 2.710743 1_555
Na12 O66 2.738150 1_655
Na12 O39 2.755546 1_556
Na12 O52 2.803852 1_655
Na13 O82 2.365393 1_545
Na13 O112 2.372400 1_555
Na13 O79 2.510478 1_555
Na13 O110 2.522765 1_555
Na13 O10 2.625571 1_555
Na13 O40 2.775363 1_556
Na13 O68 2.801362 1_545
Na13 O48 2.880909 1_545
Na14 O118 2.391667 1_555
Na14 O77 2.427584 1_555
Na14 O114 2.486161 1_555
Na14 O74 2.610353 1_545
Na14 O46 2.660373 1_555
Na14 O4 2.753173 1_555
Na14 O61 2.791681 1_555
Na14 O57 2.831810 1_555
Na15 O119 2.391846 1_555
Na15 O76 2.408603 1_655
Na15 O115 2.506588 1_555
Na15 O75 2.621020 1_545
Na15 O47 2.724875 1_555
Na15 O5 2.738028 1_555
Na15 O60 2.770140 1_655
Na15 O56 2.805607 1_655
Na16 O116 2.373471 1_555
Na16 O74 2.433898 1_555
Na16 O118 2.546895 1_555
Na16 O73 2.549511 1_555
Na16 O44 2.696342 1_555
Na16 O2 2.714856 1_555
Na16 O64 2.738866 1_555
Na16 O54 2.817791 1_555
Na17 O117 2.375442 1_555
Na17 O75 2.422078 1_555
Na17 O72 2.533414 1_655
Na17 O119 2.565667 1_555
Na17 O3 2.695147 1_555
Na17 O65 2.736075 1_555
Na17 O45 2.761270 1_555
Na17 O55 2.841953 1_555
Na18 O86 2.389977 1_555
Na18 O85 2.497276 1_455
Na18 O89 2.530230 1_445
Na18 O76 2.614461 1_555
Na18 O72 2.687649 1_545
Na18 O75 2.790563 1_445
Na19 O87 2.424873 1_565
Na19 O84 2.503880 1_565
Na19 O88 2.529319 1_555
Na19 O73 2.629541 1_555
Na19 O77 2.634338 1_565
Na19 O74 2.727201 1_555
Na20 O94 2.417536 1_555
Na20 O93 2.508504 1_455
Na20 O91 2.537423 1_445
Na20 O80 2.623953 1_544
Na20 O78 2.675173 1_554
Na20 O83 2.697138 1_444
Na21 O81 2.507774 1_554
Na21 O92 2.549202 1_565
Na21 O95 2.551648 1_565
Na21 O90 2.558467 1_555
Na21 O79 2.566072 1_564
Na21 O82 2.610759 1_554
Na22 O100 2.445199 1_555
Na22 O108 2.492122 1_555
Na22 O110 2.538454 1_555
Na22 O96 2.607351 1_555
Na22 O112 2.633992 1_555
Na22 O98 2.653623 1_555
Na23 O97 2.511345 1_555
Na23 O113 2.534689 1_555
Na23 O111 2.553808 1_555
Na23 O101 2.577559 1_555
Na23 O109 2.578885 1_555
Na23 O99 2.600664 1_555
Na24 O116 2.522499 1_555
Na24 O102 2.531215 1_555
Na24 O118 2.555239 1_555
Na24 O114 2.559951 1_555
Na24 O104 2.573273 1_555
Na24 O106 2.630416 1_555
Na25 O103 2.533901 1_555
Na25 O117 2.537414 1_555
Na25 O115 2.571452 1_555
Na25 O119 2.575486 1_555
Na25 O105 2.587164 1_555
Na25 O107 2.617370 1_555
Na26 O136 2.374880 1_555
Na26 O134 2.429488 1_555
Na26 O132 2.543643 1_555
Na26 O122 2.636912 1_555
Na26 O120 2.667001 1_555
Na26 O124 2.692424 1_555
Na27 O137 2.307415 1_555
Na27 O135 2.371662 1_555
Na27 O133 2.550279 1_555
Na27 O121 2.654309 1_555
Na27 O123 2.704799 1_555
Na27 O125 2.756003 1_555
Na28 O142 2.424169 1_555
Na28 O140 2.517430 1_555
Na28 O138 2.556185 1_555
Na28 O128 2.576073 1_555
Na28 O130 2.637219 1_555
Na28 O126 2.682660 1_555
Na29 O131 2.407558 1_555
Na29 O129 2.524686 1_555
Na29 O139 2.539642 1_555
Na29 O141 2.568769 1_555
Na29 O127 2.572823 1_555
Na29 O143 2.683040 1_555
Al0 O13 1.890208 1_555
Al0 O16 1.894658 1_655
Al0 O86 1.901542 1_665
Al0 O89 1.923227 1_555
Al0 O85 1.966761 1_565
Al0 O14 2.151898 1_665
Al1 O20 1.871198 1_655
Al1 O19 1.891276 1_545
Al1 O94 1.927637 1_655
Al1 O93 1.941581 1_555
Al1 O91 1.976788 1_545
Al1 O22 2.113946 1_645
Al2 O21 1.847853 1_555
Al2 O18 1.857522 1_545
Al2 O92 1.893288 1_555
Al2 O95 1.996579 1_555
Al2 O90 2.023554 1_545
Al2 O23 2.201965 1_545
Al3 O64 1.805245 1_555
Al3 O60 1.877311 1_555
Al3 O136 1.913424 1_555
Al3 O62 1.941546 1_555
Al3 O134 1.972248 1_555
Al3 O132 2.375836 1_555
Al4 O65 1.808072 1_555
Al4 O61 1.871670 1_555
Al4 O137 1.916692 1_555
Al4 O63 1.940341 1_555
Al4 O135 1.972547 1_555
Al4 O133 2.377341 1_555
Al5 O70 1.855479 1_555
Al5 O68 1.860189 1_555
Al5 O66 1.871865 1_555
Al5 O142 1.938725 1_555
Al5 O140 1.977903 1_555
Al5 O138 2.273715 1_555
O0 S0 1.497067 1_545
O0 Ta0 2.105978 1_445
O1 S1 1.489477 1_545
O1 Ta1 2.119512 1_545
O2 Si0 1.680179 1_555
O2 Ta1 1.924033 1_555
O3 Si1 1.676414 1_555
O3 Ta0 1.930458 1_555
O4 Si3 1.684114 1_555
O4 Ta1 1.936780 1_545
O5 Si2 1.685855 1_655
O5 Ta0 1.943111 1_545
O6 S2 1.511281 1_555
O6 Ta2 2.112897 1_455
O7 Si4 1.632550 1_555
O7 Ta3 1.971366 1_545
O8 Si6 1.632619 1_555
O8 Ta3 1.926888 1_555
O9 Si5 1.681574 1_655
O9 Ta2 1.977502 1_565
O10 Si7 1.652966 1_545
O10 Ta3 1.966143 1_545
O11 Si8 1.644699 1_555
O11 Ta2 1.915126 1_555
O12 Si7 1.646532 1_555
O12 Ta4 1.925820 1_555
O13 Si8 1.602889 1_565
O14 S2 1.466564 1_555
O15 Si4 1.614610 1_555
O15 Ta4 1.972605 1_545
O16 Si5 1.625678 1_555
O17 Si6 1.624657 1_555
O17 Ta4 1.991847 1_555
O18 Si0 1.627209 1_555
O19 Si1 1.620153 1_555
O20 Si2 1.613541 1_555
O21 Si3 1.623740 1_555
O22 S0 1.446174 1_555
O23 S1 1.467055 1_555
O24 Si9 1.646001 1_555
O24 Ta5 1.876831 1_555
O25 Si10 1.663656 1_555
O25 Ta6 1.904425 1_555
O26 Si11 1.643923 1_555
O26 Ta5 1.950549 1_555
O27 Si12 1.649354 1_555
O27 Ta6 1.993497 1_555
O28 Si13 1.637019 1_555
O28 Ta5 1.933331 1_555
O29 Si14 1.647479 1_555
O29 Ta6 1.957798 1_555
O30 Si15 1.652093 1_555
O30 Ta7 1.902612 1_555
O31 Si16 1.675718 1_555
O31 Ta8 1.877280 1_555
O32 Si17 1.642474 1_555
O32 Ta7 1.986963 1_555
O33 Si18 1.641051 1_555
O33 Ta8 2.027967 1_555
O34 Si19 1.649087 1_555
O34 Ta7 1.944291 1_555
O35 Si20 1.640357 1_555
O35 Ta8 1.965889 1_555
O36 Si19 1.649094 1_555
O36 Ta9 1.913384 1_554
O37 Si20 1.648255 1_555
O37 Ta10 1.968056 1_554
O38 Si15 1.634067 1_555
O38 Ta9 1.980930 1_554
O39 Si16 1.657494 1_555
O39 Ta10 2.015900 1_554
O40 Si17 1.645356 1_555
O40 Ta9 2.023605 1_554
O41 Si18 1.648705 1_555
O41 Ta10 1.940086 1_554
O42 Si11 1.655416 1_555
O42 Ta11 1.905662 1_555
O43 Si12 1.643572 1_555
O43 Ta12 1.909995 1_555
O44 Si13 1.644525 1_555
O44 Ta11 1.957439 1_555
O45 Si14 1.652144 1_555
O45 Ta12 1.974194 1_555
O46 Si9 1.632144 1_555
O46 Ta11 1.970165 1_555
O47 Si10 1.667663 1_555
O47 Ta12 1.986409 1_555
O48 Si21 1.672199 1_555
O48 Ta13 1.944438 1_556
O49 Si22 1.637296 1_555
O49 Ta14 1.941369 1_556
O50 Si23 1.656442 1_555
O50 Ta13 1.951310 1_556
O51 Si24 1.649067 1_555
O51 Ta14 1.933861 1_556
O52 Si25 1.662150 1_555
O52 Ta13 1.946621 1_556
O53 Si26 1.653416 1_555
O53 Ta14 1.939248 1_556
O54 Si27 1.644379 1_555
O54 Ta15 1.950244 1_555
O55 Si28 1.647346 1_555
O55 Ta16 2.001511 1_555
O56 Si29 1.652785 1_555
O56 Ta15 1.975518 1_555
O57 Si30 1.657668 1_555
O57 Ta16 1.954337 1_555
O58 Si31 1.646351 1_555
O58 Ta15 1.987819 1_555
O59 Si32 1.656182 1_555
O59 Ta16 1.912084 1_555
O60 Si31 1.594539 1_555
O61 Si32 1.592966 1_555
O62 Si27 1.592762 1_555
O63 Si28 1.592317 1_555
O64 Si29 1.593067 1_555
O65 Si30 1.592253 1_555
O66 Si23 1.591907 1_555
O67 Si24 1.636732 1_555
O67 Ta17 1.913044 1_555
O68 Si25 1.597736 1_555
O69 Si26 1.639505 1_555
O69 Ta17 1.966539 1_555
O70 Si21 1.581254 1_555
O71 Si22 1.623754 1_555
O71 Ta17 1.985452 1_555
O72 Si31 1.655704 1_555
O72 Ta0 1.999976 1_455
O73 Si32 1.652340 1_555
O73 Ta1 1.998625 1_555
O74 Si27 1.696101 1_555
O74 Ta1 1.957413 1_555
O75 Si28 1.692379 1_555
O75 Ta0 1.964880 1_555
O76 Si29 1.646088 1_555
O76 Ta0 2.014579 1_445
O77 Si30 1.642236 1_555
O77 Ta1 2.022245 1_545
O78 Si23 1.640878 1_555
O78 Ta2 1.952200 1_455
O79 Si24 1.622260 1_555
O79 Ta3 2.044389 1_545
O80 Si25 1.639072 1_555
O80 Ta2 2.020399 1_465
O81 Si26 1.617625 1_555
O81 Ta3 2.012168 1_555
O82 Si21 1.660881 1_555
O82 Ta3 1.995796 1_555
O83 Si22 1.643008 1_555
O83 Ta2 1.958333 1_565
O84 Si9 1.614928 1_555
O84 Ta4 1.996964 1_545
O85 Si10 1.597808 1_555
O86 Si11 1.606033 1_555
O87 Si12 1.604514 1_555
O87 Ta4 2.026963 1_545
O88 Si13 1.624369 1_555
O88 Ta4 1.983799 1_555
O89 Si14 1.619121 1_555
O90 Si15 1.606641 1_555
O91 Si16 1.593588 1_555
O92 Si17 1.634322 1_555
O93 Si18 1.603210 1_555
O94 Si19 1.596721 1_555
O95 Si20 1.612372 1_555
O96 Si7 1.675725 1_545
O96 Ta5 2.018911 1_555
O97 Si8 1.641153 1_555
O97 Ta6 2.015828 1_555
O98 S2 1.512791 1_555
O98 Ta5 2.231391 1_555
O99 Si4 1.648597 1_555
O99 Ta6 2.059668 1_555
O100 Si6 1.624173 1_555
O100 Ta5 1.996940 1_555
O101 Si5 1.671422 1_655
O101 Ta6 1.990626 1_555
O102 Si0 1.663203 1_555
O102 Ta7 1.959234 1_555
O103 Si1 1.670745 1_555
O103 Ta8 1.942058 1_555
O104 Si3 1.697231 1_555
O104 Ta7 2.006195 1_555
O105 Si2 1.710865 1_655
O105 Ta8 1.985417 1_555
O106 S0 1.516966 1_545
O106 Ta7 2.195696 1_555
O107 S1 1.511116 1_545
O107 Ta8 2.220404 1_555
O108 Si21 1.643662 1_555
O108 Ta9 1.963066 1_555
O109 Si22 1.624643 1_555
O109 Ta10 2.043121 1_555
O110 Si24 1.620619 1_555
O110 Ta9 2.045810 1_555
O111 Si23 1.668823 1_655
O111 Ta10 2.000211 1_555
O112 Si25 1.634602 1_545
O112 Ta9 2.001247 1_555
O113 Si26 1.631666 1_545
O113 Ta10 1.977848 1_555
O114 Si27 1.642299 1_545
O114 Ta11 2.031487 1_555
O115 Si28 1.649029 1_545
O115 Ta12 2.017081 1_555
O116 Si29 1.644274 1_555
O116 Ta11 1.991452 1_555
O117 Si30 1.645464 1_555
O117 Ta12 1.999259 1_555
O118 Si32 1.665631 1_555
O118 Ta11 2.084481 1_555
O119 Si31 1.680329 1_655
O119 Ta12 2.049851 1_555
O120 Si19 1.661446 1_555
O120 Ta13 2.065486 1_555
O121 Si20 1.652221 1_555
O121 Ta14 2.044379 1_555
O122 Si16 1.628019 1_455
O122 Ta13 2.017360 1_555
O123 Si15 1.644127 1_555
O123 Ta14 2.022131 1_555
O124 Si17 1.637324 1_565
O124 Ta13 2.009246 1_555
O125 Si18 1.650137 1_565
O125 Ta14 2.027286 1_555
O126 Si11 1.647030 1_565
O126 Ta15 2.015234 1_555
O127 Si12 1.635991 1_565
O127 Ta16 2.041297 1_555
O128 Si13 1.628307 1_555
O128 Ta15 1.976508 1_555
O129 Si14 1.626293 1_555
O129 Ta16 2.050380 1_555
O130 Si10 1.623780 1_455
O130 Ta15 2.024731 1_555
O131 Si9 1.623892 1_555
O131 Ta16 1.977050 1_555
O132 S0 1.467334 1_555
O133 S1 1.459433 1_555
O134 Si0 1.621701 1_555
O135 Si1 1.623696 1_555
O136 Si2 1.604813 1_555
O137 Si3 1.604366 1_555
O138 S2 1.443714 1_555
O139 Si4 1.636345 1_555
O139 Ta17 2.005445 1_555
O140 Si5 1.608481 1_555
O141 Si6 1.656381 1_555
O141 Ta17 1.997365 1_555
O142 Si7 1.607228 1_555
O143 Si8 1.665178 1_565
O143 Ta17 2.052147 1_555
