# generated using pymatgen
data_ScHCl
_symmetry_space_group_name_H-M   'P 1'
_cell_length_a   9.44965051
_cell_length_b   9.44965051
_cell_length_c   9.44965083
_cell_angle_alpha   21.31537085
_cell_angle_beta   21.31537085
_cell_angle_gamma   21.31537413
_symmetry_Int_Tables_number   1
_chemical_formula_structural   ScHCl
_chemical_formula_sum   'Sc2 H2 Cl2'
_cell_volume   97.67153502
_cell_formula_units_Z   2
loop_
 _symmetry_equiv_pos_site_id
 _symmetry_equiv_pos_as_xyz
  1  'x, y, z'
loop_
 _atom_site_type_symbol
 _atom_site_label
 _atom_site_symmetry_multiplicity
 _atom_site_fract_x
 _atom_site_fract_y
 _atom_site_fract_z
 _atom_site_occupancy
  Sc  Sc0  1  0.87863251  0.87863251  0.87863251  1
  Sc  Sc1  1  0.12136749  0.12136749  0.12136749  1
  H  H0  1  0.80636156  0.80636156  0.80636156  1
  H  H1  1  0.19363844  0.19363844  0.19363844  1
  Cl  Cl0  1  0.39630258  0.39630258  0.39630258  1
  Cl  Cl1  1  0.60369742  0.60369742  0.60369742  1
loop_
_geom_bond_atom_site_label_1
_geom_bond_atom_site_label_2
_geom_bond_distance
_geom_bond_site_symmetry_2
H0 Sc0 2.001544 1_555
H0 Sc1 2.080841 1_665
H0 Sc1 2.080841 1_656
H0 Sc1 2.080841 1_566
H1 Sc1 2.001544 1_555
H1 Sc0 2.080841 1_445
H1 Sc0 2.080841 1_544
H1 Sc0 2.080841 1_454
Cl0 Sc1 2.586127 1_655
Cl0 Sc1 2.586127 1_565
Cl0 Sc1 2.586127 1_556
Cl1 Sc0 2.586127 1_545
Cl1 Sc0 2.586127 1_455
Cl1 Sc0 2.586127 1_554
