# generated using pymatgen
data_Sr2Co2O5
_symmetry_space_group_name_H-M   'P 1'
_cell_length_a   5.34128976
_cell_length_b   5.42684353
_cell_length_c   8.93815091
_cell_angle_alpha   107.28147036
_cell_angle_beta   107.26583952
_cell_angle_gamma   90.45263654
_symmetry_Int_Tables_number   1
_chemical_formula_structural   Sr2Co2O5
_chemical_formula_sum   'Sr4 Co4 O10'
_cell_volume   234.92572182
_cell_formula_units_Z   2
loop_
 _symmetry_equiv_pos_site_id
 _symmetry_equiv_pos_as_xyz
  1  'x, y, z'
loop_
 _atom_site_type_symbol
 _atom_site_label
 _atom_site_symmetry_multiplicity
 _atom_site_fract_x
 _atom_site_fract_y
 _atom_site_fract_z
 _atom_site_occupancy
  Sr  Sr0  1  0.37918329  0.88237857  0.77772327  1
  Sr  Sr1  1  0.10180734  0.60207041  0.22307261  1
  Sr  Sr2  1  0.87815281  0.39811482  0.77703517  1
  Sr  Sr3  1  0.60063356  0.11780112  0.22219401  1
  Co  Co0  1  0.27410934  0.18627773  0.49676483  1
  Co  Co1  1  0.98790008  -0.00008293  -0.00030506  1
  Co  Co2  1  0.77652786  0.81329416  0.50316986  1
  Co  Co3  1  0.48828445  0.50032032  0.00047258  1
  O  O0  1  0.33178668  0.38711025  0.70835569  1
  O  O1  1  0.62155641  0.61323659  0.29105801  1
  O  O2  1  0.13154846  0.86373465  0.50000735  1
  O  O3  1  0.12186879  0.16151465  0.27977327  1
  O  O4  1  0.73996195  0.74905409  0.00627870  1
  O  O5  1  0.24739795  0.74915719  0.00690683  1
  O  O6  1  0.84180290  0.83937056  0.72059354  1
  O  O7  1  0.73133382  0.25354744  0.99334562  1
  O  O8  1  0.63173646  0.13445194  0.49996219  1
  O  O9  1  0.23840685  0.24864841  0.99359054  1
loop_
_geom_bond_atom_site_label_1
_geom_bond_atom_site_label_2
_geom_bond_distance
_geom_bond_site_symmetry_2
Co0 O0 1.812101 1_555
Co0 O3 1.829803 1_555
Co0 O2 1.914865 1_545
Co0 O8 1.926033 1_555
Co1 O9 1.916739 1_654
Co1 O4 1.917296 1_545
Co1 O7 1.950835 1_554
Co1 O5 1.950911 1_645
Co1 O6 2.265757 1_544
Co1 O3 2.273853 1_655
Co2 O1 1.813719 1_555
Co2 O6 1.830813 1_555
Co2 O8 1.916861 1_565
Co2 O2 1.923480 1_655
Co3 O5 1.872852 1_555
Co3 O7 1.873152 1_554
Co3 O4 1.876207 1_555
Co3 O9 1.876976 1_554
Co3 O1 2.361814 1_555
Co3 O0 2.374170 1_554
O0 Sr0 2.564851 1_555
O0 Sr2 2.667343 1_455
O0 Sr2 2.794444 1_555
O0 Sr0 2.979592 1_545
O1 Sr3 2.567368 1_555
O1 Sr1 2.655917 1_555
O1 Sr1 2.803363 1_655
O1 Sr3 2.975635 1_565
O2 Sr0 2.412691 1_555
O2 Sr1 2.417310 1_555
O3 Sr1 2.583812 1_555
O3 Sr3 2.671828 1_455
O3 Sr3 2.752964 1_555
O3 Sr1 2.921333 1_545
O4 Sr1 2.616493 1_655
O4 Sr3 2.619995 1_565
O4 Sr2 2.640428 1_554
O4 Sr0 2.640752 1_554
O5 Sr3 2.600554 1_565
O5 Sr1 2.602570 1_555
O5 Sr0 2.634813 1_554
O5 Sr2 2.636308 1_454
O6 Sr2 2.587156 1_555
O6 Sr0 2.666138 1_555
O6 Sr0 2.757251 1_655
O6 Sr2 2.917234 1_565
O7 Sr2 2.600018 1_555
O7 Sr0 2.606031 1_545
O7 Sr1 2.632625 1_656
O7 Sr3 2.636065 1_556
O8 Sr3 2.412751 1_555
O8 Sr2 2.417197 1_555
O9 Sr0 2.616360 1_545
O9 Sr2 2.617951 1_455
O9 Sr3 2.638104 1_556
O9 Sr1 2.644103 1_556
