# generated using pymatgen
data_Ba2YbMgNbO6
_symmetry_space_group_name_H-M   'P 1'
_cell_length_a   6.01660152
_cell_length_b   6.01660110
_cell_length_c   6.86123121
_cell_angle_alpha   63.98903697
_cell_angle_beta   63.98904016
_cell_angle_gamma   60.17314953
_symmetry_Int_Tables_number   1
_chemical_formula_structural   Ba2YbMgNbO6
_chemical_formula_sum   'Ba2 Yb1 Mg1 Nb1 O6'
_cell_volume   185.74669934
_cell_formula_units_Z   1
loop_
 _symmetry_equiv_pos_site_id
 _symmetry_equiv_pos_as_xyz
  1  'x, y, z'
loop_
 _atom_site_type_symbol
 _atom_site_label
 _atom_site_symmetry_multiplicity
 _atom_site_fract_x
 _atom_site_fract_y
 _atom_site_fract_z
 _atom_site_occupancy
  Ba  Ba0  1  0.69414216  0.69414216  0.91194426  1
  Ba  Ba1  1  0.27488454  0.27488454  0.16945762  1
  Yb  Yb0  1  0.49559078  0.49559078  0.50901048  1
  Mg  Mg0  1  0.87064617  0.87064617  0.38858425  1
  Nb  Nb0  1  0.02194397  0.02194397  0.93095394  1
  O  O0  1  0.23793930  0.74789438  0.78075483  1
  O  O1  1  0.24502890  0.77306009  0.21198435  1
  O  O2  1  0.74789438  0.23793930  0.78075483  1
  O  O3  1  0.23561613  0.23561613  0.78789520  1
  O  O4  1  0.77306009  0.24502890  0.21198435  1
  O  O5  1  0.77825359  0.77825359  0.20209288  1
loop_
_geom_bond_atom_site_label_1
_geom_bond_atom_site_label_2
_geom_bond_distance
_geom_bond_site_symmetry_2
Ba0 O4 2.543038 1_556
Ba0 O1 2.543038 1_556
Ba0 O5 2.549003 1_556
Ba0 O2 3.078522 1_555
Ba0 O0 3.078522 1_555
Ba0 Mg0 3.095570 1_555
Ba0 O3 3.104129 1_565
Ba0 O3 3.104129 1_655
Ba0 O2 3.135884 1_565
Ba0 O0 3.135884 1_655
Ba1 O3 2.847111 1_554
Ba1 O0 2.914619 1_554
Ba1 O2 2.914619 1_554
Ba1 O1 2.992371 1_545
Ba1 O4 2.992371 1_455
Ba1 O5 3.025990 1_545
Ba1 O5 3.025990 1_455
Ba1 O1 3.047437 1_555
Ba1 O4 3.047438 1_555
Mg0 O4 1.949677 1_565
Mg0 O1 1.949677 1_655
Mg0 O5 1.952031 1_555
Nb0 O0 1.911479 1_545
Nb0 O2 1.911479 1_455
Nb0 O3 1.923384 1_555
Nb0 O5 2.261424 1_446
Nb0 O1 2.345208 1_546
Nb0 O4 2.345208 1_456
O0 Yb0 2.406306 1_555
O1 Yb0 2.533777 1_555
O2 Yb0 2.406306 1_555
O3 Yb0 2.395453 1_555
O4 Yb0 2.533777 1_555
O5 Yb0 2.610354 1_555
