# generated using pymatgen
data_Na14Zn5Ge3(PO4)12
_symmetry_space_group_name_H-M   'P 1'
_cell_length_a   17.79062930
_cell_length_b   8.89133382
_cell_length_c   21.76546339
_cell_angle_alpha   90.06084140
_cell_angle_beta   89.92843247
_cell_angle_gamma   119.91665513
_symmetry_Int_Tables_number   1
_chemical_formula_structural   Na14Zn5Ge3(PO4)12
_chemical_formula_sum   'Na42 Zn15 Ge9 P36 O144'
_cell_volume   2984.14901699
_cell_formula_units_Z   3
loop_
 _symmetry_equiv_pos_site_id
 _symmetry_equiv_pos_as_xyz
  1  'x, y, z'
loop_
 _atom_site_type_symbol
 _atom_site_label
 _atom_site_symmetry_multiplicity
 _atom_site_fract_x
 _atom_site_fract_y
 _atom_site_fract_z
 _atom_site_occupancy
  Na  Na0  1  0.18537580  0.36094773  0.24765280  1
  Na  Na1  1  0.68652157  0.36309278  0.24738805  1
  Na  Na2  1  0.99370083  0.62931698  0.24770042  1
  Na  Na3  1  0.49407244  0.62841723  0.24713319  1
  Na  Na4  1  0.31876475  0.62843753  0.74749929  1
  Na  Na5  1  0.81948066  0.62814767  0.74773434  1
  Na  Na6  1  0.18527133  0.01243921  0.74751477  1
  Na  Na7  1  0.68503336  0.01229785  0.74725165  1
  Na  Na8  1  0.15706823  0.34379196  0.57930206  1
  Na  Na9  1  0.65712097  0.34395060  0.57925889  1
  Na  Na10  1  0.01460673  0.68499286  0.57975584  1
  Na  Na11  1  0.51453692  0.68476314  0.57973847  1
  Na  Na12  1  0.32786688  0.96972134  0.57902783  1
  Na  Na13  1  0.82788817  0.96956874  0.57923009  1
  Na  Na14  1  0.15467641  0.96697064  0.07939017  1
  Na  Na15  1  0.65520639  0.96649525  0.08175951  1
  Na  Na16  1  0.32779915  0.68438710  0.07955896  1
  Na  Na17  1  0.01684383  0.34635011  0.08120711  1
  Na  Na18  1  0.51710400  0.34472976  0.07869117  1
  Na  Na19  1  0.48213259  0.67090501  0.91714912  1
  Na  Na20  1  0.98556072  0.67557009  0.91433897  1
  Na  Na21  1  0.35444325  0.04076603  0.91711417  1
  Na  Na22  1  0.16522714  0.28981730  0.91752240  1
  Na  Na23  1  0.66368066  0.29646876  0.91456303  1
  Na  Na24  1  0.47994204  0.29171737  0.41740512  1
  Na  Na25  1  0.97996239  0.29159938  0.41718679  1
  Na  Na26  1  0.16603650  0.04000433  0.41730606  1
  Na  Na27  1  0.66617647  0.04001391  0.41749959  1
  Na  Na28  1  0.35402317  0.66695576  0.41767372  1
  Na  Na29  1  0.85412126  0.66719066  0.41741872  1
  Na  Na30  1  0.99972004  0.00025397  0.49587613  1
  Na  Na31  1  0.49971347  0.00026969  0.49598276  1
  Na  Na32  1  0.98632330  0.98964397  0.99546281  1
  Na  Na33  1  0.49985596  0.00103567  0.99622133  1
  Na  Na34  1  0.34048539  0.33447661  0.83075752  1
  Na  Na35  1  0.84172228  0.32394372  0.82900044  1
  Na  Na36  1  0.33257725  0.31888555  0.33086169  1
  Na  Na37  1  0.83305603  0.31967711  0.33108504  1
  Na  Na38  1  0.17174159  0.67840427  0.16469191  1
  Na  Na39  1  0.67974789  0.68056345  0.16172002  1
  Na  Na40  1  0.16086745  0.65647366  0.66443111  1
  Na  Na41  1  0.66050273  0.65574833  0.66462556  1
  Zn  Zn0  1  0.99900847  0.00062618  0.34761271  1
  Zn  Zn1  1  0.49908425  0.00066677  0.34809258  1
  Zn  Zn2  1  0.99617399  0.00116152  0.85066701  1
  Zn  Zn3  1  0.49972765  0.00213176  0.84801740  1
  Zn  Zn4  1  0.33681777  0.33369198  0.68248162  1
  Zn  Zn5  1  0.83659726  0.33362337  0.68210675  1
  Zn  Zn6  1  0.33257776  0.32588433  0.18243095  1
  Zn  Zn7  1  0.83308150  0.32791273  0.18357259  1
  Zn  Zn8  1  0.33372366  0.33261444  0.98617968  1
  Zn  Zn9  1  0.33398885  0.33276136  0.48598321  1
  Zn  Zn10  1  0.83405367  0.33280832  0.48595656  1
  Zn  Zn11  1  0.16598545  0.66576501  0.01549353  1
  Zn  Zn12  1  0.67103966  0.66790690  0.01679115  1
  Zn  Zn13  1  0.16693820  0.66727876  0.51524454  1
  Zn  Zn14  1  0.66696856  0.66734716  0.51528050  1
  Ge  Ge0  1  0.99975912  0.00236354  0.65204987  1
  Ge  Ge1  1  0.50036648  0.00303388  0.65226115  1
  Ge  Ge2  1  0.99479983  0.99461863  0.14947035  1
  Ge  Ge3  1  0.49935875  0.99875639  0.15155999  1
  Ge  Ge4  1  0.83428892  0.32963822  0.98236148  1
  Ge  Ge5  1  0.16887226  0.67185711  0.31419194  1
  Ge  Ge6  1  0.66934352  0.67242389  0.31406795  1
  Ge  Ge7  1  0.16114738  0.65909720  0.81519587  1
  Ge  Ge8  1  0.66818795  0.66679861  0.81567402  1
  P  P0  1  0.14575029  0.99315913  0.25096179  1
  P  P1  1  0.64693222  0.99428349  0.25205663  1
  P  P2  1  0.35033057  0.71036304  0.25177781  1
  P  P3  1  0.85108381  0.71280671  0.25145378  1
  P  P4  1  0.00193303  0.29747447  0.25177719  1
  P  P5  1  0.50271335  0.29807619  0.25159738  1
  P  P6  1  0.14364688  0.29758694  0.75290772  1
  P  P7  1  0.64529635  0.30020736  0.75201036  1
  P  P8  1  0.00276907  0.70652637  0.75235214  1
  P  P9  1  0.50368515  0.70714587  0.75271696  1
  P  P10  1  0.35043493  -0.00516248  0.75242290  1
  P  P11  1  0.85172515  -0.00451870  0.75217280  1
  P  P12  1  0.48193837  0.32539390  0.58497798  1
  P  P13  1  0.98196193  0.32550437  0.58498366  1
  P  P14  1  0.18024559  0.03667059  0.58672158  1
  P  P15  1  0.68022221  0.03651912  0.58658796  1
  P  P16  1  0.33747757  0.63877841  0.58680512  1
  P  P17  1  0.83743840  0.63870250  0.58671154  1
  P  P18  1  0.48178915  0.63844896  0.08671355  1
  P  P19  1  0.97629948  0.63204834  0.08484084  1
  P  P20  1  0.33760573  0.03620545  0.08492373  1
  P  P21  1  0.83617051  0.04334540  0.08446586  1
  P  P22  1  0.17969882  0.32291342  0.08677010  1
  P  P23  1  0.68595207  0.32953552  0.08570512  1
  P  P24  1  0.31078957  0.66446935  0.91536506  1
  P  P25  1  0.81241932  0.66076379  0.91775948  1
  P  P26  1  0.01729772  0.37431123  0.91917368  1
  P  P27  1  0.52234331  0.38071428  0.91644033  1
  P  P28  1  0.16739120  0.95807697  0.91526162  1
  P  P29  1  0.67207136  0.96321137  0.91840684  1
  P  P30  1  0.31122698  0.95697367  0.41620473  1
  P  P31  1  0.81133391  0.95717899  0.41626188  1
  P  P32  1  0.16747930  0.37724189  0.41514439  1
  P  P33  1  0.66750707  0.37737023  0.41513405  1
  P  P34  1  0.02151457  0.66554069  0.41514751  1
  P  P35  1  0.52162460  0.66543904  0.41500504  1
  O  O0  1  0.10663489  0.02177185  0.30900676  1
  O  O1  1  0.60669161  0.02184539  0.30966684  1
  O  O2  1  0.40487576  0.78659194  0.30905242  1
  O  O3  1  0.90430237  0.78541434  0.30962388  1
  O  O4  1  0.49146561  0.19679831  0.30999715  1
  O  O5  1  0.99126834  0.19763142  0.31053254  1
  O  O6  1  0.10546801  0.18760423  0.80990227  1
  O  O7  1  0.60677875  0.19050603  0.80923156  1
  O  O8  1  0.48905613  0.78604771  0.81058348  1
  O  O9  1  0.99011814  0.78781547  0.80996736  1
  O  O10  1  0.40097111  0.01712058  0.81097531  1
  O  O11  1  0.90505777  0.01950341  0.80807615  1
  O  O12  1  0.39584615  0.96092873  0.69484227  1
  O  O13  1  0.89270090  0.95791615  0.69270621  1
  O  O14  1  0.08628940  0.21026497  0.69366741  1
  O  O15  1  0.58728621  0.21129848  0.69324086  1
  O  O16  1  0.02155139  0.83184202  0.69460921  1
  O  O17  1  0.52203074  0.83286837  0.69505607  1
  O  O18  1  0.39479674  0.82612438  0.19288533  1
  O  O19  1  0.89612451  0.83341416  0.19389809  1
  O  O20  1  0.01883795  0.20781784  0.19402221  1
  O  O21  1  0.52101977  0.20914715  0.19358200  1
  O  O22  1  0.08269707  0.95406404  0.19332911  1
  O  O23  1  0.58407781  0.95735322  0.19410982  1
  O  O24  1  0.43943758  0.36163202  0.63900198  1
  O  O25  1  0.93953335  0.36166926  0.63905415  1
  O  O26  1  0.23621085  0.11870204  0.64354081  1
  O  O27  1  0.73613831  0.11862401  0.64338380  1
  O  O28  1  0.32135282  0.52531530  0.64339649  1
  O  O29  1  0.82138509  0.52556900  0.64335570  1
  O  O30  1  0.43978137  0.52737710  0.14343392  1
  O  O31  1  0.93831004  0.52264014  0.14202546  1
  O  O32  1  0.31981383  0.12115090  0.13896264  1
  O  O33  1  0.81905826  0.12263076  0.14034013  1
  O  O34  1  0.23636624  0.35593341  0.14332494  1
  O  O35  1  0.73668116  0.35158745  0.14398953  1
  O  O36  1  0.21670140  0.28471121  0.02817114  1
  O  O37  1  0.72880966  0.29124350  0.02708933  1
  O  O38  1  0.42562711  0.56679376  0.02806753  1
  O  O39  1  0.91969396  0.54381452  0.02515858  1
  O  O40  1  0.35845590  0.14414933  0.02509197  1
  O  O41  1  0.85864368  0.17145929  0.02662137  1
  O  O42  1  0.21690112  0.14873713  0.52825182  1
  O  O43  1  0.71686789  0.14860070  0.52814730  1
  O  O44  1  0.35746251  0.56619741  0.52821251  1
  O  O45  1  0.85729842  0.56583322  0.52815439  1
  O  O46  1  0.42763432  0.28301726  0.52534916  1
  O  O47  1  0.92764384  0.28306922  0.52536856  1
  O  O48  1  0.27168445  0.69207010  0.97387586  1
  O  O49  1  0.77024343  0.68409807  0.97346416  1
  O  O50  1  0.06939403  0.45069750  0.97787510  1
  O  O51  1  0.57333872  0.45521220  0.97568418  1
  O  O52  1  0.15311732  0.85077106  0.97340613  1
  O  O53  1  0.65504574  0.85382249  0.97562533  1
  O  O54  1  0.27398371  0.85384472  0.47559668  1
  O  O55  1  0.77393436  0.85383602  0.47559058  1
  O  O56  1  0.15395331  0.45606314  0.47367293  1
  O  O57  1  0.65393455  0.45617035  0.47363766  1
  O  O58  1  0.07444052  0.69334556  0.47369412  1
  O  O59  1  0.57447568  0.69333917  0.47358667  1
  O  O60  1  0.06707493  0.63704676  0.35627115  1
  O  O61  1  0.56727724  0.63707654  0.35614277  1
  O  O62  1  0.24877410  0.86324475  0.35950945  1
  O  O63  1  0.74883599  0.86360666  0.35950977  1
  O  O64  1  0.18136056  0.49667068  0.35638740  1
  O  O65  1  0.68138467  0.49662577  0.35628988  1
  O  O66  1  0.06037263  0.50216956  0.86240270  1
  O  O67  1  0.57098024  0.50818800  0.86002511  1
  O  O68  1  0.18063421  0.86435612  0.85645182  1
  O  O69  1  0.68708755  0.87901632  0.85851774  1
  O  O70  1  0.24932495  0.63484290  0.85717816  1
  O  O71  1  0.75438047  0.62427878  0.85723616  1
  O  O72  1  0.01175897  0.82774605  0.41052480  1
  O  O73  1  0.51171184  0.82752956  0.41045525  1
  O  O74  1  0.40177127  0.97572800  0.41058067  1
  O  O75  1  0.90183137  0.97590990  0.41064930  1
  O  O76  1  0.08658625  0.19556478  0.41075622  1
  O  O77  1  0.58649121  0.19568016  0.41084280  1
  O  O78  1  0.00875875  0.19686727  0.91118117  1
  O  O79  1  0.51252407  0.19885687  0.91026610  1
  O  O80  1  0.08716860  0.98006437  0.91056118  1
  O  O81  1  0.59298484  0.98941082  0.91164346  1
  O  O82  1  0.40193503  0.82637388  0.91067626  1
  O  O83  1  0.90494791  0.81036237  0.91130819  1
  O  O84  1  0.48801419  0.15286487  0.59341372  1
  O  O85  1  0.98818047  0.15308014  0.59333093  1
  O  O86  1  0.08750500  0.02306145  0.59322725  1
  O  O87  1  0.58741933  0.02279526  0.59307395  1
  O  O88  1  0.42351072  0.82395918  0.59362014  1
  O  O89  1  0.92370842  0.82363811  0.59329864  1
  O  O90  1  0.48871841  0.82509257  0.09267428  1
  O  O91  1  0.98446763  0.81773480  0.08849727  1
  O  O92  1  0.42470513  0.02515177  0.09276609  1
  O  O93  1  0.92372662  0.03754404  0.08948638  1
  O  O94  1  0.08701167  0.14987798  0.09320740  1
  O  O95  1  0.59375083  0.15364025  0.08850346  1
  O  O96  1  0.33437893  0.14678605  0.74503297  1
  O  O97  1  0.83334757  0.14452197  0.74455628  1
  O  O98  1  0.23569354  0.32576671  0.74521353  1
  O  O99  1  0.73669595  0.32446007  0.74503376  1
  O  O100  1  0.42381991  0.52927957  0.74435899  1
  O  O101  1  0.92298556  0.52822874  0.74459098  1
  O  O102  1  0.33732186  0.52680381  0.24477704  1
  O  O103  1  0.83841500  0.52982459  0.24388174  1
  O  O104  1  0.42682120  0.33022057  0.24427139  1
  O  O105  1  0.92672238  0.33211778  0.24521922  1
  O  O106  1  0.23497221  0.15282659  0.24326789  1
  O  O107  1  0.73572051  0.15392282  0.24455599  1
  O  O108  1  0.31714167  0.49770274  0.91543506  1
  O  O109  1  0.81650647  0.48331520  0.92121571  1
  O  O110  1  0.43252370  0.36745226  0.91601259  1
  O  O111  1  0.92661968  0.36916176  0.92269339  1
  O  O112  1  0.25142109  0.13600575  0.91519451  1
  O  O113  1  0.75630366  0.15009772  0.92251430  1
  O  O114  1  0.31746917  0.13642935  0.41669639  1
  O  O115  1  0.81749006  0.13654449  0.41675927  1
  O  O116  1  0.25100467  0.36478532  0.41553309  1
  O  O117  1  0.75094213  0.36472141  0.41553151  1
  O  O118  1  0.43208151  0.49861531  0.41553035  1
  O  O119  1  0.93198475  0.49872842  0.41569627  1
  O  O120  1  0.16637803  0.48103722  0.08160390  1
  O  O121  1  0.66822033  0.47913727  0.07866838  1
  O  O122  1  0.06892408  0.66038364  0.07822797  1
  O  O123  1  0.57360863  0.66427478  0.08192185  1
  O  O124  1  0.25946118  0.85032115  0.08065510  1
  O  O125  1  0.75762582  0.86431614  0.07589202  1
  O  O126  1  0.16671251  0.85201837  0.58173527  1
  O  O127  1  0.66667719  0.85185356  0.58170569  1
  O  O128  1  0.25875721  0.66599383  0.58181724  1
  O  O129  1  0.75874800  0.66600548  0.58178842  1
  O  O130  1  0.07463413  0.48136592  0.58035935  1
  O  O131  1  0.57459106  0.48126729  0.58036106  1
  O  O132  1  0.14891473  0.81771701  0.25377988  1
  O  O133  1  0.64914811  0.81826921  0.25381728  1
  O  O134  1  0.25760189  0.69393186  0.25445306  1
  O  O135  1  0.75802931  0.69502226  0.25426989  1
  O  O136  1  0.09022409  0.48155455  0.25238619  1
  O  O137  1  0.59051192  0.48175968  0.25231887  1
  O  O138  1  0.15076064  0.48285824  0.75614740  1
  O  O139  1  0.65379941  0.48574128  0.75476107  1
  O  O140  1  0.09036183  0.69959088  0.75444509  1
  O  O141  1  0.59201426  0.70409050  0.75564127  1
  O  O142  1  0.25885269  0.81939378  0.75309921  1
  O  O143  1  0.75918354  0.81822431  0.75518722  1
loop_
_geom_bond_atom_site_label_1
_geom_bond_atom_site_label_2
_geom_bond_distance
_geom_bond_site_symmetry_2
Na0 O102 2.347215 1_555
Na0 O136 2.415825 1_555
Na0 O106 2.416604 1_555
Na0 O34 2.452789 1_555
Na0 O134 2.577481 1_555
Na0 O64 2.672441 1_555
Na0 O20 2.824195 1_555
Na0 O0 2.937723 1_555
Na1 O103 2.347260 1_555
Na1 O137 2.416451 1_555
Na1 O107 2.419119 1_555
Na1 O35 2.440731 1_555
Na1 O135 2.570107 1_555
Na1 O65 2.671709 1_555
Na1 O21 2.810623 1_555
Na1 O1 2.960767 1_555
Na2 O105 2.294475 1_555
Na2 O132 2.415598 1_655
Na2 O103 2.446282 1_555
Na2 O31 2.495943 1_555
Na2 O136 2.633706 1_655
Na2 O60 2.685292 1_655
Na2 O22 2.772547 1_655
Na2 O3 2.909453 1_555
Na3 O104 2.302329 1_555
Na3 O133 2.416037 1_555
Na3 O30 2.443345 1_555
Na3 O102 2.466331 1_555
Na3 O137 2.624733 1_555
Na3 O61 2.690505 1_555
Na3 O23 2.789420 1_555
Na3 O2 2.920463 1_555
Na4 O98 2.337009 1_555
Na4 O142 2.416201 1_555
Na4 O100 2.432759 1_555
Na4 O28 2.452409 1_555
Na4 O138 2.604698 1_555
Na4 O70 2.700130 1_555
Na4 O12 2.809483 1_555
Na4 O8 2.966306 1_555
Na5 O99 2.344499 1_555
Na5 O101 2.411669 1_555
Na5 O143 2.416738 1_555
Na5 O29 2.453678 1_555
Na5 O139 2.567358 1_555
Na5 O71 2.641303 1_555
Na5 O13 2.814646 1_555
Na5 O9 2.961972 1_555
Na6 O96 2.303421 1_555
Na6 O140 2.434460 1_545
Na6 O26 2.445538 1_555
Na6 O98 2.464922 1_555
Na6 O142 2.629949 1_545
Na6 O68 2.694464 1_545
Na6 O16 2.779808 1_545
Na6 O6 2.912307 1_555
Na7 O97 2.292014 1_555
Na7 O141 2.399659 1_545
Na7 O27 2.444038 1_555
Na7 O99 2.450773 1_555
Na7 O143 2.649428 1_545
Na7 O69 2.705570 1_545
Na7 O17 2.763145 1_545
Na7 O7 2.908591 1_555
Na8 O130 2.331698 1_555
Na8 O86 2.497268 1_555
Na8 O128 2.512611 1_555
Na8 O56 2.519055 1_555
Na8 O85 2.629274 1_455
Na8 O42 2.685123 1_555
Na8 O14 2.774626 1_555
Na8 O28 2.897151 1_555
Na9 O131 2.331308 1_555
Na9 O87 2.500175 1_555
Na9 O129 2.511430 1_555
Na9 O57 2.518992 1_555
Na9 O84 2.633040 1_555
Na9 O43 2.686789 1_555
Na9 O15 2.761566 1_555
Na9 O29 2.896955 1_555
Na10 O126 2.349817 1_555
Na10 O89 2.491626 1_455
Na10 O130 2.519387 1_555
Na10 O58 2.526479 1_555
Na10 O86 2.629414 1_565
Na10 O45 2.695158 1_455
Na10 O16 2.793240 1_555
Na10 O25 2.808499 1_455
Na11 O127 2.350358 1_555
Na11 O88 2.498543 1_555
Na11 O131 2.518678 1_555
Na11 O59 2.528670 1_555
Na11 O87 2.628818 1_565
Na11 O44 2.691628 1_555
Na11 O17 2.805419 1_555
Na11 O24 2.806787 1_555
Na12 O128 2.344461 1_555
Na12 O54 2.462473 1_555
Na12 O84 2.498109 1_565
Na12 O126 2.515040 1_555
Na12 O88 2.622554 1_555
Na12 O46 2.710163 1_565
Na12 O12 2.815190 1_555
Na12 O26 2.920633 1_565
Na13 O129 2.343007 1_555
Na13 O55 2.466564 1_555
Na13 O85 2.499710 1_565
Na13 O127 2.515855 1_555
Na13 O89 2.625220 1_555
Na13 O47 2.713128 1_565
Na13 O13 2.750875 1_555
Na13 O27 2.918686 1_565
Na14 O122 2.368689 1_555
Na14 O94 2.476942 1_565
Na14 O52 2.521113 1_554
Na14 O124 2.545676 1_555
Na14 O91 2.638303 1_455
Na14 O36 2.708480 1_565
Na14 O22 2.765711 1_555
Na14 O32 2.860101 1_565
Na15 O123 2.331757 1_555
Na15 O95 2.408211 1_565
Na15 O125 2.410844 1_555
Na15 O53 2.516397 1_554
Na15 O90 2.587373 1_555
Na15 O23 2.734549 1_555
Na15 O37 2.774866 1_565
Na15 O33 2.831833 1_565
Na16 O124 2.333338 1_555
Na16 O90 2.504253 1_555
Na16 O120 2.517693 1_555
Na16 O48 2.523194 1_554
Na16 O92 2.650266 1_565
Na16 O38 2.680686 1_555
Na16 O18 2.755980 1_555
Na16 O34 2.892303 1_555
Na17 O120 2.309470 1_555
Na17 O93 2.403936 1_455
Na17 O50 2.434567 1_554
Na17 O122 2.465487 1_555
Na17 O94 2.618244 1_555
Na17 O41 2.718422 1_455
Na17 O20 2.756449 1_555
Na17 O31 2.887337 1_455
Na18 O121 2.334778 1_555
Na18 O51 2.451775 1_554
Na18 O92 2.492282 1_555
Na18 O123 2.497726 1_555
Na18 O95 2.665372 1_555
Na18 O40 2.736910 1_555
Na18 O21 2.793202 1_555
Na18 O30 2.955333 1_555
Na19 O110 2.384100 1_555
Na19 O82 2.436089 1_555
Na19 O8 2.514295 1_555
Na19 O81 2.520476 1_555
Na19 O108 2.545610 1_555
Na19 O38 2.601200 1_556
Na19 O67 2.899973 1_555
Na19 O53 2.956877 1_555
Na20 O83 2.283065 1_555
Na20 O111 2.388694 1_555
Na20 O80 2.392207 1_655
Na20 O9 2.467153 1_555
Na20 O109 2.619392 1_555
Na20 O39 2.681995 1_556
Na20 O66 2.732340 1_655
Na20 O52 2.887711 1_655
Na21 O112 2.372025 1_555
Na21 O79 2.442047 1_555
Na21 O82 2.443951 1_545
Na21 O10 2.496801 1_555
Na21 O40 2.510738 1_556
Na21 O110 2.518465 1_555
Na22 O80 2.391912 1_545
Na22 O108 2.395797 1_555
Na22 O78 2.481299 1_555
Na22 O112 2.513129 1_555
Na22 O6 2.545782 1_555
Na22 O36 2.586097 1_556
Na23 O81 2.369464 1_545
Na23 O79 2.380345 1_555
Na23 O109 2.380785 1_555
Na23 O7 2.493643 1_555
Na23 O113 2.565017 1_555
Na23 O37 2.721076 1_556
Na23 O71 2.822642 1_555
Na23 O51 2.932344 1_555
Na24 O118 2.381900 1_555
Na24 O74 2.439670 1_545
Na24 O77 2.440568 1_555
Na24 O114 2.506142 1_555
Na24 O46 2.512971 1_555
Na24 O4 2.527197 1_555
Na25 O119 2.385262 1_555
Na25 O75 2.436991 1_545
Na25 O76 2.441652 1_655
Na25 O115 2.506149 1_555
Na25 O5 2.507920 1_555
Na25 O47 2.518106 1_555
Na26 O114 2.385224 1_555
Na26 O76 2.425349 1_555
Na26 O72 2.439346 1_545
Na26 O116 2.504284 1_555
Na26 O0 2.556156 1_555
Na26 O42 2.590864 1_555
Na26 O62 2.918538 1_545
Na26 O58 2.941947 1_545
Na27 O115 2.383035 1_555
Na27 O77 2.429926 1_555
Na27 O73 2.442590 1_545
Na27 O117 2.503698 1_555
Na27 O1 2.547442 1_555
Na27 O43 2.584055 1_555
Na27 O63 2.916804 1_545
Na27 O59 2.939385 1_545
Na28 O116 2.380718 1_555
Na28 O73 2.436679 1_555
Na28 O74 2.440688 1_555
Na28 O118 2.498807 1_555
Na28 O2 2.565048 1_555
Na28 O44 2.579622 1_555
Na29 O117 2.383188 1_555
Na29 O72 2.435458 1_655
Na29 O75 2.439943 1_555
Na29 O119 2.496652 1_555
Na29 O3 2.543732 1_555
Na29 O45 2.584619 1_555
Na30 O75 2.480307 1_545
Na30 O76 2.481754 1_655
Na30 O72 2.483994 1_645
Na30 O85 2.580481 1_555
Na30 O86 2.580957 1_655
Na30 O89 2.583153 1_545
Na31 O77 2.481997 1_555
Na31 O74 2.483330 1_545
Na31 O73 2.487938 1_545
Na31 O87 2.576074 1_555
Na31 O84 2.579865 1_555
Na31 O88 2.586800 1_545
Na32 O83 2.385454 1_555
Na32 O93 2.464781 1_566
Na32 O78 2.488173 1_665
Na32 O91 2.528607 1_556
Na32 O80 2.604743 1_655
Na32 O94 2.687389 1_666
Na33 O82 2.493335 1_545
Na33 O79 2.501025 1_555
Na33 O81 2.511446 1_545
Na33 O95 2.531311 1_556
Na33 O92 2.554822 1_556
Na33 O90 2.567197 1_546
Na34 O110 2.395407 1_555
Na34 O96 2.468026 1_555
Na34 O100 2.484525 1_555
Na34 O112 2.492550 1_555
Na34 O108 2.503831 1_555
Na34 O98 2.610115 1_555
Na35 O97 2.388026 1_555
Na35 O111 2.449846 1_555
Na35 O101 2.479064 1_555
Na35 O113 2.548971 1_555
Na35 O99 2.616942 1_555
Na35 O109 2.619825 1_555
Na36 O114 2.400951 1_555
Na36 O104 2.489440 1_555
Na36 O116 2.500286 1_555
Na36 O118 2.502739 1_555
Na36 O106 2.504996 1_555
Na36 O102 2.605123 1_555
Na37 O115 2.400137 1_555
Na37 O105 2.467932 1_555
Na37 O107 2.484805 1_555
Na37 O119 2.496115 1_555
Na37 O117 2.499629 1_555
Na37 O103 2.632911 1_555
Na38 O124 2.395187 1_555
Na38 O132 2.440044 1_555
Na38 O134 2.442496 1_555
Na38 O120 2.487122 1_555
Na38 O136 2.505604 1_555
Na38 O122 2.574658 1_555
Na39 O125 2.412625 1_555
Na39 O135 2.416964 1_555
Na39 O121 2.478883 1_555
Na39 O123 2.517557 1_555
Na39 O133 2.543735 1_555
Na39 O137 2.594956 1_555
Na40 O130 2.396762 1_555
Na40 O140 2.455752 1_555
Na40 O126 2.469667 1_555
Na40 O128 2.473618 1_555
Na40 O138 2.475691 1_555
Na40 O142 2.518999 1_555
Na41 O131 2.396325 1_555
Na41 O139 2.444145 1_555
Na41 O141 2.471498 1_555
Na41 O127 2.474821 1_555
Na41 O129 2.479420 1_555
Na41 O143 2.554833 1_555
Ge0 O85 1.936818 1_555
Ge0 O14 1.941346 1_655
Ge0 O13 1.952585 1_545
Ge0 O86 1.954195 1_655
Ge0 O89 1.961229 1_545
Ge0 O16 1.974171 1_645
Ge1 O12 1.938771 1_545
Ge1 O15 1.938930 1_555
Ge1 O84 1.939057 1_555
Ge1 O87 1.952700 1_555
Ge1 O88 1.965256 1_545
Ge1 O17 1.972530 1_545
Ge2 O19 1.886824 1_555
Ge2 O94 1.958617 1_665
Ge2 O20 1.976130 1_665
Ge2 O93 1.983825 1_565
Ge2 O91 1.994067 1_555
Ge2 O22 2.013331 1_655
Ge3 O21 1.939737 1_565
Ge3 O90 1.941036 1_555
Ge3 O92 1.942265 1_565
Ge3 O18 1.943223 1_555
Ge3 O23 1.955131 1_555
Ge3 O95 2.071623 1_565
Ge4 O41 1.924979 1_556
Ge4 O39 1.978973 1_556
Ge4 O111 1.981964 1_555
Ge4 O37 1.985659 1_556
Ge4 O113 1.990202 1_555
Ge4 O109 2.043139 1_555
Ge5 O62 1.864511 1_555
Ge5 O60 1.910973 1_555
Ge5 O64 1.915154 1_555
Ge5 O134 1.976705 1_555
Ge5 O132 2.000259 1_555
Ge5 O136 2.066095 1_555
Ge6 O63 1.862744 1_555
Ge6 O61 1.913596 1_555
Ge6 O65 1.916031 1_555
Ge6 O135 1.975586 1_555
Ge6 O133 1.999982 1_555
Ge6 O137 2.067719 1_555
Ge7 O68 1.903528 1_555
Ge7 O70 1.919335 1_555
Ge7 O66 1.928745 1_555
Ge7 O138 1.961862 1_555
Ge7 O140 1.980239 1_555
Ge7 O142 2.099184 1_555
Ge8 O67 1.864790 1_555
Ge8 O71 1.973598 1_555
Ge8 O69 1.976670 1_555
Ge8 O143 1.997755 1_555
Ge8 O139 2.000030 1_555
Ge8 O141 2.026651 1_555
O0 P0 1.522765 1_545
O0 Zn0 2.011188 1_455
O1 P1 1.522162 1_545
O1 Zn1 2.009138 1_555
O2 P2 1.516658 1_555
O2 Zn1 1.993006 1_565
O3 P3 1.519133 1_555
O3 Zn0 1.992046 1_565
O4 P5 1.512839 1_555
O4 Zn1 1.996520 1_555
O5 P4 1.514364 1_655
O5 Zn0 1.995604 1_555
O6 P6 1.514738 1_555
O6 Zn2 2.024761 1_455
O7 P7 1.518499 1_555
O7 Zn3 1.990543 1_555
O8 P9 1.525006 1_555
O8 Zn3 2.006093 1_565
O9 P8 1.518306 1_655
O9 Zn2 2.046337 1_565
O10 P10 1.515379 1_555
O10 Zn3 1.997986 1_555
O11 P11 1.492172 1_555
O11 Zn2 1.944583 1_555
O12 P10 1.598094 1_565
O13 P11 1.599322 1_565
O14 P6 1.586664 1_555
O15 P7 1.585432 1_555
O16 P8 1.601014 1_555
O17 P9 1.602870 1_555
O18 P2 1.586305 1_555
O19 P3 1.582590 1_555
O20 P4 1.594429 1_555
O21 P5 1.606077 1_555
O22 P0 1.601978 1_555
O23 P1 1.607902 1_555
O24 P12 1.515966 1_555
O24 Zn4 1.958101 1_555
O25 P13 1.515676 1_555
O25 Zn5 1.958217 1_555
O26 P14 1.526277 1_555
O26 Zn4 2.040478 1_555
O27 P15 1.525601 1_555
O27 Zn5 2.037474 1_555
O28 P16 1.526534 1_555
O28 Zn4 2.042923 1_555
O29 P17 1.525981 1_555
O29 Zn5 2.040007 1_555
O30 P18 1.523817 1_555
O30 Zn6 2.039235 1_555
O31 P19 1.515556 1_555
O31 Zn7 2.021411 1_555
O32 P20 1.513172 1_555
O32 Zn6 1.960849 1_555
O33 P21 1.509947 1_555
O33 Zn7 1.954959 1_555
O34 P22 1.524754 1_555
O34 Zn6 2.045956 1_555
O35 P23 1.512644 1_555
O35 Zn7 2.022881 1_555
O36 P22 1.547736 1_555
O36 Zn8 2.112493 1_554
O37 P23 1.606400 1_555
O38 P18 1.549213 1_555
O38 Zn8 2.108035 1_554
O39 P19 1.590627 1_555
O40 P20 1.549507 1_555
O40 Zn8 2.111471 1_554
O41 P21 1.609356 1_555
O42 P14 1.546012 1_555
O42 Zn9 2.112206 1_555
O43 P15 1.545532 1_555
O43 Zn10 2.112977 1_555
O44 P16 1.547658 1_555
O44 Zn9 2.111747 1_555
O45 P17 1.547414 1_555
O45 Zn10 2.109409 1_555
O46 P12 1.548784 1_555
O46 Zn9 2.108253 1_555
O47 P13 1.548624 1_555
O47 Zn10 2.107754 1_555
O48 P24 1.527578 1_555
O48 Zn11 1.992189 1_556
O49 P25 1.492826 1_555
O49 Zn12 1.941029 1_556
O50 P26 1.525102 1_555
O50 Zn11 2.000618 1_556
O51 P27 1.525206 1_555
O51 Zn12 2.029679 1_556
O52 P28 1.528550 1_555
O52 Zn11 1.994187 1_556
O53 P29 1.515415 1_555
O53 Zn12 2.022191 1_556
O54 P30 1.531413 1_555
O54 Zn13 1.992729 1_555
O55 P31 1.531354 1_555
O55 Zn14 1.992116 1_555
O56 P32 1.528870 1_555
O56 Zn13 1.990751 1_555
O57 P33 1.528636 1_555
O57 Zn14 1.990841 1_555
O58 P34 1.530249 1_555
O58 Zn13 1.991020 1_555
O59 P35 1.530048 1_555
O59 Zn14 1.992017 1_555
O60 P34 1.601528 1_555
O61 P35 1.601763 1_555
O62 P30 1.590405 1_555
O63 P31 1.591475 1_555
O64 P32 1.601441 1_555
O65 P33 1.602066 1_555
O66 P26 1.593140 1_555
O67 P27 1.600979 1_555
O68 P28 1.606603 1_555
O69 P29 1.589802 1_555
O70 P24 1.607633 1_555
O71 P25 1.604710 1_555
O72 P34 1.539572 1_555
O72 Zn0 2.154600 1_465
O73 P35 1.540076 1_555
O73 Zn1 2.147755 1_565
O74 P30 1.539225 1_555
O74 Zn1 2.123226 1_565
O75 P31 1.538465 1_555
O75 Zn0 2.129641 1_565
O76 P32 1.539728 1_555
O76 Zn0 2.151084 1_455
O77 P33 1.540566 1_555
O77 Zn1 2.144938 1_555
O78 P26 1.517541 1_555
O78 Zn2 2.102400 1_455
O79 P27 1.543037 1_555
O79 Zn3 2.132032 1_555
O80 P28 1.537640 1_555
O80 Zn2 2.159629 1_465
O81 P29 1.543730 1_555
O81 Zn3 2.208277 1_565
O82 P24 1.543889 1_555
O82 Zn3 2.148387 1_565
O83 P25 1.521349 1_555
O83 Zn2 2.123002 1_565
O84 P12 1.601449 1_555
O85 P13 1.601689 1_555
O86 P14 1.599130 1_555
O87 P15 1.599747 1_555
O88 P16 1.600610 1_555
O89 P17 1.600833 1_555
O90 P18 1.606713 1_555
O91 P19 1.585462 1_555
O92 P20 1.610129 1_555
O93 P21 1.587938 1_555
O94 P22 1.604699 1_555
O95 P23 1.606651 1_555
O96 P10 1.522581 1_555
O96 Zn4 2.133052 1_555
O97 P11 1.524213 1_555
O97 Zn5 2.141393 1_555
O98 P6 1.537071 1_555
O98 Zn4 2.230134 1_555
O99 P7 1.537307 1_555
O99 Zn5 2.211578 1_555
O100 P9 1.520402 1_555
O100 Zn4 2.132871 1_555
O101 P8 1.520507 1_655
O101 Zn5 2.133830 1_555
O102 P2 1.537296 1_555
O102 Zn6 2.210128 1_555
O103 P3 1.535805 1_555
O103 Zn7 2.186422 1_555
O104 P5 1.521715 1_555
O104 Zn6 2.136672 1_555
O105 P4 1.522268 1_655
O105 Zn7 2.126125 1_555
O106 P0 1.521550 1_545
O106 Zn6 2.114167 1_555
O107 P1 1.516544 1_545
O107 Zn7 2.116845 1_555
O108 P24 1.542255 1_555
O108 Zn8 2.247319 1_555
O109 P25 1.617082 1_555
O110 P27 1.542567 1_555
O110 Zn8 2.229152 1_555
O111 P26 1.592628 1_655
O112 P28 1.542266 1_545
O112 Zn8 2.243587 1_555
O113 P29 1.590907 1_545
O114 P30 1.543245 1_545
O114 Zn9 2.211718 1_555
O115 P31 1.543125 1_545
O115 Zn10 2.209749 1_555
O116 P32 1.544228 1_555
O116 Zn9 2.244504 1_555
O117 P33 1.543569 1_555
O117 Zn10 2.245318 1_555
O118 P35 1.543061 1_555
O118 Zn9 2.236665 1_555
O119 P34 1.542888 1_655
O119 Zn10 2.232659 1_555
O120 P22 1.542140 1_555
O120 Zn11 2.187410 1_555
O121 P23 1.520329 1_555
O121 Zn12 2.134029 1_555
O122 P19 1.544336 1_455
O122 Zn11 2.181820 1_555
O123 P18 1.535410 1_555
O123 Zn12 2.225599 1_555
O124 P20 1.543071 1_565
O124 Zn11 2.179150 1_555
O125 P21 1.517429 1_565
O125 Zn12 2.096230 1_555
O126 P14 1.539697 1_565
O126 Zn13 2.189520 1_555
O127 P15 1.539578 1_565
O127 Zn14 2.187461 1_555
O128 P16 1.539536 1_555
O128 Zn13 2.189209 1_555
O129 P17 1.539385 1_555
O129 Zn14 2.187937 1_555
O130 P13 1.539373 1_455
O130 Zn13 2.174677 1_555
O131 P12 1.539185 1_555
O131 Zn14 2.175253 1_555
O132 P0 1.589992 1_555
O133 P1 1.585536 1_555
O134 P2 1.582916 1_555
O135 P3 1.583693 1_555
O136 P4 1.606827 1_555
O137 P5 1.600870 1_555
O138 P6 1.589477 1_555
O139 P7 1.580723 1_555
O140 P8 1.590694 1_555
O141 P9 1.586512 1_555
O142 P10 1.597819 1_565
O143 P11 1.615707 1_565
