# generated using pymatgen
data_MgCu6OF11
_symmetry_space_group_name_H-M   'P 1'
_cell_length_a   5.43652421
_cell_length_b   4.99386374
_cell_length_c   8.57045998
_cell_angle_alpha   90.75213618
_cell_angle_beta   93.72643986
_cell_angle_gamma   90.94550617
_symmetry_Int_Tables_number   1
_chemical_formula_structural   MgCu6OF11
_chemical_formula_sum   'Mg1 Cu6 O1 F11'
_cell_volume   232.13457921
_cell_formula_units_Z   1
loop_
 _symmetry_equiv_pos_site_id
 _symmetry_equiv_pos_as_xyz
  1  'x, y, z'
loop_
 _atom_site_type_symbol
 _atom_site_label
 _atom_site_symmetry_multiplicity
 _atom_site_fract_x
 _atom_site_fract_y
 _atom_site_fract_z
 _atom_site_occupancy
  Mg  Mg0  1  0.49821800  0.49489900  0.49207900  1
  Cu  Cu0  1  0.01160800  0.00699700  0.00461400  1
  Cu  Cu1  1  0.48435200  0.56504100  0.06052800  1
  Cu  Cu2  1  0.42016600  0.98764100  0.30177000  1
  Cu  Cu3  1  0.90645400  0.49279600  0.30210100  1
  Cu  Cu4  1  0.09193500  0.50538100  0.70143200  1
  Cu  Cu5  1  0.60676900  0.98101600  0.70974600  1
  O  O0  1  0.59611100  0.66301000  0.27631700  1
  F  F0  1  0.31250900  0.21785100  0.07446000  1
  F  F1  1  0.11285100  0.79704600  0.24531000  1
  F  F2  1  0.82493400  0.27918000  0.09392300  1
  F  F3  1  0.21095800  0.30524500  0.38451800  1
  F  F4  1  0.69402500  0.19476100  0.41567400  1
  F  F5  1  0.31348000  0.78225400  0.59395100  1
  F  F6  1  0.78889400  0.67283300  0.60947400  1
  F  F7  1  0.41248900  0.31115500  0.69678900  1
  F  F8  1  0.20302800  0.71956700  0.91673900  1
  F  F9  1  0.90968800  0.19105700  0.76222200  1
  F  F10  1  0.70152900  0.80449200  0.94429100  1
loop_
_geom_bond_atom_site_label_1
_geom_bond_atom_site_label_2
_geom_bond_distance
_geom_bond_site_symmetry_2
Mg0 O0 2.135751 1_555
Cu0 F2 1.892758 1_455
Cu0 F8 1.957882 1_544
Cu0 F0 1.985557 1_555
Cu0 F10 1.987074 1_444
Cu0 F9 2.320527 1_454
Cu0 F1 2.363457 1_545
Cu1 O0 1.961940 1_555
Cu1 F0 1.964599 1_555
Cu1 F10 1.988447 1_554
Cu1 F8 2.066934 1_554
Cu1 F2 2.361620 1_555
Cu2 O0 1.913039 1_555
Cu2 F1 1.939522 1_555
Cu2 F4 1.993292 1_565
Cu2 F3 2.108796 1_565
Cu2 F0 2.322134 1_565
Cu3 O0 1.903096 1_555
Cu3 F1 1.959244 1_655
Cu3 F3 2.008282 1_655
Cu3 F2 2.085511 1_555
Cu3 F4 2.150301 1_555
Cu4 F9 1.937596 1_455
Cu4 F6 1.982079 1_455
Cu4 F7 2.010759 1_555
Cu4 F5 2.081745 1_555
Cu4 F8 2.167002 1_555
Cu5 F9 1.961852 1_565
Cu5 F7 1.973080 1_565
Cu5 F6 2.052717 1_555
Cu5 F5 2.056378 1_555
Cu5 F10 2.238335 1_555
F3 Mg0 1.981625 1_555
F4 Mg0 1.981419 1_555
F5 Mg0 1.989694 1_555
F6 Mg0 2.005649 1_555
F7 Mg0 2.066824 1_555
