# generated using pymatgen
data_BaTbO3
_symmetry_space_group_name_H-M   'P 1'
_cell_length_a   6.25741000
_cell_length_b   6.32394200
_cell_length_c   8.80163700
_cell_angle_alpha   90.00000000
_cell_angle_beta   90.00000000
_cell_angle_gamma   90.00000000
_symmetry_Int_Tables_number   1
_chemical_formula_structural   BaTbO3
_chemical_formula_sum   'Ba4 Tb4 O12'
_cell_volume   348.29396015
_cell_formula_units_Z   4
loop_
 _symmetry_equiv_pos_site_id
 _symmetry_equiv_pos_as_xyz
  1  'x, y, z'
loop_
 _atom_site_type_symbol
 _atom_site_label
 _atom_site_symmetry_multiplicity
 _atom_site_fract_x
 _atom_site_fract_y
 _atom_site_fract_z
 _atom_site_occupancy
  Ba  Ba0  1  0.99490100  0.01113400  0.25000000  1
  Ba  Ba1  1  0.49490100  0.48886600  0.25000000  1
  Ba  Ba2  1  0.50509900  0.51113400  0.75000000  1
  Ba  Ba3  1  0.00509900  0.98886600  0.75000000  1
  Tb  Tb0  1  0.00000000  0.50000000  0.00000000  1
  Tb  Tb1  1  0.50000000  0.00000000  0.50000000  1
  Tb  Tb2  1  0.50000000  0.00000000  0.00000000  1
  Tb  Tb3  1  0.00000000  0.50000000  0.50000000  1
  O  O0  1  0.75504300  0.75507200  0.54730800  1
  O  O1  1  0.25504300  0.74492800  0.95269200  1
  O  O2  1  0.74495700  0.25507200  0.45269200  1
  O  O3  1  0.24495700  0.24492800  0.04730800  1
  O  O4  1  0.24495700  0.24492800  0.45269200  1
  O  O5  1  0.74495700  0.25507200  0.04730800  1
  O  O6  1  0.25504300  0.74492800  0.54730800  1
  O  O7  1  0.75504300  0.75507200  0.95269200  1
  O  O8  1  0.50346700  0.91899000  0.25000000  1
  O  O9  1  0.00346700  0.58101000  0.25000000  1
  O  O10  1  0.99653300  0.41899000  0.75000000  1
  O  O11  1  0.49653300  0.08101000  0.75000000  1
loop_
_geom_bond_atom_site_label_1
_geom_bond_atom_site_label_2
_geom_bond_distance
_geom_bond_site_symmetry_2
Ba0 O9 2.720607 1_645
Ba0 O4 2.795888 1_655
Ba0 O3 2.795888 1_655
Ba0 O5 2.829948 1_555
Ba0 O2 2.829948 1_555
Ba0 O8 3.129827 1_545
Ba0 O8 3.235217 1_645
Ba1 O8 2.720607 1_555
Ba1 O2 2.795888 1_555
Ba1 O5 2.795888 1_555
Ba1 O4 2.829948 1_555
Ba1 O3 2.829948 1_555
Ba1 O9 3.129827 1_555
Ba1 O9 3.235217 1_655
Ba2 O11 2.720607 1_555
Ba2 O6 2.795888 1_555
Ba2 O1 2.795888 1_555
Ba2 O7 2.829948 1_555
Ba2 O0 2.829948 1_555
Ba2 O10 3.129827 1_555
Ba2 O10 3.235217 1_455
Ba3 O10 2.720607 1_465
Ba3 O0 2.795888 1_455
Ba3 O7 2.795888 1_455
Ba3 O6 2.829948 1_555
Ba3 O1 2.829948 1_555
Ba3 O11 3.129827 1_565
Ba3 O11 3.235217 1_465
O0 Tb1 2.262615 1_565
O0 Tb3 2.263804 1_655
O1 Tb0 2.262615 1_556
O1 Tb2 2.263804 1_566
O2 Tb3 2.262615 1_655
O2 Tb1 2.263804 1_555
O3 Tb2 2.262615 1_555
O3 Tb0 2.263804 1_555
O4 Tb1 2.262615 1_555
O4 Tb3 2.263804 1_555
O5 Tb0 2.262615 1_655
O5 Tb2 2.263804 1_555
O6 Tb3 2.262615 1_555
O6 Tb1 2.263804 1_565
O7 Tb2 2.262615 1_566
O7 Tb0 2.263804 1_656
O8 Tb2 2.259364 1_565
O8 Tb1 2.259364 1_565
O9 Tb0 2.259364 1_555
O9 Tb3 2.259364 1_555
O10 Tb3 2.259364 1_655
O10 Tb0 2.259364 1_656
O11 Tb1 2.259364 1_555
O11 Tb2 2.259364 1_556
