# generated using pymatgen
data_Na2NbSi2SnPO12
_symmetry_space_group_name_H-M   'P 1'
_cell_length_a   8.97275497
_cell_length_b   8.97275467
_cell_length_c   22.65362108
_cell_angle_alpha   89.96901460
_cell_angle_beta   90.03098540
_cell_angle_gamma   119.92454851
_symmetry_Int_Tables_number   1
_chemical_formula_structural   Na2NbSi2SnPO12
_chemical_formula_sum   'Na12 Nb6 Si12 Sn6 P6 O72'
_cell_volume   1580.70006818
_cell_formula_units_Z   6
loop_
 _symmetry_equiv_pos_site_id
 _symmetry_equiv_pos_as_xyz
  1  'x, y, z'
loop_
 _atom_site_type_symbol
 _atom_site_label
 _atom_site_symmetry_multiplicity
 _atom_site_fract_x
 _atom_site_fract_y
 _atom_site_fract_z
 _atom_site_occupancy
  Na  Na0  1  0.99201769  0.62842029  0.25022921  1
  Na  Na1  1  0.37157971  0.00798231  0.75022921  1
  Na  Na2  1  0.65868469  0.96175329  0.58356221  1
  Na  Na3  1  0.03824671  0.34131531  0.08356221  1
  Na  Na4  1  0.32535069  0.29508729  0.91689621  1
  Na  Na5  1  0.70491271  0.67464931  0.41689621  1
  Na  Na6  1  0.01694864  0.00373077  0.49713351  1
  Na  Na7  1  0.99626923  0.98305136  0.99713351  1
  Na  Na8  1  0.68361564  0.33706377  0.83046651  1
  Na  Na9  1  0.66293623  0.31638436  0.33046651  1
  Na  Na10  1  0.35028164  0.67039777  0.16380051  1
  Na  Na11  1  0.32960223  0.64971836  0.66380051  1
  Nb  Nb0  1  0.00074167  0.00014566  0.64497358  1
  Nb  Nb1  1  0.99985434  0.99925833  0.14497358  1
  Nb  Nb2  1  0.66740867  0.33347866  0.97830658  1
  Nb  Nb3  1  0.66652134  0.33259133  0.47830658  1
  Nb  Nb4  1  0.33407467  0.66681266  0.31164058  1
  Nb  Nb5  1  0.33318734  0.66592533  0.81164058  1
  Si  Si0  1  0.70800113  0.70853300  0.25078681  1
  Si  Si1  1  0.99629945  0.28807038  0.24952652  1
  Si  Si2  1  0.29146700  0.29199887  0.75078681  1
  Si  Si3  1  0.71192962  0.00370055  0.74952652  1
  Si  Si4  1  0.37466813  0.04186600  0.58411981  1
  Si  Si5  1  0.66296645  0.62140338  0.58285952  1
  Si  Si6  1  0.95813400  0.62533187  0.08411981  1
  Si  Si7  1  0.37859662  0.33703355  0.08285952  1
  Si  Si8  1  0.04133413  0.37520000  0.91745381  1
  Si  Si9  1  0.32963245  0.95473738  0.91619352  1
  Si  Si10  1  0.62480000  0.95866587  0.41745381  1
  Si  Si11  1  0.04526262  0.67036755  0.41619352  1
  Sn  Sn0  1  0.99898244  0.00209256  0.35246634  1
  Sn  Sn1  1  0.99790744  0.00101756  0.85246634  1
  Sn  Sn2  1  0.66564944  0.33542556  0.68579934  1
  Sn  Sn3  1  0.66457444  0.33435056  0.18579934  1
  Sn  Sn4  1  0.33231544  0.66875956  0.01913334  1
  Sn  Sn5  1  0.33124044  0.66768456  0.51913334  1
  P  P0  1  0.29135662  0.00408716  0.25041347  1
  P  P1  1  0.99591284  0.70864338  0.75041347  1
  P  P2  1  0.95802362  0.33742016  0.58374647  1
  P  P3  1  0.66257984  0.04197638  0.08374647  1
  P  P4  1  0.62468962  0.67075416  0.91708047  1
  P  P5  1  0.32924584  0.37531038  0.41708047  1
  O  O0  1  0.21319207  0.03219146  0.30653384  1
  O  O1  1  0.82714706  0.78353618  0.30969581  1
  O  O2  1  0.97026412  0.17505233  0.30761715  1
  O  O3  1  0.21646382  0.17285294  0.80969581  1
  O  O4  1  0.96780854  0.78680793  0.80653384  1
  O  O5  1  0.82494767  0.02973588  0.80761715  1
  O  O6  1  0.80042954  0.97308359  0.68998886  1
  O  O7  1  0.16376008  0.18828415  0.69423345  1
  O  O8  1  0.02674463  0.82839624  0.69600348  1
  O  O9  1  0.81171585  0.83623992  0.19423345  1
  O  O10  1  0.02691641  0.19957046  0.18998886  1
  O  O11  1  0.17160376  0.97325537  0.19600348  1
  O  O12  1  0.87985907  0.36552446  0.63986684  1
  O  O13  1  0.49381406  0.11686918  0.64302881  1
  O  O14  1  0.63693112  0.50838533  0.64095015  1
  O  O15  1  0.88313082  0.50618594  0.14302881  1
  O  O16  1  0.63447554  0.12014093  0.13986684  1
  O  O17  1  0.49161467  0.36306888  0.14095015  1
  O  O18  1  0.46709654  0.30641659  0.02332186  1
  O  O19  1  0.83042708  0.52161715  0.02756645  1
  O  O20  1  0.69341163  0.16172924  0.02933648  1
  O  O21  1  0.47838285  0.16957292  0.52756645  1
  O  O22  1  0.69358341  0.53290346  0.52332186  1
  O  O23  1  0.83827076  0.30658837  0.52933648  1
  O  O24  1  0.54652507  0.69885846  0.97320084  1
  O  O25  1  0.16048006  0.45020318  0.97636281  1
  O  O26  1  0.30359712  0.84171933  0.97428415  1
  O  O27  1  0.54979682  0.83951994  0.47636281  1
  O  O28  1  0.30114154  0.45347493  0.47320084  1
  O  O29  1  0.15828067  0.69640288  0.47428415  1
  O  O30  1  0.13376254  0.63975059  0.35665586  1
  O  O31  1  0.49709308  0.85495115  0.36090045  1
  O  O32  1  0.36007763  0.49506324  0.36267048  1
  O  O33  1  0.14504885  0.50290692  0.86090045  1
  O  O34  1  0.36024941  0.86623746  0.85665586  1
  O  O35  1  0.50493676  0.63992237  0.86267048  1
  O  O36  1  0.01690336  0.83583760  0.41128221  1
  O  O37  1  0.81265231  0.97425093  0.41151875  1
  O  O38  1  0.17649995  0.19425362  0.41031310  1
  O  O39  1  0.02574907  0.18734769  0.91151875  1
  O  O40  1  0.16416240  0.98309664  0.91128221  1
  O  O41  1  0.80574638  0.82350005  0.91031310  1
  O  O42  1  0.96328252  0.16582119  0.58829893  1
  O  O43  1  0.18589823  0.02804174  0.58956153  1
  O  O44  1  0.83492583  0.81691848  0.58942347  1
  O  O45  1  0.97195826  0.81410177  0.08956153  1
  O  O46  1  0.83417881  0.03671748  0.08829893  1
  O  O47  1  0.18308152  0.16507417  0.08942347  1
  O  O48  1  0.68357036  0.16917060  0.74461521  1
  O  O49  1  0.47931931  0.30758393  0.74485175  1
  O  O50  1  0.84316695  0.52758662  0.74364610  1
  O  O51  1  0.69241607  0.52068069  0.24485175  1
  O  O52  1  0.83082940  0.31642964  0.24461521  1
  O  O53  1  0.47241338  0.15683305  0.24364610  1
  O  O54  1  0.62994952  0.49915419  0.92163193  1
  O  O55  1  0.85256523  0.36137474  0.92289453  1
  O  O56  1  0.50159283  0.15025148  0.92275647  1
  O  O57  1  0.63862526  0.14743477  0.42289453  1
  O  O58  1  0.50084581  0.37005048  0.42163193  1
  O  O59  1  0.84974852  0.49840717  0.42275647  1
  O  O60  1  0.35023636  0.50250460  0.07794921  1
  O  O61  1  0.14598531  0.64091793  0.07818575  1
  O  O62  1  0.50983295  0.86092062  0.07698010  1
  O  O63  1  0.35908207  0.85401469  0.57818575  1
  O  O64  1  0.49749540  0.64976364  0.57794921  1
  O  O65  1  0.13907938  0.49016705  0.57698010  1
  O  O66  1  0.29661552  0.83248819  0.25496593  1
  O  O67  1  0.51923123  0.69470874  0.25622853  1
  O  O68  1  0.16825883  0.48358548  0.25609047  1
  O  O69  1  0.30529126  0.48076877  0.75622853  1
  O  O70  1  0.16751181  0.70338448  0.75496593  1
  O  O71  1  0.51641452  0.83174117  0.75609047  1
loop_
_geom_bond_atom_site_label_1
_geom_bond_atom_site_label_2
_geom_bond_distance
_geom_bond_site_symmetry_2
Na0 O51 2.362838 1_555
Na0 O66 2.416795 1_655
Na0 O52 2.430085 1_555
Na0 O68 2.501444 1_655
Na0 O15 2.643137 1_555
Na0 O30 2.703430 1_655
Na0 O1 2.828222 1_555
Na0 O11 2.950037 1_655
Na1 O49 2.362837 1_555
Na1 O70 2.416795 1_545
Na1 O48 2.430086 1_555
Na1 O71 2.501444 1_545
Na1 O13 2.643137 1_555
Na1 O34 2.703430 1_545
Na1 O3 2.828222 1_555
Na1 O8 2.950037 1_545
Na2 O63 2.362846 1_555
Na2 O42 2.416795 1_565
Na2 O64 2.430077 1_555
Na2 O44 2.501444 1_555
Na2 O27 2.643116 1_555
Na2 O6 2.703430 1_555
Na2 O13 2.828222 1_565
Na2 O23 2.950037 1_565
Na3 O61 2.362846 1_555
Na3 O46 2.416795 1_455
Na3 O60 2.430077 1_555
Na3 O47 2.501444 1_555
Na3 O25 2.643116 1_554
Na3 O10 2.703430 1_555
Na3 O15 2.828222 1_455
Na3 O20 2.950037 1_455
Na4 O39 2.362838 1_555
Na4 O54 2.416799 1_555
Na4 O40 2.430085 1_545
Na4 O56 2.501459 1_555
Na4 O3 2.643137 1_555
Na4 O18 2.703416 1_556
Na4 O25 2.828222 1_555
Na4 O35 2.950037 1_555
Na5 O37 2.362837 1_555
Na5 O58 2.416799 1_555
Na5 O36 2.430086 1_655
Na5 O59 2.501459 1_555
Na5 O1 2.643137 1_555
Na5 O22 2.703416 1_555
Na5 O27 2.828222 1_555
Na5 O32 2.950037 1_555
Na6 O36 2.460570 1_545
Na6 O43 2.529214 1_555
Na6 O38 2.529403 1_555
Na6 O37 2.589355 1_445
Na6 O44 2.667717 1_445
Na6 O42 2.704695 1_455
Na7 O40 2.460570 1_655
Na7 O45 2.529214 1_556
Na7 O41 2.529403 1_555
Na7 O39 2.589355 1_665
Na7 O47 2.667717 1_666
Na7 O46 2.704695 1_566
Na8 O48 2.460570 1_555
Na8 O55 2.529214 1_555
Na8 O50 2.529403 1_555
Na8 O49 2.589355 1_555
Na8 O56 2.667717 1_555
Na8 O54 2.704695 1_555
Na9 O52 2.460570 1_555
Na9 O57 2.529214 1_555
Na9 O53 2.529403 1_555
Na9 O51 2.589355 1_555
Na9 O59 2.667717 1_555
Na9 O58 2.704695 1_555
Na10 O60 2.460570 1_555
Na10 O67 2.529214 1_555
Na10 O62 2.529403 1_555
Na10 O61 2.589355 1_555
Na10 O68 2.667717 1_555
Na10 O66 2.704695 1_555
Na11 O64 2.460570 1_555
Na11 O69 2.529214 1_555
Na11 O65 2.529403 1_555
Na11 O63 2.589355 1_555
Na11 O71 2.667717 1_555
Na11 O70 2.704695 1_555
Nb0 O7 1.941965 1_555
Nb0 O6 1.973732 1_445
Nb0 O43 1.996381 1_555
Nb0 O44 2.014910 1_445
Nb0 O8 2.030321 1_545
Nb0 O42 2.113574 1_455
Nb1 O9 1.941965 1_555
Nb1 O10 1.973732 1_665
Nb1 O45 1.996381 1_555
Nb1 O47 2.014910 1_665
Nb1 O11 2.030321 1_655
Nb1 O46 2.113574 1_565
Nb2 O19 1.941965 1_556
Nb2 O18 1.973732 1_556
Nb2 O55 1.996381 1_555
Nb2 O56 2.014910 1_555
Nb2 O20 2.030321 1_556
Nb2 O54 2.113574 1_555
Nb3 O21 1.941965 1_555
Nb3 O22 1.973732 1_555
Nb3 O57 1.996381 1_555
Nb3 O59 2.014910 1_555
Nb3 O23 2.030321 1_555
Nb3 O58 2.113574 1_555
Nb4 O31 1.941965 1_555
Nb4 O30 1.973732 1_555
Nb4 O67 1.996381 1_555
Nb4 O68 2.014910 1_555
Nb4 O32 2.030321 1_555
Nb4 O66 2.113574 1_555
Nb5 O33 1.941965 1_555
Nb5 O34 1.973732 1_555
Nb5 O69 1.996381 1_555
Nb5 O71 2.014910 1_555
Nb5 O35 2.030321 1_555
Nb5 O70 2.113574 1_555
O0 P0 1.532819 1_555
O0 Sn0 2.081800 1_455
O1 Si0 1.630433 1_555
O1 Sn0 2.036047 1_565
O2 Si1 1.605375 1_555
O2 Sn0 1.975886 1_555
O3 Si2 1.630433 1_555
O3 Sn1 2.036047 1_455
O4 P1 1.532819 1_555
O4 Sn1 2.081800 1_565
O5 Si3 1.605375 1_555
O5 Sn1 1.975886 1_555
O6 Si3 1.656613 1_565
O7 Si2 1.660169 1_555
O8 P1 1.566119 1_455
O9 Si0 1.660169 1_555
O10 Si1 1.656613 1_455
O11 P0 1.566119 1_565
O12 P2 1.532819 1_555
O12 Sn2 2.081800 1_555
O13 Si4 1.630433 1_555
O13 Sn2 2.036047 1_555
O14 Si5 1.605375 1_555
O14 Sn2 1.975886 1_555
O15 Si6 1.630433 1_555
O15 Sn3 2.036047 1_555
O16 P3 1.532819 1_555
O16 Sn3 2.081800 1_555
O17 Si7 1.605375 1_555
O17 Sn3 1.975886 1_555
O18 Si7 1.656613 1_555
O19 Si6 1.660169 1_555
O20 P3 1.566119 1_555
O21 Si4 1.660169 1_555
O22 Si5 1.656613 1_555
O23 P2 1.566119 1_555
O24 P4 1.532819 1_555
O24 Sn4 2.081800 1_556
O25 Si8 1.630433 1_555
O25 Sn4 2.036047 1_556
O26 Si9 1.605375 1_555
O26 Sn4 1.975886 1_556
O27 Si10 1.630433 1_555
O27 Sn5 2.036047 1_555
O28 P5 1.532819 1_555
O28 Sn5 2.081800 1_555
O29 Si11 1.605375 1_555
O29 Sn5 1.975886 1_555
O30 Si11 1.656613 1_555
O31 Si10 1.660169 1_555
O32 P5 1.566119 1_555
O33 Si8 1.660169 1_555
O34 Si9 1.656613 1_555
O35 P4 1.566119 1_555
O36 Si11 1.630417 1_555
O36 Sn0 2.064809 1_465
O37 Si10 1.625969 1_555
O37 Sn0 2.057319 1_565
O38 P5 1.523063 1_555
O38 Sn0 2.118332 1_455
O39 Si8 1.625969 1_555
O39 Sn1 2.057319 1_455
O40 Si9 1.630417 1_555
O40 Sn1 2.064809 1_465
O41 P4 1.523063 1_555
O41 Sn1 2.118332 1_565
O42 P2 1.567130 1_555
O43 Si4 1.640147 1_555
O44 Si5 1.667274 1_555
O45 Si6 1.640147 1_555
O46 P3 1.567130 1_555
O47 Si7 1.667274 1_555
O48 Si3 1.630417 1_555
O48 Sn2 2.064809 1_555
O49 Si2 1.625969 1_555
O49 Sn2 2.057319 1_555
O50 P1 1.523063 1_555
O50 Sn2 2.118332 1_555
O51 Si0 1.625969 1_555
O51 Sn3 2.057319 1_555
O52 Si1 1.630417 1_555
O52 Sn3 2.064809 1_555
O53 P0 1.523063 1_555
O53 Sn3 2.118332 1_555
O54 P4 1.567142 1_555
O55 Si8 1.640133 1_655
O56 Si9 1.667271 1_545
O57 Si10 1.640133 1_545
O58 P5 1.567143 1_555
O59 Si11 1.667271 1_655
O60 Si7 1.630430 1_555
O60 Sn4 2.064809 1_555
O61 Si6 1.625954 1_455
O61 Sn4 2.057319 1_555
O62 P3 1.523059 1_565
O62 Sn4 2.118332 1_555
O63 Si4 1.625954 1_565
O63 Sn5 2.057319 1_555
O64 Si5 1.630430 1_555
O64 Sn5 2.064809 1_555
O65 P2 1.523059 1_455
O65 Sn5 2.118332 1_555
O66 P0 1.567130 1_565
O67 Si0 1.640147 1_555
O68 Si1 1.667274 1_455
O69 Si2 1.640147 1_555
O70 P1 1.567130 1_455
O71 Si3 1.667274 1_565
