# generated using pymatgen
data_ZrSiSn(SO6)2
_symmetry_space_group_name_H-M   'P 1'
_cell_length_a   8.94060506
_cell_length_b   8.94418590
_cell_length_c   23.16199299
_cell_angle_alpha   89.87939183
_cell_angle_beta   90.07495666
_cell_angle_gamma   119.89893178
_symmetry_Int_Tables_number   1
_chemical_formula_structural   ZrSiSn(SO6)2
_chemical_formula_sum   'Zr6 Si6 Sn6 S12 O72'
_cell_volume   1605.66411810
_cell_formula_units_Z   6
loop_
 _symmetry_equiv_pos_site_id
 _symmetry_equiv_pos_as_xyz
  1  'x, y, z'
loop_
 _atom_site_type_symbol
 _atom_site_label
 _atom_site_symmetry_multiplicity
 _atom_site_fract_x
 _atom_site_fract_y
 _atom_site_fract_z
 _atom_site_occupancy
  Zr  Zr0  1  0.98649261  0.00867691  0.35560761  1
  Zr  Zr1  1  0.00926089  0.02123549  0.64440670  1
  Zr  Zr2  1  0.01382679  0.01926506  0.14285327  1
  Zr  Zr3  1  0.66961159  0.33565345  0.68891828  1
  Zr  Zr4  1  0.67428326  0.32452687  0.47692874  1
  Zr  Zr5  1  0.33410515  0.66837956  0.30948313  1
  Si  Si0  1  0.99228907  0.29286527  0.24815712  1
  Si  Si1  1  0.29174256  0.29780894  0.75225062  1
  Si  Si2  1  0.96380974  0.34391961  0.58308072  1
  Si  Si3  1  0.38699500  0.34489710  0.08225953  1
  Si  Si4  1  0.33342875  0.95061742  0.91684080  1
  Si  Si5  1  0.61383203  0.94719495  0.41791844  1
  Sn  Sn0  1  0.01754847  0.00388531  0.85499887  1
  Sn  Sn1  1  0.66482127  0.33653875  0.18625728  1
  Sn  Sn2  1  0.65145038  0.32108549  0.97744235  1
  Sn  Sn3  1  0.33170328  0.66522383  0.02002889  1
  Sn  Sn4  1  0.33502116  0.66535489  0.52077864  1
  Sn  Sn5  1  0.33366133  0.66775577  0.81357222  1
  S  S0  1  0.29017090  0.00343294  0.24977874  1
  S  S1  1  0.71382252  0.70919167  0.24907423  1
  S  S2  1  0.00118255  0.71249020  0.75062745  1
  S  S3  1  0.71191887  0.99658843  0.75188767  1
  S  S4  1  0.37816756  0.04146633  0.58296657  1
  S  S5  1  0.66583086  0.62303609  0.58306481  1
  S  S6  1  0.95404031  0.61892621  0.08173046  1
  S  S7  1  0.66400325  0.04280199  0.08267258  1
  S  S8  1  0.62920573  0.67002630  0.91596402  1
  S  S9  1  0.03773580  0.37356834  0.91745206  1
  S  S10  1  0.33416651  0.37853074  0.41706430  1
  S  S11  1  0.04674744  0.67038004  0.41640368  1
  O  O0  1  0.21006684  0.02797003  0.30140212  1
  O  O1  1  0.82112689  0.78796218  0.30123469  1
  O  O2  1  0.96401004  0.16963853  0.30459451  1
  O  O3  1  0.20541328  0.17395606  0.80816429  1
  O  O4  1  0.96417586  0.78461626  0.80337740  1
  O  O5  1  0.81849603  0.02585227  0.80470657  1
  O  O6  1  0.79132201  0.96718301  0.70026275  1
  O  O7  1  0.16842031  0.20445106  0.69575445  1
  O  O8  1  0.02739910  0.81911339  0.69933325  1
  O  O9  1  0.79169775  0.81470238  0.19733964  1
  O  O10  1  0.02431823  0.19786882  0.19311622  1
  O  O11  1  0.18142492  0.97163004  0.19765136  1
  O  O12  1  0.86814142  0.36760555  0.63925797  1
  O  O13  1  0.48605037  0.12281533  0.63467570  1
  O  O14  1  0.63550510  0.51188493  0.63487258  1
  O  O15  1  0.87951451  0.50916332  0.13408370  1
  O  O16  1  0.63311589  0.12005351  0.13463277  1
  O  O17  1  0.50149666  0.37444407  0.14100232  1
  O  O18  1  0.46826881  0.30425877  0.02613227  1
  O  O19  1  0.84671985  0.53956114  0.02932243  1
  O  O20  1  0.70379780  0.15473499  0.03084345  1
  O  O21  1  0.45375553  0.15150738  0.53138894  1
  O  O22  1  0.68994065  0.54251552  0.53115153  1
  O  O23  1  0.84046348  0.31069325  0.52684809  1
  O  O24  1  0.55267046  0.70050804  0.96830222  1
  O  O25  1  0.14966450  0.44736554  0.96905876  1
  O  O26  1  0.30021127  0.82971498  0.97450745  1
  O  O27  1  0.53209871  0.83051487  0.47598711  1
  O  O28  1  0.29641179  0.45022964  0.46927594  1
  O  O29  1  0.15222954  0.69882168  0.46911642  1
  O  O30  1  0.12426937  0.63518071  0.36536792  1
  O  O31  1  0.49674534  0.85752069  0.36125890  1
  O  O32  1  0.36013047  0.48667529  0.36555569  1
  O  O33  1  0.11341787  0.48130579  0.86529084  1
  O  O34  1  0.36721428  0.86402036  0.85917744  1
  O  O35  1  0.51693038  0.63188045  0.86449044  1
  O  O36  1  0.03066968  0.82363609  0.40699303  1
  O  O37  1  0.80473840  0.96768328  0.40969556  1
  O  O38  1  0.18365741  0.20447863  0.40859521  1
  O  O39  1  0.01249962  0.19807518  0.90965468  1
  O  O40  1  0.15876150  0.96486676  0.91083429  1
  O  O41  1  0.79912454  0.82808489  0.90684849  1
  O  O42  1  0.97640012  0.16904637  0.59121401  1
  O  O43  1  0.20384538  0.01857008  0.59114789  1
  O  O44  1  0.81938625  0.79311163  0.59259105  1
  O  O45  1  0.96956235  0.78880994  0.09066377  1
  O  O46  1  0.81478167  0.01922468  0.09090819  1
  O  O47  1  0.19860056  0.17209420  0.09184386  1
  O  O48  1  0.69312912  0.15052232  0.74353875  1
  O  O49  1  0.47835669  0.31537763  0.73867084  1
  O  O50  1  0.84785456  0.53888234  0.74359834  1
  O  O51  1  0.69379124  0.53482073  0.24380253  1
  O  O52  1  0.82087811  0.30974803  0.23840355  1
  O  O53  1  0.46359152  0.15674059  0.24209944  1
  O  O54  1  0.65427257  0.51919403  0.92380918  1
  O  O55  1  0.86749997  0.36219688  0.92664033  1
  O  O56  1  0.50781242  0.13932346  0.92281342  1
  O  O57  1  0.63389330  0.13735625  0.42548347  1
  O  O58  1  0.48926333  0.36480910  0.42552608  1
  O  O59  1  0.87283203  0.51827185  0.42418775  1
  O  O60  1  0.35972603  0.51141486  0.07274929  1
  O  O61  1  0.12772141  0.63723353  0.07536794  1
  O  O62  1  0.50888639  0.87151171  0.07512030  1
  O  O63  1  0.36173518  0.86998435  0.57615014  1
  O  O64  1  0.50949535  0.64010692  0.57740097  1
  O  O65  1  0.15432632  0.51112240  0.57326271  1
  O  O66  1  0.30908090  0.84860070  0.25632599  1
  O  O67  1  0.54020207  0.68959992  0.25726635  1
  O  O68  1  0.16185752  0.47808056  0.26038950  1
  O  O69  1  0.30945622  0.48764362  0.76139787  1
  O  O70  1  0.15612728  0.69460035  0.75821156  1
  O  O71  1  0.53867207  0.84193240  0.75778573  1
loop_
_geom_bond_atom_site_label_1
_geom_bond_atom_site_label_2
_geom_bond_distance
_geom_bond_site_symmetry_2
O0 S0 1.466566 1_555
O0 Zr0 2.294212 1_455
O1 S1 1.484273 1_555
O1 Zr0 2.182865 1_565
O2 Si0 1.644523 1_555
O2 Zr0 1.946759 1_555
O3 Si1 1.626118 1_555
O3 Sn0 1.939704 1_555
O4 S2 1.495186 1_655
O4 Sn0 2.139844 1_665
O5 S3 1.490906 1_545
O5 Sn0 2.214696 1_655
O6 S3 1.480750 1_555
O6 Zr1 2.183801 1_665
O7 Si1 1.645671 1_555
O7 Zr1 1.950328 1_555
O8 S2 1.465960 1_555
O8 Zr1 2.279269 1_565
O9 S1 1.467511 1_555
O9 Zr2 2.293180 1_665
O10 Si0 1.636239 1_455
O10 Zr2 1.942728 1_555
O11 S0 1.485465 1_565
O11 Zr2 2.160318 1_565
O12 Si2 1.629190 1_555
O12 Zr3 2.013329 1_555
O13 S4 1.481615 1_555
O13 Zr3 2.187645 1_555
O14 S5 1.492949 1_555
O14 Zr3 2.148123 1_555
O15 S6 1.491023 1_555
O15 Sn1 2.138288 1_555
O16 S7 1.482122 1_555
O16 Sn1 2.172782 1_555
O17 Si3 1.642321 1_555
O17 Sn1 1.958047 1_555
O18 Si3 1.618004 1_555
O18 Sn2 1.932643 1_554
O19 S6 1.489830 1_555
O19 Sn2 2.216675 1_554
O20 S7 1.486928 1_555
O20 Sn2 2.155833 1_554
O21 S4 1.478726 1_555
O21 Zr4 2.197685 1_555
O22 S5 1.473103 1_555
O22 Zr4 2.266296 1_555
O23 Si2 1.634628 1_555
O23 Zr4 1.933342 1_555
O24 S8 1.483803 1_555
O24 Sn3 2.195672 1_556
O25 S9 1.485785 1_555
O25 Sn3 2.163913 1_556
O26 Si4 1.648145 1_555
O26 Sn3 1.939375 1_556
O27 Si5 1.633547 1_555
O27 Sn4 1.940763 1_555
O28 S10 1.485866 1_555
O28 Sn4 2.142626 1_555
O29 S11 1.484553 1_555
O29 Sn4 2.161794 1_555
O30 S11 1.482593 1_555
O30 Zr5 2.175458 1_555
O31 Si5 1.620244 1_555
O31 Zr5 1.991490 1_555
O32 S10 1.478125 1_555
O32 Zr5 2.179331 1_555
O33 S9 1.480967 1_555
O33 Sn5 2.194865 1_555
O34 Si4 1.647311 1_555
O34 Sn5 1.941465 1_555
O35 S8 1.484115 1_555
O35 Sn5 2.167067 1_555
O36 S11 1.463635 1_555
O36 Zr0 2.225730 1_465
O37 Si5 1.634615 1_555
O37 Zr0 1.937501 1_565
O38 S10 1.478134 1_555
O38 Zr0 2.146238 1_455
O39 S9 1.481662 1_555
O39 Sn0 2.170005 1_555
O40 Si4 1.634645 1_555
O40 Sn0 1.954837 1_565
O41 S8 1.486445 1_555
O41 Sn0 2.159909 1_665
O42 Si2 1.633644 1_555
O42 Zr1 1.931707 1_655
O43 S4 1.479637 1_555
O43 Zr1 2.143815 1_555
O44 S5 1.471764 1_555
O44 Zr1 2.244366 1_665
O45 S6 1.470337 1_555
O45 Zr2 2.250006 1_665
O46 S7 1.476707 1_555
O46 Zr2 2.146684 1_655
O47 Si3 1.636871 1_555
O47 Zr2 1.934042 1_555
O48 S3 1.480071 1_545
O48 Zr3 2.173510 1_555
O49 Si1 1.626997 1_555
O49 Zr3 1.994954 1_555
O50 S2 1.481626 1_655
O50 Zr3 2.136405 1_555
O51 S1 1.483792 1_555
O51 Sn1 2.130708 1_555
O52 Si0 1.628529 1_555
O52 Sn1 1.946949 1_555
O53 S0 1.481895 1_555
O53 Sn1 2.146815 1_555
O54 S8 1.484426 1_555
O54 Sn2 2.151689 1_555
O55 S9 1.489491 1_655
O55 Sn2 2.132354 1_555
O56 Si4 1.635740 1_545
O56 Sn2 1.953508 1_555
O57 Si5 1.628731 1_545
O57 Zr4 1.938405 1_555
O58 S10 1.464633 1_555
O58 Zr4 2.207004 1_555
O59 S11 1.480508 1_655
O59 Zr4 2.139243 1_555
O60 Si3 1.639100 1_555
O60 Sn3 1.944777 1_555
O61 S6 1.485521 1_455
O61 Sn3 2.140360 1_555
O62 S7 1.477628 1_565
O62 Sn3 2.152378 1_555
O63 S4 1.474878 1_565
O63 Sn4 2.150573 1_555
O64 S5 1.485388 1_555
O64 Sn4 2.132810 1_555
O65 Si2 1.627760 1_455
O65 Sn4 1.940866 1_555
O66 S0 1.483863 1_565
O66 Zr5 2.124796 1_555
O67 S1 1.485164 1_555
O67 Zr5 2.133137 1_555
O68 Si0 1.618653 1_455
O68 Zr5 1.987974 1_555
O69 Si1 1.638975 1_555
O69 Sn5 1.939677 1_555
O70 S2 1.481805 1_555
O70 Sn5 2.143494 1_555
O71 S3 1.481555 1_555
O71 Sn5 2.146426 1_555
