# generated using pymatgen
data_Mn3Se3O10
_symmetry_space_group_name_H-M   'P 1'
_cell_length_a   8.49504469
_cell_length_b   8.49504469
_cell_length_c   9.68365575
_cell_angle_alpha   63.27345206
_cell_angle_beta   63.27345206
_cell_angle_gamma   46.43519595
_symmetry_Int_Tables_number   1
_chemical_formula_structural   Mn3Se3O10
_chemical_formula_sum   'Mn6 Se6 O20'
_cell_volume   441.59306569
_cell_formula_units_Z   2
loop_
 _symmetry_equiv_pos_site_id
 _symmetry_equiv_pos_as_xyz
  1  'x, y, z'
loop_
 _atom_site_type_symbol
 _atom_site_label
 _atom_site_symmetry_multiplicity
 _atom_site_fract_x
 _atom_site_fract_y
 _atom_site_fract_z
 _atom_site_occupancy
  Mn  Mn0  1  -0.00000000  0.50000000  0.50000000  1
  Mn  Mn1  1  0.50000000  0.00000000  0.50000000  1
  Mn  Mn2  1  0.61760956  0.61760956  0.91446706  1
  Mn  Mn3  1  0.38239044  0.38239044  0.08553294  1
  Mn  Mn4  1  -0.00000000  0.50000000  -0.00000000  1
  Mn  Mn5  1  0.50000000  0.00000000  -0.00000000  1
  Se  Se0  1  0.52863545  0.52863545  0.66547365  1
  Se  Se1  1  0.47136455  0.47136455  0.33452635  1
  Se  Se2  1  0.86411053  0.86411053  0.66869768  1
  Se  Se3  1  0.13588947  0.13588947  0.33130232  1
  Se  Se4  1  0.88862057  0.88862057  0.16966683  1
  Se  Se5  1  0.11137943  0.11137943  0.83033317  1
  O  O0  1  0.30585967  0.30585967  0.98403852  1
  O  O1  1  0.69414033  0.69414033  0.01596148  1
  O  O2  1  0.21667639  0.21667639  0.64974344  1
  O  O3  1  0.78332361  0.78332361  0.35025656  1
  O  O4  1  0.75136473  0.75136473  0.66856305  1
  O  O5  1  0.24863527  0.24863527  0.33143695  1
  O  O6  1  0.48483368  0.48483368  0.14210818  1
  O  O7  1  0.51516632  0.51516632  0.85789182  1
  O  O8  1  0.05970615  0.66780135  0.08047591  1
  O  O9  1  0.33219865  0.94029385  0.91952409  1
  O  O10  1  0.94029385  0.33219865  0.91952409  1
  O  O11  1  0.66780135  0.05970615  0.08047591  1
  O  O12  1  0.40234703  0.80437442  0.58985178  1
  O  O13  1  0.19562558  0.59765297  0.41014822  1
  O  O14  1  0.59765297  0.19562558  0.41014822  1
  O  O15  1  0.80437442  0.40234703  0.58985178  1
  O  O16  1  0.05249829  0.65019861  0.78449045  1
  O  O17  1  0.94750171  0.34980139  0.21550955  1
  O  O18  1  0.34980139  0.94750171  0.21550955  1
  O  O19  1  0.65019861  0.05249829  0.78449045  1
loop_
_geom_bond_atom_site_label_1
_geom_bond_atom_site_label_2
_geom_bond_distance
_geom_bond_site_symmetry_2
Mn0 O15 2.038961 1_455
Mn0 O13 2.038961 1_555
Mn0 O3 2.106856 1_455
Mn0 O2 2.106856 1_555
Mn0 O5 2.345803 1_555
Mn0 O4 2.345803 1_455
Mn1 O12 2.038961 1_545
Mn1 O14 2.038961 1_555
Mn1 O3 2.106856 1_545
Mn1 O2 2.106856 1_555
Mn1 O5 2.345803 1_555
Mn1 O4 2.345803 1_545
Mn2 O1 1.882385 1_556
Mn2 O7 1.927805 1_555
Mn2 O9 2.061136 1_555
Mn2 O10 2.061136 1_555
Mn2 O6 2.164381 1_556
Mn2 O4 2.272592 1_555
Mn3 O0 1.882385 1_554
Mn3 O6 1.927805 1_555
Mn3 O11 2.061136 1_555
Mn3 O8 2.061136 1_555
Mn3 O7 2.164381 1_554
Mn3 O5 2.272592 1_555
Mn4 O0 1.859180 1_554
Mn4 O1 1.859180 1_455
Mn4 O16 1.932423 1_554
Mn4 O17 1.932423 1_455
Mn4 O8 2.290819 1_555
Mn4 O10 2.290819 1_454
Mn5 O1 1.859180 1_545
Mn5 O0 1.859180 1_554
Mn5 O19 1.932423 1_554
Mn5 O18 1.932423 1_545
Mn5 O11 2.290819 1_555
Mn5 O9 2.290819 1_544
O2 Se5 1.716769 1_555
O3 Se4 1.716769 1_555
O4 Se2 1.761067 1_555
O5 Se3 1.761067 1_555
O6 Se1 1.769922 1_555
O7 Se0 1.769922 1_555
O8 Se4 1.716834 1_455
O9 Se5 1.716834 1_565
O10 Se5 1.716834 1_655
O11 Se4 1.716834 1_545
O12 Se0 1.695310 1_555
O13 Se1 1.695310 1_555
O14 Se1 1.695310 1_555
O15 Se0 1.695310 1_555
O16 Se2 1.701029 1_455
O17 Se3 1.701029 1_655
O18 Se3 1.701029 1_565
O19 Se2 1.701029 1_545
