# generated using pymatgen
data_MgCu10(P3O13)2
_symmetry_space_group_name_H-M   'P 1'
_cell_length_a   6.20400160
_cell_length_b   8.21463880
_cell_length_c   10.17715767
_cell_angle_alpha   91.00218289
_cell_angle_beta   89.94182737
_cell_angle_gamma   90.07837147
_symmetry_Int_Tables_number   1
_chemical_formula_structural   MgCu10(P3O13)2
_chemical_formula_sum   'Mg1 Cu10 P6 O26'
_cell_volume   518.58484036
_cell_formula_units_Z   1
loop_
 _symmetry_equiv_pos_site_id
 _symmetry_equiv_pos_as_xyz
  1  'x, y, z'
loop_
 _atom_site_type_symbol
 _atom_site_label
 _atom_site_symmetry_multiplicity
 _atom_site_fract_x
 _atom_site_fract_y
 _atom_site_fract_z
 _atom_site_occupancy
  Mg  Mg0  1  0.24293000  0.45996600  0.47156200  1
  Cu  Cu0  1  0.50257300  0.14276800  0.79181100  1
  Cu  Cu1  1  0.74943000  0.21922700  0.45751600  1
  Cu  Cu2  1  0.25215900  0.79093000  0.55120600  1
  Cu  Cu3  1  0.50170400  0.84728300  0.21338700  1
  Cu  Cu4  1  0.99552800  0.84686600  0.21294700  1
  Cu  Cu5  1  0.24710800  0.85618700  0.92727700  1
  Cu  Cu6  1  0.75319400  0.43469600  0.88373100  1
  Cu  Cu7  1  0.26189600  0.55874900  0.10229500  1
  Cu  Cu8  1  0.00174700  0.14212600  0.79171400  1
  Cu  Cu9  1  0.74187200  0.14543900  0.08016100  1
  P  P0  1  0.25176900  0.14148100  0.52184000  1
  P  P1  1  0.75110500  0.84881800  0.48291900  1
  P  P2  1  0.74859300  0.49824600  0.22559100  1
  P  P3  1  0.24977000  0.14949900  0.12005600  1
  P  P4  1  0.74922000  0.84463200  0.89032600  1
  P  P5  1  0.25108000  0.49221400  0.78140900  1
  O  O0  1  0.25310100  0.98265000  0.44238900  1
  O  O1  1  0.75050600  0.88607000  0.32883200  1
  O  O2  1  0.95364500  0.61013400  0.21234100  1
  O  O3  1  0.54416200  0.90586400  0.81635100  1
  O  O4  1  0.74280600  0.37973300  0.10463800  1
  O  O5  1  0.04450900  0.08032500  0.19066500  1
  O  O6  1  0.95217500  0.74649600  0.51487100  1
  O  O7  1  0.95763400  0.90507200  0.81804300  1
  O  O8  1  0.24965000  0.61811000  0.89565400  1
  O  O9  1  0.25078000  0.09088500  0.97259200  1
  O  O10  1  0.74808100  0.66177100  0.90232600  1
  O  O11  1  0.45587000  0.38405800  0.79193700  1
  O  O12  1  0.25123000  0.57401300  0.64378000  1
  O  O13  1  0.24701000  0.79245800  0.11600600  1
  O  O14  1  0.53626800  0.60385300  0.22234600  1
  O  O15  1  0.43996300  0.26183000  0.48759200  1
  O  O16  1  0.74943500  0.01824900  0.55329500  1
  O  O17  1  0.45909800  0.08674000  0.18980000  1
  O  O18  1  0.25280600  0.09984800  0.67177800  1
  O  O19  1  0.76348000  0.41363700  0.35741000  1
  O  O20  1  0.55121700  0.74529600  0.51538000  1
  O  O21  1  0.05941100  0.25807000  0.49044100  1
  O  O22  1  0.74681300  0.91596500  0.03500500  1
  O  O23  1  0.75279600  0.20164400  0.89301800  1
  O  O24  1  0.04546600  0.38393200  0.79035800  1
  O  O25  1  0.24041000  0.33354300  0.13115100  1
loop_
_geom_bond_atom_site_label_1
_geom_bond_atom_site_label_2
_geom_bond_distance
_geom_bond_site_symmetry_2
Mg0 O12 1.973546 1_555
Mg0 O21 2.022223 1_555
Mg0 O15 2.045759 1_555
Cu0 O23 1.920540 1_555
Cu0 O3 1.983604 1_545
Cu0 O18 2.001251 1_555
Cu0 O11 2.003546 1_555
Cu0 O9 2.454924 1_555
Cu1 O19 1.911107 1_555
Cu1 O16 1.931870 1_555
Cu1 O15 1.974642 1_555
Cu1 O21 1.976963 1_655
Cu2 O20 1.926540 1_555
Cu2 O6 1.930930 1_455
Cu2 O0 1.941080 1_555
Cu2 O12 2.030147 1_555
Cu3 O13 1.915056 1_555
Cu3 O1 1.963099 1_555
Cu3 O17 2.003711 1_565
Cu3 O14 2.015104 1_555
Cu3 O22 2.440153 1_555
Cu4 O13 1.894906 1_655
Cu4 O1 1.946746 1_555
Cu4 O5 1.958349 1_665
Cu4 O2 1.961502 1_555
Cu4 O22 2.454929 1_555
Cu5 O9 1.974596 1_565
Cu5 O8 1.976540 1_555
Cu5 O13 1.999605 1_556
Cu5 O7 2.154996 1_455
Cu5 O3 2.201629 1_555
Cu6 O10 1.871927 1_555
Cu6 O23 1.918418 1_555
Cu6 O24 2.085550 1_655
Cu6 O11 2.106209 1_555
Cu6 O4 2.301645 1_556
Cu7 O25 1.882740 1_555
Cu7 O13 1.924800 1_555
Cu7 O14 2.124661 1_555
Cu7 O8 2.168534 1_554
Cu7 O2 2.251895 1_455
Cu8 O23 1.915367 1_455
Cu8 O7 1.988812 1_445
Cu8 O24 2.004699 1_555
Cu8 O18 2.004823 1_555
Cu8 O9 2.446937 1_555
Cu9 O22 1.932708 1_545
Cu9 O4 1.936370 1_555
Cu9 O23 1.968658 1_554
Cu9 O17 2.137231 1_555
Cu9 O5 2.259243 1_655
O0 P0 1.522936 1_565
O1 P1 1.603000 1_555
O2 P2 1.575468 1_555
O3 P4 1.566902 1_555
O4 P2 1.556407 1_555
O5 P3 1.572061 1_555
O6 P1 1.543244 1_555
O7 P4 1.571179 1_555
O8 P5 1.542536 1_555
O9 P3 1.568082 1_556
O10 P4 1.509227 1_555
O11 P5 1.556199 1_555
O12 P5 1.564071 1_555
O14 P2 1.578952 1_555
O15 P0 1.571661 1_555
O16 P1 1.554153 1_545
O17 P3 1.572465 1_555
O18 P0 1.569646 1_555
O19 P2 1.524592 1_555
O20 P1 1.541520 1_555
O21 P0 1.567851 1_555
O22 P4 1.575249 1_554
O24 P5 1.557635 1_555
O25 P3 1.515283 1_555
