# generated using pymatgen
data_MgFe4(AsS)4
_symmetry_space_group_name_H-M   'P 1'
_cell_length_a   5.74801510
_cell_length_b   5.99272610
_cell_length_c   6.05020851
_cell_angle_alpha   108.99570320
_cell_angle_beta   89.86456519
_cell_angle_gamma   89.91192770
_symmetry_Int_Tables_number   1
_chemical_formula_structural   MgFe4(AsS)4
_chemical_formula_sum   'Mg1 Fe4 As4 S4'
_cell_volume   197.05680824
_cell_formula_units_Z   1
loop_
 _symmetry_equiv_pos_site_id
 _symmetry_equiv_pos_as_xyz
  1  'x, y, z'
loop_
 _atom_site_type_symbol
 _atom_site_label
 _atom_site_symmetry_multiplicity
 _atom_site_fract_x
 _atom_site_fract_y
 _atom_site_fract_z
 _atom_site_occupancy
  Mg  Mg0  1  0.50000000  0.00000000  0.00000000  1
  Fe  Fe0  1  0.49639900  0.72820500  0.23137800  1
  Fe  Fe1  1  0.99641300  0.27898300  0.28369800  1
  Fe  Fe2  1  0.50360100  0.27179500  0.76862200  1
  Fe  Fe3  1  0.00358700  0.72101700  0.71630200  1
  As  As0  1  0.65731400  0.85707300  0.59498700  1
  As  As1  1  0.10694600  0.15000900  0.86238300  1
  As  As2  1  0.34268600  0.14292700  0.40501300  1
  As  As3  1  0.89305400  0.84999100  0.13761700  1
  S  S0  1  0.64720200  0.37877300  0.17445300  1
  S  S1  1  0.14155900  0.64217000  0.33898200  1
  S  S2  1  0.35279800  0.62122700  0.82554700  1
  S  S3  1  0.85844100  0.35783000  0.66101800  1
loop_
_geom_bond_atom_site_label_1
_geom_bond_atom_site_label_2
_geom_bond_distance
_geom_bond_site_symmetry_2
Mg0 S0 2.330834 1_555
Mg0 S2 2.330834 1_544
Fe0 S0 2.185988 1_555
Fe0 S1 2.250601 1_555
Fe0 Mg0 2.469289 1_565
Fe0 S2 2.471354 1_554
Fe1 S1 2.253439 1_655
Fe1 S0 2.254664 1_555
Fe1 S3 2.313389 1_555
Fe2 S2 2.185988 1_555
Fe2 S3 2.250601 1_555
Fe2 Mg0 2.469289 1_556
Fe2 S0 2.471354 1_556
Fe3 S3 2.253439 1_455
Fe3 S2 2.254664 1_555
Fe3 S1 2.313389 1_555
As0 Fe0 2.279769 1_555
As0 Fe3 2.357254 1_655
As0 Mg0 2.485282 1_566
As0 Fe2 2.519968 1_565
As0 S2 2.878669 1_555
As1 S3 2.462960 1_455
As1 Fe1 2.491372 1_456
As1 Fe3 2.504256 1_545
As1 Fe2 2.514215 1_555
As1 Mg0 2.663763 1_556
As2 Fe2 2.279769 1_555
As2 Fe1 2.357254 1_455
As2 Mg0 2.485282 1_555
As2 Fe0 2.519968 1_545
As2 S0 2.878669 1_555
As3 S1 2.462960 1_655
As3 Fe3 2.491372 1_654
As3 Fe1 2.504256 1_565
As3 Fe0 2.514215 1_555
As3 Mg0 2.663763 1_565
