# generated using pymatgen
data_BaMgMnV2(AgO4)2
_symmetry_space_group_name_H-M   'P 1'
_cell_length_a   6.38934647
_cell_length_b   5.56218731
_cell_length_c   7.46941990
_cell_angle_alpha   86.71747748
_cell_angle_beta   93.62481021
_cell_angle_gamma   123.30122221
_symmetry_Int_Tables_number   1
_chemical_formula_structural   BaMgMnV2(AgO4)2
_chemical_formula_sum   'Ba1 Mg1 Mn1 V2 Ag2 O8'
_cell_volume   221.34035405
_cell_formula_units_Z   1
loop_
 _symmetry_equiv_pos_site_id
 _symmetry_equiv_pos_as_xyz
  1  'x, y, z'
loop_
 _atom_site_type_symbol
 _atom_site_label
 _atom_site_symmetry_multiplicity
 _atom_site_fract_x
 _atom_site_fract_y
 _atom_site_fract_z
 _atom_site_occupancy
  Ba  Ba0  1  0.98004194  0.01787355  0.99248928  1
  Mg  Mg0  1  0.92278843  0.38779200  0.54873588  1
  Mn  Mn0  1  0.05785754  0.98684432  0.46102135  1
  V  V0  1  0.63965631  0.27364441  0.22506885  1
  V  V1  1  0.38149605  0.74312197  0.76222549  1
  Ag  Ag0  1  0.41529260  0.64640129  0.30867224  1
  Ag  Ag1  1  0.54398377  0.35990965  0.75446974  1
  O  O0  1  0.75433337  0.43123518  0.01360628  1
  O  O1  1  0.36240079  0.62852049  0.98639498  1
  O  O2  1  0.75890620  0.55883699  0.39551344  1
  O  O3  1  0.85668438  0.15456621  0.31771835  1
  O  O4  1  0.30672891  0.04093153  0.26261549  1
  O  O5  1  0.24670018  0.40954692  0.61062487  1
  O  O6  1  0.68817770  0.03915161  0.70090733  1
  O  O7  1  0.10876184  0.77400288  0.68672144  1
loop_
_geom_bond_atom_site_label_1
_geom_bond_atom_site_label_2
_geom_bond_distance
_geom_bond_site_symmetry_2
Ba0 O0 2.748520 1_546
Ba0 O4 2.765418 1_656
Ba0 O6 2.816790 1_555
Ba0 O3 2.865712 1_556
Ba0 O1 2.896818 1_655
Ba0 O7 3.090294 1_645
Mg0 O6 2.017548 1_555
Mg0 O5 2.030261 1_655
Mg0 O2 2.032012 1_555
Mg0 O7 2.093956 1_655
Mg0 O3 2.097943 1_555
Mn0 O7 2.115260 1_555
Mn0 O4 2.129995 1_565
Mn0 O2 2.139476 1_455
Mn0 O3 2.167166 1_465
Mn0 O5 2.290795 1_565
Ag0 O1 2.409662 1_554
Ag0 O5 2.528133 1_555
Ag0 O2 2.536921 1_555
Ag0 O4 2.640070 1_565
Ag0 O3 2.681767 1_565
Ag1 O0 2.209925 1_556
Ag1 O5 2.263267 1_555
Ag1 O6 2.474918 1_555
O0 V0 1.755724 1_555
O1 V1 1.744443 1_555
O2 V0 1.870598 1_555
O3 V0 1.917066 1_555
O4 V0 1.813676 1_555
O5 V1 1.956816 1_555
O6 V1 1.801335 1_545
O7 V1 1.891431 1_555
