# generated using pymatgen
data_MgMn4(NiO4)2
_symmetry_space_group_name_H-M   'P 1'
_cell_length_a   5.98226060
_cell_length_b   5.98226062
_cell_length_c   6.59104671
_cell_angle_alpha   60.23334557
_cell_angle_beta   60.23333938
_cell_angle_gamma   59.73714811
_symmetry_Int_Tables_number   1
_chemical_formula_structural   MgMn4(NiO4)2
_chemical_formula_sum   'Mg1 Mn4 Ni2 O8'
_cell_volume   167.03853234
_cell_formula_units_Z   1
loop_
 _symmetry_equiv_pos_site_id
 _symmetry_equiv_pos_as_xyz
  1  'x, y, z'
loop_
 _atom_site_type_symbol
 _atom_site_label
 _atom_site_symmetry_multiplicity
 _atom_site_fract_x
 _atom_site_fract_y
 _atom_site_fract_z
 _atom_site_occupancy
  Mg  Mg0  1  0.12676775  0.12676775  0.62466991  1
  Mn  Mn0  1  0.95132277  0.95132277  0.09185471  1
  Mn  Mn1  1  0.30429529  0.30429529  0.15759307  1
  Mn  Mn2  1  0.62723875  0.62723875  0.12555846  1
  Mn  Mn3  1  0.62694120  0.62694120  0.62490938  1
  Ni  Ni0  1  0.12674758  0.62685682  0.62520494  1
  Ni  Ni1  1  0.62685682  0.12674758  0.62520494  1
  O  O0  1  0.37495821  0.37495821  0.39580181  1
  O  O1  1  0.39572642  0.87382993  0.39963343  1
  O  O2  1  0.40143134  0.40143135  0.80106250  1
  O  O3  1  0.87382993  0.39572642  0.39963343  1
  O  O4  1  0.38027335  0.85825054  0.85023467  1
  O  O5  1  0.85253874  0.85253874  0.44874055  1
  O  O6  1  0.85825054  0.38027335  0.85023467  1
  O  O7  1  0.87907131  0.87907131  0.85466353  1
loop_
_geom_bond_atom_site_label_1
_geom_bond_atom_site_label_2
_geom_bond_distance
_geom_bond_site_symmetry_2
Mg0 O7 2.107531 1_445
Mg0 O0 2.111539 1_555
Mg0 O1 2.117378 1_545
Mg0 O3 2.117378 1_455
Mg0 O6 2.121918 1_455
Mg0 O4 2.121919 1_545
Mn0 O5 1.955257 1_555
Mn0 O7 2.085152 1_554
Mn0 O4 2.193994 1_654
Mn0 O6 2.193995 1_564
Mn1 O2 1.956021 1_554
Mn1 O0 2.078596 1_555
Mn1 O3 2.200718 1_455
Mn1 O1 2.200718 1_545
Mn2 O7 2.161729 1_554
Mn2 O0 2.164586 1_555
Mn2 O1 2.336668 1_555
Mn2 O3 2.336668 1_555
Mn2 O6 2.345133 1_554
Mn2 O4 2.345133 1_554
Mn3 O2 1.926613 1_555
Mn3 O5 1.927394 1_555
Mn3 O3 2.025311 1_555
Mn3 O1 2.025311 1_555
Mn3 O4 2.025899 1_555
Mn3 O6 2.025900 1_555
Ni0 O2 1.991947 1_555
Ni0 O5 1.992334 1_455
Ni0 O0 2.130631 1_555
Ni0 O7 2.132273 1_455
Ni0 O6 2.192265 1_455
Ni0 O1 2.195956 1_555
Ni1 O2 1.991947 1_555
Ni1 O5 1.992334 1_545
Ni1 O0 2.130631 1_555
Ni1 O7 2.132273 1_545
Ni1 O4 2.192265 1_545
Ni1 O3 2.195956 1_555
