# generated using pymatgen
data_Na2NbAl3Si2(SO6)4
_symmetry_space_group_name_H-M   'P 1'
_cell_length_a   8.56083489
_cell_length_b   8.52651844
_cell_length_c   22.14773721
_cell_angle_alpha   90.25861014
_cell_angle_beta   89.24997035
_cell_angle_gamma   120.05454490
_symmetry_Int_Tables_number   1
_chemical_formula_structural   Na2NbAl3Si2(SO6)4
_chemical_formula_sum   'Na6 Nb3 Al9 Si6 S12 O72'
_cell_volume   1399.16993718
_cell_formula_units_Z   3
loop_
 _symmetry_equiv_pos_site_id
 _symmetry_equiv_pos_as_xyz
  1  'x, y, z'
loop_
 _atom_site_type_symbol
 _atom_site_label
 _atom_site_symmetry_multiplicity
 _atom_site_fract_x
 _atom_site_fract_y
 _atom_site_fract_z
 _atom_site_occupancy
  Na  Na0  1  0.00203237  0.99152897  0.49736862  1
  Na  Na1  1  0.00113252  0.97589121  0.99868499  1
  Na  Na2  1  0.63754458  0.32425494  0.83057328  1
  Na  Na3  1  0.68956965  0.34071615  0.33239549  1
  Na  Na4  1  0.31558051  0.65450150  0.15820784  1
  Na  Na5  1  0.32695463  0.64990553  0.66512416  1
  Nb  Nb0  1  0.66903501  0.34998066  0.97816843  1
  Nb  Nb1  1  0.31181888  0.65235239  0.30952370  1
  Nb  Nb2  1  0.34481707  0.66772883  0.81066231  1
  Al  Al0  1  0.99245235  0.99118873  0.35315353  1
  Al  Al1  1  0.01973668  0.00228665  0.85796407  1
  Al  Al2  1  0.00623288  0.00883570  0.64669073  1
  Al  Al3  1  0.00060288  -0.00023113  0.14341804  1
  Al  Al4  1  0.65545055  0.33416845  0.68751131  1
  Al  Al5  1  0.69283153  0.33817741  0.18744708  1
  Al  Al6  1  0.67434255  0.33919671  0.48071015  1
  Al  Al7  1  0.33644269  0.68586663  0.02088283  1
  Al  Al8  1  0.32357989  0.67461336  0.51737972  1
  Si  Si0  1  0.97700831  0.25435227  0.24972513  1
  Si  Si1  1  0.28236642  0.27229943  0.74623850  1
  Si  Si2  1  0.97236758  0.63406407  0.08807753  1
  Si  Si3  1  0.62898159  0.69136900  0.92052599  1
  Si  Si4  1  0.32748798  0.95228071  0.91946092  1
  Si  Si5  1  0.03263002  0.67188991  0.42218856  1
  S  S0  1  0.28964375  0.01271370  0.24836348  1
  S  S1  1  0.71928560  0.71069045  0.24934193  1
  S  S2  1  0.98969450  0.71146358  0.74472743  1
  S  S3  1  0.72456372  0.01258678  0.74477367  1
  S  S4  1  0.95068587  0.33107934  0.58345066  1
  S  S5  1  0.38341252  0.04671836  0.58251874  1
  S  S6  1  0.66525586  0.62417721  0.58312652  1
  S  S7  1  0.66779841  0.04332812  0.08717130  1
  S  S8  1  0.37803292  0.33416413  0.08899190  1
  S  S9  1  0.05249754  0.37607836  0.91854158  1
  S  S10  1  0.62098016  0.95611797  0.42125325  1
  S  S11  1  0.33458188  0.37727645  0.42174509  1
  O  O0  1  0.20710711  0.02921800  0.30527294  1
  O  O1  1  0.82624760  0.78584501  0.30513100  1
  O  O2  1  0.96734559  0.15415477  0.31241767  1
  O  O3  1  0.18563466  0.15954081  0.80651214  1
  O  O4  1  0.95716810  0.78427114  0.80066179  1
  O  O5  1  0.81936963  0.03023966  0.80038224  1
  O  O6  1  0.80117197  0.97460221  0.68990114  1
  O  O7  1  0.16909426  0.19585820  0.68472761  1
  O  O8  1  0.01215456  0.82044758  0.68973784  1
  O  O9  1  0.79999790  0.81977638  0.19521405  1
  O  O10  1  0.02414888  0.17992578  0.19042803  1
  O  O11  1  0.17649679  0.96779145  0.19522109  1
  O  O12  1  0.86706139  0.36114577  0.63780229  1
  O  O13  1  0.49328187  0.13213918  0.63660004  1
  O  O14  1  0.63533898  0.51083111  0.63743942  1
  O  O15  1  0.87184406  0.50468224  0.14536834  1
  O  O16  1  0.63529282  0.12757665  0.14110804  1
  O  O17  1  0.49039583  0.35092958  0.14106235  1
  O  O18  1  0.45761476  0.30310818  0.03141218  1
  O  O19  1  0.84063511  0.53668443  0.02738235  1
  O  O20  1  0.69070498  0.15107155  0.03204000  1
  O  O21  1  0.46859407  0.16082519  0.52819753  1
  O  O22  1  0.69600351  0.54033211  0.52862247  1
  O  O23  1  0.84091684  0.30642396  0.52915007  1
  O  O24  1  0.52633407  0.69622403  0.98012510  1
  O  O25  1  0.15833985  0.45845950  0.97221434  1
  O  O26  1  0.29639933  0.82994648  0.97679798  1
  O  O27  1  0.53612258  0.83682708  0.47480473  1
  O  O28  1  0.31162842  0.47152691  0.47465542  1
  O  O29  1  0.16593927  0.70863682  0.47780013  1
  O  O30  1  0.13025001  0.63503220  0.36001115  1
  O  O31  1  0.51365465  0.87566856  0.36598850  1
  O  O32  1  0.37289216  0.49088515  0.36542096  1
  O  O33  1  0.12961798  0.48747931  0.86204919  1
  O  O34  1  0.35700051  0.86412224  0.85572808  1
  O  O35  1  0.50255092  0.63402060  0.85762107  1
  O  O36  1  0.01892409  0.84961167  0.40702959  1
  O  O37  1  0.80325599  0.97978084  0.41474491  1
  O  O38  1  0.16924055  0.20177235  0.41420963  1
  O  O39  1  0.02903425  0.19697759  0.90939204  1
  O  O40  1  0.15864266  0.98082747  0.91145988  1
  O  O41  1  0.81658890  0.86615914  0.90436510  1
  O  O42  1  0.96353067  0.16289258  0.58775722  1
  O  O43  1  0.19714532  0.01874185  0.58727238  1
  O  O44  1  0.82961624  0.80746057  0.58937411  1
  O  O45  1  0.98724496  0.83152081  0.09175228  1
  O  O46  1  0.83283089  0.02993824  0.09199402  1
  O  O47  1  0.19644410  0.17189280  0.09137564  1
  O  O48  1  0.71002321  0.17732906  0.73613533  1
  O  O49  1  0.48691650  0.30333894  0.74060059  1
  O  O50  1  0.83317682  0.52545691  0.73674616  1
  O  O51  1  0.68329118  0.52311378  0.24331921  1
  O  O52  1  0.80867143  0.28937434  0.24553105  1
  O  O53  1  0.46617283  0.17687040  0.24123627  1
  O  O54  1  0.65238558  0.50867706  0.92293456  1
  O  O55  1  0.86999497  0.35883205  0.92248261  1
  O  O56  1  0.51769045  0.14710071  0.92419788  1
  O  O57  1  0.63178630  0.13390122  0.42996969  1
  O  O58  1  0.49209411  0.35215155  0.42901360  1
  O  O59  1  0.83888897  0.48899236  0.42763804  1
  O  O60  1  0.36788533  0.49918805  0.08179895  1
  O  O61  1  0.16194741  0.63951067  0.07715745  1
  O  O62  1  0.50847514  0.85995452  0.08252194  1
  O  O63  1  0.37180496  0.86547360  0.57701014  1
  O  O64  1  0.50201799  0.64254795  0.57605758  1
  O  O65  1  0.13686344  0.49305248  0.57697225  1
  O  O66  1  0.32145370  0.85012026  0.25508938  1
  O  O67  1  0.53945182  0.70138341  0.25787414  1
  O  O68  1  0.16934224  0.46923420  0.25683550  1
  O  O69  1  0.30428201  0.48066973  0.75164882  1
  O  O70  1  0.15631781  0.69754575  0.74813427  1
  O  O71  1  0.53478439  0.84874276  0.74727010  1
loop_
_geom_bond_atom_site_label_1
_geom_bond_atom_site_label_2
_geom_bond_distance
_geom_bond_site_symmetry_2
Na0 O36 2.373651 1_555
Na0 O38 2.458709 1_565
Na0 O37 2.482651 1_455
Na0 O44 2.534538 1_455
Na0 O43 2.550151 1_565
Na0 O42 2.586481 1_465
Na1 O40 2.329741 1_555
Na1 O45 2.376553 1_456
Na1 O41 2.514616 1_455
Na1 O47 2.657622 1_566
Na1 O39 2.663073 1_565
Na1 O46 2.671622 1_466
Na2 O49 2.345028 1_555
Na2 O56 2.460545 1_555
Na2 O54 2.539869 1_555
Na2 O48 2.655206 1_555
Na2 O50 2.670110 1_555
Na2 O55 2.775514 1_555
Na3 O52 2.306638 1_555
Na3 O59 2.471796 1_555
Na3 O51 2.535326 1_555
Na3 O53 2.661749 1_555
Na3 O57 2.675278 1_555
Na3 O58 2.741360 1_555
Na4 O61 2.204503 1_555
Na4 O60 2.317744 1_555
Na4 O62 2.379509 1_555
Na4 O68 2.610149 1_555
Na4 O66 2.697248 1_555
Na4 O67 2.835633 1_555
Na5 O69 2.350933 1_555
Na5 O65 2.475526 1_555
Na5 O64 2.481311 1_555
Na5 O70 2.489229 1_555
Na5 O71 2.526936 1_555
Na5 O63 2.576850 1_555
Nb0 O54 1.886912 1_555
Nb0 O19 1.887900 1_556
Nb0 O56 1.968961 1_555
Nb0 O18 2.012460 1_556
Nb0 O55 2.074060 1_555
Nb0 O20 2.161855 1_556
Nb1 O68 1.844052 1_555
Nb1 O30 1.847782 1_555
Nb1 O66 2.044556 1_555
Nb1 O67 2.100189 1_555
Nb1 O32 2.110636 1_555
Nb1 O31 2.216913 1_555
Nb2 O35 1.848210 1_555
Nb2 O34 1.903657 1_555
Nb2 O69 1.952251 1_555
Nb2 O33 2.043569 1_555
Nb2 O71 2.108018 1_555
Nb2 O70 2.249254 1_555
Al0 O2 1.762533 1_565
Al0 O36 1.796245 1_655
Al0 O1 1.936168 1_555
Al0 O0 1.990425 1_665
Al0 O37 2.068614 1_555
Al0 O38 2.157041 1_665
Al1 O40 1.762986 1_545
Al1 O3 1.782534 1_555
Al1 O41 1.835735 1_445
Al1 O39 1.977969 1_555
Al1 O4 2.086211 1_445
Al1 O5 2.257215 1_455
Al2 O7 1.728619 1_555
Al2 O6 1.878326 1_445
Al2 O8 1.894300 1_545
Al2 O42 2.017851 1_455
Al2 O43 2.053419 1_555
Al2 O44 2.067830 1_445
Al3 O10 1.779101 1_555
Al3 O45 1.790176 1_445
Al3 O47 1.947658 1_555
Al3 O46 1.960035 1_455
Al3 O9 1.986187 1_445
Al3 O11 2.029140 1_545
Al4 O49 1.764018 1_555
Al4 O50 1.925079 1_555
Al4 O13 1.947864 1_555
Al4 O14 1.951492 1_555
Al4 O48 1.954054 1_555
Al4 O12 2.019762 1_555
Al5 O15 1.740090 1_555
Al5 O52 1.806397 1_555
Al5 O16 1.905535 1_555
Al5 O51 2.033020 1_555
Al5 O17 2.075312 1_555
Al5 O53 2.087367 1_555
Al6 O59 1.779135 1_555
Al6 O23 1.924701 1_555
Al6 O22 1.942106 1_555
Al6 O21 1.950480 1_555
Al6 O57 1.952923 1_555
Al6 O58 1.994465 1_555
Al7 O26 1.738236 1_554
Al7 O24 1.812132 1_554
Al7 O61 1.818084 1_555
Al7 O62 2.020059 1_555
Al7 O25 2.075855 1_554
Al7 O60 2.210043 1_555
Al8 O29 1.760467 1_555
Al8 O27 1.886518 1_555
Al8 O28 1.927340 1_555
Al8 O63 1.971012 1_555
Al8 O65 2.044059 1_555
Al8 O64 2.137915 1_555
O0 S0 1.477292 1_555
O1 S1 1.486792 1_555
O2 Si0 1.612939 1_555
O3 Si1 1.605399 1_555
O4 S2 1.467914 1_555
O5 S3 1.449262 1_555
O6 S3 1.483343 1_565
O7 Si1 1.616964 1_555
O8 S2 1.486226 1_455
O9 S1 1.457513 1_555
O10 Si0 1.589166 1_455
O11 S0 1.457533 1_565
O12 S4 1.478433 1_555
O13 S5 1.478264 1_555
O14 S6 1.483611 1_555
O15 Si2 1.612672 1_555
O16 S7 1.484672 1_555
O17 S8 1.471569 1_555
O18 S8 1.521666 1_555
O19 Si2 1.691137 1_555
O20 S7 1.482145 1_555
O21 S5 1.484163 1_555
O22 S6 1.486591 1_555
O23 S4 1.484257 1_555
O24 Si3 1.588034 1_555
O25 S9 1.452804 1_555
O26 Si4 1.580035 1_555
O27 S10 1.489031 1_555
O28 S11 1.483676 1_555
O29 Si5 1.610205 1_555
O30 Si5 1.709556 1_555
O31 S10 1.484399 1_555
O32 S11 1.511300 1_555
O33 S9 1.504834 1_555
O34 Si4 1.671112 1_555
O35 Si3 1.689617 1_555
O36 Si5 1.614461 1_555
O37 S10 1.474943 1_555
O38 S11 1.467310 1_555
O39 S9 1.450685 1_555
O40 Si4 1.593581 1_555
O41 Si3 1.587747 1_555
O42 S4 1.495708 1_555
O43 S5 1.491834 1_555
O44 S6 1.497272 1_555
O45 Si2 1.625321 1_555
O46 S7 1.478553 1_555
O47 S8 1.475760 1_555
O48 S3 1.484389 1_555
O49 Si1 1.637808 1_555
O50 S2 1.488981 1_555
O51 S1 1.475212 1_555
O52 Si0 1.615359 1_555
O53 S0 1.464540 1_555
O54 Si3 1.668277 1_555
O55 S9 1.495552 1_655
O56 Si4 1.647829 1_545
O57 S10 1.483596 1_545
O58 S11 1.478321 1_555
O59 Si5 1.613416 1_655
O60 S8 1.462061 1_555
O61 Si2 1.615235 1_455
O62 S7 1.477066 1_565
O63 S5 1.502590 1_565
O64 S6 1.492356 1_555
O65 S4 1.503072 1_455
O66 S0 1.549003 1_565
O67 S1 1.510727 1_555
O68 Si0 1.753641 1_455
O69 Si1 1.694376 1_555
O70 S2 1.492295 1_455
O71 S3 1.522885 1_565
