# generated using pymatgen
data_MgFe6(O5F)2
_symmetry_space_group_name_H-M   'P 1'
_cell_length_a   5.13010474
_cell_length_b   7.51838092
_cell_length_c   5.71438445
_cell_angle_alpha   97.18733524
_cell_angle_beta   98.35692397
_cell_angle_gamma   84.47228074
_symmetry_Int_Tables_number   1
_chemical_formula_structural   MgFe6(O5F)2
_chemical_formula_sum   'Mg1 Fe6 O10 F2'
_cell_volume   215.66389745
_cell_formula_units_Z   1
loop_
 _symmetry_equiv_pos_site_id
 _symmetry_equiv_pos_as_xyz
  1  'x, y, z'
loop_
 _atom_site_type_symbol
 _atom_site_label
 _atom_site_symmetry_multiplicity
 _atom_site_fract_x
 _atom_site_fract_y
 _atom_site_fract_z
 _atom_site_occupancy
  Mg  Mg0  1  0.49157558  0.16564328  0.16176121  1
  Fe  Fe0  1  0.55686308  0.68193782  0.13331082  1
  Fe  Fe1  1  0.42958313  0.96210401  0.55895233  1
  Fe  Fe2  1  0.57364420  0.35330653  0.76292943  1
  Fe  Fe3  1  0.99451911  0.66067515  0.67677891  1
  Fe  Fe4  1  0.00615000  0.33705522  0.32507598  1
  Fe  Fe5  1  0.99452802  0.98541042  0.98987435  1
  O  O0  1  0.85811063  0.42120026  0.61661702  1
  O  O1  1  0.83332094  0.76000894  0.97012785  1
  O  O2  1  0.63650300  0.09521765  0.84051275  1
  O  O3  1  0.67238718  0.75420777  0.47059909  1
  O  O4  1  0.67135702  0.41446815  0.12939628  1
  O  O5  1  0.34340869  0.56887891  0.84744032  1
  O  O6  1  0.35162094  0.22977336  0.48881964  1
  O  O7  1  0.33789237  0.91266620  0.19418084  1
  O  O8  1  0.11922103  0.22258199  0.03724702  1
  O  O9  1  0.14576355  0.89414985  0.69988965  1
  F  F0  1  0.84208577  0.08988690  0.31770362  1
  F  F1  1  0.15535373  0.57118259  0.36211488  1
loop_
_geom_bond_atom_site_label_1
_geom_bond_atom_site_label_2
_geom_bond_distance
_geom_bond_site_symmetry_2
Mg0 O8 1.965210 1_555
Mg0 O2 2.068995 1_554
Mg0 O6 2.082972 1_555
Mg0 O7 2.166322 1_545
Mg0 O4 2.202986 1_555
Fe0 O3 1.956852 1_555
Fe0 O5 1.975375 1_554
Fe0 O1 1.976687 1_554
Fe0 O7 1.994808 1_555
Fe0 O4 2.038230 1_555
Fe1 O9 1.901785 1_555
Fe1 O3 1.964639 1_555
Fe1 O2 2.005596 1_565
Fe1 O7 2.063766 1_555
Fe1 O6 2.090609 1_565
Fe2 O0 1.922044 1_555
Fe2 O5 1.963743 1_555
Fe2 O6 1.983589 1_555
Fe2 O2 2.029504 1_555
Fe2 O4 2.084810 1_556
Fe3 O0 1.966592 1_555
Fe3 O9 1.968583 1_655
Fe3 O1 2.005577 1_555
Fe3 O3 2.007760 1_555
Fe3 O5 2.013447 1_655
Fe4 O8 1.899839 1_555
Fe4 O0 1.940095 1_455
Fe4 O4 1.987711 1_455
Fe4 O6 2.024492 1_555
Fe5 O8 1.926324 1_666
Fe5 O1 1.939989 1_555
Fe5 O9 1.950719 1_655
Fe5 O7 2.035042 1_656
Fe5 O2 2.052327 1_565
F0 Mg0 1.953399 1_555
F0 Fe4 2.105922 1_655
F0 Fe5 2.162708 1_544
F1 Fe4 1.961746 1_555
F1 Fe3 2.094820 1_455
