# generated using pymatgen
data_Al(VS2)4
_symmetry_space_group_name_H-M   'P 1'
_cell_length_a   6.87861828
_cell_length_b   6.90488221
_cell_length_c   6.88563450
_cell_angle_alpha   60.09216866
_cell_angle_beta   59.96625277
_cell_angle_gamma   60.42322699
_symmetry_Int_Tables_number   1
_chemical_formula_structural   Al(VS2)4
_chemical_formula_sum   'Al1 V4 S8'
_cell_volume   232.08557018
_cell_formula_units_Z   1
loop_
 _symmetry_equiv_pos_site_id
 _symmetry_equiv_pos_as_xyz
  1  'x, y, z'
loop_
 _atom_site_type_symbol
 _atom_site_label
 _atom_site_symmetry_multiplicity
 _atom_site_fract_x
 _atom_site_fract_y
 _atom_site_fract_z
 _atom_site_occupancy
  Al  Al0  1  0.99745903  0.00175223  0.00039437  1
  V  V0  1  0.60170375  0.60596239  0.18317476  1
  V  V1  1  0.61321317  0.16725636  0.60976523  1
  V  V2  1  0.17015518  0.61353798  0.60815342  1
  V  V3  1  0.60170375  0.60596239  0.60915711  1
  S  S0  1  0.37898532  0.37423224  0.87998416  1
  S  S1  1  0.38265336  0.88304538  0.36715113  1
  S  S2  1  0.87672017  0.37667509  0.37330237  1
  S  S3  1  0.37898532  0.37423224  0.36679929  1
  S  S4  1  0.86599072  0.86478487  0.40121885  1
  S  S5  1  0.86461519  0.40413208  0.86562587  1
  S  S6  1  0.40182332  0.86363989  0.86726789  1
  S  S7  1  0.86599072  0.86478487  0.86800456  1
loop_
_geom_bond_atom_site_label_1
_geom_bond_atom_site_label_2
_geom_bond_distance
_geom_bond_site_symmetry_2
Al0 S4 2.252202 1_545
Al0 S7 2.252208 1_544
Al0 S5 2.277503 1_554
Al0 S6 2.277546 1_644
S0 V3 2.229197 1_555
S0 V1 2.340521 1_555
S0 V2 2.358225 1_555
S1 V3 2.279442 1_555
S1 V0 2.279456 1_555
S1 V2 2.351803 1_555
S2 V3 2.292299 1_555
S2 V0 2.292308 1_555
S2 V1 2.304929 1_555
S3 V0 2.229194 1_555
S3 V1 2.340515 1_555
S3 V2 2.358219 1_555
S4 V2 2.520594 1_655
S4 V1 2.520660 1_565
S4 V3 2.568807 1_555
S5 V2 2.522832 1_655
S5 V0 2.566321 1_556
S5 V3 2.566326 1_555
S6 V1 2.524848 1_565
S6 V0 2.550887 1_556
S6 V3 2.550892 1_555
S7 V2 2.520589 1_655
S7 V1 2.520656 1_565
S7 V0 2.568806 1_556
