# generated using pymatgen
data_HS7N
_symmetry_space_group_name_H-M   'P 1'
_cell_length_a   8.12547000
_cell_length_b   8.50035000
_cell_length_c   13.87382900
_cell_angle_alpha   90.00000000
_cell_angle_beta   90.00000000
_cell_angle_gamma   90.00000000
_symmetry_Int_Tables_number   1
_chemical_formula_structural   HS7N
_chemical_formula_sum   'H4 S28 N4'
_cell_volume   958.25619724
_cell_formula_units_Z   4
loop_
 _symmetry_equiv_pos_site_id
 _symmetry_equiv_pos_as_xyz
  1  'x, y, z'
loop_
 _atom_site_type_symbol
 _atom_site_label
 _atom_site_symmetry_multiplicity
 _atom_site_fract_x
 _atom_site_fract_y
 _atom_site_fract_z
 _atom_site_occupancy
  H  H0  1  0.70662100  0.52634000  0.75000000  1
  H  H1  1  0.20662100  0.97366000  0.25000000  1
  H  H2  1  0.79337900  0.02634000  0.75000000  1
  H  H3  1  0.29337900  0.47366000  0.25000000  1
  S  S0  1  0.00768500  0.25095200  0.39438300  1
  S  S1  1  0.50768500  0.24904800  0.60561700  1
  S  S2  1  0.49231500  0.75095200  0.10561700  1
  S  S3  1  0.99231500  0.74904800  0.89438300  1
  S  S4  1  0.99231500  0.74904800  0.60561700  1
  S  S5  1  0.49231500  0.75095200  0.39438300  1
  S  S6  1  0.50768500  0.24904800  0.89438300  1
  S  S7  1  0.00768500  0.25095200  0.10561700  1
  S  S8  1  0.85719200  0.05829700  0.37353000  1
  S  S9  1  0.35719200  0.44170300  0.62647000  1
  S  S10  1  0.64280800  0.55829700  0.12647000  1
  S  S11  1  0.14280800  0.94170300  0.87353000  1
  S  S12  1  0.14280800  0.94170300  0.62647000  1
  S  S13  1  0.64280800  0.55829700  0.37353000  1
  S  S14  1  0.35719200  0.44170300  0.87353000  1
  S  S15  1  0.85719200  0.05829700  0.12647000  1
  S  S16  1  0.72796000  0.11382900  0.25000000  1
  S  S17  1  0.22796000  0.38617100  0.75000000  1
  S  S18  1  0.77204000  0.61382900  0.25000000  1
  S  S19  1  0.27204000  0.88617100  0.75000000  1
  S  S20  1  0.24700400  0.17232400  0.14046500  1
  S  S21  1  0.74700400  0.32767600  0.85953500  1
  S  S22  1  0.25299600  0.67232400  0.35953500  1
  S  S23  1  0.75299600  0.82767600  0.64046500  1
  S  S24  1  0.75299600  0.82767600  0.85953500  1
  S  S25  1  0.25299600  0.67232400  0.14046500  1
  S  S26  1  0.74700400  0.32767600  0.64046500  1
  S  S27  1  0.24700400  0.17232400  0.35953500  1
  N  N0  1  0.75637400  0.91095700  0.75000000  1
  N  N1  1  0.25637400  0.58904300  0.25000000  1
  N  N2  1  0.74362600  0.41095700  0.75000000  1
  N  N3  1  0.24362600  0.08904300  0.25000000  1
loop_
_geom_bond_atom_site_label_1
_geom_bond_atom_site_label_2
_geom_bond_distance
_geom_bond_site_symmetry_2
H0 N2 1.025851 1_555
H1 N3 1.025851 1_565
H2 N0 1.025851 1_545
H3 N1 1.025851 1_555
S0 S8 2.064183 1_455
S0 S27 2.112309 1_555
S1 S9 2.064183 1_555
S1 S26 2.112309 1_555
S2 S25 2.112309 1_555
S10 S2 2.064183 1_555
S10 S18 2.064630 1_555
S11 S3 2.064183 1_455
S11 S19 2.064630 1_555
S12 S4 2.064183 1_455
S12 S19 2.064630 1_555
S13 S5 2.064183 1_555
S13 S18 2.064630 1_555
S14 S6 2.064183 1_555
S14 S17 2.064630 1_555
S15 S7 2.064183 1_655
S15 S16 2.064630 1_555
S16 S8 2.064630 1_555
S17 S9 2.064630 1_555
S20 S7 2.112309 1_555
S21 S6 2.112309 1_555
S22 S5 2.112309 1_555
S23 S4 2.112309 1_555
S24 S3 2.112309 1_555
N0 S24 1.676692 1_555
N0 S23 1.676692 1_555
N1 S25 1.676692 1_555
N1 S22 1.676692 1_555
N2 S21 1.676692 1_555
N2 S26 1.676692 1_555
N3 S20 1.676692 1_555
N3 S27 1.676692 1_555
