# generated using pymatgen
data_SrMgCrO3
_symmetry_space_group_name_H-M   'P 1'
_cell_length_a   5.02200309
_cell_length_b   3.92867970
_cell_length_c   5.02200309
_cell_angle_alpha   83.66884971
_cell_angle_beta   75.13708805
_cell_angle_gamma   83.66884971
_symmetry_Int_Tables_number   1
_chemical_formula_structural   SrMgCrO3
_chemical_formula_sum   'Sr1 Mg1 Cr1 O3'
_cell_volume   94.83685127
_cell_formula_units_Z   1
loop_
 _symmetry_equiv_pos_site_id
 _symmetry_equiv_pos_as_xyz
  1  'x, y, z'
loop_
 _atom_site_type_symbol
 _atom_site_label
 _atom_site_symmetry_multiplicity
 _atom_site_fract_x
 _atom_site_fract_y
 _atom_site_fract_z
 _atom_site_occupancy
  Sr  Sr0  1  0.64220832  0.56067556  0.64220832  1
  Mg  Mg0  1  0.21976044  0.27125487  0.21976044  1
  Cr  Cr0  1  0.94088534  0.96308337  0.94088534  1
  O  O0  1  0.50192100  0.99855433  0.98300186  1
  O  O1  1  0.97889203  0.45787954  0.97889203  1
  O  O2  1  0.98300186  0.99855433  0.50192100  1
loop_
_geom_bond_atom_site_label_1
_geom_bond_atom_site_label_2
_geom_bond_distance
_geom_bond_site_symmetry_2
Mg0 O2 1.910819 1_445
Mg0 O0 1.910819 1_544
Mg0 O1 1.955373 1_454
Cr0 O1 1.965659 1_555
Cr0 O1 2.008468 1_565
Cr0 O0 2.150217 1_555
Cr0 O2 2.150217 1_555
O0 Sr0 2.479580 1_555
O0 Sr0 2.682062 1_565
O1 Sr0 2.654494 1_555
O2 Sr0 2.479580 1_555
O2 Sr0 2.682062 1_565
