# generated using pymatgen
data_HgPb2
_symmetry_space_group_name_H-M   'P 1'
_cell_length_a   7.18363730
_cell_length_b   7.18363730
_cell_length_c   15.76924453
_cell_angle_alpha   89.32949338
_cell_angle_beta   89.32949338
_cell_angle_gamma   60.00519641
_symmetry_Int_Tables_number   1
_chemical_formula_structural   HgPb2
_chemical_formula_sum   'Hg8 Pb16'
_cell_volume   704.71480630
_cell_formula_units_Z   8
loop_
 _symmetry_equiv_pos_site_id
 _symmetry_equiv_pos_as_xyz
  1  'x, y, z'
loop_
 _atom_site_type_symbol
 _atom_site_label
 _atom_site_symmetry_multiplicity
 _atom_site_fract_x
 _atom_site_fract_y
 _atom_site_fract_z
 _atom_site_occupancy
  Hg  Hg0_0  1  0.00000000  0.00000000  0.00000000  1
  Hg  Hg0_1  1  0.00000000  0.00000000  0.50000000  1
  Hg  Hg0_2  1  0.00000000  0.50000000  0.00000000  1
  Hg  Hg0_3  1  0.00000000  0.50000000  0.50000000  1
  Hg  Hg0_4  1  0.50000000  0.00000000  0.00000000  1
  Hg  Hg0_5  1  0.50000000  0.00000000  0.50000000  1
  Hg  Hg0_6  1  0.50000000  0.50000000  0.00000000  1
  Hg  Hg0_7  1  0.50000000  0.50000000  0.50000000  1
  Pb  Pb0_0  1  0.33062504  0.33062504  0.33658511  1
  Pb  Pb0_1  1  0.33062504  0.33062504  0.83658511  1
  Pb  Pb0_2  1  0.33062504  0.83062504  0.33658511  1
  Pb  Pb0_3  1  0.33062504  0.83062504  0.83658511  1
  Pb  Pb0_4  1  0.83062504  0.33062504  0.33658511  1
  Pb  Pb0_5  1  0.83062504  0.33062504  0.83658511  1
  Pb  Pb0_6  1  0.83062504  0.83062504  0.33658511  1
  Pb  Pb0_7  1  0.83062504  0.83062504  0.83658511  1
  Pb  Pb1_0  1  0.16937496  0.16937496  0.16341489  1
  Pb  Pb1_1  1  0.16937496  0.16937496  0.66341489  1
  Pb  Pb1_2  1  0.16937496  0.66937496  0.16341489  1
  Pb  Pb1_3  1  0.16937496  0.66937496  0.66341489  1
  Pb  Pb1_4  1  0.66937496  0.16937496  0.16341489  1
  Pb  Pb1_5  1  0.66937496  0.16937496  0.66341489  1
  Pb  Pb1_6  1  0.66937496  0.66937496  0.16341489  1
  Pb  Pb1_7  1  0.66937496  0.66937496  0.66341489  1
loop_
_geom_bond_atom_site_label_1
_geom_bond_atom_site_label_2
_geom_bond_distance
_geom_bond_site_symmetry_2
Hg0_0 Pb0_5 3.286761 1_454
Hg0_0 Pb0_3 3.286761 1_544
Hg0_0 Pb1_2 3.286761 1_545
Hg0_0 Pb1_4 3.286761 1_455
Hg0_0 Pb1_0 3.350878 1_555
Hg0_0 Pb0_7 3.350878 1_444
Hg0_1 Pb0_2 3.286761 1_545
Hg0_1 Pb0_4 3.286761 1_455
Hg0_1 Pb1_3 3.286761 1_545
Hg0_1 Pb1_5 3.286761 1_455
Hg0_1 Pb0_6 3.350878 1_445
Hg0_1 Pb1_1 3.350878 1_555
Hg0_2 Pb0_7 3.286761 1_454
Hg0_2 Pb0_1 3.286761 1_554
Hg0_2 Pb1_0 3.286761 1_555
Hg0_2 Pb1_6 3.286761 1_455
Hg0_2 Pb0_5 3.350878 1_454
Hg0_2 Pb1_2 3.350878 1_555
Hg0_3 Pb0_0 3.286761 1_555
Hg0_3 Pb0_6 3.286761 1_455
Hg0_3 Pb1_7 3.286761 1_455
Hg0_3 Pb1_1 3.286761 1_555
Hg0_3 Pb1_3 3.350878 1_555
Hg0_3 Pb0_4 3.350878 1_455
Hg0_4 Pb1_0 3.286761 1_555
Hg0_4 Pb0_7 3.286761 1_544
Hg0_4 Pb0_1 3.286761 1_554
Hg0_4 Pb1_6 3.286761 1_545
Hg0_4 Pb0_3 3.350878 1_544
Hg0_4 Pb1_4 3.350878 1_555
Hg0_5 Pb0_0 3.286761 1_555
Hg0_5 Pb0_6 3.286761 1_545
Hg0_5 Pb1_7 3.286761 1_545
Hg0_5 Pb1_1 3.286761 1_555
Hg0_5 Pb0_2 3.350878 1_545
Hg0_5 Pb1_5 3.350878 1_555
Hg0_6 Pb0_5 3.286761 1_554
Hg0_6 Pb0_3 3.286761 1_554
Hg0_6 Pb1_2 3.286761 1_555
Hg0_6 Pb1_4 3.286761 1_555
Hg0_6 Pb1_6 3.350878 1_555
Hg0_6 Pb0_1 3.350878 1_554
Hg0_7 Pb0_4 3.286761 1_555
Hg0_7 Pb1_3 3.286761 1_555
Hg0_7 Pb0_2 3.286761 1_555
Hg0_7 Pb1_5 3.286761 1_555
Hg0_7 Pb0_0 3.350878 1_555
Hg0_7 Pb1_7 3.350878 1_555
Pb0_0 Pb1_0 3.410328 1_555
Pb0_0 Pb1_4 3.438126 1_555
Pb0_0 Pb1_2 3.438126 1_555
Pb0_0 Pb0_2 3.591819 1_555
Pb0_0 Pb0_4 3.591819 1_555
Pb0_0 Pb0_2 3.591819 1_545
Pb0_0 Pb0_4 3.591819 1_455
Pb0_0 Pb0_6 3.592101 1_455
Pb0_0 Pb0_6 3.592101 1_545
Pb0_1 Pb1_1 3.410328 1_555
Pb0_1 Pb1_5 3.438126 1_555
Pb0_1 Pb1_3 3.438126 1_555
Pb0_1 Pb0_3 3.591819 1_545
Pb0_1 Pb0_5 3.591819 1_455
Pb0_1 Pb0_5 3.591819 1_555
Pb0_1 Pb0_3 3.591819 1_555
Pb0_1 Pb0_7 3.592101 1_545
Pb0_1 Pb0_7 3.592101 1_455
Pb0_2 Pb1_2 3.410328 1_555
Pb0_2 Pb1_0 3.438126 1_565
Pb0_2 Pb1_6 3.438126 1_555
Pb0_2 Pb0_6 3.591819 1_555
Pb0_2 Pb0_6 3.591819 1_455
Pb0_2 Pb0_4 3.592101 1_555
Pb0_2 Pb0_4 3.592101 1_465
Pb0_3 Pb1_3 3.410328 1_555
Pb0_3 Pb1_1 3.438126 1_565
Pb0_3 Pb1_7 3.438126 1_555
Pb0_3 Pb0_7 3.591819 1_555
Pb0_3 Pb0_7 3.591819 1_455
Pb0_3 Pb0_5 3.592101 1_555
Pb0_3 Pb0_5 3.592101 1_465
Pb0_4 Pb1_4 3.410328 1_555
Pb0_4 Pb1_6 3.438126 1_555
Pb0_4 Pb1_0 3.438126 1_655
Pb0_4 Pb0_6 3.591819 1_555
Pb0_4 Pb0_6 3.591819 1_545
Pb0_5 Pb1_5 3.410328 1_555
Pb0_5 Pb1_1 3.438126 1_655
Pb0_5 Pb1_7 3.438126 1_555
Pb0_5 Pb0_7 3.591819 1_555
Pb0_5 Pb0_7 3.591819 1_545
Pb0_6 Pb1_6 3.410328 1_555
Pb0_6 Pb1_4 3.438126 1_565
Pb0_6 Pb1_2 3.438126 1_655
Pb0_7 Pb1_7 3.410328 1_555
Pb0_7 Pb1_5 3.438126 1_565
Pb0_7 Pb1_3 3.438126 1_655
Pb1_0 Pb1_4 3.591819 1_455
Pb1_0 Pb1_2 3.591819 1_545
Pb1_0 Pb1_2 3.591819 1_555
Pb1_0 Pb1_4 3.591819 1_555
Pb1_0 Pb1_6 3.592101 1_545
Pb1_0 Pb1_6 3.592101 1_455
Pb1_1 Pb1_3 3.591819 1_545
Pb1_1 Pb1_5 3.591819 1_555
Pb1_1 Pb1_5 3.591819 1_455
Pb1_1 Pb1_3 3.591819 1_555
Pb1_1 Pb1_7 3.592101 1_545
Pb1_1 Pb1_7 3.592101 1_455
Pb1_2 Pb1_6 3.591819 1_555
Pb1_2 Pb1_6 3.591819 1_455
Pb1_2 Pb1_4 3.592101 1_555
Pb1_2 Pb1_4 3.592101 1_465
Pb1_3 Pb1_7 3.591819 1_455
Pb1_3 Pb1_7 3.591819 1_555
Pb1_3 Pb1_5 3.592101 1_555
Pb1_3 Pb1_5 3.592101 1_465
Pb1_4 Pb1_6 3.591819 1_555
Pb1_4 Pb1_6 3.591819 1_545
Pb1_5 Pb1_7 3.591819 1_545
Pb1_5 Pb1_7 3.591819 1_555
