# generated using pymatgen
data_MgTe4Mo2W2(SeS)2
_symmetry_space_group_name_H-M   'P 1'
_cell_length_a   3.40179300
_cell_length_b   3.40178680
_cell_length_c   45.57905341
_cell_angle_alpha   90.01050918
_cell_angle_beta   90.00510969
_cell_angle_gamma   119.99994137
_symmetry_Int_Tables_number   1
_chemical_formula_structural   MgTe4Mo2W2(SeS)2
_chemical_formula_sum   'Mg1 Te4 Mo2 W2 Se2 S2'
_cell_volume   456.78427862
_cell_formula_units_Z   1
loop_
 _symmetry_equiv_pos_site_id
 _symmetry_equiv_pos_as_xyz
  1  'x, y, z'
loop_
 _atom_site_type_symbol
 _atom_site_label
 _atom_site_symmetry_multiplicity
 _atom_site_fract_x
 _atom_site_fract_y
 _atom_site_fract_z
 _atom_site_occupancy
  Mg  Mg0  1  0.00008700  0.00008800  0.19999200  1
  Te  Te0  1  0.33346900  0.66683400  0.69876800  1
  Te  Te1  1  0.66631500  0.33282400  0.04582300  1
  Te  Te2  1  0.66659100  0.33318700  0.12861900  1
  Te  Te3  1  0.33325200  0.66656900  0.61624100  1
  Mo  Mo0  1  0.33342800  0.66681000  0.46956500  1
  Mo  Mo1  1  0.66672800  0.33344800  0.28882200  1
  W  W0  1  0.33312200  0.66634200  0.08706300  1
  W  W1  1  0.66669400  0.33337100  0.65751000  1
  Se  Se0  1  0.66666100  0.33334500  0.43339800  1
  Se  Se1  1  0.66686500  0.33362000  0.50570200  1
  S  S0  1  0.33349400  0.66691700  0.32145400  1
  S  S1  1  0.33329500  0.66664400  0.25544400  1
loop_
_geom_bond_atom_site_label_1
_geom_bond_atom_site_label_2
_geom_bond_distance
_geom_bond_site_symmetry_2
Te0 W1 2.719080 1_455
Te0 W1 2.719102 1_555
Te0 W1 2.719212 1_565
Te1 W0 2.718528 1_545
Te1 W0 2.718581 1_655
Te1 W0 2.718584 1_555
Te2 W0 2.728525 1_555
Te2 W0 2.728541 1_655
Te2 W0 2.728561 1_545
Te3 W1 2.719408 1_565
Te3 W1 2.719495 1_555
Te3 W1 2.719532 1_455
Mo0 Se1 2.563238 1_555
Mo0 Se1 2.563250 1_565
Mo0 Se1 2.563291 1_455
Mo0 Se0 2.564103 1_455
Mo0 Se0 2.564140 1_555
Mo0 Se0 2.564173 1_565
Mo1 S0 2.463635 1_655
Mo1 S0 2.463640 1_545
Mo1 S0 2.463668 1_555
Mo1 S1 2.484300 1_555
Mo1 S1 2.484325 1_545
Mo1 S1 2.484344 1_655
