# generated using pymatgen
data_U2Al3C4
_symmetry_space_group_name_H-M   'P 1'
_cell_length_a   3.41041126
_cell_length_b   3.41041156
_cell_length_c   23.58463860
_cell_angle_alpha   90.00000000
_cell_angle_beta   90.00000000
_cell_angle_gamma   119.99999705
_symmetry_Int_Tables_number   1
_chemical_formula_structural   U2Al3C4
_chemical_formula_sum   'U4 Al6 C8'
_cell_volume   237.56005445
_cell_formula_units_Z   2
loop_
 _symmetry_equiv_pos_site_id
 _symmetry_equiv_pos_as_xyz
  1  'x, y, z'
loop_
 _atom_site_type_symbol
 _atom_site_label
 _atom_site_symmetry_multiplicity
 _atom_site_fract_x
 _atom_site_fract_y
 _atom_site_fract_z
 _atom_site_occupancy
  U  U0  1  0.66666700  0.33333300  0.43536115  1
  U  U1  1  0.33333300  0.66666700  0.93536115  1
  U  U2  1  0.66666700  0.33333300  0.06151905  1
  U  U3  1  0.33333300  0.66666700  0.56151905  1
  Al  Al0  1  -0.00000000  0.00000000  0.33315543  1
  Al  Al1  1  0.00000000  -0.00000000  0.83315543  1
  Al  Al2  1  0.66666700  0.33333300  0.74720035  1
  Al  Al3  1  0.33333300  0.66666700  0.24720035  1
  Al  Al4  1  0.00000000  -0.00000000  0.16339944  1
  Al  Al5  1  -0.00000000  0.00000000  0.66339944  1
  C  C0  1  0.00000000  -0.00000000  0.74836725  1
  C  C1  1  -0.00000000  0.00000000  0.24836725  1
  C  C2  1  -0.00000000  -0.00000000  0.49840788  1
  C  C3  1  -0.00000000  -0.00000000  0.99840788  1
  C  C4  1  0.66666700  0.33333300  0.63500468  1
  C  C5  1  0.33333300  0.66666700  0.13500468  1
  C  C6  1  0.33333300  0.66666700  0.36297276  1
  C  C7  1  0.66666700  0.33333300  0.86297276  1
loop_
_geom_bond_atom_site_label_1
_geom_bond_atom_site_label_2
_geom_bond_distance
_geom_bond_site_symmetry_2
Al0 C1 1.999699 1_555
Al0 C6 2.090812 1_545
Al0 C6 2.090815 1_445
Al0 C6 2.090815 1_555
Al1 C0 1.999699 1_555
Al1 C7 2.090812 1_455
Al1 C7 2.090815 1_555
Al1 C7 2.090815 1_445
Al2 C0 1.969192 1_655
Al2 C0 1.969195 1_555
Al2 C0 1.969195 1_665
Al3 C1 1.969192 1_565
Al3 C1 1.969195 1_665
Al3 C1 1.969195 1_555
Al4 C1 2.003935 1_555
Al4 C5 2.079767 1_545
Al4 C5 2.079770 1_445
Al4 C5 2.079770 1_555
Al5 C0 2.003935 1_555
Al5 C4 2.079767 1_455
Al5 C4 2.079770 1_555
Al5 C4 2.079770 1_445
C2 U0 2.467374 1_455
C2 U0 2.467376 1_555
C2 U0 2.467377 1_445
C2 U3 2.468290 1_545
C2 U3 2.468293 1_445
C2 U3 2.468293 1_555
C3 U1 2.467374 1_545
C3 U1 2.467376 1_445
C3 U1 2.467377 1_555
C3 U2 2.468290 1_456
C3 U2 2.468293 1_556
C3 U2 2.468293 1_446
C4 U3 2.623110 1_655
C4 U3 2.623110 1_545
C4 U3 2.623115 1_555
C5 U2 2.623110 1_455
C5 U2 2.623110 1_565
C5 U2 2.623115 1_555
C6 U0 2.606085 1_455
C6 U0 2.606085 1_565
C6 U0 2.606089 1_555
C7 U1 2.606085 1_655
C7 U1 2.606085 1_545
C7 U1 2.606089 1_555
