# generated using pymatgen
data_Na10Sc4Zn4Si3(S3O16)3
_symmetry_space_group_name_H-M   'P 1'
_cell_length_a   18.08793003
_cell_length_b   8.97959355
_cell_length_c   22.70288013
_cell_angle_alpha   89.99748618
_cell_angle_beta   89.58847481
_cell_angle_gamma   119.91825643
_symmetry_Int_Tables_number   1
_chemical_formula_structural   Na10Sc4Zn4Si3(S3O16)3
_chemical_formula_sum   'Na30 Sc12 Zn12 Si9 S27 O144'
_cell_volume   3195.94482815
_cell_formula_units_Z   3
loop_
 _symmetry_equiv_pos_site_id
 _symmetry_equiv_pos_as_xyz
  1  'x, y, z'
loop_
 _atom_site_type_symbol
 _atom_site_label
 _atom_site_symmetry_multiplicity
 _atom_site_fract_x
 _atom_site_fract_y
 _atom_site_fract_z
 _atom_site_occupancy
  Na  Na0  1  0.18989170  0.37047190  0.24506683  1
  Na  Na1  1  0.69056395  0.37463778  0.24523604  1
  Na  Na2  1  0.99138683  0.63598047  0.25310547  1
  Na  Na3  1  0.49308872  0.63199046  0.25673017  1
  Na  Na4  1  0.32212097  0.64711458  0.74648841  1
  Na  Na5  1  0.81982416  0.64292698  0.74582999  1
  Na  Na6  1  0.99248234  0.35018858  0.75137557  1
  Na  Na7  1  0.19107211  0.00952285  0.74254966  1
  Na  Na8  1  0.69051038  0.00964389  0.74358842  1
  Na  Na9  1  0.52319149  0.70556562  0.57565035  1
  Na  Na10  1  0.32634110  0.96868059  0.58696041  1
  Na  Na11  1  0.82634659  0.96503286  0.58644724  1
  Na  Na12  1  0.15327430  0.97733341  0.08055483  1
  Na  Na13  1  0.65328468  0.97689666  0.08039666  1
  Na  Na14  1  0.32807681  0.68757808  0.08829617  1
  Na  Na15  1  0.82779048  0.68778104  0.08875097  1
  Na  Na16  1  0.65955399  0.01660759  0.42139035  1
  Na  Na17  1  0.35714480  0.67280097  0.41115728  1
  Na  Na18  1  0.01076240  0.00043902  0.49775609  1
  Na  Na19  1  0.50896501  0.01041125  0.49644343  1
  Na  Na20  1  0.00536400  0.02044398  0.99695660  1
  Na  Na21  1  0.50559261  0.02095132  0.99638143  1
  Na  Na22  1  0.34237089  0.32373083  0.83134275  1
  Na  Na23  1  0.83425328  0.32145657  0.83373547  1
  Na  Na24  1  0.33917825  0.33549020  0.33311238  1
  Na  Na25  1  0.83883794  0.34656861  0.33109475  1
  Na  Na26  1  0.17112708  0.65796707  0.16379575  1
  Na  Na27  1  0.67219231  0.65832112  0.16530508  1
  Na  Na28  1  0.16686152  0.67746274  0.65861801  1
  Na  Na29  1  0.66676713  0.66588999  0.66142436  1
  Sc  Sc0  1  0.00144598  0.99806184  0.64571365  1
  Sc  Sc1  1  0.50107952  0.00526080  0.64932148  1
  Sc  Sc2  1  0.99673429  0.00509878  0.14995696  1
  Sc  Sc3  1  0.49709190  0.00574885  0.14946694  1
  Sc  Sc4  1  0.32694331  0.32828977  0.98200842  1
  Sc  Sc5  1  0.82649267  0.32773180  0.98214494  1
  Sc  Sc6  1  0.32846761  0.32494126  0.48090042  1
  Sc  Sc7  1  0.82975559  0.33230116  0.48420302  1
  Sc  Sc8  1  0.17297994  0.67286830  0.31522508  1
  Sc  Sc9  1  0.66904169  0.66961294  0.31797649  1
  Sc  Sc10  1  0.17365562  0.67795676  0.81786604  1
  Sc  Sc11  1  0.66750553  0.66939960  0.81674963  1
  Zn  Zn0  1  0.99173023  0.98139073  0.34911357  1
  Zn  Zn1  1  0.49475137  0.97919328  0.34985274  1
  Zn  Zn2  1  0.99343525  0.00589098  0.85039539  1
  Zn  Zn3  1  0.49509636  0.00984481  0.84957816  1
  Zn  Zn4  1  0.33314191  0.29993926  0.67998677  1
  Zn  Zn5  1  0.83090176  0.30904731  0.67820702  1
  Zn  Zn6  1  0.32985309  0.34889476  0.18160134  1
  Zn  Zn7  1  0.82947950  0.34994504  0.18159453  1
  Zn  Zn8  1  0.16230479  0.64043458  0.01555682  1
  Zn  Zn9  1  0.66219891  0.64044657  0.01541643  1
  Zn  Zn10  1  0.15939198  0.67758723  0.51749451  1
  Zn  Zn11  1  0.66310753  0.67828058  0.51338519  1
  Si  Si0  1  0.35205290  0.70311055  0.24986492  1
  Si  Si1  1  0.85202238  0.70439951  0.24990578  1
  Si  Si2  1  0.35516826  0.00667344  0.75095917  1
  Si  Si3  1  0.85377406  0.00269272  0.74995831  1
  Si  Si4  1  0.18337826  0.03347613  0.58373036  1
  Si  Si5  1  0.68327174  0.03313038  0.58388982  1
  Si  Si6  1  0.18306711  0.33361703  0.08445655  1
  Si  Si7  1  0.68287745  0.33391065  0.08432068  1
  Si  Si8  1  0.51722827  0.66510708  0.41663445  1
  S  S0  1  0.14652171  0.00001103  0.25088856  1
  S  S1  1  0.64817356  0.00089013  0.25003227  1
  S  S2  1  0.99872726  0.29272639  0.25238737  1
  S  S3  1  0.49865892  0.29078162  0.25198599  1
  S  S4  1  0.14573638  0.29274781  0.75201140  1
  S  S5  1  0.64653007  0.29419582  0.75219849  1
  S  S6  1  0.00008298  0.70777437  0.75195925  1
  S  S7  1  0.49952920  0.70601056  0.75125495  1
  S  S8  1  0.48104470  0.33533655  0.58324554  1
  S  S9  1  0.98192548  0.33784151  0.58372569  1
  S  S10  1  0.33224160  0.62374628  0.58493204  1
  S  S11  1  0.83238630  0.62502948  0.58495903  1
  S  S12  1  0.48144611  0.62558144  0.08348551  1
  S  S13  1  0.98157466  0.62564456  0.08336004  1
  S  S14  1  0.33358361  0.04474775  0.08369049  1
  S  S15  1  0.83372259  0.04505681  0.08368538  1
  S  S16  1  0.31680697  0.66957003  0.91766881  1
  S  S17  1  0.81596681  0.66940228  0.91700308  1
  S  S18  1  0.01883837  0.37086865  0.91589950  1
  S  S19  1  0.51902999  0.37095752  0.91703558  1
  S  S20  1  0.16425002  0.96020444  0.91797767  1
  S  S21  1  0.66429166  0.95908139  0.91762458  1
  S  S22  1  0.31331382  0.95970815  0.41807804  1
  S  S23  1  0.81783740  0.96473773  0.41826626  1
  S  S24  1  0.16263641  0.37078823  0.41754612  1
  S  S25  1  0.66717076  0.37419853  0.41757275  1
  S  S26  1  0.01930204  0.66781654  0.41593504  1
  O  O0  1  0.10752455  0.03376852  0.30224556  1
  O  O1  1  0.60997679  0.03269010  0.30304072  1
  O  O2  1  0.40910526  0.78512215  0.30793233  1
  O  O3  1  0.91674148  0.79021980  0.30397761  1
  O  O4  1  0.48947812  0.18970098  0.30455901  1
  O  O5  1  0.98942249  0.19261898  0.30486469  1
  O  O6  1  0.10870329  0.18230191  0.80411951  1
  O  O7  1  0.60884696  0.18378858  0.80412106  1
  O  O8  1  0.48809346  0.78873148  0.80339536  1
  O  O9  1  0.98786618  0.78677326  0.80482139  1
  O  O10  1  0.41001956  0.02193031  0.80738734  1
  O  O11  1  0.91607295  0.04049128  0.80501611  1
  O  O12  1  0.39374934  0.96385660  0.69076324  1
  O  O13  1  0.89357126  0.96167383  0.69064160  1
  O  O14  1  0.09216004  0.21396107  0.69923905  1
  O  O15  1  0.59523902  0.21484451  0.69866678  1
  O  O16  1  0.01758437  0.81808433  0.69906279  1
  O  O17  1  0.51688939  0.81560887  0.69704123  1
  O  O18  1  0.39574222  0.81704737  0.18969462  1
  O  O19  1  0.89574626  0.81633289  0.18859572  1
  O  O20  1  0.01694688  0.21752280  0.19892356  1
  O  O21  1  0.51462393  0.21284821  0.19834873  1
  O  O22  1  0.09412015  0.97200065  0.19639848  1
  O  O23  1  0.59389656  0.97490538  0.19693703  1
  O  O24  1  0.44421171  0.37095607  0.63641650  1
  O  O25  1  0.94645481  0.36679459  0.63929101  1
  O  O26  1  0.23869634  0.10763501  0.64419668  1
  O  O27  1  0.73993707  0.11289235  0.64282433  1
  O  O28  1  0.32401535  0.52597394  0.63925994  1
  O  O29  1  0.82410090  0.52865055  0.64020884  1
  O  O30  1  0.44589843  0.52535051  0.13802278  1
  O  O31  1  0.94617034  0.52556545  0.13796923  1
  O  O32  1  0.32270215  0.12577004  0.13664718  1
  O  O33  1  0.82293119  0.12624374  0.13659260  1
  O  O34  1  0.23999188  0.36850589  0.14346664  1
  O  O35  1  0.73983132  0.36826642  0.14313053  1
  O  O36  1  0.23322183  0.30040339  0.02876647  1
  O  O37  1  0.73274386  0.29986873  0.02852900  1
  O  O38  1  0.42592465  0.54020953  0.03210253  1
  O  O39  1  0.92597292  0.53974958  0.03200755  1
  O  O40  1  0.34716709  0.15008948  0.02998783  1
  O  O41  1  0.84723703  0.15052582  0.02992451  1
  O  O42  1  0.23424070  0.15840593  0.52761432  1
  O  O43  1  0.73137426  0.15239419  0.52501261  1
  O  O44  1  0.34733022  0.54494384  0.53184558  1
  O  O45  1  0.84548979  0.54028373  0.53305363  1
  O  O46  1  0.42663921  0.30741881  0.53125332  1
  O  O47  1  0.92485266  0.31164075  0.53311362  1
  O  O48  1  0.27473296  0.69235374  0.97030899  1
  O  O49  1  0.77492167  0.69244975  0.97009441  1
  O  O50  1  0.07098741  0.45768939  0.96788804  1
  O  O51  1  0.56959834  0.45366577  0.97014326  1
  O  O52  1  0.15484567  0.85709219  0.97141668  1
  O  O53  1  0.65521437  0.85718565  0.97135372  1
  O  O54  1  0.27439122  0.85153901  0.47113159  1
  O  O55  1  0.77971519  0.86382821  0.47265809  1
  O  O56  1  0.15344258  0.45798202  0.46948510  1
  O  O57  1  0.65860630  0.45889294  0.46977629  1
  O  O58  1  0.07133298  0.68551295  0.46771612  1
  O  O59  1  0.57554586  0.70120922  0.47494631  1
  O  O60  1  0.05921826  0.64477736  0.36100631  1
  O  O61  1  0.56471557  0.64487316  0.35702622  1
  O  O62  1  0.25957197  0.87404564  0.36541399  1
  O  O63  1  0.76117800  0.88018419  0.36669553  1
  O  O64  1  0.17702112  0.47890078  0.36273510  1
  O  O65  1  0.68009160  0.47630554  0.36255714  1
  O  O66  1  0.05949541  0.47369136  0.86113312  1
  O  O67  1  0.56177225  0.47842457  0.86389752  1
  O  O68  1  0.17557044  0.87568771  0.86406330  1
  O  O69  1  0.67573853  0.87443126  0.86390569  1
  O  O70  1  0.26341961  0.64401088  0.86384747  1
  O  O71  1  0.76285463  0.64476452  0.86337869  1
  O  O72  1  0.01224240  0.82500004  0.41230276  1
  O  O73  1  0.51074254  0.84386857  0.41365355  1
  O  O74  1  0.39909285  0.97892597  0.41170229  1
  O  O75  1  0.90378054  0.98927205  0.41106416  1
  O  O76  1  0.08818564  0.19867015  0.41038093  1
  O  O77  1  0.59179508  0.19970451  0.41160409  1
  O  O78  1  0.01205056  0.19962590  0.91273730  1
  O  O79  1  0.51213204  0.19999901  0.91273936  1
  O  O80  1  0.08869390  0.97998601  0.91130430  1
  O  O81  1  0.58900890  0.97965141  0.91107690  1
  O  O82  1  0.40258150  0.82005631  0.91223025  1
  O  O83  1  0.90212302  0.82049642  0.91149431  1
  O  O84  1  0.48398079  0.17204312  0.58959403  1
  O  O85  1  0.98344498  0.17238963  0.58827761  1
  O  O86  1  0.08843719  0.01551182  0.58924812  1
  O  O87  1  0.58628878  0.00695439  0.58877685  1
  O  O88  1  0.41169720  0.80042420  0.58790602  1
  O  O89  1  0.90957040  0.80177790  0.58697459  1
  O  O90  1  0.48655613  0.79877030  0.08767511  1
  O  O91  1  0.98682169  0.79883426  0.08740188  1
  O  O92  1  0.40861415  0.01677486  0.08699998  1
  O  O93  1  0.90894433  0.01765892  0.08690467  1
  O  O94  1  0.09055414  0.15331890  0.08856244  1
  O  O95  1  0.59041226  0.15328721  0.08848081  1
  O  O96  1  0.33785888  0.16845105  0.74834788  1
  O  O97  1  0.84271313  0.17471939  0.74638110  1
  O  O98  1  0.23442349  0.32683621  0.74478988  1
  O  O99  1  0.73507538  0.32326199  0.74571062  1
  O  O100  1  0.42138503  0.53764462  0.74331609  1
  O  O101  1  0.92238707  0.53624487  0.74421279  1
  O  O102  1  0.34306727  0.51018891  0.24699032  1
  O  O103  1  0.84339726  0.51066693  0.24685184  1
  O  O104  1  0.42384428  0.31359080  0.24414593  1
  O  O105  1  0.92362770  0.31430847  0.24391376  1
  O  O106  1  0.23373422  0.14705753  0.24389694  1
  O  O107  1  0.73446253  0.15029668  0.24339687  1
  O  O108  1  0.32281762  0.50951854  0.92202778  1
  O  O109  1  0.82278614  0.50989273  0.92145238  1
  O  O110  1  0.43307507  0.35510396  0.92174589  1
  O  O111  1  0.93290439  0.35490132  0.92121154  1
  O  O112  1  0.24457198  0.13146800  0.92073784  1
  O  O113  1  0.74482743  0.13109701  0.92028507  1
  O  O114  1  0.32011893  0.13073659  0.42157675  1
  O  O115  1  0.82164799  0.13678839  0.42203816  1
  O  O116  1  0.24394644  0.36318887  0.42113801  1
  O  O117  1  0.74526136  0.35230070  0.42083350  1
  O  O118  1  0.41949558  0.49968305  0.42174245  1
  O  O119  1  0.93296365  0.51078246  0.42165685  1
  O  O120  1  0.18009228  0.51219560  0.07718879  1
  O  O121  1  0.68011852  0.51249567  0.07707342  1
  O  O122  1  0.07016554  0.65921195  0.07575158  1
  O  O123  1  0.57007825  0.65959129  0.07585799  1
  O  O124  1  0.25489475  0.87240503  0.07756985  1
  O  O125  1  0.75510956  0.87278732  0.07746535  1
  O  O126  1  0.17986716  0.84677611  0.57771511  1
  O  O127  1  0.67649185  0.84257302  0.57987911  1
  O  O128  1  0.25746773  0.64679535  0.57836752  1
  O  O129  1  0.75630097  0.64399729  0.57834486  1
  O  O130  1  0.06831585  0.48310311  0.57604879  1
  O  O131  1  0.56791256  0.48318876  0.57702480  1
  O  O132  1  0.14873344  0.83544927  0.25710770  1
  O  O133  1  0.65155903  0.83837184  0.25482996  1
  O  O134  1  0.25356268  0.67432120  0.25571091  1
  O  O135  1  0.75425128  0.67519962  0.25584123  1
  O  O136  1  0.07695484  0.47121418  0.25636701  1
  O  O137  1  0.57792921  0.46712827  0.25468015  1
  O  O138  1  0.15020645  0.46495241  0.75828183  1
  O  O139  1  0.65499886  0.46865434  0.75783256  1
  O  O140  1  0.07631327  0.68244993  0.75718528  1
  O  O141  1  0.57778483  0.68862302  0.75665360  1
  O  O142  1  0.25624043  0.82598744  0.75720464  1
  O  O143  1  0.75625978  0.82767493  0.75819505  1
loop_
_geom_bond_atom_site_label_1
_geom_bond_atom_site_label_2
_geom_bond_distance
_geom_bond_site_symmetry_2
Na0 O134 2.387194 1_555
Na0 O102 2.405539 1_555
Na0 O34 2.475468 1_555
Na0 O106 2.498201 1_555
Na0 O136 2.625463 1_555
Na0 O64 2.890677 1_555
Na0 O0 2.919690 1_555
Na0 O20 2.920772 1_555
Na1 O135 2.360474 1_555
Na1 O103 2.401786 1_555
Na1 O35 2.488402 1_555
Na1 O107 2.507103 1_555
Na1 O137 2.562825 1_555
Na1 O65 2.851171 1_555
Na1 O1 2.963560 1_555
Na1 O21 2.967861 1_555
Na2 O103 2.335070 1_555
Na2 O132 2.497038 1_655
Na2 O105 2.522166 1_555
Na2 O136 2.622204 1_655
Na2 O3 2.630257 1_555
Na2 O60 2.731107 1_655
Na2 O31 2.776074 1_555
Na2 O22 2.930353 1_655
Na3 O102 2.378382 1_555
Na3 O104 2.501575 1_555
Na3 O133 2.520280 1_555
Na3 O61 2.601842 1_555
Na3 O137 2.610338 1_555
Na3 O2 2.758282 1_555
Na3 O30 2.850702 1_555
Na4 O100 2.440073 1_555
Na4 O142 2.442183 1_555
Na4 O98 2.497807 1_555
Na4 O28 2.673381 1_555
Na4 O138 2.707568 1_555
Na4 O12 2.769287 1_555
Na4 O70 2.856041 1_555
Na4 O8 2.923440 1_555
Na5 O143 2.459869 1_555
Na5 O101 2.476372 1_555
Na5 O99 2.490011 1_555
Na5 O139 2.597290 1_555
Na5 O29 2.624054 1_555
Na5 O13 2.776440 1_555
Na5 O71 2.856836 1_555
Na5 O9 2.973732 1_555
Na6 O97 2.362374 1_555
Na6 O138 2.509847 1_655
Na6 O101 2.557575 1_555
Na6 O140 2.590051 1_655
Na6 O11 2.695999 1_555
Na6 O25 2.710130 1_555
Na6 O66 2.758799 1_655
Na6 O14 2.884027 1_655
Na7 O96 2.308396 1_555
Na7 O26 2.391485 1_555
Na7 O142 2.481891 1_545
Na7 O98 2.551089 1_555
Na7 O140 2.636976 1_545
Na7 O16 2.905281 1_545
Na7 O68 2.964093 1_545
Na7 O6 2.976042 1_555
Na8 O97 2.390023 1_555
Na8 O27 2.456773 1_555
Na8 O143 2.477580 1_545
Na8 O99 2.513758 1_555
Na8 O141 2.585176 1_545
Na8 O17 2.933345 1_545
Na8 O69 2.944917 1_545
Na8 O7 2.964957 1_555
Na9 O87 2.374771 1_565
Na9 O127 2.410923 1_555
Na9 O59 2.476127 1_555
Na9 O131 2.500876 1_555
Na9 O88 2.564288 1_555
Na9 O44 2.942243 1_555
Na9 O24 2.943052 1_555
Na9 O17 2.948325 1_555
Na10 O126 2.318769 1_555
Na10 O84 2.505395 1_565
Na10 O128 2.521125 1_555
Na10 O88 2.644663 1_555
Na10 O12 2.671354 1_555
Na10 O26 2.775313 1_565
Na10 O54 2.820326 1_555
Na10 O46 2.933424 1_565
Na11 O127 2.368784 1_555
Na11 O85 2.503419 1_565
Na11 O129 2.511861 1_555
Na11 O89 2.572323 1_555
Na11 O13 2.674510 1_555
Na11 O55 2.734564 1_555
Na11 O27 2.808091 1_565
Na11 O47 2.960513 1_565
Na12 O94 2.367021 1_565
Na12 O124 2.448838 1_555
Na12 O122 2.480048 1_555
Na12 O91 2.614853 1_455
Na12 O52 2.708446 1_554
Na12 O36 2.771291 1_565
Na12 O22 2.823547 1_555
Na12 O32 2.961687 1_565
Na13 O95 2.372683 1_565
Na13 O125 2.446720 1_555
Na13 O123 2.473601 1_555
Na13 O90 2.619468 1_555
Na13 O53 2.705866 1_554
Na13 O37 2.771400 1_565
Na13 O23 2.845087 1_555
Na13 O33 2.965400 1_565
Na14 O120 2.348052 1_555
Na14 O90 2.521636 1_555
Na14 O92 2.562231 1_565
Na14 O124 2.600406 1_555
Na14 O18 2.601976 1_555
Na14 O34 2.780957 1_555
Na14 O48 2.861186 1_554
Na14 O38 2.969029 1_555
Na15 O121 2.344941 1_555
Na15 O91 2.531241 1_555
Na15 O93 2.567610 1_565
Na15 O19 2.570306 1_555
Na15 O125 2.595612 1_555
Na15 O35 2.775834 1_555
Na15 O49 2.872287 1_554
Na15 O39 2.983704 1_555
Na16 O73 2.350325 1_545
Na16 O77 2.503731 1_555
Na16 O115 2.570116 1_555
Na16 O117 2.613079 1_555
Na16 O43 2.678204 1_555
Na16 O59 2.736540 1_545
Na16 O1 2.864976 1_555
Na16 O63 2.938542 1_545
Na17 O118 2.344985 1_555
Na17 O73 2.413857 1_555
Na17 O74 2.460033 1_555
Na17 O116 2.507589 1_555
Na17 O2 2.532819 1_555
Na18 O86 2.481736 1_555
Na18 O72 2.507557 1_545
Na18 O76 2.556911 1_555
Na18 O89 2.706388 1_445
Na18 O75 2.736676 1_445
Na18 O85 2.756521 1_455
Na19 O73 2.411977 1_545
Na19 O77 2.502334 1_555
Na19 O87 2.537073 1_555
Na19 O74 2.687989 1_545
Na19 O84 2.724683 1_555
Na19 O88 2.756898 1_545
Na20 O78 2.462023 1_555
Na20 O94 2.517044 1_556
Na20 O80 2.586370 1_545
Na20 O93 2.667901 1_456
Na20 O83 2.680149 1_445
Na20 O91 2.759121 1_446
Na21 O79 2.451860 1_555
Na21 O95 2.523001 1_556
Na21 O81 2.584764 1_545
Na21 O82 2.659776 1_545
Na21 O92 2.682058 1_556
Na21 O90 2.774684 1_546
Na22 O96 2.321657 1_555
Na22 O110 2.563368 1_555
Na22 O100 2.635580 1_555
Na22 O112 2.670299 1_555
Na22 O108 2.779467 1_555
Na22 O98 2.789956 1_555
Na23 O97 2.426861 1_555
Na23 O113 2.568107 1_555
Na23 O111 2.595126 1_555
Na23 O109 2.686335 1_555
Na23 O101 2.697787 1_555
Na23 O99 2.700482 1_555
Na24 O102 2.485236 1_555
Na24 O118 2.497747 1_555
Na24 O104 2.592207 1_555
Na24 O114 2.624961 1_555
Na24 O116 2.720431 1_555
Na24 O106 2.727583 1_555
Na25 O103 2.390031 1_555
Na25 O105 2.598684 1_555
Na25 O119 2.616575 1_555
Na25 O117 2.656248 1_555
Na25 O115 2.704482 1_555
Na25 O107 2.714722 1_555
Na26 O120 2.411044 1_555
Na26 O134 2.534894 1_555
Na26 O124 2.623429 1_555
Na26 O136 2.688755 1_555
Na26 O122 2.720901 1_555
Na26 O132 2.797097 1_555
Na27 O121 2.435377 1_555
Na27 O135 2.504056 1_555
Na27 O137 2.646082 1_555
Na27 O125 2.647748 1_555
Na27 O133 2.734140 1_555
Na27 O123 2.758680 1_555
Na28 O126 2.318878 1_555
Na28 O128 2.547252 1_555
Na28 O130 2.585006 1_555
Na28 O142 2.702470 1_555
Na28 O140 2.777156 1_555
Na28 O138 2.875445 1_555
Na29 O127 2.385811 1_555
Na29 O129 2.548067 1_555
Na29 O131 2.585241 1_555
Na29 O143 2.695006 1_555
Na29 O141 2.753929 1_555
Na29 O139 2.754921 1_555
O0 S0 1.466423 1_555
O0 Zn0 2.173825 1_445
O1 S1 1.480556 1_555
O1 Zn1 2.161827 1_545
O2 Si0 1.614533 1_555
O2 Zn1 1.915959 1_555
O3 Si1 1.609986 1_555
O3 Zn0 1.879928 1_555
O4 S3 1.456954 1_555
O4 Zn1 2.195614 1_545
O5 S2 1.449793 1_555
O5 Zn0 2.165172 1_545
O6 S4 1.468881 1_555
O6 Zn2 2.152661 1_455
O7 S5 1.466735 1_555
O7 Zn3 2.121709 1_555
O8 S7 1.464787 1_555
O8 Zn3 2.192901 1_565
O9 S6 1.464574 1_655
O9 Zn2 2.180834 1_565
O10 Si2 1.589648 1_555
O10 Zn3 1.866846 1_555
O11 Si3 1.608161 1_555
O11 Zn2 1.889552 1_555
O12 Si2 1.660261 1_565
O12 Sc1 2.011494 1_565
O13 Si3 1.648621 1_565
O13 Sc0 2.071194 1_655
O14 S4 1.485899 1_555
O14 Sc0 2.187042 1_545
O15 S5 1.484013 1_555
O15 Sc1 2.127866 1_555
O16 S6 1.484987 1_555
O16 Sc0 2.153957 1_555
O17 S7 1.506025 1_555
O17 Sc1 2.155404 1_565
O18 Si0 1.647775 1_555
O18 Sc3 1.985732 1_565
O19 Si1 1.662611 1_555
O19 Sc2 1.966622 1_565
O20 S2 1.501408 1_455
O20 Sc2 2.078065 1_455
O21 S3 1.500859 1_555
O21 Sc3 2.051207 1_555
O22 S0 1.507012 1_565
O22 Sc2 2.202681 1_465
O23 S1 1.503274 1_565
O23 Sc3 2.194309 1_565
O24 S8 1.484719 1_555
O24 Zn4 2.028473 1_555
O25 S9 1.491775 1_555
O25 Zn5 2.076137 1_555
O26 Si4 1.638366 1_555
O26 Zn4 1.907321 1_555
O27 Si5 1.625182 1_555
O27 Zn5 1.892918 1_555
O28 S10 1.476881 1_555
O28 Zn4 2.310435 1_555
O29 S11 1.487488 1_555
O29 Zn5 2.211619 1_555
O30 S12 1.472311 1_555
O30 Zn6 2.132537 1_555
O31 S13 1.472819 1_555
O31 Zn7 2.138315 1_555
O32 S14 1.467323 1_555
O32 Zn6 2.194581 1_555
O33 S15 1.466625 1_555
O33 Zn7 2.203971 1_555
O34 Si6 1.628250 1_555
O34 Zn6 1.930862 1_555
O35 Si7 1.625374 1_555
O35 Zn7 1.924965 1_555
O36 Si6 1.662506 1_555
O36 Sc4 1.901065 1_554
O37 Si7 1.664340 1_555
O37 Sc5 1.896865 1_554
O38 S12 1.485258 1_555
O38 Sc4 2.179663 1_554
O39 S13 1.486173 1_555
O39 Sc5 2.180837 1_554
O40 S14 1.485046 1_555
O40 Sc4 2.114316 1_554
O41 S15 1.486962 1_555
O41 Sc5 2.109683 1_554
O42 Si4 1.637515 1_555
O42 Sc6 1.922849 1_555
O43 Si5 1.656604 1_555
O43 Sc7 1.934782 1_555
O44 S10 1.488538 1_555
O44 Sc6 2.165729 1_555
O45 S11 1.483202 1_555
O45 Sc7 2.067227 1_555
O46 S8 1.481610 1_555
O46 Sc6 2.189201 1_555
O47 S9 1.488669 1_555
O47 Sc7 2.138213 1_555
O48 S16 1.480379 1_555
O48 Zn8 2.105307 1_556
O49 S17 1.478942 1_555
O49 Zn9 2.110460 1_556
O50 S18 1.474159 1_555
O50 Zn8 1.978464 1_556
O51 S19 1.476552 1_555
O51 Zn9 1.974215 1_556
O52 S20 1.482553 1_555
O52 Zn8 2.251887 1_556
O53 S21 1.482985 1_555
O53 Zn9 2.247528 1_556
O54 S22 1.481697 1_555
O54 Zn10 2.145204 1_555
O55 S23 1.478444 1_555
O55 Zn11 2.132128 1_555
O56 S24 1.469103 1_555
O56 Zn10 2.208713 1_555
O57 S25 1.456704 1_555
O57 Zn11 2.170046 1_555
O58 S26 1.469590 1_555
O58 Zn10 1.989517 1_555
O59 Si8 1.627680 1_555
O59 Zn11 1.912465 1_555
O60 S26 1.501761 1_555
O60 Sc8 2.197631 1_555
O61 Si8 1.655647 1_555
O61 Sc9 1.988471 1_555
O62 S22 1.495673 1_555
O62 Sc8 2.053845 1_555
O63 S23 1.496224 1_555
O63 Sc9 2.111712 1_555
O64 S24 1.517198 1_555
O64 Sc8 2.080964 1_555
O65 S25 1.495752 1_555
O65 Sc9 2.103859 1_555
O66 S18 1.499561 1_555
O66 Sc10 2.187625 1_555
O67 S19 1.492181 1_555
O67 Sc11 2.107850 1_555
O68 S20 1.505854 1_555
O68 Sc10 2.047706 1_555
O69 S21 1.503817 1_555
O69 Sc11 2.070492 1_555
O70 S16 1.508018 1_555
O70 Sc10 2.082523 1_555
O71 S17 1.502934 1_555
O71 Sc11 2.133274 1_555
O72 S26 1.481624 1_555
O72 Zn0 2.166798 1_455
O73 Si8 1.668226 1_555
O73 Zn1 2.003696 1_555
O74 S22 1.479111 1_555
O74 Zn1 2.219561 1_555
O75 S23 1.465115 1_555
O75 Zn0 2.143371 1_555
O76 S24 1.468218 1_555
O76 Zn0 2.329132 1_445
O77 S25 1.484588 1_555
O77 Zn1 2.352837 1_545
O78 S18 1.482069 1_555
O78 Zn2 2.136757 1_455
O79 S19 1.480153 1_555
O79 Zn3 2.132705 1_555
O80 S20 1.472202 1_555
O80 Zn2 2.317136 1_465
O81 S21 1.471147 1_555
O81 Zn3 2.324189 1_565
O82 S16 1.467740 1_555
O82 Zn3 2.201958 1_565
O83 S17 1.474134 1_555
O83 Zn2 2.155823 1_565
O84 S8 1.500475 1_555
O84 Sc1 2.155263 1_555
O85 S9 1.503154 1_555
O85 Sc0 2.184295 1_645
O86 Si4 1.646622 1_555
O86 Sc0 1.966935 1_545
O87 Si5 1.652496 1_555
O87 Sc1 2.052133 1_555
O88 S10 1.521178 1_555
O88 Sc1 2.237713 1_565
O89 S11 1.503589 1_555
O89 Sc0 2.181019 1_655
O90 S12 1.514226 1_555
O90 Sc3 2.260398 1_565
O91 S13 1.512910 1_555
O91 Sc2 2.269850 1_565
O92 S14 1.500701 1_555
O92 Sc3 2.184697 1_555
O93 S15 1.500818 1_555
O93 Sc2 2.189672 1_555
O94 Si6 1.650842 1_555
O94 Sc2 2.075294 1_455
O95 Si7 1.651841 1_555
O95 Sc3 2.063239 1_555
O96 Si2 1.632737 1_555
O96 Zn4 1.977947 1_555
O97 Si3 1.655694 1_555
O97 Zn5 2.039058 1_555
O98 S4 1.483348 1_555
O98 Zn4 2.409091 1_555
O99 S5 1.494846 1_555
O99 Zn5 2.356229 1_555
O100 S7 1.479220 1_555
O100 Zn4 2.409478 1_555
O101 S6 1.490865 1_655
O101 Zn5 2.411284 1_555
O102 Si0 1.658624 1_555
O102 Zn6 2.004649 1_555
O103 Si1 1.668810 1_555
O103 Zn7 1.996072 1_555
O104 S3 1.478118 1_555
O104 Zn6 2.362067 1_555
O105 S2 1.478567 1_555
O105 Zn7 2.362695 1_555
O106 S0 1.475049 1_555
O106 Zn6 2.264721 1_555
O107 S1 1.471898 1_555
O107 Zn7 2.242333 1_555
O108 S16 1.497718 1_555
O108 Sc4 2.151882 1_555
O109 S17 1.501131 1_555
O109 Sc5 2.165463 1_555
O110 S19 1.491900 1_555
O110 Sc4 2.261898 1_555
O111 S18 1.492030 1_655
O111 Sc5 2.274037 1_555
O112 S20 1.500770 1_545
O112 Sc4 2.163718 1_555
O113 S21 1.506092 1_545
O113 Sc5 2.168010 1_555
O114 S22 1.480411 1_545
O114 Sc6 2.149017 1_555
O115 S23 1.514203 1_545
O115 Sc7 2.200436 1_555
O116 S24 1.508704 1_555
O116 Sc6 2.202181 1_555
O117 S25 1.522449 1_555
O117 Sc7 2.177879 1_555
O118 Si8 1.650040 1_555
O118 Sc6 2.089923 1_555
O119 S26 1.498165 1_655
O119 Sc7 2.246587 1_555
O120 Si6 1.639424 1_555
O120 Zn8 1.939916 1_555
O121 Si7 1.637402 1_555
O121 Zn9 1.939695 1_555
O122 S13 1.484139 1_455
O122 Zn8 2.218381 1_555
O123 S12 1.483587 1_555
O123 Zn9 2.223030 1_555
O124 S14 1.498577 1_565
O124 Zn8 2.383285 1_555
O125 S15 1.497839 1_565
O125 Zn9 2.387086 1_555
O126 Si4 1.651435 1_565
O126 Zn10 1.939239 1_555
O127 Si5 1.655940 1_565
O127 Zn11 2.040376 1_555
O128 S10 1.475279 1_555
O128 Zn10 2.378626 1_555
O129 S11 1.477277 1_555
O129 Zn11 2.380032 1_555
O130 S9 1.461656 1_455
O130 Zn10 2.151602 1_555
O131 S8 1.472186 1_555
O131 Zn11 2.253069 1_555
O132 S0 1.504712 1_565
O132 Sc8 2.170580 1_555
O133 S1 1.494837 1_565
O133 Sc9 2.221703 1_555
O134 Si0 1.671923 1_555
O134 Sc8 1.975607 1_555
O135 Si1 1.657842 1_555
O135 Sc9 2.063875 1_555
O136 S2 1.522736 1_455
O136 Sc8 2.231023 1_555
O137 S3 1.517741 1_555
O137 Sc9 2.265420 1_555
O138 S4 1.514397 1_555
O138 Sc10 2.206217 1_555
O139 S5 1.501625 1_555
O139 Sc11 2.165064 1_555
O140 S6 1.510675 1_555
O140 Sc10 2.259498 1_555
O141 S7 1.505303 1_555
O141 Sc11 2.199128 1_555
O142 Si2 1.718940 1_565
O142 Sc10 1.970924 1_555
O143 Si3 1.687019 1_565
O143 Sc11 2.014338 1_555
