# generated using pymatgen
data_MgZn2(FeO2)4
_symmetry_space_group_name_H-M   'P 1'
_cell_length_a   6.34013170
_cell_length_b   5.98755115
_cell_length_c   5.98755013
_cell_angle_alpha   59.99995472
_cell_angle_beta   61.82310267
_cell_angle_gamma   61.82309864
_symmetry_Int_Tables_number   1
_chemical_formula_structural   MgZn2(FeO2)4
_chemical_formula_sum   'Mg1 Zn2 Fe4 O8'
_cell_volume   165.01172726
_cell_formula_units_Z   1
loop_
 _symmetry_equiv_pos_site_id
 _symmetry_equiv_pos_as_xyz
  1  'x, y, z'
loop_
 _atom_site_type_symbol
 _atom_site_label
 _atom_site_symmetry_multiplicity
 _atom_site_fract_x
 _atom_site_fract_y
 _atom_site_fract_z
 _atom_site_occupancy
  Mg  Mg0  1  0.64086600  0.11971100  0.11971100  1
  Zn  Zn0  1  0.08949100  0.97016900  0.97016900  1
  Zn  Zn1  1  0.10802000  0.63065900  0.63065900  1
  Fe  Fe0  1  0.17612700  0.27462500  0.27462300  1
  Fe  Fe1  1  0.62417300  0.12660500  0.62461200  1
  Fe  Fe2  1  0.62417300  0.62461000  0.12660400  1
  Fe  Fe3  1  0.62417400  0.62461000  0.62461200  1
  O  O0  1  0.37819200  0.36851100  0.36851100  1
  O  O1  1  0.37819200  0.36851100  0.88478700  1
  O  O2  1  0.37819200  0.88478700  0.36851100  1
  O  O3  1  0.83001600  0.38999400  0.38999400  1
  O  O4  1  0.43575500  0.85474800  0.85474800  1
  O  O5  1  0.86254500  0.37708600  0.88018400  1
  O  O6  1  0.86254500  0.88018500  0.37708500  1
  O  O7  1  0.86254500  0.88018500  0.88018500  1
loop_
_geom_bond_atom_site_label_1
_geom_bond_atom_site_label_2
_geom_bond_distance
_geom_bond_site_symmetry_2
Mg0 O7 2.082959 1_544
Mg0 O6 2.082964 1_545
Mg0 O5 2.082968 1_554
Mg0 O1 2.178345 1_554
Mg0 O2 2.178346 1_545
Mg0 O0 2.178353 1_555
Fe0 O3 1.839507 1_455
Fe0 O1 1.987341 1_554
Fe0 O2 1.987350 1_545
Fe0 O0 1.987357 1_555
Fe1 O4 2.003560 1_545
Fe1 O3 2.039763 1_555
Fe1 O7 2.150139 1_545
Fe1 O6 2.150147 1_545
Fe1 O1 2.187606 1_555
Fe1 O0 2.187611 1_555
Fe2 O4 2.003555 1_554
Fe2 O3 2.039767 1_555
Fe2 O5 2.150134 1_554
Fe2 O7 2.150148 1_554
Fe2 O0 2.187603 1_555
Fe2 O2 2.187619 1_555
Fe3 O4 2.003554 1_555
Fe3 O3 2.039771 1_555
Fe3 O5 2.150130 1_555
Fe3 O6 2.150143 1_555
Fe3 O1 2.187607 1_555
Fe3 O2 2.187616 1_555
O0 Zn1 2.290635 1_555
O1 Zn1 2.290651 1_555
O2 Zn1 2.290652 1_555
O4 Zn0 1.840320 1_555
O5 Zn0 2.098929 1_645
O5 Zn1 2.174119 1_655
O6 Zn0 2.098925 1_654
O6 Zn1 2.174123 1_655
O7 Zn0 2.098919 1_655
O7 Zn1 2.174135 1_655
