# generated using pymatgen
data_MgFe8(OF)8
_symmetry_space_group_name_H-M   'P 1'
_cell_length_a   9.78551761
_cell_length_b   9.70836061
_cell_length_c   3.10844700
_cell_angle_alpha   90.00000000
_cell_angle_beta   90.00000000
_cell_angle_gamma   92.66868036
_symmetry_Int_Tables_number   1
_chemical_formula_structural   MgFe8(OF)8
_chemical_formula_sum   'Mg1 Fe8 O8 F8'
_cell_volume   294.98634333
_cell_formula_units_Z   1
loop_
 _symmetry_equiv_pos_site_id
 _symmetry_equiv_pos_as_xyz
  1  'x, y, z'
loop_
 _atom_site_type_symbol
 _atom_site_label
 _atom_site_symmetry_multiplicity
 _atom_site_fract_x
 _atom_site_fract_y
 _atom_site_fract_z
 _atom_site_occupancy
  Mg  Mg0  1  0.98567700  0.24212000  0.00000000  1
  Fe  Fe0  1  0.04533000  0.95681900  0.00000000  1
  Fe  Fe1  1  0.99068400  0.52367300  0.00000000  1
  Fe  Fe2  1  0.23780700  0.24860100  0.50000000  1
  Fe  Fe3  1  0.23393400  0.72658900  0.50000000  1
  Fe  Fe4  1  0.51510200  0.50946300  0.00000000  1
  Fe  Fe5  1  0.49935100  0.99335700  0.00000000  1
  Fe  Fe6  1  0.72541400  0.28952800  0.50000000  1
  Fe  Fe7  1  0.75206800  0.73139300  0.50000000  1
  O  O0  1  0.07259700  0.36677900  0.50000000  1
  O  O1  1  0.12054400  0.87453300  0.50000000  1
  O  O2  1  0.15914600  0.14477300  0.00000000  1
  O  O3  1  0.16140600  0.62529500  0.00000000  1
  O  O4  1  0.57591600  0.40632600  0.50000000  1
  O  O5  1  0.65189300  0.65559500  0.00000000  1
  O  O6  1  0.82826500  0.36297500  0.00000000  1
  O  O7  1  0.90407700  0.60976300  0.50000000  1
  F  F0  1  0.33969300  0.35523600  0.00000000  1
  F  F1  1  0.35782100  0.82513500  0.00000000  1
  F  F2  1  0.40385500  0.10588600  0.50000000  1
  F  F3  1  0.40564800  0.59710200  0.50000000  1
  F  F4  1  0.60930700  0.90088800  0.50000000  1
  F  F5  1  0.64810300  0.16174400  0.00000000  1
  F  F6  1  0.84561400  0.85391100  0.00000000  1
  F  F7  1  0.89602900  0.13390500  0.50000000  1
loop_
_geom_bond_atom_site_label_1
_geom_bond_atom_site_label_2
_geom_bond_distance
_geom_bond_site_symmetry_2
Mg0 O6 1.979304 1_555
Mg0 O2 1.980913 1_655
Mg0 O0 2.123174 1_655
Mg0 O0 2.123174 1_654
Fe0 O1 1.910563 1_554
Fe0 O1 1.910563 1_555
Fe0 O2 2.093038 1_565
Fe1 O3 1.900205 1_655
Fe1 O7 1.974428 1_554
Fe1 O7 1.974428 1_555
Fe1 O6 2.174650 1_555
Fe1 O0 2.343479 1_654
Fe1 O0 2.343479 1_655
Fe2 O2 1.987944 1_556
Fe2 O2 1.987944 1_555
Fe2 O0 2.025503 1_555
Fe3 O1 1.855401 1_555
Fe3 O3 1.954840 1_555
Fe3 O3 1.954840 1_556
Fe4 O5 1.904639 1_555
Fe4 O4 1.956482 1_554
Fe4 O4 1.956482 1_555
Fe6 O4 1.892184 1_555
Fe6 O6 1.967273 1_555
Fe6 O6 1.967273 1_556
Fe7 O7 1.941787 1_555
Fe7 O5 1.962363 1_556
Fe7 O5 1.962363 1_555
F0 Fe2 2.094102 1_554
F0 Fe2 2.094102 1_555
F0 Fe4 2.224594 1_555
F1 Fe5 2.091568 1_555
F1 Fe3 2.166238 1_554
F1 Fe3 2.166238 1_555
F2 Fe5 2.139491 1_545
F2 Fe5 2.139491 1_546
F2 Fe2 2.183923 1_555
F3 Fe4 2.090828 1_556
F3 Fe4 2.090828 1_555
F3 Fe3 2.144869 1_555
F4 Fe5 2.114046 1_555
F4 Fe5 2.114046 1_556
F4 Fe7 2.207573 1_555
F5 Fe6 2.107029 1_555
F5 Fe6 2.107029 1_554
F5 Fe5 2.137679 1_545
F6 Fe7 2.137044 1_555
F6 Fe7 2.137044 1_554
F6 Fe0 2.153068 1_655
F7 Mg0 2.050146 1_556
F7 Mg0 2.050146 1_555
F7 Fe6 2.303250 1_555
