# generated using pymatgen
data_Na6Nb2Zn4P6(SO12)3
_symmetry_space_group_name_H-M   'P 1'
_cell_length_a   8.92163089
_cell_length_b   8.88639360
_cell_length_c   22.42197434
_cell_angle_alpha   90.25394191
_cell_angle_beta   90.00000000
_cell_angle_gamma   120.13125823
_symmetry_Int_Tables_number   1
_chemical_formula_structural   Na6Nb2Zn4P6(SO12)3
_chemical_formula_sum   'Na12 Nb4 Zn8 P12 S6 O72'
_cell_volume   1537.42039704
_cell_formula_units_Z   2
loop_
 _symmetry_equiv_pos_site_id
 _symmetry_equiv_pos_as_xyz
  1  'x, y, z'
loop_
 _atom_site_type_symbol
 _atom_site_label
 _atom_site_symmetry_multiplicity
 _atom_site_fract_x
 _atom_site_fract_y
 _atom_site_fract_z
 _atom_site_occupancy
  Na  Na0  1  0.99312043  0.63756617  0.24548655  1
  Na  Na1  1  0.64444574  0.63756617  0.74548655  1
  Na  Na2  1  0.30104829  0.33887700  0.58566251  1
  Na  Na3  1  0.66743802  0.95727108  0.58370784  1
  Na  Na4  1  0.28983406  0.95727108  0.08370784  1
  Na  Na5  1  0.03782970  0.33887700  0.08566251  1
  Na  Na6  1  0.99589277  0.98515303  0.49155800  1
  Na  Na7  1  0.98926027  0.98515303  0.99155800  1
  Na  Na8  1  0.65830241  0.31157086  0.82501265  1
  Na  Na9  1  0.65326945  0.31157086  0.32501265  1
  Na  Na10  1  0.34749684  0.66695220  0.16361200  1
  Na  Na11  1  0.31945435  0.66695220  0.66361200  1
  Nb  Nb0  1  0.67428226  0.34445603  0.97474192  1
  Nb  Nb1  1  0.67017477  0.34445603  0.47474192  1
  Nb  Nb2  1  0.33240193  0.66761372  0.31556479  1
  Nb  Nb3  1  0.33521079  0.66761372  0.81556479  1
  Zn  Zn0  1  0.00950602  0.01467038  0.35143391  1
  Zn  Zn1  1  0.00516436  0.01467038  0.85143391  1
  Zn  Zn2  1  0.99233352  0.99452079  0.65815233  1
  Zn  Zn3  1  0.00218726  0.99452079  0.15815233  1
  Zn  Zn4  1  0.65639039  0.32448503  0.68589407  1
  Zn  Zn5  1  0.66809564  0.32448503  0.18589407  1
  Zn  Zn6  1  0.33132442  0.66836302  0.00931959  1
  Zn  Zn7  1  0.33703760  0.66836302  0.50931959  1
  P  P0  1  0.29772165  0.00560096  0.25014231  1
  P  P1  1  0.99752959  0.29019333  0.24953595  1
  P  P2  1  0.29266374  0.29019333  0.74953595  1
  P  P3  1  0.70787931  0.00560096  0.75014231  1
  P  P4  1  0.66983266  0.62890974  0.58609699  1
  P  P5  1  0.95907808  0.62890974  0.08609699  1
  P  P6  1  0.62944412  0.67613128  0.91848876  1
  P  P7  1  0.04464794  0.37143003  0.91995861  1
  P  P8  1  0.32762942  0.95926323  0.92020899  1
  P  P9  1  0.63163281  0.95926323  0.42020899  1
  P  P10  1  0.32678109  0.37143003  0.41995861  1
  P  P11  1  0.04668615  0.67613128  0.41848876  1
  S  S0  1  0.70468833  0.70711387  0.25084523  1
  S  S1  1  0.00242554  0.70711387  0.75084523  1
  S  S2  1  0.95776090  0.33758037  0.58363970  1
  S  S3  1  0.37446668  0.03996269  0.58256508  1
  S  S4  1  0.66549701  0.03996269  0.08256508  1
  S  S5  1  0.37982046  0.33758037  0.08363970  1
  O  O0  1  0.20621785  0.02045445  0.30417780  1
  O  O1  1  0.81217326  0.78721621  0.30356927  1
  O  O2  1  0.97129109  0.17902996  0.30285912  1
  O  O3  1  0.20773886  0.17902996  0.80285912  1
  O  O4  1  0.97504294  0.78721621  0.80356927  1
  O  O5  1  0.81423659  0.02045445  0.80417780  1
  O  O6  1  0.76314348  0.95078580  0.69160629  1
  O  O7  1  0.19313582  0.22563143  0.68963995  1
  O  O8  1  0.03801131  0.81019500  0.69580933  1
  O  O9  1  0.77218369  0.81019500  0.19580933  1
  O  O10  1  0.03249561  0.22563143  0.18963995  1
  O  O11  1  0.18764231  0.95078580  0.19160629  1
  O  O12  1  0.87531378  0.35611197  0.63697230  1
  O  O13  1  0.48233904  0.11819877  0.63600397  1
  O  O14  1  0.64126869  0.51643703  0.64106563  1
  O  O15  1  0.87516934  0.51643703  0.14106563  1
  O  O16  1  0.63586072  0.11819877  0.13600397  1
  O  O17  1  0.48079919  0.35611197  0.13697230  1
  O  O18  1  0.47002273  0.31502618  0.02926394  1
  O  O19  1  0.83881746  0.52172316  0.02962123  1
  O  O20  1  0.68675509  0.15444306  0.02888390  1
  O  O21  1  0.46768897  0.15444306  0.52888390  1
  O  O22  1  0.68290670  0.52172316  0.52962123  1
  O  O23  1  0.84500445  0.31502618  0.52926394  1
  O  O24  1  0.54375709  0.69413921  0.97363105  1
  O  O25  1  0.13868623  0.44837501  0.97838255  1
  O  O26  1  0.30836402  0.86298468  0.97826377  1
  O  O27  1  0.55461967  0.86298468  0.47826377  1
  O  O28  1  0.30968778  0.44837501  0.47838255  1
  O  O29  1  0.15038112  0.69413921  0.47363105  1
  O  O30  1  0.12984711  0.63972859  0.36134525  1
  O  O31  1  0.50343451  0.86357764  0.36592076  1
  O  O32  1  0.35875161  0.49600447  0.36576034  1
  O  O33  1  0.13725185  0.49600447  0.86576034  1
  O  O34  1  0.36014212  0.86357764  0.86592076  1
  O  O35  1  0.50988048  0.63972859  0.86134525  1
  O  O36  1  0.01096207  0.82196432  0.40886872  1
  O  O37  1  0.80868461  0.98454566  0.40952837  1
  O  O38  1  0.17754287  0.18986705  0.41182331  1
  O  O39  1  0.01232418  0.18986705  0.91182331  1
  O  O40  1  0.17586105  0.98454566  0.90952837  1
  O  O41  1  0.81100225  0.82196432  0.90886872  1
  O  O42  1  0.96991431  0.17531565  0.58357710  1
  O  O43  1  0.20625985  0.03443212  0.58513963  1
  O  O44  1  0.83405455  0.80946680  0.58494173  1
  O  O45  1  0.97541225  0.80946680  0.08494173  1
  O  O46  1  0.82817227  0.03443212  0.08513963  1
  O  O47  1  0.20540134  0.17531565  0.08357710  1
  O  O48  1  0.68020675  0.16092137  0.74392800  1
  O  O49  1  0.48503756  0.33703689  0.74637014  1
  O  O50  1  0.84845514  0.53036443  0.74469198  1
  O  O51  1  0.68191029  0.53036443  0.24469198  1
  O  O52  1  0.85200033  0.33703689  0.24637014  1
  O  O53  1  0.48071562  0.16092137  0.24392800  1
  O  O54  1  0.63433455  0.49715141  0.92366264  1
  O  O55  1  0.86042354  0.36381760  0.92312648  1
  O  O56  1  0.50379911  0.14233415  0.92492652  1
  O  O57  1  0.63853604  0.14233415  0.42492652  1
  O  O58  1  0.50339506  0.36381760  0.42312648  1
  O  O59  1  0.86281786  0.49715141  0.42366264  1
  O  O60  1  0.35651199  0.49063901  0.07797822  1
  O  O61  1  0.13957336  0.64390143  0.07934557  1
  O  O62  1  0.50944881  0.86600481  0.07624104  1
  O  O63  1  0.35655499  0.86600481  0.57624104  1
  O  O64  1  0.50432707  0.64390143  0.57934557  1
  O  O65  1  0.13412603  0.49063901  0.57797822  1
  O  O66  1  0.31444775  0.83202940  0.26036161  1
  O  O67  1  0.52506474  0.68677208  0.25819646  1
  O  O68  1  0.17052442  0.48175443  0.25955423  1
  O  O69  1  0.31122901  0.48175443  0.75955423  1
  O  O70  1  0.16170634  0.68677208  0.75819646  1
  O  O71  1  0.51758064  0.83202940  0.76036161  1
loop_
_geom_bond_atom_site_label_1
_geom_bond_atom_site_label_2
_geom_bond_distance
_geom_bond_site_symmetry_2
Na0 O52 2.311388 1_555
Na0 O51 2.441549 1_555
Na0 O66 2.517357 1_655
Na0 O15 2.566760 1_555
Na0 O68 2.593393 1_655
Na0 O11 2.720071 1_655
Na0 O1 2.865425 1_555
Na0 O30 2.865804 1_655
Na1 O49 2.311387 1_555
Na1 O50 2.441557 1_555
Na1 O71 2.517364 1_555
Na1 O14 2.566762 1_555
Na1 O69 2.593401 1_555
Na1 O6 2.720071 1_555
Na1 O4 2.865425 1_555
Na1 O35 2.865808 1_555
Na2 O64 2.392569 1_555
Na2 O43 2.395274 1_555
Na2 O65 2.466705 1_555
Na2 O7 2.534374 1_555
Na2 O42 2.555550 1_455
Na2 O28 2.585399 1_555
Na2 O14 2.901778 1_555
Na3 O42 2.405665 1_565
Na3 O64 2.410614 1_555
Na3 O44 2.428180 1_555
Na3 O63 2.473658 1_555
Na3 O27 2.537838 1_555
Na3 O6 2.576046 1_555
Na4 O47 2.405672 1_565
Na4 O61 2.410613 1_555
Na4 O45 2.428187 1_455
Na4 O62 2.473641 1_555
Na4 O26 2.537833 1_554
Na4 O11 2.576049 1_555
Na5 O61 2.392572 1_555
Na5 O46 2.395276 1_455
Na5 O60 2.466690 1_555
Na5 O10 2.534372 1_555
Na5 O47 2.555542 1_555
Na5 O25 2.585396 1_554
Na5 O15 2.901778 1_455
Na6 O36 2.393839 1_655
Na6 O37 2.482613 1_555
Na6 O38 2.490180 1_665
Na6 O44 2.583058 1_555
Na6 O43 2.698837 1_665
Na6 O42 2.743839 1_565
Na7 O41 2.393839 1_555
Na7 O40 2.482613 1_655
Na7 O39 2.490180 1_665
Na7 O45 2.583058 1_556
Na7 O46 2.698838 1_566
Na7 O47 2.743839 1_666
Na8 O48 2.318810 1_555
Na8 O49 2.429972 1_555
Na8 O50 2.573172 1_555
Na8 O56 2.670056 1_555
Na8 O55 2.730799 1_555
Na8 O54 2.824840 1_555
Na9 O53 2.318810 1_555
Na9 O52 2.429972 1_555
Na9 O51 2.573172 1_555
Na9 O57 2.670056 1_555
Na9 O58 2.730799 1_555
Na9 O59 2.824840 1_555
Na10 O60 2.499569 1_555
Na10 O62 2.553258 1_555
Na10 O61 2.582254 1_555
Na10 O67 2.599024 1_555
Na10 O68 2.692898 1_555
Na10 O66 2.711241 1_555
Na11 O65 2.499569 1_555
Na11 O63 2.553258 1_555
Na11 O64 2.582254 1_555
Na11 O70 2.599024 1_555
Na11 O69 2.692898 1_555
Na11 O71 2.711241 1_555
Nb0 O54 1.944024 1_555
Nb0 O19 1.952351 1_556
Nb0 O55 1.960043 1_555
Nb0 O56 2.006636 1_555
Nb0 O18 2.099552 1_556
Nb0 O20 2.131678 1_556
Nb1 O59 1.944024 1_555
Nb1 O22 1.952351 1_555
Nb1 O58 1.960043 1_555
Nb1 O57 2.006636 1_555
Nb1 O23 2.099552 1_555
Nb1 O21 2.131678 1_555
Nb2 O30 1.983290 1_555
Nb2 O66 1.985803 1_555
Nb2 O31 1.987589 1_555
Nb2 O68 1.994408 1_555
Nb2 O32 2.005666 1_555
Nb2 O67 2.084761 1_555
Nb3 O35 1.983290 1_555
Nb3 O71 1.985803 1_555
Nb3 O34 1.987589 1_555
Nb3 O69 1.994408 1_555
Nb3 O33 2.005666 1_555
Nb3 O70 2.084761 1_555
O0 P0 1.502853 1_555
O0 Zn0 2.028608 1_555
O1 S0 1.459808 1_555
O1 Zn0 2.178280 1_665
O2 P1 1.496136 1_555
O2 Zn0 1.987400 1_655
O3 P2 1.496136 1_555
O3 Zn1 1.987400 1_555
O4 S1 1.459808 1_655
O4 Zn1 2.178279 1_665
O5 P3 1.502853 1_555
O5 Zn1 2.028609 1_655
O6 P3 1.561557 1_565
O6 Zn2 2.024710 1_555
O7 P2 1.550142 1_555
O7 Zn2 2.054029 1_445
O8 S1 1.476727 1_555
O8 Zn2 2.060201 1_455
O9 S0 1.476727 1_555
O9 Zn3 2.060201 1_655
O10 P1 1.550142 1_455
O10 Zn3 2.054029 1_545
O11 P0 1.561557 1_565
O11 Zn3 2.024710 1_555
O12 S2 1.455345 1_555
O12 Zn4 2.132759 1_555
O13 S3 1.471777 1_555
O13 Zn4 2.036418 1_555
O14 P4 1.529108 1_555
O14 Zn4 2.045573 1_555
O15 P5 1.529108 1_555
O15 Zn5 2.045573 1_555
O16 S4 1.471777 1_555
O16 Zn5 2.036418 1_555
O17 S5 1.455345 1_555
O17 Zn5 2.132759 1_555
O18 S5 1.527756 1_555
O19 P5 1.620255 1_555
O20 S4 1.528659 1_555
O21 S3 1.528659 1_555
O22 P4 1.620255 1_555
O23 S2 1.527756 1_555
O24 P6 1.503252 1_555
O24 Zn6 1.962279 1_556
O25 P7 1.517756 1_555
O25 Zn6 1.967596 1_556
O26 P8 1.522565 1_555
O26 Zn6 1.970866 1_556
O27 P9 1.522565 1_555
O27 Zn7 1.970866 1_555
O28 P10 1.517756 1_555
O28 Zn7 1.967596 1_555
O29 P11 1.503252 1_555
O29 Zn7 1.962279 1_555
O30 P11 1.591868 1_555
O31 P9 1.589746 1_555
O32 P10 1.574342 1_555
O33 P7 1.574342 1_555
O34 P8 1.589745 1_555
O35 P6 1.591868 1_555
O36 P11 1.498230 1_555
O36 Zn0 2.152443 1_565
O37 P9 1.499039 1_555
O37 Zn0 2.121320 1_665
O38 P10 1.499959 1_555
O38 Zn0 2.035396 1_555
O39 P7 1.499962 1_555
O39 Zn1 2.035396 1_555
O40 P8 1.499030 1_555
O40 Zn1 2.121320 1_565
O41 P6 1.498235 1_555
O41 Zn1 2.152443 1_665
O42 S2 1.499308 1_555
O42 Zn2 2.400760 1_545
O43 S3 1.477757 1_555
O43 Zn2 2.402925 1_445
O44 P4 1.536861 1_555
O44 Zn2 2.244464 1_555
O45 P5 1.536865 1_555
O45 Zn3 2.244464 1_655
O46 S4 1.477748 1_555
O46 Zn3 2.402925 1_645
O47 S5 1.499312 1_555
O47 Zn3 2.400760 1_545
O48 P3 1.526185 1_555
O48 Zn4 2.043973 1_555
O49 P2 1.551436 1_555
O49 Zn4 2.087601 1_555
O50 S1 1.484903 1_655
O50 Zn4 2.202880 1_555
O51 S0 1.484907 1_555
O51 Zn5 2.202880 1_555
O52 P1 1.551427 1_555
O52 Zn5 2.087601 1_555
O53 P0 1.526190 1_555
O53 Zn5 2.043973 1_555
O54 P6 1.617501 1_555
O55 P7 1.612266 1_655
O56 P8 1.599844 1_545
O57 P9 1.599836 1_545
O58 P10 1.612284 1_555
O59 P11 1.617492 1_655
O60 S5 1.481495 1_555
O60 Zn6 2.300557 1_555
O61 P5 1.555175 1_455
O61 Zn6 2.251403 1_555
O62 S4 1.478306 1_565
O62 Zn6 2.244132 1_555
O63 S3 1.478299 1_565
O63 Zn7 2.244132 1_555
O64 P4 1.555193 1_555
O64 Zn7 2.251403 1_555
O65 S2 1.481485 1_455
O65 Zn7 2.300557 1_555
O66 P0 1.639530 1_565
O67 S0 1.528855 1_555
O68 P1 1.639878 1_455
O69 P2 1.639882 1_555
O70 S1 1.528846 1_555
O71 P3 1.639535 1_565
