# generated using pymatgen
data_MgTe(WO4)3
_symmetry_space_group_name_H-M   'P 1'
_cell_length_a   5.74146725
_cell_length_b   11.56516822
_cell_length_c   10.27166249
_cell_angle_alpha   26.70069335
_cell_angle_beta   49.20996551
_cell_angle_gamma   54.31717495
_symmetry_Int_Tables_number   1
_chemical_formula_structural   MgTe(WO4)3
_chemical_formula_sum   'Mg1 Te1 W3 O12'
_cell_volume   232.02717354
_cell_formula_units_Z   1
loop_
 _symmetry_equiv_pos_site_id
 _symmetry_equiv_pos_as_xyz
  1  'x, y, z'
loop_
 _atom_site_type_symbol
 _atom_site_label
 _atom_site_symmetry_multiplicity
 _atom_site_fract_x
 _atom_site_fract_y
 _atom_site_fract_z
 _atom_site_occupancy
  Mg  Mg0  1  0.18588056  0.50765459  0.19222393  1
  Te  Te0  1  0.98720891  0.48896322  0.98415041  1
  W  W0  1  0.53527980  -0.00225262  0.46779671  1
  W  W1  1  0.45316457  0.50002380  0.49944038  1
  W  W2  1  0.97735468  0.00855089  0.97862639  1
  O  O0  1  0.39808391  0.31348016  0.15281190  1
  O  O1  1  0.24852264  0.13911206  0.62501401  1
  O  O2  1  0.16164485  0.27267952  0.77544547  1
  O  O3  1  0.87395197  0.15411386  0.29088327  1
  O  O4  1  0.31792937  0.77756071  0.17193203  1
  O  O5  1  0.77024900  0.40020926  0.37679569  1
  O  O6  1  0.23201522  0.60951063  0.62630662  1
  O  O7  1  0.65345416  0.21555114  0.84232394  1
  O  O8  1  0.17458211  0.81968405  0.75623233  1
  O  O9  1  0.85582414  0.71263647  0.22842358  1
  O  O10  1  0.74224566  0.90470902  0.33706723  1
  O  O11  1  0.61530945  0.67781325  0.88258311  1
loop_
_geom_bond_atom_site_label_1
_geom_bond_atom_site_label_2
_geom_bond_distance
_geom_bond_site_symmetry_2
Mg0 O5 2.042523 1_455
Mg0 O11 2.073324 1_554
Mg0 O8 2.076934 1_554
Mg0 O0 2.116443 1_555
Mg0 O1 2.122394 1_555
Mg0 O9 2.182385 1_455
O0 W0 1.813170 1_555
O0 Te0 2.481464 1_454
O1 W2 1.857769 1_455
O1 W0 2.468745 1_555
O2 W1 1.835075 1_555
O2 W2 2.073878 1_455
O3 Te0 1.951158 1_554
O3 W0 1.991818 1_555
O4 W1 1.853349 1_555
O4 W2 2.098609 1_464
O5 W1 1.839567 1_555
O5 Te0 2.530236 1_554
O6 Te0 1.951794 1_455
O6 W1 1.955611 1_555
O7 W2 1.835542 1_555
O7 W1 2.173847 1_555
O8 W0 1.834303 1_565
O8 Te0 2.603476 1_455
O9 W2 1.881405 1_564
O9 W1 2.265601 1_555
O10 W0 1.837960 1_565
O10 W2 2.077807 1_564
O11 Te0 1.953659 1_555
O11 W0 2.112285 1_565
