# generated using pymatgen
data_Hf2Ag3F14
_symmetry_space_group_name_H-M   'P 1'
_cell_length_a   5.73641931
_cell_length_b   5.73641886
_cell_length_c   9.04733968
_cell_angle_alpha   88.66438221
_cell_angle_beta   88.66437432
_cell_angle_gamma   71.59352723
_symmetry_Int_Tables_number   1
_chemical_formula_structural   Hf2Ag3F14
_chemical_formula_sum   'Hf2 Ag3 F14'
_cell_volume   282.36858650
_cell_formula_units_Z   1
loop_
 _symmetry_equiv_pos_site_id
 _symmetry_equiv_pos_as_xyz
  1  'x, y, z'
loop_
 _atom_site_type_symbol
 _atom_site_label
 _atom_site_symmetry_multiplicity
 _atom_site_fract_x
 _atom_site_fract_y
 _atom_site_fract_z
 _atom_site_occupancy
  Hf  Hf0  1  0.40924939  0.40924939  0.21712313  1
  Hf  Hf1  1  0.59075061  0.59075061  0.78287687  1
  Ag  Ag0  1  0.00000000  0.00000000  -0.00000000  1
  Ag  Ag1  1  0.18726522  0.18726522  0.60320741  1
  Ag  Ag2  1  0.81273478  0.81273478  0.39679259  1
  F  F0  1  0.85593332  0.26602280  0.83625505  1
  F  F1  1  0.73397720  0.14406668  0.16374495  1
  F  F2  1  0.14406668  0.73397720  0.16374495  1
  F  F3  1  0.26602280  0.85593332  0.83625505  1
  F  F4  1  0.84740359  0.49409290  0.61139355  1
  F  F5  1  0.50000000  0.50000000  -0.00000000  1
  F  F6  1  0.00000000  0.00000000  0.50000000  1
  F  F7  1  0.38913660  0.38913660  0.70676897  1
  F  F8  1  0.61086340  0.61086340  0.29323103  1
  F  F9  1  0.77415048  0.77415048  0.87814284  1
  F  F10  1  0.22584952  0.22584952  0.12185716  1
  F  F11  1  0.49409290  0.84740359  0.61139355  1
  F  F12  1  0.15259641  0.50590710  0.38860645  1
  F  F13  1  0.50590710  0.15259641  0.38860645  1
loop_
_geom_bond_atom_site_label_1
_geom_bond_atom_site_label_2
_geom_bond_distance
_geom_bond_site_symmetry_2
Ag0 F1 2.088464 1_455
Ag0 F3 2.088464 1_544
Ag0 F0 2.088464 1_454
Ag0 F2 2.088464 1_545
Ag0 F10 2.401171 1_555
Ag0 F9 2.401171 1_444
Ag1 F6 2.000528 1_555
Ag1 F7 2.123188 1_555
Ag1 F11 2.176383 1_545
Ag1 F4 2.176383 1_455
Ag1 F13 2.602559 1_555
Ag1 F12 2.602559 1_555
Ag2 F6 2.000528 1_665
Ag2 F8 2.123188 1_555
Ag2 F13 2.176383 1_565
Ag2 F12 2.176383 1_655
Ag2 F11 2.602559 1_555
Ag2 F4 2.602559 1_555
F0 Hf1 2.054269 1_555
F1 Hf0 2.054269 1_555
F2 Hf0 2.054269 1_555
F3 Hf1 2.054269 1_555
F4 Hf1 2.073683 1_555
F5 Hf1 2.115805 1_554
F5 Hf0 2.115805 1_555
F7 Hf1 2.016995 1_555
F8 Hf0 2.016995 1_555
F9 Hf1 1.933921 1_555
F10 Hf0 1.933921 1_555
F11 Hf1 2.073683 1_555
F12 Hf0 2.073683 1_555
F13 Hf0 2.073683 1_555
