# generated using pymatgen
data_Na10Sc4Ti4Si7S5O48
_symmetry_space_group_name_H-M   'P 1'
_cell_length_a   17.97190329
_cell_length_b   9.01214781
_cell_length_c   22.45257621
_cell_angle_alpha   90.01980100
_cell_angle_beta   88.42494426
_cell_angle_gamma   119.99191005
_symmetry_Int_Tables_number   1
_chemical_formula_structural   Na10Sc4Ti4Si7S5O48
_chemical_formula_sum   'Na30 Sc12 Ti12 Si21 S15 O144'
_cell_volume   3148.02729544
_cell_formula_units_Z   3
loop_
 _symmetry_equiv_pos_site_id
 _symmetry_equiv_pos_as_xyz
  1  'x, y, z'
loop_
 _atom_site_type_symbol
 _atom_site_label
 _atom_site_symmetry_multiplicity
 _atom_site_fract_x
 _atom_site_fract_y
 _atom_site_fract_z
 _atom_site_occupancy
  Na  Na0  1  0.18518962  0.36922952  0.24278979  1
  Na  Na1  1  0.68532793  0.36994249  0.24340741  1
  Na  Na2  1  0.99368688  0.63037096  0.25315931  1
  Na  Na3  1  0.49430050  0.63025211  0.25290252  1
  Na  Na4  1  0.49400843  0.35509131  0.75678261  1
  Na  Na5  1  0.18487700  0.00061591  0.74601395  1
  Na  Na6  1  0.68558915  0.00142492  0.74522838  1
  Na  Na7  1  0.65552791  0.34163293  0.58137337  1
  Na  Na8  1  0.01877204  0.70399918  0.57945117  1
  Na  Na9  1  0.82769471  0.96209825  0.58924956  1
  Na  Na10  1  0.48832698  0.67271590  0.91510772  1
  Na  Na11  1  0.99046820  0.67433352  0.91469822  1
  Na  Na12  1  0.85266818  0.03583640  0.91071442  1
  Na  Na13  1  0.15908155  0.29730554  0.92147520  1
  Na  Na14  1  0.48927473  0.30815869  0.41417785  1
  Na  Na15  1  0.98626261  0.30338052  0.41376550  1
  Na  Na16  1  0.35209798  0.66865612  0.41022047  1
  Na  Na17  1  0.85275995  0.66939559  0.41182708  1
  Na  Na18  1  0.02000797  0.01064184  0.49848331  1
  Na  Na19  1  0.51275171  0.99153554  0.49793854  1
  Na  Na20  1  0.00927497  0.01215816  0.00270561  1
  Na  Na21  1  0.51081681  0.03060026  0.99693147  1
  Na  Na22  1  0.34050574  0.33259356  0.83253006  1
  Na  Na23  1  0.84301476  0.34241650  0.82684735  1
  Na  Na24  1  0.33501102  0.32591369  0.32932118  1
  Na  Na25  1  0.83416754  0.32460606  0.33198627  1
  Na  Na26  1  0.17568061  0.66581622  0.16097252  1
  Na  Na27  1  0.67554106  0.66663914  0.16115861  1
  Na  Na28  1  0.17521367  0.67194884  0.66898512  1
  Na  Na29  1  0.67361443  0.68158223  0.66576950  1
  Sc  Sc0  1  0.00057771  0.99585020  0.35246084  1
  Sc  Sc1  1  0.50123480  0.99785124  0.35177072  1
  Sc  Sc2  1  0.99794422  0.99970671  0.85022519  1
  Sc  Sc3  1  0.49615758  0.00554921  0.85453601  1
  Sc  Sc4  1  0.33221756  0.32506954  0.68644792  1
  Sc  Sc5  1  0.83426085  0.33242790  0.68651756  1
  Sc  Sc6  1  0.33332772  0.34297100  0.18428560  1
  Sc  Sc7  1  0.83321259  0.34208468  0.18449413  1
  Sc  Sc8  1  0.16022871  0.64956240  0.01925746  1
  Sc  Sc9  1  0.65811601  0.64717970  0.01983819  1
  Sc  Sc10  1  0.16366667  0.67189244  0.51798702  1
  Sc  Sc11  1  0.65975302  0.66978439  0.51960655  1
  Ti  Ti0  1  0.99659853  0.97590532  0.64840467  1
  Ti  Ti1  1  0.49625239  0.97270334  0.64943743  1
  Ti  Ti2  1  0.99853628  0.02123575  0.14736573  1
  Ti  Ti3  1  0.49822413  0.01937238  0.14748388  1
  Ti  Ti4  1  0.32645638  0.30851948  0.97814053  1
  Ti  Ti5  1  0.82164162  0.31647069  0.97806221  1
  Ti  Ti6  1  0.32383989  0.33138036  0.47777934  1
  Ti  Ti7  1  0.82572283  0.34874941  0.47976328  1
  Ti  Ti8  1  0.16219048  0.63810743  0.31227374  1
  Ti  Ti9  1  0.66182200  0.63879691  0.31286598  1
  Ti  Ti10  1  0.15957879  0.68305642  0.81203327  1
  Ti  Ti11  1  0.66303355  0.68777810  0.81310840  1
  Si  Si0  1  0.35359889  0.71637489  0.25096239  1
  Si  Si1  1  0.85374272  0.71657714  0.25076085  1
  Si  Si2  1  0.99635284  0.28972028  0.25329845  1
  Si  Si3  1  0.49649529  0.29054325  0.25302133  1
  Si  Si4  1  0.99620401  0.69857112  0.75290013  1
  Si  Si5  1  0.49698380  0.70223696  0.75447037  1
  Si  Si6  1  0.35285843  0.99066356  0.74999301  1
  Si  Si7  1  0.85237742  0.99409428  0.75190567  1
  Si  Si8  1  0.18613356  0.04115073  0.58671465  1
  Si  Si9  1  0.68525748  0.04406622  0.58609384  1
  Si  Si10  1  0.83235695  0.62746996  0.58428464  1
  Si  Si11  1  0.18576335  0.32989906  0.08550318  1
  Si  Si12  1  0.68393689  0.32942447  0.08731962  1
  Si  Si13  1  0.01927136  0.37595710  0.91726695  1
  Si  Si14  1  0.51947393  0.37486718  0.91695000  1
  Si  Si15  1  0.16658796  0.95781450  0.91831810  1
  Si  Si16  1  0.66414354  0.95755495  0.91998742  1
  Si  Si17  1  0.16445238  0.37061190  0.41899666  1
  Si  Si18  1  0.66430293  0.36810731  0.41993086  1
  Si  Si19  1  0.01929977  0.66320974  0.41807918  1
  Si  Si20  1  0.51900363  0.66479705  0.41697260  1
  S  S0  1  0.14542335  0.99576734  0.24797700  1
  S  S1  1  0.64545937  0.99560835  0.24772619  1
  S  S2  1  0.14464182  0.29699500  0.74829810  1
  S  S3  1  0.64372578  0.29149806  0.74796552  1
  S  S4  1  0.47716555  0.32532947  0.58222927  1
  S  S5  1  0.97987540  0.32965267  0.58112770  1
  S  S6  1  0.33482391  0.62557784  0.58204605  1
  S  S7  1  0.47923371  0.63349834  0.08270044  1
  S  S8  1  0.97913828  0.63218610  0.08207656  1
  S  S9  1  0.33474930  0.04437107  0.08365916  1
  S  S10  1  0.83467209  0.04452774  0.08241168  1
  S  S11  1  0.31006484  0.66165095  0.91697212  1
  S  S12  1  0.80911433  0.65856680  0.91698737  1
  S  S13  1  0.30996060  0.96134954  0.41603990  1
  S  S14  1  0.80973626  0.95918503  0.41618986  1
  O  O0  1  0.10780718  0.02768010  0.30255767  1
  O  O1  1  0.60798211  0.02796154  0.30242097  1
  O  O2  1  0.41065565  0.78772466  0.30985734  1
  O  O3  1  0.91125781  0.78773678  0.30951227  1
  O  O4  1  0.48792109  0.18636576  0.31311824  1
  O  O5  1  0.98855299  0.18623889  0.31325213  1
  O  O6  1  0.10794042  0.19424942  0.80474515  1
  O  O7  1  0.60280998  0.18293862  0.80114238  1
  O  O8  1  0.48847741  0.79092635  0.81363454  1
  O  O9  1  0.99153602  0.79229486  0.81286355  1
  O  O10  1  0.41780790  0.04263030  0.80377872  1
  O  O11  1  0.90563725  0.01977436  0.81154845  1
  O  O12  1  0.40775767  0.97250839  0.69083098  1
  O  O13  1  0.90632267  0.97753426  0.69232199  1
  O  O14  1  0.09076541  0.20556151  0.69744741  1
  O  O15  1  0.59165052  0.21048295  0.69372797  1
  O  O16  1  0.01425021  0.82776562  0.69271493  1
  O  O17  1  0.51527747  0.83268876  0.69458495  1
  O  O18  1  0.40956999  0.84347733  0.19381095  1
  O  O19  1  0.91018172  0.84475622  0.19361078  1
  O  O20  1  0.01676052  0.19832526  0.19472679  1
  O  O21  1  0.51607167  0.19711315  0.19476833  1
  O  O22  1  0.09059394  0.97157617  0.19610562  1
  O  O23  1  0.59047943  0.97128240  0.19610452  1
  O  O24  1  0.43625649  0.34554655  0.63682703  1
  O  O25  1  0.93771435  0.35509053  0.63392788  1
  O  O26  1  0.23953187  0.12898755  0.64497960  1
  O  O27  1  0.74009422  0.12148288  0.64517195  1
  O  O28  1  0.32492600  0.52104579  0.63470942  1
  O  O29  1  0.81805419  0.49911723  0.63773947  1
  O  O30  1  0.43800563  0.52978014  0.13793418  1
  O  O31  1  0.93783606  0.52970368  0.13731306  1
  O  O32  1  0.32506693  0.12677231  0.13677682  1
  O  O33  1  0.82584288  0.13016262  0.13523136  1
  O  O34  1  0.23676676  0.34199992  0.14511698  1
  O  O35  1  0.73572733  0.34182470  0.14648448  1
  O  O36  1  0.23972943  0.30736428  0.02632450  1
  O  O37  1  0.74023888  0.30727104  0.02880676  1
  O  O38  1  0.42874530  0.54389395  0.02991918  1
  O  O39  1  0.92866520  0.54286475  0.02908323  1
  O  O40  1  0.34691961  0.15137637  0.02847272  1
  O  O41  1  0.84689302  0.14832004  0.02643310  1
  O  O42  1  0.24253571  0.17265221  0.52787493  1
  O  O43  1  0.73995000  0.18266486  0.52882789  1
  O  O44  1  0.34672721  0.54580207  0.52577875  1
  O  O45  1  0.85000870  0.54170504  0.52178639  1
  O  O46  1  0.42801311  0.31465614  0.52873110  1
  O  O47  1  0.92923301  0.30830290  0.52688879  1
  O  O48  1  0.27078120  0.68338465  0.97170964  1
  O  O49  1  0.77040399  0.68531642  0.97105809  1
  O  O50  1  0.08290152  0.45516175  0.97209447  1
  O  O51  1  0.57693667  0.46471858  0.97327045  1
  O  O52  1  0.15174195  0.83342410  0.97316551  1
  O  O53  1  0.65754706  0.83921399  0.97451907  1
  O  O54  1  0.27118383  0.85887205  0.47043944  1
  O  O55  1  0.77227307  0.85874125  0.47178092  1
  O  O56  1  0.15628351  0.47427116  0.47377595  1
  O  O57  1  0.65386571  0.45956028  0.47832468  1
  O  O58  1  0.07282614  0.68894224  0.47751707  1
  O  O59  1  0.57733550  0.69196586  0.47275124  1
  O  O60  1  0.07283457  0.63976827  0.35951111  1
  O  O61  1  0.56742601  0.63434472  0.35679354  1
  O  O62  1  0.25898865  0.88227932  0.36343306  1
  O  O63  1  0.75745177  0.87351850  0.36434676  1
  O  O64  1  0.18373590  0.49171175  0.35652812  1
  O  O65  1  0.68058417  0.49264413  0.35863580  1
  O  O66  1  0.07082896  0.51032792  0.85965595  1
  O  O67  1  0.56727251  0.50506724  0.85689192  1
  O  O68  1  0.18063074  0.87346867  0.85519572  1
  O  O69  1  0.68457178  0.87599915  0.85705844  1
  O  O70  1  0.25760181  0.63711836  0.86438935  1
  O  O71  1  0.75922218  0.63632267  0.86398693  1
  O  O72  1  0.99864448  0.81835415  0.41305279  1
  O  O73  1  0.49616605  0.81708991  0.41238835  1
  O  O74  1  0.39743427  0.98114561  0.41110604  1
  O  O75  1  0.89695501  0.97660872  0.41084574  1
  O  O76  1  0.07986810  0.18599047  0.41362218  1
  O  O77  1  0.57919720  0.18406304  0.41305074  1
  O  O78  1  0.00285801  0.18156189  0.91122223  1
  O  O79  1  0.50244275  0.18292134  0.91190278  1
  O  O80  1  0.08555256  0.99073983  0.91278443  1
  O  O81  1  0.57996587  0.97362290  0.91342994  1
  O  O82  1  0.39805271  0.80910924  0.91193017  1
  O  O83  1  0.89787276  0.81265930  0.91224151  1
  O  O84  1  0.48640393  0.17059042  0.58573489  1
  O  O85  1  0.98622023  0.17213183  0.58713405  1
  O  O86  1  0.09056932  0.02740940  0.58967421  1
  O  O87  1  0.59165628  0.04008949  0.58994728  1
  O  O88  1  0.41628255  0.79715062  0.58557192  1
  O  O89  1  0.92200526  0.81669640  0.58939037  1
  O  O90  1  0.48494386  0.80325230  0.08729294  1
  O  O91  1  0.98509464  0.80238764  0.08625970  1
  O  O92  1  0.41595361  0.03455459  0.08645378  1
  O  O93  1  0.91628496  0.03463216  0.08600565  1
  O  O94  1  0.08950438  0.14958449  0.09036390  1
  O  O95  1  0.58868148  0.14902829  0.09099413  1
  O  O96  1  0.33661803  0.15425758  0.74296313  1
  O  O97  1  0.83048680  0.14765168  0.74566893  1
  O  O98  1  0.23124745  0.31333417  0.74225439  1
  O  O99  1  0.72945553  0.30933081  0.74295131  1
  O  O100  1  0.42019672  0.50937328  0.74443559  1
  O  O101  1  0.91560543  0.51165949  0.74574300  1
  O  O102  1  0.33690457  0.52032085  0.24355346  1
  O  O103  1  0.83725236  0.52069839  0.24313659  1
  O  O104  1  0.41928231  0.32937857  0.24433579  1
  O  O105  1  0.91945522  0.32940539  0.24430262  1
  O  O106  1  0.23216278  0.14696952  0.24160962  1
  O  O107  1  0.73228168  0.14689448  0.24140717  1
  O  O108  1  0.31809560  0.50181925  0.92173799  1
  O  O109  1  0.82265936  0.50690171  0.92353694  1
  O  O110  1  0.42589454  0.37484320  0.92634283  1
  O  O111  1  0.92560661  0.36921607  0.92564441  1
  O  O112  1  0.25486260  0.15220379  0.92343418  1
  O  O113  1  0.75588629  0.14785528  0.92530853  1
  O  O114  1  0.32311768  0.13926409  0.42239399  1
  O  O115  1  0.82289714  0.13562989  0.42118445  1
  O  O116  1  0.25601767  0.36447382  0.42427428  1
  O  O117  1  0.75653005  0.36588717  0.42131928  1
  O  O118  1  0.42435050  0.47992413  0.42466232  1
  O  O119  1  0.92601050  0.47733052  0.42178370  1
  O  O120  1  0.17506108  0.49723757  0.08050836  1
  O  O121  1  0.67470351  0.49725476  0.08126920  1
  O  O122  1  0.06582715  0.65180361  0.07937030  1
  O  O123  1  0.56618031  0.65436983  0.08044790  1
  O  O124  1  0.25969913  0.87285223  0.07815704  1
  O  O125  1  0.76027540  0.87251441  0.07848412  1
  O  O126  1  0.16880289  0.84600176  0.58068875  1
  O  O127  1  0.67678021  0.85827148  0.57804058  1
  O  O128  1  0.26015704  0.64877765  0.57768760  1
  O  O129  1  0.75066034  0.65530830  0.57876631  1
  O  O130  1  0.06621203  0.48415031  0.57743434  1
  O  O131  1  0.56530200  0.47816171  0.58008883  1
  O  O132  1  0.15039245  0.83688661  0.25403590  1
  O  O133  1  0.65058037  0.83719254  0.25394328  1
  O  O134  1  0.25736783  0.69877159  0.25654506  1
  O  O135  1  0.75739825  0.69818493  0.25672608  1
  O  O136  1  0.08848648  0.48174138  0.25579844  1
  O  O137  1  0.58884626  0.48173088  0.25561615  1
  O  O138  1  0.15382122  0.46774008  0.75344440  1
  O  O139  1  0.64944849  0.46110712  0.75327462  1
  O  O140  1  0.09009866  0.69981042  0.75419312  1
  O  O141  1  0.58941614  0.69639520  0.75493723  1
  O  O142  1  0.25805223  0.81660142  0.75537136  1
  O  O143  1  0.75695899  0.81267498  0.75670586  1
loop_
_geom_bond_atom_site_label_1
_geom_bond_atom_site_label_2
_geom_bond_distance
_geom_bond_site_symmetry_2
Na0 O102 2.362106 1_555
Na0 O34 2.417438 1_555
Na0 O136 2.422307 1_555
Na0 O106 2.532750 1_555
Na0 O134 2.601561 1_555
Na0 O64 2.786362 1_555
Na0 O20 2.866500 1_555
Na0 O0 2.971552 1_555
Na1 O103 2.364588 1_555
Na1 O35 2.396055 1_555
Na1 O137 2.411815 1_555
Na1 O107 2.539382 1_555
Na1 O135 2.589964 1_555
Na1 O65 2.829080 1_555
Na1 O21 2.883788 1_555
Na1 O1 2.967323 1_555
Na2 O105 2.360666 1_555
Na2 O132 2.481642 1_655
Na2 O103 2.487609 1_555
Na2 O136 2.643394 1_655
Na2 O60 2.792592 1_655
Na2 O3 2.793371 1_555
Na2 O31 2.797767 1_555
Na2 O22 2.942056 1_655
Na3 O104 2.359255 1_555
Na3 O133 2.476687 1_555
Na3 O102 2.501577 1_555
Na3 O137 2.638554 1_555
Na3 O61 2.699929 1_555
Na3 O30 2.780799 1_555
Na3 O2 2.816916 1_555
Na3 O23 2.937742 1_555
Na4 O100 2.373660 1_555
Na4 O139 2.458161 1_555
Na4 O96 2.510513 1_555
Na4 O10 2.643031 1_555
Na4 O67 2.644638 1_555
Na4 O141 2.669495 1_555
Na4 O24 2.898766 1_555
Na4 O15 2.988415 1_555
Na5 O96 2.360839 1_555
Na5 O140 2.377137 1_545
Na5 O26 2.488470 1_555
Na5 O98 2.508478 1_555
Na5 O142 2.592221 1_545
Na5 O68 2.689330 1_545
Na5 O16 2.947341 1_545
Na5 O6 3.001068 1_555
Na6 O97 2.255780 1_555
Na6 O141 2.412734 1_545
Na6 O27 2.449121 1_555
Na6 O99 2.476885 1_555
Na6 O143 2.608627 1_545
Na6 O69 2.749781 1_545
Na6 O17 2.917326 1_545
Na6 O7 2.965498 1_555
Na7 O87 2.368403 1_555
Na7 O129 2.465861 1_555
Na7 O131 2.478183 1_555
Na7 O57 2.553601 1_555
Na7 O84 2.631307 1_555
Na7 O15 2.750450 1_555
Na7 O43 2.796403 1_555
Na7 O29 2.864455 1_555
Na8 O126 2.337323 1_555
Na8 O89 2.418700 1_455
Na8 O58 2.491899 1_555
Na8 O130 2.518172 1_555
Na8 O86 2.543338 1_565
Na8 O16 2.791988 1_555
Na8 O45 2.965496 1_455
Na8 O25 2.971657 1_455
Na9 O127 2.407316 1_555
Na9 O129 2.409781 1_555
Na9 O85 2.510612 1_565
Na9 O89 2.609734 1_555
Na9 O13 2.711996 1_555
Na9 O55 2.833929 1_555
Na9 O27 2.875633 1_565
Na10 O110 2.345755 1_555
Na10 O81 2.366291 1_555
Na10 O82 2.479594 1_555
Na10 O8 2.514797 1_555
Na10 O108 2.649228 1_555
Na10 O38 2.783350 1_556
Na10 O67 2.836200 1_555
Na11 O111 2.400118 1_555
Na11 O80 2.485462 1_655
Na11 O9 2.517389 1_555
Na11 O83 2.530901 1_555
Na11 O109 2.613291 1_555
Na11 O39 2.786206 1_556
Na11 O66 2.798655 1_655
Na11 O52 2.869309 1_655
Na12 O78 2.338428 1_655
Na12 O113 2.424009 1_555
Na12 O11 2.430152 1_555
Na12 O83 2.518278 1_545
Na12 O111 2.635060 1_555
Na12 O41 2.806688 1_556
Na12 O69 2.915659 1_545
Na13 O80 2.404418 1_545
Na13 O78 2.476146 1_555
Na13 O108 2.509785 1_555
Na13 O112 2.632434 1_555
Na13 O50 2.655293 1_555
Na13 O36 2.776147 1_556
Na13 O6 2.802451 1_555
Na13 O70 2.934846 1_555
Na14 O118 2.367171 1_555
Na14 O77 2.380705 1_555
Na14 O4 2.515661 1_555
Na14 O74 2.560742 1_545
Na14 O114 2.587229 1_555
Na14 O46 2.782004 1_555
Na14 O61 2.837173 1_555
Na14 O57 2.980552 1_555
Na15 O119 2.312735 1_555
Na15 O76 2.393380 1_655
Na15 O5 2.499191 1_555
Na15 O115 2.543435 1_555
Na15 O75 2.555988 1_545
Na15 O47 2.721371 1_555
Na15 O60 2.877126 1_655
Na16 O73 2.244958 1_555
Na16 O116 2.415441 1_555
Na16 O2 2.465594 1_555
Na16 O74 2.510395 1_555
Na16 O118 2.629807 1_555
Na16 O44 2.801498 1_555
Na16 O64 2.920087 1_555
Na17 O72 2.272008 1_555
Na17 O117 2.401847 1_555
Na17 O75 2.469279 1_555
Na17 O3 2.503586 1_555
Na17 O119 2.659635 1_555
Na17 O45 2.713004 1_555
Na18 O76 2.339811 1_555
Na18 O86 2.402924 1_555
Na18 O72 2.490520 1_445
Na18 O89 2.655251 1_445
Na18 O85 2.695136 1_455
Na18 O75 2.901252 1_445
Na19 O73 2.410578 1_555
Na19 O77 2.423816 1_565
Na19 O87 2.451552 1_565
Na19 O88 2.593175 1_555
Na19 O84 2.724775 1_565
Na19 O74 2.851822 1_555
Na20 O94 2.419818 1_555
Na20 O80 2.470796 1_544
Na20 O91 2.533468 1_445
Na20 O93 2.549175 1_455
Na20 O78 2.598917 1_554
Na20 O83 2.826447 1_444
Na21 O79 2.403316 1_555
Na21 O81 2.415009 1_545
Na21 O95 2.495080 1_556
Na21 O92 2.611570 1_556
Na21 O90 2.743891 1_546
Na21 O82 2.810615 1_545
Na22 O100 2.463113 1_555
Na22 O112 2.550634 1_555
Na22 O96 2.554471 1_555
Na22 O110 2.555309 1_555
Na22 O108 2.658482 1_555
Na22 O98 2.805708 1_555
Na23 O101 2.286124 1_555
Na23 O97 2.465552 1_555
Na23 O111 2.646588 1_555
Na23 O99 2.721195 1_555
Na23 O113 2.735153 1_555
Na23 O109 2.745987 1_555
Na24 O104 2.393664 1_555
Na24 O102 2.591953 1_555
Na24 O114 2.619267 1_555
Na24 O116 2.647207 1_555
Na24 O118 2.654377 1_555
Na24 O106 2.667090 1_555
Na25 O105 2.448480 1_555
Na25 O117 2.544192 1_555
Na25 O115 2.566635 1_555
Na25 O119 2.567802 1_555
Na25 O103 2.646538 1_555
Na25 O107 2.706387 1_555
Na26 O120 2.356791 1_555
Na26 O124 2.500039 1_555
Na26 O134 2.566116 1_555
Na26 O136 2.638314 1_555
Na26 O122 2.687011 1_555
Na26 O132 2.756004 1_555
Na27 O121 2.350435 1_555
Na27 O125 2.495873 1_555
Na27 O135 2.569865 1_555
Na27 O137 2.632000 1_555
Na27 O123 2.671597 1_555
Na27 O133 2.745809 1_555
Na28 O142 2.427873 1_555
Na28 O140 2.507160 1_555
Na28 O138 2.527005 1_555
Na28 O126 2.568923 1_555
Na28 O128 2.592764 1_555
Na28 O130 2.798494 1_555
Na29 O129 2.442965 1_555
Na29 O143 2.491063 1_555
Na29 O127 2.514781 1_555
Na29 O141 2.520124 1_555
Na29 O139 2.662662 1_555
Na29 O131 2.736154 1_555
O0 S0 1.479907 1_545
O0 Sc0 2.092926 1_545
O1 S1 1.482351 1_545
O1 Sc1 2.084398 1_545
O2 Si0 1.621203 1_555
O2 Sc1 2.030442 1_555
O3 Si1 1.622171 1_555
O3 Sc0 2.024414 1_655
O4 Si3 1.603343 1_555
O4 Sc1 2.028690 1_545
O5 Si2 1.600374 1_555
O5 Sc0 2.036643 1_645
O6 S2 1.497654 1_555
O6 Sc2 2.109440 1_445
O7 S3 1.468581 1_555
O7 Sc3 2.116209 1_555
O8 Si5 1.592828 1_555
O8 Sc3 2.083847 1_565
O9 Si4 1.611501 1_555
O9 Sc2 1.999993 1_555
O10 Si6 1.603364 1_545
O10 Sc3 1.987985 1_555
O11 Si7 1.616112 1_545
O11 Sc2 1.979424 1_545
O12 Si6 1.689354 1_555
O12 Ti1 1.819108 1_555
O13 Si7 1.680817 1_555
O13 Ti0 1.881663 1_555
O14 S2 1.477339 1_555
O14 Ti0 2.226943 1_445
O15 S3 1.506928 1_555
O15 Ti1 2.222516 1_545
O16 Si4 1.698924 1_455
O16 Ti0 1.820574 1_455
O17 Si5 1.699562 1_555
O17 Ti1 1.785482 1_555
O18 Si0 1.657903 1_555
O18 Ti3 1.875717 1_565
O19 Si1 1.663678 1_555
O19 Ti2 1.874761 1_565
O20 Si2 1.678435 1_455
O20 Ti2 1.811218 1_455
O21 Si3 1.677362 1_555
O21 Ti3 1.816514 1_555
O22 S0 1.490992 1_555
O22 Ti2 2.230514 1_465
O23 S1 1.487945 1_555
O23 Ti3 2.224128 1_565
O24 S4 1.469929 1_555
O24 Sc4 2.076545 1_555
O25 S5 1.468398 1_555
O25 Sc5 2.095857 1_555
O26 Si8 1.602432 1_555
O26 Sc4 1.976252 1_555
O27 Si9 1.612858 1_555
O27 Sc5 2.051473 1_555
O28 S6 1.462506 1_555
O28 Sc4 2.174201 1_555
O29 Si10 1.591012 1_555
O29 Sc5 1.999272 1_555
O30 S7 1.489474 1_555
O30 Sc6 2.045415 1_555
O31 S8 1.485559 1_555
O31 Sc7 2.056666 1_555
O32 S9 1.456463 1_555
O32 Sc6 2.162006 1_555
O33 S10 1.462424 1_555
O33 Sc7 2.154590 1_555
O34 Si11 1.615873 1_555
O34 Sc6 1.963098 1_555
O35 Si12 1.614732 1_555
O35 Sc7 1.968730 1_555
O36 Si11 1.695072 1_555
O36 Ti4 1.868419 1_554
O37 Si12 1.708331 1_555
O37 Ti5 1.797892 1_554
O38 S7 1.485171 1_555
O38 Ti4 2.334060 1_554
O39 S8 1.488349 1_555
O39 Ti5 2.317491 1_554
O40 S9 1.512671 1_555
O40 Ti4 1.990631 1_554
O41 S10 1.511008 1_555
O41 Ti5 2.097061 1_554
O42 Si8 1.704043 1_555
O42 Ti6 1.807635 1_555
O43 Si9 1.698150 1_555
O43 Ti7 1.852355 1_555
O44 S6 1.515578 1_555
O44 Ti6 2.071978 1_555
O45 Si10 1.699139 1_555
O45 Ti7 1.835041 1_555
O46 S4 1.485159 1_555
O46 Ti6 2.288344 1_555
O47 S5 1.494695 1_555
O47 Ti7 2.345088 1_555
O48 S11 1.462061 1_555
O48 Sc8 2.111470 1_556
O49 S12 1.461853 1_555
O49 Sc9 2.139032 1_556
O50 Si13 1.610387 1_555
O50 Sc8 1.941007 1_556
O51 Si14 1.598844 1_555
O51 Sc9 1.899970 1_556
O52 Si15 1.590049 1_555
O52 Sc8 2.025435 1_556
O53 Si16 1.586539 1_555
O53 Sc9 2.012480 1_556
O54 S13 1.463204 1_555
O54 Sc10 2.084591 1_555
O55 S14 1.475093 1_555
O55 Sc11 2.140412 1_555
O56 Si17 1.591668 1_555
O56 Sc10 1.986116 1_555
O57 Si18 1.604284 1_555
O57 Sc11 2.064819 1_555
O58 Si19 1.614768 1_555
O58 Sc10 1.961380 1_555
O59 Si20 1.594597 1_555
O59 Sc11 1.929377 1_555
O60 Si19 1.683154 1_555
O60 Ti8 1.906407 1_555
O61 Si20 1.682911 1_555
O61 Ti9 1.921561 1_555
O62 S13 1.465734 1_555
O62 Ti8 2.338583 1_555
O63 S14 1.472463 1_555
O63 Ti9 2.288528 1_555
O64 Si17 1.695472 1_555
O64 Ti8 1.846802 1_555
O65 Si18 1.699969 1_555
O65 Ti9 1.835390 1_555
O66 Si13 1.676781 1_555
O66 Ti10 1.880331 1_555
O67 Si14 1.691978 1_555
O67 Ti11 1.927323 1_555
O68 Si15 1.679736 1_555
O68 Ti10 1.843087 1_555
O69 Si16 1.706423 1_555
O69 Ti11 1.834215 1_555
O70 S11 1.477949 1_555
O70 Ti10 2.345216 1_555
O71 S12 1.462552 1_555
O71 Ti11 2.327822 1_555
O72 Si19 1.620731 1_655
O72 Sc0 2.086659 1_655
O73 Si20 1.621224 1_555
O73 Sc1 2.088260 1_555
O74 S13 1.491825 1_555
O74 Sc1 2.204608 1_555
O75 S14 1.496552 1_555
O75 Sc0 2.181686 1_655
O76 Si17 1.604692 1_555
O76 Sc0 2.125422 1_545
O77 Si18 1.609617 1_555
O77 Sc1 2.103836 1_545
O78 Si13 1.630961 1_555
O78 Sc2 2.104722 1_445
O79 Si14 1.603532 1_555
O79 Sc3 2.013221 1_555
O80 Si15 1.632936 1_555
O80 Sc2 2.169643 1_455
O81 Si16 1.600807 1_555
O81 Sc3 2.154751 1_565
O82 S11 1.472658 1_555
O82 Sc3 2.158577 1_565
O83 S12 1.503489 1_555
O83 Sc2 2.201807 1_555
O84 S4 1.486860 1_555
O84 Ti1 2.364058 1_545
O85 S5 1.486361 1_555
O85 Ti0 2.323824 1_545
O86 Si8 1.658479 1_555
O86 Ti0 1.975030 1_445
O87 Si9 1.664412 1_555
O87 Ti1 1.981513 1_545
O88 S6 1.511132 1_555
O88 Ti1 2.112651 1_555
O89 Si10 1.667410 1_555
O89 Ti0 1.945471 1_555
O90 S7 1.484962 1_555
O90 Ti3 2.286500 1_565
O91 S8 1.486394 1_555
O91 Ti2 2.317468 1_565
O92 S9 1.508548 1_555
O92 Ti3 2.096733 1_555
O93 S10 1.517587 1_555
O93 Ti2 2.094806 1_555
O94 Si11 1.680646 1_555
O94 Ti2 1.908965 1_455
O95 Si12 1.670451 1_555
O95 Ti3 1.898803 1_555
O96 Si6 1.648231 1_545
O96 Sc4 2.028465 1_555
O97 Si7 1.623880 1_545
O97 Sc5 2.103593 1_555
O98 S2 1.490623 1_555
O98 Sc4 2.134780 1_555
O99 S3 1.468083 1_555
O99 Sc5 2.161852 1_555
O100 Si5 1.610909 1_555
O100 Sc4 2.107148 1_555
O101 Si4 1.592070 1_555
O101 Sc5 2.063765 1_555
O102 Si0 1.646837 1_555
O102 Sc6 2.056702 1_555
O103 Si1 1.647094 1_555
O103 Sc7 2.053525 1_555
O104 Si3 1.608293 1_555
O104 Sc6 2.126727 1_555
O105 Si2 1.608777 1_555
O105 Sc7 2.123731 1_555
O106 S0 1.473618 1_545
O106 Sc6 2.178182 1_555
O107 S1 1.474727 1_545
O107 Sc7 2.168327 1_555
O108 S11 1.521811 1_555
O108 Ti4 2.221420 1_555
O109 S12 1.511243 1_555
O109 Ti5 2.100770 1_555
O110 Si14 1.689102 1_555
O110 Ti4 1.929204 1_555
O111 Si13 1.659231 1_655
O111 Ti5 2.023299 1_555
O112 Si15 1.682374 1_545
O112 Ti4 1.849956 1_555
O113 Si16 1.690485 1_545
O113 Ti5 1.840919 1_555
O114 S13 1.506581 1_545
O114 Ti6 2.126306 1_555
O115 S14 1.490773 1_545
O115 Ti7 2.307773 1_555
O116 Si17 1.681321 1_555
O116 Ti6 1.860650 1_555
O117 Si18 1.668731 1_555
O117 Ti7 1.890499 1_555
O118 Si20 1.688189 1_555
O118 Ti6 1.985570 1_555
O119 Si19 1.675889 1_655
O119 Ti7 2.017417 1_555
O120 Si11 1.617149 1_555
O120 Sc8 2.057706 1_555
O121 Si12 1.608101 1_555
O121 Sc9 2.059969 1_555
O122 S8 1.477034 1_455
O122 Sc8 2.146811 1_555
O123 S7 1.476976 1_555
O123 Sc9 2.137622 1_555
O124 S9 1.465775 1_565
O124 Sc8 2.350682 1_555
O125 S10 1.460416 1_565
O125 Sc9 2.373222 1_555
O126 Si8 1.631836 1_565
O126 Sc10 2.076860 1_555
O127 Si9 1.614255 1_565
O127 Sc11 2.049709 1_555
O128 S6 1.463466 1_555
O128 Sc10 2.310073 1_555
O129 Si10 1.616268 1_555
O129 Sc11 2.187032 1_555
O130 S5 1.478583 1_455
O130 Sc10 2.149938 1_555
O131 S4 1.491003 1_555
O131 Sc11 2.156852 1_555
O132 S0 1.485038 1_555
O132 Ti8 2.315290 1_555
O133 S1 1.482698 1_555
O133 Ti9 2.316326 1_555
O134 Si0 1.657013 1_555
O134 Ti8 1.933463 1_555
O135 Si1 1.656448 1_555
O135 Ti9 1.946295 1_555
O136 Si2 1.697028 1_455
O136 Ti8 1.890290 1_555
O137 Si3 1.695012 1_555
O137 Ti9 1.900369 1_555
O138 S2 1.468177 1_555
O138 Ti10 2.304679 1_555
O139 S3 1.484792 1_555
O139 Ti11 2.356884 1_555
O140 Si4 1.682961 1_455
O140 Ti10 1.883167 1_555
O141 Si5 1.688434 1_555
O141 Ti11 1.913150 1_555
O142 Si6 1.641679 1_555
O142 Ti10 1.986675 1_555
O143 Si7 1.677017 1_555
O143 Ti11 1.924579 1_555
