# generated using pymatgen
data_EuMnO3
_symmetry_space_group_name_H-M   'P 1'
_cell_length_a   5.40858695
_cell_length_b   5.41134345
_cell_length_c   7.67572013
_cell_angle_alpha   90.00000000
_cell_angle_beta   90.00000000
_cell_angle_gamma   90.00000000
_symmetry_Int_Tables_number   1
_chemical_formula_structural   EuMnO3
_chemical_formula_sum   'Eu4 Mn4 O12'
_cell_volume   224.65083958
_cell_formula_units_Z   4
loop_
 _symmetry_equiv_pos_site_id
 _symmetry_equiv_pos_as_xyz
  1  'x, y, z'
loop_
 _atom_site_type_symbol
 _atom_site_label
 _atom_site_symmetry_multiplicity
 _atom_site_fract_x
 _atom_site_fract_y
 _atom_site_fract_z
 _atom_site_occupancy
  Eu  Eu0  1  0.00360466  0.97257224  0.75000000  1
  Eu  Eu1  1  0.50360466  0.52742776  0.25000000  1
  Eu  Eu2  1  0.49639534  0.47257224  0.75000000  1
  Eu  Eu3  1  0.99639534  0.02742776  0.25000000  1
  Mn  Mn0  1  0.50000000  0.00000000  0.50000000  1
  Mn  Mn1  1  0.00000000  0.50000000  0.50000000  1
  Mn  Mn2  1  0.00000000  0.50000000  0.00000000  1
  Mn  Mn3  1  0.50000000  -0.00000000  0.00000000  1
  O  O0  1  0.71661280  0.28371563  0.46935172  1
  O  O1  1  0.21661280  0.21628437  0.53064828  1
  O  O2  1  0.78338720  0.78371563  0.03064828  1
  O  O3  1  0.28338720  0.71628437  0.96935172  1
  O  O4  1  0.28338720  0.71628437  0.53064828  1
  O  O5  1  0.78338720  0.78371563  0.46935172  1
  O  O6  1  0.21661280  0.21628437  0.96935172  1
  O  O7  1  0.71661280  0.28371563  0.03064828  1
  O  O8  1  0.05909368  0.49121848  0.25000000  1
  O  O9  1  0.55909368  0.00878152  0.75000000  1
  O  O10  1  0.44090632  0.99121848  0.25000000  1
  O  O11  1  0.94090632  0.50878152  0.75000000  1
loop_
_geom_bond_atom_site_label_1
_geom_bond_atom_site_label_2
_geom_bond_distance
_geom_bond_site_symmetry_2
Eu0 O9 2.412148 1_465
Eu0 O1 2.429263 1_565
Eu0 O6 2.429263 1_565
Eu0 O11 2.532537 1_455
Eu0 O4 2.654813 1_555
Eu0 O3 2.654813 1_555
Eu0 O5 2.665246 1_455
Eu0 O2 2.665246 1_456
Eu0 O11 2.921361 1_465
Eu0 O9 3.010793 1_565
Eu0 O0 3.143999 1_465
Eu0 O7 3.143999 1_466
Eu1 O8 2.412148 1_555
Eu1 O0 2.429263 1_555
Eu1 O7 2.429263 1_555
Eu1 O10 2.532537 1_555
Eu1 O2 2.654813 1_555
Eu1 O5 2.654813 1_555
Eu1 O4 2.665246 1_555
Eu1 O3 2.665246 1_554
Eu1 O10 2.921361 1_545
Eu1 O8 3.010793 1_655
Eu1 O6 3.143999 1_554
Eu1 O1 3.143999 1_555
Eu2 O11 2.412148 1_555
Eu2 O4 2.429263 1_555
Eu2 O3 2.429263 1_555
Eu2 O9 2.532537 1_555
Eu2 O1 2.654813 1_555
Eu2 O6 2.654813 1_555
Eu2 O0 2.665246 1_555
Eu2 O7 2.665246 1_556
Eu2 O9 2.921361 1_565
Eu2 O11 3.010793 1_455
Eu2 O5 3.143999 1_555
Eu2 O2 3.143999 1_556
Eu3 O10 2.412148 1_645
Eu3 O2 2.429263 1_545
Eu3 O5 2.429263 1_545
Eu3 O8 2.532537 1_655
Eu3 O7 2.654813 1_555
Eu3 O0 2.654813 1_555
Eu3 O1 2.665246 1_655
Eu3 O6 2.665246 1_654
Eu3 O8 2.921361 1_645
Eu3 O10 3.010793 1_545
Eu3 O3 3.143999 1_644
Eu3 O4 3.143999 1_645
Mn0 O5 1.942780 1_545
Mn0 O1 1.942780 1_555
Mn0 O0 1.945510 1_555
Mn0 O4 1.945510 1_545
Mn0 O9 1.945945 1_555
Mn0 O10 1.945945 1_545
Mn1 O4 1.942780 1_555
Mn1 O0 1.942780 1_455
Mn1 O1 1.945510 1_555
Mn1 O5 1.945510 1_455
Mn1 O11 1.945945 1_455
Mn1 O8 1.945945 1_555
Mn2 O3 1.942780 1_554
Mn2 O7 1.942780 1_455
Mn2 O6 1.945510 1_554
Mn2 O2 1.945510 1_455
Mn2 O11 1.945945 1_454
Mn2 O8 1.945945 1_555
Mn3 O2 1.942780 1_545
Mn3 O6 1.942780 1_554
Mn3 O7 1.945510 1_555
Mn3 O3 1.945510 1_544
Mn3 O9 1.945945 1_554
Mn3 O10 1.945945 1_545
