# generated using pymatgen
data_MgCo(NiO2)4
_symmetry_space_group_name_H-M   'P 1'
_cell_length_a   10.41877624
_cell_length_b   10.41878015
_cell_length_c   14.88930725
_cell_angle_alpha   18.64136905
_cell_angle_beta   18.64139028
_cell_angle_gamma   31.71943127
_symmetry_Int_Tables_number   1
_chemical_formula_structural   MgCo(NiO2)4
_chemical_formula_sum   'Mg1 Co1 Ni4 O8'
_cell_volume   146.46247977
_cell_formula_units_Z   1
loop_
 _symmetry_equiv_pos_site_id
 _symmetry_equiv_pos_as_xyz
  1  'x, y, z'
loop_
 _atom_site_type_symbol
 _atom_site_label
 _atom_site_symmetry_multiplicity
 _atom_site_fract_x
 _atom_site_fract_y
 _atom_site_fract_z
 _atom_site_occupancy
  Mg  Mg0  1  0.03784100  0.03784100  0.80573900  1
  Co  Co0  1  0.50914900  0.50914900  0.98404600  1
  Ni  Ni0  1  0.98782100  0.48493200  0.01364900  1
  Ni  Ni1  1  0.95966600  0.95966600  0.08736200  1
  Ni  Ni2  1  0.00035800  0.00035800  0.49986800  1
  Ni  Ni3  1  0.48493200  0.98782100  0.01364900  1
  O  O0  1  0.96131600  0.51175000  0.75857500  1
  O  O1  1  0.02892100  0.51433300  0.22868700  1
  O  O2  1  0.96783300  0.96783400  0.30987100  1
  O  O3  1  0.01392600  0.01392500  0.70631200  1
  O  O4  1  0.42340000  0.42340000  0.83860900  1
  O  O5  1  0.54875300  0.54875300  0.18998200  1
  O  O6  1  0.51175100  0.96131600  0.75857400  1
  O  O7  1  0.51433200  0.02892100  0.22868800  1
loop_
_geom_bond_atom_site_label_1
_geom_bond_atom_site_label_2
_geom_bond_distance
_geom_bond_site_symmetry_2
Mg0 O3 1.954343 1_555
Mg0 O5 1.990211 1_555
Mg0 O1 2.019071 1_546
Mg0 O7 2.019079 1_456
Co0 O2 1.864032 1_555
Co0 O6 1.880966 1_555
Co0 O0 1.880970 1_555
Co0 O7 1.918374 1_556
Co0 O1 1.918378 1_556
Co0 O3 1.969787 1_556
Ni0 O4 1.897687 1_654
Ni0 O5 1.906490 1_555
Ni0 O2 1.912904 1_545
Ni0 O3 1.945989 1_664
Ni0 O6 2.120012 1_545
Ni0 O7 2.162149 1_664
Ni1 O0 1.922856 1_564
Ni1 O6 1.922859 1_654
Ni1 O4 1.946598 1_555
Ni1 O7 2.270674 1_565
Ni1 O1 2.270677 1_655
Ni2 O5 2.068864 1_446
Ni2 O0 2.076284 1_445
Ni2 O6 2.076285 1_445
Ni2 O4 2.089275 1_554
Ni2 O1 2.127564 1_555
Ni2 O7 2.127564 1_555
Ni3 O4 1.897688 1_564
Ni3 O5 1.906491 1_555
Ni3 O2 1.912909 1_455
Ni3 O3 1.945993 1_664
Ni3 O0 2.120016 1_455
Ni3 O1 2.162153 1_664
