# generated using pymatgen
data_Sr2HfMgCrO6
_symmetry_space_group_name_H-M   'P 1'
_cell_length_a   6.83993190
_cell_length_b   6.84135232
_cell_length_c   6.33398477
_cell_angle_alpha   72.21355603
_cell_angle_beta   131.81564071
_cell_angle_gamma   131.35568486
_symmetry_Int_Tables_number   1
_chemical_formula_structural   Sr2HfMgCrO6
_chemical_formula_sum   'Sr2 Hf1 Mg1 Cr1 O6'
_cell_volume   160.90849759
_cell_formula_units_Z   1
loop_
 _symmetry_equiv_pos_site_id
 _symmetry_equiv_pos_as_xyz
  1  'x, y, z'
loop_
 _atom_site_type_symbol
 _atom_site_label
 _atom_site_symmetry_multiplicity
 _atom_site_fract_x
 _atom_site_fract_y
 _atom_site_fract_z
 _atom_site_occupancy
  Sr  Sr0  1  0.55517399  0.23243475  0.77242555  1
  Sr  Sr1  1  0.49942047  0.80208042  0.29537130  1
  Hf  Hf0  1  0.02220832  0.51235095  0.53247842  1
  Mg  Mg0  1  0.52149442  0.51188866  0.03285203  1
  Cr  Cr0  1  0.02389839  0.01406425  0.03257907  1
  O  O0  1  0.20046598  0.34834372  0.56358185  1
  O  O1  1  0.82373319  0.65704672  0.49969203  1
  O  O2  1  0.49645664  0.18908553  0.17613968  1
  O  O3  1  0.54760494  0.83501312  0.88327431  1
  O  O4  1  0.98736670  0.68261423  0.17495513  1
  O  O5  1  0.06027197  0.34602964  0.89379364  1
loop_
_geom_bond_atom_site_label_1
_geom_bond_atom_site_label_2
_geom_bond_distance
_geom_bond_site_symmetry_2
Hf0 O0 2.033929 1_555
Hf0 O1 2.034787 1_455
Hf0 O4 2.139496 1_455
Hf0 O3 2.142485 1_555
Hf0 O5 2.146174 1_555
Hf0 O2 2.152668 1_455
Mg0 O5 2.047091 1_554
Mg0 O2 2.052576 1_555
Mg0 O4 2.056152 1_555
Mg0 O3 2.059288 1_554
Mg0 O1 2.221081 1_555
Mg0 O0 2.233899 1_554
Cr0 O5 2.077926 1_554
Cr0 O4 2.078453 1_445
Cr0 O3 2.081856 1_444
Cr0 O2 2.083182 1_555
O0 Sr0 2.426288 1_555
O0 Sr1 3.030003 1_445
O0 Sr1 3.118616 1_555
O1 Sr1 2.424057 1_555
O1 Sr0 2.985168 1_555
O1 Sr0 3.180356 1_665
O2 Sr1 2.531732 1_545
O2 Sr0 2.745337 1_554
O3 Sr0 2.565981 1_565
O3 Sr1 2.768094 1_556
O4 Sr1 2.559795 1_655
O4 Sr0 2.727715 1_554
O5 Sr0 2.531058 1_455
O5 Sr1 2.739107 1_556
