# generated using pymatgen
data_Eu(ZnSi)2
_symmetry_space_group_name_H-M   'P 1'
_cell_length_a   4.24089955
_cell_length_b   4.24089925
_cell_length_c   5.89300630
_cell_angle_alpha   111.08943341
_cell_angle_beta   111.08942583
_cell_angle_gamma   90.00000969
_symmetry_Int_Tables_number   1
_chemical_formula_structural   Eu(ZnSi)2
_chemical_formula_sum   'Eu1 Zn2 Si2'
_cell_volume   91.23832240
_cell_formula_units_Z   1
loop_
 _symmetry_equiv_pos_site_id
 _symmetry_equiv_pos_as_xyz
  1  'x, y, z'
loop_
 _atom_site_type_symbol
 _atom_site_label
 _atom_site_symmetry_multiplicity
 _atom_site_fract_x
 _atom_site_fract_y
 _atom_site_fract_z
 _atom_site_occupancy
  Eu  Eu0  1  0.00000000  -0.00000000  -0.00000000  1
  Zn  Zn0  1  0.75000000  0.25000000  0.50000000  1
  Zn  Zn1  1  0.25000000  0.75000000  0.50000000  1
  Si  Si0  1  0.61649902  0.61649902  0.23299804  1
  Si  Si1  1  0.38350098  0.38350098  0.76700196  1
loop_
_geom_bond_atom_site_label_1
_geom_bond_atom_site_label_2
_geom_bond_distance
_geom_bond_site_symmetry_2
Eu0 Si0 3.223307 1_445
Eu0 Si1 3.223307 1_554
Eu0 Si1 3.223308 1_444
Eu0 Si0 3.223308 1_555
Eu0 Si0 3.223308 1_455
Eu0 Si1 3.223308 1_544
Eu0 Si1 3.223308 1_454
Eu0 Si0 3.223308 1_545
Eu0 Zn0 3.306060 1_455
Eu0 Zn1 3.306060 1_544
Eu0 Zn1 3.306060 1_555
Eu0 Zn0 3.306060 1_444
Eu0 Zn1 3.306060 1_545
Eu0 Zn0 3.306060 1_454
Eu0 Zn1 3.306061 1_444
Eu0 Zn0 3.306061 1_555
Si0 Si1 2.363979 1_554
Si0 Zn0 2.516138 1_565
Si0 Zn1 2.516138 1_555
Si0 Zn0 2.516138 1_555
Si0 Zn1 2.516138 1_655
Si1 Zn1 2.516138 1_545
Si1 Zn0 2.516138 1_555
Si1 Zn1 2.516138 1_555
Si1 Zn0 2.516138 1_455
