# generated using pymatgen
data_Li8Nb2O9
_symmetry_space_group_name_H-M   'P 1'
_cell_length_a   5.86059300
_cell_length_b   8.79241979
_cell_length_c   15.17605624
_cell_angle_alpha   87.09864813
_cell_angle_beta   100.86554220
_cell_angle_gamma   109.33700738
_symmetry_Int_Tables_number   1
_chemical_formula_structural   Li8Nb2O9
_chemical_formula_sum   'Li32 Nb8 O36'
_cell_volume   724.60144831
_cell_formula_units_Z   4
loop_
 _symmetry_equiv_pos_site_id
 _symmetry_equiv_pos_as_xyz
  1  'x, y, z'
loop_
 _atom_site_type_symbol
 _atom_site_label
 _atom_site_symmetry_multiplicity
 _atom_site_fract_x
 _atom_site_fract_y
 _atom_site_fract_z
 _atom_site_occupancy
  Li  Li0  1  0.40503789  0.90804311  0.64256469  1
  Li  Li1  1  0.59496211  0.09195689  0.35743531  1
  Li  Li2  1  0.97533958  0.84083265  0.85202399  1
  Li  Li3  1  0.02466042  0.15916735  0.14797601  1
  Li  Li4  1  0.13403268  0.34024830  0.65985133  1
  Li  Li5  1  0.86596732  0.65975170  0.34014867  1
  Li  Li6  1  0.25512528  0.40827371  0.84656945  1
  Li  Li7  1  0.74487472  0.59172629  0.15343055  1
  Li  Li8  1  0.79093351  0.12418400  0.73725302  1
  Li  Li9  1  0.20906649  0.87581600  0.26274698  1
  Li  Li10  1  0.32929369  0.12343727  0.73783851  1
  Li  Li11  1  0.67070631  0.87656273  0.26216149  1
  Li  Li12  1  0.05302817  0.62444690  0.76096697  1
  Li  Li13  1  0.94697183  0.37555310  0.23903303  1
  Li  Li14  1  0.59183319  0.62189260  0.76295939  1
  Li  Li15  1  0.40816681  0.37810740  0.23704061  1
  Li  Li16  1  0.43199908  0.12173751  0.96205583  1
  Li  Li17  1  0.56800092  0.87826249  0.03794417  1
  Li  Li18  1  0.91705387  0.12150344  0.97677923  1
  Li  Li19  1  0.08294613  0.87849656  0.02322077  1
  Li  Li20  1  0.17238337  0.62789577  0.94513327  1
  Li  Li21  1  0.82761663  0.37210423  0.05486673  1
  Li  Li22  1  0.67615019  0.63041747  0.96297716  1
  Li  Li23  1  0.32384981  0.36958253  0.03702284  1
  Li  Li24  1  0.70485506  0.12570652  0.53920529  1
  Li  Li25  1  0.29514494  0.87429348  0.46079471  1
  Li  Li26  1  0.21486877  0.12728882  0.55014946  1
  Li  Li27  1  0.78513123  0.87271118  0.44985054  1
  Li  Li28  1  0.94020775  0.62263414  0.52217106  1
  Li  Li29  1  0.05979225  0.37736586  0.47782894  1
  Li  Li30  1  0.47773859  0.62636774  0.54275584  1
  Li  Li31  1  0.52226141  0.37363226  0.45724416  1
  Nb  Nb0  1  0.89298446  0.87666103  0.64419045  1
  Nb  Nb1  1  0.25681042  0.62689701  0.13825965  1
  Nb  Nb2  1  0.74318958  0.37310299  0.86174035  1
  Nb  Nb3  1  0.35782803  0.62491443  0.35680597  1
  Nb  Nb4  1  0.64217197  0.37508557  0.64319403  1
  Nb  Nb5  1  0.50555594  0.12681315  0.14991733  1
  Nb  Nb6  1  0.49444406  0.87318685  0.85008267  1
  Nb  Nb7  1  0.10701554  0.12333897  0.35580955  1
  O  O0  1  0.98636568  0.89185371  0.34441236  1
  O  O1  1  0.13899818  0.39382153  0.14364712  1
  O  O2  1  0.86100182  0.60617847  0.85635288  1
  O  O3  1  0.46422434  0.63672618  0.05345929  1
  O  O4  1  0.53577566  0.36327382  0.94654071  1
  O  O5  1  0.97115675  0.64148559  0.05797570  1
  O  O6  1  0.02884325  0.35851441  0.94202430  1
  O  O7  1  0.47736918  0.85804978  0.35632972  1
  O  O8  1  0.69464502  0.87649034  0.75051240  1
  O  O9  1  0.30535498  0.12350966  0.24948760  1
  O  O10  1  0.19179986  0.87233221  0.74704580  1
  O  O11  1  0.80820014  0.12766779  0.25295420  1
  O  O12  1  0.76447386  0.62666212  0.65691569  1
  O  O13  1  0.23552614  0.37333788  0.34308431  1
  O  O14  1  0.60417803  0.12381183  0.84240608  1
  O  O15  1  0.39582197  0.87618817  0.15759392  1
  O  O16  1  0.45576504  0.37398224  0.75223164  1
  O  O17  1  0.54423496  0.62601776  0.24776836  1
  O  O18  1  0.92759734  0.37484075  0.74945462  1
  O  O19  1  0.07240266  0.62515925  0.25054538  1
  O  O20  1  0.08082586  0.86486204  0.55513956  1
  O  O21  1  0.91917414  0.13513796  0.44486044  1
  O  O22  1  0.15943615  0.61369486  0.44524703  1
  O  O23  1  0.40196922  0.13393424  0.44163119  1
  O  O24  1  0.01363432  0.10814629  0.65558764  1
  O  O25  1  0.52263082  0.14195022  0.64367028  1
  O  O26  1  0.78053732  0.88549236  0.94189125  1
  O  O27  1  0.21946268  0.11450764  0.05810875  1
  O  O28  1  0.29396089  0.88385529  0.93755447  1
  O  O29  1  0.70603911  0.11614471  0.06244553  1
  O  O30  1  0.36968458  0.64082215  0.84378510  1
  O  O31  1  0.63031542  0.35917785  0.15621490  1
  O  O32  1  0.35179456  0.38710413  0.56185303  1
  O  O33  1  0.64820544  0.61289587  0.43814697  1
  O  O34  1  0.84056385  0.38630514  0.55475297  1
  O  O35  1  0.59803078  0.86606576  0.55836881  1
loop_
_geom_bond_atom_site_label_1
_geom_bond_atom_site_label_2
_geom_bond_distance
_geom_bond_site_symmetry_2
Li0 O25 1.940457 1_565
Li0 O35 1.979201 1_555
Li0 O20 2.034102 1_555
Li0 O10 2.147395 1_555
Li0 O8 2.204314 1_555
Li1 O7 1.940457 1_545
Li1 O23 1.979201 1_555
Li1 O21 2.034102 1_555
Li1 O11 2.147395 1_555
Li1 O9 2.204314 1_555
Li2 O2 1.948679 1_555
Li2 O28 1.995723 1_655
Li2 O26 2.062937 1_555
Li2 O8 2.124839 1_555
Li2 O10 2.169970 1_655
Li3 O1 1.948679 1_555
Li3 O29 1.995723 1_455
Li3 O27 2.062937 1_555
Li3 O9 2.124839 1_555
Li3 O11 2.169970 1_455
Li4 O24 1.925935 1_555
Li4 O16 2.069752 1_555
Li4 O18 2.076326 1_455
Li4 O32 2.077414 1_555
Li4 O34 2.242240 1_455
Li5 O0 1.925935 1_555
Li5 O17 2.069752 1_555
Li5 O19 2.076326 1_655
Li5 O33 2.077414 1_555
Li5 O22 2.242240 1_655
Li6 O30 1.930294 1_555
Li6 O6 2.079538 1_555
Li6 O16 2.106284 1_555
Li6 O18 2.132296 1_455
Li6 O4 2.143141 1_555
Li7 O31 1.930294 1_555
Li7 O5 2.079538 1_555
Li7 O17 2.106284 1_555
Li7 O19 2.132296 1_655
Li7 O3 2.143141 1_555
Li8 O25 1.952480 1_555
Li8 O24 2.002184 1_655
Li8 O8 2.070370 1_545
Li8 O18 2.085496 1_555
Li8 O14 2.097649 1_555
Li9 O7 1.952480 1_555
Li9 O0 2.002184 1_455
Li9 O9 2.070370 1_565
Li9 O19 2.085496 1_555
Li9 O15 2.097649 1_555
Li10 O25 1.953834 1_555
Li10 O24 1.995043 1_555
Li10 O14 2.036368 1_555
Li10 O16 2.087153 1_555
Li10 O10 2.091973 1_545
Li11 O7 1.953834 1_555
Li11 O0 1.995043 1_555
Li11 O15 2.036368 1_555
Li11 O17 2.087153 1_555
Li11 O11 2.091973 1_565
Li12 O2 1.964364 1_455
Li12 O30 2.001597 1_555
Li12 O10 2.073795 1_555
Li12 O18 2.075898 1_455
Li12 O12 2.089414 1_455
Li13 O1 1.964364 1_655
Li13 O31 2.001597 1_555
Li13 O11 2.073795 1_555
Li13 O19 2.075898 1_655
Li13 O13 2.089414 1_655
Li14 O2 1.948847 1_555
Li14 O30 1.998381 1_555
Li14 O12 2.048005 1_555
Li14 O16 2.061432 1_555
Li14 O8 2.125233 1_555
Li15 O1 1.948847 1_555
Li15 O31 1.998381 1_555
Li15 O13 2.048005 1_555
Li15 O17 2.061432 1_555
Li15 O9 2.125233 1_555
Li16 O28 2.003026 1_545
Li16 O29 2.006271 1_556
Li16 O4 2.020741 1_555
Li16 O27 2.074405 1_556
Li16 O14 2.234049 1_555
Li17 O29 2.003026 1_565
Li17 O28 2.006271 1_554
Li17 O3 2.020741 1_555
Li17 O26 2.074405 1_554
Li17 O15 2.234049 1_555
Li18 O29 1.945027 1_556
Li18 O27 1.976872 1_656
Li18 O26 2.019543 1_545
Li18 O6 2.040813 1_655
Li18 O14 2.476271 1_555
Li19 O28 1.945027 1_554
Li19 O26 1.976872 1_454
Li19 O27 2.019543 1_565
Li19 O5 2.040813 1_455
Li19 O15 2.476271 1_555
Li20 O2 2.012531 1_455
Li20 O30 2.069147 1_555
Li20 O3 2.121058 1_556
Li20 O28 2.128013 1_555
Li20 O6 2.235307 1_555
Li20 O5 2.283230 1_456
Li21 O1 2.012531 1_655
Li21 O31 2.069147 1_555
Li21 O4 2.121058 1_554
Li21 O29 2.128013 1_555
Li21 O5 2.235307 1_555
Li21 O6 2.283230 1_654
Li22 O5 2.010018 1_556
Li22 O3 2.031640 1_556
Li22 O26 2.144530 1_555
Li22 O2 2.164744 1_555
Li22 O4 2.226729 1_555
Li22 O30 2.318069 1_555
Li23 O6 2.010018 1_554
Li23 O4 2.031640 1_554
Li23 O27 2.144530 1_555
Li23 O1 2.164744 1_555
Li23 O3 2.226729 1_555
Li23 O31 2.318069 1_555
Li24 O21 2.057064 1_555
Li24 O23 2.105263 1_555
Li24 O25 2.106306 1_555
Li24 O34 2.171495 1_555
Li24 O35 2.177836 1_545
Li24 O24 2.317449 1_655
Li25 O20 2.057064 1_555
Li25 O35 2.105263 1_555
Li25 O7 2.106306 1_555
Li25 O22 2.171495 1_555
Li25 O23 2.177836 1_565
Li25 O0 2.317449 1_455
Li26 O25 2.045389 1_555
Li26 O24 2.128940 1_555
Li26 O23 2.132282 1_555
Li26 O21 2.141296 1_455
Li26 O32 2.160403 1_555
Li26 O20 2.179712 1_545
Li27 O7 2.045389 1_555
Li27 O0 2.128940 1_555
Li27 O35 2.132282 1_555
Li27 O20 2.141296 1_655
Li27 O33 2.160403 1_555
Li27 O21 2.179712 1_565
Li28 O33 1.911343 1_555
Li28 O22 1.913473 1_655
Li28 O34 2.025946 1_555
Li28 O20 2.062880 1_655
Li28 O12 2.463540 1_555
Li29 O32 1.911343 1_555
Li29 O34 1.913473 1_455
Li29 O22 2.025946 1_555
Li29 O21 2.062880 1_455
Li29 O13 2.463540 1_555
Li30 O35 1.999609 1_555
Li30 O32 2.011217 1_555
Li30 O33 2.056154 1_555
Li30 O22 2.126124 1_555
Li30 O12 2.173796 1_555
Li31 O23 1.999609 1_555
Li31 O33 2.011217 1_555
Li31 O32 2.056154 1_555
Li31 O34 2.126124 1_555
Li31 O13 2.173796 1_555
Nb0 O20 1.923480 1_655
Nb0 O24 1.925839 1_665
Nb0 O35 1.936472 1_555
Nb0 O12 2.086065 1_555
Nb0 O10 2.124229 1_655
Nb0 O8 2.158793 1_555
Nb1 O3 1.910556 1_555
Nb1 O5 1.913359 1_455
Nb1 O1 1.936571 1_555
Nb1 O15 2.084833 1_555
Nb1 O17 2.133395 1_555
Nb1 O19 2.180086 1_555
Nb2 O4 1.910556 1_555
Nb2 O6 1.913359 1_655
Nb2 O2 1.936571 1_555
Nb2 O14 2.084833 1_555
Nb2 O16 2.133395 1_555
Nb2 O18 2.180086 1_555
Nb3 O22 1.913645 1_555
Nb3 O7 1.934430 1_555
Nb3 O33 1.935188 1_555
Nb3 O19 2.093731 1_555
Nb3 O13 2.095305 1_555
Nb3 O17 2.145852 1_555
Nb4 O34 1.913645 1_555
Nb4 O25 1.934430 1_555
Nb4 O32 1.935188 1_555
Nb4 O18 2.093731 1_555
Nb4 O12 2.095305 1_555
Nb4 O16 2.145852 1_555
Nb5 O31 1.929231 1_555
Nb5 O27 1.943863 1_555
Nb5 O29 1.955793 1_555
Nb5 O9 2.074187 1_555
Nb5 O15 2.084890 1_545
Nb5 O11 2.130222 1_555
Nb6 O30 1.929231 1_555
Nb6 O26 1.943863 1_555
Nb6 O28 1.955793 1_555
Nb6 O8 2.074187 1_555
Nb6 O14 2.084890 1_565
Nb6 O10 2.130222 1_555
Nb7 O21 1.923480 1_455
Nb7 O0 1.925839 1_445
Nb7 O23 1.936472 1_555
Nb7 O13 2.086065 1_555
Nb7 O11 2.124229 1_455
Nb7 O9 2.158793 1_555
