# generated using pymatgen
data_KDy2F7
_symmetry_space_group_name_H-M   'P 1'
_cell_length_a   8.17466465
_cell_length_b   8.17466465
_cell_length_c   11.92525256
_cell_angle_alpha   59.67055399
_cell_angle_beta   59.67055399
_cell_angle_gamma   58.49336535
_symmetry_Int_Tables_number   1
_chemical_formula_structural   KDy2F7
_chemical_formula_sum   'K4 Dy8 F28'
_cell_volume   554.07685999
_cell_formula_units_Z   4
loop_
 _symmetry_equiv_pos_site_id
 _symmetry_equiv_pos_as_xyz
  1  'x, y, z'
loop_
 _atom_site_type_symbol
 _atom_site_label
 _atom_site_symmetry_multiplicity
 _atom_site_fract_x
 _atom_site_fract_y
 _atom_site_fract_z
 _atom_site_occupancy
  K  K0  1  0.85479455  0.85479455  0.63306493  1
  K  K1  1  0.35042851  0.35042851  0.95981882  1
  K  K2  1  0.88416313  0.88416313  0.26448628  1
  K  K3  1  0.38057679  0.38057679  0.59134182  1
  Dy  Dy0  1  0.85845000  0.37728786  0.61212946  1
  Dy  Dy1  1  0.37728786  0.85845000  0.61212946  1
  Dy  Dy2  1  0.87736385  0.87736385  0.93329146  1
  Dy  Dy3  1  0.35812602  0.35812602  0.29087191  1
  Dy  Dy4  1  0.87849647  0.35242096  0.29435647  1
  Dy  Dy5  1  0.35242096  0.87849647  0.29435647  1
  Dy  Dy6  1  0.88297593  0.35678613  0.93016831  1
  Dy  Dy7  1  0.35678613  0.88297593  0.93016831  1
  F  F0  1  0.76343741  0.23681575  0.84947509  1
  F  F1  1  0.23681575  0.76343741  0.84947509  1
  F  F2  1  0.78086661  0.24895151  0.52921859  1
  F  F3  1  0.24895151  0.78086661  0.52921859  1
  F  F4  1  0.62183269  0.62183269  0.87595380  1
  F  F5  1  0.01204874  0.01204874  0.36344424  1
  F  F6  1  0.72363777  0.72363777  0.53746338  1
  F  F7  1  0.94855278  0.61309525  0.11168390  1
  F  F8  1  0.61309525  0.94855278  0.11168390  1
  F  F9  1  0.22322476  0.22322476  0.86071240  1
  F  F10  1  0.28611409  0.62233837  0.11272614  1
  F  F11  1  0.62233837  0.28611409  0.11272614  1
  F  F12  1  0.99895732  0.47197907  0.37484335  1
  F  F13  1  0.47197907  0.99895732  0.37484335  1
  F  F14  1  0.94118939  0.29411579  0.11221265  1
  F  F15  1  0.29411579  0.94118939  0.11221265  1
  F  F16  1  0.61380118  0.61380118  0.34922062  1
  F  F17  1  0.01278021  0.01278021  0.69918316  1
  F  F18  1  0.96233969  0.62067902  0.87202601  1
  F  F19  1  0.62067902  0.96233969  0.87202601  1
  F  F20  1  0.27386328  0.61463431  0.35207309  1
  F  F21  1  0.61463431  0.27386328  0.35207309  1
  F  F22  1  0.23059025  0.23059025  0.23065499  1
  F  F23  1  0.51226073  0.51226073  0.68671301  1
  F  F24  1  0.22319121  0.22319121  0.52504675  1
  F  F25  1  0.98632014  0.45509228  0.69518901  1
  F  F26  1  0.45509228  0.98632014  0.69518901  1
  F  F27  1  0.00472418  0.00472418  0.99372832  1
loop_
_geom_bond_atom_site_label_1
_geom_bond_atom_site_label_2
_geom_bond_distance
_geom_bond_site_symmetry_2
Dy0 F25 2.203422 1_555
Dy0 F2 2.203813 1_555
Dy0 F23 2.280942 1_555
Dy0 F6 2.281947 1_555
Dy0 F12 2.315224 1_555
Dy0 F0 2.315718 1_555
Dy0 F17 2.411977 1_655
Dy0 F24 2.413244 1_655
Dy1 F26 2.203422 1_555
Dy1 F3 2.203813 1_555
Dy1 F23 2.280942 1_555
Dy1 F6 2.281947 1_555
Dy1 F13 2.315224 1_555
Dy1 F1 2.315718 1_555
Dy1 F17 2.411977 1_565
Dy1 F24 2.413244 1_565
Dy2 F7 2.196853 1_556
Dy2 F8 2.196853 1_556
Dy2 F18 2.220696 1_555
Dy2 F19 2.220696 1_555
Dy2 F17 2.298556 1_665
Dy2 F27 2.309963 1_665
Dy2 F0 2.369442 1_565
Dy2 F1 2.369442 1_655
Dy3 F10 2.196530 1_555
Dy3 F11 2.196530 1_555
Dy3 F20 2.220861 1_555
Dy3 F21 2.220861 1_555
Dy3 F24 2.298201 1_555
Dy3 F22 2.310372 1_555
Dy3 F13 2.367556 1_545
Dy3 F12 2.367556 1_455
Dy4 F16 2.196660 1_555
Dy4 F14 2.207690 1_555
Dy4 F7 2.222986 1_555
Dy4 F5 2.242952 1_655
Dy4 F21 2.245154 1_555
Dy4 F2 2.291791 1_555
Dy4 F22 2.326597 1_655
Dy4 F12 2.398761 1_555
Dy5 F16 2.196660 1_555
Dy5 F15 2.207690 1_555
Dy5 F8 2.222986 1_555
Dy5 F5 2.242952 1_565
Dy5 F20 2.245154 1_555
Dy5 F3 2.291791 1_555
Dy5 F22 2.326597 1_565
Dy5 F13 2.398761 1_555
Dy6 F4 2.194184 1_555
Dy6 F14 2.206159 1_556
Dy6 F11 2.223640 1_556
Dy6 F9 2.242093 1_655
Dy6 F18 2.247934 1_555
Dy6 F25 2.292644 1_555
Dy6 F27 2.326551 1_655
Dy6 F0 2.397322 1_555
Dy7 F4 2.194184 1_555
Dy7 F15 2.206159 1_556
Dy7 F10 2.223640 1_556
Dy7 F9 2.242093 1_565
Dy7 F19 2.247934 1_555
Dy7 F26 2.292644 1_555
Dy7 F27 2.326551 1_565
Dy7 F1 2.397322 1_555
F0 K1 2.731841 1_555
F1 K1 2.731841 1_555
F2 K0 2.640357 1_545
F2 K3 2.662867 1_555
F3 K0 2.640357 1_455
F3 K3 2.662867 1_555
F4 K0 2.879566 1_555
F5 K0 2.649835 1_445
F5 K2 2.685644 1_445
F6 K2 2.685590 1_555
F6 K0 2.696166 1_555
F9 K3 2.647880 1_555
F9 K1 2.678040 1_555
F12 K2 2.725777 1_555
F13 K2 2.725777 1_555
F16 K3 2.878637 1_555
F17 K0 2.785263 1_445
F18 K0 2.796402 1_555
F18 K1 3.120020 1_655
F19 K0 2.796402 1_555
F19 K1 3.120020 1_565
F20 K3 2.796254 1_555
F21 K3 2.796254 1_555
F22 K1 2.638754 1_554
F23 K1 2.689566 1_555
F23 K3 2.700963 1_555
F24 K3 2.778520 1_555
F25 K3 2.640238 1_655
F25 K0 2.658733 1_555
F26 K3 2.640238 1_565
F26 K0 2.658733 1_555
F27 K2 2.637360 1_446
