# generated using pymatgen
data_Sr3Al2(HO)12
_symmetry_space_group_name_H-M   'P 1'
_cell_length_a   11.43461145
_cell_length_b   11.43461145
_cell_length_c   11.43461145
_cell_angle_alpha   109.47122063
_cell_angle_beta   109.47122063
_cell_angle_gamma   109.47122063
_symmetry_Int_Tables_number   1
_chemical_formula_structural   Sr3Al2(HO)12
_chemical_formula_sum   'Sr12 Al8 H48 O48'
_cell_volume   1150.91260055
_cell_formula_units_Z   4
loop_
 _symmetry_equiv_pos_site_id
 _symmetry_equiv_pos_as_xyz
  1  'x, y, z'
loop_
 _atom_site_type_symbol
 _atom_site_label
 _atom_site_symmetry_multiplicity
 _atom_site_fract_x
 _atom_site_fract_y
 _atom_site_fract_z
 _atom_site_occupancy
  Sr  Sr0  1  0.25000000  0.37500000  0.12500000  1
  Sr  Sr1  1  0.75000000  0.12500000  0.37500000  1
  Sr  Sr2  1  0.37500000  0.12500000  0.25000000  1
  Sr  Sr3  1  0.37500000  0.75000000  0.12500000  1
  Sr  Sr4  1  0.12500000  0.37500000  0.75000000  1
  Sr  Sr5  1  0.12500000  0.25000000  0.37500000  1
  Sr  Sr6  1  0.62500000  0.25000000  0.87500000  1
  Sr  Sr7  1  0.75000000  0.62500000  0.87500000  1
  Sr  Sr8  1  0.25000000  0.87500000  0.62500000  1
  Sr  Sr9  1  0.62500000  0.87500000  0.75000000  1
  Sr  Sr10  1  0.87500000  0.62500000  0.25000000  1
  Sr  Sr11  1  0.87500000  0.75000000  0.62500000  1
  Al  Al0  1  0.50000000  0.00000000  0.00000000  1
  Al  Al1  1  0.50000000  0.50000000  0.00000000  1
  Al  Al2  1  0.00000000  0.50000000  0.50000000  1
  Al  Al3  1  0.00000000  0.00000000  0.00000000  1
  Al  Al4  1  0.00000000  0.00000000  0.50000000  1
  Al  Al5  1  0.50000000  0.50000000  0.50000000  1
  Al  Al6  1  0.00000000  0.50000000  0.00000000  1
  Al  Al7  1  0.50000000  0.00000000  0.50000000  1
  H  H0  1  0.74926300  0.80848600  0.36128500  1
  H  H1  1  0.36128500  0.74926300  0.80848600  1
  H  H2  1  0.11202200  0.05922300  0.75073700  1
  H  H3  1  0.55279900  0.69151400  0.44077700  1
  H  H4  1  0.05922300  0.80848600  0.94720100  1
  H  H5  1  0.13871500  0.94720100  0.38797800  1
  H  H6  1  0.36128500  0.11202200  0.55279900  1
  H  H7  1  0.80848600  0.36128500  0.74926300  1
  H  H8  1  0.44077700  0.38797800  0.74926300  1
  H  H9  1  0.55279900  0.36128500  0.11202200  1
  H  H10  1  0.80848600  0.94720100  0.05922300  1
  H  H11  1  0.69151400  0.75073700  0.13871500  1
  H  H12  1  0.75073700  0.13871500  0.69151400  1
  H  H13  1  0.11202200  0.55279900  0.36128500  1
  H  H14  1  0.74926300  0.44077700  0.38797800  1
  H  H15  1  0.38797800  0.74926300  0.44077700  1
  H  H16  1  0.94720100  0.05922300  0.80848600  1
  H  H17  1  0.75073700  0.11202200  0.05922300  1
  H  H18  1  0.94720100  0.38797800  0.13871500  1
  H  H19  1  0.44077700  0.55279900  0.69151400  1
  H  H20  1  0.38797800  0.13871500  0.94720100  1
  H  H21  1  0.13871500  0.69151400  0.75073700  1
  H  H22  1  0.25073700  0.19151400  0.63871500  1
  H  H23  1  0.63871500  0.25073700  0.19151400  1
  H  H24  1  0.88797800  0.94077700  0.24926300  1
  H  H25  1  0.44720100  0.30848600  0.55922300  1
  H  H26  1  0.94077700  0.19151400  0.05279900  1
  H  H27  1  0.86128500  0.05279900  0.61202200  1
  H  H28  1  0.63871500  0.88797800  0.44720100  1
  H  H29  1  0.19151400  0.63871500  0.25073700  1
  H  H30  1  0.55922300  0.61202200  0.25073700  1
  H  H31  1  0.44720100  0.63871500  0.88797800  1
  H  H32  1  0.19151400  0.05279900  0.94077700  1
  H  H33  1  0.30848600  0.24926300  0.86128500  1
  H  H34  1  0.24926300  0.86128500  0.30848600  1
  H  H35  1  0.88797800  0.44720100  0.63871500  1
  H  H36  1  0.25073700  0.55922300  0.61202200  1
  H  H37  1  0.61202200  0.25073700  0.55922300  1
  H  H38  1  0.05279900  0.94077700  0.19151400  1
  H  H39  1  0.24926300  0.88797800  0.94077700  1
  H  H40  1  0.05279900  0.61202200  0.86128500  1
  H  H41  1  0.55922300  0.44720100  0.30848600  1
  H  H42  1  0.94077700  0.24926300  0.88797800  1
  H  H43  1  0.30848600  0.55922300  0.44720100  1
  H  H44  1  0.61202200  0.86128500  0.05279900  1
  H  H45  1  0.86128500  0.30848600  0.24926300  1
  H  H46  1  0.05922300  0.75073700  0.11202200  1
  H  H47  1  0.69151400  0.44077700  0.55279900  1
  O  O0  1  0.16342300  0.47948300  0.58747000  1
  O  O1  1  0.02051700  0.18394000  0.10798700  1
  O  O2  1  0.92404700  0.31606000  0.33657700  1
  O  O3  1  0.02051700  0.33657700  0.91253000  1
  O  O4  1  0.18394000  0.57595300  0.16342300  1
  O  O5  1  0.57595300  0.16342300  0.18394000  1
  O  O6  1  0.31606000  0.47948300  0.39201300  1
  O  O7  1  0.92404700  0.10798700  0.58747000  1
  O  O8  1  0.58747000  0.92404700  0.10798700  1
  O  O9  1  0.91253000  0.02051700  0.33657700  1
  O  O10  1  0.58747000  0.16342300  0.47948300  1
  O  O11  1  0.16342300  0.18394000  0.57595300  1
  O  O12  1  0.91253000  0.39201300  0.57595300  1
  O  O13  1  0.39201300  0.31606000  0.47948300  1
  O  O14  1  0.10798700  0.02051700  0.18394000  1
  O  O15  1  0.33657700  0.91253000  0.02051700  1
  O  O16  1  0.47948300  0.58747000  0.16342300  1
  O  O17  1  0.31606000  0.33657700  0.92404700  1
  O  O18  1  0.39201300  0.57595300  0.91253000  1
  O  O19  1  0.57595300  0.91253000  0.39201300  1
  O  O20  1  0.18394000  0.10798700  0.02051700  1
  O  O21  1  0.10798700  0.58747000  0.92404700  1
  O  O22  1  0.42404700  0.08747000  0.60798700  1
  O  O23  1  0.60798700  0.42404700  0.08747000  1
  O  O24  1  0.68394000  0.66342300  0.07595300  1
  O  O25  1  0.52051700  0.41253000  0.83657700  1
  O  O26  1  0.66342300  0.08747000  0.97948300  1
  O  O27  1  0.89201300  0.97948300  0.81606000  1
  O  O28  1  0.60798700  0.68394000  0.52051700  1
  O  O29  1  0.08747000  0.60798700  0.42404700  1
  O  O30  1  0.83657700  0.81606000  0.42404700  1
  O  O31  1  0.52051700  0.60798700  0.68394000  1
  O  O32  1  0.08747000  0.97948300  0.66342300  1
  O  O33  1  0.41253000  0.07595300  0.89201300  1
  O  O34  1  0.07595300  0.89201300  0.41253000  1
  O  O35  1  0.68394000  0.52051700  0.60798700  1
  O  O36  1  0.42404700  0.83657700  0.81606000  1
  O  O37  1  0.81606000  0.42404700  0.83657700  1
  O  O38  1  0.97948300  0.66342300  0.08747000  1
  O  O39  1  0.07595300  0.68394000  0.66342300  1
  O  O40  1  0.97948300  0.81606000  0.89201300  1
  O  O41  1  0.83657700  0.52051700  0.41253000  1
  O  O42  1  0.66342300  0.07595300  0.68394000  1
  O  O43  1  0.41253000  0.83657700  0.52051700  1
  O  O44  1  0.81606000  0.89201300  0.97948300  1
  O  O45  1  0.89201300  0.41253000  0.07595300  1
  O  O46  1  0.33657700  0.92404700  0.31606000  1
  O  O47  1  0.47948300  0.39201300  0.31606000  1
loop_
_geom_bond_atom_site_label_1
_geom_bond_atom_site_label_2
_geom_bond_distance
_geom_bond_site_symmetry_2
Al0 O33 1.936505 1_554
Al0 O5 1.936505 1_555
Al0 O36 1.936505 1_544
Al0 O26 1.936505 1_554
Al0 O8 1.936505 1_545
Al0 O15 1.936505 1_545
Al1 O18 1.936505 1_554
Al1 O16 1.936505 1_555
Al1 O23 1.936505 1_555
Al1 O25 1.936505 1_554
Al1 O24 1.936505 1_555
Al1 O17 1.936505 1_554
Al2 O12 1.936505 1_455
Al2 O0 1.936505 1_555
Al2 O29 1.936505 1_555
Al2 O41 1.936505 1_455
Al2 O39 1.936505 1_555
Al2 O2 1.936505 1_455
Al3 O40 1.936505 1_444
Al3 O44 1.936505 1_444
Al3 O27 1.936505 1_444
Al3 O1 1.936505 1_555
Al3 O20 1.936505 1_555
Al3 O14 1.936505 1_555
Al4 O34 1.936505 1_545
Al4 O11 1.936505 1_555
Al4 O30 1.936505 1_445
Al4 O32 1.936505 1_545
Al4 O7 1.936505 1_455
Al4 O9 1.936505 1_455
Al5 O28 1.936505 1_555
Al5 O31 1.936505 1_555
Al5 O35 1.936505 1_555
Al5 O13 1.936505 1_555
Al5 O6 1.936505 1_555
Al5 O47 1.936505 1_555
Al6 O45 1.936505 1_455
Al6 O4 1.936505 1_555
Al6 O37 1.936505 1_454
Al6 O38 1.936505 1_455
Al6 O21 1.936505 1_554
Al6 O3 1.936505 1_554
Al7 O19 1.936505 1_545
Al7 O10 1.936505 1_555
Al7 O22 1.936505 1_555
Al7 O43 1.936505 1_545
Al7 O42 1.936505 1_555
Al7 O46 1.936505 1_545
H0 O30 0.970869 1_555
H1 O36 0.970869 1_555
H2 O32 0.970869 1_545
H3 O28 0.970869 1_555
H4 O40 0.970869 1_455
H5 O34 0.970869 1_555
H6 O22 0.970869 1_555
H7 O37 0.970869 1_555
H8 O25 0.970869 1_555
H9 O23 0.970869 1_555
H10 O44 0.970869 1_554
H11 O24 0.970869 1_555
H12 O42 0.970869 1_555
H13 O29 0.970869 1_555
H14 O41 0.970869 1_555
H15 O43 0.970869 1_555
H16 O27 0.970869 1_545
H17 O26 0.970869 1_554
H18 O45 0.970869 1_555
H19 O31 0.970869 1_555
H20 O33 0.970869 1_555
H21 O39 0.970869 1_555
H22 O11 0.970869 1_555
H23 O5 0.970869 1_555
H24 O9 0.970869 1_565
H25 O13 0.970869 1_555
H26 O1 0.970869 1_655
H27 O7 0.970869 1_555
H28 O19 0.970869 1_555
H29 O4 0.970869 1_555
H30 O16 0.970869 1_555
H31 O18 0.970869 1_555
H32 O20 0.970869 1_556
H33 O17 0.970869 1_555
H34 O46 0.970869 1_555
H35 O12 0.970869 1_555
H36 O0 0.970869 1_555
H37 O10 0.970869 1_555
H38 O14 0.970869 1_565
H39 O15 0.970869 1_556
H40 O21 0.970869 1_555
H41 O47 0.970869 1_555
H42 O3 0.970869 1_655
H43 O6 0.970869 1_555
H44 O8 0.970869 1_555
H45 O2 0.970869 1_555
H46 O38 0.970869 1_455
H47 O35 0.970869 1_555
O0 Sr4 2.597872 1_555
O0 Sr5 2.692748 1_555
O1 Sr5 2.597872 1_555
O1 Sr0 2.692748 1_555
O2 Sr5 2.597872 1_655
O2 Sr1 2.692748 1_555
O3 Sr4 2.597872 1_555
O3 Sr0 2.692748 1_556
O4 Sr0 2.597872 1_555
O4 Sr3 2.692748 1_555
O5 Sr2 2.597872 1_555
O5 Sr1 2.692748 1_555
O6 Sr0 2.597872 1_555
O6 Sr5 2.692748 1_555
O7 Sr4 2.597872 1_655
O7 Sr1 2.692748 1_555
O8 Sr1 2.597872 1_565
O8 Sr3 2.692748 1_555
O9 Sr1 2.597872 1_555
O9 Sr5 2.692748 1_655
O10 Sr1 2.597872 1_555
O10 Sr2 2.692748 1_555
O11 Sr5 2.597872 1_555
O11 Sr4 2.692748 1_555
O12 Sr1 2.597872 1_555
O12 Sr4 2.692748 1_655
O13 Sr5 2.597872 1_555
O13 Sr2 2.692748 1_555
O14 Sr2 2.597872 1_555
O14 Sr5 2.692748 1_555
O15 Sr3 2.597872 1_555
O15 Sr2 2.692748 1_565
O16 Sr3 2.597872 1_555
O16 Sr0 2.692748 1_555
O17 Sr0 2.597872 1_556
O17 Sr4 2.692748 1_555
O18 Sr4 2.597872 1_555
O18 Sr3 2.692748 1_556
O19 Sr3 2.597872 1_555
O19 Sr1 2.692748 1_565
O20 Sr0 2.597872 1_555
O20 Sr2 2.692748 1_555
O21 Sr3 2.597872 1_556
O21 Sr4 2.692748 1_555
O22 Sr6 2.597872 1_555
O22 Sr8 2.692748 1_545
O23 Sr10 2.597872 1_555
O23 Sr6 2.692748 1_554
O24 Sr7 2.597872 1_554
O24 Sr10 2.692748 1_555
O25 Sr6 2.597872 1_555
O25 Sr7 2.692748 1_555
O26 Sr6 2.597872 1_555
O26 Sr9 2.692748 1_545
O27 Sr9 2.597872 1_555
O27 Sr11 2.692748 1_555
O28 Sr11 2.597872 1_555
O28 Sr9 2.692748 1_555
O29 Sr8 2.597872 1_555
O29 Sr10 2.692748 1_455
O30 Sr11 2.597872 1_555
O30 Sr10 2.692748 1_555
O31 Sr9 2.597872 1_555
O31 Sr7 2.692748 1_555
O32 Sr8 2.597872 1_555
O32 Sr11 2.692748 1_455
O33 Sr8 2.597872 1_545
O33 Sr6 2.692748 1_555
O34 Sr10 2.597872 1_455
O34 Sr8 2.692748 1_555
O35 Sr7 2.597872 1_555
O35 Sr11 2.692748 1_555
O36 Sr9 2.597872 1_555
O36 Sr8 2.692748 1_555
O37 Sr7 2.597872 1_555
O37 Sr6 2.692748 1_555
O38 Sr10 2.597872 1_555
O38 Sr7 2.692748 1_554
O39 Sr11 2.597872 1_455
O39 Sr8 2.692748 1_555
O40 Sr11 2.597872 1_555
O40 Sr7 2.692748 1_555
O41 Sr10 2.597872 1_555
O41 Sr11 2.692748 1_555
O42 Sr9 2.597872 1_545
O42 Sr6 2.692748 1_555
O43 Sr8 2.597872 1_555
O43 Sr9 2.692748 1_555
O44 Sr7 2.597872 1_555
O44 Sr9 2.692748 1_555
O45 Sr6 2.597872 1_554
O45 Sr10 2.692748 1_555
O46 Sr2 2.597872 1_565
O46 Sr3 2.692748 1_555
O47 Sr2 2.597872 1_555
O47 Sr0 2.692748 1_555
