# generated using pymatgen
data_MgMn6(O2F)4
_symmetry_space_group_name_H-M   'P 1'
_cell_length_a   4.99474576
_cell_length_b   7.84259764
_cell_length_c   5.62188571
_cell_angle_alpha   96.07286314
_cell_angle_beta   89.58991098
_cell_angle_gamma   88.68099236
_symmetry_Int_Tables_number   1
_chemical_formula_structural   MgMn6(O2F)4
_chemical_formula_sum   'Mg1 Mn6 O8 F4'
_cell_volume   218.91522596
_cell_formula_units_Z   1
loop_
 _symmetry_equiv_pos_site_id
 _symmetry_equiv_pos_as_xyz
  1  'x, y, z'
loop_
 _atom_site_type_symbol
 _atom_site_label
 _atom_site_symmetry_multiplicity
 _atom_site_fract_x
 _atom_site_fract_y
 _atom_site_fract_z
 _atom_site_occupancy
  Mg  Mg0  1  0.00273600  0.83699400  0.33462100  1
  Mn  Mn0  1  0.49646900  0.00536200  0.49004500  1
  Mn  Mn1  1  0.53540000  0.64618900  0.15909600  1
  Mn  Mn2  1  0.46385600  0.33271500  0.84075400  1
  Mn  Mn3  1  0.01044400  0.65329000  0.71677700  1
  Mn  Mn4  1  0.99244000  0.30839200  0.32145400  1
  Mn  Mn5  1  0.00072500  0.01210400  0.95163900  1
  O  O0  1  0.85702300  0.77837700  0.98966200  1
  O  O1  1  0.83286900  0.06835500  0.28669400  1
  O  O2  1  0.67277000  0.75923900  0.46840400  1
  O  O3  1  0.67865200  0.42040800  0.12799800  1
  O  O4  1  0.32722600  0.56312600  0.87463900  1
  O  O5  1  0.32152300  0.23630800  0.53041400  1
  O  O6  1  0.17113200  0.22814400  0.02766300  1
  O  O7  1  0.17637300  0.90930700  0.65456300  1
  F  F0  1  0.82258500  0.41466300  0.62851000  1
  F  F1  1  0.66039200  0.11022800  0.81243300  1
  F  F2  1  0.33579600  0.87814300  0.16036300  1
  F  F3  1  0.15547900  0.58865600  0.37427000  1
loop_
_geom_bond_atom_site_label_1
_geom_bond_atom_site_label_2
_geom_bond_distance
_geom_bond_site_symmetry_2
Mg0 O2 1.944047 1_455
Mg0 O1 2.029926 1_465
Mg0 O7 2.034249 1_555
Mg0 O0 2.085416 1_454
Mn0 O5 1.983150 1_555
Mn0 O7 2.039802 1_545
Mn0 O2 2.094418 1_545
Mn0 O1 2.122359 1_555
Mn1 O3 1.884757 1_555
Mn1 O4 1.974196 1_554
Mn1 O2 1.999869 1_555
Mn1 O0 2.196902 1_554
Mn2 O4 1.906793 1_555
Mn2 O5 1.970892 1_555
Mn2 O3 2.013834 1_556
Mn2 O6 2.032227 1_556
Mn3 O0 1.879698 1_455
Mn3 O4 1.972947 1_555
Mn3 O7 2.249813 1_555
Mn3 O2 2.387348 1_455
Mn4 O6 1.911480 1_655
Mn4 O1 2.052011 1_555
Mn4 O5 2.127607 1_655
Mn4 O3 2.138732 1_555
Mn5 O6 1.922548 1_556
Mn5 O7 1.967368 1_545
Mn5 O0 2.015473 1_445
Mn5 O1 2.056739 1_456
F0 Mn4 2.009062 1_555
F0 Mn3 2.126035 1_655
F0 Mn2 2.287328 1_555
F1 Mn2 1.973246 1_555
F1 Mn5 2.044626 1_655
F1 Mn0 2.090093 1_555
F2 Mg0 1.974729 1_555
F2 Mn1 2.053502 1_555
F2 Mn0 2.177522 1_565
F2 Mn5 2.342992 1_564
F3 Mn3 2.060586 1_555
F3 Mg0 2.109694 1_555
F3 Mn1 2.321614 1_555
F3 Mn4 2.351655 1_455
