# generated using pymatgen
data_Pb2OF2
_symmetry_space_group_name_H-M   'P 1'
_cell_length_a   5.73232765
_cell_length_b   8.20211954
_cell_length_c   8.20211954
_cell_angle_alpha   90.00000000
_cell_angle_beta   90.00000000
_cell_angle_gamma   90.00000000
_symmetry_Int_Tables_number   1
_chemical_formula_structural   Pb2OF2
_chemical_formula_sum   'Pb8 O4 F8'
_cell_volume   385.64099526
_cell_formula_units_Z   4
loop_
 _symmetry_equiv_pos_site_id
 _symmetry_equiv_pos_as_xyz
  1  'x, y, z'
loop_
 _atom_site_type_symbol
 _atom_site_label
 _atom_site_symmetry_multiplicity
 _atom_site_fract_x
 _atom_site_fract_y
 _atom_site_fract_z
 _atom_site_occupancy
  Pb  Pb0  1  0.44361598  0.97392744  0.75000000  1
  Pb  Pb1  1  0.44361598  0.52607256  0.75000000  1
  Pb  Pb2  1  0.94361598  0.75000000  0.52607256  1
  Pb  Pb3  1  0.94361598  0.75000000  0.97392744  1
  Pb  Pb4  1  0.05638402  0.25000000  0.47392744  1
  Pb  Pb5  1  0.55638402  0.02607256  0.25000000  1
  Pb  Pb6  1  0.55638402  0.47392744  0.25000000  1
  Pb  Pb7  1  0.05638402  0.25000000  0.02607256  1
  O  O0  1  0.16630656  0.75000000  0.75000000  1
  O  O1  1  0.66630656  0.75000000  0.75000000  1
  O  O2  1  0.83369344  0.25000000  0.25000000  1
  O  O3  1  0.33369344  0.25000000  0.25000000  1
  F  F0  1  0.75000000  0.46239502  0.53760498  1
  F  F1  1  0.25000000  0.96239502  0.46239502  1
  F  F2  1  0.25000000  0.53760498  0.03760498  1
  F  F3  1  0.75000000  0.03760498  0.96239502  1
  F  F4  1  0.25000000  0.96239502  0.03760498  1
  F  F5  1  0.75000000  0.46239502  0.96239502  1
  F  F6  1  0.75000000  0.03760498  0.53760498  1
  F  F7  1  0.25000000  0.53760498  0.46239502  1
loop_
_geom_bond_atom_site_label_1
_geom_bond_atom_site_label_2
_geom_bond_distance
_geom_bond_site_symmetry_2
O0 Pb3 2.236724 1_455
O0 Pb2 2.236724 1_455
O0 Pb1 2.429056 1_555
O0 Pb0 2.429056 1_555
O1 Pb0 2.236724 1_555
O1 Pb1 2.236724 1_555
O1 Pb3 2.429056 1_555
O1 Pb2 2.429056 1_555
O2 Pb4 2.236724 1_655
O2 Pb7 2.236724 1_655
O2 Pb5 2.429056 1_555
O2 Pb6 2.429056 1_555
O3 Pb5 2.236724 1_555
O3 Pb6 2.236724 1_555
O3 Pb7 2.429056 1_555
O3 Pb4 2.429056 1_555
F0 Pb1 2.528286 1_555
F0 Pb4 2.528286 1_655
F0 Pb6 2.608735 1_555
F0 Pb2 2.608735 1_555
F1 Pb5 2.528286 1_565
F1 Pb2 2.528286 1_455
F1 Pb0 2.608735 1_555
F1 Pb4 2.608735 1_565
F2 Pb6 2.528286 1_555
F2 Pb3 2.528286 1_454
F2 Pb1 2.608735 1_554
F2 Pb7 2.608735 1_555
F3 Pb0 2.528286 1_545
F3 Pb7 2.528286 1_656
F3 Pb5 2.608735 1_556
F3 Pb3 2.608735 1_545
F4 Pb5 2.528286 1_565
F4 Pb3 2.528286 1_454
F4 Pb7 2.608735 1_565
F4 Pb0 2.608735 1_554
F5 Pb1 2.528286 1_555
F5 Pb7 2.528286 1_656
F5 Pb6 2.608735 1_556
F5 Pb3 2.608735 1_555
F6 Pb0 2.528286 1_545
F6 Pb4 2.528286 1_655
F6 Pb5 2.608735 1_555
F6 Pb2 2.608735 1_545
F7 Pb2 2.528286 1_455
F7 Pb6 2.528286 1_555
F7 Pb1 2.608735 1_555
F7 Pb4 2.608735 1_555
