# generated using pymatgen
data_Ho4MgTi2O10
_symmetry_space_group_name_H-M   'P 1'
_cell_length_a   4.12416565
_cell_length_b   5.95273169
_cell_length_c   10.60486200
_cell_angle_alpha   90.00000000
_cell_angle_beta   90.00000000
_cell_angle_gamma   68.61869127
_symmetry_Int_Tables_number   1
_chemical_formula_structural   Ho4MgTi2O10
_chemical_formula_sum   'Ho4 Mg1 Ti2 O10'
_cell_volume   242.43127414
_cell_formula_units_Z   1
loop_
 _symmetry_equiv_pos_site_id
 _symmetry_equiv_pos_as_xyz
  1  'x, y, z'
loop_
 _atom_site_type_symbol
 _atom_site_label
 _atom_site_symmetry_multiplicity
 _atom_site_fract_x
 _atom_site_fract_y
 _atom_site_fract_z
 _atom_site_occupancy
  Ho  Ho0  1  0.13254100  0.72835000  0.92729200  1
  Ho  Ho1  1  0.13254100  0.72835000  0.57270800  1
  Ho  Ho2  1  0.86917300  0.28875800  0.06318600  1
  Ho  Ho3  1  0.86917300  0.28875800  0.43681400  1
  Mg  Mg0  1  0.58934900  0.94527100  0.25000000  1
  Ti  Ti0  1  0.21928800  0.57720200  0.25000000  1
  Ti  Ti1  1  0.78177900  0.35948100  0.75000000  1
  O  O0  1  0.99368800  0.90463500  0.37712200  1
  O  O1  1  0.99368800  0.90463500  0.12287800  1
  O  O2  1  0.70618600  0.59488500  0.90391100  1
  O  O3  1  0.70618600  0.59488500  0.59608900  1
  O  O4  1  0.28982700  0.46210300  0.75000000  1
  O  O5  1  0.71352500  0.57352900  0.25000000  1
  O  O6  1  0.29809400  0.43051700  0.07527100  1
  O  O7  1  0.29809400  0.43051700  0.42472900  1
  O  O8  1  0.94510100  0.11489600  0.62365500  1
  O  O9  1  0.94510100  0.11489600  0.87634500  1
loop_
_geom_bond_atom_site_label_1
_geom_bond_atom_site_label_2
_geom_bond_distance
_geom_bond_site_symmetry_2
Ho0 O2 2.191600 1_455
Ho0 O9 2.210688 1_465
Ho0 O2 2.217933 1_555
Ho0 O6 2.278044 1_556
Ho0 O1 2.300676 1_456
Ho0 O4 2.391244 1_555
Ho1 O3 2.191600 1_455
Ho1 O8 2.210688 1_465
Ho1 O3 2.217933 1_555
Ho1 O7 2.278044 1_555
Ho1 O0 2.300676 1_455
Ho1 O4 2.391244 1_555
Ho2 O6 2.196917 1_555
Ho2 O9 2.204295 1_554
Ho2 O6 2.223979 1_655
Ho2 O1 2.244262 1_545
Ho2 O2 2.394256 1_554
Ho2 O5 2.533204 1_555
Ho3 O7 2.196917 1_555
Ho3 O8 2.204295 1_555
Ho3 O7 2.223979 1_655
Ho3 O0 2.244262 1_545
Ho3 O3 2.394256 1_555
Ho3 O5 2.533204 1_555
Mg0 O5 2.081536 1_555
Mg0 O0 2.088674 1_555
Mg0 O1 2.088674 1_555
O0 Ti0 2.271530 1_655
O1 Ti0 2.271530 1_655
O2 Ti1 2.099138 1_555
O3 Ti1 2.099138 1_555
O4 Ti1 1.893638 1_555
O4 Ti1 2.386761 1_455
O5 Ti0 2.030446 1_555
O5 Ti0 2.093921 1_655
O6 Ti0 2.023528 1_555
O7 Ti0 2.023528 1_555
O8 Ti1 1.911459 1_555
O9 Ti1 1.911459 1_555
