# generated using pymatgen
data_NaTaSi2GeSO12
_symmetry_space_group_name_H-M   'P 1'
_cell_length_a   8.79014392
_cell_length_b   8.69402697
_cell_length_c   22.55109954
_cell_angle_alpha   92.93773840
_cell_angle_beta   90.00000000
_cell_angle_gamma   120.36639236
_symmetry_Int_Tables_number   1
_chemical_formula_structural   NaTaSi2GeSO12
_chemical_formula_sum   'Na6 Ta6 Si12 Ge6 S6 O72'
_cell_volume   1484.33698931
_cell_formula_units_Z   6
loop_
 _symmetry_equiv_pos_site_id
 _symmetry_equiv_pos_as_xyz
  1  'x, y, z'
loop_
 _atom_site_type_symbol
 _atom_site_label
 _atom_site_symmetry_multiplicity
 _atom_site_fract_x
 _atom_site_fract_y
 _atom_site_fract_z
 _atom_site_occupancy
  Na  Na0  1  0.01395898  0.01160544  0.49607826  1
  Na  Na1  1  0.99764646  0.01160544  0.99607826  1
  Na  Na2  1  0.68062598  0.34493844  0.82941126  1
  Na  Na3  1  0.66431346  0.34493844  0.32941126  1
  Na  Na4  1  0.34729198  0.67827244  0.16274526  1
  Na  Na5  1  0.33097946  0.67827244  0.66274526  1
  Ta  Ta0  1  0.00162454  0.99421317  0.64335352  1
  Ta  Ta1  1  0.99258864  0.99421317  0.14335352  1
  Ta  Ta2  1  0.66829154  0.32754617  0.97668652  1
  Ta  Ta3  1  0.65925564  0.32754617  0.47668652  1
  Ta  Ta4  1  0.33495754  0.66088017  0.31002052  1
  Ta  Ta5  1  0.32592164  0.66088017  0.81002052  1
  Si  Si0  1  0.28872201  0.99929081  0.24967739  1
  Si  Si1  1  0.72539842  0.71122238  0.25039683  1
  Si  Si2  1  0.98582396  0.71122238  0.75039683  1
  Si  Si3  1  0.71056880  0.99929081  0.74967739  1
  Si  Si4  1  0.95538901  0.33262381  0.58301039  1
  Si  Si5  1  0.39206542  0.04455538  0.58372983  1
  Si  Si6  1  0.65249096  0.04455538  0.08372983  1
  Si  Si7  1  0.37723580  0.33262381  0.08301039  1
  Si  Si8  1  0.62205501  0.66595781  0.91634439  1
  Si  Si9  1  0.05873142  0.37788938  0.91706383  1
  Si  Si10  1  0.31915696  0.37788938  0.41706383  1
  Si  Si11  1  0.04390180  0.66595781  0.41634439  1
  Ge  Ge0  1  0.03181778  0.98399527  0.35524641  1
  Ge  Ge1  1  0.95217748  0.98399527  0.85524641  1
  Ge  Ge2  1  0.69848478  0.31732827  0.68857941  1
  Ge  Ge3  1  0.61884448  0.31732827  0.18857941  1
  Ge  Ge4  1  0.36515078  0.65066227  0.02191341  1
  Ge  Ge5  1  0.28551048  0.65066227  0.52191341  1
  S  S0  1  0.98943165  0.28216656  0.25155674  1
  S  S1  1  0.29273491  0.28216656  0.75155674  1
  S  S2  1  0.65609865  0.61549956  0.58488974  1
  S  S3  1  0.95940191  0.61549956  0.08488974  1
  S  S4  1  0.32276465  0.94883356  0.91822374  1
  S  S5  1  0.62606791  0.94883356  0.41822374  1
  O  O0  1  0.21641565  0.04595364  0.31050035  1
  O  O1  1  0.84660328  0.81427227  0.31050848  1
  O  O2  1  0.97238863  0.18211976  0.30328294  1
  O  O3  1  0.20973113  0.18211976  0.80328294  1
  O  O4  1  0.96766898  0.81427227  0.81050848  1
  O  O5  1  0.82953799  0.04595364  0.81050035  1
  O  O6  1  0.80863302  0.97452560  0.69160385  1
  O  O7  1  0.18200796  0.20096756  0.69543699  1
  O  O8  1  0.02438292  0.83126716  0.69259814  1
  O  O9  1  0.80688424  0.83126716  0.19259814  1
  O  O10  1  0.01895960  0.20096756  0.19543699  1
  O  O11  1  0.16589259  0.97452560  0.19160385  1
  O  O12  1  0.88308265  0.37928664  0.64383335  1
  O  O13  1  0.51327028  0.14760527  0.64384148  1
  O  O14  1  0.63905563  0.51545276  0.63661594  1
  O  O15  1  0.87639813  0.51545276  0.13661594  1
  O  O16  1  0.63433598  0.14760527  0.14384148  1
  O  O17  1  0.49620499  0.37928664  0.14383335  1
  O  O18  1  0.47530002  0.30785860  0.02493685  1
  O  O19  1  0.84867496  0.53430056  0.02876999  1
  O  O20  1  0.69104992  0.16460016  0.02593114  1
  O  O21  1  0.47355124  0.16460016  0.52593114  1
  O  O22  1  0.68562660  0.53430056  0.52876999  1
  O  O23  1  0.83255959  0.30785860  0.52493685  1
  O  O24  1  0.54974865  0.71262064  0.97716735  1
  O  O25  1  0.17993628  0.48093927  0.97717548  1
  O  O26  1  0.30572163  0.84878676  0.96994994  1
  O  O27  1  0.54306413  0.84878676  0.46994994  1
  O  O28  1  0.30100198  0.48093927  0.47717548  1
  O  O29  1  0.16287099  0.71262064  0.47716735  1
  O  O30  1  0.14196602  0.64119260  0.35827085  1
  O  O31  1  0.51534096  0.86763456  0.36210399  1
  O  O32  1  0.35771592  0.49793416  0.35926514  1
  O  O33  1  0.14021724  0.49793416  0.85926514  1
  O  O34  1  0.35229260  0.86763456  0.86210399  1
  O  O35  1  0.49922559  0.64119260  0.85827085  1
  O  O36  1  0.02342640  0.84194716  0.41179147  1
  O  O37  1  0.80205321  0.97743148  0.41123222  1
  O  O38  1  0.13601547  0.18291673  0.40713589  1
  O  O39  1  0.04690126  0.18291673  0.90713589  1
  O  O40  1  0.17537827  0.97743148  0.91123222  1
  O  O41  1  0.81852076  0.84194716  0.91179147  1
  O  O42  1  0.97427387  0.15592592  0.58988653  1
  O  O43  1  0.19287850  0.01531743  0.59225190  1
  O  O44  1  0.82675798  0.79486166  0.58746209  1
  O  O45  1  0.96810368  0.79486166  0.08746209  1
  O  O46  1  0.82243893  0.01531743  0.09225190  1
  O  O47  1  0.18165205  0.15592592  0.08988653  1
  O  O48  1  0.69009340  0.17528016  0.74512447  1
  O  O49  1  0.46872021  0.31076448  0.74456522  1
  O  O50  1  0.80268247  0.51624973  0.74046889  1
  O  O51  1  0.71356826  0.51624973  0.24046889  1
  O  O52  1  0.84204527  0.31076448  0.24456522  1
  O  O53  1  0.48518776  0.17528016  0.24512447  1
  O  O54  1  0.64094087  0.48925892  0.92321953  1
  O  O55  1  0.85954550  0.34865043  0.92558490  1
  O  O56  1  0.49342498  0.12819466  0.92079509  1
  O  O57  1  0.63477068  0.12819466  0.42079509  1
  O  O58  1  0.48910593  0.34865043  0.42558490  1
  O  O59  1  0.84831905  0.48925892  0.42321953  1
  O  O60  1  0.35675940  0.50861416  0.07845847  1
  O  O61  1  0.13538621  0.64409848  0.07789922  1
  O  O62  1  0.46934847  0.84958373  0.07380289  1
  O  O63  1  0.38023426  0.84958373  0.57380289  1
  O  O64  1  0.50871127  0.64409848  0.57789922  1
  O  O65  1  0.15185376  0.50861416  0.57845847  1
  O  O66  1  0.30760687  0.82259292  0.25655353  1
  O  O67  1  0.52621150  0.68198443  0.25891890  1
  O  O68  1  0.16009098  0.46152866  0.25412909  1
  O  O69  1  0.30143668  0.46152866  0.75412909  1
  O  O70  1  0.15577193  0.68198443  0.75891890  1
  O  O71  1  0.51498505  0.82259292  0.75655353  1
loop_
_geom_bond_atom_site_label_1
_geom_bond_atom_site_label_2
_geom_bond_distance
_geom_bond_site_symmetry_2
Na0 O36 2.373227 1_545
Na0 O38 2.466370 1_555
Na0 O42 2.518281 1_455
Na0 O37 2.569249 1_445
Na0 O43 2.668297 1_555
Na0 O44 2.787207 1_445
Na1 O41 2.373227 1_545
Na1 O39 2.466370 1_655
Na1 O47 2.518281 1_656
Na1 O40 2.569249 1_645
Na1 O46 2.668297 1_556
Na1 O45 2.787207 1_546
Na2 O48 2.373227 1_555
Na2 O50 2.466370 1_555
Na2 O54 2.518281 1_555
Na2 O49 2.569249 1_555
Na2 O55 2.668297 1_555
Na2 O56 2.787207 1_555
Na3 O53 2.373227 1_555
Na3 O51 2.466370 1_555
Na3 O59 2.518281 1_555
Na3 O52 2.569249 1_555
Na3 O58 2.668297 1_555
Na3 O57 2.787207 1_555
Na4 O60 2.373227 1_555
Na4 O62 2.466370 1_555
Na4 O66 2.518281 1_555
Na4 O61 2.569249 1_555
Na4 O67 2.668297 1_555
Na4 O68 2.787207 1_555
Na5 O65 2.373227 1_555
Na5 O63 2.466370 1_555
Na5 O71 2.518281 1_555
Na5 O64 2.569249 1_555
Na5 O70 2.668297 1_555
Na5 O69 2.787207 1_555
Ge0 O0 1.764467 1_565
Ge0 O36 1.796086 1_555
Ge0 O1 1.806734 1_455
Ge0 O38 1.841237 1_565
Ge0 O37 2.359484 1_455
Ge0 O2 2.393690 1_465
Ge1 O5 1.764467 1_565
Ge1 O41 1.796086 1_555
Ge1 O4 1.806734 1_555
Ge1 O39 1.841237 1_665
Ge1 O40 2.359484 1_655
Ge1 O3 2.393691 1_665
Ge2 O12 1.764467 1_555
Ge2 O48 1.796086 1_555
Ge2 O13 1.806734 1_555
Ge2 O50 1.841237 1_555
Ge2 O49 2.359484 1_555
Ge2 O14 2.393690 1_555
Ge3 O17 1.764467 1_555
Ge3 O53 1.796086 1_555
Ge3 O16 1.806734 1_555
Ge3 O51 1.841237 1_555
Ge3 O52 2.359484 1_555
Ge3 O15 2.393691 1_555
Ge4 O24 1.764467 1_554
Ge4 O60 1.796086 1_555
Ge4 O25 1.806734 1_554
Ge4 O62 1.841237 1_555
Ge4 O61 2.359484 1_555
Ge4 O26 2.393690 1_554
Ge5 O29 1.764467 1_555
Ge5 O65 1.796086 1_555
Ge5 O28 1.806734 1_555
Ge5 O63 1.841237 1_555
Ge5 O64 2.359484 1_555
Ge5 O27 2.393691 1_555
O0 Si0 1.628977 1_545
O1 Si1 1.638845 1_555
O2 S0 1.453254 1_555
O3 S1 1.453254 1_555
O4 Si2 1.638845 1_555
O5 Si3 1.628977 1_545
O6 Si3 1.631948 1_555
O6 Ta0 1.953617 1_655
O7 S1 1.503681 1_555
O7 Ta0 2.006662 1_545
O8 Si2 1.638546 1_455
O8 Ta0 1.930799 1_555
O9 Si1 1.638546 1_555
O9 Ta1 1.930799 1_555
O10 S0 1.503681 1_455
O10 Ta1 2.006662 1_445
O11 Si0 1.631948 1_555
O11 Ta1 1.953617 1_455
O12 Si4 1.628977 1_555
O13 Si5 1.638845 1_555
O14 S2 1.453254 1_555
O15 S3 1.453254 1_555
O16 Si6 1.638845 1_555
O17 Si7 1.628977 1_555
O18 Si7 1.631948 1_555
O18 Ta2 1.953617 1_554
O19 S3 1.503681 1_555
O19 Ta2 2.006662 1_554
O20 Si6 1.638546 1_555
O20 Ta2 1.930799 1_554
O21 Si5 1.638546 1_555
O21 Ta3 1.930799 1_555
O22 S2 1.503681 1_555
O22 Ta3 2.006662 1_555
O23 Si4 1.631948 1_555
O23 Ta3 1.953617 1_555
O24 Si8 1.628977 1_555
O25 Si9 1.638845 1_555
O26 S4 1.453254 1_555
O27 S5 1.453254 1_555
O28 Si10 1.638845 1_555
O29 Si11 1.628977 1_555
O30 Si11 1.631948 1_555
O30 Ta4 1.953617 1_555
O31 S5 1.503681 1_555
O31 Ta4 2.006662 1_555
O32 Si10 1.638546 1_555
O32 Ta4 1.930799 1_555
O33 Si9 1.638546 1_555
O33 Ta5 1.930799 1_555
O34 S4 1.503681 1_555
O34 Ta5 2.006662 1_555
O35 Si8 1.631948 1_555
O35 Ta5 1.953617 1_555
O36 Si11 1.636623 1_555
O37 S5 1.447355 1_555
O38 Si10 1.648381 1_555
O39 Si9 1.648385 1_555
O40 S4 1.447347 1_555
O41 Si8 1.636629 1_555
O42 Si4 1.641283 1_555
O42 Ta0 2.000942 1_645
O43 Si5 1.649896 1_555
O43 Ta0 1.974273 1_545
O44 S2 1.520197 1_555
O44 Ta0 2.009420 1_655
O45 S3 1.520201 1_555
O45 Ta1 2.009420 1_555
O46 Si6 1.649887 1_555
O46 Ta1 1.974273 1_545
O47 Si7 1.641288 1_555
O47 Ta1 2.000941 1_445
O48 Si3 1.636623 1_545
O49 S1 1.447355 1_555
O50 Si2 1.648381 1_555
O51 Si1 1.648385 1_555
O52 S0 1.447347 1_555
O53 Si0 1.636629 1_545
O54 Si8 1.641294 1_555
O54 Ta2 2.000942 1_555
O55 Si9 1.649881 1_655
O55 Ta2 1.974273 1_555
O56 S4 1.520197 1_545
O56 Ta2 2.009420 1_555
O57 S5 1.520189 1_545
O57 Ta3 2.009420 1_555
O58 Si10 1.649899 1_555
O58 Ta3 1.974273 1_555
O59 Si11 1.641284 1_655
O59 Ta3 2.000941 1_555
O60 Si7 1.636635 1_555
O61 S3 1.447341 1_455
O62 Si6 1.648379 1_565
O63 Si5 1.648371 1_565
O64 S2 1.447358 1_555
O65 Si4 1.636624 1_455
O66 Si0 1.641283 1_555
O66 Ta4 2.000942 1_555
O67 Si1 1.649896 1_555
O67 Ta4 1.974273 1_555
O68 S0 1.520197 1_455
O68 Ta4 2.009420 1_555
O69 S1 1.520201 1_555
O69 Ta5 2.009420 1_555
O70 Si2 1.649887 1_455
O70 Ta5 1.974273 1_555
O71 Si3 1.641288 1_555
O71 Ta5 2.000941 1_555
