# generated using pymatgen
data_Na4Mg(Ni2O5)2
_symmetry_space_group_name_H-M   'P 1'
_cell_length_a   5.08996991
_cell_length_b   6.35258580
_cell_length_c   6.84027257
_cell_angle_alpha   105.70039737
_cell_angle_beta   98.19441660
_cell_angle_gamma   106.97708347
_symmetry_Int_Tables_number   1
_chemical_formula_structural   Na4Mg(Ni2O5)2
_chemical_formula_sum   'Na4 Mg1 Ni4 O10'
_cell_volume   197.66238673
_cell_formula_units_Z   1
loop_
 _symmetry_equiv_pos_site_id
 _symmetry_equiv_pos_as_xyz
  1  'x, y, z'
loop_
 _atom_site_type_symbol
 _atom_site_label
 _atom_site_symmetry_multiplicity
 _atom_site_fract_x
 _atom_site_fract_y
 _atom_site_fract_z
 _atom_site_occupancy
  Na  Na0  1  0.20489655  0.40390383  0.40480562  1
  Na  Na1  1  0.55564187  0.66363858  0.17081360  1
  Na  Na2  1  0.84998525  0.13294501  0.62412657  1
  Na  Na3  1  0.95555392  0.48290526  0.99670175  1
  Mg  Mg0  1  0.21314973  0.90110928  0.40626962  1
  Ni  Ni0  1  0.39741166  0.80379108  0.80118234  1
  Ni  Ni1  1  0.99985579  0.98706889  0.00321205  1
  Ni  Ni2  1  0.79686879  0.61650270  0.59598941  1
  Ni  Ni3  1  0.60744723  0.18998842  0.20171640  1
  O  O0  1  0.09283052  0.91605264  0.72112789  1
  O  O1  1  0.09018298  0.52254761  0.70389604  1
  O  O2  1  0.27264062  0.87050872  0.10543642  1
  O  O3  1  0.29235608  0.27269024  0.08684804  1
  O  O4  1  0.51815480  0.76612003  0.52183652  1
  O  O5  1  0.70010716  0.68444369  0.86615718  1
  O  O6  1  0.55316150  0.27833161  0.47715709  1
  O  O7  1  0.70132993  0.10032793  0.93168197  1
  O  O8  1  0.89405410  0.57540333  0.33616969  1
  O  O9  1  0.89788353  0.03674114  0.26247680  1
loop_
_geom_bond_atom_site_label_1
_geom_bond_atom_site_label_2
_geom_bond_distance
_geom_bond_site_symmetry_2
Na0 O6 2.193843 1_555
Na0 O1 2.203977 1_555
Na0 O4 2.230356 1_555
Na0 O8 2.232116 1_455
Na0 O9 2.244744 1_455
Na0 O3 2.266002 1_555
Na1 O8 2.216333 1_555
Na1 O2 2.289511 1_555
Na1 O3 2.314888 1_555
Na1 O5 2.330253 1_554
Na1 O9 2.349166 1_565
Na1 O4 2.362757 1_555
Na2 O6 2.242910 1_555
Na2 O0 2.263206 1_645
Na2 O1 2.286897 1_655
Na2 O4 2.292327 1_545
Na2 O7 2.374743 1_555
Na2 O9 2.448111 1_555
Na3 O1 2.260075 1_655
Na3 O7 2.278872 1_555
Na3 O5 2.320986 1_555
Na3 O8 2.326234 1_556
Na3 O2 2.359406 1_656
Na3 O3 2.565861 1_656
Mg0 O2 2.087930 1_555
Mg0 O8 2.104167 1_455
Mg0 O4 2.136562 1_555
Mg0 O9 2.258542 1_465
Mg0 O0 2.306916 1_555
Mg0 O6 2.383846 1_565
Ni0 O1 1.873125 1_555
Ni0 O7 1.932089 1_565
Ni0 O5 1.953319 1_555
Ni0 O0 1.956247 1_555
Ni0 O4 2.063809 1_555
Ni0 O2 2.229540 1_556
Ni1 O3 1.858469 1_665
Ni1 O2 1.889154 1_655
Ni1 O9 1.889243 1_565
Ni1 O7 1.919097 1_564
Ni1 O5 1.951019 1_554
Ni1 O0 2.016044 1_654
Ni2 O8 1.883174 1_555
Ni2 O1 1.890674 1_655
Ni2 O0 1.923526 1_655
Ni2 O5 1.948320 1_555
Ni2 O4 2.004098 1_555
Ni2 O6 2.006435 1_555
Ni3 O6 1.899420 1_555
Ni3 O7 1.950832 1_554
Ni3 O3 1.954947 1_555
Ni3 O9 2.046986 1_555
Ni3 O2 2.096127 1_545
Ni3 O8 2.298172 1_555
