# generated using pymatgen
data_Na4CaGe3(PO4)6
_symmetry_space_group_name_H-M   'P 1'
_cell_length_a   8.68298495
_cell_length_b   8.67884960
_cell_length_c   21.98652897
_cell_angle_alpha   90.08181634
_cell_angle_beta   89.98172774
_cell_angle_gamma   119.80811446
_symmetry_Int_Tables_number   1
_chemical_formula_structural   Na4CaGe3(PO4)6
_chemical_formula_sum   'Na12 Ca3 Ge9 P18 O72'
_cell_volume   1437.65447862
_cell_formula_units_Z   3
loop_
 _symmetry_equiv_pos_site_id
 _symmetry_equiv_pos_as_xyz
  1  'x, y, z'
loop_
 _atom_site_type_symbol
 _atom_site_label
 _atom_site_symmetry_multiplicity
 _atom_site_fract_x
 _atom_site_fract_y
 _atom_site_fract_z
 _atom_site_occupancy
  Na  Na0  1  0.65195839  0.01405268  0.24603305  1
  Na  Na1  1  0.36546038  0.35021681  0.24612034  1
  Na  Na2  1  0.98618521  0.63619516  0.24574718  1
  Na  Na3  1  0.98800565  0.36606880  0.74467171  1
  Na  Na4  1  0.38090177  0.00723141  0.74463478  1
  Na  Na5  1  0.70999461  0.67837449  0.41651209  1
  Na  Na6  1  0.01314840  0.01388230  0.50061556  1
  Na  Na7  1  0.99991284  0.00016477  -0.00083844  1
  Na  Na8  1  0.66460474  0.34773035  0.83542863  1
  Na  Na9  1  0.66513843  0.31822961  0.33339380  1
  Na  Na10  1  0.33326753  0.66642296  0.15783343  1
  Na  Na11  1  0.34992140  0.66343610  0.66128586  1
  Ca  Ca0  1  0.00857194  0.00926108  0.36029961  1
  Ca  Ca1  1  0.66536655  0.34156252  0.68207951  1
  Ca  Ca2  1  0.66731870  0.33480782  0.16727947  1
  Ge  Ge0  1  0.99895201  0.99832992  0.85771807  1
  Ge  Ge1  1  0.99672793  0.99736353  0.64447122  1
  Ge  Ge2  1  0.00197155  0.00154268  0.14308716  1
  Ge  Ge3  1  0.66729325  0.33321217  0.98366182  1
  Ge  Ge4  1  0.66590352  0.32809547  0.48486741  1
  Ge  Ge5  1  0.33382315  0.66689347  0.01331721  1
  Ge  Ge6  1  0.33080894  0.66742670  0.52087587  1
  Ge  Ge7  1  0.33150546  0.66721226  0.31641189  1
  Ge  Ge8  1  0.33762555  0.66509406  0.81599036  1
  P  P0  1  0.29045424  0.99132612  0.24825534  1
  P  P1  1  0.70155763  0.71069992  0.25176222  1
  P  P2  1  0.00805412  0.29816060  0.24866587  1
  P  P3  1  0.27413632  0.28545787  0.75492705  1
  P  P4  1  0.00959339  0.72405842  0.75495693  1
  P  P5  1  0.71256298  0.98104870  0.75381427  1
  P  P6  1  0.97071054  0.33375846  0.58453285  1
  P  P7  1  0.36315494  0.03007551  0.58471189  1
  P  P8  1  0.66640073  0.63896919  0.58118240  1
  P  P9  1  0.97641612  0.64097072  0.08047210  1
  P  P10  1  0.66428016  0.02356454  0.08070180  1
  P  P11  1  0.35918982  0.33546031  0.08052893  1
  P  P12  1  0.62311629  0.66314323  0.91646802  1
  P  P13  1  0.03965784  0.37666894  0.91564313  1
  P  P14  1  0.33770620  0.96073888  0.91560205  1
  P  P15  1  0.60326532  0.96053839  0.42049008  1
  P  P16  1  0.34978487  0.39039373  0.42193428  1
  P  P17  1  0.03798664  0.64320041  0.42068791  1
  O  O0  1  0.21848615  0.03034226  0.30473664  1
  O  O1  1  0.80114486  0.77703744  0.31126685  1
  O  O2  1  0.96519611  0.18544259  0.30472926  1
  O  O3  1  0.18529879  0.17228284  0.81242921  1
  O  O4  1  0.98947590  0.81206681  0.81321289  1
  O  O5  1  0.82785859  0.01249608  0.81113642  1
  O  O6  1  0.79747132  0.95784096  0.69440775  1
  O  O7  1  0.15632677  0.20287808  0.69674581  1
  O  O8  1  0.04219183  0.84046572  0.69697106  1
  O  O9  1  0.79768058  0.83889477  0.19574572  1
  O  O10  1  0.04440499  0.20927310  0.19090039  1
  O  O11  1  0.16638135  0.95745768  0.19053283  1
  O  O12  1  0.91426467  0.37072057  0.64500062  1
  O  O13  1  0.45740490  0.08475517  0.64502041  1
  O  O14  1  0.62332131  0.53623424  0.63890786  1
  O  O15  1  0.93062325  0.55518350  0.14237413  1
  O  O16  1  0.62529993  0.07114681  0.14256178  1
  O  O17  1  0.44452340  0.37504129  0.14263044  1
  O  O18  1  0.46814503  0.30247466  0.02995540  1
  O  O19  1  0.83500587  0.53267759  0.02988554  1
  O  O20  1  0.69842440  0.16475061  0.02973687  1
  O  O21  1  0.46499524  0.16595833  0.53202635  1
  O  O22  1  0.69979624  0.54539820  0.52453678  1
  O  O23  1  0.83560482  0.30120156  0.53164624  1
  O  O24  1  0.53484065  0.69838296  0.97072514  1
  O  O25  1  0.16631369  0.46821556  0.96889291  1
  O  O26  1  0.30382090  0.83483900  0.96889624  1
  O  O27  1  0.50392703  0.84128321  0.47355222  1
  O  O28  1  0.34244663  0.49506184  0.47594939  1
  O  O29  1  0.15282780  0.66213533  0.47505693  1
  O  O30  1  0.12238706  0.62652892  0.35836574  1
  O  O31  1  0.50084825  0.87909068  0.35778021  1
  O  O32  1  0.37688271  0.49994887  0.36015863  1
  O  O33  1  0.11971133  0.49130661  0.85624554  1
  O  O34  1  0.37178696  0.88006468  0.85600597  1
  O  O35  1  0.50385275  0.62581390  0.85856731  1
  O  O36  1  0.00644413  0.80004022  0.42116007  1
  O  O37  1  0.78503606  0.97675504  0.42048753  1
  O  O38  1  0.19088606  0.20829100  0.42381476  1
  O  O39  1  0.01796510  0.18708841  0.91108414  1
  O  O40  1  0.16885692  0.98143450  0.91137971  1
  O  O41  1  0.81144306  0.83130293  0.91106671  1
  O  O42  1  0.98158755  0.15896671  0.58782763  1
  O  O43  1  0.17775412  0.01975976  0.58859050  1
  O  O44  1  0.84246030  0.82268221  0.58652078  1
  O  O45  1  0.98572655  0.82545708  0.08371799  1
  O  O46  1  0.83840147  0.01206320  0.08412214  1
  O  O47  1  0.17496306  0.16118246  0.08325272  1
  O  O48  1  0.68815766  0.14382851  0.75134359  1
  O  O49  1  0.45566756  0.30268298  0.75255654  1
  O  O50  1  0.85398656  0.53721553  0.75308089  1
  O  O51  1  0.67008643  0.52356248  0.24185969  1
  O  O52  1  0.85569043  0.33467970  0.23970441  1
  O  O53  1  0.47867140  0.14430836  0.23994737  1
  O  O54  1  0.64239586  0.49518872  0.92479897  1
  O  O55  1  0.85327176  0.35931382  0.92432434  1
  O  O56  1  0.50559398  0.14718566  0.92411499  1
  O  O57  1  0.61310491  0.14373063  0.42563299  1
  O  O58  1  0.52681467  0.38220048  0.42441839  1
  O  O59  1  0.85319484  0.46755745  0.42420432  1
  O  O60  1  0.33580212  0.49688429  0.06543309  1
  O  O61  1  0.16090881  0.66447431  0.06511065  1
  O  O62  1  0.50250578  0.83984270  0.06572783  1
  O  O63  1  0.32959474  0.84008442  0.57213892  1
  O  O64  1  0.51156949  0.67747658  0.57076463  1
  O  O65  1  0.16046876  0.49115495  0.57250057  1
  O  O66  1  0.29169138  0.80983694  0.25442078  1
  O  O67  1  0.51639438  0.70591905  0.25563922  1
  O  O68  1  0.18907323  0.48040986  0.25569789  1
  O  O69  1  0.28486307  0.47216914  0.75940051  1
  O  O70  1  0.18729333  0.71184539  0.75844414  1
  O  O71  1  0.52423932  0.80965800  0.75824939  1
loop_
_geom_bond_atom_site_label_1
_geom_bond_atom_site_label_2
_geom_bond_distance
_geom_bond_site_symmetry_2
Na0 O53 2.291610 1_555
Na0 O67 2.335303 1_545
Na0 O16 2.364785 1_555
Na0 O52 2.449281 1_555
Na0 O9 2.653483 1_545
Na0 O2 2.692603 1_555
Na0 O66 2.729347 1_545
Na0 O31 2.758312 1_545
Na1 O51 2.304883 1_555
Na1 O68 2.320861 1_555
Na1 O17 2.355511 1_555
Na1 O53 2.433922 1_555
Na1 O67 2.695826 1_555
Na1 O10 2.710976 1_555
Na1 O0 2.735583 1_555
Na1 O32 2.801400 1_555
Na2 O52 2.280453 1_555
Na2 O66 2.317186 1_655
Na2 O15 2.356199 1_555
Na2 O51 2.414256 1_555
Na2 O68 2.710807 1_655
Na2 O11 2.714240 1_655
Na2 O30 2.763657 1_655
Na2 O1 2.845498 1_555
Na3 O69 2.288403 1_655
Na3 O12 2.289275 1_555
Na3 O50 2.304813 1_555
Na3 O48 2.351239 1_555
Na3 O70 2.631862 1_655
Na3 O33 2.695442 1_655
Na3 O7 2.702784 1_655
Na4 O70 2.282020 1_545
Na4 O13 2.291233 1_555
Na4 O49 2.317461 1_555
Na4 O48 2.323826 1_555
Na4 O71 2.588879 1_545
Na4 O34 2.672274 1_545
Na4 O8 2.758310 1_545
Na5 O36 2.246968 1_655
Na5 O58 2.259134 1_555
Na5 O37 2.336680 1_555
Na5 O1 2.458623 1_555
Na5 O22 2.624286 1_555
Na5 O59 2.680500 1_555
Na5 O32 2.800527 1_555
Na6 O38 2.344683 1_555
Na6 O42 2.381848 1_455
Na6 O43 2.390771 1_555
Na6 O44 2.465695 1_445
Na6 O36 2.526459 1_545
Na6 O37 2.548880 1_445
Na7 O47 2.358845 1_655
Na7 O45 2.364889 1_545
Na7 O46 2.368233 1_555
Na7 O40 2.477434 1_644
Na7 O39 2.482425 1_654
Na7 O41 2.487358 1_544
Na8 O54 2.402901 1_555
Na8 O50 2.450429 1_555
Na8 O49 2.461507 1_555
Na8 O55 2.520244 1_555
Na8 O56 2.521231 1_555
Na8 O48 2.634669 1_555
Na9 O57 2.436899 1_555
Na9 O59 2.494622 1_555
Na9 O58 2.532646 1_555
Na9 O53 2.585463 1_555
Na9 O52 2.600957 1_555
Na9 O51 2.676164 1_555
Na10 O60 2.513241 1_555
Na10 O62 2.516661 1_555
Na10 O61 2.524450 1_555
Na10 O66 2.574485 1_555
Na10 O67 2.593902 1_555
Na10 O68 2.608123 1_555
Na11 O64 2.403094 1_555
Na11 O65 2.510116 1_555
Na11 O63 2.549726 1_555
Na11 O71 2.555596 1_555
Na11 O69 2.608701 1_555
Na11 O70 2.705386 1_555
Ca0 O0 2.125021 1_555
Ca0 O2 2.133266 1_455
Ca0 O38 2.171595 1_555
Ca0 O1 2.203234 1_445
Ca0 O37 2.247916 1_445
Ca0 O36 2.249793 1_545
Ca1 O14 2.122918 1_555
Ca1 O12 2.203424 1_555
Ca1 O13 2.210565 1_555
Ca1 O49 2.284551 1_555
Ca1 O50 2.287317 1_555
Ca1 O48 2.376683 1_555
Ca2 O17 2.197912 1_555
Ca2 O16 2.198001 1_555
Ca2 O15 2.199952 1_555
Ca2 O52 2.283508 1_555
Ca2 O53 2.298411 1_555
Ca2 O51 2.307860 1_555
Ge0 O4 1.854936 1_555
Ge0 O5 1.858485 1_565
Ge0 O3 1.861042 1_665
Ge0 O41 1.945555 1_555
Ge0 O40 1.951060 1_655
Ge0 O39 1.952804 1_665
Ge1 O44 1.921630 1_555
Ge1 O43 1.927096 1_665
Ge1 O42 1.929712 1_565
Ge1 O6 1.930376 1_555
Ge1 O8 1.970185 1_655
Ge1 O7 1.990102 1_665
Ge2 O11 1.953880 1_545
Ge2 O10 1.955917 1_555
Ge2 O46 1.958752 1_455
Ge2 O45 1.959420 1_445
Ge2 O47 1.959954 1_555
Ge2 O9 1.998386 1_445
Ge3 O20 1.906362 1_556
Ge3 O18 1.907440 1_556
Ge3 O19 1.907861 1_556
Ge3 O55 1.999227 1_555
Ge3 O54 2.001341 1_555
Ge3 O56 2.008351 1_555
Ge4 O23 1.904502 1_555
Ge4 O21 1.913350 1_555
Ge4 O57 1.931758 1_555
Ge4 O22 1.961571 1_555
Ge4 O59 1.983662 1_555
Ge4 O58 2.003017 1_555
Ge5 O61 1.875923 1_555
Ge5 O60 1.876263 1_555
Ge5 O24 1.877128 1_554
Ge5 O26 1.878295 1_554
Ge5 O62 1.880571 1_555
Ge5 O25 1.882931 1_554
Ge6 O29 1.826349 1_555
Ge6 O27 1.835049 1_555
Ge6 O28 1.835680 1_555
Ge6 O63 1.877963 1_555
Ge6 O64 1.881206 1_555
Ge6 O65 1.889619 1_555
Ge7 O30 1.906572 1_555
Ge7 O31 1.917987 1_555
Ge7 O32 1.939214 1_555
Ge7 O67 1.984753 1_555
Ge7 O66 1.984930 1_555
Ge7 O68 1.985275 1_555
Ge8 O35 1.888585 1_555
Ge8 O34 1.946317 1_555
Ge8 O69 1.947624 1_555
Ge8 O71 1.947683 1_555
Ge8 O33 1.950359 1_555
Ge8 O70 1.999610 1_555
O0 P0 1.501988 1_545
O1 P1 1.514749 1_555
O2 P2 1.502032 1_655
O3 P3 1.551720 1_555
O4 P4 1.544085 1_655
O5 P5 1.547024 1_545
O6 P5 1.560896 1_555
O7 P3 1.570273 1_555
O8 P4 1.563753 1_555
O9 P1 1.591026 1_555
O10 P2 1.595879 1_555
O11 P0 1.594573 1_555
O12 P6 1.505094 1_555
O13 P7 1.505301 1_555
O14 P8 1.488986 1_555
O15 P9 1.507650 1_555
O16 P10 1.507313 1_555
O17 P11 1.509163 1_555
O18 P11 1.575139 1_555
O19 P9 1.574354 1_555
O20 P10 1.577178 1_555
O21 P7 1.575121 1_555
O22 P8 1.589242 1_555
O23 P6 1.574332 1_555
O24 P12 1.528256 1_555
O25 P13 1.529999 1_555
O26 P14 1.528826 1_555
O27 P15 1.513785 1_555
O28 P16 1.514619 1_555
O29 P17 1.512472 1_555
O30 P17 1.593673 1_555
O31 P15 1.601421 1_555
O32 P16 1.607877 1_555
O33 P13 1.579275 1_555
O34 P14 1.580453 1_555
O35 P12 1.569741 1_555
O36 P17 1.516099 1_555
O37 P15 1.513286 1_555
O38 P16 1.495116 1_555
O39 P13 1.563362 1_555
O40 P14 1.565987 1_555
O41 P12 1.563892 1_555
O42 P6 1.567861 1_555
O43 P7 1.569552 1_555
O44 P8 1.571384 1_555
O45 P9 1.564044 1_555
O46 P10 1.565749 1_555
O47 P11 1.563625 1_555
O48 P5 1.530215 1_545
O49 P3 1.508402 1_555
O50 P4 1.509430 1_655
O51 P1 1.522395 1_555
O52 P2 1.518798 1_655
O53 P0 1.519972 1_545
O54 P12 1.558752 1_555
O55 P13 1.560715 1_655
O56 P14 1.559691 1_545
O57 P15 1.553160 1_545
O58 P16 1.574673 1_555
O59 P17 1.572513 1_655
O60 P11 1.548661 1_555
O61 P9 1.548190 1_455
O62 P10 1.547895 1_565
O63 P7 1.549600 1_565
O64 P8 1.555205 1_555
O65 P6 1.553667 1_455
O66 P0 1.586480 1_555
O67 P1 1.589815 1_555
O68 P2 1.588713 1_555
O69 P3 1.579136 1_555
O70 P4 1.600173 1_555
O71 P5 1.574200 1_555
