# generated using pymatgen
data_NdCoO3
_symmetry_space_group_name_H-M   'P 1'
_cell_length_a   5.35441960
_cell_length_b   5.36020413
_cell_length_c   7.57320125
_cell_angle_alpha   90.00000000
_cell_angle_beta   90.00000000
_cell_angle_gamma   90.00021186
_symmetry_Int_Tables_number   1
_chemical_formula_structural   NdCoO3
_chemical_formula_sum   'Nd4 Co4 O12'
_cell_volume   217.35679852
_cell_formula_units_Z   4
loop_
 _symmetry_equiv_pos_site_id
 _symmetry_equiv_pos_as_xyz
  1  'x, y, z'
loop_
 _atom_site_type_symbol
 _atom_site_label
 _atom_site_symmetry_multiplicity
 _atom_site_fract_x
 _atom_site_fract_y
 _atom_site_fract_z
 _atom_site_occupancy
  Nd  Nd0  1  0.00763620  0.96165307  0.75000000  1
  Nd  Nd1  1  0.49236593  0.46165396  0.75000000  1
  Nd  Nd2  1  0.50763407  0.53834604  0.25000000  1
  Nd  Nd3  1  0.99236380  0.03834693  0.25000000  1
  Co  Co0  1  0.50000000  -0.00000000  0.50000000  1
  Co  Co1  1  0.00000000  0.50000000  0.00000000  1
  Co  Co2  1  0.00000000  0.50000000  0.50000000  1
  Co  Co3  1  0.50000000  -0.00000000  0.00000000  1
  O  O0  1  0.71511526  0.28419036  0.46185462  1
  O  O1  1  0.78488242  0.78418927  0.03814622  1
  O  O2  1  0.21511758  0.21581073  0.53814622  1
  O  O3  1  0.28488474  0.71580964  0.96185462  1
  O  O4  1  0.28488474  0.71580964  0.53814538  1
  O  O5  1  0.21511758  0.21581073  0.96185378  1
  O  O6  1  0.78488242  0.78418927  0.46185378  1
  O  O7  1  0.71511526  0.28419036  0.03814538  1
  O  O8  1  0.07065459  0.48979969  0.25000000  1
  O  O9  1  0.42934676  0.98980175  0.25000000  1
  O  O10  1  0.57065324  0.01019825  0.75000000  1
  O  O11  1  0.92934541  0.51020031  0.75000000  1
loop_
_geom_bond_atom_site_label_1
_geom_bond_atom_site_label_2
_geom_bond_distance
_geom_bond_site_symmetry_2
Nd0 O10 2.354216 1_465
Nd0 O2 2.379975 1_565
Nd0 O5 2.379975 1_565
Nd0 O11 2.455919 1_455
Nd0 O3 2.552341 1_555
Nd0 O4 2.552341 1_555
Nd0 O6 2.662589 1_455
Nd0 O1 2.662589 1_456
Nd1 O11 2.354196 1_555
Nd1 O4 2.379977 1_555
Nd1 O3 2.379977 1_555
Nd1 O10 2.455934 1_555
Nd1 O5 2.552330 1_555
Nd1 O2 2.552330 1_555
Nd1 O7 2.662575 1_556
Nd1 O0 2.662575 1_555
Nd2 O8 2.354196 1_555
Nd2 O7 2.379977 1_555
Nd2 O0 2.379977 1_555
Nd2 O9 2.455934 1_555
Nd2 O6 2.552330 1_555
Nd2 O1 2.552330 1_555
Nd2 O4 2.662575 1_555
Nd2 O3 2.662575 1_554
Nd3 O9 2.354216 1_645
Nd3 O1 2.379975 1_545
Nd3 O6 2.379975 1_545
Nd3 O8 2.455919 1_655
Nd3 O7 2.552341 1_555
Nd3 O0 2.552341 1_555
Nd3 O5 2.662589 1_654
Nd3 O2 2.662589 1_655
Co0 O4 1.931482 1_545
Co0 O0 1.931482 1_555
Co0 O9 1.931500 1_545
Co0 O10 1.931500 1_555
Co0 O6 1.936083 1_545
Co0 O2 1.936083 1_555
Co1 O5 1.931492 1_554
Co1 O1 1.931492 1_455
Co1 O11 1.931501 1_454
Co1 O8 1.931501 1_555
Co1 O7 1.936081 1_455
Co1 O3 1.936081 1_554
Co2 O2 1.931492 1_555
Co2 O6 1.931492 1_455
Co2 O11 1.931501 1_455
Co2 O8 1.931501 1_555
Co2 O0 1.936081 1_455
Co2 O4 1.936081 1_555
Co3 O3 1.931482 1_544
Co3 O7 1.931482 1_555
Co3 O9 1.931500 1_545
Co3 O10 1.931500 1_554
Co3 O1 1.936083 1_545
Co3 O5 1.936083 1_554
