# generated using pymatgen
data_Na4LaNb3Si4(PO12)2
_symmetry_space_group_name_H-M   'P 1'
_cell_length_a   9.11318628
_cell_length_b   9.14571902
_cell_length_c   22.93528999
_cell_angle_alpha   90.01863826
_cell_angle_beta   89.99999894
_cell_angle_gamma   120.03686652
_symmetry_Int_Tables_number   1
_chemical_formula_structural   Na4LaNb3Si4(PO12)2
_chemical_formula_sum   'Na12 La3 Nb9 Si12 P6 O72'
_cell_volume   1654.86085169
_cell_formula_units_Z   3
loop_
 _symmetry_equiv_pos_site_id
 _symmetry_equiv_pos_as_xyz
  1  'x, y, z'
loop_
 _atom_site_type_symbol
 _atom_site_label
 _atom_site_symmetry_multiplicity
 _atom_site_fract_x
 _atom_site_fract_y
 _atom_site_fract_z
 _atom_site_occupancy
  Na  Na0  1  0.63148211  0.62452984  0.74701289  1
  Na  Na1  1  0.99494564  0.37633014  0.74733927  1
  Na  Na2  1  0.31915805  0.97646393  0.08400377  1
  Na  Na3  1  0.02324998  0.34545229  0.08343914  1
  Na  Na4  1  0.96242668  0.29107437  0.41375324  1
  Na  Na5  1  0.70374557  0.67894909  0.41717511  1
  Na  Na6  1  0.00771571  0.99256592  0.50449373  1
  Na  Na7  1  0.98706236  0.98682318  0.99572406  1
  Na  Na8  1  0.64771594  0.31331465  0.83530536  1
  Na  Na9  1  0.65094330  0.31882786  0.32443325  1
  Na  Na10  1  0.35043386  0.66249918  0.16607419  1
  Na  Na11  1  0.33297596  0.67390105  0.66703177  1
  La  La0  1  0.01189146  0.99948696  0.35406143  1
  La  La1  1  0.65383993  0.32135246  0.68311903  1
  La  La2  1  0.66804156  0.33913786  0.17717045  1
  Nb  Nb0  1  0.00433082  0.00649862  0.85879213  1
  Nb  Nb1  1  0.99525560  0.00278115  0.64590649  1
  Nb  Nb2  1  0.99533849  0.99648635  0.14662991  1
  Nb  Nb3  1  0.66724735  0.33511412  0.97837968  1
  Nb  Nb4  1  0.67060543  0.33090957  0.48452163  1
  Nb  Nb5  1  0.33695087  0.66694352  0.01338414  1
  Nb  Nb6  1  0.33580541  0.66958665  0.52171724  1
  Nb  Nb7  1  0.33005421  0.67359147  0.31111437  1
  Nb  Nb8  1  0.33621017  0.66967744  0.81468655  1
  Si  Si0  1  0.28137200  0.29131851  0.75298795  1
  Si  Si1  1  0.71077764  0.99068960  0.75383171  1
  Si  Si2  1  0.97080944  0.33339270  0.58599435  1
  Si  Si3  1  0.67085897  0.63661704  0.58489914  1
  Si  Si4  1  0.96821421  0.63278409  0.07963299  1
  Si  Si5  1  0.66262841  0.03092125  0.08021349  1
  Si  Si6  1  0.36652334  0.33717081  0.08123635  1
  Si  Si7  1  0.62583837  0.66158233  0.91389093  1
  Si  Si8  1  0.03676724  0.37710293  0.91462542  1
  Si  Si9  1  0.33820782  0.96154393  0.91574231  1
  Si  Si10  1  0.60882423  0.96264562  0.41743818  1
  Si  Si11  1  0.03821815  0.65240211  0.41929018  1
  P  P0  1  0.29693732  0.98691991  0.24741210  1
  P  P1  1  0.69407787  0.70939562  0.25270920  1
  P  P2  1  0.01441700  0.30574959  0.25189537  1
  P  P3  1  0.01592944  0.72930402  0.75233414  1
  P  P4  1  0.35938763  0.03055058  0.58019640  1
  P  P5  1  0.35058459  0.39635897  0.41816782  1
  O  O0  1  0.21875862  0.00040535  0.30397702  1
  O  O1  1  0.77760887  0.78111014  0.31141167  1
  O  O2  1  0.99934639  0.21872032  0.31015736  1
  O  O3  1  0.17691264  0.17608890  0.80927479  1
  O  O4  1  0.00391670  0.82174983  0.80674109  1
  O  O5  1  0.82507281  0.99188790  0.80855576  1
  O  O6  1  0.80751734  0.97151010  0.69406208  1
  O  O7  1  0.16745329  0.18735229  0.69454797  1
  O  O8  1  0.02816280  0.83103738  0.69621344  1
  O  O9  1  0.80920798  0.82931395  0.20096303  1
  O  O10  1  0.02283187  0.19697455  0.19895922  1
  O  O11  1  0.18450568  0.97651780  0.19371524  1
  O  O12  1  0.91269133  0.37345608  0.64662898  1
  O  O13  1  0.45773418  0.08010189  0.63718544  1
  O  O14  1  0.62634458  0.53963897  0.64601338  1
  O  O15  1  0.92482431  0.51176017  0.13496654  1
  O  O16  1  0.59203094  0.07940812  0.13627031  1
  O  O17  1  0.46659203  0.38818192  0.14105192  1
  O  O18  1  0.46679304  0.29470742  0.02929713  1
  O  O19  1  0.83182979  0.53095691  0.02675252  1
  O  O20  1  0.70711878  0.17273484  0.02819284  1
  O  O21  1  0.46725720  0.15693671  0.53014820  1
  O  O22  1  0.68868363  0.52113800  0.53018369  1
  O  O23  1  0.83285057  0.30542016  0.53106926  1
  O  O24  1  0.52207088  0.68473653  0.96740056  1
  O  O25  1  0.15505220  0.47203734  0.97058567  1
  O  O26  1  0.31358097  0.84355464  0.97166856  1
  O  O27  1  0.50633600  0.83989676  0.47115932  1
  O  O28  1  0.34416186  0.49334321  0.47194403  1
  O  O29  1  0.15457742  0.65484640  0.47217390  1
  O  O30  1  0.13531861  0.63643494  0.35889814  1
  O  O31  1  0.49568952  0.85983836  0.35801350  1
  O  O32  1  0.36651801  0.50159696  0.36235314  1
  O  O33  1  0.13518303  0.49500705  0.85675098  1
  O  O34  1  0.36059533  0.85872668  0.85934852  1
  O  O35  1  0.50571446  0.63749211  0.85552643  1
  O  O36  1  0.99872444  0.80441499  0.42350460  1
  O  O37  1  0.79760849  0.98838211  0.41867853  1
  O  O38  1  0.18758454  0.22565069  0.41987896  1
  O  O39  1  0.01606721  0.18764683  0.90993011  1
  O  O40  1  0.16975858  0.98033930  0.90922614  1
  O  O41  1  0.81401278  0.82778562  0.90974369  1
  O  O42  1  0.97765782  0.15656902  0.58946413  1
  O  O43  1  0.18973535  0.02581289  0.58437176  1
  O  O44  1  0.84910804  0.81791740  0.58896403  1
  O  O45  1  0.97950984  0.81772115  0.09341072  1
  O  O46  1  0.84144954  0.02799899  0.09373657  1
  O  O47  1  0.17849731  0.15766503  0.09180187  1
  O  O48  1  0.71029792  0.16564171  0.75486282  1
  O  O49  1  0.47333134  0.32873419  0.75544470  1
  O  O50  1  0.85617436  0.55348496  0.75129327  1
  O  O51  1  0.66755211  0.53208996  0.24733829  1
  O  O52  1  0.86580383  0.33625195  0.24664595  1
  O  O53  1  0.47742542  0.13156685  0.24520426  1
  O  O54  1  0.63645480  0.49084713  0.92406594  1
  O  O55  1  0.85096278  0.35934826  0.92290264  1
  O  O56  1  0.50703794  0.14561485  0.92392806  1
  O  O57  1  0.62434988  0.14911820  0.42435447  1
  O  O58  1  0.51363055  0.38261474  0.42242221  1
  O  O59  1  0.85157830  0.47396010  0.42444612  1
  O  O60  1  0.31700424  0.48270984  0.06673919  1
  O  O61  1  0.16292626  0.67944834  0.06513441  1
  O  O62  1  0.51212888  0.84046032  0.06460472  1
  O  O63  1  0.32844725  0.85096696  0.56736669  1
  O  O64  1  0.51569827  0.67198467  0.56954481  1
  O  O65  1  0.15877069  0.48833465  0.57025319  1
  O  O66  1  0.29412474  0.81211033  0.25069484  1
  O  O67  1  0.52108864  0.70665826  0.25157549  1
  O  O68  1  0.18734946  0.47793751  0.25302436  1
  O  O69  1  0.28479607  0.47502876  0.75478239  1
  O  O70  1  0.17483413  0.70713566  0.75526390  1
  O  O71  1  0.52457446  0.81607985  0.75546775  1
loop_
_geom_bond_atom_site_label_1
_geom_bond_atom_site_label_2
_geom_bond_distance
_geom_bond_site_symmetry_2
Na0 O49 2.351614 1_555
Na0 O71 2.400894 1_555
Na0 O14 2.435850 1_555
Na0 O50 2.440645 1_555
Na0 O69 2.749299 1_555
Na0 O35 2.767238 1_555
Na1 O69 2.331126 1_655
Na1 O48 2.338370 1_555
Na1 O12 2.424478 1_555
Na1 O50 2.506754 1_555
Na1 O70 2.628348 1_655
Na1 O33 2.778121 1_655
Na2 O61 2.391804 1_555
Na2 O16 2.482477 1_565
Na2 O47 2.558913 1_565
Na2 O62 2.650888 1_555
Na2 O45 2.690071 1_455
Na2 O11 2.799642 1_555
Na2 O18 2.817433 1_565
Na2 O26 2.838011 1_554
Na3 O60 2.350551 1_555
Na3 O15 2.424728 1_455
Na3 O46 2.532779 1_455
Na3 O61 2.689903 1_555
Na3 O47 2.724122 1_555
Na3 O20 2.800618 1_455
Na3 O25 2.844696 1_554
Na3 O10 2.976734 1_555
Na4 O59 2.359988 1_555
Na4 O37 2.402081 1_545
Na4 O38 2.411897 1_655
Na4 O2 2.533444 1_555
Na4 O57 2.689376 1_555
Na4 O23 2.967531 1_555
Na4 O30 3.010372 1_655
Na5 O36 2.340084 1_555
Na5 O58 2.379241 1_555
Na5 O37 2.513604 1_555
Na5 O1 2.565546 1_555
Na5 O59 2.808267 1_555
Na6 O43 2.386424 1_565
Na6 O44 2.466695 1_455
Na6 O36 2.504973 1_455
Na6 O42 2.555804 1_465
Na6 O37 2.732786 1_455
Na6 O38 2.738953 1_565
Na7 O41 2.488600 1_555
Na7 O40 2.609598 1_655
Na7 O39 2.613706 1_665
Na7 O45 2.704069 1_556
Na7 O46 2.730517 1_566
Na7 O47 2.758528 1_666
Na8 O49 2.474840 1_555
Na8 O56 2.482115 1_555
Na8 O48 2.514507 1_555
Na8 O55 2.619757 1_555
Na8 O54 2.637376 1_555
Na8 O50 2.823422 1_555
Na9 O53 2.454057 1_555
Na9 O51 2.580760 1_555
Na9 O52 2.594251 1_555
Na9 O57 2.710264 1_555
Na9 O58 2.772548 1_555
Na9 O59 2.831709 1_555
Na10 O67 2.407900 1_555
Na10 O68 2.554544 1_555
Na10 O66 2.569725 1_555
Na10 O60 2.735536 1_555
Na10 O62 2.799618 1_555
Na10 O61 2.927289 1_555
Na11 O71 2.564943 1_555
Na11 O70 2.588937 1_555
Na11 O69 2.598908 1_555
Na11 O65 2.761828 1_555
Na11 O64 2.793124 1_555
Na11 O63 2.813993 1_555
La0 O0 2.204039 1_565
La0 O1 2.287793 1_455
La0 O2 2.297397 1_465
La0 O36 2.349796 1_455
La0 O38 2.408981 1_565
La0 O37 2.412810 1_455
La1 O13 2.285371 1_555
La1 O14 2.296627 1_555
La1 O12 2.316699 1_555
La1 O49 2.360798 1_555
La1 O48 2.394859 1_555
La1 O50 2.535916 1_555
La2 O17 2.254411 1_555
La2 O15 2.282091 1_555
La2 O16 2.313795 1_555
La2 O51 2.389577 1_555
La2 O53 2.399324 1_555
La2 O52 2.415675 1_555
Nb0 O3 1.930831 1_555
Nb0 O5 1.948189 1_445
Nb0 O39 1.988253 1_555
Nb0 O40 2.007306 1_545
Nb0 O41 2.051459 1_445
Nb0 O4 2.066989 1_545
Nb1 O6 1.933685 1_545
Nb1 O7 1.975725 1_655
Nb1 O42 1.976550 1_555
Nb1 O44 2.020457 1_545
Nb1 O8 2.088326 1_645
Nb1 O43 2.191755 1_655
Nb2 O46 1.981508 1_565
Nb2 O45 1.986525 1_555
Nb2 O47 2.019484 1_665
Nb2 O9 2.042702 1_555
Nb2 O10 2.098569 1_665
Nb2 O11 2.118199 1_655
Nb3 O19 1.999466 1_556
Nb3 O54 2.015044 1_555
Nb3 O55 2.024804 1_555
Nb3 O56 2.039701 1_555
Nb3 O18 2.040073 1_556
Nb3 O20 2.045495 1_556
Nb4 O23 1.930150 1_555
Nb4 O22 1.965352 1_555
Nb4 O21 2.027338 1_555
Nb4 O57 2.035464 1_555
Nb4 O59 2.042346 1_555
Nb4 O58 2.230756 1_555
Nb5 O24 1.926166 1_554
Nb5 O62 1.977257 1_555
Nb5 O26 1.978667 1_554
Nb5 O25 1.982321 1_554
Nb5 O60 2.016008 1_555
Nb5 O61 2.029398 1_555
Nb6 O27 1.940029 1_555
Nb6 O29 1.952947 1_555
Nb6 O64 1.963509 1_555
Nb6 O65 1.978329 1_555
Nb6 O63 1.990652 1_555
Nb6 O28 2.007185 1_555
Nb7 O31 1.939515 1_555
Nb7 O30 1.965318 1_555
Nb7 O66 2.012168 1_555
Nb7 O68 2.082555 1_555
Nb7 O67 2.111918 1_555
Nb7 O32 2.119041 1_555
Nb8 O34 1.924123 1_555
Nb8 O35 1.950786 1_555
Nb8 O33 1.977395 1_555
Nb8 O71 2.069878 1_555
Nb8 O69 2.107055 1_555
Nb8 O70 2.154597 1_555
O0 P0 1.514511 1_545
O1 P1 1.523787 1_555
O2 P2 1.526180 1_655
O3 Si0 1.637053 1_555
O4 P3 1.541397 1_555
O5 Si1 1.627546 1_555
O6 Si1 1.685777 1_555
O7 Si0 1.670130 1_555
O8 P3 1.559421 1_555
O9 P1 1.600329 1_555
O10 P2 1.595369 1_555
O11 P0 1.574147 1_555
O12 Si2 1.594583 1_555
O13 P4 1.519882 1_555
O14 Si3 1.598910 1_555
O15 Si4 1.598381 1_555
O16 Si5 1.596492 1_555
O17 Si6 1.582728 1_555
O18 Si6 1.661274 1_555
O19 Si4 1.650309 1_555
O20 Si5 1.656693 1_555
O21 P4 1.575870 1_555
O22 Si3 1.699269 1_555
O23 Si2 1.706109 1_555
O24 Si7 1.626522 1_555
O25 Si8 1.620314 1_555
O26 Si9 1.618193 1_555
O27 Si10 1.613052 1_555
O28 P5 1.537091 1_555
O29 Si11 1.603852 1_555
O30 Si11 1.688824 1_555
O31 Si10 1.683239 1_555
O32 P5 1.564308 1_555
O33 Si8 1.661866 1_555
O34 Si9 1.670340 1_555
O35 Si7 1.672469 1_555
O36 Si11 1.603923 1_655
O37 Si10 1.615757 1_555
O38 P5 1.524434 1_555
O39 Si8 1.649886 1_555
O40 Si9 1.634820 1_555
O41 Si7 1.628151 1_555
O42 Si2 1.651249 1_555
O43 P4 1.527850 1_555
O44 Si3 1.643231 1_555
O45 Si4 1.672296 1_555
O46 Si5 1.672188 1_555
O47 Si6 1.695316 1_555
O48 Si1 1.602422 1_545
O49 Si0 1.606623 1_555
O50 P3 1.536917 1_655
O51 P1 1.520065 1_555
O52 P2 1.518160 1_655
O53 P0 1.509885 1_545
O54 Si7 1.628978 1_555
O55 Si8 1.629213 1_655
O56 Si9 1.625818 1_545
O57 Si10 1.646790 1_545
O58 P5 1.555673 1_555
O59 Si11 1.670800 1_655
O60 Si6 1.639377 1_555
O61 Si4 1.638088 1_455
O62 Si5 1.628293 1_565
O63 P4 1.549097 1_565
O64 Si3 1.638909 1_555
O65 Si2 1.625675 1_455
O66 P0 1.587895 1_555
O67 P1 1.564318 1_555
O68 P2 1.574701 1_555
O69 Si0 1.665257 1_555
O70 P3 1.560972 1_555
O71 Si1 1.648715 1_555
