# generated using pymatgen
data_Na2Sm2MgTi2O8
_symmetry_space_group_name_H-M   'P 1'
_cell_length_a   3.66989292
_cell_length_b   3.66989292
_cell_length_c   16.23264980
_cell_angle_alpha   85.76115944
_cell_angle_beta   94.23884056
_cell_angle_gamma   90.35059192
_symmetry_Int_Tables_number   1
_chemical_formula_structural   Na2Sm2MgTi2O8
_chemical_formula_sum   'Na2 Sm2 Mg1 Ti2 O8'
_cell_volume   217.42872322
_cell_formula_units_Z   1
loop_
 _symmetry_equiv_pos_site_id
 _symmetry_equiv_pos_as_xyz
  1  'x, y, z'
loop_
 _atom_site_type_symbol
 _atom_site_label
 _atom_site_symmetry_multiplicity
 _atom_site_fract_x
 _atom_site_fract_y
 _atom_site_fract_z
 _atom_site_occupancy
  Na  Na0  1  0.22021904  0.27978096  0.58551474  1
  Na  Na1  1  0.67921962  0.82078038  0.45598416  1
  Sm  Sm0  1  0.88917887  0.61082113  0.01884595  1
  Sm  Sm1  1  0.30715410  0.19284590  0.84615086  1
  Mg  Mg0  1  0.60490197  0.89509803  0.22243812  1
  Ti  Ti0  1  0.13976778  0.36023222  0.32991405  1
  Ti  Ti1  1  0.76128188  0.73871812  0.71045596  1
  O  O0  1  0.80799050  0.69200950  0.88218957  1
  O  O1  1  0.33298615  0.16701385  0.99076558  1
  O  O2  1  0.72539488  0.77460512  0.60001757  1
  O  O3  1  0.17535353  0.32464647  0.44039686  1
  O  O4  1  0.62738908  0.37137694  0.29110076  1
  O  O5  1  0.12862306  0.87261092  0.29110076  1
  O  O6  1  0.77421021  0.22724166  0.74664403  1
  O  O7  1  0.27275834  0.72578979  0.74664403  1
loop_
_geom_bond_atom_site_label_1
_geom_bond_atom_site_label_2
_geom_bond_distance
_geom_bond_site_symmetry_2
Na0 O3 2.342852 1_555
Na0 O2 2.597629 1_445
Na0 O2 2.597629 1_555
Na0 O2 2.611041 1_455
Na0 O2 2.615844 1_545
Na1 O2 2.325316 1_555
Na1 O3 2.599272 1_665
Na1 O3 2.599272 1_555
Na1 O3 2.608857 1_565
Na1 O3 2.621282 1_655
Mg0 O4 2.139358 1_565
Mg0 O5 2.139358 1_555
Mg0 O4 2.148218 1_555
Mg0 O5 2.148218 1_655
O0 Sm0 2.214511 1_556
O0 Sm1 2.611948 1_565
O0 Sm1 2.652276 1_555
O0 Sm1 2.652276 1_665
O0 Sm1 2.722441 1_655
O0 Ti1 2.772917 1_555
O1 Sm1 2.337296 1_555
O1 Sm0 2.401088 1_456
O1 Sm0 2.637879 1_446
O1 Sm0 2.637879 1_556
O1 Sm0 2.883819 1_546
O2 Ti1 1.782947 1_555
O3 Ti0 1.783664 1_555
O4 Ti0 1.938152 1_655
O4 Ti0 1.939837 1_555
O5 Ti0 1.938152 1_555
O5 Ti0 1.939837 1_565
O6 Ti1 1.924749 1_555
O6 Ti1 1.926677 1_545
O6 Sm1 2.437097 1_555
O6 Sm1 2.440532 1_655
O7 Ti1 1.924749 1_455
O7 Ti1 1.926677 1_555
O7 Sm1 2.437097 1_565
O7 Sm1 2.440532 1_555
