# generated using pymatgen
data_Mg(BiO2)4
_symmetry_space_group_name_H-M   'P 1'
_cell_length_a   6.73359429
_cell_length_b   5.82318224
_cell_length_c   7.60056136
_cell_angle_alpha   112.89920137
_cell_angle_beta   128.11084050
_cell_angle_gamma   90.14017553
_symmetry_Int_Tables_number   1
_chemical_formula_structural   Mg(BiO2)4
_chemical_formula_sum   'Mg1 Bi4 O8'
_cell_volume   203.55240613
_cell_formula_units_Z   1
loop_
 _symmetry_equiv_pos_site_id
 _symmetry_equiv_pos_as_xyz
  1  'x, y, z'
loop_
 _atom_site_type_symbol
 _atom_site_label
 _atom_site_symmetry_multiplicity
 _atom_site_fract_x
 _atom_site_fract_y
 _atom_site_fract_z
 _atom_site_occupancy
  Mg  Mg0  1  0.05143454  0.21657508  0.93620970  1
  Bi  Bi0  1  0.67873895  0.27644024  0.07638492  1
  Bi  Bi1  1  0.33216196  0.75079620  0.99331602  1
  Bi  Bi2  1  0.16716057  0.97037735  0.43703936  1
  Bi  Bi3  1  0.53792830  0.52005202  0.54719428  1
  O  O0  1  0.22258533  0.00487499  0.79499817  1
  O  O1  1  0.11487626  0.50552468  0.27153485  1
  O  O2  1  0.91667401  0.47022781  0.77548848  1
  O  O3  1  0.67346587  0.95788072  0.75672533  1
  O  O4  1  0.28471603  0.08095512  0.23307821  1
  O  O5  1  0.42236046  0.42462514  0.72983306  1
  O  O6  1  0.50765577  0.52210842  0.24638391  1
  O  O7  1  0.76524194  0.01384824  0.23885070  1
loop_
_geom_bond_atom_site_label_1
_geom_bond_atom_site_label_2
_geom_bond_distance
_geom_bond_site_symmetry_2
Mg0 O0 2.122244 1_555
Mg0 O2 2.130690 1_455
Mg0 O3 2.168884 1_445
Mg0 O1 2.196485 1_556
Mg0 O4 2.280382 1_556
Mg0 O6 2.435151 1_556
Bi0 O7 2.188211 1_555
Bi0 O6 2.334538 1_555
Bi0 O1 2.380828 1_655
Bi0 O3 2.393969 1_544
Bi0 O0 2.396812 1_554
Bi0 O5 2.612658 1_554
Bi1 O4 2.261492 1_566
Bi1 O7 2.317124 1_566
Bi1 O0 2.318098 1_565
Bi1 O2 2.322216 1_455
Bi1 O6 2.462706 1_556
Bi1 O5 2.556134 1_555
Bi2 O7 2.219338 1_465
Bi2 O5 2.361895 1_565
Bi2 O4 2.394458 1_565
Bi2 O1 2.415056 1_555
Bi2 O0 2.429552 1_565
Bi2 O3 2.728694 1_555
Bi3 O2 2.128884 1_555
Bi3 O6 2.171411 1_555
Bi3 O5 2.184710 1_555
Bi3 O3 2.214521 1_555
Bi3 O1 2.237275 1_555
Bi3 O4 2.312626 1_555
