# generated using pymatgen
data_Nb3Ga2Cl9
_symmetry_space_group_name_H-M   'P 1'
_cell_length_a   9.29797870
_cell_length_b   9.29797870
_cell_length_c   9.60430964
_cell_angle_alpha   73.73151080
_cell_angle_beta   73.73151080
_cell_angle_gamma   105.52680493
_symmetry_Int_Tables_number   1
_chemical_formula_structural   Nb3Ga2Cl9
_chemical_formula_sum   'Nb6 Ga4 Cl18'
_cell_volume   709.11669127
_cell_formula_units_Z   2
loop_
 _symmetry_equiv_pos_site_id
 _symmetry_equiv_pos_as_xyz
  1  'x, y, z'
loop_
 _atom_site_type_symbol
 _atom_site_label
 _atom_site_symmetry_multiplicity
 _atom_site_fract_x
 _atom_site_fract_y
 _atom_site_fract_z
 _atom_site_occupancy
  Nb  Nb0  1  0.60627043  0.60627043  0.12929973  1
  Nb  Nb1  1  0.39372957  0.39372957  0.87070027  1
  Nb  Nb2  1  0.47194612  0.27567467  0.14581995  1
  Nb  Nb3  1  0.52805388  0.72432533  0.85418005  1
  Nb  Nb4  1  0.72432533  0.52805388  0.85418005  1
  Nb  Nb5  1  0.27567467  0.47194612  0.14581995  1
  Ga  Ga0  1  0.72596325  0.02884845  0.34388315  1
  Ga  Ga1  1  0.27403675  0.97115155  0.65611685  1
  Ga  Ga2  1  0.97115155  0.27403675  0.65611685  1
  Ga  Ga3  1  0.02884845  0.72596325  0.34388315  1
  Cl  Cl0  1  0.73337309  0.26662691  0.00000000  1
  Cl  Cl1  1  0.26662691  0.73337309  0.00000000  1
  Cl  Cl2  1  0.43727576  0.98749186  0.33600993  1
  Cl  Cl3  1  0.56272424  0.01250814  0.66399007  1
  Cl  Cl4  1  0.01250814  0.56272424  0.66399007  1
  Cl  Cl5  1  0.98749186  0.43727576  0.33600993  1
  Cl  Cl6  1  0.34453261  0.11014954  0.02016181  1
  Cl  Cl7  1  0.65546739  0.88985046  0.97983819  1
  Cl  Cl8  1  0.88985046  0.65546739  0.97983819  1
  Cl  Cl9  1  0.11014954  0.34453261  0.02016181  1
  Cl  Cl10  1  0.74379208  0.74379208  0.28964433  1
  Cl  Cl11  1  0.25620792  0.25620792  0.71035567  1
  Cl  Cl12  1  0.80285235  0.80285235  0.65548172  1
  Cl  Cl13  1  0.19714765  0.19714765  0.34451828  1
  Cl  Cl14  1  0.59041331  0.35783345  0.32503277  1
  Cl  Cl15  1  0.40958669  0.64216655  0.67496723  1
  Cl  Cl16  1  0.64216655  0.40958669  0.67496723  1
  Cl  Cl17  1  0.35783345  0.59041331  0.32503277  1
loop_
_geom_bond_atom_site_label_1
_geom_bond_atom_site_label_2
_geom_bond_distance
_geom_bond_site_symmetry_2
Cl0 Nb2 2.478941 1_555
Cl0 Nb4 2.478941 1_554
Cl1 Nb3 2.478941 1_554
Cl1 Nb5 2.478941 1_555
Cl2 Ga0 2.633625 1_565
Cl2 Nb2 2.661898 1_565
Cl2 Ga1 2.962964 1_555
Cl3 Ga1 2.633625 1_545
Cl3 Nb3 2.661898 1_545
Cl3 Ga0 2.962964 1_555
Cl4 Ga2 2.633625 1_455
Cl4 Nb4 2.661898 1_455
Cl4 Ga3 2.962964 1_555
Cl5 Ga3 2.633625 1_655
Cl5 Nb5 2.661898 1_655
Cl5 Ga2 2.962964 1_555
Cl6 Nb1 2.467363 1_554
Cl6 Nb2 2.468652 1_555
Cl7 Nb0 2.467363 1_556
Cl7 Nb3 2.468652 1_555
Cl8 Nb0 2.467363 1_556
Cl8 Nb4 2.468652 1_555
Cl9 Nb1 2.467363 1_554
Cl9 Nb5 2.468652 1_555
Cl10 Nb0 2.640608 1_555
Cl10 Ga3 2.878217 1_655
Cl10 Ga0 2.878217 1_565
Cl11 Nb1 2.640608 1_555
Cl11 Ga1 2.878217 1_545
Cl11 Ga2 2.878217 1_455
Cl12 Nb3 2.488365 1_555
Cl12 Nb4 2.488365 1_555
Cl13 Nb2 2.488365 1_555
Cl13 Nb5 2.488365 1_555
Cl14 Nb2 2.471415 1_555
Cl14 Nb0 2.474066 1_555
Cl15 Nb3 2.471415 1_555
Cl15 Nb1 2.474066 1_555
Cl16 Nb4 2.471415 1_555
Cl16 Nb1 2.474066 1_555
Cl17 Nb5 2.471415 1_555
Cl17 Nb0 2.474066 1_555
