# generated using pymatgen
data_CrH8C4(S2N3)2
_symmetry_space_group_name_H-M   'P 1'
_cell_length_a   4.11164400
_cell_length_b   7.64496192
_cell_length_c   10.30421583
_cell_angle_alpha   92.82334618
_cell_angle_beta   100.52206034
_cell_angle_gamma   99.65240007
_symmetry_Int_Tables_number   1
_chemical_formula_structural   CrH8C4(S2N3)2
_chemical_formula_sum   'Cr1 H8 C4 S4 N6'
_cell_volume   312.87363536
_cell_formula_units_Z   1
loop_
 _symmetry_equiv_pos_site_id
 _symmetry_equiv_pos_as_xyz
  1  'x, y, z'
loop_
 _atom_site_type_symbol
 _atom_site_label
 _atom_site_symmetry_multiplicity
 _atom_site_fract_x
 _atom_site_fract_y
 _atom_site_fract_z
 _atom_site_occupancy
  Cr  Cr0  1  0.00000000  0.00000000  0.00000000  1
  H  H0  1  0.33049100  0.91654100  0.28341800  1
  H  H1  1  0.66950900  0.08345900  0.71658200  1
  H  H2  1  0.49629300  0.76769200  0.39124900  1
  H  H3  1  0.50370700  0.23230800  0.60875100  1
  H  H4  1  0.56685200  0.46646200  0.12611200  1
  H  H5  1  0.43314800  0.53353800  0.87388800  1
  H  H6  1  0.62049400  0.50125500  0.29732200  1
  H  H7  1  0.37950600  0.49874500  0.70267800  1
  C  C0  1  0.43914400  0.69917800  0.19138900  1
  C  C1  1  0.56085600  0.30082200  0.80861100  1
  C  C2  1  0.95054700  0.82350400  0.71151100  1
  C  C3  1  0.04945300  0.17649600  0.28848900  1
  S  S0  1  0.33630400  0.76279100  0.03237500  1
  S  S1  1  0.66369600  0.23720900  0.96762500  1
  S  S2  1  0.97708700  0.71433000  0.57709700  1
  S  S3  1  0.02291300  0.28567000  0.42290300  1
  N  N0  1  0.41169400  0.79878200  0.29720500  1
  N  N1  1  0.58830600  0.20121800  0.70279500  1
  N  N2  1  0.55309100  0.54642500  0.20656600  1
  N  N3  1  0.44690900  0.45357500  0.79343400  1
  N  N4  1  0.93290100  0.90442600  0.81131000  1
  N  N5  1  0.06709900  0.09557400  0.18869000  1
loop_
_geom_bond_atom_site_label_1
_geom_bond_atom_site_label_2
_geom_bond_distance
_geom_bond_site_symmetry_2
Cr0 N5 1.996705 1_555
Cr0 N4 1.996705 1_444
Cr0 S1 2.458444 1_454
Cr0 S0 2.458444 1_545
Cr0 S1 3.095041 1_554
Cr0 S0 3.095041 1_445
H0 N0 1.018922 1_555
H1 N1 1.018922 1_555
H2 N0 1.021689 1_555
H3 N1 1.021689 1_555
H4 N2 1.021263 1_555
H5 N3 1.021263 1_555
H6 N2 1.019728 1_555
H7 N3 1.019728 1_555
C0 N0 1.331695 1_555
C0 N2 1.335064 1_555
C0 S0 1.730447 1_555
C1 N1 1.331695 1_555
C1 N3 1.335064 1_555
C1 S1 1.730447 1_555
C2 N4 1.193784 1_555
C2 S2 1.612045 1_555
C3 N5 1.193784 1_555
C3 S3 1.612045 1_555
