# generated using pymatgen
data_Cs4Sn23
_symmetry_space_group_name_H-M   'P 1'
_cell_length_a   12.58870120
_cell_length_b   12.58870120
_cell_length_c   12.58870120
_cell_angle_alpha   90.00000000
_cell_angle_beta   90.00000000
_cell_angle_gamma   90.00000000
_symmetry_Int_Tables_number   1
_chemical_formula_structural   Cs4Sn23
_chemical_formula_sum   'Cs8 Sn46'
_cell_volume   1994.99943175
_cell_formula_units_Z   2
loop_
 _symmetry_equiv_pos_site_id
 _symmetry_equiv_pos_as_xyz
  1  'x, y, z'
loop_
 _atom_site_type_symbol
 _atom_site_label
 _atom_site_symmetry_multiplicity
 _atom_site_fract_x
 _atom_site_fract_y
 _atom_site_fract_z
 _atom_site_occupancy
  Cs  Cs0  1  0.00000000  0.25000000  0.50000000  1
  Cs  Cs1  1  0.00000000  0.75000000  0.50000000  1
  Cs  Cs2  1  0.50000000  -0.00000000  0.75000000  1
  Cs  Cs3  1  0.50000000  -0.00000000  0.25000000  1
  Cs  Cs4  1  0.75000000  0.50000000  -0.00000000  1
  Cs  Cs5  1  0.25000000  0.50000000  -0.00000000  1
  Cs  Cs6  1  0.50000000  0.50000000  0.50000000  1
  Cs  Cs7  1  0.00000000  -0.00000000  -0.00000000  1
  Sn  Sn0  1  0.50000000  0.38169186  0.19266589  1
  Sn  Sn1  1  0.50000000  0.61830814  0.80733411  1
  Sn  Sn2  1  0.38169186  0.19266589  0.50000000  1
  Sn  Sn3  1  0.61830814  0.19266589  0.50000000  1
  Sn  Sn4  1  0.19266589  0.50000000  0.38169186  1
  Sn  Sn5  1  0.80733411  0.50000000  0.38169186  1
  Sn  Sn6  1  0.00000000  0.69266589  0.11830814  1
  Sn  Sn7  1  0.00000000  0.30733411  0.88169186  1
  Sn  Sn8  1  0.25000000  -0.00000000  0.50000000  1
  Sn  Sn9  1  0.75000000  -0.00000000  0.50000000  1
  Sn  Sn10  1  0.00000000  0.50000000  0.25000000  1
  Sn  Sn11  1  0.00000000  0.50000000  0.75000000  1
  Sn  Sn12  1  0.50000000  0.75000000  -0.00000000  1
  Sn  Sn13  1  0.50000000  0.25000000  -0.00000000  1
  Sn  Sn14  1  0.18424508  0.18424508  0.18424508  1
  Sn  Sn15  1  0.68424508  0.31575492  0.68424508  1
  Sn  Sn16  1  0.68424508  0.68424508  0.31575492  1
  Sn  Sn17  1  0.31575492  0.68424508  0.68424508  1
  Sn  Sn18  1  0.81575492  0.81575492  0.18424508  1
  Sn  Sn19  1  0.18424508  0.81575492  0.81575492  1
  Sn  Sn20  1  0.81575492  0.18424508  0.81575492  1
  Sn  Sn21  1  0.31575492  0.31575492  0.31575492  1
  Sn  Sn22  1  0.81575492  0.81575492  0.81575492  1
  Sn  Sn23  1  0.31575492  0.68424508  0.31575492  1
  Sn  Sn24  1  0.31575492  0.31575492  0.68424508  1
  Sn  Sn25  1  0.68424508  0.31575492  0.31575492  1
  Sn  Sn26  1  0.18424508  0.18424508  0.81575492  1
  Sn  Sn27  1  0.81575492  0.18424508  0.18424508  1
  Sn  Sn28  1  0.18424508  0.81575492  0.18424508  1
  Sn  Sn29  1  0.68424508  0.68424508  0.68424508  1
  Sn  Sn30  1  0.00000000  0.30733411  0.11830814  1
  Sn  Sn31  1  0.50000000  0.38169186  0.80733411  1
  Sn  Sn32  1  0.50000000  0.61830814  0.19266589  1
  Sn  Sn33  1  0.61830814  0.80733411  0.50000000  1
  Sn  Sn34  1  0.38169186  0.80733411  0.50000000  1
  Sn  Sn35  1  0.19266589  0.50000000  0.61830814  1
  Sn  Sn36  1  0.80733411  0.50000000  0.61830814  1
  Sn  Sn37  1  0.11830814  -0.00000000  0.30733411  1
  Sn  Sn38  1  0.30733411  0.11830814  -0.00000000  1
  Sn  Sn39  1  0.69266589  0.88169186  -0.00000000  1
  Sn  Sn40  1  0.11830814  -0.00000000  0.69266589  1
  Sn  Sn41  1  0.69266589  0.11830814  -0.00000000  1
  Sn  Sn42  1  0.88169186  -0.00000000  0.30733411  1
  Sn  Sn43  1  0.88169186  -0.00000000  0.69266589  1
  Sn  Sn44  1  0.30733411  0.88169186  -0.00000000  1
  Sn  Sn45  1  0.00000000  0.69266589  0.88169186  1
loop_
_geom_bond_atom_site_label_1
_geom_bond_atom_site_label_2
_geom_bond_distance
_geom_bond_site_symmetry_2
Cs0 Sn37 4.243288 1_555
Cs0 Sn42 4.243288 1_455
Cs0 Sn43 4.243288 1_455
Cs0 Sn40 4.243288 1_555
Cs0 Sn36 4.243288 1_455
Cs0 Sn5 4.243288 1_455
Cs0 Sn35 4.243288 1_555
Cs0 Sn4 4.243288 1_555
Cs0 Sn11 4.450778 1_555
Cs0 Sn8 4.450778 1_555
Cs0 Sn9 4.450778 1_455
Cs0 Sn10 4.450778 1_555
Cs1 Sn37 4.243288 1_565
Cs1 Sn40 4.243288 1_565
Cs1 Sn43 4.243288 1_465
Cs1 Sn42 4.243288 1_465
Cs1 Sn36 4.243288 1_455
Cs1 Sn5 4.243288 1_455
Cs1 Sn35 4.243288 1_555
Cs1 Sn4 4.243288 1_555
Cs1 Sn11 4.450778 1_555
Cs1 Sn8 4.450778 1_565
Cs1 Sn9 4.450778 1_465
Cs1 Sn10 4.450778 1_555
Cs2 Sn38 4.243288 1_556
Cs2 Sn34 4.243288 1_545
Cs2 Sn33 4.243288 1_545
Cs2 Sn2 4.243288 1_555
Cs2 Sn44 4.243288 1_546
Cs2 Sn3 4.243288 1_555
Cs2 Sn39 4.243288 1_546
Cs2 Sn41 4.243288 1_556
Cs2 Sn12 4.450778 1_546
Cs2 Sn8 4.450778 1_555
Cs2 Sn13 4.450778 1_556
Cs2 Sn9 4.450778 1_555
Cs3 Sn34 4.243288 1_545
Cs3 Sn33 4.243288 1_545
Cs3 Sn2 4.243288 1_555
Cs3 Sn41 4.243288 1_555
Cs3 Sn44 4.243288 1_545
Cs3 Sn3 4.243288 1_555
Cs3 Sn38 4.243288 1_555
Cs3 Sn39 4.243288 1_545
Cs3 Sn8 4.450778 1_555
Cs3 Sn13 4.450778 1_555
Cs3 Sn12 4.450778 1_545
Cs3 Sn9 4.450778 1_555
Cs4 Sn32 4.243288 1_555
Cs4 Sn1 4.243288 1_554
Cs4 Sn0 4.243288 1_555
Cs4 Sn31 4.243288 1_554
Cs4 Sn45 4.243288 1_654
Cs4 Sn30 4.243288 1_655
Cs4 Sn6 4.243288 1_655
Cs4 Sn7 4.243288 1_654
Cs4 Sn10 4.450778 1_655
Cs4 Sn11 4.450778 1_654
Cs4 Sn12 4.450778 1_555
Cs4 Sn13 4.450778 1_555
Cs5 Sn1 4.243288 1_554
Cs5 Sn0 4.243288 1_555
Cs5 Sn31 4.243288 1_554
Cs5 Sn32 4.243288 1_555
Cs5 Sn7 4.243288 1_554
Cs5 Sn45 4.243288 1_554
Cs5 Sn6 4.243288 1_555
Cs5 Sn30 4.243288 1_555
Cs5 Sn10 4.450778 1_555
Cs5 Sn11 4.450778 1_554
Cs5 Sn12 4.450778 1_555
Cs5 Sn13 4.450778 1_555
Cs6 Sn29 4.017329 1_555
Cs6 Sn16 4.017329 1_555
Cs6 Sn17 4.017329 1_555
Cs6 Sn25 4.017329 1_555
Cs6 Sn15 4.017329 1_555
Cs6 Sn23 4.017329 1_555
Cs6 Sn24 4.017329 1_555
Cs6 Sn21 4.017329 1_555
Cs6 Sn34 4.145700 1_555
Cs6 Sn33 4.145700 1_555
Cs6 Sn36 4.145700 1_555
Cs6 Sn31 4.145700 1_555
Cs6 Sn32 4.145700 1_555
Cs6 Sn5 4.145700 1_555
Cs6 Sn4 4.145700 1_555
Cs6 Sn1 4.145700 1_555
Cs6 Sn2 4.145700 1_555
Cs6 Sn0 4.145700 1_555
Cs6 Sn35 4.145700 1_555
Cs6 Sn3 4.145700 1_555
Cs7 Sn22 4.017329 1_444
Cs7 Sn19 4.017329 1_544
Cs7 Sn27 4.017329 1_455
Cs7 Sn20 4.017329 1_454
Cs7 Sn18 4.017329 1_445
Cs7 Sn26 4.017329 1_554
Cs7 Sn28 4.017329 1_545
Cs7 Sn14 4.017329 1_555
Cs7 Sn41 4.145700 1_455
Cs7 Sn45 4.145700 1_544
Cs7 Sn40 4.145700 1_554
Cs7 Sn30 4.145700 1_555
Cs7 Sn7 4.145700 1_554
Cs7 Sn42 4.145700 1_455
Cs7 Sn44 4.145700 1_545
Cs7 Sn6 4.145700 1_545
Cs7 Sn39 4.145700 1_445
Cs7 Sn38 4.145700 1_555
Cs7 Sn43 4.145700 1_454
Cs7 Sn37 4.145700 1_555
Sn0 Sn25 2.910274 1_555
Sn0 Sn21 2.910274 1_555
Sn0 Sn13 2.937861 1_555
Sn0 Sn32 2.978692 1_555
Sn1 Sn29 2.910274 1_555
Sn1 Sn17 2.910274 1_555
Sn1 Sn12 2.937861 1_556
Sn1 Sn31 2.978692 1_555
Sn2 Sn24 2.910274 1_555
Sn2 Sn21 2.910274 1_555
Sn2 Sn8 2.937861 1_555
Sn2 Sn3 2.978692 1_555
Sn3 Sn9 2.937861 1_555
Sn10 Sn5 2.937861 1_455
Sn10 Sn6 2.937861 1_555
Sn10 Sn4 2.937861 1_555
Sn10 Sn30 2.937861 1_555
Sn11 Sn45 2.937861 1_555
Sn11 Sn35 2.937861 1_555
Sn11 Sn7 2.937861 1_555
Sn11 Sn36 2.937861 1_455
Sn12 Sn32 2.937861 1_555
Sn12 Sn39 2.937861 1_555
Sn12 Sn44 2.937861 1_555
Sn13 Sn41 2.937861 1_555
Sn13 Sn38 2.937861 1_555
Sn13 Sn31 2.937861 1_554
Sn14 Sn21 2.867476 1_555
Sn14 Sn38 2.910274 1_555
Sn14 Sn30 2.910274 1_555
Sn14 Sn37 2.910274 1_555
Sn15 Sn20 2.867476 1_555
Sn15 Sn3 2.910274 1_555
Sn15 Sn31 2.910274 1_555
Sn15 Sn36 2.910274 1_555
Sn16 Sn18 2.867476 1_555
Sn16 Sn32 2.910274 1_555
Sn16 Sn5 2.910274 1_555
Sn16 Sn33 2.910274 1_555
Sn17 Sn19 2.867476 1_555
Sn17 Sn35 2.910274 1_555
Sn17 Sn34 2.910274 1_555
Sn18 Sn42 2.910274 1_565
Sn18 Sn6 2.910274 1_655
Sn18 Sn39 2.910274 1_555
Sn19 Sn44 2.910274 1_556
Sn19 Sn40 2.910274 1_565
Sn19 Sn45 2.910274 1_555
Sn20 Sn7 2.910274 1_655
Sn20 Sn41 2.910274 1_556
Sn20 Sn43 2.910274 1_555
Sn21 Sn4 2.910274 1_555
Sn22 Sn29 2.867476 1_555
Sn22 Sn43 2.910274 1_565
Sn22 Sn39 2.910274 1_556
Sn22 Sn45 2.910274 1_655
Sn23 Sn28 2.867476 1_555
Sn23 Sn4 2.910274 1_555
Sn23 Sn32 2.910274 1_555
Sn23 Sn34 2.910274 1_555
Sn24 Sn26 2.867476 1_555
Sn24 Sn35 2.910274 1_555
Sn24 Sn31 2.910274 1_555
Sn25 Sn27 2.867476 1_555
Sn25 Sn5 2.910274 1_555
Sn25 Sn3 2.910274 1_555
Sn26 Sn38 2.910274 1_556
Sn26 Sn7 2.910274 1_555
Sn26 Sn40 2.910274 1_555
Sn27 Sn30 2.910274 1_655
Sn27 Sn42 2.910274 1_555
Sn27 Sn41 2.910274 1_555
Sn28 Sn37 2.910274 1_565
Sn28 Sn44 2.910274 1_555
Sn28 Sn6 2.910274 1_555
Sn29 Sn33 2.910274 1_555
Sn29 Sn36 2.910274 1_555
Sn30 Sn7 2.978692 1_554
Sn33 Sn9 2.937861 1_565
Sn33 Sn34 2.978692 1_555
Sn34 Sn8 2.937861 1_565
Sn35 Sn4 2.978692 1_555
Sn36 Sn5 2.978692 1_555
Sn37 Sn8 2.937861 1_555
Sn37 Sn42 2.978692 1_455
Sn38 Sn44 2.978692 1_545
Sn39 Sn41 2.978692 1_565
Sn40 Sn8 2.937861 1_555
Sn40 Sn43 2.978692 1_455
Sn42 Sn9 2.937861 1_555
Sn43 Sn9 2.937861 1_555
Sn45 Sn6 2.978692 1_556
