# generated using pymatgen
data_SrMgVO3
_symmetry_space_group_name_H-M   'P 1'
_cell_length_a   4.48113164
_cell_length_b   4.46589282
_cell_length_c   4.46589282
_cell_angle_alpha   81.27031297
_cell_angle_beta   81.21387315
_cell_angle_gamma   81.21387315
_symmetry_Int_Tables_number   1
_chemical_formula_structural   SrMgVO3
_chemical_formula_sum   'Sr1 Mg1 V1 O3'
_cell_volume   86.52928078
_cell_formula_units_Z   1
loop_
 _symmetry_equiv_pos_site_id
 _symmetry_equiv_pos_as_xyz
  1  'x, y, z'
loop_
 _atom_site_type_symbol
 _atom_site_label
 _atom_site_symmetry_multiplicity
 _atom_site_fract_x
 _atom_site_fract_y
 _atom_site_fract_z
 _atom_site_occupancy
  Sr  Sr0  1  0.38677958  0.38326733  0.38326733  1
  Mg  Mg0  1  0.75220536  0.74761161  0.74761161  1
  V  V0  1  0.03944751  0.03684040  0.03684040  1
  O  O0  1  0.02319394  0.52353229  0.02188968  1
  O  O1  1  0.02319394  0.02188968  0.52353229  1
  O  O2  1  0.52517767  0.02018969  0.02018969  1
loop_
_geom_bond_atom_site_label_1
_geom_bond_atom_site_label_2
_geom_bond_distance
_geom_bond_site_symmetry_2
Mg0 O1 1.920286 1_665
Mg0 O0 1.920286 1_656
Mg0 O2 1.921404 1_566
O0 V0 2.154762 1_555
O0 V0 2.315970 1_565
O0 Sr0 2.415810 1_555
O1 V0 2.154762 1_555
O1 V0 2.315970 1_556
O1 Sr0 2.415810 1_555
O2 V0 2.156739 1_555
O2 V0 2.329852 1_655
O2 Sr0 2.413832 1_555
