# generated using pymatgen
data_NaSc3NbP3(SO8)3
_symmetry_space_group_name_H-M   'P 1'
_cell_length_a   8.84447995
_cell_length_b   8.81884944
_cell_length_c   22.99875458
_cell_angle_alpha   90.21191554
_cell_angle_beta   89.99755301
_cell_angle_gamma   120.03207714
_symmetry_Int_Tables_number   1
_chemical_formula_structural   NaSc3NbP3(SO8)3
_chemical_formula_sum   'Na3 Sc9 Nb3 P9 S9 O72'
_cell_volume   1553.01193972
_cell_formula_units_Z   3
loop_
 _symmetry_equiv_pos_site_id
 _symmetry_equiv_pos_as_xyz
  1  'x, y, z'
loop_
 _atom_site_type_symbol
 _atom_site_label
 _atom_site_symmetry_multiplicity
 _atom_site_fract_x
 _atom_site_fract_y
 _atom_site_fract_z
 _atom_site_occupancy
  Na  Na0  1  0.00106587  0.00834786  0.99968774  1
  Na  Na1  1  0.67442537  0.33793351  0.83387453  1
  Na  Na2  1  0.66502272  0.33729823  0.33564413  1
  Sc  Sc0  1  0.99792860  0.99701483  0.35643174  1
  Sc  Sc1  1  0.99807649  0.00029926  0.85372343  1
  Sc  Sc2  1  0.99134290  0.99952404  0.14648733  1
  Sc  Sc3  1  0.67190559  0.33761321  0.68436945  1
  Sc  Sc4  1  0.66854026  0.32645633  0.97997584  1
  Sc  Sc5  1  0.66168749  0.33288514  0.48298911  1
  Sc  Sc6  1  0.33346096  0.65845878  0.02258949  1
  Sc  Sc7  1  0.34194724  0.66141295  0.31134010  1
  Sc  Sc8  1  0.31800085  0.65998826  0.81190642  1
  Nb  Nb0  1  0.00316798  0.99339335  0.64355058  1
  Nb  Nb1  1  0.65760230  0.33252921  0.18380432  1
  Nb  Nb2  1  0.32915881  0.65591275  0.52405309  1
  P  P0  1  0.71359044  0.71254638  0.25017360  1
  P  P1  1  0.99755902  0.70959156  0.75136341  1
  P  P2  1  0.95100043  0.32835885  0.58349469  1
  P  P3  1  0.38115687  0.04466300  0.58324912  1
  P  P4  1  0.66656609  0.62054146  0.58348885  1
  P  P5  1  0.66591941  0.04171828  0.08189156  1
  P  P6  1  0.37219772  0.32943660  0.08057776  1
  P  P7  1  0.04281389  0.37629096  0.91694510  1
  P  P8  1  0.33469281  0.37629789  0.41548904  1
  S  S0  1  0.28868933  0.99830732  0.25002009  1
  S  S1  1  0.99793159  0.29023096  0.25025400  1
  S  S2  1  0.28998951  0.28779019  0.75018602  1
  S  S3  1  0.71090076  -0.00018903  0.75009651  1
  S  S4  1  0.95596465  0.62322074  0.08287325  1
  S  S5  1  0.62273160  0.66597691  0.91619397  1
  S  S6  1  0.33250075  0.95573644  0.91673965  1
  S  S7  1  0.62027872  0.95522311  0.41661624  1
  S  S8  1  0.04546469  0.66492166  0.41608001  1
  O  O0  1  0.21626019  0.03646612  0.30222908  1
  O  O1  1  0.82785544  0.79071680  0.30454842  1
  O  O2  1  0.96517595  0.18028993  0.30216447  1
  O  O3  1  0.20868201  0.17924100  0.80161759  1
  O  O4  1  0.96982492  0.79899202  0.80361048  1
  O  O5  1  0.82142217  0.03140160  0.80177361  1
  O  O6  1  0.79886583  0.97705186  0.69709571  1
  O  O7  1  0.17810470  0.20232664  0.69695022  1
  O  O8  1  0.02017590  0.82945476  0.69557421  1
  O  O9  1  0.79768535  0.82052242  0.19591062  1
  O  O10  1  0.02632348  0.21169844  0.19795407  1
  O  O11  1  0.18642978  0.97611232  0.19750772  1
  O  O12  1  0.87934598  0.36871745  0.63741296  1
  O  O13  1  0.48876580  0.12002653  0.63773337  1
  O  O14  1  0.62966567  0.51112418  0.63750622  1
  O  O15  1  0.86808654  0.51085733  0.13643559  1
  O  O16  1  0.64570257  0.14250840  0.13757765  1
  O  O17  1  0.49518684  0.35639471  0.13757282  1
  O  O18  1  0.46367338  0.30215310  0.02948720  1
  O  O19  1  0.84530264  0.54403649  0.03164036  1
  O  O20  1  0.70027510  0.16136906  0.03005768  1
  O  O21  1  0.45400949  0.15548367  0.52913492  1
  O  O22  1  0.70306199  0.54801120  0.52896192  1
  O  O23  1  0.84469118  0.29795324  0.52874835  1
  O  O24  1  0.54487033  0.69556273  0.96902954  1
  O  O25  1  0.15597600  0.46251775  0.97128221  1
  O  O26  1  0.30680235  0.85022134  0.96920468  1
  O  O27  1  0.53540582  0.84558363  0.46927890  1
  O  O28  1  0.31168883  0.47371334  0.47093085  1
  O  O29  1  0.15541726  0.69095908  0.46948879  1
  O  O30  1  0.12674782  0.63870678  0.36429549  1
  O  O31  1  0.51144799  0.87633011  0.36449962  1
  O  O32  1  0.36306606  0.49384364  0.36318150  1
  O  O33  1  0.12877324  0.48872721  0.86221149  1
  O  O34  1  0.36124781  0.87693892  0.86399565  1
  O  O35  1  0.51704659  0.64136538  0.86369397  1
  O  O36  1  0.02985810  0.82318187  0.41048781  1
  O  O37  1  0.79313827  0.97045661  0.41002049  1
  O  O38  1  0.16917317  0.19840471  0.40860116  1
  O  O39  1  0.02287698  0.19226526  0.90961716  1
  O  O40  1  0.17562864  0.97534651  0.91028851  1
  O  O41  1  0.80015248  0.82397466  0.91060236  1
  O  O42  1  0.98242558  0.17253878  0.59617102  1
  O  O43  1  0.19335946  0.01947849  0.59492653  1
  O  O44  1  0.82583321  0.80913735  0.59497691  1
  O  O45  1  0.97389193  0.79749571  0.09154080  1
  O  O46  1  0.82950069  0.02616760  0.09151644  1
  O  O47  1  0.19608691  0.16680199  0.09261413  1
  O  O48  1  0.69272043  0.15703939  0.74267717  1
  O  O49  1  0.46339754  0.30396444  0.74254819  1
  O  O50  1  0.83493721  0.52898363  0.74219266  1
  O  O51  1  0.69200939  0.52240724  0.23971770  1
  O  O52  1  0.83796573  0.30937152  0.24196355  1
  O  O53  1  0.47154853  0.16160940  0.24221729  1
  O  O54  1  0.64211686  0.50900457  0.92269948  1
  O  O55  1  0.85973895  0.35780937  0.92264301  1
  O  O56  1  0.48922413  0.13372395  0.92210869  1
  O  O57  1  0.64120986  0.13196627  0.42362019  1
  O  O58  1  0.49793795  0.35972387  0.42409901  1
  O  O59  1  0.87035999  0.50818755  0.42352145  1
  O  O60  1  0.36248916  0.49622683  0.07748884  1
  O  O61  1  0.12674842  0.63746911  0.07794502  1
  O  O62  1  0.50102580  0.86564802  0.07611978  1
  O  O63  1  0.35100206  0.85697235  0.57008010  1
  O  O64  1  0.50731906  0.64969633  0.57150099  1
  O  O65  1  0.13951713  0.49260317  0.57168446  1
  O  O66  1  0.31314701  0.84779055  0.25846467  1
  O  O67  1  0.53067002  0.68587088  0.25863563  1
  O  O68  1  0.14967559  0.46610552  0.25823875  1
  O  O69  1  0.30706523  0.46168964  0.75597802  1
  O  O70  1  0.16377417  0.69844748  0.75598143  1
  O  O71  1  0.53946360  0.84199521  0.75671846  1
loop_
_geom_bond_atom_site_label_1
_geom_bond_atom_site_label_2
_geom_bond_distance
_geom_bond_site_symmetry_2
Na0 O39 2.582768 1_555
Na0 O46 2.650187 1_456
Na0 O47 2.657255 1_556
Na0 O41 2.661345 1_445
Na0 O40 2.672242 1_545
Na0 O45 2.749502 1_446
Na1 O55 2.568095 1_555
Na1 O50 2.632864 1_555
Na1 O54 2.634319 1_555
Na1 O56 2.668007 1_555
Na1 O48 2.684007 1_555
Na1 O49 2.724146 1_555
Na2 O58 2.578922 1_555
Na2 O59 2.625322 1_555
Na2 O57 2.657546 1_555
Na2 O51 2.688067 1_555
Na2 O53 2.695824 1_555
Na2 O52 2.723086 1_555
Nb0 O43 1.935849 1_565
Nb0 O8 1.942906 1_555
Nb0 O44 1.945256 1_455
Nb0 O42 2.004957 1_465
Nb0 O7 2.104046 1_565
Nb0 O6 2.131387 1_455
Nb1 O17 1.882211 1_555
Nb1 O16 1.939035 1_555
Nb1 O51 2.006053 1_555
Nb1 O15 2.051265 1_555
Nb1 O53 2.077655 1_555
Nb1 O52 2.168844 1_555
Nb2 O65 1.918604 1_555
Nb2 O64 1.940055 1_555
Nb2 O28 1.958390 1_555
Nb2 O63 1.986219 1_555
Nb2 O29 2.123689 1_555
Nb2 O27 2.161835 1_555
O0 S0 1.475844 1_545
O0 Sc0 2.175875 1_445
O1 P0 1.535195 1_555
O1 Sc0 2.059419 1_555
O2 S1 1.475357 1_555
O2 Sc0 2.176597 1_545
O3 S2 1.466942 1_555
O3 Sc1 2.113647 1_455
O4 P1 1.520588 1_555
O4 Sc1 2.020723 1_565
O5 S3 1.473344 1_555
O5 Sc1 2.091752 1_555
O6 S3 1.511898 1_565
O7 S2 1.514287 1_555
O8 P1 1.613083 1_455
O9 P0 1.522226 1_555
O9 Sc2 2.006074 1_555
O10 S1 1.468811 1_455
O10 Sc2 2.098124 1_445
O11 S0 1.461520 1_555
O11 Sc2 2.180645 1_455
O12 P2 1.512776 1_555
O12 Sc3 2.026306 1_555
O13 P3 1.509471 1_555
O13 Sc3 2.080842 1_555
O14 P4 1.508181 1_555
O14 Sc3 2.055984 1_555
O15 S4 1.530207 1_555
O16 P5 1.616446 1_555
O17 P6 1.642245 1_555
O18 P6 1.511891 1_555
O18 Sc4 2.058788 1_554
O19 S4 1.464186 1_555
O19 Sc4 2.125651 1_554
O20 P5 1.521583 1_555
O20 Sc4 1.986584 1_554
O21 P3 1.515862 1_555
O21 Sc5 2.020762 1_555
O22 P4 1.512172 1_555
O22 Sc5 2.035029 1_555
O23 P2 1.512130 1_555
O23 Sc5 2.079394 1_555
O24 S5 1.482003 1_555
O24 Sc6 2.123904 1_556
O25 P7 1.540435 1_555
O25 Sc6 2.027904 1_556
O26 S6 1.473115 1_555
O26 Sc6 2.199422 1_556
O27 S7 1.499130 1_555
O28 P8 1.603786 1_555
O29 S8 1.510542 1_555
O30 S8 1.467296 1_555
O30 Sc7 2.183154 1_555
O31 S7 1.473377 1_555
O31 Sc7 2.115027 1_555
O32 P8 1.527610 1_555
O32 Sc7 1.982318 1_555
O33 P7 1.549308 1_555
O33 Sc8 1.975659 1_555
O34 S6 1.479732 1_555
O34 Sc8 2.119572 1_555
O35 S5 1.474384 1_555
O35 Sc8 2.199047 1_555
O36 S8 1.475690 1_555
O36 Sc0 2.103076 1_455
O37 S7 1.474107 1_555
O37 Sc0 2.105193 1_555
O38 P8 1.526004 1_555
O38 Sc0 2.044421 1_445
O39 P7 1.550748 1_555
O39 Sc1 2.044209 1_455
O40 S6 1.489070 1_555
O40 Sc1 2.134255 1_465
O41 S5 1.494355 1_555
O41 Sc1 2.117485 1_565
O42 P2 1.560710 1_555
O43 P3 1.584748 1_555
O44 P4 1.572247 1_555
O45 S4 1.476742 1_555
O45 Sc2 2.122068 1_555
O46 P5 1.536186 1_555
O46 Sc2 2.010351 1_545
O47 P6 1.525314 1_555
O47 Sc2 2.080850 1_445
O48 S3 1.484076 1_555
O48 Sc3 2.162721 1_555
O49 S2 1.478051 1_555
O49 Sc3 2.175829 1_555
O50 P1 1.534447 1_555
O50 Sc3 2.060005 1_555
O51 P0 1.607047 1_555
O52 S1 1.518505 1_555
O53 S0 1.546720 1_545
O54 S5 1.485671 1_555
O54 Sc4 2.184909 1_555
O55 P7 1.549687 1_655
O55 Sc4 2.051647 1_555
O56 S6 1.490348 1_545
O56 Sc4 2.112014 1_555
O57 S7 1.482900 1_545
O57 Sc5 2.167392 1_555
O58 P8 1.535143 1_555
O58 Sc5 2.081728 1_555
O59 S8 1.482333 1_655
O59 Sc5 2.196868 1_555
O60 P6 1.517616 1_555
O60 Sc6 2.021900 1_555
O61 S4 1.456136 1_455
O61 Sc6 2.158800 1_555
O62 P5 1.512391 1_565
O62 Sc6 2.079329 1_555
O63 P3 1.567488 1_565
O64 P4 1.577629 1_555
O65 P2 1.592878 1_455
O66 S0 1.461432 1_555
O66 Sc7 2.163131 1_555
O67 P0 1.526421 1_555
O67 Sc7 1.985766 1_555
O68 S1 1.467948 1_455
O68 Sc7 2.098270 1_555
O69 S2 1.469393 1_555
O69 Sc8 2.129819 1_555
O70 P1 1.525386 1_455
O70 Sc8 2.023974 1_555
O71 S3 1.465769 1_565
O71 Sc8 2.211742 1_555
