# generated using pymatgen
data_K4Bi2O5
_symmetry_space_group_name_H-M   'P 1'
_cell_length_a   5.67220409
_cell_length_b   9.54530379
_cell_length_c   9.80617325
_cell_angle_alpha   106.69895367
_cell_angle_beta   104.95618991
_cell_angle_gamma   106.16206612
_symmetry_Int_Tables_number   1
_chemical_formula_structural   K4Bi2O5
_chemical_formula_sum   'K8 Bi4 O10'
_cell_volume   454.27125141
_cell_formula_units_Z   2
loop_
 _symmetry_equiv_pos_site_id
 _symmetry_equiv_pos_as_xyz
  1  'x, y, z'
loop_
 _atom_site_type_symbol
 _atom_site_label
 _atom_site_symmetry_multiplicity
 _atom_site_fract_x
 _atom_site_fract_y
 _atom_site_fract_z
 _atom_site_occupancy
  K  K0  1  0.39932596  0.99184809  0.31636887  1
  K  K1  1  0.60067404  0.00815191  0.68363113  1
  K  K2  1  0.37014831  0.62243197  0.63249889  1
  K  K3  1  0.62985169  0.37756803  0.36750111  1
  K  K4  1  0.60921026  0.70171565  0.04363359  1
  K  K5  1  0.39078974  0.29828435  0.95636641  1
  K  K6  1  0.87702053  0.78617185  0.45113120  1
  K  K7  1  0.12297947  0.21382815  0.54886880  1
  Bi  Bi0  1  0.85963234  0.45857237  0.77144926  1
  Bi  Bi1  1  0.14036766  0.54142763  0.22855074  1
  Bi  Bi2  1  0.10474007  0.88322489  0.87564893  1
  Bi  Bi3  1  0.89525993  0.11677511  0.12435107  1
  O  O0  1  0.23201582  0.45994866  0.80072318  1
  O  O1  1  0.76798418  0.54005134  0.19927682  1
  O  O2  1  0.65045836  0.24909783  0.58046156  1
  O  O3  1  0.34954164  0.75090217  0.41953844  1
  O  O4  1  0.12917316  0.00648843  0.73563157  1
  O  O5  1  0.87082684  0.99351157  0.26436843  1
  O  O6  1  0.74394282  0.88532293  0.89281841  1
  O  O7  1  0.25605718  0.11467707  0.10718159  1
  O  O8  1  0.11917483  0.37155477  0.33202247  1
  O  O9  1  0.88082517  0.62844523  0.66797753  1
loop_
_geom_bond_atom_site_label_1
_geom_bond_atom_site_label_2
_geom_bond_distance
_geom_bond_site_symmetry_2
K0 O2 2.694355 1_565
K0 O7 2.700942 1_565
K0 O3 2.741516 1_555
K0 O5 2.845679 1_555
K0 O5 2.913579 1_455
K1 O3 2.694355 1_545
K1 O6 2.700942 1_545
K1 O2 2.741516 1_555
K1 O4 2.845679 1_555
K1 O4 2.913579 1_655
K2 O0 2.683584 1_555
K2 O3 2.702603 1_555
K2 O6 2.805690 1_555
K2 O9 2.809054 1_555
K2 O8 2.885345 1_555
K2 O9 2.898896 1_455
K3 O1 2.683584 1_555
K3 O2 2.702603 1_555
K3 O7 2.805690 1_555
K3 O8 2.809054 1_555
K3 O9 2.885345 1_555
K3 O8 2.898896 1_655
K4 O1 2.634301 1_555
K4 O0 2.653084 1_554
K4 O6 2.677704 1_554
K4 O5 2.687290 1_555
K5 O0 2.634301 1_555
K5 O1 2.653084 1_556
K5 O7 2.677704 1_556
K5 O4 2.687290 1_555
K6 O1 2.658862 1_555
K6 O4 2.673150 1_665
K6 O3 2.839375 1_555
K6 O3 2.874713 1_655
K6 O9 2.936509 1_555
K6 O5 3.059542 1_555
K7 O0 2.658862 1_555
K7 O5 2.673150 1_445
K7 O2 2.839375 1_555
K7 O2 2.874713 1_455
K7 O8 2.936509 1_555
K7 O4 3.059542 1_555
Bi0 O0 2.052688 1_655
Bi0 O2 2.072093 1_555
Bi0 O9 2.138496 1_555
Bi1 O1 2.052688 1_455
Bi1 O3 2.072093 1_555
Bi1 O8 2.138496 1_555
Bi2 O4 2.055391 1_565
Bi2 O6 2.101358 1_455
Bi2 O9 2.402894 1_455
Bi2 O7 2.414203 1_566
Bi3 O5 2.055391 1_545
Bi3 O7 2.101358 1_655
Bi3 O8 2.402894 1_655
Bi3 O6 2.414203 1_544
