# generated using pymatgen
data_Al(HO)3
_symmetry_space_group_name_H-M   'P 1'
_cell_length_a   5.11272900
_cell_length_b   8.75063800
_cell_length_c   12.82745135
_cell_angle_alpha   49.05145367
_cell_angle_beta   90.00000000
_cell_angle_gamma   90.00000000
_symmetry_Int_Tables_number   1
_chemical_formula_structural   Al(HO)3
_chemical_formula_sum   'Al8 H24 O24'
_cell_volume   433.46242458
_cell_formula_units_Z   8
loop_
 _symmetry_equiv_pos_site_id
 _symmetry_equiv_pos_as_xyz
  1  'x, y, z'
loop_
 _atom_site_type_symbol
 _atom_site_label
 _atom_site_symmetry_multiplicity
 _atom_site_fract_x
 _atom_site_fract_y
 _atom_site_fract_z
 _atom_site_occupancy
  Al  Al0  1  0.47525300  0.33718200  0.49776000  1
  Al  Al1  1  0.97525300  0.66281800  0.00224000  1
  Al  Al2  1  0.52474700  0.66281800  0.50224000  1
  Al  Al3  1  0.02474700  0.33718200  0.99776000  1
  Al  Al4  1  0.96687500  0.16945900  0.49816600  1
  Al  Al5  1  0.46687500  0.83054100  0.00183400  1
  Al  Al6  1  0.03312500  0.83054100  0.50183400  1
  Al  Al7  1  0.53312500  0.16945900  0.99816600  1
  H  H0  1  0.33964600  0.01793700  0.29400000  1
  H  H1  1  0.83964600  0.98206300  0.20600000  1
  H  H2  1  0.66035400  0.98206300  0.70600000  1
  H  H3  1  0.16035400  0.01793700  0.79400000  1
  H  H4  1  0.77593900  0.50322900  0.29157200  1
  H  H5  1  0.27593900  0.49677100  0.20842800  1
  H  H6  1  0.22406100  0.49677100  0.70842800  1
  H  H7  1  0.72406100  0.50322900  0.79157200  1
  H  H8  1  0.31871000  0.93523400  0.61164300  1
  H  H9  1  0.81871000  0.06476600  0.88835700  1
  H  H10  1  0.38659800  0.70846600  0.29335500  1
  H  H11  1  0.88659800  0.29153400  0.20664500  1
  H  H12  1  0.61340200  0.29153400  0.70664500  1
  H  H13  1  0.11340200  0.70846600  0.79335500  1
  H  H14  1  0.94454400  0.67952900  0.39786300  1
  H  H15  1  0.44454400  0.32047100  0.10213700  1
  H  H16  1  0.05545600  0.32047100  0.60213700  1
  H  H17  1  0.55545600  0.67952900  0.89786300  1
  H  H18  1  0.35894600  0.20587200  0.37557100  1
  H  H19  1  0.85894600  0.79412800  0.12442900  1
  H  H20  1  0.64105400  0.79412800  0.62442900  1
  H  H21  1  0.14105400  0.20587200  0.87557100  1
  H  H22  1  0.68129000  0.06476600  0.38835700  1
  H  H23  1  0.18129000  0.93523400  0.11164300  1
  O  O0  1  0.71952100  0.40789900  0.89366400  1
  O  O1  1  0.21952100  0.59210100  0.60633600  1
  O  O2  1  0.28047900  0.59210100  0.10633600  1
  O  O3  1  0.78047900  0.40789900  0.39366400  1
  O  O4  1  0.14494800  0.93083300  0.89573900  1
  O  O5  1  0.64494800  0.06916700  0.60426100  1
  O  O6  1  0.85505200  0.06916700  0.10426100  1
  O  O7  1  0.35505200  0.93083300  0.39573900  1
  O  O8  1  0.13367400  0.90903200  0.60745100  1
  O  O9  1  0.63367400  0.09096800  0.89254900  1
  O  O10  1  0.36702500  0.60913500  0.39475000  1
  O  O11  1  0.86702500  0.39086500  0.10525000  1
  O  O12  1  0.63297500  0.39086500  0.60525000  1
  O  O13  1  0.13297500  0.60913500  0.89475000  1
  O  O14  1  0.84688400  0.77802000  0.39577900  1
  O  O15  1  0.34688400  0.22198000  0.10422100  1
  O  O16  1  0.15311600  0.22198000  0.60422100  1
  O  O17  1  0.65311600  0.77802000  0.89577900  1
  O  O18  1  0.27962800  0.29533400  0.38718700  1
  O  O19  1  0.77962800  0.70466600  0.11281300  1
  O  O20  1  0.72037200  0.70466600  0.61281300  1
  O  O21  1  0.22037200  0.29533400  0.88718700  1
  O  O22  1  0.86632600  0.09096800  0.39254900  1
  O  O23  1  0.36632600  0.90903200  0.10745100  1
loop_
_geom_bond_atom_site_label_1
_geom_bond_atom_site_label_2
_geom_bond_distance
_geom_bond_site_symmetry_2
Al0 O3 1.875666 1_555
Al0 O10 1.895713 1_555
Al0 O12 1.902917 1_555
Al0 O16 1.946610 1_555
Al0 O18 1.956282 1_555
Al0 O5 1.979854 1_555
Al1 O2 1.875666 1_655
Al1 O11 1.895713 1_555
Al1 O13 1.902917 1_654
Al1 O17 1.946610 1_554
Al1 O19 1.956282 1_555
Al1 O4 1.979854 1_654
Al2 O1 1.875666 1_555
Al2 O12 1.895713 1_555
Al2 O10 1.902917 1_555
Al2 O14 1.946610 1_555
Al2 O20 1.956282 1_555
Al2 O7 1.979854 1_555
Al3 O0 1.875666 1_455
Al3 O13 1.895713 1_555
Al3 O11 1.902917 1_456
Al3 O15 1.946610 1_556
Al3 O21 1.956282 1_555
Al3 O6 1.979854 1_456
Al4 O3 1.841869 1_555
Al4 O8 1.923117 1_645
Al4 O18 1.934263 1_655
Al4 O5 1.940585 1_555
Al4 O16 1.946324 1_655
Al4 O22 1.947106 1_555
Al5 O2 1.841869 1_555
Al5 O9 1.923117 1_564
Al5 O19 1.934263 1_555
Al5 O4 1.940585 1_554
Al5 O17 1.946324 1_554
Al5 O23 1.947106 1_555
Al6 O1 1.841869 1_555
Al6 O22 1.923117 1_465
Al6 O20 1.934263 1_455
Al6 O7 1.940585 1_555
Al6 O14 1.946324 1_455
Al6 O8 1.947106 1_555
Al7 O0 1.841869 1_555
Al7 O23 1.923117 1_546
Al7 O21 1.934263 1_555
Al7 O6 1.940585 1_556
Al7 O15 1.946324 1_556
Al7 O9 1.947106 1_555
H0 O7 0.993218 1_545
H1 O6 0.993218 1_565
H2 O5 0.993218 1_565
H3 O4 0.993218 1_545
H4 O3 0.989689 1_555
H5 O2 0.989689 1_555
H6 O1 0.989689 1_555
H7 O0 0.989689 1_555
H8 O8 0.983165 1_555
H9 O9 0.983165 1_555
H10 O10 0.987598 1_555
H11 O11 0.987598 1_555
H12 O12 0.987598 1_555
H13 O13 0.987598 1_555
H14 O14 0.981135 1_555
H15 O15 0.981135 1_555
H16 O16 0.981135 1_555
H17 O17 0.981135 1_555
H18 O18 0.975914 1_555
H19 O19 0.975914 1_555
H20 O20 0.975914 1_555
H21 O21 0.975914 1_555
H22 O22 0.983165 1_555
H23 O23 0.983165 1_555
