# generated using pymatgen
data_Tm5(Ge5Rh2)2
_symmetry_space_group_name_H-M   'P 1'
_cell_length_a   12.90295527
_cell_length_b   12.90295527
_cell_length_c   4.23257731
_cell_angle_alpha   90.00000000
_cell_angle_beta   90.00000000
_cell_angle_gamma   90.00000000
_symmetry_Int_Tables_number   1
_chemical_formula_structural   Tm5(Ge5Rh2)2
_chemical_formula_sum   'Tm10 Ge20 Rh8'
_cell_volume   704.66594407
_cell_formula_units_Z   2
loop_
 _symmetry_equiv_pos_site_id
 _symmetry_equiv_pos_as_xyz
  1  'x, y, z'
loop_
 _atom_site_type_symbol
 _atom_site_label
 _atom_site_symmetry_multiplicity
 _atom_site_fract_x
 _atom_site_fract_y
 _atom_site_fract_z
 _atom_site_occupancy
  Tm  Tm0  1  0.11296051  0.61296051  0.50000000  1
  Tm  Tm1  1  0.61296051  0.88703949  0.50000000  1
  Tm  Tm2  1  0.38703949  0.11296051  0.50000000  1
  Tm  Tm3  1  0.88703949  0.38703949  0.50000000  1
  Tm  Tm4  1  0.32618917  0.82618917  0.50000000  1
  Tm  Tm5  1  0.82618917  0.67381083  0.50000000  1
  Tm  Tm6  1  0.17381083  0.32618917  0.50000000  1
  Tm  Tm7  1  0.67381083  0.17381083  0.50000000  1
  Tm  Tm8  1  0.50000000  0.50000000  0.00000000  1
  Tm  Tm9  1  -0.00000000  -0.00000000  0.00000000  1
  Ge  Ge0  1  0.34325411  0.49555108  0.50000000  1
  Ge  Ge1  1  0.65674589  0.50444892  0.50000000  1
  Ge  Ge2  1  0.50444892  0.34325411  0.50000000  1
  Ge  Ge3  1  0.49555108  0.65674589  0.50000000  1
  Ge  Ge4  1  0.99555108  0.84325411  0.50000000  1
  Ge  Ge5  1  0.84325411  0.00444892  0.50000000  1
  Ge  Ge6  1  0.15674589  0.99555108  0.50000000  1
  Ge  Ge7  1  0.00444892  0.15674589  0.50000000  1
  Ge  Ge8  1  0.33719595  0.29943246  -0.00000000  1
  Ge  Ge9  1  0.66280405  0.70056754  0.00000000  1
  Ge  Ge10  1  0.70056754  0.33719595  -0.00000000  1
  Ge  Ge11  1  0.29943246  0.66280405  0.00000000  1
  Ge  Ge12  1  0.79943246  0.83719595  0.00000000  1
  Ge  Ge13  1  0.83719595  0.20056754  0.00000000  1
  Ge  Ge14  1  0.16280405  0.79943246  -0.00000000  1
  Ge  Ge15  1  0.20056754  0.16280405  -0.00000000  1
  Ge  Ge16  1  0.43312597  0.93312597  0.00000000  1
  Ge  Ge17  1  0.93312597  0.56687403  0.00000000  1
  Ge  Ge18  1  0.56687403  0.06687403  -0.00000000  1
  Ge  Ge19  1  0.06687403  0.43312597  -0.00000000  1
  Rh  Rh0  1  0.24552243  0.97958667  -0.00000000  1
  Rh  Rh1  1  0.75447757  0.02041333  0.00000000  1
  Rh  Rh2  1  0.02041333  0.24552243  -0.00000000  1
  Rh  Rh3  1  0.97958667  0.75447757  0.00000000  1
  Rh  Rh4  1  0.47958667  0.74552243  0.00000000  1
  Rh  Rh5  1  0.74552243  0.52041333  0.00000000  1
  Rh  Rh6  1  0.25447757  0.47958667  -0.00000000  1
  Rh  Rh7  1  0.52041333  0.25447757  -0.00000000  1
loop_
_geom_bond_atom_site_label_1
_geom_bond_atom_site_label_2
_geom_bond_distance
_geom_bond_site_symmetry_2
Ge0 Rh6 2.415209 1_555
Ge0 Rh6 2.415209 1_556
Ge0 Tm8 2.927869 1_556
Ge0 Tm8 2.927869 1_555
Ge0 Tm6 3.091180 1_555
Ge0 Tm0 3.335361 1_555
Ge1 Rh5 2.415209 1_555
Ge1 Rh5 2.415209 1_556
Ge1 Tm8 2.927869 1_556
Ge1 Tm8 2.927869 1_555
Ge1 Tm5 3.091180 1_555
Ge1 Tm3 3.335361 1_555
Ge2 Rh7 2.415209 1_555
Ge2 Rh7 2.415209 1_556
Ge2 Tm8 2.927869 1_556
Ge2 Tm8 2.927869 1_555
Ge2 Tm7 3.091180 1_555
Ge2 Tm2 3.335361 1_555
Ge3 Rh4 2.415209 1_556
Ge3 Rh4 2.415209 1_555
Ge3 Tm8 2.927869 1_556
Ge3 Tm8 2.927869 1_555
Ge3 Tm4 3.091180 1_555
Ge3 Tm1 3.335361 1_555
Ge4 Rh3 2.415209 1_555
Ge4 Rh3 2.415209 1_556
Ge4 Tm9 2.927869 1_665
Ge4 Tm9 2.927869 1_666
Ge4 Tm5 3.091180 1_555
Ge4 Tm0 3.335361 1_655
Ge5 Rh1 2.415209 1_555
Ge5 Rh1 2.415209 1_556
Ge5 Tm9 2.927869 1_656
Ge5 Tm9 2.927869 1_655
Ge5 Tm7 3.091180 1_555
Ge5 Tm1 3.335361 1_545
Ge6 Rh0 2.415209 1_555
Ge6 Rh0 2.415209 1_556
Ge6 Tm9 2.927869 1_565
Ge6 Tm9 2.927869 1_566
Ge6 Tm4 3.091180 1_555
Ge6 Tm2 3.335361 1_565
Ge7 Rh2 2.415209 1_556
Ge7 Rh2 2.415209 1_555
Ge7 Tm9 2.927869 1_555
Ge7 Tm9 2.927869 1_556
Ge7 Tm6 3.091180 1_555
Ge7 Tm3 3.335361 1_455
Ge8 Rh7 2.434167 1_555
Ge8 Rh6 2.557842 1_555
Ge8 Tm6 3.007020 1_555
Ge8 Tm6 3.007020 1_554
Ge8 Tm2 3.268228 1_555
Ge8 Tm2 3.268228 1_554
Ge8 Tm8 3.333173 1_555
Ge9 Rh4 2.434167 1_555
Ge9 Rh5 2.557842 1_555
Ge9 Tm5 3.007020 1_554
Ge9 Tm5 3.007020 1_555
Ge9 Tm1 3.268228 1_555
Ge9 Tm1 3.268228 1_554
Ge9 Tm8 3.333173 1_555
Ge10 Rh5 2.434167 1_555
Ge10 Rh7 2.557842 1_555
Ge10 Tm7 3.007020 1_555
Ge10 Tm7 3.007020 1_554
Ge10 Tm3 3.268228 1_554
Ge10 Tm3 3.268228 1_555
Ge10 Tm8 3.333173 1_555
Ge11 Rh6 2.434167 1_555
Ge11 Rh4 2.557842 1_555
Ge11 Tm4 3.007020 1_555
Ge11 Tm4 3.007020 1_554
Ge11 Tm0 3.268228 1_555
Ge11 Tm0 3.268228 1_554
Ge11 Tm8 3.333173 1_555
Ge12 Rh1 2.434167 1_565
Ge12 Rh3 2.557842 1_555
Ge12 Tm5 3.007020 1_554
Ge12 Tm5 3.007020 1_555
Ge12 Tm1 3.268228 1_555
Ge12 Tm1 3.268228 1_554
Ge12 Tm9 3.333173 1_665
Ge13 Rh2 2.434167 1_655
Ge13 Rh1 2.557842 1_555
Ge13 Tm7 3.007020 1_555
Ge13 Tm7 3.007020 1_554
Ge13 Tm3 3.268228 1_554
Ge13 Tm3 3.268228 1_555
Ge13 Tm9 3.333173 1_655
Ge14 Rh3 2.434167 1_455
Ge14 Rh0 2.557842 1_555
Ge14 Tm4 3.007020 1_555
Ge14 Tm4 3.007020 1_554
Ge14 Tm0 3.268228 1_555
Ge14 Tm0 3.268228 1_554
Ge14 Tm9 3.333173 1_565
Ge15 Rh0 2.434167 1_545
Ge15 Rh2 2.557842 1_555
Ge15 Tm6 3.007020 1_554
Ge15 Tm6 3.007020 1_555
Ge15 Tm2 3.268228 1_555
Ge15 Tm2 3.268228 1_554
Ge15 Tm9 3.333173 1_555
Ge16 Ge18 2.440572 1_565
Ge16 Rh4 2.493767 1_555
Ge16 Rh0 2.493767 1_555
Ge16 Tm4 2.878607 1_554
Ge16 Tm4 2.878607 1_555
Ge16 Tm1 3.196331 1_554
Ge16 Tm1 3.196331 1_555
Ge16 Tm2 3.196331 1_564
Ge16 Tm2 3.196331 1_565
Ge17 Ge19 2.440572 1_655
Ge17 Rh5 2.493767 1_555
Ge17 Rh3 2.493767 1_555
Ge17 Tm5 2.878607 1_554
Ge17 Tm5 2.878607 1_555
Ge17 Tm0 3.196331 1_654
Ge17 Tm0 3.196331 1_655
Ge17 Tm3 3.196331 1_554
Ge17 Tm3 3.196331 1_555
Ge18 Rh7 2.493767 1_555
Ge18 Rh1 2.493767 1_555
Ge18 Tm7 2.878607 1_555
Ge18 Tm7 2.878607 1_554
Ge18 Tm1 3.196331 1_545
Ge18 Tm1 3.196331 1_544
Ge18 Tm2 3.196331 1_555
Ge18 Tm2 3.196331 1_554
Ge19 Rh6 2.493767 1_555
Ge19 Rh2 2.493767 1_555
Ge19 Tm6 2.878607 1_555
Ge19 Tm6 2.878607 1_554
Ge19 Tm0 3.196331 1_555
Ge19 Tm0 3.196331 1_554
Ge19 Tm3 3.196331 1_454
Ge19 Tm3 3.196331 1_455
Rh0 Tm4 3.078892 1_554
Rh0 Tm4 3.078892 1_555
Rh0 Tm9 3.178896 1_565
Rh0 Tm2 3.282448 1_564
Rh0 Tm2 3.282448 1_565
Rh1 Tm7 3.078892 1_555
Rh1 Tm7 3.078892 1_554
Rh1 Tm9 3.178896 1_655
Rh1 Tm1 3.282448 1_544
Rh1 Tm1 3.282448 1_545
Rh2 Tm6 3.078892 1_554
Rh2 Tm6 3.078892 1_555
Rh2 Tm9 3.178896 1_555
Rh2 Tm3 3.282448 1_455
Rh2 Tm3 3.282448 1_454
Rh3 Tm5 3.078892 1_554
Rh3 Tm5 3.078892 1_555
Rh3 Tm9 3.178896 1_665
Rh3 Tm0 3.282448 1_654
Rh3 Tm0 3.282448 1_655
Rh4 Tm4 3.078892 1_554
Rh4 Tm4 3.078892 1_555
Rh4 Tm8 3.178896 1_555
Rh4 Tm1 3.282448 1_555
Rh4 Tm1 3.282448 1_554
Rh5 Tm5 3.078892 1_554
Rh5 Tm5 3.078892 1_555
Rh5 Tm8 3.178896 1_555
Rh5 Tm3 3.282448 1_554
Rh5 Tm3 3.282448 1_555
Rh6 Tm6 3.078892 1_554
Rh6 Tm6 3.078892 1_555
Rh6 Tm8 3.178896 1_555
Rh6 Tm0 3.282448 1_555
Rh6 Tm0 3.282448 1_554
Rh7 Tm7 3.078892 1_554
Rh7 Tm7 3.078892 1_555
Rh7 Tm8 3.178896 1_555
Rh7 Tm2 3.282448 1_555
Rh7 Tm2 3.282448 1_554
