# generated using pymatgen
data_ReNF6
_symmetry_space_group_name_H-M   'P 1'
_cell_length_a   9.59385300
_cell_length_b   5.45755900
_cell_length_c   10.28486629
_cell_angle_alpha   70.35350432
_cell_angle_beta   90.00000000
_cell_angle_gamma   90.00000000
_symmetry_Int_Tables_number   1
_chemical_formula_structural   ReNF6
_chemical_formula_sum   'Re4 N4 F24'
_cell_volume   507.15636734
_cell_formula_units_Z   4
loop_
 _symmetry_equiv_pos_site_id
 _symmetry_equiv_pos_as_xyz
  1  'x, y, z'
loop_
 _atom_site_type_symbol
 _atom_site_label
 _atom_site_symmetry_multiplicity
 _atom_site_fract_x
 _atom_site_fract_y
 _atom_site_fract_z
 _atom_site_occupancy
  Re  Re0  1  0.61025200  0.68796500  0.71489500  1
  Re  Re1  1  0.11025200  0.31203500  0.78510500  1
  Re  Re2  1  0.38974800  0.31203500  0.28510500  1
  Re  Re3  1  0.88974800  0.68796500  0.21489500  1
  N  N0  1  0.72485200  0.90489200  0.60184200  1
  N  N1  1  0.22485200  0.09510800  0.89815800  1
  N  N2  1  0.27514800  0.09510800  0.39815800  1
  N  N3  1  0.77514800  0.90489200  0.10184200  1
  F  F0  1  0.68481300  0.05595500  0.02010700  1
  F  F1  1  0.18481300  0.94404500  0.47989300  1
  F  F2  1  0.31518700  0.94404500  0.97989300  1
  F  F3  1  0.81518700  0.05595500  0.52010700  1
  F  F4  1  0.00974600  0.44169000  0.34076300  1
  F  F5  1  0.50974600  0.55831000  0.15923700  1
  F  F6  1  0.99025400  0.55831000  0.65923700  1
  F  F7  1  0.49025400  0.44169000  0.84076300  1
  F  F8  1  0.80270700  0.38856600  0.20105400  1
  F  F9  1  0.30270700  0.61143400  0.29894600  1
  F  F10  1  0.19729300  0.61143400  0.79894600  1
  F  F11  1  0.69729300  0.38856600  0.70105400  1
  F  F12  1  0.78562100  0.66150500  0.37435100  1
  F  F13  1  0.28562100  0.33849500  0.12564900  1
  F  F14  1  0.21437900  0.33849500  0.62564900  1
  F  F15  1  0.71437900  0.66150500  0.87435100  1
  F  F16  1  0.00234500  0.94161500  0.24957300  1
  F  F17  1  0.50234500  0.05838500  0.25042700  1
  F  F18  1  0.99765500  0.05838500  0.75042700  1
  F  F19  1  0.49765500  0.94161500  0.74957300  1
  F  F20  1  0.01951200  0.68107100  0.07859200  1
  F  F21  1  0.51951200  0.31892900  0.42140800  1
  F  F22  1  0.98048800  0.31892900  0.92140800  1
  F  F23  1  0.48048800  0.68107100  0.57859200  1
loop_
_geom_bond_atom_site_label_1
_geom_bond_atom_site_label_2
_geom_bond_distance
_geom_bond_site_symmetry_2
N0 Re0 1.742618 1_555
N1 Re1 1.742618 1_555
N2 Re2 1.742618 1_555
N3 Re3 1.742618 1_555
F0 N3 1.292839 1_545
F1 N2 1.292839 1_565
F2 N1 1.292839 1_565
F3 N0 1.292839 1_545
F4 Re3 1.907274 1_455
F5 Re2 1.907274 1_555
F6 Re1 1.907274 1_655
F7 Re0 1.907274 1_555
F8 Re3 1.882528 1_555
F9 Re2 1.882528 1_555
F10 Re1 1.882528 1_555
F11 Re0 1.882528 1_555
F12 Re3 1.883908 1_555
F13 Re2 1.883908 1_555
F14 Re1 1.883908 1_555
F15 Re0 1.883908 1_555
F16 Re3 1.882135 1_455
F17 Re2 1.882135 1_555
F18 Re1 1.882135 1_655
F19 Re0 1.882135 1_555
F20 Re3 1.884663 1_455
F21 Re2 1.884663 1_555
F22 Re1 1.884663 1_655
F23 Re0 1.884663 1_555
