# generated using pymatgen
data_Na4MgAl(PO4)3
_symmetry_space_group_name_H-M   'P 1'
_cell_length_a   8.81140947
_cell_length_b   8.81140918
_cell_length_c   21.54436270
_cell_angle_alpha   90.00000000
_cell_angle_beta   90.00000000
_cell_angle_gamma   120.00000106
_symmetry_Int_Tables_number   1
_chemical_formula_structural   Na4MgAl(PO4)3
_chemical_formula_sum   'Na24 Mg6 Al6 P18 O72'
_cell_volume   1448.62185040
_cell_formula_units_Z   6
loop_
 _symmetry_equiv_pos_site_id
 _symmetry_equiv_pos_as_xyz
  1  'x, y, z'
loop_
 _atom_site_type_symbol
 _atom_site_label
 _atom_site_symmetry_multiplicity
 _atom_site_fract_x
 _atom_site_fract_y
 _atom_site_fract_z
 _atom_site_occupancy
  Na  Na0  1  0.63701673  0.00554107  0.24917513  1
  Na  Na1  1  0.36852433  0.36298327  0.24917513  1
  Na  Na2  1  0.99445893  0.63147567  0.24917513  1
  Na  Na3  1  0.63701673  0.63147567  0.74917513  1
  Na  Na4  1  0.99445893  0.36298327  0.74917513  1
  Na  Na5  1  0.36852433  0.00554107  0.74917513  1
  Na  Na6  1  0.30368373  0.33887407  0.58250813  1
  Na  Na7  1  0.03519133  0.69631627  0.58250813  1
  Na  Na8  1  0.66112593  0.96480867  0.58250813  1
  Na  Na9  1  0.30368373  0.96480867  0.08250813  1
  Na  Na10  1  0.66112593  0.69631627  0.08250813  1
  Na  Na11  1  0.03519133  0.33887407  0.08250813  1
  Na  Na12  1  0.97034973  0.67220807  0.91584213  1
  Na  Na13  1  0.70185733  0.02965027  0.91584213  1
  Na  Na14  1  0.32779193  0.29814267  0.91584213  1
  Na  Na15  1  0.97034973  0.29814267  0.41584213  1
  Na  Na16  1  0.32779193  0.02965027  0.41584213  1
  Na  Na17  1  0.70185733  0.67220807  0.41584213  1
  Na  Na18  1  -0.00000000  -0.00000000  0.49843471  1
  Na  Na19  1  -0.00000000  -0.00000000  0.99843471  1
  Na  Na20  1  0.66666700  0.33333300  0.83176771  1
  Na  Na21  1  0.66666700  0.33333300  0.33176771  1
  Na  Na22  1  0.33333300  0.66666700  0.16510171  1
  Na  Na23  1  0.33333300  0.66666700  0.66510171  1
  Mg  Mg0  1  -0.00000000  -0.00000000  0.35064283  1
  Mg  Mg1  1  -0.00000000  -0.00000000  0.85064283  1
  Mg  Mg2  1  0.66666700  0.33333300  0.68397583  1
  Mg  Mg3  1  0.66666700  0.33333300  0.18397583  1
  Mg  Mg4  1  0.33333300  0.66666700  0.01730983  1
  Mg  Mg5  1  0.33333300  0.66666700  0.51730983  1
  Al  Al0  1  -0.00000000  -0.00000000  0.65019524  1
  Al  Al1  1  -0.00000000  -0.00000000  0.15019524  1
  Al  Al2  1  0.66666700  0.33333300  0.98352824  1
  Al  Al3  1  0.66666700  0.33333300  0.48352824  1
  Al  Al4  1  0.33333300  0.66666700  0.31686224  1
  Al  Al5  1  0.33333300  0.66666700  0.81686224  1
  P  P0  1  0.29035364  0.99544355  0.25056821  1
  P  P1  1  0.70508991  0.70964636  0.25056821  1
  P  P2  1  0.00455645  0.29491009  0.25056821  1
  P  P3  1  0.29035364  0.29491009  0.75056821  1
  P  P4  1  0.00455645  0.70964636  0.75056821  1
  P  P5  1  0.70508991  0.99544355  0.75056821  1
  P  P6  1  0.95702064  0.32877655  0.58390121  1
  P  P7  1  0.37175691  0.04297936  0.58390121  1
  P  P8  1  0.67122345  0.62824309  0.58390121  1
  P  P9  1  0.95702064  0.62824309  0.08390121  1
  P  P10  1  0.67122345  0.04297936  0.08390121  1
  P  P11  1  0.37175691  0.32877655  0.08390121  1
  P  P12  1  0.62368664  0.66211055  0.91723521  1
  P  P13  1  0.03842291  0.37631336  0.91723521  1
  P  P14  1  0.33788945  0.96157709  0.91723521  1
  P  P15  1  0.62368664  0.96157709  0.41723521  1
  P  P16  1  0.33788945  0.37631336  0.41723521  1
  P  P17  1  0.03842291  0.66211055  0.41723521  1
  O  O0  1  0.21269282  0.03068903  0.30805111  1
  O  O1  1  0.81799621  0.78730718  0.30805111  1
  O  O2  1  0.96931097  0.18200379  0.30805111  1
  O  O3  1  0.21269282  0.18200379  0.80805111  1
  O  O4  1  0.96931097  0.78730718  0.80805111  1
  O  O5  1  0.81799621  0.03068903  0.80805111  1
  O  O6  1  0.79240390  0.96213765  0.69245779  1
  O  O7  1  0.16973375  0.20759610  0.69245779  1
  O  O8  1  0.03786235  0.83026625  0.69245779  1
  O  O9  1  0.79240390  0.83026625  0.19245779  1
  O  O10  1  0.03786235  0.20759610  0.19245779  1
  O  O11  1  0.16973375  0.96213765  0.19245779  1
  O  O12  1  0.87935982  0.36402203  0.64138411  1
  O  O13  1  0.48466321  0.12064018  0.64138411  1
  O  O14  1  0.63597797  0.51533679  0.64138411  1
  O  O15  1  0.87935982  0.51533679  0.14138411  1
  O  O16  1  0.63597797  0.12064018  0.14138411  1
  O  O17  1  0.48466321  0.36402203  0.14138411  1
  O  O18  1  0.45907090  0.29547065  0.02579079  1
  O  O19  1  0.83640075  0.54092910  0.02579079  1
  O  O20  1  0.70452935  0.16359925  0.02579079  1
  O  O21  1  0.45907090  0.16359925  0.52579079  1
  O  O22  1  0.70452935  0.54092910  0.52579079  1
  O  O23  1  0.83640075  0.29547065  0.52579079  1
  O  O24  1  0.54602582  0.69735603  0.97471811  1
  O  O25  1  0.15132921  0.45397418  0.97471811  1
  O  O26  1  0.30264397  0.84867079  0.97471811  1
  O  O27  1  0.54602582  0.84867079  0.47471811  1
  O  O28  1  0.30264397  0.45397418  0.47471811  1
  O  O29  1  0.15132921  0.69735603  0.47471811  1
  O  O30  1  0.12573690  0.62880465  0.35912479  1
  O  O31  1  0.50306675  0.87426310  0.35912479  1
  O  O32  1  0.37119535  0.49693325  0.35912479  1
  O  O33  1  0.12573690  0.49693325  0.85912479  1
  O  O34  1  0.37119535  0.87426310  0.85912479  1
  O  O35  1  0.50306675  0.62880465  0.85912479  1
  O  O36  1  0.01461402  0.82356507  0.41077649  1
  O  O37  1  0.80895105  0.98538598  0.41077649  1
  O  O38  1  0.17643493  0.19104895  0.41077649  1
  O  O39  1  0.01461402  0.19104895  0.91077649  1
  O  O40  1  0.17643493  0.98538598  0.91077649  1
  O  O41  1  0.80895105  0.82356507  0.91077649  1
  O  O42  1  0.97180564  0.15834092  0.58921367  1
  O  O43  1  0.18653528  0.02819436  0.58921367  1
  O  O44  1  0.84165908  0.81346472  0.58921367  1
  O  O45  1  0.97180564  0.81346472  0.08921367  1
  O  O46  1  0.84165908  0.02819436  0.08921367  1
  O  O47  1  0.18653528  0.15834092  0.08921367  1
  O  O48  1  0.68128102  0.15689807  0.74410949  1
  O  O49  1  0.47561805  0.31871898  0.74410949  1
  O  O50  1  0.84310193  0.52438195  0.74410949  1
  O  O51  1  0.68128102  0.52438195  0.24410949  1
  O  O52  1  0.84310193  0.31871898  0.24410949  1
  O  O53  1  0.47561805  0.15689807  0.24410949  1
  O  O54  1  0.63847264  0.49167392  0.92254667  1
  O  O55  1  0.85320228  0.36152736  0.92254667  1
  O  O56  1  0.50832608  0.14679772  0.92254667  1
  O  O57  1  0.63847264  0.14679772  0.42254667  1
  O  O58  1  0.50832608  0.36152736  0.42254667  1
  O  O59  1  0.85320228  0.49167392  0.42254667  1
  O  O60  1  0.34794702  0.49023207  0.07744349  1
  O  O61  1  0.14228405  0.65205298  0.07744349  1
  O  O62  1  0.50976793  0.85771595  0.07744349  1
  O  O63  1  0.34794702  0.85771595  0.57744349  1
  O  O64  1  0.50976793  0.65205298  0.57744349  1
  O  O65  1  0.14228405  0.49023207  0.57744349  1
  O  O66  1  0.30513864  0.82500792  0.25588067  1
  O  O67  1  0.51986828  0.69486136  0.25588067  1
  O  O68  1  0.17499208  0.48013172  0.25588067  1
  O  O69  1  0.30513864  0.48013172  0.75588067  1
  O  O70  1  0.17499208  0.69486136  0.75588067  1
  O  O71  1  0.51986828  0.82500792  0.75588067  1
loop_
_geom_bond_atom_site_label_1
_geom_bond_atom_site_label_2
_geom_bond_distance
_geom_bond_site_symmetry_2
Na0 O53 2.389512 1_555
Na0 O67 2.398886 1_545
Na0 O52 2.431751 1_555
Na0 O16 2.535935 1_555
Na0 O66 2.539905 1_545
Na0 O31 2.641408 1_545
Na0 O9 2.804925 1_545
Na0 O2 2.836727 1_555
Na1 O51 2.389520 1_555
Na1 O68 2.398894 1_555
Na1 O53 2.431758 1_555
Na1 O17 2.535938 1_555
Na1 O67 2.539905 1_555
Na1 O32 2.641410 1_555
Na1 O10 2.804925 1_555
Na1 O0 2.836727 1_555
Na2 O52 2.389520 1_555
Na2 O66 2.398887 1_655
Na2 O51 2.431749 1_555
Na2 O15 2.535936 1_555
Na2 O68 2.539897 1_655
Na2 O30 2.641406 1_655
Na2 O11 2.804925 1_655
Na2 O1 2.836727 1_555
Na3 O49 2.389520 1_555
Na3 O71 2.398894 1_555
Na3 O50 2.431758 1_555
Na3 O14 2.535938 1_555
Na3 O69 2.539905 1_555
Na3 O35 2.641410 1_555
Na3 O6 2.804925 1_555
Na3 O4 2.836727 1_555
Na4 O50 2.389512 1_555
Na4 O69 2.398886 1_655
Na4 O48 2.431751 1_555
Na4 O12 2.535935 1_555
Na4 O70 2.539904 1_655
Na4 O33 2.641408 1_655
Na4 O7 2.804925 1_655
Na4 O5 2.836727 1_555
Na5 O48 2.389520 1_555
Na5 O70 2.398887 1_545
Na5 O49 2.431749 1_555
Na5 O13 2.535936 1_555
Na5 O71 2.539897 1_545
Na5 O34 2.641406 1_545
Na5 O8 2.804925 1_545
Na5 O3 2.836727 1_555
Na6 O65 2.389527 1_555
Na6 O43 2.398886 1_555
Na6 O64 2.431755 1_555
Na6 O28 2.535920 1_555
Na6 O42 2.539905 1_455
Na6 O7 2.641408 1_555
Na6 O21 2.804925 1_555
Na6 O14 2.836727 1_555
Na7 O63 2.389512 1_555
Na7 O44 2.398894 1_455
Na7 O65 2.431742 1_555
Na7 O29 2.535913 1_555
Na7 O43 2.539905 1_565
Na7 O8 2.641410 1_555
Na7 O22 2.804925 1_455
Na7 O12 2.836727 1_455
Na8 O64 2.389511 1_555
Na8 O42 2.398887 1_565
Na8 O63 2.431758 1_555
Na8 O27 2.535917 1_555
Na8 O44 2.539897 1_555
Na8 O6 2.641406 1_555
Na8 O23 2.804925 1_565
Na8 O13 2.836727 1_565
Na9 O61 2.389511 1_555
Na9 O47 2.398894 1_565
Na9 O62 2.431742 1_555
Na9 O26 2.535913 1_554
Na9 O45 2.539905 1_455
Na9 O11 2.641410 1_555
Na9 O18 2.804925 1_565
Na9 O16 2.836727 1_565
Na10 O62 2.389527 1_555
Na10 O45 2.398886 1_555
Na10 O60 2.431755 1_555
Na10 O24 2.535920 1_554
Na10 O46 2.539904 1_565
Na10 O9 2.641408 1_555
Na10 O19 2.804925 1_555
Na10 O17 2.836727 1_555
Na11 O60 2.389511 1_555
Na11 O46 2.398887 1_455
Na11 O61 2.431758 1_555
Na11 O25 2.535917 1_554
Na11 O47 2.539897 1_555
Na11 O10 2.641406 1_555
Na11 O20 2.804925 1_455
Na11 O15 2.836727 1_455
Na12 O41 2.389512 1_555
Na12 O55 2.398894 1_555
Na12 O40 2.431751 1_655
Na12 O4 2.535935 1_555
Na12 O54 2.539896 1_555
Na12 O19 2.641389 1_556
Na12 O33 2.804925 1_655
Na12 O26 2.836727 1_655
Na13 O39 2.389520 1_655
Na13 O56 2.398878 1_555
Na13 O41 2.431758 1_545
Na13 O5 2.535938 1_555
Na13 O55 2.539895 1_555
Na13 O20 2.641385 1_556
Na13 O34 2.804925 1_545
Na13 O24 2.836727 1_545
Na14 O40 2.389520 1_545
Na14 O54 2.398891 1_555
Na14 O39 2.431749 1_555
Na14 O3 2.535936 1_555
Na14 O56 2.539911 1_555
Na14 O18 2.641393 1_556
Na14 O35 2.804925 1_555
Na14 O25 2.836727 1_555
Na15 O37 2.389520 1_545
Na15 O59 2.398878 1_555
Na15 O38 2.431758 1_655
Na15 O2 2.535938 1_555
Na15 O57 2.539896 1_555
Na15 O23 2.641385 1_555
Na15 O30 2.804925 1_655
Na15 O28 2.836727 1_655
Na16 O38 2.389512 1_555
Na16 O57 2.398894 1_555
Na16 O36 2.431751 1_545
Na16 O0 2.535935 1_555
Na16 O58 2.539896 1_555
Na16 O21 2.641389 1_555
Na16 O31 2.804925 1_545
Na16 O29 2.836727 1_545
Na17 O36 2.389520 1_655
Na17 O58 2.398891 1_555
Na17 O37 2.431749 1_555
Na17 O1 2.535936 1_555
Na17 O59 2.539911 1_555
Na17 O22 2.641393 1_555
Na17 O32 2.804925 1_555
Na17 O27 2.836727 1_555
Na18 O44 2.485958 1_445
Na18 O42 2.485958 1_455
Na18 O43 2.485958 1_555
Na18 O38 2.490033 1_555
Na18 O36 2.490033 1_545
Na18 O37 2.490033 1_445
Na19 O45 2.485958 1_446
Na19 O47 2.485958 1_556
Na19 O46 2.485958 1_456
Na19 O39 2.490033 1_555
Na19 O41 2.490033 1_445
Na19 O40 2.490033 1_545
Na20 O56 2.485958 1_555
Na20 O54 2.485958 1_555
Na20 O55 2.485958 1_555
Na20 O50 2.490033 1_555
Na20 O48 2.490033 1_555
Na20 O49 2.490033 1_555
Na21 O57 2.485958 1_555
Na21 O59 2.485958 1_555
Na21 O58 2.485958 1_555
Na21 O51 2.490033 1_555
Na21 O53 2.490033 1_555
Na21 O52 2.490033 1_555
Na22 O68 2.485958 1_555
Na22 O66 2.485958 1_555
Na22 O67 2.485958 1_555
Na22 O62 2.490033 1_555
Na22 O60 2.490033 1_555
Na22 O61 2.490033 1_555
Na23 O69 2.485958 1_555
Na23 O71 2.485958 1_555
Na23 O70 2.485958 1_555
Na23 O63 2.490033 1_555
Na23 O65 2.490033 1_555
Na23 O64 2.490033 1_555
Mg0 O1 1.980072 1_445
Mg0 O2 1.980072 1_455
Mg0 O0 1.980072 1_555
Mg0 O38 2.076561 1_555
Mg0 O36 2.076561 1_545
Mg0 O37 2.076561 1_445
Mg1 O4 1.980072 1_445
Mg1 O3 1.980072 1_555
Mg1 O5 1.980072 1_455
Mg1 O39 2.076561 1_555
Mg1 O41 2.076561 1_445
Mg1 O40 2.076561 1_545
Mg2 O13 1.980072 1_555
Mg2 O14 1.980072 1_555
Mg2 O12 1.980072 1_555
Mg2 O50 2.076561 1_555
Mg2 O48 2.076561 1_555
Mg2 O49 2.076561 1_555
Mg3 O16 1.980072 1_555
Mg3 O15 1.980072 1_555
Mg3 O17 1.980072 1_555
Mg3 O51 2.076561 1_555
Mg3 O53 2.076561 1_555
Mg3 O52 2.076561 1_555
Mg4 O25 1.980072 1_554
Mg4 O26 1.980072 1_554
Mg4 O24 1.980072 1_554
Mg4 O62 2.076561 1_555
Mg4 O60 2.076561 1_555
Mg4 O61 2.076561 1_555
Mg5 O28 1.980072 1_555
Mg5 O27 1.980072 1_555
Mg5 O29 1.980072 1_555
Mg5 O63 2.076561 1_555
Mg5 O65 2.076561 1_555
Mg5 O64 2.076561 1_555
Al0 O7 1.917318 1_555
Al0 O8 1.917318 1_545
Al0 O6 1.917318 1_445
Al0 O44 2.020156 1_445
Al0 O42 2.020156 1_455
Al0 O43 2.020156 1_555
Al1 O10 1.917318 1_555
Al1 O9 1.917318 1_445
Al1 O11 1.917318 1_545
Al1 O45 2.020156 1_445
Al1 O47 2.020156 1_555
Al1 O46 2.020156 1_455
Al2 O19 1.917318 1_556
Al2 O20 1.917318 1_556
Al2 O18 1.917318 1_556
Al2 O56 2.020156 1_555
Al2 O54 2.020156 1_555
Al2 O55 2.020156 1_555
Al3 O22 1.917318 1_555
Al3 O21 1.917318 1_555
Al3 O23 1.917318 1_555
Al3 O57 2.020156 1_555
Al3 O59 2.020156 1_555
Al3 O58 2.020156 1_555
Al4 O31 1.917318 1_555
Al4 O32 1.917318 1_555
Al4 O30 1.917318 1_555
Al4 O68 2.020156 1_555
Al4 O66 2.020156 1_555
Al4 O67 2.020156 1_555
Al5 O34 1.917318 1_555
Al5 O33 1.917318 1_555
Al5 O35 1.917318 1_555
Al5 O69 2.020156 1_555
Al5 O71 2.020156 1_555
Al5 O70 2.020156 1_555
O0 P0 1.520181 1_545
O1 P1 1.520181 1_555
O2 P2 1.520181 1_655
O3 P3 1.520181 1_555
O4 P4 1.520181 1_655
O5 P5 1.520181 1_545
O6 P5 1.572008 1_555
O7 P3 1.572008 1_555
O8 P4 1.572008 1_555
O9 P1 1.572008 1_555
O10 P2 1.572008 1_555
O11 P0 1.572008 1_555
O12 P6 1.520181 1_555
O13 P7 1.520181 1_555
O14 P8 1.520181 1_555
O15 P9 1.520181 1_555
O16 P10 1.520181 1_555
O17 P11 1.520181 1_555
O18 P11 1.572008 1_555
O19 P9 1.572008 1_555
O20 P10 1.572008 1_555
O21 P7 1.572008 1_555
O22 P8 1.572008 1_555
O23 P6 1.572008 1_555
O24 P12 1.520181 1_555
O25 P13 1.520181 1_555
O26 P14 1.520181 1_555
O27 P15 1.520181 1_555
O28 P16 1.520181 1_555
O29 P17 1.520181 1_555
O30 P17 1.572008 1_555
O31 P15 1.572008 1_555
O32 P16 1.572008 1_555
O33 P13 1.572008 1_555
O34 P14 1.572008 1_555
O35 P12 1.572008 1_555
O36 P17 1.544584 1_555
O37 P15 1.544593 1_555
O38 P16 1.544589 1_555
O39 P13 1.544593 1_555
O40 P14 1.544584 1_555
O41 P12 1.544589 1_555
O42 P6 1.575137 1_555
O43 P7 1.575146 1_555
O44 P8 1.575142 1_555
O45 P9 1.575145 1_555
O46 P10 1.575137 1_555
O47 P11 1.575142 1_555
O48 P5 1.544584 1_545
O49 P3 1.544593 1_555
O50 P4 1.544589 1_655
O51 P1 1.544593 1_555
O52 P2 1.544584 1_655
O53 P0 1.544589 1_545
O54 P12 1.575149 1_555
O55 P13 1.575131 1_655
O56 P14 1.575139 1_545
O57 P15 1.575131 1_545
O58 P16 1.575149 1_555
O59 P17 1.575139 1_655
O60 P11 1.544596 1_555
O61 P9 1.544579 1_455
O62 P10 1.544586 1_565
O63 P7 1.544579 1_565
O64 P8 1.544596 1_555
O65 P6 1.544586 1_455
O66 P0 1.575137 1_555
O67 P1 1.575146 1_555
O68 P2 1.575142 1_555
O69 P3 1.575145 1_555
O70 P4 1.575137 1_555
O71 P5 1.575142 1_555
