# generated using pymatgen
data_Sm3Si2ClO8
_symmetry_space_group_name_H-M   'P 1'
_cell_length_a   6.32324500
_cell_length_b   7.07480800
_cell_length_c   18.16531800
_cell_angle_alpha   90.00000000
_cell_angle_beta   90.00000000
_cell_angle_gamma   90.00000000
_symmetry_Int_Tables_number   1
_chemical_formula_structural   Sm3Si2ClO8
_chemical_formula_sum   'Sm12 Si8 Cl4 O32'
_cell_volume   812.63902139
_cell_formula_units_Z   4
loop_
 _symmetry_equiv_pos_site_id
 _symmetry_equiv_pos_as_xyz
  1  'x, y, z'
loop_
 _atom_site_type_symbol
 _atom_site_label
 _atom_site_symmetry_multiplicity
 _atom_site_fract_x
 _atom_site_fract_y
 _atom_site_fract_z
 _atom_site_occupancy
  Sm  Sm0  1  0.87311400  0.47718200  0.40939100  1
  Sm  Sm1  1  0.37311400  0.02281800  0.59060900  1
  Sm  Sm2  1  0.62688600  0.97718200  0.09060900  1
  Sm  Sm3  1  0.12688600  0.52281800  0.90939100  1
  Sm  Sm4  1  0.12688600  0.52281800  0.59060900  1
  Sm  Sm5  1  0.62688600  0.97718200  0.40939100  1
  Sm  Sm6  1  0.37311400  0.02281800  0.90939100  1
  Sm  Sm7  1  0.87311400  0.47718200  0.09060900  1
  Sm  Sm8  1  0.88467000  0.80583000  0.75000000  1
  Sm  Sm9  1  0.38467000  0.69417000  0.25000000  1
  Sm  Sm10  1  0.61533000  0.30583000  0.75000000  1
  Sm  Sm11  1  0.11533000  0.19417000  0.25000000  1
  Si  Si0  1  0.37889800  0.46756500  0.09993400  1
  Si  Si1  1  0.87889800  0.03243500  0.90006600  1
  Si  Si2  1  0.12110200  0.96756500  0.40006600  1
  Si  Si3  1  0.62110200  0.53243500  0.59993400  1
  Si  Si4  1  0.37889800  0.46756500  0.40006600  1
  Si  Si5  1  0.87889800  0.03243500  0.59993400  1
  Si  Si6  1  0.12110200  0.96756500  0.09993400  1
  Si  Si7  1  0.62110200  0.53243500  0.90006600  1
  Cl  Cl0  1  0.76199200  0.44493400  0.25000000  1
  Cl  Cl1  1  0.26199200  0.05506600  0.75000000  1
  Cl  Cl2  1  0.73800800  0.94493400  0.25000000  1
  Cl  Cl3  1  0.23800800  0.55506600  0.75000000  1
  O  O0  1  0.21393400  0.48223400  0.46891400  1
  O  O1  1  0.71393400  0.01776600  0.53108600  1
  O  O2  1  0.28606600  0.98223400  0.03108600  1
  O  O3  1  0.78606600  0.51776600  0.96891400  1
  O  O4  1  0.78606600  0.51776600  0.53108600  1
  O  O5  1  0.28606600  0.98223400  0.46891400  1
  O  O6  1  0.71393400  0.01776600  0.96891400  1
  O  O7  1  0.21393400  0.48223400  0.03108600  1
  O  O8  1  0.22527600  0.45477600  0.32506800  1
  O  O9  1  0.72527600  0.04522400  0.67493200  1
  O  O10  1  0.27472400  0.95477600  0.17493200  1
  O  O11  1  0.77472400  0.54522400  0.82506800  1
  O  O12  1  0.77472400  0.54522400  0.67493200  1
  O  O13  1  0.27472400  0.95477600  0.32506800  1
  O  O14  1  0.72527600  0.04522400  0.82506800  1
  O  O15  1  0.22527600  0.45477600  0.17493200  1
  O  O16  1  0.55087800  0.29662900  0.40541400  1
  O  O17  1  0.05087800  0.20337100  0.59458600  1
  O  O18  1  0.94912200  0.79662900  0.09458600  1
  O  O19  1  0.44912200  0.70337100  0.90541400  1
  O  O20  1  0.44912200  0.70337100  0.59458600  1
  O  O21  1  0.94912200  0.79662900  0.40541400  1
  O  O22  1  0.05087800  0.20337100  0.90541400  1
  O  O23  1  0.55087800  0.29662900  0.09458600  1
  O  O24  1  0.97013300  0.15454000  0.11856200  1
  O  O25  1  0.47013300  0.34546000  0.88143800  1
  O  O26  1  0.52986700  0.65454000  0.38143800  1
  O  O27  1  0.02986700  0.84546000  0.61856200  1
  O  O28  1  0.02986700  0.84546000  0.88143800  1
  O  O29  1  0.52986700  0.65454000  0.11856200  1
  O  O30  1  0.47013300  0.34546000  0.61856200  1
  O  O31  1  0.97013300  0.15454000  0.38143800  1
loop_
_geom_bond_atom_site_label_1
_geom_bond_atom_site_label_2
_geom_bond_distance
_geom_bond_site_symmetry_2
Cl0 Sm11 2.852945 1_655
Cl0 Sm9 2.966771 1_555
Cl0 Sm0 2.988151 1_555
Cl0 Sm7 2.988151 1_555
Cl1 Sm10 2.852945 1_555
Cl1 Sm8 2.966771 1_445
Cl1 Sm6 2.988151 1_555
Cl1 Sm1 2.988151 1_555
Cl2 Sm9 2.852945 1_555
Cl2 Sm11 2.966771 1_665
Cl2 Sm2 2.988151 1_555
Cl2 Sm5 2.988151 1_555
Cl3 Sm8 2.852945 1_455
Cl3 Sm10 2.966771 1_555
Cl3 Sm3 2.988151 1_555
Cl3 Sm4 2.988151 1_555
O0 Si4 1.631858 1_555
O0 Sm4 2.296146 1_555
O0 Sm0 2.411388 1_455
O1 Si5 1.631858 1_555
O1 Sm5 2.296146 1_545
O1 Sm1 2.411388 1_555
O2 Si6 1.631858 1_555
O2 Sm6 2.296146 1_564
O2 Sm2 2.411388 1_555
O3 Si7 1.631858 1_555
O3 Sm7 2.296146 1_556
O3 Sm3 2.411388 1_655
O4 Si3 1.631858 1_555
O4 Sm0 2.296146 1_555
O4 Sm4 2.411388 1_655
O5 Si2 1.631858 1_555
O5 Sm1 2.296146 1_565
O5 Sm5 2.411388 1_555
O6 Si1 1.631858 1_555
O6 Sm2 2.296146 1_546
O6 Sm6 2.411388 1_555
O7 Si0 1.631858 1_555
O7 Sm3 2.296146 1_554
O7 Sm7 2.411388 1_455
O8 Si4 1.675654 1_555
O8 Sm11 2.396287 1_555
O8 Sm9 2.396631 1_555
O8 Sm0 2.707410 1_455
O9 Si5 1.675654 1_555
O9 Sm10 2.396287 1_555
O9 Sm8 2.396631 1_545
O9 Sm1 2.707410 1_555
O10 Si6 1.675654 1_555
O10 Sm9 2.396287 1_555
O10 Sm11 2.396631 1_565
O10 Sm2 2.707410 1_555
O11 Si7 1.675654 1_555
O11 Sm8 2.396287 1_555
O11 Sm10 2.396631 1_555
O11 Sm3 2.707410 1_655
O12 Si3 1.675654 1_555
O12 Sm8 2.396287 1_555
O12 Sm10 2.396631 1_555
O12 Sm4 2.707410 1_655
O13 Si2 1.675654 1_555
O13 Sm9 2.396287 1_555
O13 Sm11 2.396631 1_565
O13 Sm5 2.707410 1_555
O14 Si1 1.675654 1_555
O14 Sm10 2.396287 1_555
O14 Sm8 2.396631 1_545
O14 Sm6 2.707410 1_555
O15 Si0 1.675654 1_555
O15 Sm11 2.396287 1_555
O15 Sm9 2.396631 1_555
O15 Sm7 2.707410 1_455
O16 Si4 1.629274 1_555
O16 Sm5 2.311694 1_545
O16 Sm0 2.405958 1_555
O17 Si5 1.629274 1_455
O17 Sm4 2.311694 1_555
O17 Sm1 2.405958 1_555
O18 Si6 1.629274 1_655
O18 Sm7 2.311694 1_555
O18 Sm2 2.405958 1_555
O19 Si7 1.629274 1_555
O19 Sm6 2.311694 1_565
O19 Sm3 2.405958 1_555
O20 Si3 1.629274 1_555
O20 Sm1 2.311694 1_565
O20 Sm4 2.405958 1_555
O21 Si2 1.629274 1_655
O21 Sm0 2.311694 1_555
O21 Sm5 2.405958 1_555
O22 Si1 1.629274 1_455
O22 Sm3 2.311694 1_555
O22 Sm6 2.405958 1_555
O23 Si0 1.629274 1_555
O23 Sm2 2.311694 1_545
O23 Sm7 2.405958 1_555
O24 Si6 1.666020 1_645
O24 Sm7 2.417558 1_555
O24 Sm2 2.557945 1_545
O24 Sm11 2.573372 1_655
O25 Si7 1.666020 1_555
O25 Sm6 2.417558 1_555
O25 Sm3 2.557945 1_555
O25 Sm10 2.573372 1_555
O26 Si4 1.666020 1_555
O26 Sm5 2.417558 1_555
O26 Sm0 2.557945 1_555
O26 Sm9 2.573372 1_555
O27 Si5 1.666020 1_465
O27 Sm4 2.417558 1_555
O27 Sm1 2.557945 1_565
O27 Sm8 2.573372 1_455
O28 Si1 1.666020 1_465
O28 Sm3 2.417558 1_555
O28 Sm6 2.557945 1_565
O28 Sm8 2.573372 1_455
O29 Si0 1.666020 1_555
O29 Sm2 2.417558 1_555
O29 Sm7 2.557945 1_555
O29 Sm9 2.573372 1_555
O30 Si3 1.666020 1_555
O30 Sm1 2.417558 1_555
O30 Sm4 2.557945 1_555
O30 Sm10 2.573372 1_555
O31 Si2 1.666020 1_645
O31 Sm0 2.417558 1_555
O31 Sm5 2.557945 1_545
O31 Sm11 2.573372 1_655
