# generated using pymatgen
data_NaLa2P(SO6)2
_symmetry_space_group_name_H-M   'P 1'
_cell_length_a   9.47998740
_cell_length_b   9.48064014
_cell_length_c   25.29876258
_cell_angle_alpha   89.99296636
_cell_angle_beta   89.99964237
_cell_angle_gamma   119.99791466
_symmetry_Int_Tables_number   1
_chemical_formula_structural   NaLa2P(SO6)2
_chemical_formula_sum   'Na6 La12 P6 S12 O72'
_cell_volume   1969.17563923
_cell_formula_units_Z   6
loop_
 _symmetry_equiv_pos_site_id
 _symmetry_equiv_pos_as_xyz
  1  'x, y, z'
loop_
 _atom_site_type_symbol
 _atom_site_label
 _atom_site_symmetry_multiplicity
 _atom_site_fract_x
 _atom_site_fract_y
 _atom_site_fract_z
 _atom_site_occupancy
  Na  Na0  1  0.97826940  0.98634909  0.49978693  1
  Na  Na1  1  0.00808263  0.98632809  0.99978718  1
  Na  Na2  1  0.65714452  0.30991917  0.83334773  1
  Na  Na3  1  0.65278558  0.30993582  0.33334529  1
  Na  Na4  1  0.31819333  0.67268806  0.16674216  1
  Na  Na5  1  0.35449187  0.67268971  0.66674265  1
  La  La0  1  0.00176859  0.00065860  0.35017381  1
  La  La1  1  0.99888728  0.00065983  0.85017332  1
  La  La2  1  0.98356484  0.99079191  0.64942726  1
  La  La3  1  0.00722753  0.99079364  0.14942837  1
  La  La4  1  0.66601257  0.33280930  0.68367184  1
  La  La5  1  0.66680246  0.33281587  0.18367421  1
  La  La6  1  0.66723209  0.33335519  0.98303365  1
  La  La7  1  0.66613353  0.33335074  0.48303455  1
  La  La8  1  0.32282967  0.67458389  0.01704858  1
  La  La9  1  0.35175036  0.67458220  0.51704461  1
  La  La10  1  0.34026126  0.68394084  0.31643375  1
  La  La11  1  0.34367842  0.68393967  0.81643388  1
  P  P0  1  0.30145338  0.00290251  0.25043554  1
  P  P1  1  0.70144821  0.00290134  0.75043476  1
  P  P2  1  0.66678509  0.62925809  0.58340428  1
  P  P3  1  0.96247283  0.62925661  0.08340464  1
  P  P4  1  0.33306912  0.97068989  0.91657902  1
  P  P5  1  0.63762113  0.97068854  0.41657975  1
  S  S0  1  0.70004386  0.70029194  0.25004017  1
  S  S1  1  0.00208715  0.29981251  0.24952145  1
  S  S2  1  0.29772460  0.29981462  0.74952068  1
  S  S3  1  0.00024787  0.70029546  0.75003940  1
  S  S4  1  0.96851259  0.33565196  0.58309765  1
  S  S5  1  0.36454232  0.03323610  0.58347965  1
  S  S6  1  0.66869042  0.03323710  0.08347919  1
  S  S7  1  0.36713406  0.33564978  0.08309690  1
  S  S8  1  0.63137331  0.66678090  0.91754210  1
  S  S9  1  0.03540942  0.36891827  0.91593994  1
  S  S10  1  0.33350696  0.36891685  0.41594107  1
  S  S11  1  0.03540929  0.66678310  0.41754330  1
  O  O0  1  0.21284323  0.01582982  0.30014345  1
  O  O1  1  0.79657178  0.78230120  0.29805728  1
  O  O2  1  0.98497637  0.20183492  0.29772466  1
  O  O3  1  0.21686026  0.20183334  0.79772410  1
  O  O4  1  0.98572914  0.78229896  0.79805852  1
  O  O5  1  0.80298722  0.01583019  0.80014399  1
  O  O6  1  0.78716518  0.98701094  0.70024289  1
  O  O7  1  0.20172558  0.21601677  0.70158753  1
  O  O8  1  0.01747322  0.79827120  0.70209272  1
  O  O9  1  0.78079952  0.79826948  0.20209234  1
  O  O10  1  0.01428917  0.21601463  0.20158650  1
  O  O11  1  0.19984218  0.98700944  0.20024236  1
  O  O12  1  0.88607758  0.34903032  0.63123751  1
  O  O13  1  0.46423962  0.11442176  0.63144000  1
  O  O14  1  0.65434993  0.52914156  0.63346403  1
  O  O15  1  0.87479133  0.52914255  0.13346364  1
  O  O16  1  0.65018130  0.11441928  0.13143935  1
  O  O17  1  0.46295793  0.34903232  0.13123878  1
  O  O18  1  0.44851728  0.31726335  0.03528662  1
  O  O19  1  0.86278780  0.54175116  0.03329622  1
  O  O20  1  0.68216228  0.12921431  0.03545854  1
  O  O21  1  0.44705559  0.12921774  0.53545719  1
  O  O22  1  0.67896138  0.54175287  0.53329647  1
  O  O23  1  0.86874202  0.31726253  0.53528580  1
  O  O24  1  0.54745505  0.67962406  0.96526080  1
  O  O25  1  0.13191391  0.44922148  0.96434438  1
  O  O26  1  0.31650390  0.86743196  0.96645609  1
  O  O27  1  0.55092462  0.86743116  0.46645606  1
  O  O28  1  0.31730626  0.44922018  0.46434364  1
  O  O29  1  0.13216857  0.67962364  0.46526183  1
  O  O30  1  0.11530245  0.65044870  0.36908578  1
  O  O31  1  0.53371949  0.88351442  0.36689936  1
  O  O32  1  0.34609960  0.46529839  0.36816514  1
  O  O33  1  0.11919697  0.46529801  0.86816474  1
  O  O34  1  0.34979555  0.88351985  0.86689961  1
  O  O35  1  0.53514513  0.65044982  0.86908488  1
  O  O36  1  0.01992085  0.81502512  0.41413802  1
  O  O37  1  0.80803258  0.98610760  0.41256561  1
  O  O38  1  0.18637774  0.20353044  0.41307312  1
  O  O39  1  0.01715463  0.20353138  0.91307309  1
  O  O40  1  0.17807682  0.98610795  0.91256449  1
  O  O41  1  0.79510077  0.81502316  0.91413922  1
  O  O42  1  0.98652159  0.18846176  0.58642254  1
  O  O43  1  0.20222798  0.01934300  0.58763934  1
  O  O44  1  0.82110471  0.80158603  0.58586802  1
  O  O45  1  0.98048088  0.80158203  0.08586819  1
  O  O46  1  0.81711749  0.01934332  0.08763835  1
  O  O47  1  0.20194142  0.18846365  0.08642188  1
  O  O48  1  0.68400851  0.15684900  0.74678673  1
  O  O49  1  0.46281995  0.31716118  0.74658855  1
  O  O50  1  0.85115859  0.53678609  0.74649496  1
  O  O51  1  0.68562665  0.53678467  0.24649484  1
  O  O52  1  0.85433975  0.31716160  0.24658775  1
  O  O53  1  0.47284011  0.15684877  0.24678620  1
  O  O54  1  0.64979457  0.51981857  0.92054504  1
  O  O55  1  0.87177172  0.35327800  0.91927887  1
  O  O56  1  0.48827708  0.14100727  0.92053093  1
  O  O57  1  0.65273091  0.14101048  0.42052933  1
  O  O58  1  0.48150227  0.35327922  0.41927827  1
  O  O59  1  0.87002237  0.51982005  0.42054333  1
  O  O60  1  0.35302386  0.48416631  0.07895045  1
  O  O61  1  0.13482474  0.64711770  0.08100935  1
  O  O62  1  0.52143041  0.86805690  0.08015200  1
  O  O63  1  0.34662660  0.86805713  0.58015217  1
  O  O64  1  0.51229406  0.64711951  0.58100910  1
  O  O65  1  0.13114454  0.48416672  0.57895071  1
  O  O66  1  0.31724937  0.84732180  0.25305981  1
  O  O67  1  0.53479540  0.68110359  0.25350481  1
  O  O68  1  0.15006324  0.46301074  0.25344896  1
  O  O69  1  0.31294898  0.46301432  0.75344934  1
  O  O70  1  0.14630932  0.68110065  0.75350465  1
  O  O71  1  0.53007358  0.84732482  0.75305987  1
loop_
_geom_bond_atom_site_label_1
_geom_bond_atom_site_label_2
_geom_bond_distance
_geom_bond_site_symmetry_2
Na0 O44 2.723991 1_555
Na0 O37 2.733110 1_555
Na0 O36 2.851555 1_655
Na0 O42 2.886658 1_565
Na0 O38 2.980139 1_665
Na0 O43 2.980170 1_665
Na1 O45 2.723894 1_456
Na1 O40 2.733056 1_555
Na1 O41 2.851531 1_455
Na1 O47 2.886715 1_566
Na1 O46 2.980215 1_466
Na1 O39 2.980300 1_565
Na2 O48 2.708649 1_555
Na2 O56 2.725371 1_555
Na2 O55 2.863361 1_555
Na2 O49 2.888333 1_555
Na2 O50 2.979942 1_555
Na2 O54 2.995157 1_555
Na3 O53 2.708691 1_555
Na3 O57 2.725446 1_555
Na3 O58 2.863409 1_555
Na3 O52 2.888254 1_555
Na3 O51 2.979823 1_555
Na3 O59 2.995088 1_555
Na4 O61 2.713601 1_555
Na4 O66 2.743283 1_555
Na4 O68 2.852107 1_555
Na4 O62 2.893476 1_555
Na4 O60 2.971113 1_555
Na4 O67 2.979431 1_555
Na5 O64 2.713623 1_555
Na5 O71 2.743295 1_555
Na5 O69 2.852110 1_555
Na5 O63 2.893476 1_555
Na5 O65 2.971108 1_555
Na5 O70 2.979359 1_555
La0 O0 2.310579 1_555
La0 O37 2.372805 1_445
La0 O2 2.393053 1_455
La0 O1 2.404574 1_445
La0 O38 2.434999 1_555
La0 O36 2.459208 1_545
La1 O5 2.310548 1_555
La1 O40 2.372845 1_645
La1 O3 2.393051 1_655
La1 O4 2.404585 1_545
La1 O39 2.434988 1_655
La1 O41 2.459236 1_545
La2 O6 2.248055 1_555
La2 O44 2.326690 1_555
La2 O8 2.407501 1_655
La2 O42 2.449528 1_565
La2 O7 2.482523 1_665
La2 O43 2.500506 1_665
La3 O11 2.248026 1_555
La3 O45 2.326741 1_455
La3 O9 2.407471 1_455
La3 O47 2.449549 1_565
La3 O10 2.482471 1_565
La3 O46 2.500535 1_465
La4 O14 2.301188 1_555
La4 O48 2.376031 1_555
La4 O13 2.394218 1_555
La4 O12 2.411371 1_555
La4 O50 2.439911 1_555
La4 O49 2.445447 1_555
La5 O15 2.301169 1_555
La5 O53 2.376014 1_555
La5 O16 2.394307 1_555
La5 O17 2.411385 1_555
La5 O51 2.439830 1_555
La5 O52 2.445383 1_555
La6 O19 2.301169 1_556
La6 O56 2.368777 1_555
La6 O18 2.398634 1_556
La6 O20 2.407918 1_556
La6 O54 2.437856 1_555
La6 O55 2.455746 1_555
La7 O22 2.301251 1_555
La7 O57 2.368731 1_555
La7 O23 2.398495 1_555
La7 O21 2.407876 1_555
La7 O59 2.437855 1_555
La7 O58 2.455913 1_555
La8 O26 2.256909 1_554
La8 O61 2.323461 1_555
La8 O25 2.398433 1_554
La8 O62 2.450579 1_555
La8 O24 2.480234 1_554
La8 O60 2.511868 1_555
La9 O27 2.256846 1_555
La9 O64 2.323561 1_555
La9 O28 2.398391 1_555
La9 O63 2.450643 1_555
La9 O29 2.480159 1_555
La9 O65 2.511887 1_555
La10 O31 2.259264 1_555
La10 O66 2.314012 1_555
La10 O30 2.397058 1_555
La10 O67 2.446599 1_555
La10 O32 2.475219 1_555
La10 O68 2.530167 1_555
La11 O34 2.259309 1_555
La11 O71 2.314022 1_555
La11 O35 2.397048 1_555
La11 O70 2.446596 1_555
La11 O33 2.475200 1_555
La11 O69 2.530133 1_555
O0 P0 1.550825 1_555
O1 S0 1.485386 1_555
O2 S1 1.491757 1_655
O3 S2 1.491765 1_555
O4 S3 1.485393 1_655
O5 P1 1.550866 1_555
O6 P1 1.554936 1_565
O7 S2 1.485662 1_555
O8 S3 1.486226 1_555
O9 S0 1.486262 1_555
O10 S1 1.485699 1_555
O11 P0 1.554987 1_565
O12 S4 1.486328 1_555
O13 S5 1.493557 1_555
O14 P2 1.551300 1_555
O15 P3 1.551271 1_555
O16 S6 1.493522 1_555
O17 S7 1.486426 1_555
O18 S7 1.491014 1_555
O19 P3 1.550692 1_555
O20 S6 1.484484 1_555
O21 S5 1.484548 1_555
O22 P2 1.550664 1_555
O23 S4 1.491054 1_555
O24 S8 1.483911 1_555
O25 S9 1.489948 1_555
O26 P4 1.556017 1_555
O27 P5 1.556002 1_555
O28 S10 1.489904 1_555
O29 S11 1.483909 1_555
O30 S11 1.489228 1_555
O31 P5 1.555373 1_555
O32 S10 1.483491 1_555
O33 S9 1.483462 1_555
O34 P4 1.555323 1_555
O35 S8 1.489240 1_555
O36 S11 1.486785 1_555
O37 P5 1.550925 1_555
O38 S10 1.490772 1_555
O39 S9 1.490788 1_555
O40 P4 1.550922 1_555
O41 S8 1.486761 1_555
O42 S4 1.490543 1_555
O43 S5 1.481037 1_555
O44 P2 1.556721 1_555
O45 P3 1.556701 1_555
O46 S6 1.481096 1_555
O47 S7 1.490486 1_555
O48 P1 1.551550 1_555
O49 S2 1.491547 1_555
O50 S3 1.489259 1_655
O51 S0 1.489255 1_555
O52 S1 1.491552 1_655
O53 P0 1.551538 1_555
O54 S8 1.490241 1_555
O55 S9 1.485122 1_655
O56 P4 1.551316 1_545
O57 P5 1.551357 1_545
O58 S10 1.485087 1_555
O59 S11 1.490254 1_655
O60 S7 1.483154 1_555
O61 P3 1.557336 1_455
O62 S6 1.490753 1_565
O63 S5 1.490763 1_565
O64 P2 1.557341 1_555
O65 S4 1.483171 1_455
O66 P0 1.556698 1_565
O67 S0 1.486571 1_555
O68 S1 1.483700 1_555
O69 S2 1.483711 1_555
O70 S3 1.486623 1_555
O71 P1 1.556665 1_565
