# generated using pymatgen
data_Na2Si5Sn8S7O48
_symmetry_space_group_name_H-M   'P 1'
_cell_length_a   17.65512865
_cell_length_b   8.83042016
_cell_length_c   23.04948402
_cell_angle_alpha   90.03268195
_cell_angle_beta   90.12988292
_cell_angle_gamma   120.12679572
_symmetry_Int_Tables_number   1
_chemical_formula_structural   Na2Si5Sn8S7O48
_chemical_formula_sum   'Na6 Si15 Sn24 S21 O144'
_cell_volume   3108.03445028
_cell_formula_units_Z   3
loop_
 _symmetry_equiv_pos_site_id
 _symmetry_equiv_pos_as_xyz
  1  'x, y, z'
loop_
 _atom_site_type_symbol
 _atom_site_label
 _atom_site_symmetry_multiplicity
 _atom_site_fract_x
 _atom_site_fract_y
 _atom_site_fract_z
 _atom_site_occupancy
  Na  Na0  1  0.99287104  0.99704922  0.49872260  1
  Na  Na1  1  0.49206375  0.98879945  0.99325383  1
  Na  Na2  1  0.34524672  0.35792549  0.83543570  1
  Na  Na3  1  0.83624581  0.34528095  0.82972573  1
  Na  Na4  1  0.33954133  0.33150574  0.33139491  1
  Na  Na5  1  0.83770855  0.33180572  0.34005630  1
  Si  Si0  1  0.14365307  0.00527190  0.24857923  1
  Si  Si1  1  0.50307419  0.28897035  0.25156855  1
  Si  Si2  1  0.64397611  0.27998530  0.74806731  1
  Si  Si3  1  0.00348491  0.71718422  0.75160848  1
  Si  Si4  1  0.49998623  0.71166595  0.75218334  1
  Si  Si5  1  0.97546634  0.32233539  0.58711377  1
  Si  Si6  1  0.33505112  0.63503754  0.58339558  1
  Si  Si7  1  0.47668349  0.62763473  0.08685006  1
  Si  Si8  1  0.83368894  0.03608689  0.08361366  1
  Si  Si9  1  0.31225571  0.67162520  0.91367773  1
  Si  Si10  1  0.01900886  0.37086355  0.91488422  1
  Si  Si11  1  0.52354692  0.37198880  0.91884016  1
  Si  Si12  1  0.81091259  0.95250321  0.41304829  1
  Si  Si13  1  0.02290361  0.66540785  0.41932015  1
  Si  Si14  1  0.51771341  0.66505739  0.41549807  1
  Sn  Sn0  1  0.00054947  0.98749686  0.35487022  1
  Sn  Sn1  1  0.49983020  0.00153133  0.35571976  1
  Sn  Sn2  1  0.99861095  0.99724711  0.85538169  1
  Sn  Sn3  1  0.49878288  0.00072588  0.85177824  1
  Sn  Sn4  1  0.99877180  0.99750650  0.64952141  1
  Sn  Sn5  1  0.50157920  0.99080803  0.64902181  1
  Sn  Sn6  1  0.00199608  0.00287284  0.14512661  1
  Sn  Sn7  1  0.49774620  0.00019950  0.14818785  1
  Sn  Sn8  1  0.34015747  0.35769037  0.68555471  1
  Sn  Sn9  1  0.83720202  0.34705865  0.68941876  1
  Sn  Sn10  1  0.33762746  0.32560826  0.18848114  1
  Sn  Sn11  1  0.83386836  0.32556689  0.18162537  1
  Sn  Sn12  1  0.34221335  0.36180409  0.97704496  1
  Sn  Sn13  1  0.83903110  0.32596597  0.97924800  1
  Sn  Sn14  1  0.34091438  0.35285225  0.48267926  1
  Sn  Sn15  1  0.84051999  0.32053964  0.47945857  1
  Sn  Sn16  1  0.16792139  0.65350140  0.01349978  1
  Sn  Sn17  1  0.65955382  0.66511515  0.02373347  1
  Sn  Sn18  1  0.15935352  0.65557230  0.52684629  1
  Sn  Sn19  1  0.66753679  0.68247529  0.51584325  1
  Sn  Sn20  1  0.16153126  0.67837222  0.31343509  1
  Sn  Sn21  1  0.65951164  0.65955858  0.31467380  1
  Sn  Sn22  1  0.16170776  0.66130171  0.81339103  1
  Sn  Sn23  1  0.65410867  0.63874860  0.80781640  1
  S  S0  1  0.64917464  0.00515949  0.24972069  1
  S  S1  1  0.35038077  0.70594411  0.25229760  1
  S  S2  1  0.85206357  0.69946314  0.24800313  1
  S  S3  1  0.99972649  0.29264817  0.25102115  1
  S  S4  1  0.14735069  0.29134781  0.75002101  1
  S  S5  1  0.35063062  0.00266952  0.74840501  1
  S  S6  1  0.85235207  0.99611737  0.75217218  1
  S  S7  1  0.48320991  0.33447354  0.58225736  1
  S  S8  1  0.19127325  0.05074855  0.58330838  1
  S  S9  1  0.68972264  0.04657473  0.58265889  1
  S  S10  1  0.82894672  0.62117035  0.58078212  1
  S  S11  1  0.98224697  0.62697761  0.08229900  1
  S  S12  1  0.32826566  0.03559363  0.08091604  1
  S  S13  1  0.19037367  0.33544033  0.08329778  1
  S  S14  1  0.68956790  0.33351337  0.08222107  1
  S  S15  1  0.81003860  0.66373693  0.91826246  1
  S  S16  1  0.16758514  0.96041540  0.91881589  1
  S  S17  1  0.66827959  0.95802825  0.91576626  1
  S  S18  1  0.31140562  0.95918520  0.41903442  1
  S  S19  1  0.16823175  0.37931776  0.41471260  1
  S  S20  1  0.66808875  0.37606523  0.41861197  1
  O  O0  1  0.10152282  0.04488761  0.30554165  1
  O  O1  1  0.60965998  0.03301414  0.30200866  1
  O  O2  1  0.40703684  0.78441964  0.30376639  1
  O  O3  1  0.90748800  0.77163985  0.30052913  1
  O  O4  1  0.48355334  0.16349885  0.30836820  1
  O  O5  1  0.98108813  0.18173756  0.30248760  1
  O  O6  1  0.10685160  0.18481462  0.80235196  1
  O  O7  1  0.60344338  0.16640256  0.80658643  1
  O  O8  1  0.47594736  0.78725660  0.80870801  1
  O  O9  1  0.98362991  0.80274174  0.80848622  1
  O  O10  1  0.40554649  0.04432538  0.80109323  1
  O  O11  1  0.91105720  0.03646352  0.80321379  1
  O  O12  1  0.38964267  0.97491185  0.69610704  1
  O  O13  1  0.89033090  0.96684467  0.69853421  1
  O  O14  1  0.09337444  0.21449039  0.69695760  1
  O  O15  1  0.58330616  0.20645786  0.68979351  1
  O  O16  1  0.01721147  0.83067405  0.69185434  1
  O  O17  1  0.51186997  0.81170868  0.69158917  1
  O  O18  1  0.38751212  0.81247373  0.19941227  1
  O  O19  1  0.89140401  0.80629387  0.19588247  1
  O  O20  1  0.00985286  0.21397803  0.19751530  1
  O  O21  1  0.51699508  0.20205656  0.19226453  1
  O  O22  1  0.08165700  0.96267200  0.19127688  1
  O  O23  1  0.59693722  0.97948704  0.19673812  1
  O  O24  1  0.44318367  0.36739725  0.63376955  1
  O  O25  1  0.93025250  0.35389033  0.64280621  1
  O  O26  1  0.24439368  0.13125962  0.63587691  1
  O  O27  1  0.74437460  0.12617267  0.63423002  1
  O  O28  1  0.30916980  0.50131375  0.63859965  1
  O  O29  1  0.81537074  0.51953018  0.63397586  1
  O  O30  1  0.43244895  0.50954382  0.14418832  1
  O  O31  1  0.94375382  0.51931016  0.13622184  1
  O  O32  1  0.31439260  0.10858919  0.13527958  1
  O  O33  1  0.81197957  0.11399526  0.14266753  1
  O  O34  1  0.24309127  0.36282767  0.13616553  1
  O  O35  1  0.74205865  0.36265891  0.13682017  1
  O  O36  1  0.22780292  0.30195851  0.03107964  1
  O  O37  1  0.73144098  0.30506998  0.03106942  1
  O  O38  1  0.41587858  0.55479967  0.02924500  1
  O  O39  1  0.92395364  0.54757668  0.03156505  1
  O  O40  1  0.34241936  0.14623388  0.02994694  1
  O  O41  1  0.85470806  0.16754331  0.02934773  1
  O  O42  1  0.23080511  0.15697916  0.52952959  1
  O  O43  1  0.72846801  0.15339930  0.52905350  1
  O  O44  1  0.35485504  0.55131399  0.52600934  1
  O  O45  1  0.84308434  0.53987574  0.52853954  1
  O  O46  1  0.42627927  0.29708576  0.52935640  1
  O  O47  1  0.91791589  0.27596203  0.52756600  1
  O  O48  1  0.27689389  0.71299313  0.97454971  1
  O  O49  1  0.77188060  0.69260386  0.97085682  1
  O  O50  1  0.07195800  0.44760405  0.97614474  1
  O  O51  1  0.58386476  0.45709354  0.97694722  1
  O  O52  1  0.15017526  0.84968420  0.97158942  1
  O  O53  1  0.65928514  0.86055512  0.97017068  1
  O  O54  1  0.27113524  0.84965457  0.46937893  1
  O  O55  1  0.77559809  0.83673082  0.47236885  1
  O  O56  1  0.15777298  0.46019461  0.46697339  1
  O  O57  1  0.65185206  0.45365864  0.47049621  1
  O  O58  1  0.08660237  0.70451039  0.47456224  1
  O  O59  1  0.57410660  0.69715629  0.47460920  1
  O  O60  1  0.05800348  0.61636120  0.36037007  1
  O  O61  1  0.55693567  0.62546979  0.35784051  1
  O  O62  1  0.26053026  0.88540458  0.36385713  1
  O  O63  1  0.75411902  0.86325213  0.35444679  1
  O  O64  1  0.18486498  0.48748508  0.36136494  1
  O  O65  1  0.68568152  0.48278035  0.36551251  1
  O  O66  1  0.06000243  0.49273038  0.85873131  1
  O  O67  1  0.56105688  0.49937373  0.86303603  1
  O  O68  1  0.18498719  0.88738894  0.86654830  1
  O  O69  1  0.68579939  0.88302960  0.86458747  1
  O  O70  1  0.25236867  0.64313495  0.85680569  1
  O  O71  1  0.75892112  0.63791579  0.86509124  1
  O  O72  1  0.01732779  0.84437837  0.41443717  1
  O  O73  1  0.50875896  0.83943622  0.40715878  1
  O  O74  1  0.39955872  0.98196813  0.41208042  1
  O  O75  1  0.91127994  0.98749992  0.40666705  1
  O  O76  1  0.08658388  0.20747408  0.40935457  1
  O  O77  1  0.58900522  0.20152066  0.41166324  1
  O  O78  1  0.00918540  0.17807774  0.90774890  1
  O  O79  1  0.51680359  0.18255994  0.91245790  1
  O  O80  1  0.08873016  0.97710758  0.91196258  1
  O  O81  1  0.58886202  0.97149760  0.91243125  1
  O  O82  1  0.41009311  0.83941102  0.91088523  1
  O  O83  1  0.89947911  0.81692024  0.91287311  1
  O  O84  1  0.49158631  0.17944041  0.58947545  1
  O  O85  1  0.98765245  0.14782370  0.59236561  1
  O  O86  1  0.10300054  0.03282180  0.58730721  1
  O  O87  1  0.60284819  0.02775408  0.58696215  1
  O  O88  1  0.41999529  0.82703513  0.59176132  1
  O  O89  1  0.90916338  0.79858568  0.58602870  1
  O  O90  1  0.48793651  0.82621280  0.09286597  1
  O  O91  1  0.98932760  0.79937844  0.08929123  1
  O  O92  1  0.40859286  0.01944223  0.08689327  1
  O  O93  1  0.92209733  0.02486392  0.09435993  1
  O  O94  1  0.10156133  0.17968974  0.08931759  1
  O  O95  1  0.60237949  0.17373193  0.08764288  1
  O  O96  1  0.33778527  0.15760720  0.74018825  1
  O  O97  1  0.84312922  0.15277814  0.74566998  1
  O  O98  1  0.23269100  0.29736271  0.74448890  1
  O  O99  1  0.73916357  0.28864197  0.74157537  1
  O  O100  1  0.41388550  0.50837550  0.74895426  1
  O  O101  1  0.91578682  0.52393604  0.74774305  1
  O  O102  1  0.34040857  0.53051100  0.24595161  1
  O  O103  1  0.84417437  0.52031784  0.24079810  1
  O  O104  1  0.41535419  0.30657741  0.24796388  1
  O  O105  1  0.92216352  0.32101591  0.24553007  1
  O  O106  1  0.23900700  0.18318106  0.24162514  1
  O  O107  1  0.73727970  0.17116380  0.24546559  1
  O  O108  1  0.31079981  0.48388147  0.91790110  1
  O  O109  1  0.81744263  0.50118762  0.92493424  1
  O  O110  1  0.42353390  0.34145051  0.92339878  1
  O  O111  1  0.92227245  0.35779600  0.91785584  1
  O  O112  1  0.24543911  0.13487879  0.92738683  1
  O  O113  1  0.74588110  0.14148566  0.92127078  1
  O  O114  1  0.31806254  0.13469021  0.42466336  1
  O  O115  1  0.81221769  0.13915497  0.41779446  1
  O  O116  1  0.24407866  0.34956943  0.41976642  1
  O  O117  1  0.74593933  0.35617546  0.42607504  1
  O  O118  1  0.42074517  0.48518468  0.41856100  1
  O  O119  1  0.92283502  0.49931891  0.42341501  1
  O  O120  1  0.18156850  0.49431876  0.07801495  1
  O  O121  1  0.68279848  0.49062062  0.07726427  1
  O  O122  1  0.06888508  0.64440256  0.07506764  1
  O  O123  1  0.57132068  0.64660167  0.07975605  1
  O  O124  1  0.24914962  0.85939332  0.07516138  1
  O  O125  1  0.75187865  0.84424015  0.07254038  1
  O  O126  1  0.18358135  0.87803743  0.57764035  1
  O  O127  1  0.68274375  0.87073026  0.57712842  1
  O  O128  1  0.25056711  0.65587279  0.57227719  1
  O  O129  1  0.74990867  0.63873041  0.57433298  1
  O  O130  1  0.06952166  0.49520851  0.58038764  1
  O  O131  1  0.57014415  0.49401876  0.57387933  1
  O  O132  1  0.15716658  0.83651689  0.25590552  1
  O  O133  1  0.66086674  0.85279732  0.25446996  1
  O  O134  1  0.26314674  0.68841364  0.26077974  1
  O  O135  1  0.76554238  0.67807831  0.25599940  1
  O  O136  1  0.08085420  0.46384020  0.25673678  1
  O  O137  1  0.59294314  0.47606049  0.25753098  1
  O  O138  1  0.15929976  0.46773226  0.75461444  1
  O  O139  1  0.66565702  0.48086187  0.75462704  1
  O  O140  1  0.09278757  0.70960005  0.75763883  1
  O  O141  1  0.59065445  0.70879364  0.75621591  1
  O  O142  1  0.26434698  0.84514590  0.75651822  1
  O  O143  1  0.76809438  0.83944442  0.76128047  1
loop_
_geom_bond_atom_site_label_1
_geom_bond_atom_site_label_2
_geom_bond_distance
_geom_bond_site_symmetry_2
Na0 O72 2.522563 1_655
Na0 O75 2.539357 1_555
Na0 O85 2.561381 1_565
Na0 O89 2.592798 1_555
Na0 O76 2.714214 1_665
Na0 O86 2.722879 1_665
Na1 O82 2.346778 1_555
Na1 O79 2.417346 1_565
Na1 O81 2.586630 1_555
Na1 O90 2.690302 1_556
Na1 O92 2.705080 1_566
Na1 O95 2.824430 1_566
Na2 O100 2.367454 1_555
Na2 O108 2.429358 1_555
Na2 O110 2.496360 1_555
Na2 O98 2.746328 1_555
Na2 O96 2.779656 1_555
Na2 O112 2.830914 1_555
Na3 O101 2.413135 1_555
Na3 O111 2.502531 1_555
Na3 O99 2.537470 1_555
Na3 O97 2.619681 1_555
Na3 O109 2.698160 1_555
Na3 O113 2.715465 1_555
Na4 O104 2.417653 1_555
Na4 O118 2.442216 1_555
Na4 O106 2.606507 1_555
Na4 O102 2.635155 1_555
Na4 O114 2.670635 1_555
Na4 O116 2.701876 1_555
Na5 O115 2.354953 1_555
Na5 O119 2.427041 1_555
Na5 O117 2.639407 1_555
Na5 O105 2.671430 1_555
Na5 O107 2.713625 1_555
Na5 O103 2.798767 1_555
O0 Si0 1.632357 1_555
O0 Sn0 1.957179 1_545
O1 S0 1.474943 1_555
O1 Sn1 2.200012 1_555
O2 S1 1.478511 1_555
O2 Sn1 2.151542 1_565
O3 S2 1.482299 1_555
O3 Sn0 2.178479 1_655
O4 Si1 1.637304 1_555
O4 Sn1 1.931924 1_555
O5 S3 1.467757 1_555
O5 Sn0 2.260516 1_645
O6 S4 1.476867 1_555
O6 Sn2 2.173679 1_445
O7 Si2 1.619523 1_555
O7 Sn3 1.984068 1_555
O8 Si4 1.615247 1_555
O8 Sn3 1.983574 1_565
O9 Si3 1.636828 1_655
O9 Sn2 1.931043 1_555
O10 S5 1.478625 1_555
O10 Sn3 2.202427 1_555
O11 S6 1.486131 1_545
O11 Sn2 2.117688 1_545
O12 S5 1.469850 1_565
O12 Sn5 2.198765 1_555
O13 S6 1.490739 1_555
O13 Sn4 2.122458 1_555
O14 S4 1.486341 1_555
O14 Sn4 2.105524 1_445
O15 Si2 1.633212 1_555
O15 Sn5 1.955761 1_545
O16 Si3 1.649033 1_555
O16 Sn4 1.926147 1_455
O17 Si4 1.609906 1_555
O17 Sn5 1.945839 1_555
O18 S1 1.478672 1_555
O18 Sn7 2.168819 1_565
O19 S2 1.470694 1_555
O19 Sn6 2.191941 1_665
O20 S3 1.469775 1_455
O20 Sn6 2.165531 1_555
O21 Si1 1.645481 1_555
O21 Sn7 1.926958 1_555
O22 Si0 1.632051 1_565
O22 Sn6 1.931428 1_565
O23 S0 1.475817 1_565
O23 Sn7 2.159960 1_565
O24 S7 1.484353 1_555
O24 Sn8 2.143379 1_555
O25 Si5 1.609414 1_555
O25 Sn9 1.940466 1_555
O26 S8 1.475709 1_555
O26 Sn8 2.182359 1_555
O27 S9 1.466655 1_555
O27 Sn9 2.210751 1_555
O28 Si6 1.638581 1_555
O28 Sn8 1.942813 1_555
O29 S10 1.467288 1_555
O29 Sn9 2.165741 1_555
O30 Si7 1.622573 1_555
O30 Sn10 1.939871 1_555
O31 S11 1.505702 1_555
O31 Sn11 2.113145 1_555
O32 S12 1.484778 1_555
O32 Sn10 2.133164 1_555
O33 Si8 1.654977 1_555
O33 Sn11 1.928172 1_555
O34 S13 1.475889 1_555
O34 Sn10 2.211288 1_555
O35 S14 1.504580 1_555
O35 Sn11 2.080126 1_555
O36 S13 1.473796 1_555
O36 Sn12 2.202545 1_554
O37 S14 1.479765 1_555
O37 Sn13 2.174313 1_554
O38 Si7 1.621276 1_555
O38 Sn12 1.951703 1_554
O39 S11 1.479029 1_555
O39 Sn13 2.139031 1_554
O40 S12 1.467897 1_555
O40 Sn12 2.262750 1_554
O41 Si8 1.618965 1_555
O41 Sn13 1.938094 1_554
O42 S8 1.500550 1_555
O42 Sn14 2.138518 1_555
O43 S9 1.497272 1_555
O43 Sn15 2.116586 1_555
O44 Si6 1.636733 1_555
O44 Sn14 1.921773 1_555
O45 S10 1.485896 1_555
O45 Sn15 2.223156 1_555
O46 S7 1.505631 1_555
O46 Sn14 2.099935 1_555
O47 Si5 1.630741 1_555
O47 Sn15 1.945564 1_555
O48 Si9 1.650495 1_555
O48 Sn16 1.943517 1_556
O49 S15 1.471111 1_555
O49 Sn17 2.237247 1_556
O50 Si10 1.638270 1_555
O50 Sn16 1.953692 1_556
O51 Si11 1.637580 1_555
O51 Sn17 1.962152 1_556
O52 S16 1.493842 1_555
O52 Sn16 2.139593 1_556
O53 S17 1.484419 1_555
O53 Sn17 2.124456 1_556
O54 S18 1.449917 1_555
O54 Sn18 2.281611 1_555
O55 Si12 1.633713 1_555
O55 Sn19 1.975076 1_555
O56 S19 1.458620 1_555
O56 Sn18 2.197866 1_555
O57 S20 1.476355 1_555
O57 Sn19 2.164810 1_555
O58 Si13 1.615076 1_555
O58 Sn18 1.959487 1_555
O59 Si14 1.624221 1_555
O59 Sn19 1.961818 1_555
O60 Si13 1.640248 1_555
O60 Sn20 1.953451 1_555
O61 Si14 1.616955 1_555
O61 Sn21 1.954879 1_555
O62 S18 1.501728 1_555
O62 Sn20 2.128066 1_555
O63 Si12 1.628003 1_555
O63 Sn21 1.959836 1_555
O64 S19 1.493983 1_555
O64 Sn20 2.220050 1_555
O65 S20 1.480429 1_555
O65 Sn21 2.178772 1_555
O66 Si10 1.606574 1_555
O66 Sn22 1.964532 1_555
O67 Si11 1.617425 1_555
O67 Sn23 1.953263 1_555
O68 S16 1.470138 1_555
O68 Sn22 2.197086 1_555
O69 S17 1.460218 1_555
O69 Sn23 2.336741 1_555
O70 Si9 1.620466 1_555
O70 Sn22 1.959541 1_555
O71 S15 1.468534 1_555
O71 Sn23 2.273703 1_555
O72 Si13 1.635940 1_555
O72 Sn0 1.986444 1_555
O73 Si14 1.636341 1_555
O73 Sn1 1.925358 1_565
O74 S18 1.474877 1_555
O74 Sn1 2.134276 1_565
O75 Si12 1.645795 1_555
O75 Sn0 1.979376 1_655
O76 S19 1.482914 1_555
O76 Sn0 2.164330 1_545
O77 S20 1.479585 1_555
O77 Sn1 2.111244 1_555
O78 Si10 1.630458 1_555
O78 Sn2 1.933681 1_445
O79 Si11 1.622835 1_555
O79 Sn3 2.029333 1_555
O80 S16 1.479834 1_555
O80 Sn2 2.130458 1_455
O81 S17 1.467292 1_555
O81 Sn3 2.225464 1_565
O82 Si9 1.616965 1_555
O82 Sn3 2.027290 1_565
O83 S15 1.481748 1_555
O83 Sn2 2.137779 1_555
O84 S7 1.458463 1_555
O84 Sn5 2.232934 1_545
O85 Si5 1.663901 1_555
O85 Sn4 1.948950 1_545
O86 S8 1.488418 1_555
O86 Sn4 2.230756 1_445
O87 S9 1.461084 1_555
O87 Sn5 2.185370 1_545
O88 Si6 1.614523 1_555
O88 Sn5 1.950959 1_555
O89 S10 1.498835 1_555
O89 Sn4 2.219705 1_555
O90 Si7 1.668365 1_555
O90 Sn7 1.935481 1_565
O91 S11 1.472347 1_555
O91 Sn6 2.127895 1_665
O92 S12 1.500918 1_555
O92 Sn7 2.181993 1_555
O93 Si8 1.631263 1_555
O93 Sn6 1.914305 1_655
O94 S13 1.485207 1_555
O94 Sn6 2.107132 1_555
O95 S14 1.482141 1_555
O95 Sn7 2.209240 1_555
O96 S5 1.506900 1_555
O96 Sn8 2.153525 1_555
O97 S6 1.479514 1_545
O97 Sn9 2.194851 1_555
O98 S4 1.486524 1_555
O98 Sn8 2.174125 1_555
O99 Si2 1.650657 1_555
O99 Sn9 1.954775 1_555
O100 Si4 1.672987 1_555
O100 Sn8 1.962362 1_555
O101 Si3 1.632231 1_655
O101 Sn9 1.996390 1_555
O102 S1 1.475835 1_555
O102 Sn10 2.222337 1_555
O103 S2 1.525742 1_555
O103 Sn11 2.129061 1_555
O104 Si1 1.634233 1_555
O104 Sn10 2.003591 1_555
O105 S3 1.515776 1_555
O105 Sn11 2.157279 1_555
O106 Si0 1.635390 1_555
O106 Sn10 1.981691 1_555
O107 S0 1.513265 1_555
O107 Sn11 2.147543 1_555
O108 Si9 1.648042 1_555
O108 Sn12 1.981535 1_555
O109 S15 1.513129 1_555
O109 Sn13 2.167640 1_555
O110 Si11 1.650605 1_555
O110 Sn12 1.972159 1_555
O111 Si10 1.654574 1_655
O111 Sn13 1.958685 1_555
O112 S16 1.474613 1_545
O112 Sn12 2.190065 1_555
O113 S17 1.512798 1_545
O113 Sn13 2.107706 1_555
O114 S18 1.499778 1_545
O114 Sn14 2.208311 1_555
O115 Si12 1.640355 1_545
O115 Sn15 2.006509 1_555
O116 S19 1.492706 1_555
O116 Sn14 2.228342 1_555
O117 S20 1.480161 1_555
O117 Sn15 2.218109 1_555
O118 Si14 1.652200 1_555
O118 Sn14 1.973391 1_555
O119 Si13 1.637403 1_655
O119 Sn15 1.995182 1_555
O120 S13 1.492094 1_555
O120 Sn16 2.141479 1_555
O121 S14 1.455528 1_555
O121 Sn17 2.167883 1_555
O122 S11 1.468359 1_455
O122 Sn16 2.224393 1_555
O123 Si7 1.602131 1_555
O123 Sn17 1.968380 1_555
O124 S12 1.485541 1_565
O124 Sn16 2.180055 1_555
O125 Si8 1.600892 1_565
O125 Sn17 1.956000 1_555
O126 S8 1.467400 1_565
O126 Sn18 2.136443 1_555
O127 S9 1.500069 1_565
O127 Sn19 2.092498 1_555
O128 Si6 1.611870 1_555
O128 Sn18 1.917801 1_555
O129 S10 1.486489 1_555
O129 Sn19 2.153444 1_555
O130 Si5 1.602697 1_455
O130 Sn18 1.949367 1_555
O131 S7 1.486233 1_555
O131 Sn19 2.157774 1_555
O132 Si0 1.631890 1_565
O132 Sn20 1.955537 1_555
O133 S0 1.464109 1_565
O133 Sn21 2.190843 1_555
O134 S1 1.481976 1_555
O134 Sn20 2.133013 1_555
O135 S2 1.454225 1_555
O135 Sn21 2.250449 1_555
O136 S3 1.476318 1_455
O136 Sn20 2.146059 1_555
O137 Si1 1.622701 1_555
O137 Sn21 1.954615 1_555
O138 S4 1.466813 1_555
O138 Sn22 2.164039 1_555
O139 Si2 1.622862 1_555
O139 Sn23 1.942411 1_555
O140 Si3 1.616986 1_555
O140 Sn22 1.956616 1_555
O141 Si4 1.616106 1_555
O141 Sn23 1.934581 1_555
O142 S5 1.471372 1_565
O142 Sn22 2.167436 1_555
O143 S6 1.451490 1_555
O143 Sn23 2.184723 1_555
