# generated using pymatgen
data_Sr4PdO6
_symmetry_space_group_name_H-M   'P 1'
_cell_length_a   6.88519512
_cell_length_b   6.88519512
_cell_length_c   6.88519461
_cell_angle_alpha   89.98262420
_cell_angle_beta   89.98262420
_cell_angle_gamma   89.98263344
_symmetry_Int_Tables_number   1
_chemical_formula_structural   Sr4PdO6
_chemical_formula_sum   'Sr8 Pd2 O12'
_cell_volume   326.39888334
_cell_formula_units_Z   2
loop_
 _symmetry_equiv_pos_site_id
 _symmetry_equiv_pos_as_xyz
  1  'x, y, z'
loop_
 _atom_site_type_symbol
 _atom_site_label
 _atom_site_symmetry_multiplicity
 _atom_site_fract_x
 _atom_site_fract_y
 _atom_site_fract_z
 _atom_site_occupancy
  Sr  Sr0  1  0.75000000  0.75000000  0.75000000  1
  Sr  Sr1  1  0.25000000  0.25000000  0.25000000  1
  Sr  Sr2  1  0.25000000  0.61979559  0.88020441  1
  Sr  Sr3  1  0.88020441  0.25000000  0.61979559  1
  Sr  Sr4  1  0.61979559  0.88020441  0.25000000  1
  Sr  Sr5  1  0.75000000  0.38020441  0.11979559  1
  Sr  Sr6  1  0.11979559  0.75000000  0.38020441  1
  Sr  Sr7  1  0.38020441  0.11979559  0.75000000  1
  Pd  Pd0  1  0.50000000  0.50000000  0.50000000  1
  Pd  Pd1  1  0.00000000  -0.00000000  -0.00000000  1
  O  O0  1  0.07197545  0.28457023  0.94201652  1
  O  O1  1  0.94201652  0.07197545  0.28457023  1
  O  O2  1  0.28457023  0.94201652  0.07197545  1
  O  O3  1  0.42802455  0.55798348  0.21542977  1
  O  O4  1  0.21542977  0.42802455  0.55798348  1
  O  O5  1  0.55798348  0.21542977  0.42802455  1
  O  O6  1  0.92802455  0.71542977  0.05798348  1
  O  O7  1  0.05798348  0.92802455  0.71542977  1
  O  O8  1  0.71542977  0.05798348  0.92802455  1
  O  O9  1  0.57197545  0.44201652  0.78457023  1
  O  O10  1  0.44201652  0.78457023  0.57197545  1
  O  O11  1  0.78457023  0.57197545  0.44201652  1
loop_
_geom_bond_atom_site_label_1
_geom_bond_atom_site_label_2
_geom_bond_distance
_geom_bond_site_symmetry_2
O0 Pd1 2.060073 1_556
O0 Sr1 2.461057 1_556
O0 Sr3 2.593131 1_455
O0 Sr5 2.616160 1_456
O0 Sr2 2.647950 1_555
O0 Sr7 2.745273 1_555
O1 Pd1 2.060073 1_655
O1 Sr1 2.461057 1_655
O1 Sr4 2.593131 1_545
O1 Sr6 2.616161 1_645
O1 Sr3 2.647950 1_555
O1 Sr5 2.745273 1_555
O2 Pd1 2.060074 1_565
O2 Sr1 2.461057 1_565
O2 Sr2 2.593131 1_554
O2 Sr7 2.616160 1_564
O2 Sr4 2.647950 1_555
O2 Sr6 2.745273 1_555
O3 Pd0 2.060073 1_555
O3 Sr1 2.461057 1_555
O3 Sr4 2.593131 1_555
O3 Sr5 2.616161 1_555
O3 Sr2 2.647950 1_554
O3 Sr6 2.745273 1_555
O4 Pd0 2.060073 1_555
O4 Sr1 2.461057 1_555
O4 Sr2 2.593131 1_555
O4 Sr6 2.616160 1_555
O4 Sr3 2.647950 1_455
O4 Sr7 2.745273 1_555
O5 Pd0 2.060074 1_555
O5 Sr1 2.461057 1_555
O5 Sr3 2.593131 1_555
O5 Sr7 2.616160 1_555
O5 Sr4 2.647950 1_545
O5 Sr5 2.745273 1_555
O6 Pd1 2.060073 1_665
O6 Sr0 2.461057 1_554
O6 Sr6 2.593131 1_655
O6 Sr2 2.616160 1_654
O6 Sr5 2.647950 1_555
O6 Sr4 2.745273 1_555
O7 Pd1 2.060073 1_566
O7 Sr0 2.461057 1_455
O7 Sr7 2.593131 1_565
O7 Sr3 2.616161 1_465
O7 Sr6 2.647950 1_555
O7 Sr2 2.745273 1_555
O8 Pd1 2.060074 1_656
O8 Sr0 2.461057 1_545
O8 Sr5 2.593131 1_556
O8 Sr4 2.616160 1_546
O8 Sr7 2.647950 1_555
O8 Sr3 2.745273 1_555
O9 Pd0 2.060073 1_555
O9 Sr0 2.461057 1_555
O9 Sr7 2.593131 1_555
O9 Sr2 2.616161 1_555
O9 Sr5 2.647950 1_556
O9 Sr3 2.745273 1_555
O10 Pd0 2.060074 1_555
O10 Sr0 2.461057 1_555
O10 Sr6 2.593131 1_555
O10 Sr4 2.616160 1_555
O10 Sr7 2.647950 1_565
O10 Sr2 2.745273 1_555
O11 Pd0 2.060073 1_555
O11 Sr0 2.461057 1_555
O11 Sr5 2.593131 1_555
O11 Sr3 2.616160 1_555
O11 Sr6 2.647950 1_655
O11 Sr4 2.745273 1_555
