# generated using pymatgen
data_Na4Al2Si3Sn2(SO8)3
_symmetry_space_group_name_H-M   'P 1'
_cell_length_a   8.79483968
_cell_length_b   8.83599555
_cell_length_c   22.34641845
_cell_angle_alpha   90.01864378
_cell_angle_beta   87.67891236
_cell_angle_gamma   119.94946791
_symmetry_Int_Tables_number   1
_chemical_formula_structural   Na4Al2Si3Sn2(SO8)3
_chemical_formula_sum   'Na12 Al6 Si9 Sn6 S9 O72'
_cell_volume   1503.04418194
_cell_formula_units_Z   3
loop_
 _symmetry_equiv_pos_site_id
 _symmetry_equiv_pos_as_xyz
  1  'x, y, z'
loop_
 _atom_site_type_symbol
 _atom_site_label
 _atom_site_symmetry_multiplicity
 _atom_site_fract_x
 _atom_site_fract_y
 _atom_site_fract_z
 _atom_site_occupancy
  Na  Na0  1  0.00521495  0.64899451  0.25350527  1
  Na  Na1  1  0.00232431  0.35999816  0.73780156  1
  Na  Na2  1  0.66808464  0.97617089  0.58833637  1
  Na  Na3  1  0.67222854  0.69768808  0.08241295  1
  Na  Na4  1  0.33982182  0.30606776  0.90156290  1
  Na  Na5  1  0.32633306  0.02815585  0.42200259  1
  Na  Na6  1  0.00859842  0.00531364  0.50224378  1
  Na  Na7  1  0.98621331  0.97666491  0.99446075  1
  Na  Na8  1  0.65549439  0.33080207  0.82192730  1
  Na  Na9  1  0.66325539  0.34370629  0.33254556  1
  Na  Na10  1  0.33553389  0.68172509  0.16892721  1
  Na  Na11  1  0.33394869  0.66379522  0.66130297  1
  Al  Al0  1  0.99733061  0.96550443  0.34907266  1
  Al  Al1  1  0.97577264  0.98956889  0.84317245  1
  Al  Al2  1  0.64369562  0.29232901  0.68543797  1
  Al  Al3  1  0.68188980  0.34786629  0.19416491  1
  Al  Al4  1  0.33124942  0.67170387  0.01753314  1
  Al  Al5  1  0.29171361  0.66913846  0.52416268  1
  Si  Si0  1  0.30700535  0.01533203  0.25145609  1
  Si  Si1  1  0.70436386  0.70319542  0.25065795  1
  Si  Si2  1  0.29470882  0.27986165  0.75423711  1
  Si  Si3  1  0.71081406  0.00617823  0.74896620  1
  Si  Si4  1  0.95712102  0.34010757  0.58707225  1
  Si  Si5  1  0.37434043  0.03644379  0.58171515  1
  Si  Si6  1  0.97007490  0.62198522  0.08571297  1
  Si  Si7  1  0.63304689  0.68005736  0.92043572  1
  Si  Si8  1  0.03487401  0.66686113  0.41731141  1
  Sn  Sn0  1  0.01236937  0.01432190  0.64729832  1
  Sn  Sn1  1  0.00146413  0.98387199  0.15282509  1
  Sn  Sn2  1  0.67580597  0.34845087  0.98364364  1
  Sn  Sn3  1  0.67447260  0.33947181  0.48628475  1
  Sn  Sn4  1  0.33440083  0.67066147  0.31580659  1
  Sn  Sn5  1  0.35501061  0.67026396  0.81173705  1
  S  S0  1  0.99512177  0.28049469  0.25079158  1
  S  S1  1  0.99907192  0.71136254  0.75408209  1
  S  S2  1  0.66216193  0.62272356  0.58591599  1
  S  S3  1  0.66546399  0.04650146  0.08436970  1
  S  S4  1  0.36964026  0.33311214  0.08505631  1
  S  S5  1  0.04783551  0.38036677  0.91936098  1
  S  S6  1  0.33516662  0.95532458  0.92100244  1
  S  S7  1  0.63693325  0.95796010  0.41656095  1
  S  S8  1  0.32776935  0.37797558  0.41951608  1
  O  O0  1  0.20943427  0.03946020  0.31119540  1
  O  O1  1  0.84114658  0.80825384  0.30183593  1
  O  O2  1  0.97573453  0.17337474  0.30276851  1
  O  O3  1  0.19646301  0.16018051  0.81618941  1
  O  O4  1  0.98109683  0.80239102  0.80740923  1
  O  O5  1  0.83178472  0.03190605  0.80518912  1
  O  O6  1  0.78494894  0.95678134  0.68827628  1
  O  O7  1  0.16710214  0.20725790  0.69799812  1
  O  O8  1  0.03823915  0.81555064  0.69800849  1
  O  O9  1  0.76404015  0.81543079  0.18572642  1
  O  O10  1  0.02634439  0.21077109  0.19282907  1
  O  O11  1  0.17880394  0.95833134  0.19353967  1
  O  O12  1  0.85865132  0.36427268  0.64627971  1
  O  O13  1  0.50272382  0.13247700  0.63527705  1
  O  O14  1  0.63874512  0.50942754  0.63684942  1
  O  O15  1  0.86671020  0.49869765  0.14431266  1
  O  O16  1  0.64424079  0.13540786  0.13573420  1
  O  O17  1  0.48454949  0.35498021  0.13365723  1
  O  O18  1  0.43437059  0.29234363  0.02649768  1
  O  O19  1  0.83819011  0.55098205  0.02848431  1
  O  O20  1  0.68791126  0.14370130  0.02586472  1
  O  O21  1  0.44297563  0.15181536  0.51745485  1
  O  O22  1  0.69897223  0.55883434  0.52720151  1
  O  O23  1  0.83630592  0.29123804  0.52790225  1
  O  O24  1  0.53242480  0.69729217  0.98183442  1
  O  O25  1  0.15520842  0.47615287  0.97034476  1
  O  O26  1  0.31574172  0.84553314  0.97389828  1
  O  O27  1  0.55459573  0.85138612  0.47103126  1
  O  O28  1  0.31882443  0.47435142  0.47109193  1
  O  O29  1  0.17242315  0.70305238  0.46892914  1
  O  O30  1  0.10791251  0.62467432  0.35332320  1
  O  O31  1  0.52412297  0.88031055  0.36339298  1
  O  O32  1  0.36319768  0.48001721  0.36144303  1
  O  O33  1  0.11686875  0.48419910  0.86261881  1
  O  O34  1  0.36036477  0.88162182  0.86466540  1
  O  O35  1  0.49503726  0.61898906  0.86625352  1
  O  O36  1  0.02550429  0.84726557  0.41001272  1
  O  O37  1  0.81425709  0.98244614  0.40471217  1
  O  O38  1  0.16635647  0.20514384  0.41554787  1
  O  O39  1  0.04085569  0.21068023  0.91668016  1
  O  O40  1  0.18151988  0.97886001  0.92009710  1
  O  O41  1  0.82646610  0.85043997  0.90665802  1
  O  O42  1  0.97262840  0.16093510  0.58747687  1
  O  O43  1  0.17300093  0.99705459  0.58730577  1
  O  O44  1  0.82097504  0.80139829  0.58847377  1
  O  O45  1  0.98400672  0.81869155  0.08698956  1
  O  O46  1  0.82717869  0.02923406  0.08461173  1
  O  O47  1  0.18710635  0.18397780  0.09160686  1
  O  O48  1  0.70222118  0.18454670  0.74352147  1
  O  O49  1  0.48984398  0.31003453  0.74096950  1
  O  O50  1  0.84204518  0.54033400  0.75136834  1
  O  O51  1  0.70623867  0.52043063  0.24356518  1
  O  O52  1  0.83586289  0.29828605  0.24599590  1
  O  O53  1  0.49846073  0.18296522  0.23757369  1
  O  O54  1  0.64028575  0.49231111  0.92320363  1
  O  O55  1  0.86324580  0.34659387  0.92445844  1
  O  O56  1  0.49735700  0.13510454  0.92447089  1
  O  O57  1  0.64585541  0.13226058  0.41925370  1
  O  O58  1  0.48239365  0.34701557  0.41957494  1
  O  O59  1  0.83750894  0.49523255  0.42159535  1
  O  O60  1  0.36363644  0.49701398  0.07783486  1
  O  O61  1  0.16227421  0.64074309  0.07249143  1
  O  O62  1  0.50954100  0.86732012  0.08047930  1
  O  O63  1  0.37361490  0.85272170  0.57206126  1
  O  O64  1  0.50789200  0.64475923  0.57947708  1
  O  O65  1  0.15107512  0.51016224  0.57759876  1
  O  O66  1  0.31480312  0.83181464  0.25613919  1
  O  O67  1  0.50387406  0.66559897  0.25725004  1
  O  O68  1  0.14984737  0.46198191  0.25202075  1
  O  O69  1  0.29672557  0.47026016  0.75895121  1
  O  O70  1  0.15392081  0.68392271  0.76045920  1
  O  O71  1  0.50767267  0.84293222  0.75181591  1
loop_
_geom_bond_atom_site_label_1
_geom_bond_atom_site_label_2
_geom_bond_distance
_geom_bond_site_symmetry_2
Na0 O51 2.306186 1_455
Na0 O66 2.376503 1_555
Na0 O30 2.488919 1_555
Na0 O68 2.538695 1_555
Na0 O1 2.670025 1_455
Na0 O52 2.694608 1_455
Na0 O11 2.695830 1_555
Na0 O15 2.797285 1_455
Na1 O48 2.296353 1_455
Na1 O69 2.335951 1_555
Na1 O12 2.457208 1_455
Na1 O70 2.543544 1_555
Na1 O7 2.561335 1_555
Na1 O50 2.612632 1_455
Na2 O63 2.298833 1_555
Na2 O42 2.338673 1_565
Na2 O44 2.503319 1_555
Na2 O6 2.536799 1_555
Na2 O64 2.549942 1_555
Na2 O13 2.646482 1_565
Na2 O23 2.736984 1_565
Na2 O27 2.862627 1_555
Na3 O60 2.395368 1_555
Na3 O45 2.401618 1_555
Na3 O9 2.524889 1_555
Na3 O62 2.538122 1_555
Na3 O46 2.541830 1_565
Na3 O24 2.604404 1_554
Na3 O19 2.647416 1_555
Na3 O17 2.839733 1_555
Na4 O39 2.335278 1_555
Na4 O3 2.336975 1_555
Na4 O54 2.384523 1_555
Na4 O35 2.505319 1_555
Na4 O40 2.530596 1_545
Na4 O56 2.571261 1_555
Na5 O36 2.336928 1_545
Na5 O21 2.419206 1_555
Na5 O58 2.440844 1_555
Na5 O57 2.480302 1_555
Na5 O38 2.580614 1_555
Na5 O29 2.681108 1_545
Na5 O0 2.739921 1_555
Na5 O31 2.920826 1_545
Na6 O42 2.449987 1_455
Na6 O43 2.457062 1_545
Na6 O38 2.476780 1_555
Na6 O36 2.529988 1_545
Na6 O44 2.541357 1_445
Na6 O37 2.769288 1_445
Na7 O40 2.334060 1_655
Na7 O41 2.392667 1_555
Na7 O45 2.489115 1_556
Na7 O39 2.543643 1_665
Na7 O46 2.578827 1_566
Na7 O47 2.875137 1_666
Na8 O50 2.316274 1_555
Na8 O49 2.318487 1_555
Na8 O48 2.319320 1_555
Na8 O54 2.709311 1_555
Na8 O56 2.741978 1_555
Na8 O55 2.948194 1_555
Na9 O51 2.426260 1_555
Na9 O58 2.471656 1_555
Na9 O59 2.509518 1_555
Na9 O52 2.564410 1_555
Na9 O53 2.610318 1_555
Na9 O57 2.638429 1_555
Na10 O66 2.408548 1_555
Na10 O62 2.487799 1_555
Na10 O68 2.544706 1_555
Na10 O67 2.560323 1_555
Na10 O61 2.609903 1_555
Na10 O60 2.688556 1_555
Na11 O64 2.396290 1_555
Na11 O65 2.447517 1_555
Na11 O63 2.499949 1_555
Na11 O71 2.600851 1_555
Na11 O69 2.679297 1_555
Na11 O70 2.728546 1_555
Al0 O1 1.772704 1_555
Al0 O0 1.810682 1_665
Al0 O36 1.814973 1_655
Al0 O37 2.058914 1_555
Al0 O2 2.201328 1_565
Al0 O38 2.435987 1_665
Al1 O5 1.739055 1_565
Al1 O3 1.840570 1_665
Al1 O4 1.857340 1_555
Al1 O41 1.867257 1_555
Al1 O39 2.408412 1_665
Al2 O13 1.775292 1_555
Al2 O48 1.844182 1_555
Al2 O12 1.846681 1_555
Al2 O49 1.862927 1_555
Al2 O14 2.224679 1_555
Al2 O50 2.530816 1_555
Al3 O53 1.787088 1_555
Al3 O51 1.811483 1_555
Al3 O15 1.830481 1_555
Al3 O52 2.021614 1_555
Al3 O16 2.179793 1_555
Al3 O17 2.267928 1_555
Al4 O61 1.799471 1_555
Al4 O24 1.817777 1_554
Al4 O26 1.884000 1_554
Al4 O25 1.988610 1_554
Al4 O60 2.179673 1_555
Al4 O62 2.212655 1_555
Al5 O65 1.753751 1_555
Al5 O29 1.770016 1_555
Al5 O63 1.786203 1_555
Al5 O28 2.193432 1_555
Al5 O27 2.325879 1_555
Al5 O64 2.405935 1_555
O0 Si0 1.628999 1_555
O1 Si1 1.616339 1_555
O2 S0 1.448298 1_555
O3 Si2 1.665298 1_555
O4 S1 1.484281 1_555
O5 Si3 1.621322 1_555
O6 Si3 1.633107 1_565
O6 Sn0 1.983460 1_665
O7 Si2 1.626441 1_555
O7 Sn0 1.961889 1_555
O8 S1 1.478325 1_455
O8 Sn0 2.200408 1_565
O9 Si1 1.668493 1_555
O9 Sn1 1.972106 1_655
O10 S0 1.507391 1_455
O10 Sn1 2.107891 1_545
O11 Si0 1.658533 1_565
O11 Sn1 1.943661 1_555
O12 Si4 1.624118 1_555
O13 Si5 1.606145 1_555
O14 S2 1.454625 1_555
O15 Si6 1.625920 1_555
O16 S3 1.448417 1_555
O17 S4 1.460128 1_555
O18 S4 1.519982 1_555
O18 Sn2 2.110954 1_554
O19 Si6 1.663580 1_555
O19 Sn2 1.951689 1_554
O20 S3 1.515379 1_555
O20 Sn2 2.091926 1_554
O21 Si5 1.667927 1_555
O21 Sn3 1.973550 1_555
O22 S2 1.514129 1_555
O22 Sn3 2.058447 1_555
O23 Si4 1.648967 1_555
O23 Sn3 1.945628 1_555
O24 Si7 1.650730 1_555
O25 S5 1.481417 1_555
O26 S6 1.478656 1_555
O27 S7 1.463301 1_555
O28 S8 1.455547 1_555
O29 Si8 1.619479 1_555
O30 Si8 1.661491 1_555
O30 Sn4 1.972950 1_555
O31 S7 1.510625 1_555
O31 Sn4 2.098268 1_555
O32 S8 1.510506 1_555
O32 Sn4 2.095190 1_555
O33 S5 1.483362 1_555
O33 Sn5 2.180045 1_555
O34 S6 1.476178 1_555
O34 Sn5 2.191842 1_555
O35 Si7 1.641663 1_555
O35 Sn5 1.971040 1_555
O36 Si8 1.645239 1_555
O37 S7 1.476060 1_555
O38 S8 1.483502 1_555
O39 S5 1.470968 1_555
O40 S6 1.467129 1_555
O41 Si7 1.629672 1_555
O42 Si4 1.655536 1_555
O42 Sn0 2.019530 1_655
O43 Si5 1.624514 1_565
O43 Sn0 1.969268 1_565
O44 S2 1.500434 1_555
O44 Sn0 2.261985 1_665
O45 Si6 1.680600 1_555
O45 Sn1 2.027648 1_655
O46 S3 1.504463 1_555
O46 Sn1 2.374201 1_645
O47 S4 1.484563 1_555
O47 Sn1 2.145153 1_545
O48 Si3 1.619964 1_555
O49 Si2 1.614390 1_555
O50 S1 1.455181 1_555
O51 Si1 1.630807 1_555
O52 S0 1.493338 1_555
O53 Si0 1.610333 1_555
O54 Si7 1.692853 1_555
O54 Sn2 1.992326 1_555
O55 S5 1.496295 1_655
O55 Sn2 2.077844 1_555
O56 S6 1.520055 1_545
O56 Sn2 2.231078 1_555
O57 S7 1.503794 1_545
O57 Sn3 2.286474 1_555
O58 S8 1.515173 1_555
O58 Sn3 2.323129 1_555
O59 Si8 1.637149 1_655
O59 Sn3 1.975569 1_555
O60 S4 1.484390 1_555
O61 Si6 1.628474 1_455
O62 S3 1.495489 1_565
O63 Si5 1.634455 1_565
O64 S2 1.476166 1_555
O65 Si4 1.619910 1_455
O66 Si0 1.660372 1_565
O66 Sn4 2.024863 1_555
O67 Si1 1.623368 1_555
O67 Sn4 1.960706 1_555
O68 S0 1.499414 1_455
O68 Sn4 2.294249 1_555
O69 Si2 1.676899 1_555
O69 Sn5 1.979995 1_555
O70 S1 1.509709 1_455
O70 Sn5 2.198348 1_555
O71 Si3 1.641444 1_565
O71 Sn5 1.932301 1_555
