# generated using pymatgen
data_MgCo3SbO8
_symmetry_space_group_name_H-M   'P 1'
_cell_length_a   5.89522539
_cell_length_b   5.95085949
_cell_length_c   6.00662282
_cell_angle_alpha   59.86597497
_cell_angle_beta   60.61044943
_cell_angle_gamma   60.30945466
_symmetry_Int_Tables_number   1
_chemical_formula_structural   MgCo3SbO8
_chemical_formula_sum   'Mg1 Co3 Sb1 O8'
_cell_volume   149.87396756
_cell_formula_units_Z   1
loop_
 _symmetry_equiv_pos_site_id
 _symmetry_equiv_pos_as_xyz
  1  'x, y, z'
loop_
 _atom_site_type_symbol
 _atom_site_label
 _atom_site_symmetry_multiplicity
 _atom_site_fract_x
 _atom_site_fract_y
 _atom_site_fract_z
 _atom_site_occupancy
  Mg  Mg0  1  0.50000000  0.50000000  0.50000000  1
  Co  Co0  1  0.50000000  0.00000000  0.00000000  1
  Co  Co1  1  0.00000000  0.50000000  0.00000000  1
  Co  Co2  1  0.50000000  0.50000000  0.00000000  1
  Sb  Sb0  1  0.00000000  0.00000000  0.00000000  1
  O  O0  1  0.25322400  0.23332400  0.78346900  1
  O  O1  1  0.72998300  0.23332200  0.78347100  1
  O  O2  1  0.23715600  0.74764800  0.77805200  1
  O  O3  1  0.72578400  0.73305600  0.81538300  1
  O  O4  1  0.27421700  0.26694500  0.18461700  1
  O  O5  1  0.76284400  0.25235200  0.22194800  1
  O  O6  1  0.27001700  0.76667800  0.21652900  1
  O  O7  1  0.74677600  0.76667600  0.21653100  1
loop_
_geom_bond_atom_site_label_1
_geom_bond_atom_site_label_2
_geom_bond_distance
_geom_bond_site_symmetry_2
Mg0 O7 2.162598 1_555
Mg0 O0 2.162598 1_555
Mg0 O1 2.162667 1_555
Mg0 O6 2.162667 1_555
Mg0 O2 2.243074 1_555
Mg0 O5 2.243074 1_555
Co0 O3 1.936559 1_544
Co0 O4 1.936564 1_555
Co0 O1 1.943856 1_554
Co0 O6 1.943856 1_545
Co0 O7 1.943918 1_545
Co0 O0 1.943918 1_554
Co1 O3 1.939266 1_454
Co1 O4 1.939270 1_555
Co1 O2 2.035403 1_554
Co1 O5 2.035403 1_455
Co1 O7 2.063596 1_455
Co1 O0 2.063596 1_554
Co2 O4 1.939237 1_555
Co2 O3 1.939246 1_554
Co2 O5 2.035408 1_555
Co2 O2 2.035408 1_554
Co2 O6 2.063597 1_555
Co2 O1 2.063597 1_554
O0 Sb0 2.045105 1_556
O1 Sb0 2.045153 1_656
O2 Sb0 2.021879 1_566
O5 Sb0 2.021879 1_655
O6 Sb0 2.045153 1_565
O7 Sb0 2.045105 1_665
