# generated using pymatgen
data_Na2La4Y4SiS11O48
_symmetry_space_group_name_H-M   'P 1'
_cell_length_a   18.79077471
_cell_length_b   9.40264469
_cell_length_c   24.70323704
_cell_angle_alpha   90.01485048
_cell_angle_beta   90.02858233
_cell_angle_gamma   120.11808290
_symmetry_Int_Tables_number   1
_chemical_formula_structural   Na2La4Y4SiS11O48
_chemical_formula_sum   'Na6 La12 Y12 Si3 S33 O144'
_cell_volume   3775.38363790
_cell_formula_units_Z   3
loop_
 _symmetry_equiv_pos_site_id
 _symmetry_equiv_pos_as_xyz
  1  'x, y, z'
loop_
 _atom_site_type_symbol
 _atom_site_label
 _atom_site_symmetry_multiplicity
 _atom_site_fract_x
 _atom_site_fract_y
 _atom_site_fract_z
 _atom_site_occupancy
  Na  Na0  1  0.00166067  0.98613794  0.49893046  1
  Na  Na1  1  0.50132725  0.01831036  0.99300302  1
  Na  Na2  1  0.34151790  0.33515036  0.83699454  1
  Na  Na3  1  0.84161944  0.35193835  0.82734791  1
  Na  Na4  1  0.33090487  0.33002045  0.33482520  1
  Na  Na5  1  0.84477378  0.35176210  0.33813693  1
  La  La0  1  0.99951328  0.99062903  0.85384719  1
  La  La1  1  0.49968447  0.00927574  0.85440706  1
  La  La2  1  0.00011896  0.98939223  0.65268636  1
  La  La3  1  0.50038106  0.00016985  0.64373056  1
  La  La4  1  0.33425827  0.33501093  0.68416719  1
  La  La5  1  0.83911201  0.34612146  0.68497474  1
  La  La6  1  0.33935511  0.33487720  0.98100267  1
  La  La7  1  0.83947012  0.34340083  0.47840116  1
  La  La8  1  0.66205904  0.65449442  0.02032054  1
  La  La9  1  0.16077967  0.66890310  0.51617944  1
  La  La10  1  0.15961272  0.66542201  0.80995473  1
  La  La11  1  0.66259115  0.65806676  0.81599202  1
  Y  Y0  1  0.00061357  0.99235690  0.35221835  1
  Y  Y1  1  0.49999445  0.99888920  0.35422926  1
  Y  Y2  1  0.99917497  0.00001142  0.14612531  1
  Y  Y3  1  0.50060544  0.00138467  0.15105509  1
  Y  Y4  1  0.33078902  0.33223268  0.18350373  1
  Y  Y5  1  0.83596504  0.33480993  0.18495418  1
  Y  Y6  1  0.83455829  0.33445220  0.98370188  1
  Y  Y7  1  0.33378460  0.33423061  0.48111743  1
  Y  Y8  1  0.16521417  0.66429926  0.02083842  1
  Y  Y9  1  0.66611345  0.66808215  0.51865108  1
  Y  Y10  1  0.16073415  0.66467253  0.31393448  1
  Y  Y11  1  0.66641845  0.66594085  0.31128387  1
  Si  Si0  1  0.99542099  0.69736887  0.75171544  1
  Si  Si1  1  0.51625251  0.36634210  0.91742051  1
  Si  Si2  1  0.01828142  0.67020749  0.41302587  1
  S  S0  1  0.14649243  0.00414338  0.24938088  1
  S  S1  1  0.64623244  0.00373330  0.25147351  1
  S  S2  1  0.35601106  0.70777190  0.25120400  1
  S  S3  1  0.85465463  0.70728940  0.24978087  1
  S  S4  1  0.99835990  0.28726747  0.24999100  1
  S  S5  1  0.49794346  0.28867175  0.25114607  1
  S  S6  1  0.15135917  0.29588485  0.75111020  1
  S  S7  1  0.64824058  0.29310773  0.74945780  1
  S  S8  1  0.49856706  0.70484155  0.75047194  1
  S  S9  1  0.35330396  0.00374527  0.74938569  1
  S  S10  1  0.85087854  0.00257830  0.75153049  1
  S  S11  1  0.48091708  0.33955273  0.57928966  1
  S  S12  1  0.98224671  0.32611640  0.58197262  1
  S  S13  1  0.18749411  0.04643066  0.57995116  1
  S  S14  1  0.68700005  0.03340037  0.58102067  1
  S  S15  1  0.33282667  0.62221616  0.58035182  1
  S  S16  1  0.83053972  0.63421444  0.57994222  1
  S  S17  1  0.47825161  0.63395758  0.08760753  1
  S  S18  1  0.97827986  0.62465020  0.08405328  1
  S  S19  1  0.33442628  0.03528176  0.08580234  1
  S  S20  1  0.83650692  0.05018081  0.08532792  1
  S  S21  1  0.18549658  0.33327480  0.08501819  1
  S  S22  1  0.68755822  0.32223854  0.08563409  1
  S  S23  1  0.31074363  0.66628747  0.91928900  1
  S  S24  1  0.81397772  0.65609633  0.91897467  1
  S  S25  1  0.01771550  0.37622560  0.92071663  1
  S  S26  1  0.16773669  0.95632223  0.91957240  1
  S  S27  1  0.67114175  0.97216324  0.91926848  1
  S  S28  1  0.31517402  0.96644829  0.41311534  1
  S  S29  1  0.81064418  0.94985214  0.41419065  1
  S  S30  1  0.16840046  0.37004888  0.41394149  1
  S  S31  1  0.66366001  0.37823850  0.41357691  1
  S  S32  1  0.52129880  0.66449229  0.41477723  1
  O  O0  1  0.10875236  0.03310598  0.29783095  1
  O  O1  1  0.60654365  0.03045997  0.29949883  1
  O  O2  1  0.40979105  0.78704733  0.29931334  1
  O  O3  1  0.90694141  0.78380324  0.29803959  1
  O  O4  1  0.48487748  0.18262367  0.29895167  1
  O  O5  1  0.98390135  0.18384388  0.29853999  1
  O  O6  1  0.11064159  0.19649728  0.79957213  1
  O  O7  1  0.60799665  0.19388665  0.79841351  1
  O  O8  1  0.48829688  0.78292892  0.79949211  1
  O  O9  1  0.98620167  0.79179391  0.80440911  1
  O  O10  1  0.40320279  0.02607324  0.79834225  1
  O  O11  1  0.90271210  0.02655378  0.79980379  1
  O  O12  1  0.39549093  0.99180899  0.70033807  1
  O  O13  1  0.89092323  0.98817172  0.70180939  1
  O  O14  1  0.10377706  0.21874439  0.70139690  1
  O  O15  1  0.59845063  0.20969451  0.70056077  1
  O  O16  1  0.00407475  0.79957407  0.69609779  1
  O  O17  1  0.50354748  0.80008197  0.70125966  1
  O  O18  1  0.39617240  0.81006699  0.20236376  1
  O  O19  1  0.89331013  0.80885626  0.20104033  1
  O  O20  1  0.00803206  0.20574707  0.20127682  1
  O  O21  1  0.51081946  0.21276107  0.20205157  1
  O  O22  1  0.09530578  0.98158640  0.20079502  1
  O  O23  1  0.59514498  0.97837997  0.20259924  1
  O  O24  1  0.44605929  0.36716704  0.62913019  1
  O  O25  1  0.94234410  0.34363589  0.63095965  1
  O  O26  1  0.23314438  0.12535338  0.63019394  1
  O  O27  1  0.73648787  0.10503216  0.63018467  1
  O  O28  1  0.32226654  0.52519226  0.63009640  1
  O  O29  1  0.81906561  0.53909479  0.62967939  1
  O  O30  1  0.43352834  0.52486161  0.13448447  1
  O  O31  1  0.93925428  0.51818398  0.13244957  1
  O  O32  1  0.32260197  0.11965842  0.13332332  1
  O  O33  1  0.82527488  0.13338372  0.13356565  1
  O  O34  1  0.24054857  0.36119571  0.13285570  1
  O  O35  1  0.73863245  0.33940943  0.13397508  1
  O  O36  1  0.22016979  0.29971358  0.03671980  1
  O  O37  1  0.72566517  0.29928395  0.03626427  1
  O  O38  1  0.43014478  0.56643687  0.03757690  1
  O  O39  1  0.92491685  0.54813779  0.03610704  1
  O  O40  1  0.35156145  0.13696433  0.03686170  1
  O  O41  1  0.84956930  0.15337040  0.03660255  1
  O  O42  1  0.23339740  0.15021659  0.53213215  1
  O  O43  1  0.72611839  0.13918572  0.53321707  1
  O  O44  1  0.34319392  0.53526394  0.53273513  1
  O  O45  1  0.84241090  0.55093844  0.53264757  1
  O  O46  1  0.42608096  0.31571162  0.53228807  1
  O  O47  1  0.93128550  0.30861873  0.53338672  1
  O  O48  1  0.26667372  0.67876653  0.96781290  1
  O  O49  1  0.77274634  0.67536352  0.96709071  1
  O  O50  1  0.07071525  0.46557804  0.96829012  1
  O  O51  1  0.56875466  0.45835753  0.97226450  1
  O  O52  1  0.16242744  0.85593927  0.96803108  1
  O  O53  1  0.66171826  0.87143568  0.96747068  1
  O  O54  1  0.28180147  0.87058034  0.46304371  1
  O  O55  1  0.77149729  0.85272024  0.46376347  1
  O  O56  1  0.15690474  0.44077239  0.46406138  1
  O  O57  1  0.65372181  0.45499827  0.46312678  1
  O  O58  1  0.06890427  0.69010957  0.46907190  1
  O  O59  1  0.57127532  0.68859664  0.46371552  1
  O  O60  1  0.06813235  0.65170017  0.36136733  1
  O  O61  1  0.56083904  0.63845594  0.36646223  1
  O  O62  1  0.26156710  0.88484945  0.36583496  1
  O  O63  1  0.75956688  0.86365351  0.36579723  1
  O  O64  1  0.18141082  0.47602862  0.36626425  1
  O  O65  1  0.67444234  0.48379793  0.36558604  1
  O  O66  1  0.05209672  0.47302810  0.87090055  1
  O  O67  1  0.56165364  0.47257839  0.86337185  1
  O  O68  1  0.17907650  0.88272604  0.87001846  1
  O  O69  1  0.68268593  0.90013739  0.86942173  1
  O  O70  1  0.26618748  0.65388936  0.86910859  1
  O  O71  1  0.76513349  0.63093019  0.86941049  1
  O  O72  1  0.00840173  0.83465902  0.40794386  1
  O  O73  1  0.51248417  0.81149036  0.40609464  1
  O  O74  1  0.39828238  0.98747121  0.40319322  1
  O  O75  1  0.89407987  0.96981777  0.40878814  1
  O  O76  1  0.09422391  0.20418601  0.40630599  1
  O  O77  1  0.58898822  0.21401258  0.40542262  1
  O  O78  1  0.00975621  0.21390689  0.91643797  1
  O  O79  1  0.50691320  0.18241924  0.91734900  1
  O  O80  1  0.09313232  0.96899487  0.91698851  1
  O  O81  1  0.59649891  0.98846377  0.91552915  1
  O  O82  1  0.39452187  0.81458796  0.91905137  1
  O  O83  1  0.89583104  0.80304339  0.91464116  1
  O  O84  1  0.48841681  0.19173564  0.58503057  1
  O  O85  1  0.99012752  0.17744285  0.58460046  1
  O  O86  1  0.10521793  0.03170252  0.58040784  1
  O  O87  1  0.60395199  0.01321332  0.58787135  1
  O  O88  1  0.40807736  0.78467533  0.58522420  1
  O  O89  1  0.90404170  0.80113917  0.58314705  1
  O  O90  1  0.48715274  0.79997731  0.09626925  1
  O  O91  1  0.98708253  0.78858488  0.09403597  1
  O  O92  1  0.40801093  0.01582732  0.09555035  1
  O  O93  1  0.91084726  0.03502408  0.09414611  1
  O  O94  1  0.10315384  0.18877966  0.09687154  1
  O  O95  1  0.60367729  0.17285726  0.09215355  1
  O  O96  1  0.34433750  0.15277474  0.74585694  1
  O  O97  1  0.84030543  0.14923449  0.74773381  1
  O  O98  1  0.23447805  0.31065910  0.74751557  1
  O  O99  1  0.73024937  0.30715721  0.74582174  1
  O  O100  1  0.42416034  0.53634448  0.74694681  1
  O  O101  1  0.91306235  0.51273746  0.74991748  1
  O  O102  1  0.34753797  0.54068746  0.24397879  1
  O  O103  1  0.84476372  0.53964518  0.24244786  1
  O  O104  1  0.42378405  0.30697091  0.24371146  1
  O  O105  1  0.92434287  0.30842772  0.24269216  1
  O  O106  1  0.23057048  0.15460294  0.24222360  1
  O  O107  1  0.72969266  0.15127609  0.24412603  1
  O  O108  1  0.31868109  0.51689018  0.92338656  1
  O  O109  1  0.82278953  0.50640877  0.92597092  1
  O  O110  1  0.42417149  0.34827967  0.91815645  1
  O  O111  1  0.93408955  0.35824499  0.92876034  1
  O  O112  1  0.24113131  0.12403145  0.92419865  1
  O  O113  1  0.74530640  0.14033342  0.92583749  1
  O  O114  1  0.32450830  0.13466859  0.41948908  1
  O  O115  1  0.81745652  0.11373011  0.41724412  1
  O  O116  1  0.24319490  0.35041423  0.41951541  1
  O  O117  1  0.73677819  0.35814641  0.41732053  1
  O  O118  1  0.43739499  0.51597581  0.42125893  1
  O  O119  1  0.92599183  0.50291830  0.41424028  1
  O  O120  1  0.17765680  0.48105977  0.07694748  1
  O  O121  1  0.67995580  0.46958666  0.08138361  1
  O  O122  1  0.06006755  0.64223568  0.07486002  1
  O  O123  1  0.55973913  0.65015157  0.08372675  1
  O  O124  1  0.26057694  0.87220899  0.07789312  1
  O  O125  1  0.76353919  0.88757063  0.07907176  1
  O  O126  1  0.18122004  0.88474802  0.57589906  1
  O  O127  1  0.67724550  0.86776991  0.57118369  1
  O  O128  1  0.26025024  0.63956524  0.57319225  1
  O  O129  1  0.75589167  0.64776023  0.57109750  1
  O  O130  1  0.06406183  0.47462233  0.57717718  1
  O  O131  1  0.56287947  0.48553967  0.56955986  1
  O  O132  1  0.15652902  0.85948750  0.25689826  1
  O  O133  1  0.65422261  0.85607858  0.26021614  1
  O  O134  1  0.27466075  0.69087059  0.25922917  1
  O  O135  1  0.77214922  0.68902174  0.25853392  1
  O  O136  1  0.07256695  0.45080483  0.25686455  1
  O  O137  1  0.57151264  0.45334783  0.25957536  1
  O  O138  1  0.16204281  0.46105015  0.75564100  1
  O  O139  1  0.65686989  0.45697591  0.75329853  1
  O  O140  1  0.07730489  0.68193570  0.75615386  1
  O  O141  1  0.57302887  0.69165529  0.75352587  1
  O  O142  1  0.27242407  0.85558471  0.75345468  1
  O  O143  1  0.76998196  0.85294536  0.75702006  1
loop_
_geom_bond_atom_site_label_1
_geom_bond_atom_site_label_2
_geom_bond_distance
_geom_bond_site_symmetry_2
Na0 O86 2.679613 1_565
Na0 O72 2.697473 1_555
Na0 O89 2.742671 1_455
Na0 O85 2.855010 1_465
Na0 O75 2.958514 1_455
Na0 O76 2.981926 1_565
Na1 O79 2.392483 1_555
Na1 O82 2.677857 1_545
Na1 O81 2.728845 1_545
Na2 O110 2.500331 1_555
Na2 O100 2.827714 1_555
Na2 O96 2.846307 1_555
Na2 O112 2.896182 1_555
Na2 O108 2.897214 1_555
Na2 O98 2.918052 1_555
Na3 O101 2.390398 1_555
Na3 O97 2.729845 1_555
Na3 O99 2.779189 1_555
Na3 O109 2.947052 1_555
Na3 O111 3.031666 1_555
Na3 O113 3.089790 1_555
Na4 O116 2.729561 1_555
Na4 O114 2.746507 1_555
Na4 O118 2.846560 1_555
Na4 O106 2.894987 1_555
Na4 O102 2.905080 1_555
Na4 O104 2.922726 1_555
Na5 O119 2.387986 1_555
Na5 O115 2.818144 1_555
Na5 O117 2.841512 1_555
Na5 O105 2.928335 1_555
Na5 O103 2.951450 1_555
La0 O9 2.139767 1_555
La0 O83 2.391202 1_555
La0 O11 2.412370 1_565
La0 O6 2.419245 1_665
La0 O80 2.434253 1_655
La0 O78 2.535302 1_665
La1 O79 2.205227 1_555
La1 O10 2.348390 1_555
La1 O7 2.351021 1_555
La1 O8 2.440647 1_545
La1 O81 2.445888 1_545
La1 O82 2.486057 1_545
La2 O16 2.115446 1_555
La2 O13 2.379443 1_455
La2 O14 2.381876 1_565
La2 O89 2.476248 1_455
La2 O85 2.514954 1_465
La2 O86 2.542034 1_565
La3 O87 2.338806 1_555
La3 O15 2.366563 1_555
La3 O88 2.381563 1_545
La3 O17 2.382511 1_545
La3 O12 2.386145 1_545
La3 O84 2.409379 1_555
La4 O28 2.331939 1_555
La4 O26 2.347576 1_555
La4 O98 2.364122 1_555
La4 O96 2.370885 1_555
La4 O100 2.372582 1_555
La4 O24 2.391441 1_555
La5 O101 2.184212 1_555
La5 O25 2.364732 1_555
La5 O99 2.414406 1_555
La5 O97 2.423710 1_555
La5 O29 2.446781 1_555
La5 O27 2.509610 1_555
La6 O110 2.183403 1_555
La6 O112 2.372729 1_555
La6 O108 2.402820 1_555
La6 O40 2.418483 1_556
La6 O38 2.423329 1_556
La6 O36 2.505935 1_556
La7 O119 2.227478 1_555
La7 O47 2.343660 1_555
La7 O45 2.344599 1_555
La7 O43 2.440738 1_555
La7 O115 2.493644 1_555
La7 O117 2.507042 1_555
La8 O51 2.153184 1_554
La8 O49 2.384713 1_554
La8 O53 2.424848 1_554
La8 O121 2.449279 1_555
La8 O123 2.464953 1_555
La8 O125 2.519349 1_555
La9 O58 2.172108 1_555
La9 O130 2.362821 1_555
La9 O126 2.378750 1_555
La9 O128 2.463403 1_555
La9 O56 2.470994 1_555
La9 O54 2.483336 1_555
La10 O140 2.102764 1_555
La10 O138 2.362579 1_555
La10 O68 2.399597 1_555
La10 O142 2.416437 1_555
La10 O66 2.440804 1_555
La10 O70 2.524426 1_555
La11 O67 2.166257 1_555
La11 O139 2.404063 1_555
La11 O141 2.417503 1_555
La11 O143 2.417743 1_555
La11 O71 2.451583 1_555
La11 O69 2.490133 1_555
O0 S0 1.484612 1_555
O0 Y0 2.302746 1_545
O1 S1 1.488508 1_555
O1 Y1 2.308918 1_545
O2 S2 1.493879 1_555
O2 Y1 2.299777 1_555
O3 S3 1.480924 1_555
O3 Y0 2.295038 1_655
O4 S5 1.484727 1_555
O4 Y1 2.328791 1_545
O5 S4 1.481090 1_555
O5 Y0 2.380540 1_645
O6 S6 1.475076 1_555
O7 S7 1.482659 1_555
O8 S8 1.478081 1_555
O9 Si0 1.633003 1_555
O10 S9 1.478864 1_555
O11 S10 1.483207 1_555
O12 S9 1.482985 1_565
O13 S10 1.482006 1_565
O14 S6 1.476926 1_555
O15 S7 1.487111 1_555
O16 Si0 1.637603 1_455
O17 S8 1.484993 1_555
O18 S2 1.491102 1_555
O18 Y3 2.270338 1_565
O19 S3 1.481445 1_555
O19 Y2 2.333196 1_565
O20 S4 1.486028 1_455
O20 Y2 2.302461 1_455
O21 S5 1.487285 1_555
O21 Y3 2.278083 1_555
O22 S0 1.484806 1_565
O22 Y2 2.329945 1_465
O23 S1 1.484961 1_565
O23 Y3 2.281987 1_565
O24 S11 1.477726 1_555
O25 S12 1.475984 1_555
O26 S13 1.478722 1_555
O27 S14 1.470818 1_555
O28 S15 1.483530 1_555
O29 S16 1.470828 1_555
O30 S17 1.495305 1_555
O30 Y4 2.228958 1_555
O31 S18 1.494654 1_555
O31 Y5 2.251101 1_555
O32 S19 1.494513 1_555
O32 Y4 2.290262 1_555
O33 S20 1.497342 1_555
O33 Y5 2.203540 1_555
O34 S21 1.503873 1_555
O34 Y4 2.230794 1_555
O35 S22 1.488776 1_555
O35 Y5 2.238306 1_555
O36 S21 1.467838 1_555
O37 S22 1.484106 1_555
O37 Y6 2.303489 1_554
O38 S17 1.473173 1_555
O39 S18 1.483347 1_555
O39 Y6 2.273451 1_554
O40 S19 1.473594 1_555
O41 S20 1.487405 1_555
O41 Y6 2.273567 1_554
O42 S13 1.499540 1_555
O42 Y7 2.206403 1_555
O43 S14 1.480517 1_555
O44 S15 1.499870 1_555
O44 Y7 2.212092 1_555
O45 S16 1.484232 1_555
O46 S11 1.492313 1_555
O46 Y7 2.221955 1_555
O47 S12 1.491730 1_555
O48 S23 1.494937 1_555
O48 Y8 2.260845 1_556
O49 S24 1.479046 1_555
O50 S25 1.495809 1_555
O50 Y8 2.235226 1_556
O51 Si1 1.642817 1_555
O52 S26 1.496681 1_555
O52 Y8 2.246612 1_556
O53 S27 1.476055 1_555
O54 S28 1.470071 1_555
O55 S29 1.483963 1_555
O55 Y9 2.308158 1_555
O56 S30 1.471672 1_555
O57 S31 1.479562 1_555
O57 Y9 2.340914 1_555
O58 Si2 1.636056 1_555
O59 S32 1.476455 1_555
O59 Y9 2.323231 1_555
O60 Si2 1.643455 1_555
O60 Y10 2.050556 1_555
O61 S32 1.489890 1_555
O61 Y11 2.312805 1_555
O62 S28 1.479956 1_555
O62 Y10 2.362070 1_555
O63 S29 1.491617 1_555
O63 Y11 2.250321 1_555
O64 S30 1.482006 1_555
O64 Y10 2.379194 1_555
O65 S31 1.493552 1_555
O65 Y11 2.239511 1_555
O66 S25 1.473603 1_555
O67 Si1 1.629393 1_555
O68 S26 1.473293 1_555
O69 S27 1.472839 1_555
O70 S23 1.467025 1_555
O71 S24 1.475908 1_555
O72 Si2 1.652080 1_555
O72 Y0 2.081755 1_555
O73 S32 1.487852 1_555
O73 Y1 2.284151 1_555
O74 S28 1.492841 1_555
O74 Y1 2.218987 1_555
O75 S29 1.488611 1_555
O75 Y0 2.362708 1_655
O76 S30 1.492858 1_555
O76 Y0 2.307971 1_545
O77 S31 1.489618 1_555
O77 Y1 2.255920 1_545
O78 S25 1.460728 1_555
O79 Si1 1.648307 1_555
O80 S26 1.466655 1_555
O81 S27 1.488261 1_555
O82 S23 1.489876 1_555
O83 S24 1.467563 1_555
O84 S11 1.472537 1_555
O85 S12 1.479232 1_555
O86 S13 1.481445 1_555
O87 S14 1.484237 1_555
O88 S15 1.476273 1_555
O89 S16 1.483786 1_555
O90 S17 1.499440 1_555
O90 Y3 2.236023 1_565
O91 S18 1.485946 1_555
O91 Y2 2.281336 1_565
O92 S19 1.502287 1_555
O92 Y3 2.271707 1_555
O93 S20 1.489506 1_555
O93 Y2 2.249085 1_555
O94 S21 1.488853 1_555
O94 Y2 2.229681 1_455
O95 S22 1.503908 1_555
O95 Y3 2.310429 1_555
O96 S9 1.495505 1_555
O97 S10 1.491570 1_555
O98 S6 1.499672 1_555
O99 S7 1.481916 1_555
O100 S8 1.499758 1_555
O101 Si0 1.647553 1_555
O102 S2 1.508032 1_555
O102 Y4 2.356167 1_555
O103 S3 1.502625 1_555
O103 Y5 2.330828 1_555
O104 S5 1.498532 1_555
O104 Y4 2.395052 1_555
O105 S4 1.511292 1_555
O105 Y5 2.294567 1_555
O106 S0 1.511978 1_555
O106 Y4 2.299469 1_555
O107 S1 1.494664 1_555
O107 Y5 2.376614 1_555
O108 S23 1.488651 1_555
O109 S24 1.507383 1_555
O109 Y6 2.248708 1_555
O110 Si1 1.651710 1_555
O111 S25 1.507006 1_655
O111 Y6 2.229984 1_555
O112 S26 1.489613 1_545
O113 S27 1.502318 1_545
O113 Y6 2.260903 1_555
O114 S28 1.509571 1_545
O114 Y7 2.353524 1_555
O115 S29 1.482695 1_545
O116 S30 1.512791 1_555
O116 Y7 2.343946 1_555
O117 S31 1.480657 1_555
O118 S32 1.500759 1_555
O118 Y7 2.358513 1_555
O119 Si2 1.656822 1_655
O120 S21 1.482533 1_555
O120 Y8 2.312912 1_555
O121 S22 1.466160 1_555
O122 S18 1.478573 1_455
O122 Y8 2.306319 1_555
O123 S17 1.463954 1_555
O124 S19 1.476186 1_565
O124 Y8 2.345141 1_555
O125 S20 1.461979 1_565
O126 S13 1.468027 1_565
O127 S14 1.493759 1_565
O127 Y9 2.203977 1_555
O128 S15 1.463143 1_555
O129 S16 1.486780 1_555
O129 Y9 2.209640 1_555
O130 S12 1.474189 1_455
O131 S11 1.480847 1_555
O131 Y9 2.225470 1_555
O132 S0 1.475664 1_565
O132 Y10 2.343791 1_555
O133 S1 1.485262 1_565
O133 Y11 2.291783 1_555
O134 S2 1.468948 1_555
O134 Y10 2.437968 1_555
O135 S3 1.487590 1_555
O135 Y11 2.293993 1_555
O136 S4 1.478343 1_455
O136 Y10 2.329998 1_555
O137 S5 1.484367 1_555
O137 Y11 2.286185 1_555
O138 S6 1.466839 1_555
O139 S7 1.469189 1_555
O140 Si0 1.620023 1_455
O141 S8 1.467246 1_555
O142 S9 1.461525 1_565
O143 S10 1.470572 1_565
