# generated using pymatgen
data_UGeRh
_symmetry_space_group_name_H-M   'P 1'
_cell_length_a   4.43473276
_cell_length_b   6.86256246
_cell_length_c   7.47560782
_cell_angle_alpha   90.00000000
_cell_angle_beta   90.00000000
_cell_angle_gamma   90.00000000
_symmetry_Int_Tables_number   1
_chemical_formula_structural   UGeRh
_chemical_formula_sum   'U4 Ge4 Rh4'
_cell_volume   227.50988660
_cell_formula_units_Z   4
loop_
 _symmetry_equiv_pos_site_id
 _symmetry_equiv_pos_as_xyz
  1  'x, y, z'
loop_
 _atom_site_type_symbol
 _atom_site_label
 _atom_site_symmetry_multiplicity
 _atom_site_fract_x
 _atom_site_fract_y
 _atom_site_fract_z
 _atom_site_occupancy
  U  U0  1  0.25000000  0.48583390  0.70962235  1
  U  U1  1  0.75000000  0.51416610  0.29037765  1
  U  U2  1  0.25000000  0.98583390  0.79037765  1
  U  U3  1  0.75000000  0.01416610  0.20962235  1
  Ge  Ge0  1  0.25000000  0.31101772  0.08612252  1
  Ge  Ge1  1  0.75000000  0.68898228  0.91387748  1
  Ge  Ge2  1  0.25000000  0.81101772  0.41387748  1
  Ge  Ge3  1  0.75000000  0.18898228  0.58612252  1
  Rh  Rh0  1  0.75000000  0.78262237  0.58208533  1
  Rh  Rh1  1  0.25000000  0.21737763  0.41791467  1
  Rh  Rh2  1  0.75000000  0.28262237  0.91791467  1
  Rh  Rh3  1  0.25000000  0.71737763  0.08208533  1
loop_
_geom_bond_atom_site_label_1
_geom_bond_atom_site_label_2
_geom_bond_distance
_geom_bond_site_symmetry_2
Ge0 Rh2 2.556537 1_454
Ge0 Rh2 2.556537 1_554
Ge0 Rh1 2.562240 1_555
Ge0 Rh3 2.788834 1_555
Ge0 U1 3.031798 1_455
Ge0 U1 3.031798 1_555
Ge0 U0 3.059582 1_554
Ge0 U2 3.141333 1_544
Ge0 U3 3.149462 1_555
Ge0 U3 3.149462 1_455
Ge1 Rh3 2.556537 1_556
Ge1 Rh3 2.556537 1_656
Ge1 Rh0 2.562240 1_555
Ge1 Rh2 2.788834 1_555
Ge1 U0 3.031798 1_555
Ge1 U0 3.031798 1_655
Ge1 U1 3.059582 1_556
Ge1 U3 3.141333 1_566
Ge1 U2 3.149462 1_555
Ge1 U2 3.149462 1_655
Ge2 Rh0 2.556537 1_555
Ge2 Rh0 2.556537 1_455
Ge2 Rh3 2.562240 1_555
Ge2 Rh1 2.788834 1_565
Ge2 U3 3.031798 1_465
Ge2 U3 3.031798 1_565
Ge2 U2 3.059582 1_555
Ge2 U0 3.141333 1_555
Ge2 U1 3.149462 1_555
Ge2 U1 3.149462 1_455
Ge3 Rh1 2.556537 1_655
Ge3 Rh1 2.556537 1_555
Ge3 Rh2 2.562240 1_555
Ge3 Rh0 2.788834 1_545
Ge3 U2 3.031798 1_545
Ge3 U2 3.031798 1_645
Ge3 U3 3.059582 1_555
Ge3 U1 3.141333 1_555
Ge3 U0 3.149462 1_655
Ge3 U0 3.149462 1_555
Rh0 U1 2.854729 1_555
Rh0 U2 3.047308 1_655
Rh0 U2 3.047308 1_555
Rh0 U0 3.158161 1_555
Rh0 U0 3.158161 1_655
Rh0 U3 3.205882 1_565
Rh1 U0 2.854729 1_555
Rh1 U3 3.047308 1_455
Rh1 U3 3.047308 1_555
Rh1 U1 3.158161 1_455
Rh1 U1 3.158161 1_555
Rh1 U2 3.205882 1_545
Rh2 U3 2.854729 1_556
Rh2 U0 3.047308 1_555
Rh2 U0 3.047308 1_655
Rh2 U2 3.158161 1_545
Rh2 U2 3.158161 1_645
Rh2 U1 3.205882 1_556
Rh3 U2 2.854729 1_554
Rh3 U1 3.047308 1_555
Rh3 U1 3.047308 1_455
Rh3 U3 3.158161 1_465
Rh3 U3 3.158161 1_565
Rh3 U0 3.205882 1_554
