# generated using pymatgen
data_EuGe2
_symmetry_space_group_name_H-M   'P 1'
_cell_length_a   4.35825164
_cell_length_b   4.35825213
_cell_length_c   4.29062733
_cell_angle_alpha   90.00000000
_cell_angle_beta   90.00000000
_cell_angle_gamma   119.99999629
_symmetry_Int_Tables_number   1
_chemical_formula_structural   EuGe2
_chemical_formula_sum   'Eu1 Ge2'
_cell_volume   70.57909671
_cell_formula_units_Z   1
loop_
 _symmetry_equiv_pos_site_id
 _symmetry_equiv_pos_as_xyz
  1  'x, y, z'
loop_
 _atom_site_type_symbol
 _atom_site_label
 _atom_site_symmetry_multiplicity
 _atom_site_fract_x
 _atom_site_fract_y
 _atom_site_fract_z
 _atom_site_occupancy
  Eu  Eu0  1  0.00000000  -0.00000000  0.00000000  1
  Ge  Ge0  1  0.66666700  0.33333300  0.51573293  1
  Ge  Ge1  1  0.33333300  0.66666700  0.48426707  1
loop_
_geom_bond_atom_site_label_1
_geom_bond_atom_site_label_2
_geom_bond_distance
_geom_bond_site_symmetry_2
Eu0 Ge0 3.263240 1_454
Eu0 Ge1 3.263240 1_545
Eu0 Ge0 3.263243 1_554
Eu0 Ge1 3.263243 1_445
Eu0 Ge1 3.263243 1_555
Eu0 Ge0 3.263243 1_444
Eu0 Ge1 3.350821 1_544
Eu0 Ge0 3.350821 1_455
Eu0 Ge1 3.350824 1_444
Eu0 Ge0 3.350824 1_555
Eu0 Ge1 3.350824 1_554
Eu0 Ge0 3.350824 1_445
Ge0 Ge1 2.519855 1_655
Ge0 Ge1 2.519855 1_545
Ge0 Ge1 2.519862 1_555
