# generated using pymatgen
data_MgFe12(OF)12
_symmetry_space_group_name_H-M   'P 1'
_cell_length_a   9.74707179
_cell_length_b   14.81987411
_cell_length_c   3.10009400
_cell_angle_alpha   90.00000000
_cell_angle_beta   90.00000000
_cell_angle_gamma   87.48297524
_symmetry_Int_Tables_number   1
_chemical_formula_structural   MgFe12(OF)12
_chemical_formula_sum   'Mg1 Fe12 O12 F12'
_cell_volume   447.37770699
_cell_formula_units_Z   1
loop_
 _symmetry_equiv_pos_site_id
 _symmetry_equiv_pos_as_xyz
  1  'x, y, z'
loop_
 _atom_site_type_symbol
 _atom_site_label
 _atom_site_symmetry_multiplicity
 _atom_site_fract_x
 _atom_site_fract_y
 _atom_site_fract_z
 _atom_site_occupancy
  Mg  Mg0  1  0.99463000  0.82810200  0.50000000  1
  Fe  Fe0  1  0.02166000  0.03359800  0.00000000  1
  Fe  Fe1  1  0.02242700  0.32894900  0.00000000  1
  Fe  Fe2  1  0.98525200  0.64008600  0.00000000  1
  Fe  Fe3  1  0.25078600  0.17039000  0.50000000  1
  Fe  Fe4  1  0.24376900  0.47556000  0.50000000  1
  Fe  Fe5  1  0.28511000  0.92196500  0.50000000  1
  Fe  Fe6  1  0.49942900  0.34216700  0.00000000  1
  Fe  Fe7  1  0.54560400  0.01013600  0.00000000  1
  Fe  Fe8  1  0.49841800  0.64972900  0.00000000  1
  Fe  Fe9  1  0.75782300  0.16242500  0.50000000  1
  Fe  Fe10  1  0.71819700  0.48535100  0.50000000  1
  Fe  Fe11  1  0.67579700  0.82144000  0.50000000  1
  O  O0  1  0.10571500  0.26712700  0.50000000  1
  O  O1  1  0.08398400  0.94431700  0.50000000  1
  O  O2  1  0.18637000  0.10384900  0.00000000  1
  O  O3  1  0.14554800  0.43149200  0.00000000  1
  O  O4  1  0.39913000  0.92519700  0.00000000  1
  O  O5  1  0.40293400  0.39261600  0.50000000  1
  O  O6  1  0.63606100  0.94613300  0.50000000  1
  O  O7  1  0.58932600  0.58913700  0.50000000  1
  O  O8  1  0.66971900  0.11251600  0.00000000  1
  O  O9  1  0.65263500  0.42226500  0.00000000  1
  O  O10  1  0.61805700  0.75970000  0.00000000  1
  O  O11  1  0.92234000  0.08440900  0.50000000  1
  F  F0  1  0.10274000  0.58946900  0.50000000  1
  F  F1  1  0.08747000  0.76615000  0.00000000  1
  F  F2  1  0.35932500  0.23467600  0.00000000  1
  F  F3  1  0.33610900  0.55271700  0.00000000  1
  F  F4  1  0.43431900  0.08515700  0.50000000  1
  F  F5  1  0.38957600  0.70631100  0.50000000  1
  F  F6  1  0.59958200  0.26815200  0.50000000  1
  F  F7  1  0.84952400  0.24322700  0.00000000  1
  F  F8  1  0.85502300  0.86082500  0.00000000  1
  F  F9  1  0.83453300  0.54604400  0.00000000  1
  F  F10  1  0.90547000  0.39435800  0.50000000  1
  F  F11  1  0.87846700  0.71444000  0.50000000  1
loop_
_geom_bond_atom_site_label_1
_geom_bond_atom_site_label_2
_geom_bond_distance
_geom_bond_site_symmetry_2
Mg0 O1 1.963816 1_655
Fe0 O2 1.951450 1_555
Fe0 O11 1.960312 1_455
Fe0 O11 1.960312 1_454
Fe0 O1 2.109919 1_545
Fe0 O1 2.109919 1_544
Fe1 O0 1.958513 1_554
Fe1 O0 1.958513 1_555
Fe1 O3 1.977311 1_555
Fe3 O2 1.955427 1_555
Fe3 O2 1.955427 1_556
Fe3 O0 1.968931 1_555
Fe4 O5 1.936570 1_555
Fe4 O3 1.949521 1_555
Fe4 O3 1.949521 1_556
Fe5 O4 1.909120 1_555
Fe5 O4 1.909120 1_556
Fe5 O1 1.973783 1_555
Fe6 O5 1.945375 1_554
Fe6 O5 1.945375 1_555
Fe6 O9 1.948009 1_555
Fe7 O4 1.944401 1_545
Fe7 O8 1.981617 1_555
Fe7 O6 2.001563 1_544
Fe7 O6 2.001563 1_545
Fe8 O7 1.980972 1_554
Fe8 O7 1.980972 1_555
Fe8 O10 2.045212 1_555
Fe9 O8 1.934676 1_555
Fe9 O8 1.934676 1_556
Fe9 O11 1.935285 1_555
Fe10 O9 1.933282 1_556
Fe10 O9 1.933282 1_555
Fe10 O7 1.942645 1_555
Fe11 O6 1.871365 1_555
Fe11 O10 1.897841 1_555
Fe11 O10 1.897841 1_556
F0 Fe2 2.049708 1_456
F0 Fe2 2.049708 1_455
F0 Fe4 2.129672 1_555
F1 Mg0 1.997873 1_454
F1 Mg0 1.997873 1_455
F1 Fe2 2.155580 1_455
F2 Fe3 2.125573 1_555
F2 Fe3 2.125573 1_554
F2 Fe6 2.143270 1_555
F3 Fe4 2.147234 1_554
F3 Fe4 2.147234 1_555
F3 Fe8 2.183945 1_555
F4 Fe3 2.144121 1_555
F4 Fe7 2.170116 1_556
F4 Fe7 2.170116 1_555
F5 Fe8 2.037927 1_556
F5 Fe8 2.037927 1_555
F6 Fe6 2.112992 1_556
F6 Fe6 2.112992 1_555
F6 Fe9 2.149824 1_555
F7 Fe1 2.154569 1_655
F7 Fe9 2.174744 1_555
F7 Fe9 2.174744 1_554
F8 Mg0 2.105120 1_554
F8 Mg0 2.105120 1_555
F8 Fe11 2.425829 1_555
F8 Fe11 2.425829 1_554
F9 Fe2 2.068905 1_555
F9 Fe10 2.141745 1_555
F9 Fe10 2.141745 1_554
F10 Fe1 2.131855 1_655
F10 Fe1 2.131855 1_656
F10 Fe10 2.221310 1_555
F11 Mg0 2.070483 1_555
F11 Fe2 2.144640 1_556
F11 Fe2 2.144640 1_555
F11 Fe11 2.478256 1_555
