# generated using pymatgen
data_Dy3AlC
_symmetry_space_group_name_H-M   'P 1'
_cell_length_a   4.87033250
_cell_length_b   4.87033250
_cell_length_c   4.87033250
_cell_angle_alpha   90.00000000
_cell_angle_beta   90.00000000
_cell_angle_gamma   90.00000000
_symmetry_Int_Tables_number   1
_chemical_formula_structural   Dy3AlC
_chemical_formula_sum   'Dy3 Al1 C1'
_cell_volume   115.52496222
_cell_formula_units_Z   1
loop_
 _symmetry_equiv_pos_site_id
 _symmetry_equiv_pos_as_xyz
  1  'x, y, z'
loop_
 _atom_site_type_symbol
 _atom_site_label
 _atom_site_symmetry_multiplicity
 _atom_site_fract_x
 _atom_site_fract_y
 _atom_site_fract_z
 _atom_site_occupancy
  Dy  Dy0  1  0.00000000  0.50000000  0.50000000  1
  Dy  Dy1  1  0.50000000  0.00000000  0.50000000  1
  Dy  Dy2  1  0.50000000  0.50000000  0.00000000  1
  Al  Al0  1  -0.00000000  -0.00000000  -0.00000000  1
  C  C0  1  0.50000000  0.50000000  0.50000000  1
loop_
_geom_bond_atom_site_label_1
_geom_bond_atom_site_label_2
_geom_bond_distance
_geom_bond_site_symmetry_2
Al0 Dy1 3.443845 1_455
Al0 Dy2 3.443845 1_455
Al0 Dy1 3.443845 1_454
Al0 Dy2 3.443845 1_445
Al0 Dy1 3.443845 1_555
Al0 Dy0 3.443845 1_554
Al0 Dy2 3.443845 1_555
Al0 Dy1 3.443845 1_554
Al0 Dy2 3.443845 1_545
Al0 Dy0 3.443845 1_544
Al0 Dy0 3.443845 1_555
Al0 Dy0 3.443845 1_545
C0 Dy1 2.435166 1_555
C0 Dy1 2.435166 1_565
C0 Dy2 2.435166 1_556
C0 Dy2 2.435166 1_555
C0 Dy0 2.435166 1_655
C0 Dy0 2.435166 1_555
