# generated using pymatgen
data_Na3Al2In2P3(SO8)3
_symmetry_space_group_name_H-M   'P 1'
_cell_length_a   8.67678723
_cell_length_b   8.67053866
_cell_length_c   22.39368790
_cell_angle_alpha   88.85263257
_cell_angle_beta   91.04605146
_cell_angle_gamma   120.03065814
_symmetry_Int_Tables_number   1
_chemical_formula_structural   Na3Al2In2P3(SO8)3
_chemical_formula_sum   'Na9 Al6 In6 P9 S9 O72'
_cell_volume   1458.21073269
_cell_formula_units_Z   3
loop_
 _symmetry_equiv_pos_site_id
 _symmetry_equiv_pos_as_xyz
  1  'x, y, z'
loop_
 _atom_site_type_symbol
 _atom_site_label
 _atom_site_symmetry_multiplicity
 _atom_site_fract_x
 _atom_site_fract_y
 _atom_site_fract_z
 _atom_site_occupancy
  Na  Na0  1  0.36372639  0.36323763  0.25165633  1
  Na  Na1  1  0.68521616  0.01429600  0.91878336  1
  Na  Na2  1  0.97882879  0.30854907  0.41602560  1
  Na  Na3  1  0.00947723  0.99165085  0.49406688  1
  Na  Na4  1  0.00715074  0.98559235  0.00410485  1
  Na  Na5  1  0.65507301  0.33938014  0.83591604  1
  Na  Na6  1  0.66697341  0.33384153  0.33198902  1
  Na  Na7  1  0.33347201  0.69471155  0.17001181  1
  Na  Na8  1  0.33126014  0.66649286  0.66542311  1
  Al  Al0  1  0.01801833  0.00642846  0.34488276  1
  Al  Al1  1  0.00190839  0.00954071  0.15195436  1
  Al  Al2  1  0.66894064  0.31159482  0.18731251  1
  Al  Al3  1  0.66444630  0.32773867  0.98791994  1
  Al  Al4  1  0.66887726  0.34781051  0.47709717  1
  Al  Al5  1  0.30853016  0.65915296  0.31554812  1
  In  In0  1  0.00069927  0.99452046  0.85152924  1
  In  In1  1  0.99252660  0.00863259  0.64283014  1
  In  In2  1  0.67138099  0.32559531  0.68292103  1
  In  In3  1  0.34084679  0.67638210  0.02507005  1
  In  In4  1  0.32079515  0.66136546  0.50979341  1
  In  In5  1  0.34783939  0.67682002  0.82166516  1
  P  P0  1  0.28671935  0.99433247  0.24781288  1
  P  P1  1  0.99800221  0.28779326  0.25085264  1
  P  P2  1  0.69678751  0.99696526  0.75189236  1
  P  P3  1  0.95514806  0.33490652  0.57547147  1
  P  P4  1  0.68387213  0.05277135  0.08754293  1
  P  P5  1  0.63232652  0.65069170  0.92274936  1
  P  P6  1  0.34040814  0.97857855  0.92269610  1
  P  P7  1  0.33576009  0.36852877  0.41046648  1
  P  P8  1  0.03093086  0.67387583  0.41174371  1
  S  S0  1  0.71431335  0.71719324  0.24854774  1
  S  S1  1  0.30134915  0.30402040  0.74861138  1
  S  S2  1  0.00314628  0.70117213  0.74824360  1
  S  S3  1  0.37746183  0.04434384  0.57728716  1
  S  S4  1  0.66625707  0.62220338  0.57825956  1
  S  S5  1  0.93974488  0.61572325  0.08916665  1
  S  S6  1  0.37841796  0.32030840  0.08923016  1
  S  S7  1  0.02979257  0.37405908  0.92150167  1
  S  S8  1  0.62759556  0.95872288  0.41179798  1
  O  O0  1  0.21014791  0.04376681  0.30102278  1
  O  O1  1  0.82660440  0.80301663  0.30142234  1
  O  O2  1  0.96828972  0.17258087  0.30772668  1
  O  O3  1  0.22086808  0.19662888  0.80299291  1
  O  O4  1  0.99315907  0.78525077  0.80333484  1
  O  O5  1  0.79174576  0.00894219  0.81224902  1
  O  O6  1  0.79303973  0.98528508  0.69709793  1
  O  O7  1  0.20429968  0.21782194  0.69304888  1
  O  O8  1  0.02428242  0.80774298  0.69335445  1
  O  O9  1  0.79631184  0.82461769  0.19371413  1
  O  O10  1  0.04153457  0.20400289  0.19788418  1
  O  O11  1  0.16604657  0.96154120  0.19248733  1
  O  O12  1  0.87852750  0.34858016  0.63471184  1
  O  O13  1  0.45986816  0.11488810  0.63607571  1
  O  O14  1  0.64456187  0.52806648  0.63581243  1
  O  O15  1  0.84940031  0.51060211  0.14330755  1
  O  O16  1  0.65816686  0.14597669  0.14038889  1
  O  O17  1  0.48716923  0.34518918  0.14411086  1
  O  O18  1  0.46464477  0.30430153  0.03536528  1
  O  O19  1  0.83766420  0.52939258  0.03414986  1
  O  O20  1  0.70099307  0.15717806  0.02847417  1
  O  O21  1  0.47825549  0.15925615  0.52607138  1
  O  O22  1  0.66958757  0.52154464  0.52641466  1
  O  O23  1  0.84512133  0.33082396  0.51943781  1
  O  O24  1  0.54542740  0.69795614  0.97295054  1
  O  O25  1  0.14305255  0.45361654  0.97419311  1
  O  O26  1  0.29112158  0.85197395  0.97663862  1
  O  O27  1  0.56429598  0.85869962  0.46887784  1
  O  O28  1  0.27963318  0.43404067  0.46518360  1
  O  O29  1  0.14196963  0.72704808  0.46969889  1
  O  O30  1  0.12425068  0.62479626  0.36306852  1
  O  O31  1  0.50501462  0.86455807  0.36149656  1
  O  O32  1  0.36766056  0.49470882  0.35569472  1
  O  O33  1  0.10477241  0.47582002  0.86542943  1
  O  O34  1  0.38242467  0.90434388  0.86663889  1
  O  O35  1  0.52377079  0.60904436  0.86378016  1
  O  O36  1  0.00253067  0.83007791  0.39567321  1
  O  O37  1  0.80974849  0.98671751  0.40357451  1
  O  O38  1  0.17008377  0.18045332  0.40028664  1
  O  O39  1  0.00018199  0.18976177  0.91715464  1
  O  O40  1  0.18799889  0.01807998  0.91441652  1
  O  O41  1  0.81732295  0.82226659  0.91691907  1
  O  O42  1  0.96343160  0.15985120  0.57354631  1
  O  O43  1  0.19719284  0.02611372  0.57638079  1
  O  O44  1  0.83841783  0.79358125  0.57799054  1
  O  O45  1  0.95913541  0.79556732  0.09184998  1
  O  O46  1  0.85522475  0.03855687  0.09542451  1
  O  O47  1  0.20072080  0.15557846  0.09376523  1
  O  O48  1  0.67758952  0.16443598  0.75108349  1
  O  O49  1  0.48471826  0.33319194  0.74658338  1
  O  O50  1  0.83600537  0.52759631  0.74653519  1
  O  O51  1  0.68913856  0.53289594  0.24461322  1
  O  O52  1  0.83337071  0.31048876  0.24185189  1
  O  O53  1  0.47688705  0.16458792  0.23924383  1
  O  O54  1  0.65502708  0.49039709  0.93664086  1
  O  O55  1  0.85183867  0.35718610  0.92813829  1
  O  O56  1  0.51530469  0.15608029  0.93349290  1
  O  O57  1  0.64561005  0.13983469  0.41682968  1
  O  O58  1  0.50316007  0.35280241  0.42264880  1
  O  O59  1  0.84733041  0.49877664  0.42086022  1
  O  O60  1  0.35365515  0.47817802  0.08583249  1
  O  O61  1  0.11853698  0.62940483  0.08760795  1
  O  O62  1  0.51616445  0.86384185  0.08712785  1
  O  O63  1  0.36471875  0.86825978  0.57421704  1
  O  O64  1  0.51499727  0.65466246  0.57374215  1
  O  O65  1  0.14483475  0.49794509  0.57547717  1
  O  O66  1  0.30633357  0.82863700  0.26077325  1
  O  O67  1  0.53314788  0.69578307  0.25406719  1
  O  O68  1  0.16896601  0.47613033  0.25939921  1
  O  O69  1  0.30644118  0.47614646  0.75199595  1
  O  O70  1  0.15724727  0.67265860  0.75196577  1
  O  O71  1  0.51124747  0.82897820  0.75094278  1
loop_
_geom_bond_atom_site_label_1
_geom_bond_atom_site_label_2
_geom_bond_distance
_geom_bond_site_symmetry_2
Na0 O68 2.348851 1_555
Na0 O53 2.393716 1_555
Na0 O51 2.451685 1_555
Na0 O67 2.497679 1_555
Na0 O32 2.606355 1_555
Na0 O0 2.628158 1_555
Na0 O17 2.692371 1_555
Na0 O10 2.692930 1_555
Na1 O39 2.371586 1_655
Na1 O56 2.375153 1_555
Na1 O41 2.450042 1_545
Na1 O34 2.569135 1_545
Na1 O5 2.583795 1_555
Na1 O55 2.585476 1_555
Na1 O24 2.656362 1_545
Na1 O20 2.743571 1_556
Na2 O59 2.435019 1_555
Na2 O37 2.436249 1_545
Na2 O38 2.448165 1_655
Na2 O57 2.503422 1_555
Na2 O28 2.511663 1_655
Na2 O30 2.641697 1_655
Na2 O23 2.662024 1_555
Na2 O2 2.697844 1_555
Na3 O43 2.359081 1_565
Na3 O44 2.470945 1_455
Na3 O42 2.483437 1_465
Na3 O38 2.591903 1_565
Na3 O36 2.618288 1_555
Na3 O37 2.629204 1_455
Na4 O45 2.441796 1_455
Na4 O41 2.487749 1_454
Na4 O40 2.495105 1_564
Na4 O47 2.557779 1_565
Na4 O46 2.621555 1_465
Na4 O39 2.625568 1_564
Na5 O49 2.450848 1_555
Na5 O48 2.524584 1_555
Na5 O50 2.560011 1_555
Na5 O56 2.607643 1_555
Na5 O55 2.612264 1_555
Na5 O54 2.630797 1_555
Na6 O57 2.458931 1_555
Na6 O59 2.492998 1_555
Na6 O51 2.527954 1_555
Na6 O58 2.553760 1_555
Na6 O52 2.572019 1_555
Na6 O53 2.600343 1_555
Na7 O62 2.404159 1_555
Na7 O66 2.433211 1_555
Na7 O61 2.462333 1_555
Na7 O67 2.531878 1_555
Na7 O68 2.623130 1_555
Na7 O60 2.755352 1_555
Na8 O71 2.426518 1_555
Na8 O69 2.461722 1_555
Na8 O70 2.496044 1_555
Na8 O65 2.538135 1_555
Na8 O63 2.585835 1_555
Na8 O64 2.656857 1_555
Al0 O0 1.831792 1_555
Al0 O36 1.838471 1_545
Al0 O2 1.874832 1_455
Al0 O38 1.891948 1_555
Al0 O1 1.973326 1_445
Al0 O37 2.188815 1_445
Al1 O10 1.869570 1_555
Al1 O46 1.880059 1_455
Al1 O11 1.885832 1_545
Al1 O9 1.940521 1_445
Al1 O47 2.026522 1_555
Al1 O45 2.187220 1_445
Al2 O16 1.759965 1_555
Al2 O52 1.864646 1_555
Al2 O53 1.907717 1_555
Al2 O15 1.919407 1_555
Al2 O17 1.975136 1_555
Al2 O51 2.261161 1_555
Al3 O54 1.833431 1_555
Al3 O56 1.860810 1_555
Al3 O20 1.875475 1_556
Al3 O19 1.942456 1_556
Al3 O18 1.970184 1_556
Al3 O55 2.037500 1_555
Al4 O23 1.850989 1_555
Al4 O22 1.883074 1_555
Al4 O58 1.884746 1_555
Al4 O59 1.916610 1_555
Al4 O21 1.974617 1_555
Al4 O57 2.199339 1_555
Al5 O30 1.830437 1_555
Al5 O66 1.902476 1_555
Al5 O68 1.914827 1_555
Al5 O32 1.941258 1_555
Al5 O31 2.026664 1_555
Al5 O67 2.292541 1_555
In0 O5 2.059321 1_465
In0 O40 2.064410 1_565
In0 O4 2.102006 1_455
In0 O41 2.127304 1_455
In0 O3 2.133177 1_565
In0 O39 2.265599 1_565
In1 O6 2.056718 1_545
In1 O42 2.103709 1_555
In1 O7 2.145052 1_655
In1 O8 2.186335 1_645
In1 O44 2.216984 1_545
In1 O43 2.282305 1_655
In2 O12 2.034561 1_555
In2 O48 2.066955 1_555
In2 O13 2.111115 1_555
In2 O14 2.138856 1_555
In2 O50 2.158431 1_555
In2 O49 2.203368 1_555
In3 O26 2.062675 1_554
In3 O24 2.069483 1_554
In3 O62 2.103717 1_555
In3 O25 2.161698 1_554
In3 O60 2.215673 1_555
In3 O61 2.266570 1_555
In4 O65 2.082183 1_555
In4 O29 2.085950 1_555
In4 O28 2.090857 1_555
In4 O27 2.149538 1_555
In4 O63 2.200878 1_555
In4 O64 2.213621 1_555
In5 O71 2.094058 1_555
In5 O35 2.094799 1_555
In5 O34 2.114734 1_555
In5 O33 2.184922 1_555
In5 O70 2.240665 1_555
In5 O69 2.247931 1_555
O0 P0 1.542518 1_545
O1 S0 1.473941 1_555
O2 P1 1.545878 1_555
O3 S1 1.473947 1_555
O4 S2 1.471095 1_655
O5 P2 1.547841 1_545
O6 P2 1.529853 1_555
O7 S1 1.478135 1_555
O8 S2 1.480353 1_555
O9 S0 1.484707 1_555
O10 P1 1.550162 1_455
O11 P0 1.543018 1_555
O12 P3 1.527524 1_555
O13 S3 1.476028 1_555
O14 S4 1.475007 1_555
O15 S5 1.480032 1_555
O16 P4 1.526978 1_555
O17 S6 1.487232 1_555
O18 S6 1.475673 1_555
O19 S5 1.481956 1_555
O20 P4 1.554315 1_555
O21 S3 1.480426 1_555
O22 S4 1.475643 1_555
O23 P3 1.552869 1_555
O24 P5 1.535888 1_555
O25 S7 1.464796 1_555
O26 P6 1.530676 1_555
O27 S8 1.480584 1_555
O28 P7 1.545242 1_555
O29 P8 1.535864 1_555
O30 P8 1.555815 1_555
O31 S8 1.480072 1_555
O32 P7 1.559972 1_555
O33 S7 1.479644 1_555
O34 P6 1.551448 1_555
O35 P5 1.547468 1_555
O36 P8 1.528336 1_555
O37 S8 1.488511 1_555
O38 P7 1.560209 1_555
O39 S7 1.491085 1_555
O40 P6 1.530469 1_545
O41 P5 1.554494 1_555
O42 P3 1.556516 1_555
O43 S3 1.491134 1_555
O44 S4 1.489198 1_555
O45 S5 1.484675 1_555
O46 P4 1.558797 1_555
O47 S6 1.491067 1_555
O48 P2 1.541914 1_545
O49 S1 1.482183 1_555
O50 S2 1.478287 1_655
O51 S0 1.504827 1_555
O52 P1 1.545685 1_555
O53 P0 1.581394 1_545
O54 P5 1.523706 1_555
O55 S7 1.486285 1_655
O56 P6 1.547194 1_545
O57 S8 1.504608 1_545
O58 P7 1.544357 1_555
O59 P8 1.569425 1_655
O60 S6 1.488361 1_555
O61 S5 1.496516 1_455
O62 P4 1.554091 1_565
O63 S3 1.477450 1_565
O64 S4 1.475022 1_555
O65 P3 1.542217 1_455
O66 P0 1.550305 1_555
O67 S0 1.494928 1_555
O68 P1 1.575215 1_455
O69 S1 1.474259 1_555
O70 S2 1.477122 1_555
O71 P2 1.538394 1_555
