# generated using pymatgen
data_MgCd2(CoO3)2
_symmetry_space_group_name_H-M   'P 1'
_cell_length_a   6.21992716
_cell_length_b   6.22011824
_cell_length_c   6.21995203
_cell_angle_alpha   48.15589182
_cell_angle_beta   48.15630820
_cell_angle_gamma   48.15577986
_symmetry_Int_Tables_number   1
_chemical_formula_structural   MgCd2(CoO3)2
_chemical_formula_sum   'Mg1 Cd2 Co2 O6'
_cell_volume   122.39068996
_cell_formula_units_Z   1
loop_
 _symmetry_equiv_pos_site_id
 _symmetry_equiv_pos_as_xyz
  1  'x, y, z'
loop_
 _atom_site_type_symbol
 _atom_site_label
 _atom_site_symmetry_multiplicity
 _atom_site_fract_x
 _atom_site_fract_y
 _atom_site_fract_z
 _atom_site_occupancy
  Mg  Mg0  1  0.50000000  0.50000000  0.50000000  1
  Cd  Cd0  1  0.33302600  0.33301900  0.33302100  1
  Cd  Cd1  1  0.66697400  0.66698100  0.66697900  1
  Co  Co0  1  0.16104800  0.16104300  0.16104500  1
  Co  Co1  1  0.83895200  0.83895700  0.83895500  1
  O  O0  1  0.08091300  0.77999400  0.44538000  1
  O  O1  1  0.55462500  0.91907400  0.22002100  1
  O  O2  1  0.22002300  0.55460400  0.91908800  1
  O  O3  1  0.77997700  0.44539600  0.08091200  1
  O  O4  1  0.44537500  0.08092600  0.77997900  1
  O  O5  1  0.91908700  0.22000700  0.55462000  1
loop_
_geom_bond_atom_site_label_1
_geom_bond_atom_site_label_2
_geom_bond_distance
_geom_bond_site_symmetry_2
Mg0 O0 2.068443 1_555
Mg0 O5 2.068444 1_555
Mg0 O2 2.068451 1_555
Mg0 O3 2.068451 1_555
Mg0 O1 2.068478 1_555
Mg0 O4 2.068478 1_555
Cd0 O2 2.325899 1_554
Cd0 O5 2.325970 1_455
Cd0 O1 2.326009 1_545
Cd0 O4 2.447372 1_555
Cd0 O3 2.447441 1_555
Cd0 O0 2.447555 1_555
Cd1 O3 2.325899 1_556
Cd1 O0 2.325975 1_655
Cd1 O4 2.326009 1_565
Cd1 O1 2.447372 1_555
Cd1 O2 2.447441 1_555
Cd1 O5 2.447549 1_555
Co0 O0 1.949694 1_545
Co0 O4 1.949695 1_554
Co0 O3 1.949718 1_455
Co0 O5 1.984501 1_455
Co0 O1 1.984503 1_545
Co0 O2 1.984508 1_554
Co1 O1 1.949695 1_556
Co1 O5 1.949699 1_565
Co1 O2 1.949718 1_655
Co1 O0 1.984498 1_655
Co1 O4 1.984503 1_565
Co1 O3 1.984508 1_556
