# generated using pymatgen
data_Mg(NiO2)2
_symmetry_space_group_name_H-M   'P 1'
_cell_length_a   3.07268650
_cell_length_b   9.05886033
_cell_length_c   3.07881660
_cell_angle_alpha   89.22002504
_cell_angle_beta   120.57168551
_cell_angle_gamma   91.13251931
_symmetry_Int_Tables_number   1
_chemical_formula_structural   Mg(NiO2)2
_chemical_formula_sum   'Mg1 Ni2 O4'
_cell_volume   73.77121553
_cell_formula_units_Z   1
loop_
 _symmetry_equiv_pos_site_id
 _symmetry_equiv_pos_as_xyz
  1  'x, y, z'
loop_
 _atom_site_type_symbol
 _atom_site_label
 _atom_site_symmetry_multiplicity
 _atom_site_fract_x
 _atom_site_fract_y
 _atom_site_fract_z
 _atom_site_occupancy
  Mg  Mg0  1  0.33765292  0.20800405  0.66520880  1
  Ni  Ni0  1  0.00318360  0.94041993  0.99893338  1
  Ni  Ni1  1  0.99933154  0.53241618  0.00042108  1
  O  O0  1  0.66329532  0.11572813  0.33448279  1
  O  O1  1  0.66684863  0.63273606  0.33527800  1
  O  O2  1  0.33306935  0.42260235  0.66453155  1
  O  O3  1  0.32995265  0.85523631  0.66761141  1
loop_
_geom_bond_atom_site_label_1
_geom_bond_atom_site_label_2
_geom_bond_distance
_geom_bond_site_symmetry_2
Mg0 O2 1.944310 1_555
Mg0 O0 1.956889 1_555
Mg0 O0 1.958250 1_556
Mg0 O0 1.958975 1_455
Ni0 O3 1.930457 1_556
Ni0 O3 1.930558 1_455
Ni0 O3 1.933415 1_555
Ni0 O0 2.342899 1_566
Ni0 O0 2.366755 1_465
Ni0 O0 2.426476 1_466
Ni1 O1 1.973949 1_655
Ni1 O1 1.980190 1_554
Ni1 O2 2.010983 1_554
Ni1 O1 2.016452 1_555
Ni1 O2 2.018403 1_655
Ni1 O2 2.063429 1_654
