# generated using pymatgen
data_SrIn4Pt
_symmetry_space_group_name_H-M   'P 1'
_cell_length_a   4.58370141
_cell_length_b   7.53504621
_cell_length_c   8.88039610
_cell_angle_alpha   90.00000000
_cell_angle_beta   104.95614969
_cell_angle_gamma   90.00000000
_symmetry_Int_Tables_number   1
_chemical_formula_structural   SrIn4Pt
_chemical_formula_sum   'Sr2 In8 Pt2'
_cell_volume   296.32430828
_cell_formula_units_Z   2
loop_
 _symmetry_equiv_pos_site_id
 _symmetry_equiv_pos_as_xyz
  1  'x, y, z'
loop_
 _atom_site_type_symbol
 _atom_site_label
 _atom_site_symmetry_multiplicity
 _atom_site_fract_x
 _atom_site_fract_y
 _atom_site_fract_z
 _atom_site_occupancy
  Sr  Sr0  1  0.87416345  0.25000000  0.74832690  1
  Sr  Sr1  1  0.12583655  0.75000000  0.25167310  1
  In  In0  1  0.68448484  0.04961914  0.36896868  1
  In  In1  1  0.50000000  0.50000000  0.00000000  1
  In  In2  1  0.31551516  0.54961914  0.63103132  1
  In  In3  1  0.31551516  0.95038086  0.63103132  1
  In  In4  1  0.68448484  0.45038086  0.36896868  1
  In  In5  1  0.93213250  0.75000000  0.86426401  1
  In  In6  1  0.06786750  0.25000000  0.13573599  1
  In  In7  1  0.50000000  0.00000000  0.00000000  1
  Pt  Pt0  1  0.22444201  0.25000000  0.44888603  1
  Pt  Pt1  1  0.77555799  0.75000000  0.55111397  1
loop_
_geom_bond_atom_site_label_1
_geom_bond_atom_site_label_2
_geom_bond_distance
_geom_bond_site_symmetry_2
In0 Pt1 2.745737 1_545
In0 Pt0 2.828853 1_655
In0 Pt0 2.828864 1_555
In0 In7 3.187592 1_555
In0 Sr1 3.370794 1_645
In0 Sr1 3.370798 1_545
In0 Sr0 3.587894 1_555
In1 In5 3.187054 1_454
In1 In6 3.187054 1_655
In1 In6 3.187058 1_555
In1 In5 3.187058 1_554
In1 In4 3.187592 1_555
In1 In2 3.187592 1_554
In1 Sr0 3.669261 1_554
In1 Sr1 3.669261 1_555
In1 Sr1 3.669261 1_655
In1 Sr0 3.669261 1_454
In2 Pt0 2.745737 1_555
In2 Pt1 2.828853 1_455
In2 Pt1 2.828864 1_555
In2 Sr0 3.370794 1_455
In2 Sr0 3.370798 1_555
In2 Sr1 3.587894 1_555
In3 Pt0 2.745737 1_565
In3 Pt1 2.828853 1_455
In3 Pt1 2.828864 1_555
In3 In7 3.187592 1_566
In3 Sr0 3.370794 1_465
In3 Sr0 3.370798 1_565
In3 Sr1 3.587894 1_555
In4 Pt1 2.745737 1_555
In4 Pt0 2.828853 1_655
In4 Pt0 2.828864 1_555
In4 Sr1 3.370794 1_655
In4 Sr1 3.370798 1_555
In4 Sr0 3.587894 1_555
In5 Pt1 2.686690 1_555
In5 In7 3.187054 1_666
In5 In7 3.187058 1_566
In5 Sr1 3.323800 1_656
In5 Sr0 3.896619 1_555
In5 Sr0 3.896619 1_565
In6 Pt0 2.686690 1_555
In6 In7 3.187054 1_455
In6 In7 3.187058 1_555
In6 Sr0 3.323800 1_454
In6 Sr1 3.896619 1_555
In6 Sr1 3.896619 1_545
In7 Sr0 3.669261 1_554
In7 Sr1 3.669261 1_545
In7 Sr0 3.669261 1_454
In7 Sr1 3.669261 1_645
Pt0 Sr0 3.442773 1_455
Pt0 Sr0 3.442779 1_555
Pt1 Sr1 3.442773 1_655
Pt1 Sr1 3.442779 1_555
