# generated using pymatgen
data_TlTe
_symmetry_space_group_name_H-M   'P 1'
_cell_length_a   6.19209494
_cell_length_b   9.81958830
_cell_length_c   9.81958717
_cell_angle_alpha   84.29482043
_cell_angle_beta   71.62149219
_cell_angle_gamma   71.62149705
_symmetry_Int_Tables_number   1
_chemical_formula_structural   TlTe
_chemical_formula_sum   'Tl8 Te8'
_cell_volume   537.71404522
_cell_formula_units_Z   8
loop_
 _symmetry_equiv_pos_site_id
 _symmetry_equiv_pos_as_xyz
  1  'x, y, z'
loop_
 _atom_site_type_symbol
 _atom_site_label
 _atom_site_symmetry_multiplicity
 _atom_site_fract_x
 _atom_site_fract_y
 _atom_site_fract_z
 _atom_site_occupancy
  Tl  Tl0  1  0.57948419  0.69113554  0.14989609  1
  Tl  Tl1  1  0.42051581  0.30886446  0.85010391  1
  Tl  Tl2  1  0.72938028  0.85010391  0.69113554  1
  Tl  Tl3  1  0.27061972  0.14989609  0.30886446  1
  Tl  Tl4  1  0.92051581  0.85010391  0.30886446  1
  Tl  Tl5  1  0.22938028  0.69113554  0.85010391  1
  Tl  Tl6  1  0.77061972  0.30886446  0.14989609  1
  Tl  Tl7  1  0.07948419  0.14989609  0.69113554  1
  Te  Te0  1  0.75000000  -0.00000000  0.00000000  1
  Te  Te1  1  0.25000000  -0.00000000  0.00000000  1
  Te  Te2  1  0.50000000  0.50000000  0.50000000  1
  Te  Te3  1  0.00000000  0.50000000  0.50000000  1
  Te  Te4  1  0.83765330  0.50000000  0.82469239  1
  Te  Te5  1  0.66234670  0.17530761  0.50000000  1
  Te  Te6  1  0.33765330  0.82469239  0.50000000  1
  Te  Te7  1  0.16234670  0.50000000  0.17530761  1
loop_
_geom_bond_atom_site_label_1
_geom_bond_atom_site_label_2
_geom_bond_distance
_geom_bond_site_symmetry_2
Tl0 Tl6 3.562283 1_555
Tl1 Tl5 3.562283 1_555
Tl2 Tl4 3.562282 1_555
Tl3 Tl7 3.562282 1_555
Te0 Te1 3.096047 1_555
Te0 Te1 3.096047 1_655
Te0 Tl7 3.554114 1_654
Te0 Tl3 3.554114 1_555
Te0 Tl4 3.554114 1_545
Te0 Tl2 3.554114 1_544
Te0 Tl0 3.554114 1_545
Te0 Tl5 3.554114 1_644
Te0 Tl6 3.554114 1_555
Te0 Tl1 3.554114 1_554
Te1 Tl4 3.554114 1_445
Te1 Tl2 3.554114 1_544
Te1 Tl7 3.554114 1_554
Te1 Tl3 3.554114 1_555
Te1 Tl1 3.554114 1_554
Te1 Tl6 3.554114 1_455
Te1 Tl5 3.554114 1_544
Te1 Tl0 3.554114 1_545
Te2 Te5 3.025722 1_555
Te2 Te6 3.025722 1_555
Te2 Te3 3.096047 1_655
Te2 Te3 3.096047 1_555
Te3 Te7 3.025722 1_555
Te3 Te4 3.025722 1_455
Te4 Tl2 3.491855 1_555
Te4 Tl7 3.491855 1_655
Te4 Tl6 3.515155 1_556
Te4 Tl0 3.515155 1_556
Te4 Tl5 3.579669 1_555
Te4 Tl1 3.579669 1_555
Te4 Tl1 3.579674 1_655
Te4 Tl5 3.579674 1_655
Te5 Tl6 3.491855 1_555
Te5 Tl1 3.491855 1_555
Te5 Tl2 3.515155 1_545
Te5 Tl4 3.515155 1_545
Te5 Tl3 3.579669 1_655
Te5 Tl7 3.579669 1_655
Te5 Tl7 3.579674 1_555
Te5 Tl3 3.579674 1_555
Te6 Tl5 3.491855 1_555
Te6 Tl0 3.491855 1_555
Te6 Tl3 3.515155 1_565
Te6 Tl7 3.515155 1_565
Te6 Tl2 3.579669 1_455
Te6 Tl4 3.579669 1_455
Te6 Tl4 3.579674 1_555
Te6 Tl2 3.579674 1_555
Te7 Tl3 3.491855 1_555
Te7 Tl4 3.491855 1_455
Te7 Tl5 3.515155 1_554
Te7 Tl1 3.515155 1_554
Te7 Tl6 3.579669 1_555
Te7 Tl0 3.579669 1_555
Te7 Tl0 3.579674 1_455
Te7 Tl6 3.579674 1_455
