# generated using pymatgen
data_MgMn4Zn2O8
_symmetry_space_group_name_H-M   'P 1'
_cell_length_a   6.02489844
_cell_length_b   6.41133683
_cell_length_c   6.15876859
_cell_angle_alpha   60.79815162
_cell_angle_beta   59.20445620
_cell_angle_gamma   62.90280347
_symmetry_Int_Tables_number   1
_chemical_formula_structural   MgMn4Zn2O8
_chemical_formula_sum   'Mg1 Mn4 Zn2 O8'
_cell_volume   171.53822270
_cell_formula_units_Z   1
loop_
 _symmetry_equiv_pos_site_id
 _symmetry_equiv_pos_as_xyz
  1  'x, y, z'
loop_
 _atom_site_type_symbol
 _atom_site_label
 _atom_site_symmetry_multiplicity
 _atom_site_fract_x
 _atom_site_fract_y
 _atom_site_fract_z
 _atom_site_occupancy
  Mg  Mg0  1  0.12168200  0.63137700  0.11530400  1
  Mn  Mn0  1  0.29955100  0.15938500  0.27584100  1
  Mn  Mn1  1  0.62721000  0.12351600  0.62364100  1
  Mn  Mn2  1  0.62579200  0.62254800  0.12192500  1
  Mn  Mn3  1  0.62742100  0.62029200  0.61981100  1
  Zn  Zn0  1  0.96018400  0.08868400  0.97770100  1
  Zn  Zn1  1  0.12440400  0.62151100  0.62234200  1
  O  O0  1  0.38024300  0.40711800  0.34677400  1
  O  O1  1  0.38243800  0.40358000  0.86220000  1
  O  O2  1  0.42141700  0.79162000  0.38803100  1
  O  O3  1  0.89485700  0.37341200  0.36281600  1
  O  O4  1  0.34931100  0.88661600  0.87431200  1
  O  O5  1  0.83153000  0.44435900  0.85845800  1
  O  O6  1  0.86419300  0.85133300  0.38036000  1
  O  O7  1  0.86477000  0.84964700  0.89340300  1
loop_
_geom_bond_atom_site_label_1
_geom_bond_atom_site_label_2
_geom_bond_distance
_geom_bond_site_symmetry_2
Mg0 O4 2.086125 1_554
Mg0 O3 2.095844 1_455
Mg0 O7 2.132722 1_454
Mg0 O1 2.157462 1_554
Mg0 O6 2.172631 1_455
Mg0 O0 2.181677 1_555
Mn0 O2 1.982084 1_545
Mn0 O3 2.108735 1_455
Mn0 O0 2.132574 1_555
Mn0 O1 2.169832 1_554
Mn1 O4 2.208059 1_545
Mn1 O3 2.222069 1_555
Mn1 O7 2.278322 1_545
Mn1 O6 2.328024 1_545
Mn1 O1 2.345391 1_555
Mn1 O0 2.352783 1_555
Mn2 O2 1.956608 1_555
Mn2 O0 1.977730 1_555
Mn2 O5 1.983387 1_554
Mn2 O7 2.002284 1_554
Mn2 O3 2.274143 1_555
Mn2 O4 2.340800 1_554
Mn3 O2 1.956239 1_555
Mn3 O5 1.978425 1_555
Mn3 O1 1.981347 1_555
Mn3 O6 2.010803 1_555
Mn3 O3 2.261976 1_555
Mn3 O4 2.344302 1_555
O0 Zn1 2.193884 1_555
O1 Zn1 2.215851 1_555
O2 Zn1 2.017963 1_555
O4 Zn0 2.022290 1_465
O5 Zn0 1.917989 1_555
O5 Zn1 2.026069 1_655
O6 Zn0 2.109705 1_564
O6 Zn1 2.234990 1_655
O7 Zn0 2.198471 1_565
O7 Zn1 2.235511 1_655
