# generated using pymatgen
data_Na8TaIn3Si4(PO12)2
_symmetry_space_group_name_H-M   'P 1'
_cell_length_a   9.25043062
_cell_length_b   9.26231484
_cell_length_c   22.37064770
_cell_angle_alpha   89.93888274
_cell_angle_beta   89.97488240
_cell_angle_gamma   119.98072787
_symmetry_Int_Tables_number   1
_chemical_formula_structural   Na8TaIn3Si4(PO12)2
_chemical_formula_sum   'Na24 Ta3 In9 Si12 P6 O72'
_cell_volume   1660.25373515
_cell_formula_units_Z   3
loop_
 _symmetry_equiv_pos_site_id
 _symmetry_equiv_pos_as_xyz
  1  'x, y, z'
loop_
 _atom_site_type_symbol
 _atom_site_label
 _atom_site_symmetry_multiplicity
 _atom_site_fract_x
 _atom_site_fract_y
 _atom_site_fract_z
 _atom_site_occupancy
  Na  Na0  1  0.63050933  0.99753731  0.25535717  1
  Na  Na1  1  0.36949414  0.37081185  0.25205902  1
  Na  Na2  1  0.00230511  0.63018458  0.25188463  1
  Na  Na3  1  0.64110953  0.63639625  0.73948223  1
  Na  Na4  1  0.99056455  0.35159440  0.74222751  1
  Na  Na5  1  0.36817954  0.01366709  0.74754294  1
  Na  Na6  1  0.29417451  0.34044151  0.58301012  1
  Na  Na7  1  0.03963775  0.70114554  0.58006022  1
  Na  Na8  1  0.66660357  0.95555198  0.58006785  1
  Na  Na9  1  0.29007641  0.95517568  0.07917660  1
  Na  Na10  1  0.65941673  0.70043845  0.08183333  1
  Na  Na11  1  0.04752648  0.34435048  0.08202591  1
  Na  Na12  1  0.97881849  0.68359146  0.91452824  1
  Na  Na13  1  0.70835531  0.02694508  0.91146032  1
  Na  Na14  1  0.31424315  0.28866892  0.91184193  1
  Na  Na15  1  0.98156842  0.30023920  0.41753803  1
  Na  Na16  1  0.32296151  0.02096384  0.41714771  1
  Na  Na17  1  0.69742578  0.67990064  0.41738015  1
  Na  Na18  1  0.99675436  0.00007785  0.49860737  1
  Na  Na19  1  0.00369185  0.00071597  0.99693075  1
  Na  Na20  1  0.66183191  0.32636410  0.82676267  1
  Na  Na21  1  0.66503556  0.33182487  0.33392228  1
  Na  Na22  1  0.32718561  0.66043790  0.16490716  1
  Na  Na23  1  0.33549465  0.66077883  0.65884877  1
  Ta  Ta0  1  0.66434931  0.33650834  0.97917579  1
  Ta  Ta1  1  0.67145791  0.33773400  0.48151418  1
  Ta  Ta2  1  0.33480966  0.66482700  0.81660690  1
  In  In0  1  0.00053432  0.99991553  0.35042753  1
  In  In1  1  0.00081426  0.00382172  0.84867605  1
  In  In2  1  0.99408528  0.00239842  0.64857032  1
  In  In3  1  0.00252032  0.99918089  0.14563064  1
  In  In4  1  0.66614596  0.33398958  0.68258167  1
  In  In5  1  0.66787609  0.33710689  0.18156149  1
  In  In6  1  0.33125723  0.66429922  0.01595177  1
  In  In7  1  0.33343712  0.66273155  0.51400046  1
  In  In8  1  0.33395938  0.66583405  0.32231391  1
  Si  Si0  1  0.29901158  0.30169187  0.75069805  1
  Si  Si1  1  0.69504468  0.99523402  0.75088211  1
  Si  Si2  1  0.96426511  0.33522514  0.58521302  1
  Si  Si3  1  0.66768714  0.63094234  0.58520054  1
  Si  Si4  1  0.96188749  0.62810578  0.08431541  1
  Si  Si5  1  0.37107097  0.33434969  0.08466655  1
  Si  Si6  1  0.62915939  0.66601467  0.91933025  1
  Si  Si7  1  0.03442531  0.37024849  0.91908481  1
  Si  Si8  1  0.33517969  0.96296917  0.91915194  1
  Si  Si9  1  0.63229395  0.96998204  0.41685186  1
  Si  Si10  1  0.33656345  0.36522409  0.41638095  1
  Si  Si11  1  0.03244143  0.66438648  0.41662778  1
  P  P0  1  0.30039516  0.99732301  0.24854369  1
  P  P1  1  0.70025490  0.70296356  0.24874100  1
  P  P2  1  0.00026924  0.29836010  0.24824271  1
  P  P3  1  0.00753161  0.70455407  0.75169933  1
  P  P4  1  0.37303222  0.03963918  0.58376952  1
  P  P5  1  0.66707261  0.04387568  0.08311786  1
  O  O0  1  0.21691603  0.02244999  0.30444874  1
  O  O1  1  0.80667007  0.78814230  0.30477415  1
  O  O2  1  0.97913761  0.19262865  0.30450638  1
  O  O3  1  0.22328848  0.18740129  0.81025095  1
  O  O4  1  0.97959936  0.78260193  0.80825543  1
  O  O5  1  0.80749126  0.02835213  0.81051452  1
  O  O6  1  0.76695703  0.94501712  0.69241064  1
  O  O7  1  0.17943943  0.22411926  0.69180176  1
  O  O8  1  0.04268084  0.81490514  0.69541466  1
  O  O9  1  0.78224988  0.80674994  0.19106779  1
  O  O10  1  0.02092433  0.21549490  0.19067035  1
  O  O11  1  0.19652997  0.97550013  0.19099214  1
  O  O12  1  0.88476771  0.35868567  0.64662946  1
  O  O13  1  0.46941867  0.11285031  0.64261323  1
  O  O14  1  0.63630648  0.52366210  0.64597402  1
  O  O15  1  0.88866876  0.51967394  0.14520938  1
  O  O16  1  0.64264859  0.11781261  0.14151591  1
  O  O17  1  0.47460666  0.35918518  0.14602822  1
  O  O18  1  0.47994142  0.31524648  0.02712629  1
  O  O19  1  0.83548868  0.51588291  0.02678349  1
  O  O20  1  0.68079200  0.15873198  0.02816519  1
  O  O21  1  0.47555683  0.15459069  0.52958145  1
  O  O22  1  0.67650068  0.51673708  0.52840490  1
  O  O23  1  0.83811648  0.32064622  0.52868000  1
  O  O24  1  0.55869249  0.70578629  0.97913821  1
  O  O25  1  0.14365802  0.44267814  0.97909099  1
  O  O26  1  0.30160433  0.85611430  0.97957996  1
  O  O27  1  0.55370624  0.85038026  0.47478787  1
  O  O28  1  0.29269409  0.44122191  0.47436978  1
  O  O29  1  0.15135237  0.70558814  0.47476293  1
  O  O30  1  0.10127161  0.61530817  0.35687519  1
  O  O31  1  0.51522654  0.89894815  0.35690098  1
  O  O32  1  0.38520769  0.48395948  0.35673300  1
  O  O33  1  0.13610919  0.50031822  0.86238978  1
  O  O34  1  0.36054815  0.85944386  0.86262358  1
  O  O35  1  0.49690524  0.63639420  0.86301109  1
  O  O36  1  0.99857642  0.82015333  0.41105927  1
  O  O37  1  0.82125083  0.00052760  0.41128688  1
  O  O38  1  0.17831804  0.17685636  0.41074122  1
  O  O39  1  0.00464046  0.18326314  0.91277061  1
  O  O40  1  0.17659901  0.99091410  0.91205470  1
  O  O41  1  0.81767198  0.81686946  0.90993025  1
  O  O42  1  0.97122946  0.16213974  0.58113627  1
  O  O43  1  0.20230824  0.03322332  0.58293959  1
  O  O44  1  0.84708123  0.80597585  0.58280703  1
  O  O45  1  0.95942465  0.80433941  0.08151993  1
  O  O46  1  0.83226386  0.03848577  0.08198038  1
  O  O47  1  0.18929292  0.16184523  0.08130703  1
  O  O48  1  0.66876121  0.15709001  0.74670396  1
  O  O49  1  0.48977891  0.33396680  0.74770068  1
  O  O50  1  0.85535723  0.52649454  0.74802619  1
  O  O51  1  0.68355165  0.52628738  0.24836011  1
  O  O52  1  0.83898196  0.31366230  0.24743554  1
  O  O53  1  0.47910667  0.15517915  0.24687564  1
  O  O54  1  0.63167966  0.48645993  0.92278606  1
  O  O55  1  0.85026240  0.36251835  0.92261847  1
  O  O56  1  0.51256413  0.14628848  0.92250400  1
  O  O57  1  0.64843596  0.15613346  0.42630701  1
  O  O58  1  0.50504012  0.34642248  0.42617286  1
  O  O59  1  0.84418378  0.49404334  0.42596036  1
  O  O60  1  0.35608022  0.50212015  0.08088125  1
  O  O61  1  0.15001219  0.65603856  0.08043731  1
  O  O62  1  0.51362728  0.86791529  0.07885513  1
  O  O63  1  0.35236768  0.86421492  0.57857935  1
  O  O64  1  0.50608176  0.65692392  0.58006276  1
  O  O65  1  0.14775509  0.50301465  0.58047347  1
  O  O66  1  0.31439104  0.83642536  0.25197838  1
  O  O67  1  0.52396027  0.68680019  0.25159804  1
  O  O68  1  0.16006396  0.47440770  0.25106632  1
  O  O69  1  0.31017658  0.48758926  0.75961585  1
  O  O70  1  0.16972373  0.68947652  0.75920519  1
  O  O71  1  0.50592918  0.82548452  0.76004954  1
loop_
_geom_bond_atom_site_label_1
_geom_bond_atom_site_label_2
_geom_bond_distance
_geom_bond_site_symmetry_2
Na0 O31 2.480219 1_555
Na0 O53 2.484533 1_565
Na0 O66 2.534352 1_555
Na0 O67 2.535294 1_555
Na0 O52 2.584394 1_565
Na0 O16 2.758266 1_565
Na1 O51 2.517732 1_555
Na1 O67 2.535390 1_555
Na1 O32 2.540855 1_555
Na1 O68 2.555827 1_555
Na1 O17 2.585824 1_555
Na1 O53 2.656118 1_555
Na2 O68 2.513214 1_555
Na2 O52 2.541955 1_455
Na2 O66 2.543994 1_555
Na2 O30 2.549664 1_555
Na2 O15 2.603777 1_455
Na2 O51 2.605967 1_455
Na3 O14 2.329474 1_555
Na3 O49 2.433062 1_555
Na3 O50 2.648923 1_555
Na3 O71 2.651941 1_555
Na3 O69 2.693424 1_555
Na3 O6 2.702230 1_555
Na4 O12 2.366738 1_555
Na4 O50 2.496148 1_555
Na4 O48 2.599358 1_555
Na4 O69 2.599852 1_655
Na4 O70 2.739448 1_655
Na4 O7 2.789631 1_655
Na5 O48 2.409285 1_555
Na5 O13 2.522828 1_555
Na5 O49 2.594527 1_555
Na5 O70 2.635039 1_545
Na5 O71 2.637999 1_545
Na5 O8 2.878010 1_545
Na5 O3 2.917616 1_555
Na5 O34 2.926498 1_545
Na6 O65 2.478589 1_555
Na6 O43 2.530335 1_555
Na6 O64 2.587741 1_555
Na6 O42 2.592898 1_455
Na6 O28 2.605019 1_555
Na6 O7 2.657003 1_555
Na7 O44 2.418241 1_455
Na7 O65 2.490466 1_555
Na7 O63 2.506818 1_555
Na7 O29 2.563882 1_555
Na7 O43 2.665315 1_565
Na7 O8 2.783254 1_555
Na8 O64 2.398081 1_555
Na8 O42 2.492773 1_565
Na8 O27 2.564525 1_555
Na8 O63 2.590141 1_555
Na8 O44 2.649883 1_555
Na8 O6 2.698039 1_555
Na9 O61 2.401734 1_555
Na9 O26 2.432973 1_554
Na9 O47 2.513859 1_565
Na9 O62 2.569062 1_555
Na9 O45 2.653117 1_455
Na9 O11 2.683860 1_555
Na10 O45 2.441047 1_555
Na10 O60 2.469221 1_555
Na10 O24 2.489217 1_554
Na10 O62 2.513988 1_555
Na10 O9 2.668607 1_555
Na10 O46 2.712363 1_565
Na11 O25 2.471249 1_554
Na11 O60 2.472689 1_555
Na11 O46 2.520542 1_455
Na11 O61 2.549303 1_555
Na11 O47 2.606362 1_555
Na11 O10 2.663049 1_555
Na12 O41 2.365494 1_555
Na12 O40 2.499550 1_655
Na12 O4 2.545931 1_555
Na12 O55 2.599058 1_555
Na12 O54 2.796178 1_555
Na12 O19 2.899571 1_556
Na12 O26 2.971037 1_655
Na12 O33 2.971584 1_655
Na13 O39 2.375538 1_655
Na13 O5 2.434522 1_555
Na13 O56 2.562084 1_555
Na13 O41 2.603158 1_545
Na13 O55 2.714868 1_555
Na13 O20 2.947601 1_556
Na13 O24 2.988351 1_545
Na13 O34 2.995003 1_545
Na14 O40 2.391173 1_545
Na14 O3 2.443392 1_555
Na14 O39 2.522162 1_555
Na14 O54 2.581462 1_555
Na14 O56 2.753054 1_555
Na14 O18 2.947694 1_556
Na14 O35 2.995581 1_555
Na14 O25 3.006706 1_555
Na15 O37 2.410750 1_555
Na15 O38 2.592384 1_655
Na15 O59 2.674580 1_555
Na15 O57 2.684125 1_555
Na15 O2 2.714915 1_555
Na15 O28 2.802750 1_655
Na15 O23 2.868309 1_555
Na15 O30 2.888727 1_655
Na16 O38 2.413781 1_555
Na16 O58 2.625276 1_555
Na16 O36 2.627772 1_445
Na16 O57 2.628322 1_555
Na16 O0 2.708185 1_555
Na16 O29 2.840753 1_545
Na16 O21 2.848580 1_555
Na16 O31 2.875214 1_545
Na17 O36 2.418795 1_555
Na17 O37 2.597948 1_565
Na17 O59 2.679271 1_555
Na17 O58 2.692779 1_555
Na17 O1 2.711438 1_555
Na17 O27 2.830374 1_555
Na17 O22 2.861707 1_555
Na17 O32 2.871580 1_555
Na18 O42 2.465209 1_555
Na18 O44 2.489955 1_545
Na18 O37 2.541864 1_555
Na18 O38 2.570474 1_655
Na18 O36 2.578434 1_545
Na18 O43 2.586485 1_655
Na19 O47 2.487150 1_556
Na19 O45 2.510882 1_446
Na19 O40 2.512877 1_545
Na19 O39 2.526243 1_555
Na19 O41 2.594253 1_445
Na19 O46 2.609646 1_456
Na20 O48 2.403375 1_555
Na20 O49 2.404253 1_555
Na20 O50 2.533208 1_555
Na20 O56 2.638921 1_555
Na20 O55 2.677708 1_555
Na20 O54 2.703822 1_555
Na21 O51 2.573188 1_555
Na21 O53 2.573786 1_555
Na21 O52 2.574733 1_555
Na21 O58 2.581773 1_555
Na21 O57 2.585692 1_555
Na21 O59 2.600811 1_555
Na22 O60 2.480367 1_555
Na22 O61 2.488905 1_555
Na22 O68 2.530220 1_555
Na22 O66 2.581577 1_555
Na22 O67 2.587246 1_555
Na22 O62 2.655195 1_555
Na23 O64 2.377344 1_555
Na23 O65 2.386897 1_555
Na23 O63 2.549112 1_555
Na23 O69 2.706655 1_555
Na23 O71 2.746825 1_555
Na23 O70 2.804986 1_555
In0 O38 2.126975 1_565
In0 O36 2.139478 1_455
In0 O1 2.144036 1_455
In0 O37 2.147441 1_465
In0 O2 2.151736 1_465
In0 O0 2.165232 1_565
In1 O3 2.088897 1_555
In1 O5 2.094165 1_455
In1 O4 2.157966 1_445
In1 O39 2.183086 1_555
In1 O41 2.192562 1_445
In1 O40 2.205587 1_545
In2 O6 2.130664 1_545
In2 O7 2.139907 1_655
In2 O42 2.194926 1_555
In2 O44 2.204172 1_545
In2 O8 2.256733 1_645
In2 O43 2.322543 1_655
In3 O11 2.166390 1_555
In3 O47 2.171928 1_565
In3 O10 2.173021 1_565
In3 O9 2.174050 1_455
In3 O45 2.181680 1_455
In3 O46 2.283498 1_465
In4 O14 2.077256 1_555
In4 O12 2.079643 1_555
In4 O13 2.141634 1_555
In4 O48 2.185764 1_555
In4 O49 2.186642 1_555
In4 O50 2.296724 1_555
In5 O15 2.058200 1_555
In5 O17 2.058227 1_555
In5 O16 2.124382 1_555
In5 O52 2.251426 1_555
In5 O53 2.252843 1_555
In5 O51 2.253056 1_555
In6 O25 2.085632 1_554
In6 O26 2.092354 1_554
In6 O24 2.107605 1_554
In6 O60 2.181595 1_555
In6 O61 2.183417 1_555
In6 O62 2.282755 1_555
In7 O28 2.090178 1_555
In7 O27 2.097118 1_555
In7 O29 2.105682 1_555
In7 O65 2.191715 1_555
In7 O64 2.196643 1_555
In7 O63 2.297785 1_555
In8 O30 2.107347 1_555
In8 O32 2.109765 1_555
In8 O31 2.111556 1_555
In8 O67 2.298961 1_555
In8 O66 2.299116 1_555
In8 O68 2.330128 1_555
O0 P0 1.547242 1_545
O1 P1 1.545875 1_555
O2 P2 1.545095 1_655
O3 Si0 1.625186 1_555
O4 P3 1.542212 1_655
O5 Si1 1.624459 1_545
O6 Si1 1.636950 1_555
O7 Si0 1.638491 1_555
O8 P3 1.549378 1_555
O9 P1 1.559415 1_555
O10 P2 1.559751 1_555
O11 P0 1.558558 1_555
O12 Si2 1.623311 1_555
O13 P4 1.544771 1_555
O14 Si3 1.621259 1_555
O15 Si4 1.624667 1_555
O16 P5 1.543698 1_555
O17 Si5 1.623621 1_555
O18 Si5 1.697031 1_555
O18 Ta0 1.939476 1_554
O19 Si4 1.701038 1_555
O19 Ta0 1.943553 1_554
O20 P5 1.587840 1_555
O20 Ta0 2.045031 1_554
O21 P4 1.577851 1_555
O21 Ta1 2.059104 1_555
O22 Si3 1.681927 1_555
O22 Ta1 1.943680 1_555
O23 Si2 1.680342 1_555
O23 Ta1 1.939074 1_555
O24 Si6 1.609650 1_555
O25 Si7 1.612041 1_555
O26 Si8 1.610273 1_555
O27 Si9 1.620716 1_555
O28 Si10 1.621730 1_555
O29 Si11 1.621642 1_555
O30 Si11 1.639705 1_555
O31 Si9 1.641748 1_555
O32 Si10 1.641417 1_555
O33 Si7 1.675686 1_555
O33 Ta2 1.986239 1_555
O34 Si8 1.673588 1_555
O34 Ta2 1.985199 1_555
O35 Si6 1.681063 1_555
O35 Ta2 1.946995 1_555
O36 Si11 1.626828 1_655
O37 Si9 1.629817 1_545
O38 Si10 1.628165 1_555
O39 Si7 1.618349 1_555
O40 Si8 1.619786 1_555
O41 Si6 1.612878 1_555
O42 Si2 1.638949 1_555
O43 P4 1.550550 1_555
O44 Si3 1.641949 1_555
O45 Si4 1.644958 1_555
O46 P5 1.553837 1_555
O47 Si5 1.643568 1_555
O48 Si1 1.636869 1_545
O49 Si0 1.637249 1_555
O50 P3 1.545462 1_655
O51 P1 1.564986 1_555
O52 P2 1.567727 1_655
O53 P0 1.567238 1_545
O54 Si6 1.676566 1_555
O54 Ta0 2.006932 1_555
O55 Si7 1.670792 1_655
O55 Ta0 2.049348 1_555
O56 Si8 1.672435 1_545
O56 Ta0 2.053504 1_555
O57 Si9 1.668345 1_545
O57 Ta1 2.011604 1_555
O58 Si10 1.666925 1_555
O58 Ta1 2.008559 1_555
O59 Si11 1.678867 1_655
O59 Ta1 1.968760 1_555
O60 Si5 1.629794 1_555
O61 Si4 1.628719 1_455
O62 P5 1.539007 1_565
O63 P4 1.542762 1_565
O64 Si3 1.632648 1_555
O65 Si2 1.634224 1_455
O66 P0 1.560836 1_555
O67 P1 1.562656 1_555
O68 P2 1.561810 1_555
O69 Si0 1.684702 1_555
O69 Ta2 2.000795 1_555
O70 P3 1.583766 1_555
O70 Ta2 2.093491 1_555
O71 Si1 1.680645 1_555
O71 Ta2 1.990198 1_555
