# generated using pymatgen
data_Ba6MgCr2O10
_symmetry_space_group_name_H-M   'P 1'
_cell_length_a   7.37441826
_cell_length_b   9.44515908
_cell_length_c   8.35621168
_cell_angle_alpha   127.94418603
_cell_angle_beta   81.88943621
_cell_angle_gamma   122.32049070
_symmetry_Int_Tables_number   1
_chemical_formula_structural   Ba6MgCr2O10
_chemical_formula_sum   'Ba6 Mg1 Cr2 O10'
_cell_volume   372.18622715
_cell_formula_units_Z   1
loop_
 _symmetry_equiv_pos_site_id
 _symmetry_equiv_pos_as_xyz
  1  'x, y, z'
loop_
 _atom_site_type_symbol
 _atom_site_label
 _atom_site_symmetry_multiplicity
 _atom_site_fract_x
 _atom_site_fract_y
 _atom_site_fract_z
 _atom_site_occupancy
  Ba  Ba0  1  0.78316605  0.56845451  0.66587290  1
  Ba  Ba1  1  0.22587620  0.44120916  0.31224939  1
  Ba  Ba2  1  0.31250688  0.02891331  0.13191451  1
  Ba  Ba3  1  0.70314490  0.01674706  0.84002953  1
  Ba  Ba4  1  0.22037299  0.05238568  0.66433456  1
  Ba  Ba5  1  0.77802589  0.93316973  0.29675307  1
  Mg  Mg0  1  0.21482688  0.66643672  0.15333698  1
  Cr  Cr0  1  0.24721853  0.49453925  0.76027645  1
  Cr  Cr1  1  0.76508499  0.51695821  0.22303960  1
  O  O0  1  0.96972567  0.97953040  0.99356931  1
  O  O1  1  0.40682357  0.82849241  0.42555788  1
  O  O2  1  0.50304732  0.26379370  0.00341535  1
  O  O3  1  0.16548321  0.61350910  0.69553616  1
  O  O4  1  0.44870566  0.77960124  0.02998222  1
  O  O5  1  0.99217034  0.73686209  0.19991707  1
  O  O6  1  0.75249639  0.72761797  0.49263738  1
  O  O7  1  0.10129839  0.35397606  0.88971500  1
  O  O8  1  0.30458413  0.29098503  0.53616138  1
  O  O9  1  0.81079503  0.35681936  0.26605725  1
loop_
_geom_bond_atom_site_label_1
_geom_bond_atom_site_label_2
_geom_bond_distance
_geom_bond_site_symmetry_2
Ba0 O0 2.596594 1_555
Ba0 O3 2.641193 1_655
Ba0 O9 2.688804 1_555
Ba0 O6 2.745702 1_555
Ba0 O8 2.862606 1_555
Ba1 O1 2.633524 1_555
Ba1 O3 2.658459 1_555
Ba1 O9 2.738616 1_455
Ba1 O0 2.829401 1_444
Ba1 O6 3.174143 1_555
Ba1 O8 3.209819 1_555
Ba1 O2 3.240634 1_555
Ba1 O7 3.243081 1_554
Ba2 O0 2.616201 1_444
Ba2 O4 2.664652 1_545
Ba2 O2 2.686913 1_555
Ba2 O8 2.712439 1_555
Ba2 O5 2.844897 1_445
Ba2 O3 2.972976 1_544
Ba2 O9 3.012415 1_555
Ba3 O6 2.651881 1_545
Ba3 O9 2.762118 1_556
Ba3 O0 2.763987 1_545
Ba3 O7 2.766955 1_655
Ba3 O2 2.946471 1_556
Ba3 O4 3.177270 1_546
Ba3 O1 3.215477 1_545
Ba3 O3 3.351448 1_545
Ba4 O2 2.572691 1_556
Ba4 O1 2.736733 1_545
Ba4 O8 2.809929 1_555
Ba4 O6 2.835446 1_445
Ba4 O7 2.835994 1_555
Ba4 O5 3.005139 1_445
Ba4 O0 3.315434 1_445
Ba5 O4 2.599135 1_555
Ba5 O1 2.685635 1_555
Ba5 O5 2.740775 1_555
Ba5 O0 2.881050 1_554
Ba5 O6 3.148708 1_555
Ba5 O8 3.216612 1_665
Mg0 O1 1.957415 1_555
Mg0 O5 1.989765 1_455
Mg0 O4 2.015355 1_555
Mg0 O7 2.036329 1_554
Cr0 O3 1.866143 1_555
Cr0 O8 1.897578 1_555
Cr0 O4 1.934153 1_556
Cr0 O7 2.000090 1_555
Cr1 O2 1.866248 1_555
Cr1 O6 1.915409 1_555
Cr1 O9 1.943870 1_555
Cr1 O5 1.959250 1_555
