# generated using pymatgen
data_MgV2(GeO3)4
_symmetry_space_group_name_H-M   'P 1'
_cell_length_a   5.64141290
_cell_length_b   6.89736614
_cell_length_c   6.72651837
_cell_angle_alpha   82.95071192
_cell_angle_beta   74.57853628
_cell_angle_gamma   77.52825288
_symmetry_Int_Tables_number   1
_chemical_formula_structural   MgV2(GeO3)4
_chemical_formula_sum   'Mg1 V2 Ge4 O12'
_cell_volume   245.76388775
_cell_formula_units_Z   1
loop_
 _symmetry_equiv_pos_site_id
 _symmetry_equiv_pos_as_xyz
  1  'x, y, z'
loop_
 _atom_site_type_symbol
 _atom_site_label
 _atom_site_symmetry_multiplicity
 _atom_site_fract_x
 _atom_site_fract_y
 _atom_site_fract_z
 _atom_site_occupancy
  Mg  Mg0  1  0.33984600  0.82042300  0.46288500  1
  V  V0  1  0.76479700  0.91745100  0.09752700  1
  V  V1  1  0.26781100  0.09016400  0.92065200  1
  Ge  Ge0  1  0.78208600  0.38905300  0.19960000  1
  Ge  Ge1  1  0.73504700  0.77231900  0.65305100  1
  Ge  Ge2  1  0.18570700  0.60560200  0.87132400  1
  Ge  Ge3  1  0.25831700  0.24057300  0.38537900  1
  O  O0  1  0.45727400  0.42167900  0.33295200  1
  O  O1  1  0.05964900  0.67519200  0.63590800  1
  O  O2  1  0.49300200  0.63634400  0.68696900  1
  O  O3  1  0.94871800  0.37028400  0.39363600  1
  O  O4  1  0.24653800  0.08786600  0.61762300  1
  O  O5  1  0.28101800  0.36137800  0.95681900  1
  O  O6  1  0.72348400  0.85726500  0.39709400  1
  O  O7  1  0.81460000  0.60966500  0.03620200  1
  O  O8  1  0.87816000  0.17508600  0.05851500  1
  O  O9  1  0.63582900  0.95712200  0.83767400  1
  O  O10  1  0.13823600  0.82687700  0.00081400  1
  O  O11  1  0.35892700  0.03566000  0.21537300  1
loop_
_geom_bond_atom_site_label_1
_geom_bond_atom_site_label_2
_geom_bond_distance
_geom_bond_site_symmetry_2
Mg0 O1 2.067832 1_555
Mg0 O11 2.086733 1_565
Mg0 O2 2.092753 1_555
Mg0 O4 2.126892 1_565
Mg0 O6 2.155226 1_555
Ge0 O8 1.759863 1_555
Ge0 O7 1.777610 1_555
Ge0 O3 1.778324 1_555
Ge0 O0 1.791708 1_555
Ge1 O6 1.762786 1_555
Ge1 O2 1.769492 1_555
Ge1 O9 1.786329 1_555
Ge1 O1 1.786682 1_655
Ge2 O5 1.729987 1_555
Ge2 O10 1.784773 1_556
Ge2 O1 1.873127 1_555
Ge2 O2 1.881206 1_555
Ge2 O7 2.088360 1_456
Ge3 O4 1.767884 1_555
Ge3 O3 1.771928 1_455
Ge3 O0 1.797628 1_555
Ge3 O11 1.825505 1_555
O4 V1 2.075643 1_555
O5 V1 1.935369 1_555
O6 V0 1.968185 1_555
O7 V0 2.156743 1_555
O8 V0 1.980590 1_545
O8 V1 2.127940 1_654
O9 V0 2.032820 1_556
O9 V1 2.037282 1_565
O10 V0 2.013499 1_455
O10 V1 2.060651 1_564
O11 V1 2.147371 1_554
O11 V0 2.218736 1_545
