# generated using pymatgen
data_SrPr2O4
_symmetry_space_group_name_H-M   'P 1'
_cell_length_a   3.61736000
_cell_length_b   10.42366700
_cell_length_c   12.46950000
_cell_angle_alpha   90.00000000
_cell_angle_beta   90.00000000
_cell_angle_gamma   90.00000000
_symmetry_Int_Tables_number   1
_chemical_formula_structural   SrPr2O4
_chemical_formula_sum   'Sr4 Pr8 O16'
_cell_volume   470.17691298
_cell_formula_units_Z   4
loop_
 _symmetry_equiv_pos_site_id
 _symmetry_equiv_pos_as_xyz
  1  'x, y, z'
loop_
 _atom_site_type_symbol
 _atom_site_label
 _atom_site_symmetry_multiplicity
 _atom_site_fract_x
 _atom_site_fract_y
 _atom_site_fract_z
 _atom_site_occupancy
  Sr  Sr0  1  0.25000000  0.25182000  0.14571100  1
  Sr  Sr1  1  0.75000000  0.74818000  0.85428900  1
  Sr  Sr2  1  0.75000000  0.24818000  0.64571100  1
  Sr  Sr3  1  0.25000000  0.75182000  0.35428900  1
  Pr  Pr0  1  0.25000000  0.42873500  0.88426500  1
  Pr  Pr1  1  0.75000000  0.57126500  0.11573500  1
  Pr  Pr2  1  0.75000000  0.07126500  0.38426500  1
  Pr  Pr3  1  0.25000000  0.92873500  0.61573500  1
  Pr  Pr4  1  0.25000000  0.91161600  0.11036900  1
  Pr  Pr5  1  0.75000000  0.08838400  0.88963100  1
  Pr  Pr6  1  0.75000000  0.58838400  0.61036900  1
  Pr  Pr7  1  0.25000000  0.41161600  0.38963100  1
  O  O0  1  0.25000000  0.42944600  0.58266100  1
  O  O1  1  0.75000000  0.57055400  0.41733900  1
  O  O2  1  0.75000000  0.07055400  0.08266100  1
  O  O3  1  0.25000000  0.92944600  0.91733900  1
  O  O4  1  0.25000000  0.49617100  0.21267300  1
  O  O5  1  0.75000000  0.50382900  0.78732700  1
  O  O6  1  0.75000000  0.00382900  0.71267300  1
  O  O7  1  0.25000000  0.99617100  0.28732700  1
  O  O8  1  0.25000000  0.13686400  0.51621800  1
  O  O9  1  0.75000000  0.86313600  0.48378200  1
  O  O10  1  0.75000000  0.36313600  0.01621800  1
  O  O11  1  0.25000000  0.63686400  0.98378200  1
  O  O12  1  0.25000000  0.71832000  0.68677100  1
  O  O13  1  0.75000000  0.28168000  0.31322900  1
  O  O14  1  0.75000000  0.78168000  0.18677100  1
  O  O15  1  0.25000000  0.21832000  0.81322900  1
loop_
_geom_bond_atom_site_label_1
_geom_bond_atom_site_label_2
_geom_bond_distance
_geom_bond_site_symmetry_2
O0 Pr7 2.414152 1_555
O0 Pr6 2.476975 1_455
O0 Pr6 2.476975 1_555
O0 Sr2 2.731205 1_455
O0 Sr2 2.731205 1_555
O1 Pr6 2.414152 1_555
O1 Pr7 2.476975 1_655
O1 Pr7 2.476975 1_555
O1 Sr3 2.731205 1_655
O1 Sr3 2.731205 1_555
O2 Pr5 2.414152 1_554
O2 Pr4 2.476975 1_545
O2 Pr4 2.476975 1_645
O2 Sr0 2.731205 1_655
O2 Sr0 2.731205 1_555
O3 Pr4 2.414152 1_556
O3 Pr5 2.476975 1_465
O3 Pr5 2.476975 1_565
O3 Sr1 2.731205 1_455
O3 Sr1 2.731205 1_555
O4 Pr1 2.311958 1_555
O4 Pr1 2.311958 1_455
O4 Pr7 2.376090 1_555
O4 Sr0 2.680406 1_555
O4 Sr3 3.196794 1_555
O5 Pr0 2.311958 1_555
O5 Pr0 2.311958 1_655
O5 Pr6 2.376090 1_555
O5 Sr1 2.680406 1_555
O5 Sr2 3.196794 1_555
O6 Pr3 2.311958 1_645
O6 Pr3 2.311958 1_545
O6 Pr5 2.376090 1_555
O6 Sr2 2.680406 1_555
O6 Sr1 3.196794 1_545
O7 Pr2 2.311958 1_565
O7 Pr2 2.311958 1_465
O7 Pr4 2.376090 1_555
O7 Sr3 2.680406 1_555
O7 Sr0 3.196794 1_565
O8 Pr3 2.499298 1_545
O8 Pr2 2.538933 1_555
O8 Pr2 2.538933 1_455
O8 Sr2 2.687930 1_455
O8 Sr2 2.687930 1_555
O9 Pr2 2.499298 1_565
O9 Pr3 2.538933 1_555
O9 Pr3 2.538933 1_655
O9 Sr3 2.687930 1_555
O9 Sr3 2.687930 1_655
O10 Pr1 2.499298 1_555
O10 Pr0 2.538933 1_654
O10 Pr0 2.538933 1_554
O10 Sr0 2.687930 1_655
O10 Sr0 2.687930 1_555
O11 Pr0 2.499298 1_555
O11 Pr1 2.538933 1_556
O11 Pr1 2.538933 1_456
O11 Sr1 2.687930 1_455
O11 Sr1 2.687930 1_555
O12 Pr3 2.365409 1_555
O12 Pr6 2.452219 1_455
O12 Pr6 2.452219 1_555
O12 Sr1 2.780568 1_455
O12 Sr1 2.780568 1_555
O13 Pr2 2.365409 1_555
O13 Pr7 2.452219 1_555
O13 Pr7 2.452219 1_655
O13 Sr0 2.780568 1_555
O13 Sr0 2.780568 1_655
O14 Pr1 2.365409 1_555
O14 Pr4 2.452219 1_655
O14 Pr4 2.452219 1_555
O14 Sr3 2.780568 1_555
O14 Sr3 2.780568 1_655
O15 Pr0 2.365409 1_555
O15 Pr5 2.452219 1_555
O15 Pr5 2.452219 1_455
O15 Sr2 2.780568 1_455
O15 Sr2 2.780568 1_555
