# generated using pymatgen
data_Na5Ca2In2P3(SO8)3
_symmetry_space_group_name_H-M   'P 1'
_cell_length_a   9.25338856
_cell_length_b   9.26648709
_cell_length_c   22.75722613
_cell_angle_alpha   90.74385255
_cell_angle_beta   90.15513704
_cell_angle_gamma   120.06366200
_symmetry_Int_Tables_number   1
_chemical_formula_structural   Na5Ca2In2P3(SO8)3
_chemical_formula_sum   'Na15 Ca6 In6 P9 S9 O72'
_cell_volume   1688.59585395
_cell_formula_units_Z   3
loop_
 _symmetry_equiv_pos_site_id
 _symmetry_equiv_pos_as_xyz
  1  'x, y, z'
loop_
 _atom_site_type_symbol
 _atom_site_label
 _atom_site_symmetry_multiplicity
 _atom_site_fract_x
 _atom_site_fract_y
 _atom_site_fract_z
 _atom_site_occupancy
  Na  Na0  1  0.65069341  0.01447238  0.25696856  1
  Na  Na1  1  0.00591263  0.63485029  0.24031644  1
  Na  Na2  1  0.63877642  0.64720556  0.74077277  1
  Na  Na3  1  0.99067828  0.34655751  0.74529851  1
  Na  Na4  1  0.31327338  0.34609045  0.58901882  1
  Na  Na5  1  0.67397279  0.96859402  0.57539761  1
  Na  Na6  1  0.30460245  0.96430899  0.08003417  1
  Na  Na7  1  0.68943701  0.02118869  0.90738278  1
  Na  Na8  1  0.96738881  0.29834539  0.41157766  1
  Na  Na9  1  0.96827809  0.95576638  0.49870542  1
  Na  Na10  1  0.00974434  0.97959009  0.99934948  1
  Na  Na11  1  0.61055251  0.29821052  0.83147909  1
  Na  Na12  1  0.61961691  0.30574460  0.33415911  1
  Na  Na13  1  0.30283416  0.62239643  0.16576217  1
  Na  Na14  1  0.32124490  0.67112751  0.66581041  1
  Ca  Ca0  1  0.00661426  0.00157806  0.35113933  1
  Ca  Ca1  1  0.02101575  0.00739857  0.85292643  1
  Ca  Ca2  1  0.66372337  0.32842863  0.68405993  1
  Ca  Ca3  1  0.66799409  0.33660780  0.18307210  1
  Ca  Ca4  1  0.32387595  0.66046201  0.01820502  1
  Ca  Ca5  1  0.33446006  0.67021514  0.51636918  1
  In  In0  1  0.99777834  0.00279105  0.65288206  1
  In  In1  1  0.00821932  0.00411633  0.15314811  1
  In  In2  1  0.67644991  0.34760738  0.98595210  1
  In  In3  1  0.67216653  0.33617416  0.48650324  1
  In  In4  1  0.33857666  0.67394567  0.31875973  1
  In  In5  1  0.33581113  0.67685617  0.81914918  1
  P  P0  1  0.30131304  0.98802505  0.24834731  1
  P  P1  1  0.00875060  0.30561045  0.25383782  1
  P  P2  1  0.29855783  0.31419892  0.74828301  1
  P  P3  1  0.69447430  0.99022388  0.75413299  1
  P  P4  1  0.96932906  0.32332885  0.58532961  1
  P  P5  1  0.67493533  0.63899667  0.58632351  1
  P  P6  1  0.96692248  0.64698040  0.08827271  1
  P  P7  1  0.35230012  0.98037049  0.92478582  1
  P  P8  1  0.63670157  0.98134663  0.41920346  1
  S  S0  1  0.69446707  0.70677763  0.24979640  1
  S  S1  1  0.01012955  0.70489296  0.74937812  1
  S  S2  1  0.35703648  0.03743216  0.58226310  1
  S  S3  1  0.68120870  0.03549099  0.08269849  1
  S  S4  1  0.35866278  0.32174550  0.08295257  1
  S  S5  1  0.62978334  0.65791954  0.91506650  1
  S  S6  1  0.01933707  0.36818814  0.91329911  1
  S  S7  1  0.34685688  0.37310609  0.41869375  1
  S  S8  1  0.02163471  0.65367439  0.41503059  1
  O  O0  1  0.20477551  0.99584234  0.30066581  1
  O  O1  1  0.79207860  0.78859319  0.30293764  1
  O  O2  1  0.98494577  0.20930501  0.31042325  1
  O  O3  1  0.20366797  0.20387493  0.79882516  1
  O  O4  1  0.99680456  0.78782986  0.80217193  1
  O  O5  1  0.79196055  0.99678302  0.80931606  1
  O  O6  1  0.77736558  0.96207979  0.69758135  1
  O  O7  1  0.20393051  0.23437862  0.68817662  1
  O  O8  1  0.02811797  0.80191525  0.69540702  1
  O  O9  1  0.77502392  0.81067036  0.19693447  1
  O  O10  1  0.02406011  0.21175108  0.19881248  1
  O  O11  1  0.20315685  0.96690472  0.18929600  1
  O  O12  1  0.88604800  0.33159752  0.64213295  1
  O  O13  1  0.45631155  0.11779346  0.63538061  1
  O  O14  1  0.65394848  0.54317560  0.64268154  1
  O  O15  1  0.88727464  0.56344523  0.14580564  1
  O  O16  1  0.66434446  0.11968392  0.13545761  1
  O  O17  1  0.45145317  0.33316494  0.13642773  1
  O  O18  1  0.44396505  0.30247283  0.02965906  1
  O  O19  1  0.85691601  0.55065214  0.03350435  1
  O  O20  1  0.69490565  0.13268176  0.02844201  1
  O  O21  1  0.43777749  0.14160177  0.52958111  1
  O  O22  1  0.68506792  0.54278664  0.53109788  1
  O  O23  1  0.85960829  0.30219394  0.52940999  1
  O  O24  1  0.53263776  0.66553631  0.96424404  1
  O  O25  1  0.12191651  0.45887389  0.96402190  1
  O  O26  1  0.34475797  0.89290971  0.98181410  1
  O  O27  1  0.54897608  0.89002418  0.47476508  1
  O  O28  1  0.33696061  0.45176933  0.47387060  1
  O  O29  1  0.12193572  0.66226719  0.46594483  1
  O  O30  1  0.10091925  0.63735810  0.35911795  1
  O  O31  1  0.53690101  0.89182400  0.36098149  1
  O  O32  1  0.35806442  0.47578496  0.36673799  1
  O  O33  1  0.10026174  0.45393704  0.85686979  1
  O  O34  1  0.37919700  0.88692163  0.87087044  1
  O  O35  1  0.53930191  0.63964466  0.85752446  1
  O  O36  1  0.99655153  0.79776001  0.41410624  1
  O  O37  1  0.81569611  0.00732950  0.41770969  1
  O  O38  1  0.19324058  0.20768041  0.41428837  1
  O  O39  1  0.98733300  0.19452163  0.91326589  1
  O  O40  1  0.20119749  0.00386983  0.91880625  1
  O  O41  1  0.79439765  0.81468376  0.91495152  1
  O  O42  1  0.97970431  0.15697809  0.58380481  1
  O  O43  1  0.18972663  0.02554783  0.58546534  1
  O  O44  1  0.83610775  0.81649045  0.58669694  1
  O  O45  1  0.98888034  0.82776035  0.08530796  1
  O  O46  1  0.83469944  0.02130856  0.08567250  1
  O  O47  1  0.19132345  0.16257596  0.08313617  1
  O  O48  1  0.68582632  0.15162840  0.75051920  1
  O  O49  1  0.48150831  0.35415314  0.74781387  1
  O  O50  1  0.85960400  0.53622044  0.74564397  1
  O  O51  1  0.67442834  0.53927223  0.24501012  1
  O  O52  1  0.85526569  0.33029062  0.24728473  1
  O  O53  1  0.48193720  0.13700076  0.24740509  1
  O  O54  1  0.65369359  0.51031554  0.91829593  1
  O  O55  1  0.85184679  0.35775622  0.91509990  1
  O  O56  1  0.52160645  0.15580847  0.92295050  1
  O  O57  1  0.65525687  0.16164151  0.41815204  1
  O  O58  1  0.49807837  0.35467360  0.41833424  1
  O  O59  1  0.85525587  0.49408568  0.41656067  1
  O  O60  1  0.33375387  0.46576222  0.07907907  1
  O  O61  1  0.14436988  0.66962484  0.08447085  1
  O  O62  1  0.53019178  0.86760652  0.07926336  1
  O  O63  1  0.33845338  0.87036707  0.57742933  1
  O  O64  1  0.52194977  0.66612562  0.58147835  1
  O  O65  1  0.14849254  0.47311641  0.58135244  1
  O  O66  1  0.31390267  0.82263452  0.25027283  1
  O  O67  1  0.52622688  0.69497414  0.25222593  1
  O  O68  1  0.16949692  0.48414871  0.25559842  1
  O  O69  1  0.29864731  0.48642420  0.75185291  1
  O  O70  1  0.15958549  0.68150469  0.75187674  1
  O  O71  1  0.51579947  0.82882367  0.75336570  1
loop_
_geom_bond_atom_site_label_1
_geom_bond_atom_site_label_2
_geom_bond_distance
_geom_bond_site_symmetry_2
Na0 O53 2.357119 1_555
Na0 O52 2.581664 1_555
Na0 O67 2.584195 1_545
Na0 O31 2.624433 1_545
Na0 O66 2.708381 1_545
Na0 O16 2.926019 1_555
Na0 O2 2.938292 1_555
Na0 O9 2.979107 1_545
Na1 O15 2.343378 1_455
Na1 O52 2.450365 1_455
Na1 O66 2.493799 1_555
Na1 O68 2.547564 1_555
Na1 O51 2.736204 1_455
Na1 O30 2.836875 1_555
Na1 O11 2.936764 1_555
Na2 O49 2.360267 1_555
Na2 O14 2.452245 1_555
Na2 O71 2.473355 1_555
Na2 O50 2.711601 1_555
Na2 O6 2.730647 1_555
Na2 O69 2.739521 1_555
Na2 O35 2.804461 1_555
Na3 O69 2.472903 1_655
Na3 O48 2.477209 1_555
Na3 O12 2.512638 1_555
Na3 O50 2.587552 1_555
Na3 O70 2.687931 1_655
Na3 O33 2.715630 1_655
Na3 O7 2.949296 1_655
Na4 O65 2.354371 1_555
Na4 O7 2.492183 1_555
Na4 O43 2.593687 1_555
Na4 O64 2.613500 1_555
Na4 O42 2.680585 1_455
Na4 O28 2.780014 1_555
Na4 O21 2.979380 1_555
Na4 O14 2.986183 1_555
Na5 O64 2.431988 1_555
Na5 O42 2.475440 1_565
Na5 O27 2.492222 1_555
Na5 O44 2.535669 1_555
Na5 O63 2.764097 1_555
Na5 O23 2.894047 1_565
Na5 O6 2.949293 1_555
Na6 O61 2.369944 1_555
Na6 O26 2.405081 1_554
Na6 O47 2.530956 1_565
Na6 O45 2.540215 1_455
Na6 O62 2.652311 1_555
Na6 O11 2.664233 1_555
Na7 O39 2.398475 1_555
Na7 O56 2.454789 1_555
Na7 O5 2.478929 1_545
Na7 O41 2.550396 1_545
Na7 O34 2.619418 1_545
Na7 O55 2.702693 1_555
Na7 O20 2.921094 1_556
Na8 O37 2.340984 1_555
Na8 O2 2.468473 1_555
Na8 O59 2.502082 1_555
Na8 O57 2.512107 1_555
Na8 O38 2.614794 1_655
Na8 O23 2.869534 1_555
Na9 O44 2.381198 1_555
Na9 O36 2.496421 1_555
Na9 O37 2.510773 1_565
Na9 O42 2.635484 1_565
Na9 O43 2.670732 1_665
Na9 O38 2.956784 1_665
Na10 O45 2.375859 1_456
Na10 O40 2.485510 1_565
Na10 O47 2.525512 1_566
Na10 O41 2.616682 1_455
Na10 O46 2.693902 1_466
Na10 O39 2.891440 1_465
Na11 O56 2.396730 1_555
Na11 O49 2.439935 1_555
Na11 O48 2.571880 1_555
Na11 O54 2.652289 1_555
Na11 O55 2.761609 1_555
Na11 O50 3.005776 1_555
Na12 O58 2.374847 1_555
Na12 O53 2.424085 1_555
Na12 O57 2.459589 1_555
Na12 O59 2.719727 1_555
Na12 O51 2.841816 1_555
Na12 O52 2.872844 1_555
Na13 O68 2.416844 1_555
Na13 O61 2.532454 1_555
Na13 O60 2.534713 1_555
Na13 O66 2.620698 1_555
Na13 O67 2.673542 1_555
Na13 O62 2.968671 1_555
Na14 O70 2.497657 1_555
Na14 O69 2.556931 1_555
Na14 O65 2.563067 1_555
Na14 O71 2.572100 1_555
Na14 O64 2.690310 1_555
Na14 O63 2.698695 1_555
Ca0 O0 2.189059 1_545
Ca0 O2 2.244104 1_455
Ca0 O1 2.246299 1_445
Ca0 O38 2.303436 1_555
Ca0 O36 2.350301 1_445
Ca0 O37 2.350677 1_455
Ca1 O3 2.161848 1_555
Ca1 O4 2.237160 1_445
Ca1 O40 2.251892 1_555
Ca1 O5 2.294395 1_445
Ca1 O39 2.339092 1_455
Ca1 O41 2.430694 1_445
Ca2 O13 2.213491 1_555
Ca2 O14 2.254625 1_555
Ca2 O12 2.257074 1_555
Ca2 O50 2.318718 1_555
Ca2 O48 2.326315 1_555
Ca2 O49 2.326317 1_555
Ca3 O15 2.244342 1_555
Ca3 O17 2.250846 1_555
Ca3 O16 2.256346 1_555
Ca3 O52 2.287335 1_555
Ca3 O51 2.309971 1_555
Ca3 O53 2.328541 1_555
Ca4 O25 2.220899 1_554
Ca4 O26 2.234492 1_554
Ca4 O24 2.272710 1_554
Ca4 O61 2.278585 1_555
Ca4 O60 2.326369 1_555
Ca4 O62 2.346223 1_555
Ca5 O27 2.234892 1_555
Ca5 O28 2.242681 1_555
Ca5 O29 2.242786 1_555
Ca5 O63 2.288299 1_555
Ca5 O64 2.293518 1_555
Ca5 O65 2.327858 1_555
In0 O6 2.141774 1_545
In0 O7 2.175954 1_655
In0 O44 2.195361 1_545
In0 O42 2.199290 1_555
In0 O8 2.247021 1_645
In0 O43 2.280562 1_655
In1 O10 2.113776 1_555
In1 O11 2.161470 1_545
In1 O45 2.173962 1_445
In1 O9 2.246112 1_445
In1 O47 2.268936 1_555
In1 O46 2.282698 1_455
In2 O19 2.071018 1_556
In2 O56 2.153754 1_555
In2 O18 2.216560 1_556
In2 O54 2.250509 1_555
In2 O55 2.260096 1_555
In2 O20 2.306630 1_556
In3 O22 2.104673 1_555
In3 O23 2.146387 1_555
In3 O57 2.177039 1_555
In3 O21 2.248407 1_555
In3 O59 2.266324 1_555
In3 O58 2.302412 1_555
In4 O31 2.143623 1_555
In4 O66 2.179149 1_555
In4 O68 2.184565 1_555
In4 O32 2.231422 1_555
In4 O67 2.242437 1_555
In4 O30 2.250928 1_555
In5 O34 2.119122 1_555
In5 O71 2.171740 1_555
In5 O69 2.212823 1_555
In5 O70 2.250182 1_555
In5 O35 2.253141 1_555
In5 O33 2.302127 1_555
O0 P0 1.513001 1_555
O1 S0 1.461957 1_555
O2 P1 1.528916 1_655
O3 P2 1.508539 1_555
O4 S1 1.456392 1_655
O5 P3 1.526911 1_555
O6 P3 1.584190 1_555
O7 P2 1.582141 1_555
O8 S1 1.491443 1_555
O9 S0 1.498528 1_555
O10 P1 1.562282 1_555
O11 P0 1.574054 1_555
O12 P4 1.527340 1_555
O13 S2 1.464531 1_555
O14 P5 1.526177 1_555
O15 P6 1.522025 1_555
O16 S3 1.474198 1_555
O17 S4 1.459232 1_555
O18 S4 1.505542 1_555
O19 P6 1.562140 1_555
O20 S3 1.505682 1_555
O21 S2 1.496546 1_555
O22 P5 1.561542 1_555
O23 P4 1.573507 1_555
O24 S5 1.460308 1_555
O25 S6 1.452338 1_555
O26 P7 1.522214 1_555
O27 P8 1.522803 1_555
O28 S7 1.469754 1_555
O29 S8 1.458767 1_555
O30 S8 1.513719 1_555
O31 P8 1.579185 1_555
O32 S7 1.498353 1_555
O33 S6 1.508896 1_555
O34 P7 1.583429 1_555
O35 S5 1.513510 1_555
O36 S8 1.465669 1_655
O37 P8 1.550302 1_545
O38 S7 1.480713 1_555
O39 S6 1.483223 1_655
O40 P7 1.525033 1_545
O41 S5 1.487815 1_555
O42 P4 1.591700 1_555
O43 S2 1.498101 1_555
O44 P5 1.572067 1_555
O45 P6 1.585590 1_555
O46 S3 1.491931 1_555
O47 S4 1.511657 1_555
O48 P3 1.540526 1_545
O49 P2 1.541220 1_555
O50 S1 1.484907 1_655
O51 S0 1.470599 1_555
O52 P1 1.554620 1_655
O53 P0 1.545615 1_545
O54 S5 1.493611 1_555
O55 S6 1.504462 1_655
O56 P7 1.596669 1_545
O57 P8 1.592150 1_545
O58 S7 1.492249 1_555
O59 S8 1.509604 1_655
O60 S4 1.467310 1_555
O61 P6 1.550380 1_455
O62 S3 1.482294 1_565
O63 S2 1.472094 1_565
O64 P5 1.560709 1_555
O65 P4 1.543307 1_455
O66 P0 1.595281 1_555
O67 S0 1.506200 1_555
O68 P1 1.575936 1_555
O69 P2 1.596522 1_555
O70 S1 1.504334 1_555
O71 P3 1.578721 1_555
