# generated using pymatgen
data_Na5MgTi3SiP5O24
_symmetry_space_group_name_H-M   'P 1'
_cell_length_a   8.82427038
_cell_length_b   8.77137007
_cell_length_c   22.15184913
_cell_angle_alpha   90.00824473
_cell_angle_beta   90.27471682
_cell_angle_gamma   119.79813535
_symmetry_Int_Tables_number   1
_chemical_formula_structural   Na5MgTi3SiP5O24
_chemical_formula_sum   'Na15 Mg3 Ti9 Si3 P15 O72'
_cell_volume   1487.85237947
_cell_formula_units_Z   3
loop_
 _symmetry_equiv_pos_site_id
 _symmetry_equiv_pos_as_xyz
  1  'x, y, z'
loop_
 _atom_site_type_symbol
 _atom_site_label
 _atom_site_symmetry_multiplicity
 _atom_site_fract_x
 _atom_site_fract_y
 _atom_site_fract_z
 _atom_site_occupancy
  Na  Na0  1  0.63949606  0.00739260  0.24671772  1
  Na  Na1  1  0.36877719  0.36154466  0.24641031  1
  Na  Na2  1  0.99250755  0.63243192  0.24679190  1
  Na  Na3  1  0.63356809  0.62949833  0.74779315  1
  Na  Na4  1  0.99537957  0.36603968  0.74785590  1
  Na  Na5  1  0.37366993  0.00626976  0.74676569  1
  Na  Na6  1  0.66403394  0.97165868  0.58410651  1
  Na  Na7  1  0.33433893  0.30083498  0.92006615  1
  Na  Na8  1  0.32859803  0.03294420  0.41460104  1
  Na  Na9  1  0.99778993  0.00008227  0.49577934  1
  Na  Na10  1  0.99295712  0.99360403  0.00261132  1
  Na  Na11  1  0.67340371  0.33385055  0.83701021  1
  Na  Na12  1  0.67546477  0.34112114  0.33308381  1
  Na  Na13  1  0.33345312  0.66739244  0.16106014  1
  Na  Na14  1  0.32634752  0.66170714  0.66306985  1
  Mg  Mg0  1  0.99399385  0.99916217  0.35331856  1
  Mg  Mg1  1  0.66675001  0.33218143  0.68234737  1
  Mg  Mg2  1  0.66678499  0.33407094  0.18132482  1
  Ti  Ti0  1  0.99028792  0.99537502  0.85811927  1
  Ti  Ti1  1  0.01109829  0.00081297  0.64262202  1
  Ti  Ti2  1  0.99900486  0.00164612  0.14376903  1
  Ti  Ti3  1  0.67963678  0.33988142  0.98250710  1
  Ti  Ti4  1  0.66465434  0.33507782  0.48239405  1
  Ti  Ti5  1  0.33732603  0.66223284  0.02043081  1
  Ti  Ti6  1  0.32791246  0.66513137  0.51956970  1
  Ti  Ti7  1  0.33248713  0.66474827  0.31576745  1
  Ti  Ti8  1  0.33067117  0.66310812  0.81988639  1
  Si  Si0  1  0.37606153  0.04293527  0.58417655  1
  Si  Si1  1  0.62479931  0.66645421  0.91846889  1
  Si  Si2  1  0.03922025  0.37827839  0.91793059  1
  P  P0  1  0.28944287  0.00067470  0.25160602  1
  P  P1  1  0.71199531  0.71121396  0.25090636  1
  P  P2  1  0.99907155  0.28833157  0.25101892  1
  P  P3  1  0.28783744  0.28855438  0.75092512  1
  P  P4  1  0.00114297  0.71342260  0.75040288  1
  P  P5  1  0.71133571  0.99907950  0.74976173  1
  P  P6  1  0.95987515  0.33727962  0.58438775  1
  P  P7  1  0.66506779  0.62309085  0.58446585  1
  P  P8  1  0.96232994  0.62663070  0.08500805  1
  P  P9  1  0.66430243  0.04045322  0.08459518  1
  P  P10  1  0.37506424  0.33222937  0.08372082  1
  P  P11  1  0.33368021  0.95470615  0.91769108  1
  P  P12  1  0.62655596  0.95629176  0.41811126  1
  P  P13  1  0.33444103  0.37786244  0.41767447  1
  P  P14  1  0.03984746  0.66216372  0.41701827  1
  O  O0  1  0.21330622  0.03191645  0.30851694  1
  O  O1  1  0.82519353  0.79060457  0.30582581  1
  O  O2  1  0.96757943  0.17600316  0.30577393  1
  O  O3  1  0.20322072  0.17469581  0.80694568  1
  O  O4  1  0.97343744  0.80376168  0.80535885  1
  O  O5  1  0.83208254  0.02569052  0.80486781  1
  O  O6  1  0.79253366  0.96555673  0.69293631  1
  O  O7  1  0.16614911  0.19861156  0.69511524  1
  O  O8  1  0.03155577  0.83285978  0.69414172  1
  O  O9  1  0.79563641  0.83276298  0.19455413  1
  O  O10  1  0.03598521  0.20401435  0.19441305  1
  O  O11  1  0.16633528  0.96445837  0.19592430  1
  O  O12  1  0.88951301  0.37008191  0.64255991  1
  O  O13  1  0.49206227  0.11037330  0.64416767  1
  O  O14  1  0.63473568  0.51974979  0.64237058  1
  O  O15  1  0.88676111  0.52094383  0.14215329  1
  O  O16  1  0.63590721  0.11484163  0.14254350  1
  O  O17  1  0.47991934  0.36374968  0.14151676  1
  O  O18  1  0.45964683  0.30416142  0.02643152  1
  O  O19  1  0.83879826  0.53374847  0.02894950  1
  O  O20  1  0.69426121  0.16238678  0.02896492  1
  O  O21  1  0.46964941  0.16633662  0.52388036  1
  O  O22  1  0.69644481  0.53308575  0.52897979  1
  O  O23  1  0.83427723  0.30177574  0.52948590  1
  O  O24  1  0.52902555  0.70036619  0.97433699  1
  O  O25  1  0.17495484  0.47052599  0.97296595  1
  O  O26  1  0.30097665  0.83608684  0.97149518  1
  O  O27  1  0.53030583  0.84281834  0.47383932  1
  O  O28  1  0.31369585  0.47497185  0.47185077  1
  O  O29  1  0.16367322  0.68953991  0.47129843  1
  O  O30  1  0.13098342  0.63604806  0.35958289  1
  O  O31  1  0.50237504  0.86790803  0.36109378  1
  O  O32  1  0.36122884  0.49354084  0.35976388  1
  O  O33  1  0.13050690  0.49723565  0.85603711  1
  O  O34  1  0.36118254  0.86970421  0.85861588  1
  O  O35  1  0.50007215  0.63269388  0.85713458  1
  O  O36  1  0.03283055  0.83118642  0.41267930  1
  O  O37  1  0.80324068  0.97348597  0.41331134  1
  O  O38  1  0.17760651  0.19484593  0.41310308  1
  O  O39  1  0.03227010  0.18921902  0.90764003  1
  O  O40  1  0.17134431  0.97817267  0.90817139  1
  O  O41  1  0.81643734  0.83841582  0.90857483  1
  O  O42  1  0.96913923  0.16337912  0.58922571  1
  O  O43  1  0.18020166  0.02234411  0.58968205  1
  O  O44  1  0.82835698  0.81242504  0.58916443  1
  O  O45  1  0.97582244  0.81123633  0.08960284  1
  O  O46  1  0.83316864  0.02326910  0.08941696  1
  O  O47  1  0.18829091  0.16557412  0.08967327  1
  O  O48  1  0.69446953  0.16504847  0.74788539  1
  O  O49  1  0.47161830  0.31194117  0.74595597  1
  O  O50  1  0.83946472  0.53031406  0.74558745  1
  O  O51  1  0.68235749  0.52372043  0.24334507  1
  O  O52  1  0.84225195  0.31806817  0.24349774  1
  O  O53  1  0.47467508  0.15828267  0.24407365  1
  O  O54  1  0.63294112  0.48601621  0.92407848  1
  O  O55  1  0.84614800  0.35409798  0.92406608  1
  O  O56  1  0.49395358  0.14029163  0.92241994  1
  O  O57  1  0.63180973  0.13748062  0.42284744  1
  O  O58  1  0.50420746  0.36373427  0.42260862  1
  O  O59  1  0.86097830  0.49543136  0.42380508  1
  O  O60  1  0.35191686  0.49647042  0.07559346  1
  O  O61  1  0.14427269  0.64919000  0.07389491  1
  O  O62  1  0.50275397  0.85710073  0.07467322  1
  O  O63  1  0.35427933  0.84751217  0.57220795  1
  O  O64  1  0.50605675  0.65080287  0.57434444  1
  O  O65  1  0.14407830  0.49425793  0.57359131  1
  O  O66  1  0.30617467  0.82850989  0.25653324  1
  O  O67  1  0.52405892  0.69463731  0.25681735  1
  O  O68  1  0.17059348  0.47648906  0.25641463  1
  O  O69  1  0.30286032  0.47461902  0.75402018  1
  O  O70  1  0.16991767  0.69821268  0.75434076  1
  O  O71  1  0.52634847  0.83252030  0.75577778  1
loop_
_geom_bond_atom_site_label_1
_geom_bond_atom_site_label_2
_geom_bond_distance
_geom_bond_site_symmetry_2
Na0 O53 2.404759 1_555
Na0 O52 2.405744 1_555
Na0 O67 2.416264 1_545
Na0 O16 2.498821 1_555
Na0 O66 2.565130 1_545
Na0 O9 2.773481 1_545
Na0 O31 2.817666 1_545
Na0 O2 2.826279 1_555
Na1 O53 2.389752 1_555
Na1 O51 2.403062 1_555
Na1 O68 2.424891 1_555
Na1 O17 2.522758 1_555
Na1 O67 2.546515 1_555
Na1 O32 2.779820 1_555
Na1 O10 2.791779 1_555
Na1 O0 2.865544 1_555
Na2 O52 2.394140 1_555
Na2 O51 2.410316 1_555
Na2 O66 2.434860 1_655
Na2 O15 2.504304 1_555
Na2 O68 2.553274 1_655
Na2 O30 2.769294 1_655
Na2 O11 2.771604 1_655
Na2 O1 2.805111 1_555
Na3 O50 2.373221 1_555
Na3 O71 2.402856 1_555
Na3 O49 2.417766 1_555
Na3 O14 2.527822 1_555
Na3 O69 2.538591 1_555
Na3 O35 2.704677 1_555
Na3 O6 2.835669 1_555
Na3 O4 2.891999 1_555
Na4 O48 2.346512 1_555
Na4 O69 2.390760 1_655
Na4 O50 2.437494 1_555
Na4 O12 2.515271 1_555
Na4 O70 2.533695 1_655
Na4 O33 2.664000 1_655
Na4 O7 2.829899 1_655
Na4 O5 2.885583 1_555
Na5 O49 2.373376 1_555
Na5 O70 2.395107 1_545
Na5 O48 2.456562 1_555
Na5 O13 2.483105 1_555
Na5 O71 2.493169 1_545
Na5 O34 2.730980 1_545
Na5 O8 2.861499 1_545
Na5 O3 2.906725 1_555
Na6 O42 2.363593 1_565
Na6 O63 2.400258 1_555
Na6 O64 2.451171 1_555
Na6 O44 2.465213 1_555
Na6 O6 2.671075 1_555
Na6 O27 2.698554 1_555
Na6 O13 2.721660 1_565
Na6 O23 2.792890 1_565
Na7 O54 2.309351 1_555
Na7 O39 2.353412 1_555
Na7 O56 2.437239 1_555
Na7 O40 2.469508 1_545
Na7 O18 2.591929 1_556
Na7 O3 2.746106 1_555
Na7 O25 2.768137 1_555
Na7 O35 2.888766 1_555
Na8 O36 2.313811 1_545
Na8 O57 2.364314 1_555
Na8 O38 2.381849 1_555
Na8 O58 2.525841 1_555
Na8 O0 2.554481 1_555
Na8 O21 2.702045 1_555
Na8 O31 2.841673 1_545
Na8 O29 2.903457 1_545
Na9 O37 2.431191 1_545
Na9 O38 2.474868 1_655
Na9 O36 2.477673 1_645
Na9 O43 2.571261 1_655
Na9 O42 2.600871 1_555
Na9 O44 2.609358 1_545
Na10 O45 2.461370 1_555
Na10 O46 2.478694 1_565
Na10 O47 2.519714 1_665
Na10 O41 2.545417 1_554
Na10 O39 2.628066 1_664
Na10 O40 2.667589 1_654
Na11 O55 2.403481 1_555
Na11 O54 2.471517 1_555
Na11 O56 2.515391 1_555
Na11 O48 2.529984 1_555
Na11 O50 2.595758 1_555
Na11 O49 2.627017 1_555
Na12 O59 2.513161 1_555
Na12 O51 2.534933 1_555
Na12 O52 2.543406 1_555
Na12 O58 2.565642 1_555
Na12 O57 2.572405 1_555
Na12 O53 2.596248 1_555
Na13 O60 2.470526 1_555
Na13 O62 2.494065 1_555
Na13 O61 2.498935 1_555
Na13 O66 2.621085 1_555
Na13 O67 2.636613 1_555
Na13 O68 2.639947 1_555
Na14 O65 2.508713 1_555
Na14 O63 2.524785 1_555
Na14 O69 2.542028 1_555
Na14 O70 2.561564 1_555
Na14 O64 2.562698 1_555
Na14 O71 2.629316 1_555
Mg0 O2 1.981679 1_565
Mg0 O1 1.987010 1_555
Mg0 O0 2.068489 1_665
Mg0 O37 2.072425 1_555
Mg0 O36 2.124963 1_655
Mg0 O38 2.130702 1_665
Mg1 O13 1.970527 1_555
Mg1 O14 2.007679 1_555
Mg1 O12 2.029430 1_555
Mg1 O50 2.156824 1_555
Mg1 O48 2.161073 1_555
Mg1 O49 2.168264 1_555
Mg2 O17 1.994288 1_555
Mg2 O16 1.996620 1_555
Mg2 O15 2.015417 1_555
Mg2 O51 2.108058 1_555
Mg2 O52 2.123574 1_555
Mg2 O53 2.146783 1_555
O0 P0 1.518817 1_555
O1 P1 1.503165 1_555
O2 P2 1.500208 1_555
O3 P3 1.537204 1_555
O3 Ti0 2.091203 1_445
O4 P4 1.537787 1_655
O4 Ti0 1.990538 1_555
O5 P5 1.555683 1_545
O5 Ti0 1.940208 1_545
O6 P5 1.549947 1_555
O6 Ti1 2.117916 1_665
O7 P3 1.564895 1_555
O7 Ti1 1.964465 1_555
O8 P4 1.564267 1_555
O8 Ti1 1.941169 1_565
O9 P1 1.570613 1_555
O9 Ti2 2.014488 1_565
O10 P2 1.571143 1_455
O10 Ti2 1.983950 1_455
O11 P0 1.564128 1_565
O11 Ti2 2.020866 1_465
O12 P6 1.521169 1_555
O13 Si0 1.596448 1_555
O14 P7 1.516932 1_555
O15 P8 1.516743 1_555
O16 P9 1.517119 1_555
O17 P10 1.518547 1_555
O18 P10 1.555584 1_555
O18 Ti3 2.055981 1_554
O19 P8 1.580551 1_555
O19 Ti3 1.880037 1_554
O20 P9 1.566797 1_555
O20 Ti3 1.923143 1_554
O21 Si0 1.661381 1_555
O21 Ti4 1.865612 1_555
O22 P7 1.559132 1_555
O22 Ti4 1.916397 1_555
O23 P6 1.564719 1_555
O23 Ti4 1.957959 1_555
O24 Si1 1.610626 1_555
O24 Ti5 1.862872 1_556
O25 Si2 1.611863 1_555
O25 Ti5 1.891151 1_556
O26 P11 1.513799 1_555
O26 Ti5 2.021558 1_556
O27 P12 1.551187 1_555
O27 Ti6 1.973895 1_555
O28 P13 1.534955 1_555
O28 Ti6 1.924957 1_555
O29 P14 1.556892 1_555
O29 Ti6 1.892955 1_555
O30 P14 1.584548 1_555
O30 Ti7 1.933617 1_555
O31 P12 1.593484 1_555
O31 Ti7 1.939320 1_555
O32 P13 1.579858 1_555
O32 Ti7 1.909436 1_555
O33 Si2 1.671236 1_555
O33 Ti8 1.826934 1_555
O34 P11 1.584265 1_555
O34 Ti8 1.898623 1_555
O35 Si1 1.675309 1_555
O35 Ti8 1.836060 1_555
O36 P14 1.517327 1_555
O37 P12 1.494248 1_555
O38 P13 1.514297 1_555
O39 Si2 1.644503 1_555
O39 Ti0 1.897648 1_445
O40 P11 1.558542 1_555
O40 Ti0 2.006829 1_455
O41 Si1 1.628299 1_555
O41 Ti0 1.848199 1_555
O42 P6 1.571224 1_555
O42 Ti1 2.022489 1_655
O43 Si0 1.651170 1_555
O43 Ti1 1.836951 1_555
O44 P7 1.570104 1_555
O44 Ti1 2.016410 1_665
O45 P8 1.566752 1_555
O45 Ti2 1.982038 1_565
O46 P9 1.573626 1_555
O46 Ti2 1.971320 1_555
O47 P10 1.574232 1_555
O47 Ti2 1.981428 1_455
O48 P5 1.535728 1_545
O49 P3 1.534695 1_555
O50 P4 1.532151 1_655
O51 P1 1.540487 1_555
O52 P2 1.538598 1_555
O53 P0 1.538678 1_555
O54 Si1 1.624343 1_555
O54 Ti3 2.002082 1_555
O55 Si2 1.615305 1_655
O55 Ti3 1.920057 1_555
O56 P11 1.539939 1_545
O56 Ti3 2.156085 1_555
O57 P12 1.570231 1_545
O57 Ti4 2.079502 1_555
O58 P13 1.566667 1_555
O58 Ti4 2.038992 1_555
O59 P14 1.536499 1_655
O59 Ti4 2.065014 1_555
O60 P10 1.562594 1_555
O60 Ti5 1.951620 1_555
O61 P8 1.538011 1_455
O61 Ti5 2.035560 1_555
O62 P9 1.544418 1_565
O62 Ti5 1.999745 1_555
O63 Si0 1.648451 1_565
O63 Ti6 1.897323 1_555
O64 P7 1.553765 1_555
O64 Ti6 2.034041 1_555
O65 P6 1.540969 1_455
O65 Ti6 1.978029 1_555
O66 P0 1.592380 1_565
O66 Ti7 2.041575 1_555
O67 P1 1.597189 1_555
O67 Ti7 2.052437 1_555
O68 P2 1.595133 1_455
O68 Ti7 2.032984 1_555
O69 P3 1.571841 1_555
O69 Ti8 2.124880 1_555
O70 P4 1.561954 1_555
O70 Ti8 2.151679 1_555
O71 P5 1.564827 1_555
O71 Ti8 2.163412 1_555
