# generated using pymatgen
data_Rb2O3
_symmetry_space_group_name_H-M   'P 1'
_cell_length_a   8.12605320
_cell_length_b   8.12605320
_cell_length_c   8.12605320
_cell_angle_alpha   109.47122063
_cell_angle_beta   109.47122063
_cell_angle_gamma   109.47122063
_symmetry_Int_Tables_number   1
_chemical_formula_structural   Rb2O3
_chemical_formula_sum   'Rb8 O12'
_cell_volume   413.06375844
_cell_formula_units_Z   4
loop_
 _symmetry_equiv_pos_site_id
 _symmetry_equiv_pos_as_xyz
  1  'x, y, z'
loop_
 _atom_site_type_symbol
 _atom_site_label
 _atom_site_symmetry_multiplicity
 _atom_site_fract_x
 _atom_site_fract_y
 _atom_site_fract_z
 _atom_site_occupancy
  Rb  Rb0  1  0.50000000  0.00000000  0.10234200  1
  Rb  Rb1  1  0.60234200  0.50000000  0.00000000  1
  Rb  Rb2  1  0.00000000  0.60234200  0.50000000  1
  Rb  Rb3  1  0.89765800  0.89765800  0.89765800  1
  Rb  Rb4  1  0.00000000  0.10234200  0.50000000  1
  Rb  Rb5  1  0.39765800  0.39765800  0.39765800  1
  Rb  Rb6  1  0.10234200  0.50000000  0.00000000  1
  Rb  Rb7  1  0.50000000  0.00000000  0.60234200  1
  O  O0  1  0.55003200  0.75000000  0.30003200  1
  O  O1  1  0.75000000  0.44996800  0.69996800  1
  O  O2  1  0.25000000  0.05003200  0.80003200  1
  O  O3  1  0.44996800  0.69996800  0.75000000  1
  O  O4  1  0.05003200  0.80003200  0.25000000  1
  O  O5  1  0.69996800  0.75000000  0.44996800  1
  O  O6  1  0.30003200  0.55003200  0.75000000  1
  O  O7  1  0.25000000  0.19996800  0.94996800  1
  O  O8  1  0.19996800  0.94996800  0.25000000  1
  O  O9  1  0.75000000  0.30003200  0.55003200  1
  O  O10  1  0.94996800  0.25000000  0.19996800  1
  O  O11  1  0.80003200  0.25000000  0.05003200  1
loop_
_geom_bond_atom_site_label_1
_geom_bond_atom_site_label_2
_geom_bond_distance
_geom_bond_site_symmetry_2
O0 O5 1.406873 1_555
O0 Rb7 2.866455 1_565
O0 Rb1 2.866455 1_555
O0 Rb6 3.027188 1_555
O0 Rb0 3.027188 1_565
O0 Rb5 3.188383 1_555
O0 Rb4 3.188383 1_665
O1 O9 1.406873 1_555
O1 Rb6 2.866455 1_656
O1 Rb5 2.866455 1_555
O1 Rb1 3.027188 1_556
O1 Rb3 3.027188 1_555
O1 Rb7 3.188383 1_555
O1 Rb2 3.188383 1_655
O2 O7 1.406873 1_555
O2 Rb4 2.866455 1_555
O2 Rb0 2.866455 1_556
O2 Rb7 3.027188 1_555
O2 Rb2 3.027188 1_545
O2 Rb3 3.188383 1_445
O2 Rb1 3.188383 1_556
O3 O6 1.406873 1_555
O3 Rb0 2.866455 1_566
O3 Rb5 2.866455 1_555
O3 Rb7 3.027188 1_565
O3 Rb3 3.027188 1_555
O3 Rb2 3.188383 1_555
O3 Rb1 3.188383 1_556
O4 O8 1.406873 1_555
O4 Rb6 2.866455 1_555
O4 Rb4 2.866455 1_565
O4 Rb1 3.027188 1_455
O4 Rb2 3.027188 1_555
O4 Rb7 3.188383 1_565
O4 Rb3 3.188383 1_454
O5 Rb4 2.866455 1_665
O5 Rb5 2.866455 1_555
O5 Rb2 3.027188 1_655
O5 Rb3 3.027188 1_555
O5 Rb1 3.188383 1_555
O5 Rb7 3.188383 1_565
O6 Rb1 2.866455 1_556
O6 Rb2 2.866455 1_555
O6 Rb4 3.027188 1_555
O6 Rb6 3.027188 1_556
O6 Rb5 3.188383 1_555
O6 Rb0 3.188383 1_566
O7 Rb1 2.866455 1_556
O7 Rb3 2.866455 1_445
O7 Rb5 3.027188 1_556
O7 Rb6 3.027188 1_556
O7 Rb0 3.188383 1_556
O7 Rb4 3.188383 1_555
O8 Rb7 2.866455 1_565
O8 Rb3 2.866455 1_454
O8 Rb0 3.027188 1_565
O8 Rb5 3.027188 1_565
O8 Rb4 3.188383 1_565
O8 Rb6 3.188383 1_555
O9 Rb2 2.866455 1_655
O9 Rb7 2.866455 1_555
O9 Rb4 3.027188 1_655
O9 Rb0 3.027188 1_555
O9 Rb5 3.188383 1_555
O9 Rb6 3.188383 1_656
O10 O11 1.406873 1_555
O10 Rb3 2.866455 1_544
O10 Rb2 2.866455 1_655
O10 Rb4 3.027188 1_655
O10 Rb5 3.027188 1_655
O10 Rb6 3.188383 1_655
O10 Rb0 3.188383 1_555
O11 Rb0 2.866455 1_555
O11 Rb6 2.866455 1_655
O11 Rb1 3.027188 1_555
O11 Rb7 3.027188 1_554
O11 Rb3 3.188383 1_544
O11 Rb2 3.188383 1_655
