# generated using pymatgen
data_Ba2HoMgRuO6
_symmetry_space_group_name_H-M   'P 1'
_cell_length_a   6.27754676
_cell_length_b   6.09703202
_cell_length_c   6.27754663
_cell_angle_alpha   60.94674934
_cell_angle_beta   56.12576784
_cell_angle_gamma   60.94675311
_symmetry_Int_Tables_number   1
_chemical_formula_structural   Ba2HoMgRuO6
_chemical_formula_sum   'Ba2 Ho1 Mg1 Ru1 O6'
_cell_volume   166.56188179
_cell_formula_units_Z   1
loop_
 _symmetry_equiv_pos_site_id
 _symmetry_equiv_pos_as_xyz
  1  'x, y, z'
loop_
 _atom_site_type_symbol
 _atom_site_label
 _atom_site_symmetry_multiplicity
 _atom_site_fract_x
 _atom_site_fract_y
 _atom_site_fract_z
 _atom_site_occupancy
  Ba  Ba0  1  0.69028700  0.80971300  0.69028700  1
  Ba  Ba1  1  0.30971300  0.19028700  0.30971300  1
  Ho  Ho0  1  0.50000000  0.50000000  0.50000000  1
  Mg  Mg0  1  0.00000000  0.50000000  0.00000000  1
  Ru  Ru0  1  0.00000000  0.00000000  0.00000000  1
  O  O0  1  0.23024300  0.74288900  0.76975700  1
  O  O1  1  0.23668600  0.76331400  0.23668600  1
  O  O2  1  0.76331400  0.23668600  0.76331400  1
  O  O3  1  0.23024300  0.25711100  0.76975700  1
  O  O4  1  0.76975700  0.25711100  0.23024300  1
  O  O5  1  0.76975700  0.74288900  0.23024300  1
loop_
_geom_bond_atom_site_label_1
_geom_bond_atom_site_label_2
_geom_bond_distance
_geom_bond_site_symmetry_2
Ba0 O4 2.845076 1_565
Ba0 O3 2.845076 1_565
Ba0 O5 2.845076 1_555
Ba0 O0 2.845076 1_555
Ba0 Mg0 2.864983 1_656
Ba0 O1 2.984238 1_556
Ba0 O1 2.984238 1_655
Ba0 O2 3.122466 1_555
Ba0 O2 3.122466 1_565
Ba1 O0 2.845076 1_545
Ba1 O5 2.845076 1_545
Ba1 O3 2.845076 1_555
Ba1 O4 2.845076 1_555
Ba1 Mg0 2.864983 1_555
Ba1 O2 2.984238 1_554
Ba1 O2 2.984238 1_455
Ba1 O1 3.122466 1_555
Ba1 O1 3.122466 1_545
Ho0 O5 2.175241 1_555
Ho0 O3 2.175241 1_555
Ho0 O0 2.175241 1_555
Ho0 O4 2.175241 1_555
Ho0 O2 2.435772 1_555
Ho0 O1 2.435772 1_555
Mg0 O0 2.010580 1_554
Mg0 O4 2.010580 1_455
Mg0 O5 2.010580 1_455
Mg0 O3 2.010580 1_554
O0 Ru0 2.075277 1_566
O1 Ru0 2.189451 1_565
O2 Ru0 2.189451 1_656
O3 Ru0 2.075277 1_556
O4 Ru0 2.075277 1_655
O5 Ru0 2.075277 1_665
