# generated using pymatgen
data_Na6Ta6Al2Si9(SO16)3
_symmetry_space_group_name_H-M   'P 1'
_cell_length_a   17.67281948
_cell_length_b   8.83053061
_cell_length_c   22.65603478
_cell_angle_alpha   90.03736852
_cell_angle_beta   90.09588167
_cell_angle_gamma   119.99910924
_symmetry_Int_Tables_number   1
_chemical_formula_structural   Na6Ta6Al2Si9(SO16)3
_chemical_formula_sum   'Na18 Ta18 Al6 Si27 S9 O144'
_cell_volume   3062.03269891
_cell_formula_units_Z   3
loop_
 _symmetry_equiv_pos_site_id
 _symmetry_equiv_pos_as_xyz
  1  'x, y, z'
loop_
 _atom_site_type_symbol
 _atom_site_label
 _atom_site_symmetry_multiplicity
 _atom_site_fract_x
 _atom_site_fract_y
 _atom_site_fract_z
 _atom_site_occupancy
  Na  Na0  1  0.32037374  0.01038455  0.25007608  1
  Na  Na1  1  0.68343313  0.36726764  0.24745095  1
  Na  Na2  1  0.49460486  0.62246225  0.24962534  1
  Na  Na3  1  0.81992468  0.63063659  0.74876040  1
  Na  Na4  1  0.99472232  0.36636168  0.74806681  1
  Na  Na5  1  0.18520159  0.00410575  0.74509515  1
  Na  Na6  1  0.00241785  0.00723639  0.49951094  1
  Na  Na7  1  0.50353047  0.99945270  0.49689072  1
  Na  Na8  1  0.00388968  0.01161417  0.99452577  1
  Na  Na9  1  0.50249831  0.99769720  0.99836561  1
  Na  Na10  1  0.33744524  0.33351792  0.83170122  1
  Na  Na11  1  0.83117004  0.32511373  0.82778807  1
  Na  Na12  1  0.33093285  0.33919415  0.33171362  1
  Na  Na13  1  0.83693445  0.34026565  0.33519852  1
  Na  Na14  1  0.16735152  0.66021143  0.16663286  1
  Na  Na15  1  0.67017403  0.66867107  0.16504807  1
  Na  Na16  1  0.17148959  0.67216111  0.66381563  1
  Na  Na17  1  0.66255520  0.66854720  0.66298971  1
  Ta  Ta0  1  0.00179479  0.98692706  0.35718073  1
  Ta  Ta1  1  0.50200548  0.01649318  0.85521362  1
  Ta  Ta2  1  0.99777820  0.99254546  0.64397093  1
  Ta  Ta3  1  0.49894436  0.01173550  0.64012690  1
  Ta  Ta4  1  0.99983157  0.99812667  0.14478939  1
  Ta  Ta5  1  0.49768830  0.00239606  0.14456398  1
  Ta  Ta6  1  0.32965294  0.34080426  0.97629209  1
  Ta  Ta7  1  0.82979453  0.31415526  0.97763854  1
  Ta  Ta8  1  0.33531086  0.34619287  0.48152753  1
  Ta  Ta9  1  0.82898940  0.31689626  0.47668630  1
  Ta  Ta10  1  0.16578720  0.65510015  0.01559907  1
  Ta  Ta11  1  0.66012629  0.66499038  0.02678108  1
  Ta  Ta12  1  0.16043886  0.65407609  0.52715104  1
  Ta  Ta13  1  0.65955620  0.66812684  0.51816352  1
  Ta  Ta14  1  0.16498091  0.66137505  0.31285944  1
  Ta  Ta15  1  0.66887336  0.65914226  0.31674509  1
  Ta  Ta16  1  0.16891928  0.67879795  0.81501534  1
  Ta  Ta17  1  0.66233067  0.66700596  0.81002725  1
  Al  Al0  1  0.49556229  0.99803663  0.35528696  1
  Al  Al1  1  0.99711788  0.99608665  0.85372889  1
  Al  Al2  1  0.33598424  0.32197064  0.67681537  1
  Al  Al3  1  0.83218053  0.31130858  0.69120322  1
  Al  Al4  1  0.33201587  0.35328830  0.19171407  1
  Al  Al5  1  0.82961575  0.33842647  0.18143829  1
  Si  Si0  1  0.14849311  0.00899620  0.24848735  1
  Si  Si1  1  0.35832941  0.71342429  0.25351569  1
  Si  Si2  1  0.85596236  0.70022294  0.24801697  1
  Si  Si3  1  0.49699113  0.28435214  0.25271229  1
  Si  Si4  1  0.64849495  0.28563613  0.74771300  1
  Si  Si5  1  0.99678578  0.71075282  0.75265869  1
  Si  Si6  1  0.35666015  0.01241301  0.74738630  1
  Si  Si7  1  0.85892913  0.00396645  0.75336315  1
  Si  Si8  1  0.47662710  0.34025082  0.58442112  1
  Si  Si9  1  0.96977839  0.32850780  0.58805858  1
  Si  Si10  1  0.19164422  0.05015494  0.58485154  1
  Si  Si11  1  0.69318703  0.04964927  0.58761926  1
  Si  Si12  1  0.33312625  0.61424789  0.58948115  1
  Si  Si13  1  0.46992135  0.61133676  0.08811100  1
  Si  Si14  1  0.83345245  0.05139749  0.08862693  1
  Si  Si15  1  0.19269913  0.33608572  0.08727399  1
  Si  Si16  1  0.69138639  0.33366258  0.08525140  1
  Si  Si17  1  0.31309513  0.67131127  0.91463742  1
  Si  Si18  1  0.01939933  0.36318909  0.91276180  1
  Si  Si19  1  0.52263364  0.38270041  0.91814739  1
  Si  Si20  1  0.15937786  0.95740186  0.91788150  1
  Si  Si21  1  0.66422576  0.94970421  0.91621724  1
  Si  Si22  1  0.81101911  0.95068004  0.41706318  1
  Si  Si23  1  0.16801019  0.37700920  0.41705847  1
  Si  Si24  1  0.65992167  0.36108403  0.41813426  1
  Si  Si25  1  0.02238840  0.66017060  0.41864488  1
  Si  Si26  1  0.51799195  0.67493662  0.41286152  1
  S  S0  1  0.64599942  0.00385843  0.25019154  1
  S  S1  1  0.99628935  0.28666773  0.24935123  1
  S  S2  1  0.14522115  0.28745102  0.75094662  1
  S  S3  1  0.49531140  0.70749500  0.74972475  1
  S  S4  1  0.83152876  0.61632813  0.58445790  1
  S  S5  1  0.97634179  0.61813569  0.08445732  1
  S  S6  1  0.33106588  0.04590766  0.08472511  1
  S  S7  1  0.81215646  0.67034786  0.91692158  1
  S  S8  1  0.31264735  0.95462216  0.41660130  1
  O  O0  1  0.09877238  0.03370847  0.30577885  1
  O  O1  1  0.60716847  0.03493374  0.30233032  1
  O  O2  1  0.42249982  0.81153449  0.30774279  1
  O  O3  1  0.91661605  0.80258505  0.30567279  1
  O  O4  1  0.48429337  0.15738912  0.30697862  1
  O  O5  1  0.98436356  0.18251541  0.30267589  1
  O  O6  1  0.10471151  0.17794898  0.80329481  1
  O  O7  1  0.60009303  0.16609014  0.80676171  1
  O  O8  1  0.48672885  0.79124717  0.80426099  1
  O  O9  1  0.98448918  0.81090799  0.80772926  1
  O  O10  1  0.41610686  0.02847499  0.80639753  1
  O  O11  1  0.92227003  0.03462592  0.80839570  1
  O  O12  1  0.40167833  0.96897563  0.69245951  1
  O  O13  1  0.90237648  0.96364133  0.69413837  1
  O  O14  1  0.08874032  0.20913800  0.69674599  1
  O  O15  1  0.58169695  0.19373702  0.69304646  1
  O  O16  1  0.01989915  0.84101677  0.69406027  1
  O  O17  1  0.51496198  0.81786526  0.69713844  1
  O  O18  1  0.40255425  0.84049418  0.19377097  1
  O  O19  1  0.90222986  0.83137806  0.19158845  1
  O  O20  1  0.01415594  0.20914535  0.19605399  1
  O  O21  1  0.51963392  0.19860971  0.19363164  1
  O  O22  1  0.08166156  0.97001051  0.19262156  1
  O  O23  1  0.58960881  0.97035951  0.19591827  1
  O  O24  1  0.43529022  0.36968315  0.64269461  1
  O  O25  1  0.93138401  0.36576112  0.64662368  1
  O  O26  1  0.24507443  0.12803342  0.64546358  1
  O  O27  1  0.75379970  0.14517102  0.64294796  1
  O  O28  1  0.31661905  0.48967285  0.64488677  1
  O  O29  1  0.82125232  0.51877582  0.63893539  1
  O  O30  1  0.43077678  0.49629129  0.14622556  1
  O  O31  1  0.93656904  0.51281216  0.13776600  1
  O  O32  1  0.31986410  0.12086350  0.13852053  1
  O  O33  1  0.82213305  0.15171264  0.14375973  1
  O  O34  1  0.25284477  0.36304505  0.14277768  1
  O  O35  1  0.74736884  0.36375623  0.14456241  1
  O  O36  1  0.23353552  0.30254488  0.02631061  1
  O  O37  1  0.73969796  0.30950485  0.02674227  1
  O  O38  1  0.41483516  0.52467388  0.02709722  1
  O  O39  1  0.92414501  0.54256080  0.03051253  1
  O  O40  1  0.34674468  0.15111160  0.03064762  1
  O  O41  1  0.84990697  0.16918191  0.02735466  1
  O  O42  1  0.23546828  0.16859313  0.52574637  1
  O  O43  1  0.73418961  0.16745346  0.52662301  1
  O  O44  1  0.34935013  0.53355967  0.52734456  1
  O  O45  1  0.84789386  0.54225858  0.53085523  1
  O  O46  1  0.41683810  0.30332586  0.52489802  1
  O  O47  1  0.91524318  0.30518543  0.52692344  1
  O  O48  1  0.26669333  0.69848676  0.97369029  1
  O  O49  1  0.77050402  0.69534670  0.96948356  1
  O  O50  1  0.08207356  0.46605956  0.97192027  1
  O  O51  1  0.58591155  0.47260376  0.97463531  1
  O  O52  1  0.15028810  0.83146993  0.97505199  1
  O  O53  1  0.65491092  0.83369270  0.97399051  1
  O  O54  1  0.27062661  0.84508301  0.46882567  1
  O  O55  1  0.76663345  0.83172639  0.47470723  1
  O  O56  1  0.15425948  0.47586496  0.47309712  1
  O  O57  1  0.65070501  0.46916911  0.47374300  1
  O  O58  1  0.08645477  0.69984353  0.47439490  1
  O  O59  1  0.58105942  0.69945299  0.47118513  1
  O  O60  1  0.06906835  0.63771045  0.35902378  1
  O  O61  1  0.56720118  0.63957930  0.35579983  1
  O  O62  1  0.25643981  0.87191524  0.36123148  1
  O  O63  1  0.75006051  0.86562607  0.35804346  1
  O  O64  1  0.18184467  0.50093046  0.35850813  1
  O  O65  1  0.68227008  0.49232572  0.35850132  1
  O  O66  1  0.06657834  0.49501086  0.85637897  1
  O  O67  1  0.56940836  0.50170328  0.85966937  1
  O  O68  1  0.18173647  0.86946674  0.85958035  1
  O  O69  1  0.68297831  0.86310367  0.85836638  1
  O  O70  1  0.24908977  0.63276366  0.85834986  1
  O  O71  1  0.75704661  0.63671027  0.86220476  1
  O  O72  1  0.01383508  0.83621201  0.41082412  1
  O  O73  1  0.51010334  0.84591022  0.40563202  1
  O  O74  1  0.39805525  0.97056939  0.40888520  1
  O  O75  1  0.90800990  0.97877352  0.40673380  1
  O  O76  1  0.07938872  0.18917829  0.40718509  1
  O  O77  1  0.57560193  0.17640545  0.40515854  1
  O  O78  1  0.00938251  0.17439132  0.90684553  1
  O  O79  1  0.51371897  0.18998281  0.91082309  1
  O  O80  1  0.07504754  0.97437767  0.90629701  1
  O  O81  1  0.57931725  0.97089786  0.90856843  1
  O  O82  1  0.40896817  0.83882665  0.90841766  1
  O  O83  1  0.89872790  0.82522329  0.90987069  1
  O  O84  1  0.48711556  0.16450128  0.58793478  1
  O  O85  1  0.98660993  0.16048111  0.59323329  1
  O  O86  1  0.09239228  0.02430169  0.59171518  1
  O  O87  1  0.59371445  0.01951351  0.59307292  1
  O  O88  1  0.41967943  0.80860196  0.59313979  1
  O  O89  1  0.91328761  0.79828968  0.58902952  1
  O  O90  1  0.48689511  0.81314690  0.09299258  1
  O  O91  1  0.98595471  0.79691000  0.08959407  1
  O  O92  1  0.41172511  0.02491052  0.08873356  1
  O  O93  1  0.91981688  0.02754541  0.09270090  1
  O  O94  1  0.09274878  0.16413697  0.09278668  1
  O  O95  1  0.59304652  0.16031597  0.09105828  1
  O  O96  1  0.34024138  0.17817970  0.74221804  1
  O  O97  1  0.84883990  0.17405753  0.74527025  1
  O  O98  1  0.23239975  0.30817928  0.74426473  1
  O  O99  1  0.74692014  0.32413515  0.74013613  1
  O  O100  1  0.41995740  0.53256296  0.74500829  1
  O  O101  1  0.91264928  0.51911318  0.74212239  1
  O  O102  1  0.34875997  0.52385487  0.24493749  1
  O  O103  1  0.84291182  0.50392467  0.23976824  1
  O  O104  1  0.41244972  0.30564570  0.24135049  1
  O  O105  1  0.92071207  0.31056413  0.24101033  1
  O  O106  1  0.24599373  0.16857096  0.23905404  1
  O  O107  1  0.73397281  0.16023951  0.24239544  1
  O  O108  1  0.31964414  0.49491569  0.92196162  1
  O  O109  1  0.82097503  0.51082794  0.92361529  1
  O  O110  1  0.42542981  0.35449329  0.92550520  1
  O  O111  1  0.92831217  0.36669882  0.92568290  1
  O  O112  1  0.25145236  0.14171864  0.92604718  1
  O  O113  1  0.75135776  0.14672049  0.92251578  1
  O  O114  1  0.31863167  0.12767459  0.42038291  1
  O  O115  1  0.82003667  0.14379241  0.42175853  1
  O  O116  1  0.25267735  0.35246233  0.42174652  1
  O  O117  1  0.75203889  0.35998826  0.42479025  1
  O  O118  1  0.42614501  0.49094073  0.42206542  1
  O  O119  1  0.92512529  0.49528362  0.42459141  1
  O  O120  1  0.17788423  0.50820757  0.07689255  1
  O  O121  1  0.68116520  0.50611549  0.07535215  1
  O  O122  1  0.06580248  0.64169982  0.07899625  1
  O  O123  1  0.57021354  0.64165670  0.07794477  1
  O  O124  1  0.25344651  0.86590110  0.07768816  1
  O  O125  1  0.74992505  0.85712118  0.07594316  1
  O  O126  1  0.18042704  0.85556330  0.57492248  1
  O  O127  1  0.68212260  0.85426005  0.57632372  1
  O  O128  1  0.24977334  0.64363123  0.57550108  1
  O  O129  1  0.75557023  0.64225256  0.57803522  1
  O  O130  1  0.07015157  0.49844629  0.57819734  1
  O  O131  1  0.57632832  0.50612037  0.57664777  1
  O  O132  1  0.15647764  0.83050414  0.25817721  1
  O  O133  1  0.65216694  0.84086673  0.25411581  1
  O  O134  1  0.26106666  0.70012563  0.25765897  1
  O  O135  1  0.75825028  0.68196593  0.25558511  1
  O  O136  1  0.07838680  0.46448287  0.25478641  1
  O  O137  1  0.58574586  0.48397427  0.25585210  1
  O  O138  1  0.15044031  0.46289965  0.75533960  1
  O  O139  1  0.65687381  0.48067669  0.75963586  1
  O  O140  1  0.08546492  0.68820339  0.75660351  1
  O  O141  1  0.57822049  0.69141323  0.75661999  1
  O  O142  1  0.25868616  0.83295172  0.75702010  1
  O  O143  1  0.76163270  0.82253801  0.75882626  1
loop_
_geom_bond_atom_site_label_1
_geom_bond_atom_site_label_2
_geom_bond_distance
_geom_bond_site_symmetry_2
Na0 O104 2.290024 1_555
Na0 O106 2.361572 1_555
Na0 O134 2.400835 1_545
Na0 O132 2.519511 1_545
Na0 O32 2.711377 1_555
Na0 O62 2.783132 1_545
Na0 O4 2.822080 1_555
Na0 O18 2.858289 1_545
Na1 O107 2.405409 1_555
Na1 O135 2.414339 1_555
Na1 O137 2.420499 1_555
Na1 O103 2.455808 1_555
Na1 O35 2.599081 1_555
Na1 O65 2.751231 1_555
Na1 O21 2.785559 1_555
Na1 O1 2.833718 1_555
Na2 O102 2.273238 1_555
Na2 O104 2.430360 1_555
Na2 O137 2.465573 1_555
Na2 O133 2.472309 1_555
Na2 O30 2.594741 1_555
Na2 O61 2.692687 1_555
Na2 O2 2.876705 1_555
Na2 O23 2.931090 1_555
Na3 O101 2.300484 1_555
Na3 O99 2.352629 1_555
Na3 O143 2.393930 1_555
Na3 O139 2.510932 1_555
Na3 O29 2.680966 1_555
Na3 O71 2.812937 1_555
Na3 O13 2.833356 1_555
Na3 O9 2.851658 1_555
Na4 O97 2.270670 1_555
Na4 O101 2.428471 1_555
Na4 O138 2.445322 1_655
Na4 O140 2.475278 1_655
Na4 O25 2.553552 1_555
Na4 O66 2.732817 1_655
Na4 O11 2.889527 1_555
Na4 O14 2.889888 1_655
Na5 O96 2.379852 1_555
Na5 O98 2.380439 1_555
Na5 O142 2.450702 1_545
Na5 O140 2.458098 1_545
Na5 O26 2.503142 1_555
Na5 O16 2.779339 1_545
Na5 O68 2.841964 1_545
Na5 O6 2.882013 1_555
Na6 O76 2.575951 1_555
Na6 O72 2.580871 1_545
Na6 O86 2.581441 1_555
Na6 O85 2.606587 1_455
Na6 O75 2.614075 1_445
Na6 O89 2.666127 1_445
Na7 O73 2.506252 1_555
Na7 O77 2.531039 1_565
Na7 O84 2.623731 1_565
Na7 O87 2.650594 1_565
Na7 O74 2.650784 1_555
Na7 O88 2.703629 1_555
Na8 O78 2.426218 1_555
Na8 O80 2.471091 1_545
Na8 O83 2.601292 1_445
Na8 O94 2.665611 1_556
Na8 O93 2.719265 1_456
Na8 O91 2.782255 1_446
Na9 O81 2.523484 1_555
Na9 O82 2.553310 1_555
Na9 O79 2.554451 1_565
Na9 O95 2.592300 1_566
Na9 O90 2.623973 1_556
Na9 O92 2.686796 1_566
Na10 O96 2.461428 1_555
Na10 O100 2.554343 1_555
Na10 O110 2.582468 1_555
Na10 O108 2.599759 1_555
Na10 O98 2.644320 1_555
Na10 O112 2.681196 1_555
Na11 O97 2.405658 1_555
Na11 O99 2.477457 1_555
Na11 O101 2.514375 1_555
Na11 O113 2.621015 1_555
Na11 O111 2.712391 1_555
Na11 O109 2.779851 1_555
Na12 O102 2.473050 1_555
Na12 O116 2.501660 1_555
Na12 O118 2.558792 1_555
Na12 O106 2.579572 1_555
Na12 O104 2.605832 1_555
Na12 O114 2.678062 1_555
Na13 O119 2.501435 1_555
Na13 O115 2.536437 1_555
Na13 O103 2.574196 1_555
Na13 O117 2.583109 1_555
Na13 O105 2.685657 1_555
Na13 O107 2.710938 1_555
Na14 O120 2.493520 1_555
Na14 O134 2.554249 1_555
Na14 O136 2.597264 1_555
Na14 O122 2.623740 1_555
Na14 O132 2.624142 1_555
Na14 O124 2.631813 1_555
Na15 O135 2.539759 1_555
Na15 O125 2.549449 1_555
Na15 O121 2.550341 1_555
Na15 O123 2.576510 1_555
Na15 O137 2.588410 1_555
Na15 O133 2.639598 1_555
Na16 O128 2.517560 1_555
Na16 O126 2.540361 1_555
Na16 O130 2.561360 1_555
Na16 O142 2.578177 1_555
Na16 O140 2.641271 1_555
Na16 O138 2.678238 1_555
Na17 O131 2.450865 1_555
Na17 O127 2.470574 1_555
Na17 O129 2.617709 1_555
Na17 O141 2.659510 1_555
Na17 O143 2.689229 1_555
Na17 O139 2.719501 1_555
Al0 O2 1.845647 1_555
Al0 O4 1.870607 1_565
Al0 O73 1.875603 1_555
Al0 O77 1.876922 1_565
Al0 O74 2.022954 1_555
Al0 O1 2.191300 1_565
Al1 O11 1.834798 1_565
Al1 O9 1.855247 1_555
Al1 O80 1.900210 1_655
Al1 O78 1.905176 1_665
Al1 O83 2.074683 1_555
Al1 O6 2.111014 1_665
Al2 O24 1.766562 1_555
Al2 O26 1.806072 1_555
Al2 O28 1.827795 1_555
Al2 O96 1.977666 1_555
Al2 O100 2.297059 1_555
Al2 O98 2.342627 1_555
Al3 O27 1.796402 1_555
Al3 O97 1.847612 1_555
Al3 O25 1.867778 1_555
Al3 O99 1.920518 1_555
Al3 O101 2.025531 1_555
Al3 O29 2.269771 1_555
Al4 O34 1.819292 1_555
Al4 O102 1.833291 1_555
Al4 O30 1.872657 1_555
Al4 O106 1.910550 1_555
Al4 O104 2.013845 1_555
Al4 O32 2.294810 1_555
Al5 O35 1.783838 1_555
Al5 O33 1.801233 1_555
Al5 O103 1.894858 1_555
Al5 O31 2.005167 1_555
Al5 O107 2.142728 1_555
Al5 O105 2.205280 1_555
O0 Si0 1.643088 1_555
O0 Ta0 1.939980 1_545
O1 S0 1.460211 1_555
O2 Si1 1.599234 1_555
O3 Si2 1.642329 1_555
O3 Ta0 1.954222 1_655
O4 Si3 1.603136 1_555
O5 S1 1.469128 1_555
O5 Ta0 2.266361 1_645
O6 S2 1.471817 1_555
O7 Si4 1.654853 1_555
O7 Ta1 1.916617 1_555
O8 S3 1.486013 1_555
O8 Ta1 2.195621 1_565
O9 Si5 1.605553 1_555
O10 Si6 1.660532 1_555
O10 Ta1 1.921997 1_555
O11 Si7 1.603986 1_555
O12 Si6 1.623746 1_565
O12 Ta3 1.965079 1_565
O13 Si7 1.671238 1_565
O13 Ta2 1.943223 1_555
O14 S2 1.512292 1_555
O14 Ta2 2.141968 1_445
O15 Si4 1.619237 1_555
O15 Ta3 1.949496 1_555
O16 Si5 1.669291 1_455
O16 Ta2 1.937707 1_455
O17 S3 1.467777 1_555
O17 Ta3 2.272804 1_565
O18 Si1 1.682461 1_555
O18 Ta5 1.928285 1_565
O19 Si2 1.644027 1_555
O19 Ta4 1.932877 1_555
O20 S1 1.497578 1_455
O20 Ta4 2.099958 1_445
O21 Si3 1.681822 1_555
O21 Ta5 1.926774 1_555
O22 Si0 1.644183 1_565
O22 Ta4 1.918742 1_455
O23 S0 1.514354 1_565
O23 Ta5 2.127527 1_565
O24 Si8 1.592775 1_555
O25 Si9 1.598382 1_555
O26 Si10 1.611024 1_555
O27 Si11 1.587731 1_555
O28 Si12 1.597832 1_555
O29 S4 1.464278 1_555
O30 Si13 1.595689 1_555
O31 S5 1.472535 1_555
O32 S6 1.446907 1_555
O33 Si14 1.600483 1_555
O34 Si15 1.584268 1_555
O35 Si16 1.608512 1_555
O36 Si15 1.653118 1_555
O36 Ta6 1.927916 1_554
O37 Si16 1.648397 1_555
O37 Ta7 1.927493 1_554
O38 Si13 1.641147 1_555
O38 Ta6 1.942935 1_554
O39 S5 1.472952 1_555
O39 Ta7 2.215973 1_554
O40 S6 1.478551 1_555
O40 Ta6 2.218357 1_554
O41 Si14 1.671591 1_555
O41 Ta7 1.868022 1_554
O42 Si10 1.637726 1_555
O42 Ta8 1.953830 1_555
O43 Si11 1.663860 1_555
O43 Ta9 1.904156 1_555
O44 Si12 1.666145 1_555
O44 Ta8 1.860912 1_555
O45 S4 1.474987 1_555
O45 Ta9 2.215566 1_555
O46 Si8 1.640593 1_555
O46 Ta8 1.930256 1_555
O47 Si9 1.639033 1_555
O47 Ta9 1.944672 1_555
O48 Si17 1.649271 1_555
O48 Ta10 1.884512 1_556
O49 S7 1.474381 1_555
O49 Ta11 2.246825 1_556
O50 Si18 1.683962 1_555
O50 Ta10 1.864952 1_556
O51 Si19 1.620132 1_555
O51 Ta11 1.940674 1_556
O52 Si20 1.662552 1_555
O52 Ta10 1.942203 1_556
O53 Si21 1.619774 1_555
O53 Ta11 1.948725 1_556
O54 S8 1.474183 1_555
O54 Ta12 2.260584 1_555
O55 Si22 1.614178 1_555
O55 Ta13 1.977815 1_555
O56 Si23 1.626264 1_555
O56 Ta12 1.952793 1_555
O57 Si24 1.636876 1_555
O57 Ta13 1.961212 1_555
O58 Si25 1.611841 1_555
O58 Ta12 1.955848 1_555
O59 Si26 1.669914 1_555
O59 Ta13 1.874306 1_555
O60 Si25 1.646664 1_555
O60 Ta14 1.913836 1_555
O61 Si26 1.673282 1_555
O61 Ta15 1.933002 1_555
O62 S8 1.537199 1_555
O62 Ta14 2.063145 1_555
O63 Si22 1.642388 1_555
O63 Ta15 1.906817 1_555
O64 Si23 1.659017 1_555
O64 Ta14 1.894440 1_555
O65 Si24 1.694271 1_555
O65 Ta15 1.863011 1_555
O66 Si18 1.648321 1_555
O66 Ta16 1.963614 1_555
O67 Si19 1.637000 1_555
O67 Ta17 1.924516 1_555
O68 Si20 1.676618 1_555
O68 Ta16 1.876498 1_555
O69 Si21 1.632814 1_555
O69 Ta17 1.922364 1_555
O70 Si17 1.622106 1_555
O70 Ta16 1.925719 1_555
O71 S7 1.509888 1_555
O71 Ta17 2.170838 1_555
O72 Si25 1.645019 1_555
O72 Ta0 1.891575 1_555
O73 Si26 1.592623 1_555
O74 S8 1.455005 1_555
O75 Si22 1.621927 1_555
O75 Ta0 1.974767 1_655
O76 Si23 1.629343 1_555
O76 Ta0 1.974026 1_545
O77 Si24 1.591966 1_555
O78 Si18 1.591638 1_555
O79 Si19 1.637044 1_555
O79 Ta1 1.912248 1_555
O80 Si20 1.592062 1_555
O81 Si21 1.611450 1_555
O81 Ta1 2.008822 1_565
O82 Si17 1.604252 1_555
O82 Ta1 2.011824 1_565
O83 S7 1.464737 1_555
O84 Si8 1.654405 1_555
O84 Ta3 1.882814 1_555
O85 Si9 1.656878 1_555
O85 Ta2 1.963076 1_545
O86 Si10 1.659384 1_555
O86 Ta2 1.953039 1_445
O87 Si11 1.646048 1_555
O87 Ta3 1.958921 1_555
O88 Si12 1.632911 1_555
O88 Ta3 1.947569 1_565
O89 S4 1.535575 1_555
O89 Ta2 2.037457 1_555
O90 Si13 1.656239 1_555
O90 Ta5 1.967818 1_565
O91 S5 1.505362 1_555
O91 Ta4 2.083611 1_555
O92 S6 1.529214 1_555
O92 Ta5 2.059957 1_555
O93 Si14 1.644235 1_555
O93 Ta4 1.954984 1_545
O94 Si15 1.661406 1_555
O94 Ta4 1.958362 1_445
O95 Si16 1.649752 1_555
O95 Ta5 1.978189 1_555
O96 Si6 1.632632 1_555
O97 Si7 1.609178 1_555
O98 S2 1.465935 1_555
O99 Si4 1.606384 1_555
O100 S3 1.453727 1_555
O101 Si5 1.616727 1_555
O102 Si1 1.607797 1_555
O103 Si2 1.640886 1_555
O104 Si3 1.616668 1_555
O105 S1 1.464679 1_555
O106 Si0 1.604381 1_555
O107 S0 1.486500 1_555
O108 Si17 1.627208 1_555
O108 Ta6 1.908039 1_555
O109 S7 1.500433 1_555
O109 Ta7 2.193487 1_555
O110 Si19 1.616795 1_555
O110 Ta6 2.001427 1_555
O111 Si18 1.652109 1_655
O111 Ta7 1.957549 1_555
O112 Si20 1.637491 1_545
O112 Ta6 1.964448 1_555
O113 Si21 1.654790 1_545
O113 Ta7 1.899891 1_555
O114 S8 1.480520 1_545
O114 Ta8 2.270634 1_555
O115 Si22 1.634827 1_545
O115 Ta9 1.914498 1_555
O116 Si23 1.618961 1_555
O116 Ta8 2.011085 1_555
O117 Si24 1.639529 1_555
O117 Ta9 1.972139 1_555
O118 Si26 1.637824 1_555
O118 Ta8 1.995821 1_555
O119 Si25 1.609707 1_655
O119 Ta9 2.023336 1_555
O120 Si15 1.682928 1_555
O120 Ta10 1.983768 1_555
O121 Si16 1.636273 1_555
O121 Ta11 1.959522 1_555
O122 S5 1.493302 1_455
O122 Ta10 2.235845 1_555
O123 Si13 1.671288 1_555
O123 Ta11 1.894770 1_555
O124 S6 1.500775 1_565
O124 Ta10 2.224740 1_555
O125 Si14 1.634120 1_565
O125 Ta11 1.984143 1_555
O126 Si10 1.643573 1_565
O126 Ta12 1.956933 1_555
O127 Si11 1.656074 1_565
O127 Ta13 1.984151 1_555
O128 Si12 1.648748 1_555
O128 Ta12 1.959846 1_555
O129 S4 1.477266 1_555
O129 Ta13 2.269764 1_555
O130 Si9 1.669841 1_455
O130 Ta12 1.894115 1_555
O131 Si8 1.643676 1_555
O131 Ta13 1.967381 1_555
O132 Si0 1.665894 1_565
O132 Ta14 2.003541 1_555
O133 S0 1.499463 1_565
O133 Ta15 2.269587 1_555
O134 Si1 1.666117 1_555
O134 Ta14 1.997831 1_555
O135 Si2 1.661334 1_555
O135 Ta15 2.035910 1_555
O136 S1 1.518817 1_455
O136 Ta14 2.103711 1_555
O137 Si3 1.675502 1_555
O137 Ta15 2.042609 1_555
O138 S2 1.508518 1_555
O138 Ta16 2.223036 1_555
O139 Si4 1.674957 1_555
O139 Ta17 1.964310 1_555
O140 Si5 1.677916 1_455
O140 Ta16 2.012359 1_555
O141 S3 1.548815 1_555
O141 Ta17 2.008683 1_555
O142 Si6 1.677766 1_565
O142 Ta16 1.986470 1_555
O143 Si7 1.668825 1_565
O143 Ta17 1.977482 1_555
