# generated using pymatgen
data_Na2Y2Nb6Si7S5O48
_symmetry_space_group_name_H-M   'P 1'
_cell_length_a   17.90344360
_cell_length_b   9.00515660
_cell_length_c   23.34033989
_cell_angle_alpha   90.04070381
_cell_angle_beta   89.95241200
_cell_angle_gamma   120.24008474
_symmetry_Int_Tables_number   1
_chemical_formula_structural   Na2Y2Nb6Si7S5O48
_chemical_formula_sum   'Na6 Y6 Nb18 Si21 S15 O144'
_cell_volume   3250.94569416
_cell_formula_units_Z   3
loop_
 _symmetry_equiv_pos_site_id
 _symmetry_equiv_pos_as_xyz
  1  'x, y, z'
loop_
 _atom_site_type_symbol
 _atom_site_label
 _atom_site_symmetry_multiplicity
 _atom_site_fract_x
 _atom_site_fract_y
 _atom_site_fract_z
 _atom_site_occupancy
  Na  Na0  1  0.99563158  0.00098369  0.49623713  1
  Na  Na1  1  0.49672720  0.00271922  0.99218732  1
  Na  Na2  1  0.33665780  0.32439818  0.83191146  1
  Na  Na3  1  0.82570989  0.33834083  0.83161787  1
  Na  Na4  1  0.32705245  0.31489922  0.33754523  1
  Na  Na5  1  0.83473682  0.34879727  0.33977270  1
  Y  Y0  1  0.99998816  0.98199484  0.35608939  1
  Y  Y1  1  0.50063298  0.01905896  0.85447723  1
  Y  Y2  1  0.99392046  0.01187897  0.64747919  1
  Y  Y3  1  0.49557004  0.98649005  0.15128857  1
  Y  Y4  1  0.83634437  0.33448599  0.97806645  1
  Y  Y5  1  0.33518136  0.33683610  0.47830326  1
  Nb  Nb0  1  0.50095002  0.99443201  0.35862912  1
  Nb  Nb1  1  0.00141086  0.00655371  0.85626443  1
  Nb  Nb2  1  0.50113878  0.00760214  0.64431905  1
  Nb  Nb3  1  0.00016504  0.99482835  0.14470535  1
  Nb  Nb4  1  0.32374517  0.33560603  0.68870366  1
  Nb  Nb5  1  0.83300896  0.30831648  0.68656530  1
  Nb  Nb6  1  0.33067528  0.34763263  0.18933445  1
  Nb  Nb7  1  0.82435625  0.31119267  0.19045190  1
  Nb  Nb8  1  0.32512398  0.32820763  0.97266077  1
  Nb  Nb9  1  0.82944710  0.32003626  0.47452840  1
  Nb  Nb10  1  0.16915166  0.66952939  0.02175205  1
  Nb  Nb11  1  0.67802265  0.67426874  0.01970969  1
  Nb  Nb12  1  0.17082654  0.67136371  0.52410180  1
  Nb  Nb13  1  0.67111447  0.66814381  0.52240994  1
  Nb  Nb14  1  0.16515594  0.68297143  0.31135542  1
  Nb  Nb15  1  0.68090533  0.67788346  0.30991131  1
  Nb  Nb16  1  0.18026668  0.68300810  0.80868034  1
  Nb  Nb17  1  0.66359620  0.64539486  0.80942606  1
  Si  Si0  1  0.14518592  0.00306802  0.24926124  1
  Si  Si1  1  0.64134675  0.99094813  0.25279313  1
  Si  Si2  1  0.35203695  0.70953015  0.25402330  1
  Si  Si3  1  0.85787365  0.70553808  0.24717799  1
  Si  Si4  1  0.14260684  0.29162454  0.75224646  1
  Si  Si5  1  0.64862684  0.28702646  0.74868034  1
  Si  Si6  1  0.35840493  0.01143189  0.74727659  1
  Si  Si7  1  0.85165280  0.99522030  0.75391727  1
  Si  Si8  1  0.97714727  0.33846353  0.57916755  1
  Si  Si9  1  0.68827479  0.04258678  0.58165886  1
  Si  Si10  1  0.33550802  0.62715821  0.58251317  1
  Si  Si11  1  0.83391103  0.04278308  0.08313090  1
  Si  Si12  1  0.18927688  0.33446243  0.08292733  1
  Si  Si13  1  0.31149782  0.67088851  0.91797887  1
  Si  Si14  1  0.81195578  0.66546621  0.91249433  1
  Si  Si15  1  0.52454830  0.38779208  0.92051653  1
  Si  Si16  1  0.16229716  0.94148270  0.91651639  1
  Si  Si17  1  0.31018309  0.95491409  0.41570707  1
  Si  Si18  1  0.81170174  0.95397762  0.41830448  1
  Si  Si19  1  0.66482492  0.38339194  0.41691933  1
  Si  Si20  1  0.02428078  0.66165029  0.42001187  1
  S  S0  1  0.99931213  0.29117347  0.24768168  1
  S  S1  1  0.49955226  0.29469599  0.25267388  1
  S  S2  1  0.00007008  0.70702239  0.75348793  1
  S  S3  1  0.49893282  0.70593467  0.74801783  1
  S  S4  1  0.47977753  0.33548720  0.58527892  1
  S  S5  1  0.18865513  0.03845010  0.58388767  1
  S  S6  1  0.83122026  0.61171377  0.58039183  1
  S  S7  1  0.47648851  0.61173743  0.07975046  1
  S  S8  1  0.97982955  0.62455531  0.08534033  1
  S  S9  1  0.33178070  0.04991065  0.08008641  1
  S  S10  1  0.68782163  0.33799323  0.08337268  1
  S  S11  1  0.02884177  0.38518703  0.91435204  1
  S  S12  1  0.66603732  0.94408229  0.91692911  1
  S  S13  1  0.16659554  0.38979330  0.41683112  1
  S  S14  1  0.52850089  0.67174373  0.41454275  1
  O  O0  1  0.11824062  0.06175696  0.30564697  1
  O  O1  1  0.59701189  0.03101288  0.30732784  1
  O  O2  1  0.42066517  0.80971749  0.30615094  1
  O  O3  1  0.91007410  0.76545771  0.30537401  1
  O  O4  1  0.48142119  0.17872616  0.30220869  1
  O  O5  1  0.97760449  0.18714812  0.29917307  1
  O  O6  1  0.09851152  0.16552619  0.80811518  1
  O  O7  1  0.61863364  0.17621432  0.80606251  1
  O  O8  1  0.47762377  0.76714330  0.79993050  1
  O  O9  1  0.98579920  0.79473487  0.80364767  1
  O  O10  1  0.40873541  0.05331357  0.80651641  1
  O  O11  1  0.92021121  0.03026187  0.80692775  1
  O  O12  1  0.40672878  0.98126562  0.69333589  1
  O  O13  1  0.88218158  0.95002609  0.69622693  1
  O  O14  1  0.09365397  0.22041329  0.69378192  1
  O  O15  1  0.58435990  0.18673623  0.69479844  1
  O  O16  1  0.01730496  0.80690088  0.70108157  1
  O  O17  1  0.51218397  0.81447517  0.69750142  1
  O  O18  1  0.38313999  0.81252835  0.19515657  1
  O  O19  1  0.90651910  0.83192373  0.19270448  1
  O  O20  1  0.01143805  0.20719788  0.19679377  1
  O  O21  1  0.51671593  0.22739694  0.20000716  1
  O  O22  1  0.08351857  0.97954047  0.19439858  1
  O  O23  1  0.59358737  0.96612538  0.19320450  1
  O  O24  1  0.43686214  0.36024276  0.63503014  1
  O  O25  1  0.93111876  0.36225051  0.63826829  1
  O  O26  1  0.24210249  0.13115371  0.63601957  1
  O  O27  1  0.75249085  0.13114624  0.63891113  1
  O  O28  1  0.31968120  0.49625831  0.63893774  1
  O  O29  1  0.81832668  0.51100156  0.63255935  1
  O  O30  1  0.43658958  0.51165374  0.13377007  1
  O  O31  1  0.93749453  0.51377691  0.13491461  1
  O  O32  1  0.32198366  0.12929820  0.13233917  1
  O  O33  1  0.81832312  0.14172948  0.13897416  1
  O  O34  1  0.25515038  0.37134276  0.13876906  1
  O  O35  1  0.74025023  0.35543542  0.13540601  1
  O  O36  1  0.23895809  0.30770880  0.02831298  1
  O  O37  1  0.72779180  0.31464888  0.03196432  1
  O  O38  1  0.41986606  0.51926408  0.03034183  1
  O  O39  1  0.92878763  0.55915581  0.03282796  1
  O  O40  1  0.34036977  0.15199518  0.02846593  1
  O  O41  1  0.85306648  0.15612537  0.02722747  1
  O  O42  1  0.22833070  0.14271721  0.53274202  1
  O  O43  1  0.73372170  0.16544908  0.52650748  1
  O  O44  1  0.35615309  0.55036517  0.52767761  1
  O  O45  1  0.83817001  0.52849661  0.52818698  1
  O  O46  1  0.42883987  0.29905751  0.53276360  1
  O  O47  1  0.91150456  0.32058224  0.52645617  1
  O  O48  1  0.25526418  0.68173590  0.97344627  1
  O  O49  1  0.76717945  0.69261696  0.97257894  1
  O  O50  1  0.07605889  0.46298419  0.96924836  1
  O  O51  1  0.58622618  0.49868633  0.97541721  1
  O  O52  1  0.14997775  0.82572655  0.97435479  1
  O  O53  1  0.66399705  0.84969371  0.97126868  1
  O  O54  1  0.26600232  0.84066556  0.47338910  1
  O  O55  1  0.75538345  0.82923663  0.47327482  1
  O  O56  1  0.16356085  0.47522700  0.47085101  1
  O  O57  1  0.64969050  0.47378156  0.47412399  1
  O  O58  1  0.08763576  0.67717000  0.47321911  1
  O  O59  1  0.57530815  0.68872811  0.46865526  1
  O  O60  1  0.06712662  0.63562461  0.36014958  1
  O  O61  1  0.57110820  0.65240269  0.36372477  1
  O  O62  1  0.24694775  0.85066052  0.35976180  1
  O  O63  1  0.75564216  0.85784178  0.36019864  1
  O  O64  1  0.17227020  0.48781166  0.36499047  1
  O  O65  1  0.67848879  0.50484954  0.36097241  1
  O  O66  1  0.07148860  0.49127049  0.86438280  1
  O  O67  1  0.56557250  0.49839755  0.86137199  1
  O  O68  1  0.17986080  0.85406837  0.86129457  1
  O  O69  1  0.67169302  0.85789787  0.86542711  1
  O  O70  1  0.25526978  0.64984036  0.86043831  1
  O  O71  1  0.74559367  0.64242281  0.86020272  1
  O  O72  1  0.01893242  0.83384040  0.42085336  1
  O  O73  1  0.52216581  0.83198485  0.40987248  1
  O  O74  1  0.40356507  0.96405400  0.40281368  1
  O  O75  1  0.90556387  0.97960449  0.41928035  1
  O  O76  1  0.08791177  0.21894578  0.41585683  1
  O  O77  1  0.58019370  0.19407250  0.40322546  1
  O  O78  1  0.02298848  0.21394412  0.90981749  1
  O  O79  1  0.51826456  0.20466873  0.92116153  1
  O  O80  1  0.08036428  0.96709504  0.90425913  1
  O  O81  1  0.58722363  0.95551815  0.91796617  1
  O  O82  1  0.40598442  0.83123253  0.91945175  1
  O  O83  1  0.90371494  0.84345175  0.90315574  1
  O  O84  1  0.49358383  0.18568050  0.59383838  1
  O  O85  1  0.98408447  0.16747736  0.57985436  1
  O  O86  1  0.10089994  0.00786085  0.59056636  1
  O  O87  1  0.59499730  0.02139383  0.59715907  1
  O  O88  1  0.41658625  0.81437575  0.60146082  1
  O  O89  1  0.90731217  0.78469311  0.58353939  1
  O  O90  1  0.48287204  0.78239405  0.08279116  1
  O  O91  1  0.99387462  0.80188644  0.09382265  1
  O  O92  1  0.40762541  0.02674391  0.08269196  1
  O  O93  1  0.91428141  0.01462585  0.10112037  1
  O  O94  1  0.09617188  0.16865905  0.09673931  1
  O  O95  1  0.59933643  0.19149774  0.08914248  1
  O  O96  1  0.34205194  0.17078248  0.73035214  1
  O  O97  1  0.84606856  0.17545864  0.74581544  1
  O  O98  1  0.24325832  0.31946192  0.74546040  1
  O  O99  1  0.74764205  0.33359349  0.73114752  1
  O  O100  1  0.42359214  0.52415928  0.73709422  1
  O  O101  1  0.92137607  0.53337955  0.74840246  1
  O  O102  1  0.34660247  0.51609929  0.24376952  1
  O  O103  1  0.84127901  0.51340949  0.22922610  1
  O  O104  1  0.42119867  0.31335074  0.24365764  1
  O  O105  1  0.92318989  0.32123683  0.23634211  1
  O  O106  1  0.24526696  0.16152862  0.23034394  1
  O  O107  1  0.74219203  0.16566468  0.24507731  1
  O  O108  1  0.31165956  0.48711398  0.92564166  1
  O  O109  1  0.82160130  0.49914058  0.91554317  1
  O  O110  1  0.42742023  0.36777305  0.93007082  1
  O  O111  1  0.94116037  0.36047631  0.91745467  1
  O  O112  1  0.24977168  0.13396730  0.92640899  1
  O  O113  1  0.74446680  0.11651630  0.91963110  1
  O  O114  1  0.32278948  0.14437717  0.41523845  1
  O  O115  1  0.81006457  0.13455774  0.42287708  1
  O  O116  1  0.24520443  0.37388805  0.41822415  1
  O  O117  1  0.75068941  0.36742876  0.42564516  1
  O  O118  1  0.44045744  0.52081212  0.41642943  1
  O  O119  1  0.92700162  0.48772313  0.42565905  1
  O  O120  1  0.17699294  0.50075879  0.06990934  1
  O  O121  1  0.68453116  0.50036011  0.07773357  1
  O  O122  1  0.06663122  0.64115083  0.07716472  1
  O  O123  1  0.56249443  0.63043718  0.07368550  1
  O  O124  1  0.25124571  0.87428217  0.07366826  1
  O  O125  1  0.74556999  0.85238433  0.07482943  1
  O  O126  1  0.18802119  0.87365139  0.58000322  1
  O  O127  1  0.67544979  0.85051755  0.56952768  1
  O  O128  1  0.24906535  0.64279545  0.57468925  1
  O  O129  1  0.75109299  0.63089663  0.57391661  1
  O  O130  1  0.07217164  0.51096654  0.57017044  1
  O  O131  1  0.56621758  0.49225558  0.57772012  1
  O  O132  1  0.15383745  0.83031683  0.25744231  1
  O  O133  1  0.65488517  0.83002727  0.26774866  1
  O  O134  1  0.25405062  0.66068160  0.27034696  1
  O  O135  1  0.76051146  0.68239256  0.25585614  1
  O  O136  1  0.07598185  0.46343900  0.25390548  1
  O  O137  1  0.57302095  0.46912109  0.26425248  1
  O  O138  1  0.15592333  0.48005824  0.76795989  1
  O  O139  1  0.65377005  0.47685205  0.75764227  1
  O  O140  1  0.07448430  0.68108359  0.76629303  1
  O  O141  1  0.57569651  0.68637623  0.75514382  1
  O  O142  1  0.26072937  0.83807172  0.75592642  1
  O  O143  1  0.75353651  0.84437494  0.77132192  1
loop_
_geom_bond_atom_site_label_1
_geom_bond_atom_site_label_2
_geom_bond_distance
_geom_bond_site_symmetry_2
Na0 O75 2.356956 1_545
Na0 O72 2.482490 1_645
Na0 O85 2.531200 1_555
Na0 O76 2.614502 1_655
Na0 O89 2.710011 1_545
Na0 O86 2.879638 1_655
Na1 O82 2.319492 1_545
Na1 O79 2.345428 1_555
Na1 O81 2.548468 1_545
Na1 O92 2.719413 1_556
Na1 O90 2.824794 1_546
Na1 O95 2.870814 1_556
Na2 O98 2.607729 1_555
Na2 O110 2.721706 1_555
Na2 O112 2.745537 1_555
Na2 O96 2.769728 1_555
Na2 O100 2.781350 1_555
Na2 O108 2.790650 1_555
Na3 O109 2.458106 1_555
Na3 O101 2.600010 1_555
Na3 O97 2.613054 1_555
Na3 O99 2.720210 1_555
Na3 O113 2.720329 1_555
Na3 O111 2.813756 1_555
Na4 O114 2.353268 1_555
Na4 O116 2.598744 1_555
Na4 O118 2.675787 1_555
Na4 O102 2.749822 1_555
Na4 O104 2.767821 1_555
Na4 O106 2.876857 1_555
Na5 O119 2.496527 1_555
Na5 O117 2.560934 1_555
Na5 O115 2.612482 1_555
Na5 O107 2.756565 1_555
Na5 O103 2.949333 1_555
Na5 O105 2.964121 1_555
Nb0 O74 1.922306 1_555
Nb0 O77 1.938825 1_565
Nb0 O2 1.981152 1_555
Nb0 O1 1.981562 1_565
Nb0 O73 2.068251 1_555
Nb0 O4 2.280129 1_565
Nb1 O11 1.949554 1_455
Nb1 O83 1.955992 1_445
Nb1 O6 1.956229 1_555
Nb1 O80 1.971887 1_545
Nb1 O78 2.114298 1_555
Nb1 O9 2.164482 1_445
Nb2 O88 1.914895 1_545
Nb2 O15 1.946693 1_555
Nb2 O12 1.953339 1_545
Nb2 O87 1.958993 1_555
Nb2 O84 2.049285 1_555
Nb2 O17 2.225847 1_545
Nb3 O93 1.926105 1_465
Nb3 O19 1.933894 1_455
Nb3 O22 1.949683 1_555
Nb3 O94 1.986799 1_565
Nb3 O91 2.059643 1_455
Nb3 O20 2.187349 1_565
Nb4 O28 1.885733 1_555
Nb4 O98 1.907504 1_555
Nb4 O96 1.935973 1_555
Nb4 O100 2.073063 1_555
Nb4 O26 2.080254 1_555
Nb4 O24 2.294256 1_555
Nb5 O27 1.882605 1_555
Nb5 O97 1.919158 1_555
Nb5 O25 1.931353 1_555
Nb5 O99 1.953947 1_555
Nb5 O101 2.337448 1_555
Nb5 O29 2.340187 1_555
Nb6 O106 1.865910 1_555
Nb6 O102 1.886583 1_555
Nb6 O34 1.886961 1_555
Nb6 O30 2.153320 1_555
Nb6 O104 2.199422 1_555
Nb6 O32 2.312581 1_555
Nb7 O107 1.887960 1_555
Nb7 O33 1.901493 1_555
Nb7 O103 1.915527 1_555
Nb7 O105 2.031803 1_555
Nb7 O35 2.164493 1_555
Nb7 O31 2.321260 1_555
Nb8 O108 1.913192 1_555
Nb8 O112 1.915160 1_555
Nb8 O110 1.951807 1_555
Nb8 O36 1.952261 1_556
Nb8 O38 2.170430 1_556
Nb8 O40 2.174588 1_556
Nb9 O47 1.903407 1_555
Nb9 O115 1.943605 1_555
Nb9 O43 1.985651 1_555
Nb9 O119 1.993585 1_555
Nb9 O117 2.020297 1_555
Nb9 O45 2.195122 1_555
Nb10 O48 1.867282 1_554
Nb10 O52 1.951750 1_554
Nb10 O120 1.952052 1_555
Nb10 O124 2.073254 1_555
Nb10 O50 2.148665 1_554
Nb10 O122 2.151993 1_555
Nb11 O49 1.875365 1_554
Nb11 O51 1.911247 1_554
Nb11 O125 1.932914 1_555
Nb11 O53 2.059002 1_554
Nb11 O121 2.118342 1_555
Nb11 O123 2.279270 1_555
Nb12 O58 1.926903 1_555
Nb12 O128 1.946416 1_555
Nb12 O130 1.947184 1_555
Nb12 O54 2.002861 1_555
Nb12 O56 2.108801 1_555
Nb12 O126 2.132593 1_555
Nb13 O55 1.868379 1_555
Nb13 O127 1.944686 1_555
Nb13 O57 1.949976 1_555
Nb13 O129 2.023673 1_555
Nb13 O131 2.169097 1_555
Nb13 O59 2.207895 1_555
Nb14 O62 1.863908 1_555
Nb14 O132 1.912775 1_555
Nb14 O60 1.950054 1_555
Nb14 O134 1.951496 1_555
Nb14 O64 2.213786 1_555
Nb14 O136 2.252962 1_555
Nb15 O135 1.887726 1_555
Nb15 O63 1.900000 1_555
Nb15 O133 1.925649 1_555
Nb15 O65 1.945469 1_555
Nb15 O137 2.178007 1_555
Nb15 O61 2.244190 1_555
Nb16 O142 1.874703 1_555
Nb16 O138 1.905070 1_555
Nb16 O70 1.938795 1_555
Nb16 O68 1.972207 1_555
Nb16 O140 2.129754 1_555
Nb16 O66 2.253065 1_555
Nb17 O139 1.877277 1_555
Nb17 O71 1.898138 1_555
Nb17 O143 1.920475 1_555
Nb17 O67 1.990218 1_555
Nb17 O141 2.192465 1_555
Nb17 O69 2.260262 1_555
O0 Si0 1.580766 1_555
O0 Y0 2.202190 1_445
O1 Si1 1.632940 1_545
O2 Si2 1.639603 1_555
O3 Si3 1.581999 1_555
O3 Y0 2.152442 1_555
O4 S1 1.480652 1_555
O5 S0 1.451577 1_555
O5 Y0 2.467485 1_545
O6 Si4 1.646367 1_555
O7 Si5 1.593382 1_555
O7 Y1 2.174798 1_555
O8 S3 1.458619 1_555
O8 Y1 2.447925 1_565
O9 S2 1.503752 1_655
O10 Si6 1.589031 1_555
O10 Y1 2.137747 1_555
O11 Si7 1.657972 1_545
O12 Si6 1.625362 1_565
O13 Si7 1.580988 1_555
O13 Y2 2.116983 1_565
O14 Si4 1.573555 1_555
O14 Y2 2.122639 1_455
O15 Si5 1.635620 1_555
O16 S2 1.456620 1_555
O16 Y2 2.435214 1_465
O17 S3 1.472907 1_555
O18 Si2 1.593257 1_555
O18 Y3 2.092094 1_555
O19 Si3 1.634680 1_555
O20 S0 1.481005 1_455
O21 S1 1.469245 1_555
O21 Y3 2.304910 1_545
O22 Si0 1.633982 1_565
O23 Si1 1.588862 1_555
O23 Y3 2.097024 1_555
O24 S4 1.469393 1_555
O25 Si8 1.674305 1_555
O26 S5 1.512935 1_555
O27 Si9 1.679573 1_555
O28 Si10 1.693918 1_555
O29 S6 1.465812 1_555
O30 S7 1.504629 1_555
O31 S8 1.465288 1_555
O32 S9 1.467641 1_555
O33 Si11 1.678953 1_555
O34 Si12 1.675522 1_555
O35 S10 1.494594 1_555
O36 Si12 1.639396 1_555
O37 S10 1.464839 1_555
O37 Y4 2.244568 1_554
O38 S7 1.483677 1_555
O39 S8 1.463867 1_555
O39 Y4 2.256822 1_554
O40 S9 1.476229 1_555
O41 Si11 1.584444 1_555
O41 Y4 2.115074 1_554
O42 S5 1.462746 1_555
O42 Y5 2.227241 1_555
O43 Si9 1.623791 1_555
O44 Si10 1.583775 1_555
O44 Y5 2.106372 1_555
O45 S6 1.467691 1_555
O46 S4 1.463433 1_555
O46 Y5 2.263167 1_555
O47 Si8 1.652951 1_555
O48 Si13 1.672098 1_555
O49 Si14 1.692395 1_555
O50 S11 1.500382 1_555
O51 Si15 1.657832 1_555
O52 Si16 1.651541 1_555
O53 S12 1.517427 1_555
O54 Si17 1.636224 1_555
O55 Si18 1.668443 1_555
O56 S13 1.491703 1_555
O57 Si19 1.654893 1_555
O58 Si20 1.640360 1_555
O59 S14 1.480952 1_555
O60 Si20 1.665645 1_555
O61 S14 1.466665 1_555
O62 Si17 1.672815 1_555
O63 Si18 1.649701 1_555
O64 S13 1.471212 1_555
O65 Si19 1.641123 1_555
O66 S11 1.456448 1_555
O67 Si15 1.643343 1_555
O68 Si16 1.620800 1_555
O69 S12 1.461233 1_555
O70 Si13 1.631781 1_555
O71 Si14 1.642563 1_555
O72 Si20 1.601068 1_555
O72 Y0 2.153944 1_455
O73 S14 1.507342 1_555
O74 Si17 1.659231 1_555
O75 Si18 1.577069 1_555
O75 Y0 2.234479 1_555
O76 S13 1.472743 1_555
O76 Y0 2.364981 1_445
O77 Si19 1.643961 1_555
O78 S11 1.495719 1_555
O79 Si15 1.595441 1_555
O79 Y1 2.186673 1_555
O80 Si16 1.621219 1_555
O81 S12 1.465783 1_555
O81 Y1 2.413534 1_565
O82 Si13 1.577167 1_555
O82 Y1 2.268174 1_565
O83 Si14 1.631868 1_555
O84 S4 1.502410 1_555
O85 Si8 1.605988 1_555
O85 Y2 2.176644 1_555
O86 S5 1.460250 1_555
O86 Y2 2.345155 1_455
O87 Si9 1.623035 1_555
O88 Si10 1.637075 1_555
O89 S6 1.466381 1_555
O89 Y2 2.370915 1_565
O90 S7 1.484173 1_555
O90 Y3 2.358220 1_555
O91 S8 1.499224 1_555
O92 S9 1.475315 1_555
O92 Y3 2.398709 1_545
O93 Si11 1.636977 1_555
O94 Si12 1.613912 1_555
O95 S10 1.470708 1_555
O95 Y3 2.346971 1_545
O96 Si6 1.650784 1_555
O97 Si7 1.686428 1_545
O98 Si4 1.696980 1_555
O99 Si5 1.654116 1_555
O100 S3 1.529680 1_555
O101 S2 1.491695 1_655
O102 Si2 1.711611 1_555
O103 Si3 1.654892 1_555
O104 S1 1.509389 1_555
O105 S0 1.540466 1_555
O106 Si0 1.692905 1_555
O107 Si1 1.704768 1_545
O108 Si13 1.666133 1_555
O109 Si14 1.593409 1_555
O109 Y4 2.189911 1_555
O110 Si15 1.670255 1_555
O111 S11 1.472078 1_655
O111 Y4 2.265244 1_555
O112 Si16 1.666205 1_545
O113 S12 1.480082 1_545
O113 Y4 2.273008 1_555
O114 Si17 1.604415 1_545
O114 Y5 2.197546 1_555
O115 Si18 1.644499 1_545
O116 S13 1.485053 1_555
O116 Y5 2.284398 1_555
O117 Si19 1.627418 1_555
O118 S14 1.475107 1_555
O118 Y5 2.288332 1_555
O119 Si20 1.660147 1_655
O120 Si12 1.647955 1_555
O121 S10 1.498563 1_555
O122 S8 1.496474 1_455
O123 S7 1.468974 1_555
O124 S9 1.518497 1_565
O125 Si11 1.657522 1_565
O126 S5 1.481068 1_565
O127 Si9 1.650409 1_565
O128 Si10 1.633501 1_555
O129 S6 1.536435 1_555
O130 Si8 1.639951 1_455
O131 S4 1.489427 1_555
O132 Si0 1.650358 1_565
O133 Si1 1.623326 1_555
O134 Si2 1.624206 1_555
O135 Si3 1.660257 1_555
O136 S0 1.472056 1_455
O137 S1 1.479631 1_555
O138 Si4 1.631720 1_555
O139 Si5 1.677883 1_555
O140 S2 1.494338 1_555
O141 S3 1.480443 1_555
O142 Si6 1.669139 1_565
O143 Si7 1.640756 1_555
