# generated using pymatgen
data_MgFe2(SbO3)4
_symmetry_space_group_name_H-M   'P 1'
_cell_length_a   4.96181800
_cell_length_b   4.96181800
_cell_length_c   9.89446000
_cell_angle_alpha   90.00000000
_cell_angle_beta   90.00000000
_cell_angle_gamma   90.00000000
_symmetry_Int_Tables_number   1
_chemical_formula_structural   MgFe2(SbO3)4
_chemical_formula_sum   'Mg1 Fe2 Sb4 O12'
_cell_volume   243.59802207
_cell_formula_units_Z   1
loop_
 _symmetry_equiv_pos_site_id
 _symmetry_equiv_pos_as_xyz
  1  'x, y, z'
loop_
 _atom_site_type_symbol
 _atom_site_label
 _atom_site_symmetry_multiplicity
 _atom_site_fract_x
 _atom_site_fract_y
 _atom_site_fract_z
 _atom_site_occupancy
  Mg  Mg0  1  0.50000000  0.00000000  0.75000000  1
  Fe  Fe0  1  0.00000000  0.00000000  0.00270100  1
  Fe  Fe1  1  0.50000000  0.50000000  0.49729900  1
  Sb  Sb0  1  0.00000000  0.00000000  0.31871200  1
  Sb  Sb1  1  0.50000000  0.50000000  0.86451400  1
  Sb  Sb2  1  0.50000000  0.50000000  0.18128800  1
  Sb  Sb3  1  0.00000000  0.00000000  0.63548600  1
  O  O0  1  0.31168200  0.31254900  0.02137800  1
  O  O1  1  0.18745100  0.81168200  0.47862200  1
  O  O2  1  0.81254900  0.18831800  0.47862200  1
  O  O3  1  0.68831800  0.68745100  0.02137800  1
  O  O4  1  0.30006600  0.29994800  0.32575100  1
  O  O5  1  0.20929200  0.80852900  0.83664900  1
  O  O6  1  0.79070800  0.19147100  0.83664900  1
  O  O7  1  0.79994800  0.19993400  0.17424900  1
  O  O8  1  0.20005200  0.80006600  0.17424900  1
  O  O9  1  0.69993400  0.70005200  0.32575100  1
  O  O10  1  0.30852900  0.29070800  0.66335100  1
  O  O11  1  0.69147100  0.70929200  0.66335100  1
loop_
_geom_bond_atom_site_label_1
_geom_bond_atom_site_label_2
_geom_bond_distance
_geom_bond_site_symmetry_2
Mg0 O5 1.928279 1_545
Mg0 O6 1.928279 1_555
Mg0 O11 1.928279 1_545
Mg0 O10 1.928279 1_555
Fe0 O5 2.163431 1_544
Fe0 O6 2.163431 1_454
Fe0 O3 2.197921 1_445
Fe0 O0 2.197921 1_555
Fe0 O8 2.202388 1_545
Fe0 O7 2.202388 1_455
Fe1 O11 2.163431 1_555
Fe1 O10 2.163431 1_555
Fe1 O1 2.197921 1_555
Fe1 O2 2.197921 1_555
Fe1 O9 2.202388 1_555
Fe1 O4 2.202388 1_555
O0 Sb1 2.036456 1_554
O0 Sb2 2.059518 1_555
O1 Sb3 2.036456 1_565
O1 Sb0 2.059518 1_565
O2 Sb3 2.036456 1_655
O2 Sb0 2.059518 1_655
O3 Sb1 2.036456 1_554
O3 Sb2 2.059518 1_555
O4 Sb2 2.003140 1_555
O4 Sb0 2.106322 1_555
O5 Sb1 2.121367 1_555
O5 Sb3 2.437763 1_565
O6 Sb1 2.121367 1_555
O6 Sb3 2.437763 1_655
O7 Sb0 2.003140 1_655
O7 Sb2 2.106322 1_555
O8 Sb0 2.003140 1_565
O8 Sb2 2.106322 1_555
O9 Sb2 2.003140 1_555
O9 Sb0 2.106322 1_665
O10 Sb3 2.121367 1_555
O10 Sb1 2.437763 1_555
O11 Sb3 2.121367 1_665
O11 Sb1 2.437763 1_555
