# generated using pymatgen
data_PuH3
_symmetry_space_group_name_H-M   'P 1'
_cell_length_a   3.75302047
_cell_length_b   3.75302065
_cell_length_c   6.73046547
_cell_angle_alpha   90.00000000
_cell_angle_beta   90.00000000
_cell_angle_gamma   119.99998884
_symmetry_Int_Tables_number   1
_chemical_formula_structural   PuH3
_chemical_formula_sum   'Pu2 H6'
_cell_volume   82.09896239
_cell_formula_units_Z   2
loop_
 _symmetry_equiv_pos_site_id
 _symmetry_equiv_pos_as_xyz
  1  'x, y, z'
loop_
 _atom_site_type_symbol
 _atom_site_label
 _atom_site_symmetry_multiplicity
 _atom_site_fract_x
 _atom_site_fract_y
 _atom_site_fract_z
 _atom_site_occupancy
  Pu  Pu0  1  0.66666700  0.33333300  0.75000000  1
  Pu  Pu1  1  0.33333300  0.66666700  0.25000000  1
  H  H0  1  0.33333300  0.66666700  0.90664576  1
  H  H1  1  0.66666700  0.33333300  0.40664576  1
  H  H2  1  -0.00000000  -0.00000000  0.25000000  1
  H  H3  1  -0.00000000  -0.00000000  0.75000000  1
  H  H4  1  0.33333300  0.66666700  0.59335424  1
  H  H5  1  0.66666700  0.33333300  0.09335424  1
loop_
_geom_bond_atom_site_label_1
_geom_bond_atom_site_label_2
_geom_bond_distance
_geom_bond_site_symmetry_2
H0 Pu1 2.310934 1_556
H0 Pu0 2.409687 1_455
H0 Pu0 2.409687 1_565
H0 Pu0 2.409693 1_555
H1 Pu0 2.310934 1_555
H1 Pu1 2.409687 1_655
H1 Pu1 2.409687 1_545
H1 Pu1 2.409693 1_555
H2 Pu1 2.166805 1_545
H2 Pu1 2.166809 1_445
H2 Pu1 2.166809 1_555
H3 Pu0 2.166805 1_455
H3 Pu0 2.166809 1_555
H3 Pu0 2.166809 1_445
H4 Pu1 2.310934 1_555
H4 Pu0 2.409687 1_455
H4 Pu0 2.409687 1_565
H4 Pu0 2.409693 1_555
H5 Pu0 2.310934 1_554
H5 Pu1 2.409687 1_655
H5 Pu1 2.409687 1_545
H5 Pu1 2.409693 1_555
