# generated using pymatgen
data_CsAg2I3
_symmetry_space_group_name_H-M   'P 1'
_cell_length_a   6.08929000
_cell_length_b   11.67282200
_cell_length_c   14.57849200
_cell_angle_alpha   90.00000000
_cell_angle_beta   90.00000000
_cell_angle_gamma   90.00000000
_symmetry_Int_Tables_number   1
_chemical_formula_structural   CsAg2I3
_chemical_formula_sum   'Cs4 Ag8 I12'
_cell_volume   1036.22752344
_cell_formula_units_Z   4
loop_
 _symmetry_equiv_pos_site_id
 _symmetry_equiv_pos_as_xyz
  1  'x, y, z'
loop_
 _atom_site_type_symbol
 _atom_site_label
 _atom_site_symmetry_multiplicity
 _atom_site_fract_x
 _atom_site_fract_y
 _atom_site_fract_z
 _atom_site_occupancy
  Cs  Cs0  1  0.25000000  0.99448500  0.69557100  1
  Cs  Cs1  1  0.75000000  0.00551500  0.30442900  1
  Cs  Cs2  1  0.75000000  0.49448500  0.80442900  1
  Cs  Cs3  1  0.25000000  0.50551500  0.19557100  1
  Ag  Ag0  1  0.49927600  0.33060800  0.49862800  1
  Ag  Ag1  1  0.50072400  0.83060800  0.00137200  1
  Ag  Ag2  1  0.00072400  0.16939200  0.99862800  1
  Ag  Ag3  1  0.99927600  0.66939200  0.50137200  1
  Ag  Ag4  1  0.00072400  0.33060800  0.49862800  1
  Ag  Ag5  1  0.50072400  0.66939200  0.50137200  1
  Ag  Ag6  1  0.99927600  0.83060800  0.00137200  1
  Ag  Ag7  1  0.49927600  0.16939200  0.99862800  1
  I  I0  1  0.25000000  0.79779200  0.37379700  1
  I  I1  1  0.25000000  0.70220800  0.87379700  1
  I  I2  1  0.75000000  0.20220800  0.62620300  1
  I  I3  1  0.75000000  0.29779200  0.12620300  1
  I  I4  1  0.25000000  0.21453800  0.36263300  1
  I  I5  1  0.75000000  0.78546200  0.63736700  1
  I  I6  1  0.75000000  0.71453800  0.13736700  1
  I  I7  1  0.25000000  0.28546200  0.86263300  1
  I  I8  1  0.25000000  0.49789100  0.61266600  1
  I  I9  1  0.75000000  0.50210900  0.38733400  1
  I  I10  1  0.75000000  0.99789100  0.88733400  1
  I  I11  1  0.25000000  0.00210900  0.11266600  1
loop_
_geom_bond_atom_site_label_1
_geom_bond_atom_site_label_2
_geom_bond_distance
_geom_bond_site_symmetry_2
Cs0 I5 3.992858 1_555
Cs0 I5 3.992858 1_455
Cs0 I2 4.021416 1_565
Cs0 I2 4.021416 1_465
Cs0 I10 4.133631 1_455
Cs0 I10 4.133631 1_555
Cs0 I7 4.179484 1_565
Cs0 I1 4.288434 1_555
Cs1 I4 3.992858 1_555
Cs1 I4 3.992858 1_655
Cs1 I0 4.021416 1_545
Cs1 I0 4.021416 1_645
Cs1 I11 4.133631 1_655
Cs1 I11 4.133631 1_555
Cs1 I6 4.179484 1_545
Cs1 I3 4.288434 1_555
Cs2 I7 3.992858 1_655
Cs2 I7 3.992858 1_555
Cs2 I1 4.021416 1_655
Cs2 I1 4.021416 1_555
Cs2 I8 4.133631 1_655
Cs2 I8 4.133631 1_555
Cs2 I5 4.179484 1_555
Cs2 I2 4.288434 1_555
Cs3 I6 3.992858 1_555
Cs3 I6 3.992858 1_455
Cs3 I3 4.021416 1_455
Cs3 I3 4.021416 1_555
Cs3 I9 4.133631 1_555
Cs3 I9 4.133631 1_455
Cs3 I4 4.179484 1_555
Cs3 I0 4.288434 1_555
Ag0 I2 2.834842 1_555
Ag0 I4 2.840850 1_555
Ag0 I8 2.980080 1_555
Ag0 I9 2.995165 1_555
Ag1 I1 2.834842 1_554
Ag1 I6 2.840850 1_555
Ag1 I10 2.980080 1_554
Ag1 I11 2.995165 1_565
Ag2 I3 2.834842 1_456
Ag2 I7 2.840850 1_555
Ag2 I11 2.980080 1_556
Ag2 I10 2.995165 1_445
Ag3 I0 2.834842 1_655
Ag3 I5 2.840850 1_555
Ag3 I9 2.980080 1_555
Ag3 I8 2.995165 1_655
Ag4 I2 2.834842 1_455
Ag4 I4 2.840850 1_555
Ag4 I8 2.980080 1_555
Ag4 I9 2.995165 1_455
Ag5 I0 2.834842 1_555
Ag5 I5 2.840850 1_555
Ag5 I9 2.980080 1_555
Ag5 I8 2.995165 1_555
Ag6 I1 2.834842 1_654
Ag6 I6 2.840850 1_555
Ag6 I10 2.980080 1_554
Ag6 I11 2.995165 1_665
Ag7 I3 2.834842 1_556
Ag7 I7 2.840850 1_555
Ag7 I11 2.980080 1_556
Ag7 I10 2.995165 1_545
