# generated using pymatgen
data_Yb(Mo3S4)2
_symmetry_space_group_name_H-M   'P 1'
_cell_length_a   6.53371455
_cell_length_b   6.53371455
_cell_length_c   6.53371466
_cell_angle_alpha   89.42893731
_cell_angle_beta   89.42893731
_cell_angle_gamma   89.42894149
_symmetry_Int_Tables_number   1
_chemical_formula_structural   Yb(Mo3S4)2
_chemical_formula_sum   'Yb1 Mo6 S8'
_cell_volume   278.87924070
_cell_formula_units_Z   1
loop_
 _symmetry_equiv_pos_site_id
 _symmetry_equiv_pos_as_xyz
  1  'x, y, z'
loop_
 _atom_site_type_symbol
 _atom_site_label
 _atom_site_symmetry_multiplicity
 _atom_site_fract_x
 _atom_site_fract_y
 _atom_site_fract_z
 _atom_site_occupancy
  Yb  Yb0  1  0.00000000  0.00000000  0.00000000  1
  Mo  Mo0  1  0.77657500  0.58182100  0.44045900  1
  Mo  Mo1  1  0.41817900  0.55954100  0.22342500  1
  Mo  Mo2  1  0.55954100  0.22342500  0.41817900  1
  Mo  Mo3  1  0.44045900  0.77657500  0.58182100  1
  Mo  Mo4  1  0.58182100  0.44045900  0.77657500  1
  Mo  Mo5  1  0.22342500  0.41817900  0.55954100  1
  S  S0  1  0.23896000  0.23896000  0.23896000  1
  S  S1  1  0.12769100  0.74592600  0.37661400  1
  S  S2  1  0.74592600  0.37661400  0.12769100  1
  S  S3  1  0.37661400  0.12769100  0.74592600  1
  S  S4  1  0.87230900  0.25407400  0.62338600  1
  S  S5  1  0.25407400  0.62338600  0.87230900  1
  S  S6  1  0.76104000  0.76104000  0.76104000  1
  S  S7  1  0.62338600  0.87230900  0.25407400  1
loop_
_geom_bond_atom_site_label_1
_geom_bond_atom_site_label_2
_geom_bond_distance
_geom_bond_site_symmetry_2
Mo0 S6 2.410608 1_555
Mo0 S7 2.455081 1_555
Mo0 S2 2.466154 1_555
Mo0 S4 2.518439 1_555
Mo0 S1 2.570516 1_655
Mo1 S0 2.410608 1_555
Mo1 S1 2.455081 1_555
Mo1 S7 2.466154 1_555
Mo1 S2 2.518439 1_555
Mo1 S5 2.570516 1_554
Mo2 S0 2.410608 1_555
Mo2 S2 2.455081 1_555
Mo2 S4 2.466154 1_555
Mo2 S3 2.518439 1_555
Mo2 S7 2.570516 1_545
Mo3 S6 2.410608 1_555
Mo3 S5 2.455081 1_555
Mo3 S1 2.466154 1_555
Mo3 S7 2.518439 1_555
Mo3 S3 2.570516 1_565
Mo4 S6 2.410608 1_555
Mo4 S4 2.455081 1_555
Mo4 S3 2.466154 1_555
Mo4 S5 2.518439 1_555
Mo4 S2 2.570516 1_556
Mo5 S0 2.410608 1_555
Mo5 S3 2.455081 1_555
Mo5 S5 2.466154 1_555
Mo5 S1 2.518439 1_555
Mo5 S4 2.570516 1_455
S0 Yb0 2.731064 1_555
S1 Yb0 3.072244 1_565
S2 Yb0 3.072244 1_655
S3 Yb0 3.072244 1_556
S4 Yb0 3.072244 1_656
S5 Yb0 3.072244 1_566
S6 Yb0 2.731064 1_666
S7 Yb0 3.072244 1_665
