# generated using pymatgen
data_Na8ZnSi4Ge3(PO12)2
_symmetry_space_group_name_H-M   'P 1'
_cell_length_a   8.84534126
_cell_length_b   8.87169311
_cell_length_c   21.63914802
_cell_angle_alpha   89.78489123
_cell_angle_beta   90.19293611
_cell_angle_gamma   120.08970030
_symmetry_Int_Tables_number   1
_chemical_formula_structural   Na8ZnSi4Ge3(PO12)2
_chemical_formula_sum   'Na24 Zn3 Si12 Ge9 P6 O72'
_cell_volume   1469.24740457
_cell_formula_units_Z   3
loop_
 _symmetry_equiv_pos_site_id
 _symmetry_equiv_pos_as_xyz
  1  'x, y, z'
loop_
 _atom_site_type_symbol
 _atom_site_label
 _atom_site_symmetry_multiplicity
 _atom_site_fract_x
 _atom_site_fract_y
 _atom_site_fract_z
 _atom_site_occupancy
  Na  Na0  1  0.63743727  0.01031944  0.24464390  1
  Na  Na1  1  0.37390250  0.36286310  0.24533340  1
  Na  Na2  1  0.98974417  0.62653319  0.24539583  1
  Na  Na3  1  0.63155590  0.62106850  0.74760872  1
  Na  Na4  1  0.98770938  0.36920728  0.75012088  1
  Na  Na5  1  0.38089557  0.00773093  0.74651304  1
  Na  Na6  1  0.30722152  0.33513082  0.58571465  1
  Na  Na7  1  0.03032719  0.69780169  0.58442238  1
  Na  Na8  1  0.66418688  0.97077443  0.58804169  1
  Na  Na9  1  0.30733412  0.96981879  0.08313339  1
  Na  Na10  1  0.66234762  0.69271719  0.08316191  1
  Na  Na11  1  0.03004219  0.33757540  0.08301403  1
  Na  Na12  1  0.96404638  0.66571795  0.91697934  1
  Na  Na13  1  0.70173092  0.03672809  0.91680935  1
  Na  Na14  1  0.33431607  0.29896110  0.91760028  1
  Na  Na15  1  0.96618733  0.29038890  0.41467018  1
  Na  Na16  1  0.32159413  0.03609620  0.41608924  1
  Na  Na17  1  0.71182789  0.67420521  0.41409751  1
  Na  Na18  1  0.00315095  0.99961223  0.49741241  1
  Na  Na19  1  0.99996202  0.00029291  0.99936857  1
  Na  Na20  1  0.66930325  0.33312805  0.83062362  1
  Na  Na21  1  0.66693859  0.33464546  0.33020915  1
  Na  Na22  1  0.33354096  0.66662111  0.16293467  1
  Na  Na23  1  0.33672811  0.67056105  0.66790121  1
  Zn  Zn0  1  0.00553402  0.00052013  0.35348106  1
  Zn  Zn1  1  0.66510457  0.33183526  0.68441735  1
  Zn  Zn2  1  0.66686645  0.33286176  0.17508292  1
  Si  Si0  1  0.00505055  0.71383147  0.75300486  1
  Si  Si1  1  0.71253821  0.99559994  0.75180187  1
  Si  Si2  1  0.37488579  0.04015771  0.58329716  1
  Si  Si3  1  0.66436807  0.62795839  0.58384340  1
  Si  Si4  1  0.96145623  0.62534124  0.08332065  1
  Si  Si5  1  0.66365898  0.03840900  0.08326165  1
  Si  Si6  1  0.37488327  0.33632466  0.08336455  1
  Si  Si7  1  0.61893169  0.66477825  0.91618736  1
  Si  Si8  1  0.04604847  0.37966408  0.91578712  1
  Si  Si9  1  0.33465027  0.95752382  0.91653855  1
  Si  Si10  1  0.33771655  0.38290371  0.41850601  1
  Si  Si11  1  0.04221756  0.65928161  0.41845885  1
  Ge  Ge0  1  0.99496703  0.99654368  0.85517615  1
  Ge  Ge1  1  0.99810472  0.98718729  0.64855835  1
  Ge  Ge2  1  0.99975948  0.99953853  0.14399492  1
  Ge  Ge3  1  0.66686011  0.33364103  0.98071275  1
  Ge  Ge4  1  0.66413410  0.34380790  0.48202157  1
  Ge  Ge5  1  0.33269030  0.66650273  0.01800134  1
  Ge  Ge6  1  0.33333331  0.66834320  0.51903302  1
  Ge  Ge7  1  0.32938117  0.66055562  0.31647224  1
  Ge  Ge8  1  0.33567831  0.67475112  0.81520394  1
  P  P0  1  0.29211142  0.99597435  0.25185341  1
  P  P1  1  0.70566177  0.71088890  0.25226373  1
  P  P2  1  0.00324092  0.29283693  0.25181532  1
  P  P3  1  0.27899961  0.28477098  0.75142349  1
  P  P4  1  0.95982988  0.33436444  0.58230805  1
  P  P5  1  0.61578563  0.95544968  0.41740537  1
  O  O0  1  0.21358634  0.02569656  0.30965619  1
  O  O1  1  0.81402030  0.79164392  0.31006028  1
  O  O2  1  0.97414507  0.18395084  0.30971673  1
  O  O3  1  0.19484285  0.16878106  0.80930433  1
  O  O4  1  0.97125714  0.80717897  0.81219864  1
  O  O5  1  0.83875340  0.03324115  0.81209897  1
  O  O6  1  0.80062975  0.95943018  0.68924531  1
  O  O7  1  0.16356791  0.20271767  0.69174656  1
  O  O8  1  0.04892679  0.83762465  0.68991896  1
  O  O9  1  0.79027674  0.82964866  0.19308080  1
  O  O10  1  0.03862389  0.20879751  0.19318680  1
  O  O11  1  0.17121211  0.95955903  0.19319777  1
  O  O12  1  0.89118889  0.37638085  0.63995692  1
  O  O13  1  0.49364390  0.10700492  0.64367609  1
  O  O14  1  0.61432234  0.50782503  0.64379277  1
  O  O15  1  0.89706816  0.51284845  0.14553037  1
  O  O16  1  0.61560520  0.10293169  0.14515201  1
  O  O17  1  0.48775062  0.38415020  0.14553296  1
  O  O18  1  0.45964894  0.28940238  0.02341653  1
  O  O19  1  0.82940065  0.54015965  0.02318631  1
  O  O20  1  0.71107660  0.17101062  0.02329964  1
  O  O21  1  0.46436446  0.17009002  0.52179591  1
  O  O22  1  0.71280990  0.54561530  0.52289154  1
  O  O23  1  0.83726210  0.29538382  0.52451737  1
  O  O24  1  0.53557827  0.70791400  0.97587940  1
  O  O25  1  0.17144252  0.46320711  0.97601600  1
  O  O26  1  0.28984291  0.82891167  0.97592163  1
  O  O27  1  0.53283368  0.83841502  0.47476732  1
  O  O28  1  0.30441812  0.47568771  0.47747355  1
  O  O29  1  0.17063504  0.69801712  0.47744592  1
  O  O30  1  0.12848273  0.62075167  0.35616166  1
  O  O31  1  0.49760013  0.87354654  0.35849947  1
  O  O32  1  0.38250186  0.50994413  0.35628101  1
  O  O33  1  0.13136292  0.50646895  0.85506326  1
  O  O34  1  0.37949490  0.87617230  0.85592840  1
  O  O35  1  0.49170382  0.62173648  0.85533454  1
  O  O36  1  0.01684119  0.82605556  0.41597836  1
  O  O37  1  0.79636859  0.97513004  0.41393040  1
  O  O38  1  0.16699282  0.19274859  0.41617475  1
  O  O39  1  0.02718508  0.18485231  0.91084164  1
  O  O40  1  0.16048472  0.97957339  0.91044280  1
  O  O41  1  0.81512140  0.84040573  0.91204725  1
  O  O42  1  0.97913628  0.16959929  0.58638356  1
  O  O43  1  0.18026603  0.02760592  0.58798632  1
  O  O44  1  0.84292363  0.82437181  0.58752603  1
  O  O45  1  0.97826166  0.82101195  0.08986697  1
  O  O46  1  0.84289558  0.02155569  0.08988717  1
  O  O47  1  0.17862695  0.15689973  0.09001103  1
  O  O48  1  0.68965958  0.16380397  0.74971576  1
  O  O49  1  0.45973218  0.30442827  0.74921764  1
  O  O50  1  0.83382293  0.52469518  0.74938537  1
  O  O51  1  0.68146573  0.52900101  0.24753734  1
  O  O52  1  0.84565330  0.31813693  0.24699945  1
  O  O53  1  0.47446577  0.15430719  0.24677429  1
  O  O54  1  0.63924861  0.49049796  0.92220983  1
  O  O55  1  0.85129715  0.36028698  0.92211687  1
  O  O56  1  0.51009009  0.15136879  0.92288049  1
  O  O57  1  0.63034674  0.13680097  0.42194740  1
  O  O58  1  0.51712653  0.36690068  0.42218923  1
  O  O59  1  0.85008976  0.47565370  0.42371341  1
  O  O60  1  0.35000951  0.50658408  0.07408993  1
  O  O61  1  0.15676253  0.64984044  0.07399424  1
  O  O62  1  0.49322666  0.84310154  0.07384688  1
  O  O63  1  0.34728834  0.84204288  0.57412270  1
  O  O64  1  0.49224053  0.65281257  0.57377298  1
  O  O65  1  0.14606240  0.49809364  0.57496170  1
  O  O66  1  0.30392903  0.82220439  0.25527585  1
  O  O67  1  0.52026765  0.70108586  0.25453386  1
  O  O68  1  0.17849852  0.47845347  0.25402963  1
  O  O69  1  0.29197342  0.46601856  0.75419850  1
  O  O70  1  0.18545556  0.69938902  0.75633580  1
  O  O71  1  0.51982328  0.81218962  0.75574632  1
loop_
_geom_bond_atom_site_label_1
_geom_bond_atom_site_label_2
_geom_bond_distance
_geom_bond_site_symmetry_2
Na0 O16 2.343169 1_555
Na0 O53 2.357811 1_555
Na0 O67 2.406740 1_545
Na0 O52 2.410282 1_555
Na0 O66 2.570160 1_545
Na0 O31 2.750534 1_545
Na0 O9 2.799676 1_545
Na0 O2 2.934914 1_555
Na1 O17 2.352554 1_555
Na1 O51 2.356869 1_555
Na1 O68 2.419782 1_555
Na1 O53 2.421834 1_555
Na1 O67 2.612832 1_555
Na1 O32 2.719395 1_555
Na1 O10 2.803773 1_555
Na1 O0 2.936756 1_555
Na2 O15 2.352566 1_555
Na2 O52 2.369458 1_555
Na2 O51 2.412703 1_555
Na2 O66 2.438000 1_655
Na2 O68 2.596862 1_655
Na2 O30 2.701117 1_655
Na2 O11 2.795226 1_655
Na2 O1 2.971978 1_555
Na3 O50 2.338070 1_555
Na3 O71 2.359328 1_555
Na3 O49 2.433306 1_555
Na3 O14 2.437288 1_555
Na3 O69 2.606389 1_555
Na3 O35 2.644084 1_555
Na3 O6 2.885378 1_555
Na3 O4 2.953421 1_555
Na4 O48 2.335359 1_555
Na4 O50 2.374523 1_555
Na4 O69 2.381143 1_655
Na4 O12 2.540738 1_555
Na4 O70 2.553817 1_655
Na4 O33 2.589228 1_655
Na4 O5 2.909072 1_555
Na4 O7 2.920272 1_655
Na5 O49 2.361905 1_555
Na5 O48 2.364030 1_555
Na5 O70 2.402718 1_545
Na5 O13 2.416974 1_555
Na5 O71 2.587050 1_545
Na5 O34 2.633083 1_545
Na5 O8 2.818833 1_545
Na6 O43 2.373651 1_555
Na6 O64 2.461865 1_555
Na6 O65 2.497636 1_555
Na6 O42 2.511057 1_455
Na6 O7 2.600326 1_555
Na6 O28 2.655252 1_555
Na6 O14 2.669090 1_555
Na6 O21 2.838640 1_555
Na7 O44 2.425060 1_455
Na7 O63 2.439711 1_555
Na7 O65 2.460045 1_555
Na7 O43 2.536905 1_565
Na7 O8 2.567363 1_555
Na7 O29 2.629803 1_555
Na7 O12 2.748706 1_455
Na7 O22 2.769431 1_455
Na8 O42 2.438537 1_565
Na8 O63 2.457476 1_555
Na8 O64 2.463175 1_555
Na8 O44 2.499174 1_555
Na8 O6 2.522887 1_555
Na8 O13 2.652718 1_565
Na8 O27 2.715032 1_555
Na8 O23 2.844367 1_565
Na9 O62 2.421837 1_555
Na9 O47 2.443475 1_565
Na9 O61 2.466341 1_555
Na9 O45 2.526835 1_455
Na9 O26 2.606596 1_554
Na9 O11 2.652979 1_555
Na9 O16 2.718324 1_565
Na9 O18 2.770852 1_565
Na10 O60 2.412957 1_555
Na10 O45 2.436059 1_555
Na10 O62 2.460816 1_555
Na10 O46 2.532297 1_565
Na10 O24 2.607031 1_554
Na10 O9 2.653099 1_555
Na10 O17 2.729052 1_555
Na10 O19 2.780468 1_555
Na11 O61 2.419284 1_555
Na11 O46 2.442871 1_455
Na11 O60 2.458050 1_555
Na11 O47 2.535500 1_555
Na11 O25 2.601873 1_554
Na11 O10 2.657061 1_555
Na11 O15 2.737128 1_455
Na11 O20 2.760929 1_455
Na12 O55 2.374483 1_555
Na12 O40 2.437138 1_655
Na12 O41 2.488636 1_555
Na12 O54 2.491159 1_555
Na12 O19 2.571005 1_556
Na12 O4 2.572815 1_555
Na12 O26 2.798776 1_655
Na12 O33 2.847032 1_655
Na13 O56 2.378307 1_555
Na13 O41 2.409112 1_545
Na13 O55 2.489348 1_555
Na13 O39 2.497751 1_655
Na13 O20 2.580061 1_556
Na13 O5 2.580812 1_555
Na13 O34 2.794007 1_545
Na13 O24 2.826533 1_545
Na14 O54 2.361405 1_555
Na14 O39 2.380618 1_555
Na14 O40 2.459686 1_545
Na14 O56 2.486751 1_555
Na14 O18 2.560271 1_556
Na14 O3 2.630528 1_555
Na14 O25 2.815618 1_555
Na14 O35 2.817775 1_555
Na15 O38 2.334192 1_655
Na15 O59 2.343188 1_555
Na15 O37 2.422126 1_545
Na15 O2 2.477573 1_555
Na15 O57 2.578543 1_555
Na15 O23 2.649961 1_555
Na15 O30 2.831844 1_655
Na15 O28 2.925387 1_655
Na16 O36 2.387905 1_545
Na16 O38 2.388981 1_555
Na16 O57 2.413443 1_555
Na16 O0 2.474670 1_555
Na16 O58 2.556077 1_555
Na16 O21 2.595344 1_555
Na16 O31 2.886883 1_545
Na16 O29 2.916850 1_545
Na17 O36 2.334667 1_655
Na17 O37 2.384265 1_555
Na17 O58 2.391626 1_555
Na17 O1 2.454099 1_555
Na17 O59 2.607188 1_555
Na17 O22 2.614089 1_555
Na17 O32 2.811952 1_555
Na17 O27 2.948516 1_555
Na18 O38 2.372987 1_565
Na18 O36 2.387354 1_555
Na18 O43 2.439317 1_565
Na18 O44 2.452465 1_455
Na18 O37 2.497670 1_455
Na18 O42 2.524242 1_465
Na19 O41 2.435059 1_545
Na19 O39 2.448026 1_655
Na19 O40 2.456715 1_645
Na19 O47 2.464344 1_656
Na19 O45 2.464672 1_546
Na19 O46 2.467048 1_556
Na20 O50 2.368814 1_555
Na20 O48 2.376406 1_555
Na20 O49 2.472311 1_555
Na20 O55 2.482428 1_555
Na20 O56 2.507321 1_555
Na20 O54 2.518745 1_555
Na21 O51 2.438473 1_555
Na21 O53 2.446964 1_555
Na21 O52 2.452706 1_555
Na21 O58 2.490326 1_555
Na21 O59 2.499645 1_555
Na21 O57 2.556332 1_555
Na22 O61 2.433053 1_555
Na22 O62 2.437414 1_555
Na22 O60 2.441908 1_555
Na22 O67 2.495281 1_555
Na22 O68 2.500229 1_555
Na22 O66 2.520573 1_555
Na23 O71 2.402460 1_555
Na23 O70 2.425267 1_555
Na23 O69 2.489183 1_555
Na23 O63 2.505353 1_555
Na23 O64 2.510816 1_555
Na23 O65 2.577377 1_555
Ge0 O5 1.823266 1_565
Ge0 O4 1.840750 1_555
Ge0 O3 1.933263 1_665
Ge0 O41 1.937716 1_555
Ge0 O40 1.950448 1_655
Ge0 O39 1.964316 1_665
Ge1 O8 1.830352 1_655
Ge1 O6 1.861264 1_555
Ge1 O44 1.931012 1_555
Ge1 O7 1.967166 1_665
Ge1 O43 1.968288 1_665
Ge1 O42 2.170616 1_565
Ge2 O46 1.895608 1_565
Ge2 O47 1.897952 1_665
Ge2 O45 1.904476 1_555
Ge2 O9 2.008531 1_555
Ge2 O10 2.017484 1_665
Ge2 O11 2.021138 1_655
Ge3 O19 1.905539 1_556
Ge3 O20 1.907175 1_556
Ge3 O18 1.911724 1_556
Ge3 O56 1.964425 1_555
Ge3 O54 1.980980 1_555
Ge3 O55 1.987483 1_555
Ge4 O22 1.846441 1_555
Ge4 O21 1.872962 1_555
Ge4 O58 1.913879 1_555
Ge4 O59 1.933751 1_555
Ge4 O23 2.005618 1_555
Ge4 O57 2.148697 1_555
Ge5 O24 1.879842 1_554
Ge5 O25 1.880637 1_554
Ge5 O26 1.893195 1_554
Ge5 O61 1.921508 1_555
Ge5 O62 1.924387 1_555
Ge5 O60 1.926956 1_555
Ge6 O29 1.821977 1_555
Ge6 O28 1.834975 1_555
Ge6 O64 1.891961 1_555
Ge6 O63 1.906071 1_555
Ge6 O27 1.907571 1_555
Ge6 O65 1.995239 1_555
Ge7 O32 1.834768 1_555
Ge7 O30 1.843606 1_555
Ge7 O31 1.948377 1_555
Ge7 O68 2.014751 1_555
Ge7 O66 2.041666 1_555
Ge7 O67 2.044363 1_555
Ge8 O34 1.853390 1_555
Ge8 O35 1.876089 1_555
Ge8 O33 1.879987 1_555
Ge8 O70 1.927138 1_555
Ge8 O71 1.950915 1_555
Ge8 O69 2.149053 1_555
O0 P0 1.519361 1_545
O0 Zn0 1.983409 1_555
O1 P1 1.518626 1_555
O1 Zn0 2.010252 1_665
O2 P2 1.520871 1_655
O2 Zn0 2.015412 1_655
O3 P3 1.552508 1_555
O4 Si0 1.635437 1_655
O5 Si1 1.637065 1_545
O6 Si1 1.674402 1_555
O7 P3 1.578901 1_555
O8 Si0 1.668914 1_555
O9 P1 1.586184 1_555
O10 P2 1.583386 1_555
O11 P0 1.583196 1_555
O12 P4 1.516343 1_555
O12 Zn1 2.073310 1_555
O13 Si2 1.591901 1_555
O13 Zn1 2.006693 1_555
O14 Si3 1.592212 1_555
O14 Zn1 2.025477 1_555
O15 Si4 1.599274 1_555
O15 Zn2 1.961054 1_555
O16 Si5 1.598594 1_555
O16 Zn2 1.966382 1_555
O17 Si6 1.599057 1_555
O17 Zn2 1.959566 1_555
O18 Si6 1.655845 1_555
O19 Si4 1.655534 1_555
O20 Si5 1.655556 1_555
O21 Si2 1.675430 1_555
O22 Si3 1.667869 1_555
O23 P4 1.573852 1_555
O24 Si7 1.628354 1_555
O25 Si8 1.628302 1_555
O26 Si9 1.627629 1_555
O27 P5 1.545872 1_555
O28 Si10 1.626667 1_555
O29 Si11 1.624731 1_555
O30 Si11 1.669810 1_555
O31 P5 1.575415 1_555
O32 Si10 1.668761 1_555
O33 Si8 1.644993 1_555
O34 Si9 1.641972 1_555
O35 Si7 1.645950 1_555
O36 Si11 1.604592 1_555
O36 Zn0 2.091226 1_565
O37 P5 1.519417 1_555
O37 Zn0 2.186553 1_665
O38 Si10 1.604558 1_555
O38 Zn0 2.085813 1_555
O39 Si8 1.654830 1_555
O40 Si9 1.652145 1_555
O41 Si7 1.654089 1_555
O42 P4 1.556558 1_555
O43 Si2 1.671843 1_555
O44 Si3 1.666676 1_555
O45 Si4 1.672895 1_555
O46 Si5 1.671056 1_555
O47 Si6 1.672494 1_555
O48 Si1 1.603762 1_545
O48 Zn1 2.138405 1_555
O49 P3 1.519621 1_555
O49 Zn1 2.212927 1_555
O50 Si0 1.602346 1_655
O50 Zn1 2.138847 1_555
O51 P1 1.521493 1_555
O51 Zn2 2.301422 1_555
O52 P2 1.522106 1_655
O52 Zn2 2.264693 1_555
O53 P0 1.521544 1_545
O53 Zn2 2.260180 1_555
O54 Si7 1.648283 1_555
O55 Si8 1.649328 1_655
O56 Si9 1.645860 1_545
O57 P5 1.551807 1_545
O58 Si10 1.664294 1_555
O59 Si11 1.666979 1_655
O60 Si6 1.643449 1_555
O61 Si4 1.642535 1_455
O62 Si5 1.642505 1_565
O63 Si2 1.661412 1_565
O64 Si3 1.657777 1_555
O65 P4 1.565093 1_455
O66 P0 1.598037 1_555
O67 P1 1.598959 1_555
O68 P2 1.599241 1_555
O69 P3 1.554993 1_555
O70 Si0 1.664987 1_555
O71 Si1 1.667157 1_555
