# generated using pymatgen
data_BaSr(FeO2)4
_symmetry_space_group_name_H-M   'P 1'
_cell_length_a   5.56407809
_cell_length_b   5.56407809
_cell_length_c   8.20573400
_cell_angle_alpha   90.00000000
_cell_angle_beta   90.00000000
_cell_angle_gamma   120.00000106
_symmetry_Int_Tables_number   1
_chemical_formula_structural   BaSr(FeO2)4
_chemical_formula_sum   'Ba1 Sr1 Fe4 O8'
_cell_volume   220.00598460
_cell_formula_units_Z   1
loop_
 _symmetry_equiv_pos_site_id
 _symmetry_equiv_pos_as_xyz
  1  'x, y, z'
loop_
 _atom_site_type_symbol
 _atom_site_label
 _atom_site_symmetry_multiplicity
 _atom_site_fract_x
 _atom_site_fract_y
 _atom_site_fract_z
 _atom_site_occupancy
  Ba  Ba0  1  0.00000000  0.00000000  0.00000000  1
  Sr  Sr0  1  0.00000000  0.00000000  0.50000000  1
  Fe  Fe0  1  0.66666700  0.33333300  0.22942600  1
  Fe  Fe1  1  0.66666700  0.33333300  0.77057400  1
  Fe  Fe2  1  0.33333300  0.66666700  0.77057400  1
  Fe  Fe3  1  0.33333300  0.66666700  0.22942600  1
  O  O0  1  0.33783100  0.33783100  0.70772600  1
  O  O1  1  0.66216900  0.00000000  0.70772600  1
  O  O2  1  0.00000000  0.66216900  0.70772600  1
  O  O3  1  0.66216900  0.66216900  0.29227400  1
  O  O4  1  0.00000000  0.33783100  0.29227400  1
  O  O5  1  0.33783100  0.00000000  0.29227400  1
  O  O6  1  0.33333300  0.66666700  0.00000000  1
  O  O7  1  0.66666700  0.33333300  0.00000000  1
loop_
_geom_bond_atom_site_label_1
_geom_bond_atom_site_label_2
_geom_bond_distance
_geom_bond_site_symmetry_2
Ba0 O3 3.047178 1_445
Ba0 O0 3.047178 1_554
Ba0 O5 3.047178 1_555
Ba0 O4 3.047178 1_555
Ba0 O2 3.047178 1_544
Ba0 O1 3.047178 1_454
Ba0 O6 3.212419 1_545
Ba0 O7 3.212419 1_455
Ba0 O7 3.212424 1_445
Ba0 O6 3.212424 1_555
Ba0 O6 3.212424 1_445
Ba0 O7 3.212424 1_555
Fe0 O7 1.882609 1_555
Fe0 O4 1.913125 1_655
Fe0 O5 1.913128 1_555
Fe0 O3 1.913130 1_555
Fe1 O7 1.882609 1_556
Fe1 O1 1.913125 1_555
Fe1 O2 1.913128 1_655
Fe1 O0 1.913130 1_555
Fe2 O6 1.882609 1_556
Fe2 O2 1.913125 1_555
Fe2 O1 1.913128 1_565
Fe2 O0 1.913130 1_555
Fe3 O6 1.882609 1_555
Fe3 O5 1.913125 1_565
Fe3 O4 1.913128 1_555
Fe3 O3 1.913130 1_555
O0 Sr0 2.537481 1_555
O1 Sr0 2.537481 1_655
O2 Sr0 2.537481 1_565
O3 Sr0 2.537481 1_665
O4 Sr0 2.537481 1_555
O5 Sr0 2.537481 1_555
