# generated using pymatgen
data_Na5Hf2Nb2Si5PO24
_symmetry_space_group_name_H-M   'P 1'
_cell_length_a   9.07097051
_cell_length_b   9.06076531
_cell_length_c   22.81356303
_cell_angle_alpha   90.10220778
_cell_angle_beta   90.07239013
_cell_angle_gamma   120.00149246
_symmetry_Int_Tables_number   1
_chemical_formula_structural   Na5Hf2Nb2Si5PO24
_chemical_formula_sum   'Na15 Hf6 Nb6 Si15 P3 O72'
_cell_volume   1623.80479282
_cell_formula_units_Z   3
loop_
 _symmetry_equiv_pos_site_id
 _symmetry_equiv_pos_as_xyz
  1  'x, y, z'
loop_
 _atom_site_type_symbol
 _atom_site_label
 _atom_site_symmetry_multiplicity
 _atom_site_fract_x
 _atom_site_fract_y
 _atom_site_fract_z
 _atom_site_occupancy
  Na  Na0  1  0.64091172  0.00413573  0.25007495  1
  Na  Na1  1  0.36497859  0.36163851  0.24892220  1
  Na  Na2  1  0.99489919  0.63334440  0.24890228  1
  Na  Na3  1  0.99709419  0.36284321  0.74948589  1
  Na  Na4  1  0.03409061  0.69977191  0.58027664  1
  Na  Na5  1  0.66272091  0.96384917  0.58054265  1
  Na  Na6  1  0.97117507  0.66767994  0.91935927  1
  Na  Na7  1  0.70051450  0.03469416  0.91705557  1
  Na  Na8  1  0.32903666  0.29920591  0.91989552  1
  Na  Na9  1  0.00537753  0.00558727  0.49377649  1
  Na  Na10  1  0.00460311  0.00253063  0.00581519  1
  Na  Na11  1  0.65933780  0.33028471  0.83100797  1
  Na  Na12  1  0.66763880  0.33341000  0.33527592  1
  Na  Na13  1  0.33085810  0.66126302  0.16201039  1
  Na  Na14  1  0.34145208  0.66428182  0.66445564  1
  Hf  Hf0  1  0.99660585  0.99666476  0.35503889  1
  Hf  Hf1  1  0.00377040  0.00202102  0.85019706  1
  Hf  Hf2  1  0.66781359  0.33678690  0.18378367  1
  Hf  Hf3  1  0.66579442  0.33339333  0.98411378  1
  Hf  Hf4  1  0.32553370  0.66199657  0.02340584  1
  Hf  Hf5  1  0.33344063  0.66365603  0.51968789  1
  Nb  Nb0  1  0.00280389  0.00287423  0.64594293  1
  Nb  Nb1  1  0.00456035  -0.00004534  0.14584303  1
  Nb  Nb2  1  0.66167192  0.33306089  0.68695851  1
  Nb  Nb3  1  0.66881521  0.33178718  0.47750567  1
  Nb  Nb4  1  0.33126331  0.66896791  0.31531445  1
  Nb  Nb5  1  0.33236039  0.67295096  0.80994692  1
  Si  Si0  1  0.29006716  0.00058568  0.25117186  1
  Si  Si1  1  0.71015716  0.71103128  0.24984912  1
  Si  Si2  1  -0.00002699  0.28846667  0.25055140  1
  Si  Si3  1  0.29470711  0.29208636  0.75059716  1
  Si  Si4  1  0.99725488  0.70856782  0.74978397  1
  Si  Si5  1  0.70768355  0.99791124  0.74933392  1
  Si  Si6  1  0.95525608  0.33299025  0.58405422  1
  Si  Si7  1  0.37749982  0.04780751  0.58214523  1
  Si  Si8  1  0.66471956  0.62031849  0.58282859  1
  Si  Si9  1  0.96052212  0.63008424  0.08376361  1
  Si  Si10  1  0.37066613  0.33278353  0.08364203  1
  Si  Si11  1  0.04233573  0.37574316  0.91579522  1
  Si  Si12  1  0.33357593  0.95823034  0.91731333  1
  Si  Si13  1  0.62646125  0.95928615  0.41868655  1
  Si  Si14  1  0.04049823  0.66781354  0.41883170  1
  P  P0  1  0.66959178  0.03970537  0.08372015  1
  P  P1  1  0.61967526  0.66685318  0.91604839  1
  P  P2  1  0.33549878  0.37695690  0.41665551  1
  O  O0  1  0.20533493  0.03965311  0.30634043  1
  O  O1  1  0.83416350  0.79557259  0.30570059  1
  O  O2  1  0.96335448  0.16683128  0.30631834  1
  O  O3  1  0.21073482  0.18051116  0.80957850  1
  O  O4  1  0.96965234  0.78982367  0.80917060  1
  O  O5  1  0.82550292  0.03509108  0.80770011  1
  O  O6  1  0.80243726  0.97287620  0.69165474  1
  O  O7  1  0.16324372  0.19474388  0.69499922  1
  O  O8  1  0.02593708  0.82910178  0.69219869  1
  O  O9  1  0.80015698  0.83925146  0.19334912  1
  O  O10  1  0.03634296  0.19830001  0.19352234  1
  O  O11  1  0.16219939  0.96193272  0.19378216  1
  O  O12  1  0.86497737  0.36069761  0.64243392  1
  O  O13  1  0.50261012  0.14067141  0.63923237  1
  O  O14  1  0.64436484  0.50146525  0.64033760  1
  O  O15  1  0.87214802  0.51489856  0.14193051  1
  O  O16  1  0.64480475  0.12486487  0.13882169  1
  O  O17  1  0.48350798  0.35263426  0.14204682  1
  O  O18  1  0.45644925  0.30218008  0.02399481  1
  O  O19  1  0.84628699  0.54154579  0.02402496  1
  O  O20  1  0.69383821  0.15130108  0.02782801  1
  O  O21  1  0.47235510  0.16996501  0.52589608  1
  O  O22  1  0.70157607  0.52924735  0.52700272  1
  O  O23  1  0.82692251  0.29788421  0.52780999  1
  O  O24  1  0.54063496  0.70070611  0.97030251  1
  O  O25  1  0.17044685  0.46512198  0.97059414  1
  O  O26  1  0.30222446  0.83373758  0.97185290  1
  O  O27  1  0.53612022  0.84625131  0.47681352  1
  O  O28  1  0.31243850  0.46592432  0.47046477  1
  O  O29  1  0.15256440  0.68664846  0.47692614  1
  O  O30  1  0.13681672  0.63966925  0.35997172  1
  O  O31  1  0.50329882  0.85995647  0.35992237  1
  O  O32  1  0.35876110  0.48891103  0.36021952  1
  O  O33  1  0.13664173  0.49722511  0.85724183  1
  O  O34  1  0.36258899  0.86066438  0.85949668  1
  O  O35  1  0.50424800  0.63758654  0.86119291  1
  O  O36  1  0.02478652  0.83625798  0.41209914  1
  O  O37  1  0.81416611  0.98356479  0.41209937  1
  O  O38  1  0.17711247  0.20046977  0.41056785  1
  O  O39  1  0.01715365  0.18349565  0.91085852  1
  O  O40  1  0.16280335  0.97541171  0.91101765  1
  O  O41  1  0.80036255  0.82530517  0.90900318  1
  O  O42  1  0.96330130  0.15544382  0.59047687  1
  O  O43  1  0.18567543  0.02209596  0.59089274  1
  O  O44  1  0.83957333  0.80892711  0.59089227  1
  O  O45  1  0.97210999  0.81687930  0.09041075  1
  O  O46  1  0.83269545  0.02700891  0.08921418  1
  O  O47  1  0.18129178  0.16085907  0.09059092  1
  O  O48  1  0.69523942  0.17123821  0.74160095  1
  O  O49  1  0.48184791  0.31268133  0.74229210  1
  O  O50  1  0.83726661  0.51400656  0.74276358  1
  O  O51  1  0.68467588  0.51930691  0.24362802  1
  O  O52  1  0.83466877  0.31358595  0.24337377  1
  O  O53  1  0.48228540  0.16109384  0.24308750  1
  O  O54  1  0.63728694  0.50449504  0.92089882  1
  O  O55  1  0.85423253  0.36068953  0.92027460  1
  O  O56  1  0.50551539  0.14724582  0.91959636  1
  O  O57  1  0.63444634  0.14562206  0.42255017  1
  O  O58  1  0.49977973  0.36534071  0.42216420  1
  O  O59  1  0.85240024  0.49256493  0.42335218  1
  O  O60  1  0.35701888  0.50390688  0.07859351  1
  O  O61  1  0.14956781  0.65284456  0.07887300  1
  O  O62  1  0.51128569  0.86304297  0.07660389  1
  O  O63  1  0.35825958  0.85883520  0.57899047  1
  O  O64  1  0.50413424  0.65144608  0.58018869  1
  O  O65  1  0.13924674  0.50457084  0.57929980  1
  O  O66  1  0.30453978  0.82464495  0.25716906  1
  O  O67  1  0.51840473  0.69075366  0.25743380  1
  O  O68  1  0.17399929  0.47902809  0.25717103  1
  O  O69  1  0.30287110  0.47731939  0.75632944  1
  O  O70  1  0.16747115  0.68554095  0.75576606  1
  O  O71  1  0.52020452  0.82713985  0.75650206  1
loop_
_geom_bond_atom_site_label_1
_geom_bond_atom_site_label_2
_geom_bond_distance
_geom_bond_site_symmetry_2
Na0 O52 2.459276 1_555
Na0 O53 2.482948 1_555
Na0 O67 2.484425 1_545
Na0 O66 2.649671 1_545
Na0 O16 2.758845 1_555
Na0 O31 2.816683 1_545
Na0 O2 2.836588 1_555
Na0 O9 2.854699 1_545
Na1 O68 2.451662 1_555
Na1 O51 2.514698 1_555
Na1 O53 2.526842 1_555
Na1 O67 2.591144 1_555
Na1 O17 2.683497 1_555
Na1 O32 2.799097 1_555
Na1 O0 2.849174 1_555
Na1 O10 2.871594 1_555
Na2 O66 2.461265 1_655
Na2 O51 2.468156 1_555
Na2 O52 2.511881 1_555
Na2 O68 2.627131 1_655
Na2 O15 2.671317 1_555
Na2 O30 2.828173 1_655
Na2 O1 2.847237 1_555
Na2 O11 2.871959 1_655
Na3 O48 2.405713 1_555
Na3 O69 2.432042 1_655
Na3 O50 2.446909 1_555
Na3 O70 2.537142 1_655
Na3 O12 2.714823 1_555
Na3 O33 2.751039 1_655
Na3 O5 2.898667 1_555
Na3 O7 2.903459 1_655
Na4 O65 2.392828 1_555
Na4 O44 2.428077 1_455
Na4 O43 2.541530 1_565
Na4 O63 2.546941 1_555
Na4 O29 2.619436 1_555
Na4 O8 2.823947 1_555
Na4 O22 2.878462 1_455
Na5 O42 2.400559 1_565
Na5 O63 2.430147 1_555
Na5 O64 2.451444 1_555
Na5 O27 2.610476 1_555
Na5 O44 2.617610 1_555
Na5 O6 2.815298 1_555
Na5 O23 2.887114 1_565
Na5 O13 2.965331 1_565
Na6 O55 2.431524 1_555
Na6 O40 2.447047 1_655
Na6 O41 2.590295 1_555
Na6 O54 2.623449 1_555
Na6 O19 2.648188 1_556
Na6 O4 2.751237 1_555
Na6 O26 2.860365 1_655
Na6 O33 2.993692 1_655
Na7 O56 2.444609 1_555
Na7 O41 2.484178 1_545
Na7 O39 2.493289 1_655
Na7 O55 2.560184 1_555
Na7 O5 2.740895 1_555
Na7 O20 2.749748 1_556
Na7 O24 2.892282 1_545
Na7 O34 2.958982 1_545
Na8 O54 2.465195 1_555
Na8 O39 2.485346 1_555
Na8 O40 2.548548 1_545
Na8 O56 2.581228 1_555
Na8 O18 2.634050 1_556
Na8 O3 2.733399 1_555
Na8 O25 2.797847 1_555
Na8 O35 2.977699 1_555
Na9 O36 2.473412 1_545
Na9 O37 2.482874 1_445
Na9 O38 2.533139 1_555
Na9 O43 2.711257 1_555
Na9 O42 2.714006 1_455
Na9 O44 2.772773 1_445
Na10 O47 2.459713 1_555
Na10 O45 2.481590 1_445
Na10 O46 2.540213 1_455
Na10 O40 2.674958 1_544
Na10 O39 2.687190 1_554
Na10 O41 2.809065 1_444
Na11 O49 2.539220 1_555
Na11 O56 2.546927 1_555
Na11 O50 2.600424 1_555
Na11 O48 2.608379 1_555
Na11 O55 2.617335 1_555
Na11 O54 2.653740 1_555
Na12 O57 2.539935 1_555
Na12 O59 2.547553 1_555
Na12 O58 2.603367 1_555
Na12 O51 2.643019 1_555
Na12 O52 2.646225 1_555
Na12 O53 2.653668 1_555
Na13 O60 2.457740 1_555
Na13 O61 2.484675 1_555
Na13 O62 2.616483 1_555
Na13 O68 2.671155 1_555
Na13 O67 2.690474 1_555
Na13 O66 2.702700 1_555
Na14 O64 2.462704 1_555
Na14 O65 2.561070 1_555
Na14 O63 2.583901 1_555
Na14 O71 2.608403 1_555
Na14 O69 2.609007 1_555
Na14 O70 2.679179 1_555
Hf0 O1 2.015339 1_555
Hf0 O2 2.043035 1_565
Hf0 O0 2.059179 1_665
Hf0 O36 2.061490 1_655
Hf0 O37 2.063230 1_555
Hf0 O38 2.158355 1_665
Hf1 O3 1.993022 1_555
Hf1 O4 2.016494 1_445
Hf1 O5 2.031315 1_455
Hf1 O40 2.099616 1_545
Hf1 O39 2.103682 1_555
Hf1 O41 2.197149 1_445
Hf2 O17 1.989671 1_555
Hf2 O15 1.992539 1_555
Hf2 O51 2.088240 1_555
Hf2 O16 2.091515 1_555
Hf2 O52 2.120645 1_555
Hf2 O53 2.128635 1_555
Hf3 O19 1.992177 1_556
Hf3 O18 1.995505 1_556
Hf3 O20 2.050947 1_556
Hf3 O56 2.158330 1_555
Hf3 O55 2.165371 1_555
Hf3 O54 2.226681 1_555
Hf4 O61 2.007244 1_555
Hf4 O25 2.022666 1_554
Hf4 O60 2.033020 1_555
Hf4 O26 2.045563 1_554
Hf4 O62 2.132550 1_555
Hf4 O24 2.172761 1_554
Hf5 O29 2.006383 1_555
Hf5 O27 2.010592 1_555
Hf5 O28 2.039143 1_555
Hf5 O64 2.116874 1_555
Hf5 O65 2.122265 1_555
Hf5 O63 2.145009 1_555
Nb0 O7 1.962546 1_555
Nb0 O8 1.993105 1_545
Nb0 O6 1.994131 1_445
Nb0 O43 2.019013 1_555
Nb0 O42 2.034962 1_455
Nb0 O44 2.059881 1_445
Nb1 O11 1.962027 1_545
Nb1 O45 1.985140 1_445
Nb1 O47 1.989653 1_555
Nb1 O10 1.992526 1_555
Nb1 O9 2.010823 1_445
Nb1 O46 2.130199 1_455
Nb2 O14 1.931083 1_555
Nb2 O13 1.944225 1_555
Nb2 O49 1.998299 1_555
Nb2 O12 2.009800 1_555
Nb2 O50 2.054686 1_555
Nb2 O48 2.061210 1_555
Nb3 O23 1.976353 1_555
Nb3 O21 1.985463 1_555
Nb3 O57 1.994967 1_555
Nb3 O59 2.001809 1_555
Nb3 O22 2.006159 1_555
Nb3 O58 2.121354 1_555
Nb4 O31 1.937683 1_555
Nb4 O30 1.938225 1_555
Nb4 O66 2.038588 1_555
Nb4 O32 2.045877 1_555
Nb4 O68 2.070805 1_555
Nb4 O67 2.082251 1_555
Nb5 O34 1.942108 1_555
Nb5 O70 1.986064 1_555
Nb5 O71 1.993114 1_555
Nb5 O33 2.008805 1_555
Nb5 O69 2.055981 1_555
Nb5 O35 2.096880 1_555
O0 Si0 1.604071 1_555
O1 Si1 1.614557 1_555
O2 Si2 1.607343 1_655
O3 Si3 1.627931 1_555
O4 Si4 1.619237 1_555
O5 Si5 1.632004 1_545
O6 Si5 1.648783 1_555
O7 Si3 1.658053 1_555
O8 Si4 1.645642 1_455
O9 Si1 1.654430 1_555
O10 Si2 1.654033 1_555
O11 Si0 1.664467 1_565
O12 Si6 1.647614 1_555
O13 Si7 1.652112 1_555
O14 Si8 1.649825 1_555
O15 Si9 1.632094 1_555
O16 P0 1.548191 1_555
O17 Si10 1.633098 1_555
O18 Si10 1.658668 1_555
O19 Si9 1.654055 1_555
O20 P0 1.574665 1_555
O21 Si7 1.633280 1_555
O22 Si8 1.639489 1_555
O23 Si6 1.651430 1_555
O24 P1 1.536531 1_555
O25 Si11 1.618877 1_555
O26 Si12 1.608258 1_555
O27 Si13 1.627037 1_555
O28 P2 1.538271 1_555
O29 Si14 1.625215 1_555
O30 Si14 1.689990 1_555
O31 Si13 1.685761 1_555
O32 P2 1.588230 1_555
O33 Si11 1.671601 1_555
O34 Si12 1.679259 1_555
O35 P1 1.565430 1_555
O36 Si14 1.609847 1_555
O37 Si13 1.611284 1_555
O38 P2 1.530270 1_555
O39 Si11 1.643299 1_555
O40 Si12 1.638650 1_555
O41 P1 1.556172 1_555
O42 Si6 1.653164 1_555
O43 Si7 1.648475 1_555
O44 Si8 1.660568 1_555
O45 Si9 1.649167 1_555
O46 P0 1.545213 1_555
O47 Si10 1.651708 1_555
O48 Si5 1.639658 1_545
O49 Si3 1.623744 1_555
O50 Si4 1.636893 1_555
O51 Si1 1.639761 1_555
O52 Si2 1.633350 1_655
O53 Si0 1.629456 1_555
O54 P1 1.561227 1_555
O55 Si11 1.645655 1_655
O56 Si12 1.642126 1_545
O57 Si13 1.655501 1_545
O58 P2 1.550470 1_555
O59 Si14 1.653738 1_655
O60 Si10 1.620253 1_555
O61 Si9 1.625583 1_455
O62 P0 1.533117 1_565
O63 Si7 1.633422 1_565
O64 Si8 1.617325 1_555
O65 Si6 1.618780 1_455
O66 Si0 1.669526 1_565
O67 Si1 1.664459 1_555
O68 Si2 1.663943 1_555
O69 Si3 1.647529 1_555
O70 Si4 1.663702 1_455
O71 Si5 1.638025 1_555
