# generated using pymatgen
data_Ba2TmMgNbO6
_symmetry_space_group_name_H-M   'P 1'
_cell_length_a   6.67337338
_cell_length_b   5.97536764
_cell_length_c   5.97666332
_cell_angle_alpha   59.99283229
_cell_angle_beta   63.39743169
_cell_angle_gamma   63.35693980
_symmetry_Int_Tables_number   1
_chemical_formula_structural   Ba2TmMgNbO6
_chemical_formula_sum   'Ba2 Tm1 Mg1 Nb1 O6'
_cell_volume   176.60603645
_cell_formula_units_Z   1
loop_
 _symmetry_equiv_pos_site_id
 _symmetry_equiv_pos_as_xyz
  1  'x, y, z'
loop_
 _atom_site_type_symbol
 _atom_site_label
 _atom_site_symmetry_multiplicity
 _atom_site_fract_x
 _atom_site_fract_y
 _atom_site_fract_z
 _atom_site_occupancy
  Ba  Ba0  1  0.79994802  0.73412274  0.73296462  1
  Ba  Ba1  1  0.41137990  0.19757671  0.19552170  1
  Tm  Tm0  1  0.42057529  0.52761852  0.52590309  1
  Mg  Mg0  1  0.90040921  0.36694280  0.36632400  1
  Nb  Nb0  1  0.00511970  0.99868992  0.99809519  1
  O  O0  1  0.20335785  0.76948355  0.76809452  1
  O  O1  1  0.20335785  0.76948355  0.25906408  1
  O  O2  1  0.73905712  0.25592603  0.75014510  1
  O  O3  1  0.20450214  0.25923537  0.76813124  1
  O  O4  1  0.73905712  0.25592603  0.25487174  1
  O  O5  1  0.73781880  0.75041177  0.25588471  1
loop_
_geom_bond_atom_site_label_1
_geom_bond_atom_site_label_2
_geom_bond_distance
_geom_bond_site_symmetry_2
Ba0 O0 2.897742 1_655
Ba0 O1 2.897742 1_655
Ba0 O3 2.902726 1_655
Ba0 O2 3.007313 1_565
Ba0 O4 3.007313 1_565
Ba0 O2 3.008473 1_555
Ba0 O4 3.008474 1_556
Ba0 O5 3.009409 1_555
Ba0 O5 3.009409 1_556
Ba1 O4 2.555633 1_555
Ba1 O2 2.555633 1_554
Ba1 O5 2.556270 1_545
Ba1 Mg0 2.917967 1_455
Ba1 O1 3.212612 1_555
Ba1 O0 3.212612 1_554
Ba1 O3 3.213618 1_554
Ba1 O3 3.213618 1_555
Ba1 O1 3.218037 1_545
Ba1 O0 3.218037 1_545
Mg0 O5 1.939639 1_555
Mg0 O4 1.941168 1_555
Mg0 O2 1.941168 1_555
Nb0 O1 2.035917 1_556
Nb0 O0 2.035917 1_555
Nb0 O3 2.040338 1_565
Nb0 O2 2.311217 1_465
Nb0 O4 2.311217 1_466
Nb0 O5 2.320014 1_456
O0 Tm0 2.149311 1_555
O1 Tm0 2.149311 1_555
O2 Tm0 2.495827 1_555
O3 Tm0 2.151519 1_555
O4 Tm0 2.495827 1_555
O5 Tm0 2.485494 1_555
