# generated using pymatgen
data_MnOF
_symmetry_space_group_name_H-M   'P 1'
_cell_length_a   4.64325891
_cell_length_b   4.64079961
_cell_length_c   12.69094302
_cell_angle_alpha   91.06400796
_cell_angle_beta   88.86528449
_cell_angle_gamma   90.27725083
_symmetry_Int_Tables_number   1
_chemical_formula_structural   MnOF
_chemical_formula_sum   'Mn8 O8 F8'
_cell_volume   273.36644288
_cell_formula_units_Z   8
loop_
 _symmetry_equiv_pos_site_id
 _symmetry_equiv_pos_as_xyz
  1  'x, y, z'
loop_
 _atom_site_type_symbol
 _atom_site_label
 _atom_site_symmetry_multiplicity
 _atom_site_fract_x
 _atom_site_fract_y
 _atom_site_fract_z
 _atom_site_occupancy
  Mn  Mn0  1  0.98912000  0.95015800  0.00314300  1
  Mn  Mn1  1  0.02677800  0.02973800  0.25049200  1
  Mn  Mn2  1  0.97480300  0.96628900  0.49829300  1
  Mn  Mn3  1  0.05383000  0.00888100  0.75197600  1
  Mn  Mn4  1  0.47853400  0.52269000  0.62505100  1
  Mn  Mn5  1  0.53516400  0.46090400  0.12587900  1
  Mn  Mn6  1  0.47190400  0.53078300  0.37446400  1
  Mn  Mn7  1  0.48848400  0.51093300  0.87664900  1
  O  O0  1  0.16925500  0.82074200  0.37370800  1
  O  O1  1  0.19531100  0.82294800  0.62815200  1
  O  O2  1  0.19332800  0.79534700  0.88124200  1
  O  O3  1  0.33091800  0.31531500  0.25105600  1
  O  O4  1  0.31910100  0.32978600  0.74904600  1
  O  O5  1  0.69134700  0.65678300  0.00172600  1
  O  O6  1  0.65767600  0.69934400  0.49764100  1
  O  O7  1  0.83548200  0.17167200  0.12621800  1
  F  F0  1  0.23126300  0.76300400  0.12763100  1
  F  F1  1  0.29529100  0.25319900  0.00072200  1
  F  F2  1  0.25413300  0.29480600  0.49868700  1
  F  F3  1  0.72323200  0.72602900  0.25059800  1
  F  F4  1  0.72382800  0.72943400  0.74945300  1
  F  F5  1  0.77542600  0.22963100  0.37692800  1
  F  F6  1  0.77827500  0.20481400  0.61486200  1
  F  F7  1  0.80751200  0.20677200  0.86638200  1
loop_
_geom_bond_atom_site_label_1
_geom_bond_atom_site_label_2
_geom_bond_distance
_geom_bond_site_symmetry_2
Mn0 O2 1.927635 1_654
Mn0 O5 1.935855 1_555
Mn0 O7 1.977039 1_565
Mn1 O3 1.932028 1_555
Mn1 O7 1.951916 1_455
Mn1 O0 1.981700 1_545
Mn2 O0 1.918601 1_655
Mn2 O6 1.919766 1_555
Mn2 O1 2.078698 1_655
Mn3 O1 1.886741 1_545
Mn3 O4 1.928444 1_555
Mn3 O2 2.049757 1_545
Mn4 O1 1.919972 1_555
Mn4 O4 1.955885 1_555
Mn4 O6 1.991957 1_555
Mn5 O7 1.940302 1_555
Mn5 O5 1.958670 1_555
Mn5 O3 1.963056 1_555
Mn6 O6 1.949651 1_555
Mn6 O0 1.950631 1_555
Mn6 O3 1.964030 1_555
Mn7 O2 1.906639 1_555
Mn7 O5 1.969318 1_556
Mn7 O4 1.985255 1_555
F0 Mn5 1.993485 1_555
F0 Mn0 2.155284 1_455
F0 Mn1 2.178539 1_565
F1 Mn0 1.995077 1_445
F1 Mn5 2.166881 1_555
F1 Mn7 2.172169 1_554
F2 Mn2 1.996853 1_445
F2 Mn6 2.167346 1_555
F2 Mn4 2.183671 1_555
F3 Mn1 1.988431 1_665
F3 Mn6 2.150343 1_555
F3 Mn5 2.180300 1_555
F4 Mn3 2.002980 1_665
F4 Mn4 2.171342 1_555
F4 Mn7 2.192791 1_555
F5 Mn6 1.990696 1_555
F5 Mn1 2.162962 1_655
F5 Mn2 2.204600 1_545
F6 Mn4 2.033624 1_555
F6 Mn2 2.035208 1_545
F6 Mn3 2.376978 1_655
F7 Mn3 2.038246 1_655
F7 Mn7 2.051719 1_555
F7 Mn0 2.299163 1_546
