# generated using pymatgen
data_Rb3GaP2
_symmetry_space_group_name_H-M   'P 1'
_cell_length_a   9.24714600
_cell_length_b   14.92556100
_cell_length_c   25.12701600
_cell_angle_alpha   90.00000000
_cell_angle_beta   90.00000000
_cell_angle_gamma   90.00000000
_symmetry_Int_Tables_number   1
_chemical_formula_structural   Rb3GaP2
_chemical_formula_sum   'Rb48 Ga16 P32'
_cell_volume   3468.00164367
_cell_formula_units_Z   16
loop_
 _symmetry_equiv_pos_site_id
 _symmetry_equiv_pos_as_xyz
  1  'x, y, z'
loop_
 _atom_site_type_symbol
 _atom_site_label
 _atom_site_symmetry_multiplicity
 _atom_site_fract_x
 _atom_site_fract_y
 _atom_site_fract_z
 _atom_site_occupancy
  Rb  Rb0  1  0.21374500  0.68212000  0.32994200  1
  Rb  Rb1  1  0.71374500  0.81788000  0.67005800  1
  Rb  Rb2  1  0.78625500  0.18212000  0.17005800  1
  Rb  Rb3  1  0.28625500  0.31788000  0.82994200  1
  Rb  Rb4  1  0.78625500  0.31788000  0.67005800  1
  Rb  Rb5  1  0.28625500  0.18212000  0.32994200  1
  Rb  Rb6  1  0.21374500  0.81788000  0.82994200  1
  Rb  Rb7  1  0.71374500  0.68212000  0.17005800  1
  Rb  Rb8  1  0.78129200  0.67894800  0.42835900  1
  Rb  Rb9  1  0.28129200  0.82105200  0.57164100  1
  Rb  Rb10  1  0.21870800  0.17894800  0.07164100  1
  Rb  Rb11  1  0.71870800  0.32105200  0.92835900  1
  Rb  Rb12  1  0.21870800  0.32105200  0.57164100  1
  Rb  Rb13  1  0.71870800  0.17894800  0.42835900  1
  Rb  Rb14  1  0.78129200  0.82105200  0.92835900  1
  Rb  Rb15  1  0.28129200  0.67894800  0.07164100  1
  Rb  Rb16  1  0.89056000  0.54028500  0.29079100  1
  Rb  Rb17  1  0.39056000  0.95971500  0.70920900  1
  Rb  Rb18  1  0.10944000  0.04028500  0.20920900  1
  Rb  Rb19  1  0.60944000  0.45971500  0.79079100  1
  Rb  Rb20  1  0.10944000  0.45971500  0.70920900  1
  Rb  Rb21  1  0.60944000  0.04028500  0.29079100  1
  Rb  Rb22  1  0.89056000  0.95971500  0.79079100  1
  Rb  Rb23  1  0.39056000  0.54028500  0.20920900  1
  Rb  Rb24  1  0.35916400  0.59451100  0.47277600  1
  Rb  Rb25  1  0.85916400  0.90548900  0.52722400  1
  Rb  Rb26  1  0.64083600  0.09451100  0.02722400  1
  Rb  Rb27  1  0.14083600  0.40548900  0.97277600  1
  Rb  Rb28  1  0.64083600  0.40548900  0.52722400  1
  Rb  Rb29  1  0.14083600  0.09451100  0.47277600  1
  Rb  Rb30  1  0.35916400  0.90548900  0.97277600  1
  Rb  Rb31  1  0.85916400  0.59451100  0.02722400  1
  Rb  Rb32  1  0.85942600  0.82972100  0.27588200  1
  Rb  Rb33  1  0.35942600  0.67027900  0.72411800  1
  Rb  Rb34  1  0.14057400  0.32972100  0.22411800  1
  Rb  Rb35  1  0.64057400  0.17027900  0.77588200  1
  Rb  Rb36  1  0.14057400  0.17027900  0.72411800  1
  Rb  Rb37  1  0.64057400  0.32972100  0.27588200  1
  Rb  Rb38  1  0.85942600  0.67027900  0.77588200  1
  Rb  Rb39  1  0.35942600  0.82972100  0.22411800  1
  Rb  Rb40  1  0.45994500  0.85300300  0.41386900  1
  Rb  Rb41  1  0.95994500  0.64699700  0.58613100  1
  Rb  Rb42  1  0.54005500  0.35300300  0.08613100  1
  Rb  Rb43  1  0.04005500  0.14699700  0.91386900  1
  Rb  Rb44  1  0.54005500  0.14699700  0.58613100  1
  Rb  Rb45  1  0.04005500  0.35300300  0.41386900  1
  Rb  Rb46  1  0.45994500  0.64699700  0.91386900  1
  Rb  Rb47  1  0.95994500  0.85300300  0.08613100  1
  Ga  Ga0  1  0.52852500  0.54512300  0.34112800  1
  Ga  Ga1  1  0.02852500  0.95487700  0.65887200  1
  Ga  Ga2  1  0.47147500  0.04512300  0.15887200  1
  Ga  Ga3  1  0.97147500  0.45487700  0.84112800  1
  Ga  Ga4  1  0.47147500  0.45487700  0.65887200  1
  Ga  Ga5  1  0.97147500  0.04512300  0.34112800  1
  Ga  Ga6  1  0.52852500  0.95487700  0.84112800  1
  Ga  Ga7  1  0.02852500  0.54512300  0.15887200  1
  Ga  Ga8  1  0.04917200  0.87683300  0.40148100  1
  Ga  Ga9  1  0.54917200  0.62316700  0.59851900  1
  Ga  Ga10  1  0.95082800  0.37683300  0.09851900  1
  Ga  Ga11  1  0.45082800  0.12316700  0.90148100  1
  Ga  Ga12  1  0.95082800  0.12316700  0.59851900  1
  Ga  Ga13  1  0.45082800  0.37683300  0.40148100  1
  Ga  Ga14  1  0.04917200  0.62316700  0.90148100  1
  Ga  Ga15  1  0.54917200  0.87683300  0.09851900  1
  P  P0  1  0.18565800  0.95406400  0.33450000  1
  P  P1  1  0.68565800  0.54593600  0.66550000  1
  P  P2  1  0.81434200  0.45406400  0.16550000  1
  P  P3  1  0.31434200  0.04593600  0.83450000  1
  P  P4  1  0.81434200  0.04593600  0.66550000  1
  P  P5  1  0.31434200  0.45406400  0.33450000  1
  P  P6  1  0.18565800  0.54593600  0.83450000  1
  P  P7  1  0.68565800  0.95406400  0.16550000  1
  P  P8  1  0.07856200  0.68103300  0.19568300  1
  P  P9  1  0.57856200  0.81896700  0.80431700  1
  P  P10  1  0.92143800  0.18103300  0.30431700  1
  P  P11  1  0.42143800  0.31896700  0.69568300  1
  P  P12  1  0.92143800  0.31896700  0.80431700  1
  P  P13  1  0.42143800  0.18103300  0.19568300  1
  P  P14  1  0.07856200  0.81896700  0.69568300  1
  P  P15  1  0.57856200  0.68103300  0.30431700  1
  P  P16  1  0.67593400  0.45579000  0.39661600  1
  P  P17  1  0.17593400  0.04421000  0.60338400  1
  P  P18  1  0.32406600  0.95579000  0.10338400  1
  P  P19  1  0.82406600  0.54421000  0.89661600  1
  P  P20  1  0.32406600  0.54421000  0.60338400  1
  P  P21  1  0.82406600  0.95579000  0.39661600  1
  P  P22  1  0.67593400  0.04421000  0.89661600  1
  P  P23  1  0.17593400  0.45579000  0.10338400  1
  P  P24  1  0.11899300  0.76434100  0.45555700  1
  P  P25  1  0.61899300  0.73565900  0.54444300  1
  P  P26  1  0.88100700  0.26434100  0.04444300  1
  P  P27  1  0.38100700  0.23565900  0.95555700  1
  P  P28  1  0.88100700  0.23565900  0.54444300  1
  P  P29  1  0.38100700  0.26434100  0.45555700  1
  P  P30  1  0.11899300  0.73565900  0.95555700  1
  P  P31  1  0.61899300  0.76434100  0.04444300  1
loop_
_geom_bond_atom_site_label_1
_geom_bond_atom_site_label_2
_geom_bond_distance
_geom_bond_site_symmetry_2
Ga0 P15 2.276965 1_555
Ga0 P16 2.362163 1_555
Ga0 P5 2.407823 1_555
Ga0 Rb23 3.552503 1_555
Ga0 Rb16 3.579481 1_555
Ga0 Rb24 3.733418 1_555
Ga0 Rb37 3.754667 1_555
Ga1 P14 2.276965 1_555
Ga1 P17 2.362163 1_565
Ga1 P4 2.407823 1_465
Ga1 Rb22 3.552503 1_455
Ga1 Rb17 3.579481 1_555
Ga1 Rb25 3.733418 1_455
Ga1 Rb36 3.754667 1_565
Ga2 P13 2.276965 1_555
Ga2 P18 2.362163 1_545
Ga2 P7 2.407823 1_545
Ga2 Rb21 3.552503 1_555
Ga2 Rb18 3.579481 1_555
Ga2 Rb26 3.733418 1_555
Ga2 Rb39 3.754667 1_545
Ga3 P12 2.276965 1_555
Ga3 P19 2.362163 1_555
Ga3 P6 2.407823 1_655
Ga3 Rb20 3.552503 1_655
Ga3 Rb19 3.579481 1_555
Ga3 Rb27 3.733418 1_655
Ga3 Rb38 3.754667 1_555
Ga4 P11 2.276965 1_555
Ga4 P20 2.362163 1_555
Ga4 P1 2.407823 1_555
Ga4 Rb19 3.552503 1_555
Ga4 Rb20 3.579481 1_555
Ga4 Rb28 3.733418 1_555
Ga4 Rb33 3.754667 1_555
Ga5 P10 2.276965 1_555
Ga5 P21 2.362163 1_545
Ga5 P0 2.407823 1_645
Ga5 Rb18 3.552503 1_655
Ga5 Rb21 3.579481 1_555
Ga5 Rb29 3.733418 1_655
Ga5 Rb32 3.754667 1_545
Ga6 P9 2.276965 1_555
Ga6 P22 2.362163 1_565
Ga6 P3 2.407823 1_565
Ga6 Rb17 3.552503 1_555
Ga6 Rb22 3.579481 1_555
Ga6 Rb30 3.733418 1_555
Ga6 Rb35 3.754667 1_565
Ga7 P8 2.276965 1_555
Ga7 P23 2.362163 1_555
Ga7 P2 2.407823 1_455
Ga7 Rb16 3.552503 1_455
Ga7 Rb23 3.579481 1_555
Ga7 Rb31 3.733418 1_455
Ga7 Rb34 3.754667 1_555
Ga8 P24 2.254367 1_555
Ga8 P21 2.395154 1_455
Ga8 P0 2.398805 1_555
Ga8 Rb25 3.640443 1_455
Ga8 Rb32 3.678721 1_455
Ga8 Rb29 3.805717 1_565
Ga9 P25 2.254367 1_555
Ga9 P20 2.395154 1_555
Ga9 P1 2.398805 1_555
Ga9 Rb24 3.640443 1_555
Ga9 Rb33 3.678721 1_555
Ga9 Rb28 3.805717 1_555
Ga10 P26 2.254367 1_555
Ga10 P23 2.395154 1_655
Ga10 P2 2.398805 1_555
Ga10 Rb27 3.640443 1_654
Ga10 Rb34 3.678721 1_655
Ga10 Rb31 3.805717 1_555
Ga11 P27 2.254367 1_555
Ga11 P22 2.395154 1_555
Ga11 P3 2.398805 1_555
Ga11 Rb26 3.640443 1_556
Ga11 Rb35 3.678721 1_555
Ga11 Rb30 3.805717 1_545
Ga12 P28 2.254367 1_555
Ga12 P17 2.395154 1_655
Ga12 P4 2.398805 1_555
Ga12 Rb29 3.640443 1_655
Ga12 Rb36 3.678721 1_655
Ga12 Rb25 3.805717 1_545
Ga13 P29 2.254367 1_555
Ga13 P16 2.395154 1_555
Ga13 P5 2.398805 1_555
Ga13 Rb28 3.640443 1_555
Ga13 Rb37 3.678721 1_555
Ga13 Rb24 3.805717 1_555
Ga14 P30 2.254367 1_555
Ga14 P19 2.395154 1_455
Ga14 P6 2.398805 1_555
Ga14 Rb31 3.640443 1_456
Ga14 Rb38 3.678721 1_455
Ga14 Rb27 3.805717 1_555
Ga15 P31 2.254367 1_555
Ga15 P18 2.395154 1_555
Ga15 P7 2.398805 1_555
Ga15 Rb30 3.640443 1_554
Ga15 Rb39 3.678721 1_555
Ga15 Rb26 3.805717 1_565
P0 Rb18 3.473318 1_565
P0 Rb5 3.530544 1_565
P0 Rb40 3.561697 1_555
P0 Rb39 3.703918 1_555
P0 Rb32 3.835924 1_455
P1 Rb19 3.473318 1_555
P1 Rb4 3.530544 1_555
P1 Rb41 3.561697 1_555
P1 Rb38 3.703918 1_555
P1 Rb33 3.835924 1_555
P2 Rb16 3.473318 1_555
P2 Rb7 3.530544 1_555
P2 Rb42 3.561697 1_555
P2 Rb37 3.703918 1_555
P2 Rb34 3.835924 1_655
P3 Rb17 3.473318 1_545
P3 Rb6 3.530544 1_545
P3 Rb43 3.561697 1_555
P3 Rb36 3.703918 1_555
P3 Rb35 3.835924 1_555
P4 Rb22 3.473318 1_545
P4 Rb1 3.530544 1_545
P4 Rb44 3.561697 1_555
P4 Rb35 3.703918 1_555
P4 Rb36 3.835924 1_655
P5 Rb23 3.473318 1_555
P5 Rb0 3.530544 1_555
P5 Rb45 3.561697 1_555
P5 Rb34 3.703918 1_555
P5 Rb37 3.835924 1_555
P6 Rb20 3.473318 1_555
P6 Rb3 3.530544 1_555
P6 Rb46 3.561697 1_555
P6 Rb33 3.703918 1_555
P6 Rb38 3.835924 1_455
P7 Rb21 3.473318 1_565
P7 Rb2 3.530544 1_565
P7 Rb47 3.561697 1_555
P7 Rb32 3.703918 1_555
P7 Rb39 3.835924 1_555
P8 Rb7 3.434451 1_455
P8 Rb39 3.490124 1_555
P8 Rb23 3.585022 1_555
P8 Rb0 3.597721 1_555
P8 Rb32 3.618312 1_455
P8 Rb16 3.625809 1_455
P8 Rb15 3.637286 1_555
P8 Rb47 3.920301 1_455
P9 Rb6 3.434451 1_555
P9 Rb38 3.490124 1_555
P9 Rb22 3.585022 1_555
P9 Rb1 3.597721 1_555
P9 Rb33 3.618312 1_555
P9 Rb17 3.625809 1_555
P9 Rb14 3.637286 1_555
P9 Rb46 3.920301 1_555
P10 Rb5 3.434451 1_655
P10 Rb37 3.490124 1_555
P10 Rb21 3.585022 1_555
P10 Rb2 3.597721 1_555
P10 Rb34 3.618312 1_655
P10 Rb18 3.625809 1_655
P10 Rb13 3.637286 1_555
P10 Rb45 3.920301 1_655
P11 Rb4 3.434451 1_555
P11 Rb36 3.490124 1_555
P11 Rb20 3.585022 1_555
P11 Rb3 3.597721 1_555
P11 Rb35 3.618312 1_555
P11 Rb19 3.625809 1_555
P11 Rb12 3.637286 1_555
P11 Rb44 3.920301 1_555
P12 Rb3 3.434451 1_655
P12 Rb35 3.490124 1_555
P12 Rb19 3.585022 1_555
P12 Rb4 3.597721 1_555
P12 Rb36 3.618312 1_655
P12 Rb20 3.625809 1_655
P12 Rb11 3.637286 1_555
P12 Rb43 3.920301 1_655
P13 Rb2 3.434451 1_555
P13 Rb34 3.490124 1_555
P13 Rb18 3.585022 1_555
P13 Rb5 3.597721 1_555
P13 Rb37 3.618312 1_555
P13 Rb21 3.625809 1_555
P13 Rb10 3.637286 1_555
P13 Rb42 3.920301 1_555
P14 Rb1 3.434451 1_455
P14 Rb33 3.490124 1_555
P14 Rb17 3.585022 1_555
P14 Rb6 3.597721 1_555
P14 Rb38 3.618312 1_455
P14 Rb22 3.625809 1_455
P14 Rb9 3.637286 1_555
P14 Rb41 3.920301 1_455
P15 Rb0 3.434451 1_555
P15 Rb32 3.490124 1_555
P15 Rb16 3.585022 1_555
P15 Rb7 3.597721 1_555
P15 Rb39 3.618312 1_555
P15 Rb23 3.625809 1_555
P15 Rb8 3.637286 1_555
P15 Rb40 3.920301 1_555
P16 Rb28 3.382179 1_555
P16 Rb16 3.549654 1_555
P16 Rb8 3.560802 1_555
P16 Rb37 3.584797 1_555
P16 Rb45 3.725425 1_655
P17 Rb29 3.382179 1_555
P17 Rb17 3.549654 1_545
P17 Rb9 3.560802 1_545
P17 Rb36 3.584797 1_555
P17 Rb44 3.725425 1_555
P18 Rb30 3.382179 1_554
P18 Rb18 3.549654 1_565
P18 Rb10 3.560802 1_565
P18 Rb39 3.584797 1_555
P18 Rb47 3.725425 1_455
P19 Rb31 3.382179 1_556
P19 Rb19 3.549654 1_555
P19 Rb11 3.560802 1_555
P19 Rb38 3.584797 1_555
P19 Rb46 3.725425 1_555
P20 Rb24 3.382179 1_555
P20 Rb20 3.549654 1_555
P20 Rb12 3.560802 1_555
P20 Rb33 3.584797 1_555
P20 Rb41 3.725425 1_455
P21 Rb25 3.382179 1_555
P21 Rb21 3.549654 1_565
P21 Rb13 3.560802 1_565
P21 Rb32 3.584797 1_555
P21 Rb40 3.725425 1_555
P22 Rb26 3.382179 1_556
P22 Rb22 3.549654 1_545
P22 Rb14 3.560802 1_545
P22 Rb35 3.584797 1_555
P22 Rb43 3.725425 1_655
P23 Rb27 3.382179 1_554
P23 Rb23 3.549654 1_555
P23 Rb15 3.560802 1_555
P23 Rb34 3.584797 1_555
P23 Rb42 3.725425 1_555
P24 Rb9 3.387751 1_555
P24 Rb24 3.397768 1_555
P24 Rb8 3.441393 1_455
P24 Rb0 3.498018 1_555
P24 Rb40 3.576144 1_555
P24 Rb25 3.667955 1_455
P25 Rb8 3.387751 1_555
P25 Rb25 3.397768 1_555
P25 Rb9 3.441393 1_555
P25 Rb1 3.498018 1_555
P25 Rb41 3.576144 1_555
P25 Rb24 3.667955 1_555
P26 Rb11 3.387751 1_554
P26 Rb26 3.397768 1_555
P26 Rb10 3.441393 1_655
P26 Rb2 3.498018 1_555
P26 Rb42 3.576144 1_555
P26 Rb27 3.667955 1_654
P27 Rb10 3.387751 1_556
P27 Rb27 3.397768 1_555
P27 Rb11 3.441393 1_555
P27 Rb3 3.498018 1_555
P27 Rb43 3.576144 1_555
P27 Rb26 3.667955 1_556
P28 Rb13 3.387751 1_555
P28 Rb28 3.397768 1_555
P28 Rb12 3.441393 1_655
P28 Rb4 3.498018 1_555
P28 Rb44 3.576144 1_555
P28 Rb29 3.667955 1_655
P29 Rb12 3.387751 1_555
P29 Rb29 3.397768 1_555
P29 Rb13 3.441393 1_555
P29 Rb5 3.498018 1_555
P29 Rb45 3.576144 1_555
P29 Rb28 3.667955 1_555
P30 Rb15 3.387751 1_556
P30 Rb30 3.397768 1_555
P30 Rb14 3.441393 1_455
P30 Rb6 3.498018 1_555
P30 Rb46 3.576144 1_555
P30 Rb31 3.667955 1_456
P31 Rb14 3.387751 1_554
P31 Rb31 3.397768 1_555
P31 Rb15 3.441393 1_555
P31 Rb7 3.498018 1_555
P31 Rb47 3.576144 1_555
P31 Rb30 3.667955 1_554
