# generated using pymatgen
data_MgMo2W(Se2S)2
_symmetry_space_group_name_H-M   'P 1'
_cell_length_a   3.28303000
_cell_length_b   3.28332240
_cell_length_c   36.81388807
_cell_angle_alpha   90.00653300
_cell_angle_beta   89.99999844
_cell_angle_gamma   119.99705412
_symmetry_Int_Tables_number   1
_chemical_formula_structural   MgMo2W(Se2S)2
_chemical_formula_sum   'Mg1 Mo2 W1 Se4 S2'
_cell_volume   343.67155426
_cell_formula_units_Z   1
loop_
 _symmetry_equiv_pos_site_id
 _symmetry_equiv_pos_as_xyz
  1  'x, y, z'
loop_
 _atom_site_type_symbol
 _atom_site_label
 _atom_site_symmetry_multiplicity
 _atom_site_fract_x
 _atom_site_fract_y
 _atom_site_fract_z
 _atom_site_occupancy
  Mg  Mg0  1  0.99999300  0.99998500  0.23998000  1
  Mo  Mo0  1  0.33332000  0.66664000  0.10788800  1
  Mo  Mo1  1  0.66679800  0.33359600  0.35381700  1
  W  W0  1  0.33320300  0.66640400  0.57847700  1
  Se  Se0  1  0.66660300  0.33320800  0.06199800  1
  Se  Se1  1  0.66650100  0.33300100  0.53241900  1
  Se  Se2  1  0.66669100  0.33338400  0.15410500  1
  Se  Se3  1  0.66656700  0.33313300  0.62452900  1
  S  S0  1  0.33350200  0.66700500  0.39517300  1
  S  S1  1  0.33342300  0.66684600  0.31195500  1
loop_
_geom_bond_atom_site_label_1
_geom_bond_atom_site_label_2
_geom_bond_distance
_geom_bond_site_symmetry_2
Mo0 Se0 2.539116 1_555
Mo0 Se0 2.539120 1_455
Mo0 Se0 2.539179 1_565
Mo0 Se2 2.547121 1_555
Mo0 Se2 2.547126 1_455
Mo0 Se2 2.547245 1_565
Mo1 S0 2.431240 1_655
Mo1 S0 2.431242 1_555
Mo1 S0 2.431356 1_545
Mo1 S1 2.442930 1_655
Mo1 S1 2.442930 1_555
Mo1 S1 2.443101 1_545
Se1 W0 2.543205 1_555
Se1 W0 2.543208 1_655
Se1 W0 2.543360 1_545
Se3 W0 2.543085 1_555
Se3 W0 2.543087 1_655
Se3 W0 2.543160 1_545
