# generated using pymatgen
data_LaClO
_symmetry_space_group_name_H-M   'P 1'
_cell_length_a   4.11542769
_cell_length_b   4.11542769
_cell_length_c   6.92503718
_cell_angle_alpha   90.00000000
_cell_angle_beta   90.00000000
_cell_angle_gamma   90.00000000
_symmetry_Int_Tables_number   1
_chemical_formula_structural   LaClO
_chemical_formula_sum   'La2 Cl2 O2'
_cell_volume   117.28758933
_cell_formula_units_Z   2
loop_
 _symmetry_equiv_pos_site_id
 _symmetry_equiv_pos_as_xyz
  1  'x, y, z'
loop_
 _atom_site_type_symbol
 _atom_site_label
 _atom_site_symmetry_multiplicity
 _atom_site_fract_x
 _atom_site_fract_y
 _atom_site_fract_z
 _atom_site_occupancy
  La  La0  1  0.75000000  0.75000000  0.82539496  1
  La  La1  1  0.25000000  0.25000000  0.17460504  1
  Cl  Cl0  1  0.25000000  0.25000000  0.63088519  1
  Cl  Cl1  1  0.75000000  0.75000000  0.36911481  1
  O  O0  1  0.75000000  0.25000000  -0.00000000  1
  O  O1  1  0.25000000  0.75000000  -0.00000000  1
loop_
_geom_bond_atom_site_label_1
_geom_bond_atom_site_label_2
_geom_bond_distance
_geom_bond_site_symmetry_2
La0 O1 2.386676 1_656
La0 O0 2.386676 1_556
La0 O1 2.386676 1_556
La0 O0 2.386676 1_566
La1 O1 2.386676 1_545
La1 O0 2.386676 1_555
La1 O0 2.386676 1_455
La1 O1 2.386676 1_555
Cl0 La1 3.159757 1_555
Cl0 La0 3.206672 1_455
Cl0 La0 3.206672 1_545
Cl0 La0 3.206672 1_555
Cl0 La0 3.206672 1_445
Cl1 La0 3.159757 1_555
Cl1 La1 3.206672 1_665
Cl1 La1 3.206672 1_565
Cl1 La1 3.206672 1_555
Cl1 La1 3.206672 1_655
