# generated using pymatgen
data_RbZn13
_symmetry_space_group_name_H-M   'P 1'
_cell_length_a   8.65053092
_cell_length_b   8.65053101
_cell_length_c   8.65053010
_cell_angle_alpha   59.99999957
_cell_angle_beta   59.99999925
_cell_angle_gamma   59.99999756
_symmetry_Int_Tables_number   1
_chemical_formula_structural   RbZn13
_chemical_formula_sum   'Rb2 Zn26'
_cell_volume   457.73407322
_cell_formula_units_Z   2
loop_
 _symmetry_equiv_pos_site_id
 _symmetry_equiv_pos_as_xyz
  1  'x, y, z'
loop_
 _atom_site_type_symbol
 _atom_site_label
 _atom_site_symmetry_multiplicity
 _atom_site_fract_x
 _atom_site_fract_y
 _atom_site_fract_z
 _atom_site_occupancy
  Rb  Rb0  1  0.75000000  0.75000000  0.75000000  1
  Rb  Rb1  1  0.25000000  0.25000000  0.25000000  1
  Zn  Zn0  1  0.50000000  0.50000000  0.50000000  1
  Zn  Zn1  1  0.00000000  0.00000000  -0.00000000  1
  Zn  Zn2  1  0.20170751  0.79829249  0.43851789  1
  Zn  Zn3  1  0.70170751  0.06148211  0.93851789  1
  Zn  Zn4  1  0.93851789  0.29829249  0.70170751  1
  Zn  Zn5  1  0.70170751  0.93851789  0.29829249  1
  Zn  Zn6  1  0.06148211  0.29829249  0.93851789  1
  Zn  Zn7  1  0.06148211  0.93851789  0.70170751  1
  Zn  Zn8  1  0.93851789  0.06148211  0.29829249  1
  Zn  Zn9  1  0.43851789  0.20170751  0.79829249  1
  Zn  Zn10  1  0.79829249  0.43851789  0.20170751  1
  Zn  Zn11  1  0.56148211  0.20170751  0.43851789  1
  Zn  Zn12  1  0.79829249  0.56148211  0.43851789  1
  Zn  Zn13  1  0.56148211  0.79829249  0.20170751  1
  Zn  Zn14  1  0.43851789  0.79829249  0.56148211  1
  Zn  Zn15  1  0.20170751  0.43851789  0.56148211  1
  Zn  Zn16  1  0.20170751  0.56148211  0.79829249  1
  Zn  Zn17  1  0.93851789  0.70170751  0.06148211  1
  Zn  Zn18  1  0.29829249  0.93851789  0.06148211  1
  Zn  Zn19  1  0.29829249  0.70170751  0.93851789  1
  Zn  Zn20  1  0.70170751  0.29829249  0.06148211  1
  Zn  Zn21  1  0.06148211  0.70170751  0.29829249  1
  Zn  Zn22  1  0.29829249  0.06148211  0.70170751  1
  Zn  Zn23  1  0.43851789  0.56148211  0.20170751  1
  Zn  Zn24  1  0.56148211  0.43851789  0.79829249  1
  Zn  Zn25  1  0.79829249  0.20170751  0.56148211  1
loop_
_geom_bond_atom_site_label_1
_geom_bond_atom_site_label_2
_geom_bond_distance
_geom_bond_site_symmetry_2
Rb0 Zn13 3.561098 1_556
Rb0 Zn5 3.561098 1_555
Rb0 Zn21 3.561098 1_655
Rb0 Zn10 3.561098 1_556
Rb0 Zn17 3.561098 1_556
Rb0 Zn12 3.561098 1_555
Rb0 Zn18 3.561099 1_556
Rb0 Zn23 3.561099 1_556
Rb0 Zn8 3.561099 1_565
Rb0 Zn11 3.561099 1_565
Rb0 Zn15 3.561099 1_655
Rb0 Zn6 3.561099 1_655
Rb0 Zn14 3.561099 1_555
Rb0 Zn22 3.561099 1_565
Rb0 Zn3 3.561099 1_565
Rb0 Zn9 3.561099 1_565
Rb0 Zn16 3.561099 1_655
Rb0 Zn2 3.561099 1_655
Rb0 Zn4 3.561099 1_555
Rb0 Zn20 3.561099 1_556
Rb0 Zn19 3.561099 1_555
Rb0 Zn25 3.561099 1_565
Rb0 Zn7 3.561099 1_655
Rb0 Zn24 3.561099 1_555
Rb1 Zn9 3.561098 1_554
Rb1 Zn22 3.561098 1_555
Rb1 Zn4 3.561098 1_455
Rb1 Zn16 3.561098 1_554
Rb1 Zn6 3.561098 1_554
Rb1 Zn15 3.561098 1_555
Rb1 Zn3 3.561099 1_554
Rb1 Zn24 3.561099 1_554
Rb1 Zn7 3.561099 1_545
Rb1 Zn14 3.561099 1_545
Rb1 Zn12 3.561099 1_455
Rb1 Zn17 3.561099 1_455
Rb1 Zn11 3.561099 1_555
Rb1 Zn5 3.561099 1_545
Rb1 Zn18 3.561099 1_545
Rb1 Zn13 3.561099 1_545
Rb1 Zn10 3.561099 1_455
Rb1 Zn25 3.561099 1_455
Rb1 Zn21 3.561099 1_555
Rb1 Zn19 3.561099 1_554
Rb1 Zn20 3.561099 1_555
Rb1 Zn2 3.561099 1_545
Rb1 Zn8 3.561099 1_455
Rb1 Zn23 3.561099 1_555
Zn0 Zn23 2.634629 1_555
Zn0 Zn24 2.634629 1_555
Zn0 Zn16 2.634629 1_555
Zn0 Zn10 2.634629 1_555
Zn0 Zn2 2.634629 1_555
Zn0 Zn25 2.634629 1_555
Zn0 Zn9 2.634629 1_555
Zn0 Zn13 2.634629 1_555
Zn0 Zn11 2.634629 1_555
Zn0 Zn14 2.634629 1_555
Zn0 Zn15 2.634629 1_555
Zn0 Zn12 2.634629 1_555
Zn1 Zn8 2.634629 1_455
Zn1 Zn7 2.634629 1_544
Zn1 Zn21 2.634629 1_545
Zn1 Zn4 2.634629 1_454
Zn1 Zn22 2.634629 1_554
Zn1 Zn5 2.634629 1_445
Zn1 Zn19 2.634629 1_544
Zn1 Zn20 2.634629 1_455
Zn1 Zn18 2.634629 1_545
Zn1 Zn3 2.634629 1_454
Zn1 Zn6 2.634629 1_554
Zn1 Zn17 2.634629 1_445
Zn2 Zn7 2.579714 1_555
Zn2 Zn8 2.579714 1_465
Zn2 Zn21 2.671957 1_555
Zn2 Zn23 2.897067 1_555
Zn3 Zn9 2.579714 1_555
Zn3 Zn5 2.739891 1_546
Zn3 Zn7 2.739892 1_645
Zn3 Zn4 2.897067 1_555
Zn4 Zn6 2.739892 1_655
Zn4 Zn7 2.739892 1_645
Zn5 Zn8 2.739892 1_565
Zn6 Zn9 2.671957 1_555
Zn6 Zn8 2.739892 1_456
Zn10 Zn6 2.579714 1_654
Zn10 Zn17 2.579715 1_555
Zn10 Zn20 2.671957 1_555
Zn10 Zn8 2.671957 1_555
Zn10 Zn25 2.739892 1_555
Zn10 Zn12 2.739892 1_555
Zn10 Zn13 2.739892 1_555
Zn10 Zn23 2.739892 1_555
Zn10 Zn11 2.897067 1_555
Zn11 Zn5 2.579714 1_545
Zn11 Zn22 2.579714 1_555
Zn11 Zn20 2.671956 1_555
Zn11 Zn8 2.671957 1_555
Zn11 Zn9 2.739891 1_555
Zn11 Zn23 2.739892 1_555
Zn11 Zn15 2.739892 1_555
Zn11 Zn25 2.739892 1_555
Zn12 Zn4 2.579714 1_555
Zn12 Zn21 2.579715 1_655
Zn12 Zn17 2.671957 1_555
Zn12 Zn5 2.671957 1_555
Zn12 Zn24 2.739892 1_555
Zn12 Zn14 2.739892 1_555
Zn12 Zn25 2.739892 1_555
Zn12 Zn13 2.897067 1_555
Zn13 Zn18 2.579714 1_555
Zn13 Zn3 2.579714 1_564
Zn13 Zn17 2.671957 1_555
Zn13 Zn5 2.671957 1_555
Zn13 Zn14 2.739891 1_555
Zn13 Zn2 2.739892 1_555
Zn13 Zn23 2.739892 1_555
Zn14 Zn22 2.579714 1_565
Zn14 Zn5 2.579714 1_555
Zn14 Zn19 2.671956 1_555
Zn14 Zn7 2.671957 1_555
Zn14 Zn24 2.739892 1_555
Zn14 Zn2 2.739892 1_555
Zn14 Zn16 2.897067 1_555
Zn15 Zn21 2.579714 1_555
Zn15 Zn4 2.579715 1_455
Zn15 Zn6 2.671957 1_555
Zn15 Zn22 2.671957 1_555
Zn15 Zn23 2.739892 1_555
Zn15 Zn16 2.739892 1_555
Zn15 Zn2 2.739892 1_555
Zn15 Zn9 2.897067 1_555
Zn16 Zn17 2.579714 1_456
Zn16 Zn6 2.579715 1_555
Zn16 Zn19 2.671957 1_555
Zn16 Zn7 2.671957 1_555
Zn16 Zn2 2.739892 1_555
Zn16 Zn9 2.739892 1_555
Zn16 Zn24 2.739892 1_555
Zn17 Zn21 2.739892 1_655
Zn17 Zn7 2.739892 1_654
Zn17 Zn3 2.739892 1_564
Zn17 Zn19 2.739892 1_654
Zn17 Zn5 2.897067 1_555
Zn18 Zn9 2.579714 1_564
Zn18 Zn2 2.671957 1_555
Zn18 Zn23 2.671957 1_555
Zn18 Zn22 2.739891 1_564
Zn18 Zn8 2.739892 1_465
Zn18 Zn6 2.739892 1_564
Zn18 Zn19 2.739892 1_554
Zn18 Zn21 2.897067 1_555
Zn19 Zn23 2.579714 1_556
Zn19 Zn24 2.579714 1_555
Zn19 Zn21 2.739892 1_556
Zn19 Zn22 2.739892 1_565
Zn19 Zn7 2.897067 1_555
Zn20 Zn24 2.579714 1_554
Zn20 Zn23 2.579714 1_555
Zn20 Zn4 2.739892 1_554
Zn20 Zn3 2.739892 1_554
Zn20 Zn5 2.739892 1_545
Zn20 Zn6 2.739892 1_654
Zn20 Zn8 2.897067 1_555
Zn21 Zn23 2.671957 1_555
Zn21 Zn5 2.739892 1_455
Zn21 Zn8 2.739892 1_465
Zn22 Zn9 2.671957 1_555
Zn22 Zn4 2.739892 1_455
Zn22 Zn7 2.739892 1_545
Zn22 Zn6 2.897067 1_555
Zn24 Zn4 2.671957 1_555
Zn24 Zn3 2.671957 1_555
Zn24 Zn9 2.739892 1_555
Zn24 Zn25 2.897067 1_555
Zn25 Zn8 2.579714 1_555
Zn25 Zn7 2.579714 1_645
Zn25 Zn3 2.671957 1_555
Zn25 Zn4 2.671957 1_555
Zn25 Zn9 2.739892 1_555
