# generated using pymatgen
data_Nd2P3Au
_symmetry_space_group_name_H-M   'P 1'
_cell_length_a   7.77051900
_cell_length_b   4.19155200
_cell_length_c   16.71815043
_cell_angle_alpha   75.96092710
_cell_angle_beta   90.00000000
_cell_angle_gamma   90.00000000
_symmetry_Int_Tables_number   1
_chemical_formula_structural   Nd2P3Au
_chemical_formula_sum   'Nd8 P12 Au4'
_cell_volume   528.25459338
_cell_formula_units_Z   4
loop_
 _symmetry_equiv_pos_site_id
 _symmetry_equiv_pos_as_xyz
  1  'x, y, z'
loop_
 _atom_site_type_symbol
 _atom_site_label
 _atom_site_symmetry_multiplicity
 _atom_site_fract_x
 _atom_site_fract_y
 _atom_site_fract_z
 _atom_site_occupancy
  Nd  Nd0  1  0.10478400  0.44076600  0.29881500  1
  Nd  Nd1  1  0.73129700  0.25808900  0.47487800  1
  Nd  Nd2  1  0.76870300  0.25808900  0.97487800  1
  Nd  Nd3  1  0.26870300  0.74191100  0.52512200  1
  Nd  Nd4  1  0.89521600  0.55923400  0.70118500  1
  Nd  Nd5  1  0.39521600  0.44076600  0.79881500  1
  Nd  Nd6  1  0.60478400  0.55923400  0.20118500  1
  Nd  Nd7  1  0.23129700  0.74191100  0.02512200  1
  P  P0  1  0.61632100  0.65558600  0.58597500  1
  P  P1  1  0.11632100  0.34441400  0.91402500  1
  P  P2  1  0.38367900  0.34441400  0.41402500  1
  P  P3  1  0.88367900  0.65558600  0.08597500  1
  P  P4  1  0.53603100  0.82137800  0.90655000  1
  P  P5  1  0.03603100  0.17862200  0.59345000  1
  P  P6  1  0.46396900  0.17862200  0.09345000  1
  P  P7  1  0.96396900  0.82137800  0.40655000  1
  P  P8  1  0.70490600  0.99229200  0.79907800  1
  P  P9  1  0.79509400  0.99229200  0.29907800  1
  P  P10  1  0.29509400  0.00770800  0.20092200  1
  P  P11  1  0.20490600  0.00770800  0.70092200  1
  Au  Au0  1  0.48234400  0.90980700  0.34532600  1
  Au  Au1  1  0.98234400  0.09019300  0.15467400  1
  Au  Au2  1  0.51765600  0.09019300  0.65467400  1
  Au  Au3  1  0.01765600  0.90980700  0.84532600  1
loop_
_geom_bond_atom_site_label_1
_geom_bond_atom_site_label_2
_geom_bond_distance
_geom_bond_site_symmetry_2
Nd0 P2 2.862191 1_555
Nd0 P7 2.894929 1_455
Nd0 P10 2.936926 1_565
Nd0 P7 2.985450 1_445
Nd0 P9 3.052978 1_445
Nd0 P10 3.098627 1_555
Nd0 P9 3.337686 1_455
Nd1 P2 2.878135 1_555
Nd1 P0 2.889629 1_545
Nd1 P0 2.919807 1_555
Nd1 P7 2.973170 1_555
Nd1 P7 2.989799 1_545
Nd1 P5 3.054059 1_655
Nd2 P1 2.878135 1_655
Nd2 P3 2.889629 1_546
Nd2 P3 2.919807 1_556
Nd2 P4 2.973170 1_555
Nd2 P4 2.989799 1_545
Nd2 P6 3.054059 1_556
Nd3 P0 2.878135 1_555
Nd3 P2 2.889629 1_565
Nd3 P2 2.919807 1_555
Nd3 P5 2.973170 1_555
Nd3 P5 2.989799 1_565
Nd3 P7 3.054059 1_455
Nd4 P0 2.862191 1_555
Nd4 P5 2.894929 1_655
Nd4 P8 2.936926 1_545
Nd4 P5 2.985450 1_665
Nd4 P11 3.052978 1_665
Nd4 P8 3.098627 1_555
Nd4 P11 3.337686 1_655
Nd5 P1 2.862191 1_555
Nd5 P4 2.894929 1_555
Nd5 P11 2.936926 1_565
Nd5 P4 2.985450 1_545
Nd5 P8 3.052978 1_545
Nd5 P11 3.098627 1_555
Nd5 P8 3.337686 1_555
Nd6 P3 2.862191 1_555
Nd6 P6 2.894929 1_555
Nd6 P9 2.936926 1_545
Nd6 P6 2.985450 1_565
Nd6 P10 3.052978 1_565
Nd6 P9 3.098627 1_555
Nd6 P10 3.337686 1_555
Nd7 P3 2.878135 1_455
Nd7 P1 2.889629 1_564
Nd7 P1 2.919807 1_554
Nd7 P6 2.973170 1_555
Nd7 P6 2.989799 1_565
Nd7 P4 3.054059 1_554
P4 P8 2.199766 1_555
P7 P9 2.199766 1_555
P10 P6 2.199766 1_555
P11 P5 2.199766 1_555
Au0 P2 2.490511 1_555
Au0 P2 2.498097 1_565
Au0 P9 2.548268 1_555
Au0 P10 2.762801 1_565
Au0 Nd6 3.254145 1_555
Au0 Nd6 3.307497 1_565
Au1 P3 2.490511 1_555
Au1 P3 2.498097 1_545
Au1 P10 2.548268 1_655
Au1 P9 2.762801 1_545
Au1 Nd0 3.254145 1_655
Au1 Nd0 3.307497 1_645
Au2 P0 2.490511 1_555
Au2 P0 2.498097 1_545
Au2 P11 2.548268 1_555
Au2 P8 2.762801 1_545
Au2 Nd5 3.254145 1_555
Au2 Nd5 3.307497 1_545
Au3 P1 2.490511 1_555
Au3 P1 2.498097 1_565
Au3 P8 2.548268 1_455
Au3 P11 2.762801 1_565
Au3 Nd4 3.254145 1_455
Au3 Nd4 3.307497 1_465
