# generated using pymatgen
data_MgTi2(Fe2O5)2
_symmetry_space_group_name_H-M   'P 1'
_cell_length_a   3.82591678
_cell_length_b   5.49018533
_cell_length_c   10.08051872
_cell_angle_alpha   90.91920112
_cell_angle_beta   90.00712257
_cell_angle_gamma   69.60962729
_symmetry_Int_Tables_number   1
_chemical_formula_structural   MgTi2(Fe2O5)2
_chemical_formula_sum   'Mg1 Ti2 Fe4 O10'
_cell_volume   198.44471269
_cell_formula_units_Z   1
loop_
 _symmetry_equiv_pos_site_id
 _symmetry_equiv_pos_as_xyz
  1  'x, y, z'
loop_
 _atom_site_type_symbol
 _atom_site_label
 _atom_site_symmetry_multiplicity
 _atom_site_fract_x
 _atom_site_fract_y
 _atom_site_fract_z
 _atom_site_occupancy
  Mg  Mg0  1  0.48876835  0.02263313  0.25066292  1
  Ti  Ti0  1  0.13735808  0.72517218  0.04759919  1
  Ti  Ti1  1  0.88874621  0.22246690  0.57047766  1
  Fe  Fe0  1  0.14997713  0.69991925  0.43739190  1
  Fe  Fe1  1  0.20423540  0.59131217  0.75241278  1
  Fe  Fe2  1  0.79092887  0.41803966  0.24813173  1
  Fe  Fe3  1  0.87075004  0.25846068  0.93542860  1
  O  O0  1  0.05563742  0.88874299  0.62178510  1
  O  O1  1  0.06302860  0.87334013  0.88464758  1
  O  O2  1  0.65441720  0.69128958  0.08747827  1
  O  O3  1  0.63254961  0.73468980  0.39594044  1
  O  O4  1  0.27312413  0.45362612  0.25685757  1
  O  O5  1  0.76885480  0.46206097  0.73391243  1
  O  O6  1  0.30639053  0.38720125  0.93600048  1
  O  O7  1  0.31609821  0.36751223  0.56145068  1
  O  O8  1  0.94184369  0.11581235  0.39573207  1
  O  O9  1  0.97514972  0.05022061  0.14033761  1
loop_
_geom_bond_atom_site_label_1
_geom_bond_atom_site_label_2
_geom_bond_distance
_geom_bond_site_symmetry_2
Mg0 O3 2.101074 1_545
Mg0 O4 2.217778 1_555
Mg0 O9 2.217819 1_455
Mg0 O9 2.219208 1_555
Mg0 O2 2.348993 1_545
Mg0 O8 2.449144 1_555
Mg0 O8 2.451444 1_455
Fe0 O3 1.966761 1_555
Fe0 O3 1.966981 1_455
Fe0 O0 2.082700 1_555
Fe0 O7 2.136166 1_555
Fe0 O8 2.188092 1_465
Fe0 O4 2.199930 1_555
Fe1 O1 1.953789 1_555
Fe1 O5 2.032814 1_455
Fe1 O5 2.032837 1_555
Fe1 O0 2.036070 1_555
Fe1 O6 2.143506 1_555
Fe1 O7 2.226291 1_555
Fe2 O4 1.923515 1_655
Fe2 O4 1.923632 1_555
Fe2 O2 2.162822 1_555
Fe2 O9 2.166438 1_555
Fe2 O8 2.170671 1_555
Fe2 O3 2.189194 1_555
Fe3 O6 2.024386 1_555
Fe3 O6 2.024439 1_655
Fe3 O1 2.038461 1_645
Fe3 O5 2.301521 1_555
Fe3 O9 2.343210 1_556
Fe3 O2 2.682184 1_556
O0 Ti1 1.802024 1_465
O1 Ti0 1.822750 1_556
O2 Ti0 1.962719 1_655
O2 Ti0 1.963507 1_555
O4 Ti0 2.550123 1_555
O5 Ti1 2.040884 1_555
O6 Ti0 2.055185 1_556
O7 Ti1 2.055558 1_455
O7 Ti1 2.056456 1_555
O8 Ti1 1.836088 1_555
O9 Ti0 1.902282 1_645
