# generated using pymatgen
data_Sr2HfMgFeO6
_symmetry_space_group_name_H-M   'P 1'
_cell_length_a   5.77481000
_cell_length_b   6.27118139
_cell_length_c   6.28706315
_cell_angle_alpha   98.79461702
_cell_angle_beta   117.33885942
_cell_angle_gamma   117.41551443
_symmetry_Int_Tables_number   1
_chemical_formula_structural   Sr2HfMgFeO6
_chemical_formula_sum   'Sr2 Hf1 Mg1 Fe1 O6'
_cell_volume   159.22430276
_cell_formula_units_Z   1
loop_
 _symmetry_equiv_pos_site_id
 _symmetry_equiv_pos_as_xyz
  1  'x, y, z'
loop_
 _atom_site_type_symbol
 _atom_site_label
 _atom_site_symmetry_multiplicity
 _atom_site_fract_x
 _atom_site_fract_y
 _atom_site_fract_z
 _atom_site_occupancy
  Sr  Sr0  1  0.49976300  0.68179100  0.31779000  1
  Sr  Sr1  1  0.50023700  0.31820900  0.68221000  1
  Hf  Hf0  1  0.00000000  0.50000000  0.50000000  1
  Mg  Mg0  1  0.50000000  0.00000000  0.00000000  1
  Fe  Fe0  1  0.00000000  0.00000000  0.00000000  1
  O  O0  1  0.00011800  0.72438800  0.27576100  1
  O  O1  1  0.99988200  0.27561200  0.72423900  1
  O  O2  1  0.50217100  0.75475500  0.75434300  1
  O  O3  1  0.49782900  0.24524500  0.24565700  1
  O  O4  1  0.99308100  0.24524300  0.24567000  1
  O  O5  1  0.00691900  0.75475700  0.75433000  1
loop_
_geom_bond_atom_site_label_1
_geom_bond_atom_site_label_2
_geom_bond_distance
_geom_bond_site_symmetry_2
Hf0 O3 2.052351 1_455
Hf0 O2 2.052351 1_555
Hf0 O4 2.052353 1_455
Hf0 O5 2.052353 1_555
Hf0 O1 2.138769 1_455
Hf0 O0 2.138769 1_555
Mg0 O2 2.014964 1_544
Mg0 O3 2.014964 1_555
Mg0 O5 2.014983 1_544
Mg0 O4 2.014983 1_555
Mg0 Sr0 3.032037 1_545
Mg0 Sr1 3.032037 1_554
Fe0 O2 2.034533 1_444
Fe0 O3 2.034533 1_555
Fe0 O4 2.034560 1_455
Fe0 O5 2.034560 1_544
Fe0 O0 2.628600 1_545
Fe0 O1 2.628600 1_454
O0 Sr0 2.915055 1_555
O0 Sr0 2.915853 1_455
O0 Sr1 3.024250 1_565
O0 Sr1 3.028960 1_454
O1 Sr1 2.915055 1_555
O1 Sr1 2.915853 1_655
O1 Sr0 3.024250 1_545
O1 Sr0 3.028960 1_656
O2 Sr1 2.699651 1_555
O2 Sr0 2.705116 1_555
O3 Sr0 2.699651 1_555
O3 Sr1 2.705116 1_555
O4 Sr0 2.699458 1_655
O4 Sr1 2.705235 1_655
O5 Sr1 2.699458 1_455
O5 Sr0 2.705235 1_455
