# generated using pymatgen
data_Hf2In5
_symmetry_space_group_name_H-M   'P 1'
_cell_length_a   6.11472790
_cell_length_b   20.61684960
_cell_length_c   20.61684960
_cell_angle_alpha   90.00000000
_cell_angle_beta   90.00000000
_cell_angle_gamma   90.00000000
_symmetry_Int_Tables_number   1
_chemical_formula_structural   Hf2In5
_chemical_formula_sum   'Hf32 In80'
_cell_volume   2599.09253330
_cell_formula_units_Z   16
loop_
 _symmetry_equiv_pos_site_id
 _symmetry_equiv_pos_as_xyz
  1  'x, y, z'
loop_
 _atom_site_type_symbol
 _atom_site_label
 _atom_site_symmetry_multiplicity
 _atom_site_fract_x
 _atom_site_fract_y
 _atom_site_fract_z
 _atom_site_occupancy
  Hf  Hf0_0  1  0.25000000  0.41009039  0.16009039  1
  Hf  Hf0_1  1  0.25000000  0.41009039  0.66009039  1
  Hf  Hf0_2  1  0.25000000  0.91009039  0.16009039  1
  Hf  Hf0_3  1  0.25000000  0.91009039  0.66009039  1
  Hf  Hf0_4  1  0.75000000  0.41009039  0.16009039  1
  Hf  Hf0_5  1  0.75000000  0.41009039  0.66009039  1
  Hf  Hf0_6  1  0.75000000  0.91009039  0.16009039  1
  Hf  Hf0_7  1  0.75000000  0.91009039  0.66009039  1
  Hf  Hf1_0  1  0.25000000  0.33990961  0.41009039  1
  Hf  Hf1_1  1  0.25000000  0.33990961  0.91009039  1
  Hf  Hf1_2  1  0.25000000  0.83990961  0.41009039  1
  Hf  Hf1_3  1  0.25000000  0.83990961  0.91009039  1
  Hf  Hf1_4  1  0.75000000  0.33990961  0.41009039  1
  Hf  Hf1_5  1  0.75000000  0.33990961  0.91009039  1
  Hf  Hf1_6  1  0.75000000  0.83990961  0.41009039  1
  Hf  Hf1_7  1  0.75000000  0.83990961  0.91009039  1
  Hf  Hf2_0  1  0.25000000  0.16009039  0.08990961  1
  Hf  Hf2_1  1  0.25000000  0.16009039  0.58990961  1
  Hf  Hf2_2  1  0.25000000  0.66009039  0.08990961  1
  Hf  Hf2_3  1  0.25000000  0.66009039  0.58990961  1
  Hf  Hf2_4  1  0.75000000  0.16009039  0.08990961  1
  Hf  Hf2_5  1  0.75000000  0.16009039  0.58990961  1
  Hf  Hf2_6  1  0.75000000  0.66009039  0.08990961  1
  Hf  Hf2_7  1  0.75000000  0.66009039  0.58990961  1
  Hf  Hf3_0  1  0.25000000  0.08990961  0.33990961  1
  Hf  Hf3_1  1  0.25000000  0.08990961  0.83990961  1
  Hf  Hf3_2  1  0.25000000  0.58990961  0.33990961  1
  Hf  Hf3_3  1  0.25000000  0.58990961  0.83990961  1
  Hf  Hf3_4  1  0.75000000  0.08990961  0.33990961  1
  Hf  Hf3_5  1  0.75000000  0.08990961  0.83990961  1
  Hf  Hf3_6  1  0.75000000  0.58990961  0.33990961  1
  Hf  Hf3_7  1  0.75000000  0.58990961  0.83990961  1
  In  In0_0  1  0.00000000  0.14538051  0.21902824  1
  In  In0_1  1  0.00000000  0.14538051  0.71902824  1
  In  In0_2  1  0.00000000  0.64538051  0.21902824  1
  In  In0_3  1  0.00000000  0.64538051  0.71902824  1
  In  In0_4  1  0.50000000  0.14538051  0.21902824  1
  In  In0_5  1  0.50000000  0.14538051  0.71902824  1
  In  In0_6  1  0.50000000  0.64538051  0.21902824  1
  In  In0_7  1  0.50000000  0.64538051  0.71902824  1
  In  In1_0  1  0.00000000  0.35461949  0.28097176  1
  In  In1_1  1  0.00000000  0.35461949  0.78097176  1
  In  In1_2  1  0.00000000  0.85461949  0.28097176  1
  In  In1_3  1  0.00000000  0.85461949  0.78097176  1
  In  In1_4  1  0.50000000  0.35461949  0.28097176  1
  In  In1_5  1  0.50000000  0.35461949  0.78097176  1
  In  In1_6  1  0.50000000  0.85461949  0.28097176  1
  In  In1_7  1  0.50000000  0.85461949  0.78097176  1
  In  In2_0  1  0.00000000  0.21902824  0.35461949  1
  In  In2_1  1  0.00000000  0.21902824  0.85461949  1
  In  In2_2  1  0.00000000  0.71902824  0.35461949  1
  In  In2_3  1  0.00000000  0.71902824  0.85461949  1
  In  In2_4  1  0.50000000  0.21902824  0.35461949  1
  In  In2_5  1  0.50000000  0.21902824  0.85461949  1
  In  In2_6  1  0.50000000  0.71902824  0.35461949  1
  In  In2_7  1  0.50000000  0.71902824  0.85461949  1
  In  In3_0  1  0.00000000  0.28097176  0.14538051  1
  In  In3_1  1  0.00000000  0.28097176  0.64538051  1
  In  In3_2  1  0.00000000  0.78097176  0.14538051  1
  In  In3_3  1  0.00000000  0.78097176  0.64538051  1
  In  In3_4  1  0.50000000  0.28097176  0.14538051  1
  In  In3_5  1  0.50000000  0.28097176  0.64538051  1
  In  In3_6  1  0.50000000  0.78097176  0.14538051  1
  In  In3_7  1  0.50000000  0.78097176  0.64538051  1
  In  In4_0  1  0.00000000  0.00000000  0.25000000  1
  In  In4_1  1  0.00000000  0.00000000  0.75000000  1
  In  In4_2  1  0.00000000  0.50000000  0.25000000  1
  In  In4_3  1  0.00000000  0.50000000  0.75000000  1
  In  In4_4  1  0.50000000  0.00000000  0.25000000  1
  In  In4_5  1  0.50000000  0.00000000  0.75000000  1
  In  In4_6  1  0.50000000  0.50000000  0.25000000  1
  In  In4_7  1  0.50000000  0.50000000  0.75000000  1
  In  In5_0  1  0.00000000  0.25000000  0.00000000  1
  In  In5_1  1  0.00000000  0.25000000  0.50000000  1
  In  In5_2  1  0.00000000  0.75000000  0.00000000  1
  In  In5_3  1  0.00000000  0.75000000  0.50000000  1
  In  In5_4  1  0.50000000  0.25000000  0.00000000  1
  In  In5_5  1  0.50000000  0.25000000  0.50000000  1
  In  In5_6  1  0.50000000  0.75000000  0.00000000  1
  In  In5_7  1  0.50000000  0.75000000  0.50000000  1
  In  In6_0  1  0.00000000  0.03097176  0.10461949  1
  In  In6_1  1  0.00000000  0.03097176  0.60461949  1
  In  In6_2  1  0.00000000  0.53097176  0.10461949  1
  In  In6_3  1  0.00000000  0.53097176  0.60461949  1
  In  In6_4  1  0.50000000  0.03097176  0.10461949  1
  In  In6_5  1  0.50000000  0.03097176  0.60461949  1
  In  In6_6  1  0.50000000  0.53097176  0.10461949  1
  In  In6_7  1  0.50000000  0.53097176  0.60461949  1
  In  In7_0  1  0.00000000  0.39538051  0.03097176  1
  In  In7_1  1  0.00000000  0.39538051  0.53097176  1
  In  In7_2  1  0.00000000  0.89538051  0.03097176  1
  In  In7_3  1  0.00000000  0.89538051  0.53097176  1
  In  In7_4  1  0.50000000  0.39538051  0.03097176  1
  In  In7_5  1  0.50000000  0.39538051  0.53097176  1
  In  In7_6  1  0.50000000  0.89538051  0.03097176  1
  In  In7_7  1  0.50000000  0.89538051  0.53097176  1
  In  In8_0  1  0.00000000  0.10461949  0.46902824  1
  In  In8_1  1  0.00000000  0.10461949  0.96902824  1
  In  In8_2  1  0.00000000  0.60461949  0.46902824  1
  In  In8_3  1  0.00000000  0.60461949  0.96902824  1
  In  In8_4  1  0.50000000  0.10461949  0.46902824  1
  In  In8_5  1  0.50000000  0.10461949  0.96902824  1
  In  In8_6  1  0.50000000  0.60461949  0.46902824  1
  In  In8_7  1  0.50000000  0.60461949  0.96902824  1
  In  In9_0  1  0.00000000  0.46902824  0.39538051  1
  In  In9_1  1  0.00000000  0.46902824  0.89538051  1
  In  In9_2  1  0.00000000  0.96902824  0.39538051  1
  In  In9_3  1  0.00000000  0.96902824  0.89538051  1
  In  In9_4  1  0.50000000  0.46902824  0.39538051  1
  In  In9_5  1  0.50000000  0.46902824  0.89538051  1
  In  In9_6  1  0.50000000  0.96902824  0.39538051  1
  In  In9_7  1  0.50000000  0.96902824  0.89538051  1
loop_
_geom_bond_atom_site_label_1
_geom_bond_atom_site_label_2
_geom_bond_distance
_geom_bond_site_symmetry_2
Hf0_0 In4_2 3.034621 1_555
Hf0_0 In4_6 3.034621 1_555
Hf0_0 Hf0_4 3.057364 1_455
Hf0_0 Hf0_4 3.057364 1_555
Hf0_0 In3_0 3.084670 1_555
Hf0_0 In3_4 3.084670 1_555
Hf0_0 In7_4 3.084670 1_555
Hf0_0 In7_0 3.084670 1_555
Hf0_0 In6_6 3.139394 1_555
Hf0_0 In6_2 3.139394 1_555
Hf0_0 In1_4 3.139394 1_555
Hf0_0 In1_0 3.139394 1_555
Hf0_1 In4_3 3.034621 1_555
Hf0_1 In4_7 3.034621 1_555
Hf0_1 Hf0_5 3.057364 1_455
Hf0_1 Hf0_5 3.057364 1_555
Hf0_1 In3_1 3.084670 1_555
Hf0_1 In3_5 3.084670 1_555
Hf0_1 In7_1 3.084670 1_555
Hf0_1 In7_5 3.084670 1_555
Hf0_1 In6_7 3.139394 1_555
Hf0_1 In6_3 3.139394 1_555
Hf0_1 In1_1 3.139394 1_555
Hf0_1 In1_5 3.139394 1_555
Hf0_2 In4_0 3.034621 1_565
Hf0_2 In4_4 3.034621 1_565
Hf0_2 Hf0_6 3.057364 1_555
Hf0_2 Hf0_6 3.057364 1_455
Hf0_2 In3_6 3.084670 1_555
Hf0_2 In3_2 3.084670 1_555
Hf0_2 In7_6 3.084670 1_555
Hf0_2 In7_2 3.084670 1_555
Hf0_2 In6_4 3.139394 1_565
Hf0_2 In6_0 3.139394 1_565
Hf0_2 In1_6 3.139394 1_555
Hf0_2 In1_2 3.139394 1_555
Hf0_3 In4_1 3.034621 1_565
Hf0_3 In4_5 3.034621 1_565
Hf0_3 Hf0_7 3.057364 1_555
Hf0_3 Hf0_7 3.057364 1_455
Hf0_3 In3_3 3.084670 1_555
Hf0_3 In3_7 3.084670 1_555
Hf0_3 In7_7 3.084670 1_555
Hf0_3 In7_3 3.084670 1_555
Hf0_3 In6_1 3.139394 1_565
Hf0_3 In6_5 3.139394 1_565
Hf0_3 In1_7 3.139394 1_555
Hf0_3 In1_3 3.139394 1_555
Hf0_4 In4_2 3.034621 1_655
Hf0_4 In4_6 3.034621 1_555
Hf0_4 In3_0 3.084670 1_655
Hf0_4 In3_4 3.084670 1_555
Hf0_4 In7_0 3.084670 1_655
Hf0_4 In7_4 3.084670 1_555
Hf0_4 In6_2 3.139394 1_655
Hf0_4 In6_6 3.139394 1_555
Hf0_4 In1_0 3.139394 1_655
Hf0_4 In1_4 3.139394 1_555
Hf0_5 In4_3 3.034621 1_655
Hf0_5 In4_7 3.034621 1_555
Hf0_5 In3_1 3.084670 1_655
Hf0_5 In3_5 3.084670 1_555
Hf0_5 In7_1 3.084670 1_655
Hf0_5 In7_5 3.084670 1_555
Hf0_5 In6_3 3.139394 1_655
Hf0_5 In6_7 3.139394 1_555
Hf0_5 In1_1 3.139394 1_655
Hf0_5 In1_5 3.139394 1_555
Hf0_6 In4_0 3.034621 1_665
Hf0_6 In4_4 3.034621 1_565
Hf0_6 In3_2 3.084670 1_655
Hf0_6 In7_2 3.084670 1_655
Hf0_6 In3_6 3.084670 1_555
Hf0_6 In7_6 3.084670 1_555
Hf0_6 In6_0 3.139394 1_665
Hf0_6 In6_4 3.139394 1_565
Hf0_6 In1_2 3.139394 1_655
Hf0_6 In1_6 3.139394 1_555
Hf0_7 In4_1 3.034621 1_665
Hf0_7 In4_5 3.034621 1_565
Hf0_7 In3_3 3.084670 1_655
Hf0_7 In7_3 3.084670 1_655
Hf0_7 In3_7 3.084670 1_555
Hf0_7 In7_7 3.084670 1_555
Hf0_7 In6_1 3.139394 1_665
Hf0_7 In6_5 3.139394 1_565
Hf0_7 In1_7 3.139394 1_555
Hf0_7 In1_3 3.139394 1_655
Hf1_0 In5_1 3.034621 1_555
Hf1_0 In5_5 3.034621 1_555
Hf1_0 Hf1_4 3.057364 1_455
Hf1_0 Hf1_4 3.057364 1_555
Hf1_0 In9_4 3.084670 1_555
Hf1_0 In9_0 3.084670 1_555
Hf1_0 In1_0 3.084670 1_555
Hf1_0 In1_4 3.084670 1_555
Hf1_0 In7_5 3.139394 1_555
Hf1_0 In7_1 3.139394 1_555
Hf1_0 In2_4 3.139394 1_555
Hf1_0 In2_0 3.139394 1_555
Hf1_1 In5_4 3.034621 1_556
Hf1_1 In5_0 3.034621 1_556
Hf1_1 Hf1_5 3.057364 1_555
Hf1_1 Hf1_5 3.057364 1_455
Hf1_1 In9_1 3.084670 1_555
Hf1_1 In9_5 3.084670 1_555
Hf1_1 In1_1 3.084670 1_555
Hf1_1 In1_5 3.084670 1_555
Hf1_1 In7_0 3.139394 1_556
Hf1_1 In7_4 3.139394 1_556
Hf1_1 In2_1 3.139394 1_555
Hf1_1 In2_5 3.139394 1_555
Hf1_2 In5_3 3.034621 1_555
Hf1_2 In5_7 3.034621 1_555
Hf1_2 Hf1_6 3.057364 1_555
Hf1_2 Hf1_6 3.057364 1_455
Hf1_2 In1_2 3.084670 1_555
Hf1_2 In1_6 3.084670 1_555
Hf1_2 In9_2 3.084670 1_555
Hf1_2 In9_6 3.084670 1_555
Hf1_2 In7_3 3.139394 1_555
Hf1_2 In7_7 3.139394 1_555
Hf1_2 In2_2 3.139394 1_555
Hf1_2 In2_6 3.139394 1_555
Hf1_3 In5_6 3.034621 1_556
Hf1_3 In5_2 3.034621 1_556
Hf1_3 Hf1_7 3.057364 1_555
Hf1_3 Hf1_7 3.057364 1_455
Hf1_3 In1_7 3.084670 1_555
Hf1_3 In1_3 3.084670 1_555
Hf1_3 In9_3 3.084670 1_555
Hf1_3 In9_7 3.084670 1_555
Hf1_3 In7_6 3.139394 1_556
Hf1_3 In7_2 3.139394 1_556
Hf1_3 In2_3 3.139394 1_555
Hf1_3 In2_7 3.139394 1_555
Hf1_4 In5_1 3.034621 1_655
Hf1_4 In5_5 3.034621 1_555
Hf1_4 In9_0 3.084670 1_655
Hf1_4 In9_4 3.084670 1_555
Hf1_4 In1_0 3.084670 1_655
Hf1_4 In1_4 3.084670 1_555
Hf1_4 In7_1 3.139394 1_655
Hf1_4 In7_5 3.139394 1_555
Hf1_4 In2_0 3.139394 1_655
Hf1_4 In2_4 3.139394 1_555
Hf1_5 In5_0 3.034621 1_656
Hf1_5 In5_4 3.034621 1_556
Hf1_5 In9_1 3.084670 1_655
Hf1_5 In9_5 3.084670 1_555
Hf1_5 In1_1 3.084670 1_655
Hf1_5 In1_5 3.084670 1_555
Hf1_5 In7_0 3.139394 1_656
Hf1_5 In7_4 3.139394 1_556
Hf1_5 In2_1 3.139394 1_655
Hf1_5 In2_5 3.139394 1_555
Hf1_6 In5_7 3.034621 1_555
Hf1_6 In5_3 3.034621 1_655
Hf1_6 In1_2 3.084670 1_655
Hf1_6 In9_2 3.084670 1_655
Hf1_6 In1_6 3.084670 1_555
Hf1_6 In9_6 3.084670 1_555
Hf1_6 In7_3 3.139394 1_655
Hf1_6 In7_7 3.139394 1_555
Hf1_6 In2_6 3.139394 1_555
Hf1_6 In2_2 3.139394 1_655
Hf1_7 In5_2 3.034621 1_656
Hf1_7 In5_6 3.034621 1_556
Hf1_7 In1_3 3.084670 1_655
Hf1_7 In1_7 3.084670 1_555
Hf1_7 In9_3 3.084670 1_655
Hf1_7 In9_7 3.084670 1_555
Hf1_7 In7_2 3.139394 1_656
Hf1_7 In7_6 3.139394 1_556
Hf1_7 In2_3 3.139394 1_655
Hf1_7 In2_7 3.139394 1_555
Hf2_0 In5_0 3.034621 1_555
Hf2_0 In5_4 3.034621 1_555
Hf2_0 Hf2_4 3.057364 1_455
Hf2_0 Hf2_4 3.057364 1_555
Hf2_0 In0_4 3.084670 1_555
Hf2_0 In6_4 3.084670 1_555
Hf2_0 In0_0 3.084670 1_555
Hf2_0 In6_0 3.084670 1_555
Hf2_0 In8_1 3.139394 1_554
Hf2_0 In8_5 3.139394 1_554
Hf2_0 In3_0 3.139394 1_555
Hf2_0 In3_4 3.139394 1_555
Hf2_1 In5_1 3.034621 1_555
Hf2_1 In5_5 3.034621 1_555
Hf2_1 Hf2_5 3.057364 1_555
Hf2_1 Hf2_5 3.057364 1_455
Hf2_1 In0_1 3.084670 1_555
Hf2_1 In0_5 3.084670 1_555
Hf2_1 In6_1 3.084670 1_555
Hf2_1 In6_5 3.084670 1_555
Hf2_1 In3_1 3.139394 1_555
Hf2_1 In3_5 3.139394 1_555
Hf2_1 In8_4 3.139394 1_555
Hf2_1 In8_0 3.139394 1_555
Hf2_2 In5_2 3.034621 1_555
Hf2_2 In5_6 3.034621 1_555
Hf2_2 Hf2_6 3.057364 1_455
Hf2_2 Hf2_6 3.057364 1_555
Hf2_2 In6_6 3.084670 1_555
Hf2_2 In0_2 3.084670 1_555
Hf2_2 In6_2 3.084670 1_555
Hf2_2 In0_6 3.084670 1_555
Hf2_2 In8_3 3.139394 1_554
Hf2_2 In8_7 3.139394 1_554
Hf2_2 In3_2 3.139394 1_555
Hf2_2 In3_6 3.139394 1_555
Hf2_3 In5_7 3.034621 1_555
Hf2_3 In5_3 3.034621 1_555
Hf2_3 Hf2_7 3.057364 1_455
Hf2_3 Hf2_7 3.057364 1_555
Hf2_3 In0_7 3.084670 1_555
Hf2_3 In0_3 3.084670 1_555
Hf2_3 In6_3 3.084670 1_555
Hf2_3 In6_7 3.084670 1_555
Hf2_3 In8_2 3.139394 1_555
Hf2_3 In8_6 3.139394 1_555
Hf2_3 In3_7 3.139394 1_555
Hf2_3 In3_3 3.139394 1_555
Hf2_4 In5_0 3.034621 1_655
Hf2_4 In5_4 3.034621 1_555
Hf2_4 In6_0 3.084670 1_655
Hf2_4 In0_4 3.084670 1_555
Hf2_4 In6_4 3.084670 1_555
Hf2_4 In0_0 3.084670 1_655
Hf2_4 In3_0 3.139394 1_655
Hf2_4 In8_1 3.139394 1_654
Hf2_4 In3_4 3.139394 1_555
Hf2_4 In8_5 3.139394 1_554
Hf2_5 In5_1 3.034621 1_655
Hf2_5 In5_5 3.034621 1_555
Hf2_5 In6_1 3.084670 1_655
Hf2_5 In0_1 3.084670 1_655
Hf2_5 In0_5 3.084670 1_555
Hf2_5 In6_5 3.084670 1_555
Hf2_5 In3_5 3.139394 1_555
Hf2_5 In3_1 3.139394 1_655
Hf2_5 In8_0 3.139394 1_655
Hf2_5 In8_4 3.139394 1_555
Hf2_6 In5_2 3.034621 1_655
Hf2_6 In5_6 3.034621 1_555
Hf2_6 In6_2 3.084670 1_655
Hf2_6 In0_2 3.084670 1_655
Hf2_6 In0_6 3.084670 1_555
Hf2_6 In6_6 3.084670 1_555
Hf2_6 In8_3 3.139394 1_654
Hf2_6 In8_7 3.139394 1_554
Hf2_6 In3_6 3.139394 1_555
Hf2_6 In3_2 3.139394 1_655
Hf2_7 In5_7 3.034621 1_555
Hf2_7 In5_3 3.034621 1_655
Hf2_7 In0_3 3.084670 1_655
Hf2_7 In0_7 3.084670 1_555
Hf2_7 In6_3 3.084670 1_655
Hf2_7 In6_7 3.084670 1_555
Hf2_7 In8_2 3.139394 1_655
Hf2_7 In8_6 3.139394 1_555
Hf2_7 In3_7 3.139394 1_555
Hf2_7 In3_3 3.139394 1_655
Hf3_0 In4_4 3.034621 1_555
Hf3_0 In4_0 3.034621 1_555
Hf3_0 Hf3_4 3.057364 1_555
Hf3_0 Hf3_4 3.057364 1_455
Hf3_0 In8_0 3.084670 1_555
Hf3_0 In8_4 3.084670 1_555
Hf3_0 In2_0 3.084670 1_555
Hf3_0 In2_4 3.084670 1_555
Hf3_0 In0_0 3.139394 1_555
Hf3_0 In0_4 3.139394 1_555
Hf3_0 In9_2 3.139394 1_545
Hf3_0 In9_6 3.139394 1_545
Hf3_1 In4_5 3.034621 1_555
Hf3_1 In4_1 3.034621 1_555
Hf3_1 Hf3_5 3.057364 1_455
Hf3_1 Hf3_5 3.057364 1_555
Hf3_1 In8_1 3.084670 1_555
Hf3_1 In2_1 3.084670 1_555
Hf3_1 In2_5 3.084670 1_555
Hf3_1 In8_5 3.084670 1_555
Hf3_1 In0_5 3.139394 1_555
Hf3_1 In0_1 3.139394 1_555
Hf3_1 In9_7 3.139394 1_545
Hf3_1 In9_3 3.139394 1_545
Hf3_2 In4_2 3.034621 1_555
Hf3_2 In4_6 3.034621 1_555
Hf3_2 Hf3_6 3.057364 1_455
Hf3_2 Hf3_6 3.057364 1_555
Hf3_2 In8_2 3.084670 1_555
Hf3_2 In8_6 3.084670 1_555
Hf3_2 In2_2 3.084670 1_555
Hf3_2 In2_6 3.084670 1_555
Hf3_2 In0_6 3.139394 1_555
Hf3_2 In0_2 3.139394 1_555
Hf3_2 In9_0 3.139394 1_555
Hf3_2 In9_4 3.139394 1_555
Hf3_3 In4_3 3.034621 1_555
Hf3_3 In4_7 3.034621 1_555
Hf3_3 Hf3_7 3.057364 1_455
Hf3_3 Hf3_7 3.057364 1_555
Hf3_3 In2_7 3.084670 1_555
Hf3_3 In2_3 3.084670 1_555
Hf3_3 In8_3 3.084670 1_555
Hf3_3 In8_7 3.084670 1_555
Hf3_3 In0_3 3.139394 1_555
Hf3_3 In0_7 3.139394 1_555
Hf3_3 In9_1 3.139394 1_555
Hf3_3 In9_5 3.139394 1_555
Hf3_4 In4_0 3.034621 1_655
Hf3_4 In4_4 3.034621 1_555
Hf3_4 In8_0 3.084670 1_655
Hf3_4 In8_4 3.084670 1_555
Hf3_4 In2_0 3.084670 1_655
Hf3_4 In2_4 3.084670 1_555
Hf3_4 In0_0 3.139394 1_655
Hf3_4 In0_4 3.139394 1_555
Hf3_4 In9_2 3.139394 1_645
Hf3_4 In9_6 3.139394 1_545
Hf3_5 In4_1 3.034621 1_655
Hf3_5 In4_5 3.034621 1_555
Hf3_5 In8_1 3.084670 1_655
Hf3_5 In2_1 3.084670 1_655
Hf3_5 In2_5 3.084670 1_555
Hf3_5 In8_5 3.084670 1_555
Hf3_5 In0_1 3.139394 1_655
Hf3_5 In9_7 3.139394 1_545
Hf3_5 In9_3 3.139394 1_645
Hf3_5 In0_5 3.139394 1_555
Hf3_6 In4_2 3.034621 1_655
Hf3_6 In4_6 3.034621 1_555
Hf3_6 In8_2 3.084670 1_655
Hf3_6 In8_6 3.084670 1_555
Hf3_6 In2_2 3.084670 1_655
Hf3_6 In2_6 3.084670 1_555
Hf3_6 In0_2 3.139394 1_655
Hf3_6 In0_6 3.139394 1_555
Hf3_6 In9_0 3.139394 1_655
Hf3_6 In9_4 3.139394 1_555
Hf3_7 In4_7 3.034621 1_555
Hf3_7 In4_3 3.034621 1_655
Hf3_7 In2_3 3.084670 1_655
Hf3_7 In8_3 3.084670 1_655
Hf3_7 In2_7 3.084670 1_555
Hf3_7 In8_7 3.084670 1_555
Hf3_7 In0_3 3.139394 1_655
Hf3_7 In0_7 3.139394 1_555
Hf3_7 In9_1 3.139394 1_655
Hf3_7 In9_5 3.139394 1_555
In0_0 In0_4 3.057364 1_555
In0_0 In0_4 3.057364 1_455
In0_0 In4_0 3.064550 1_555
In0_0 In2_0 3.181212 1_555
In0_0 In3_0 3.181212 1_555
In0_0 In6_0 3.335773 1_555
In0_1 In0_5 3.057364 1_555
In0_1 In0_5 3.057364 1_455
In0_1 In4_1 3.064550 1_555
In0_1 In2_1 3.181212 1_555
In0_1 In3_1 3.181212 1_555
In0_1 In6_1 3.335773 1_555
In0_2 In0_6 3.057364 1_555
In0_2 In0_6 3.057364 1_455
In0_2 In4_2 3.064550 1_555
In0_2 In2_2 3.181212 1_555
In0_2 In3_2 3.181212 1_555
In0_2 In6_2 3.335773 1_555
In0_3 In0_7 3.057364 1_555
In0_3 In0_7 3.057364 1_455
In0_3 In4_3 3.064550 1_555
In0_3 In2_3 3.181212 1_555
In0_3 In3_3 3.181212 1_555
In0_3 In6_3 3.335773 1_555
In0_4 In4_4 3.064550 1_555
In0_4 In2_4 3.181212 1_555
In0_4 In3_4 3.181212 1_555
In0_4 In6_4 3.335773 1_555
In0_5 In4_5 3.064550 1_555
In0_5 In2_5 3.181212 1_555
In0_5 In3_5 3.181212 1_555
In0_5 In6_5 3.335773 1_555
In0_6 In4_6 3.064550 1_555
In0_6 In2_6 3.181212 1_555
In0_6 In3_6 3.181212 1_555
In0_6 In6_6 3.335773 1_555
In0_7 In4_7 3.064550 1_555
In0_7 In2_7 3.181212 1_555
In0_7 In3_7 3.181212 1_555
In0_7 In6_7 3.335773 1_555
In1_0 In1_4 3.057364 1_555
In1_0 In1_4 3.057364 1_455
In1_0 In4_2 3.064550 1_555
In1_0 In2_0 3.181212 1_555
In1_0 In3_0 3.181212 1_555
In1_0 In9_0 3.335773 1_555
In1_1 In1_5 3.057364 1_555
In1_1 In1_5 3.057364 1_455
In1_1 In4_3 3.064550 1_555
In1_1 In2_1 3.181212 1_555
In1_1 In3_1 3.181212 1_555
In1_1 In9_1 3.335773 1_555
In1_2 In1_6 3.057364 1_555
In1_2 In1_6 3.057364 1_455
In1_2 In4_0 3.064550 1_565
In1_2 In2_2 3.181212 1_555
In1_2 In3_2 3.181212 1_555
In1_2 In9_2 3.335773 1_555
In1_3 In1_7 3.057364 1_555
In1_3 In1_7 3.057364 1_455
In1_3 In4_1 3.064550 1_565
In1_3 In2_3 3.181212 1_555
In1_3 In3_3 3.181212 1_555
In1_3 In9_3 3.335773 1_555
In1_4 In4_6 3.064550 1_555
In1_4 In2_4 3.181212 1_555
In1_4 In3_4 3.181212 1_555
In1_4 In9_4 3.335773 1_555
In1_5 In4_7 3.064550 1_555
In1_5 In2_5 3.181212 1_555
In1_5 In3_5 3.181212 1_555
In1_5 In9_5 3.335773 1_555
In1_6 In4_4 3.064550 1_565
In1_6 In2_6 3.181212 1_555
In1_6 In3_6 3.181212 1_555
In1_6 In9_6 3.335773 1_555
In1_7 In4_5 3.064550 1_565
In1_7 In2_7 3.181212 1_555
In1_7 In3_7 3.181212 1_555
In1_7 In9_7 3.335773 1_555
In2_0 In2_4 3.057364 1_555
In2_0 In2_4 3.057364 1_455
In2_0 In5_1 3.064550 1_555
In2_0 In8_0 3.335773 1_555
In2_1 In2_5 3.057364 1_555
In2_1 In2_5 3.057364 1_455
In2_1 In5_0 3.064550 1_556
In2_1 In8_1 3.335773 1_555
In2_2 In2_6 3.057364 1_555
In2_2 In2_6 3.057364 1_455
In2_2 In5_3 3.064550 1_555
In2_2 In8_2 3.335773 1_555
In2_3 In2_7 3.057364 1_555
In2_3 In2_7 3.057364 1_455
In2_3 In5_2 3.064550 1_556
In2_3 In8_3 3.335773 1_555
In2_4 In5_5 3.064550 1_555
In2_4 In8_4 3.335773 1_555
In2_5 In5_4 3.064550 1_556
In2_5 In8_5 3.335773 1_555
In2_6 In5_7 3.064550 1_555
In2_6 In8_6 3.335773 1_555
In2_7 In5_6 3.064550 1_556
In2_7 In8_7 3.335773 1_555
In3_0 In3_4 3.057364 1_555
In3_0 In3_4 3.057364 1_455
In3_0 In5_0 3.064550 1_555
In3_0 In7_0 3.335773 1_555
In3_1 In3_5 3.057364 1_555
In3_1 In3_5 3.057364 1_455
In3_1 In5_1 3.064550 1_555
In3_1 In7_1 3.335773 1_555
In3_2 In3_6 3.057364 1_555
In3_2 In3_6 3.057364 1_455
In3_2 In5_2 3.064550 1_555
In3_2 In7_2 3.335773 1_555
In3_3 In3_7 3.057364 1_555
In3_3 In3_7 3.057364 1_455
In3_3 In5_3 3.064550 1_555
In3_3 In7_3 3.335773 1_555
In3_4 In5_4 3.064550 1_555
In3_4 In7_4 3.335773 1_555
In3_5 In5_5 3.064550 1_555
In3_5 In7_5 3.335773 1_555
In3_6 In5_6 3.064550 1_555
In3_6 In7_6 3.335773 1_555
In3_7 In5_7 3.064550 1_555
In3_7 In7_7 3.335773 1_555
In4_0 In4_4 3.057364 1_555
In4_0 In4_4 3.057364 1_455
In4_0 In6_0 3.064550 1_555
In4_0 In9_2 3.064550 1_545
In4_1 In4_5 3.057364 1_555
In4_1 In4_5 3.057364 1_455
In4_1 In9_3 3.064550 1_545
In4_1 In6_1 3.064550 1_555
In4_2 In4_6 3.057364 1_555
In4_2 In4_6 3.057364 1_455
In4_2 In6_2 3.064550 1_555
In4_2 In9_0 3.064550 1_555
In4_3 In4_7 3.057364 1_555
In4_3 In4_7 3.057364 1_455
In4_3 In6_3 3.064550 1_555
In4_3 In9_1 3.064550 1_555
In4_4 In6_4 3.064550 1_555
In4_4 In9_6 3.064550 1_545
In4_5 In9_7 3.064550 1_545
In4_5 In6_5 3.064550 1_555
In4_6 In6_6 3.064550 1_555
In4_6 In9_4 3.064550 1_555
In4_7 In6_7 3.064550 1_555
In4_7 In9_5 3.064550 1_555
In5_0 In5_4 3.057364 1_555
In5_0 In5_4 3.057364 1_455
In5_0 In8_1 3.064550 1_554
In5_0 In7_0 3.064550 1_555
In5_1 In5_5 3.057364 1_555
In5_1 In5_5 3.057364 1_455
In5_1 In8_0 3.064550 1_555
In5_1 In7_1 3.064550 1_555
In5_2 In5_6 3.057364 1_555
In5_2 In5_6 3.057364 1_455
In5_2 In7_2 3.064550 1_555
In5_2 In8_3 3.064550 1_554
In5_3 In5_7 3.057364 1_555
In5_3 In5_7 3.057364 1_455
In5_3 In7_3 3.064550 1_555
In5_3 In8_2 3.064550 1_555
In5_4 In8_5 3.064550 1_554
In5_4 In7_4 3.064550 1_555
In5_5 In8_4 3.064550 1_555
In5_5 In7_5 3.064550 1_555
In5_6 In8_7 3.064550 1_554
In5_6 In7_6 3.064550 1_555
In5_7 In7_7 3.064550 1_555
In5_7 In8_6 3.064550 1_555
In6_0 In6_4 3.057364 1_555
In6_0 In6_4 3.057364 1_455
In6_0 In8_1 3.181212 1_554
In6_0 In7_2 3.181212 1_545
In6_1 In6_5 3.057364 1_555
In6_1 In6_5 3.057364 1_455
In6_1 In8_0 3.181212 1_555
In6_1 In7_3 3.181212 1_545
In6_2 In6_6 3.057364 1_555
In6_2 In6_6 3.057364 1_455
In6_2 In7_0 3.181212 1_555
In6_2 In8_3 3.181212 1_554
In6_3 In6_7 3.057364 1_555
In6_3 In6_7 3.057364 1_455
In6_3 In7_1 3.181212 1_555
In6_3 In8_2 3.181212 1_555
In6_4 In8_5 3.181212 1_554
In6_4 In7_6 3.181212 1_545
In6_5 In8_4 3.181212 1_555
In6_5 In7_7 3.181212 1_545
In6_6 In7_4 3.181212 1_555
In6_6 In8_7 3.181212 1_554
In6_7 In7_5 3.181212 1_555
In6_7 In8_6 3.181212 1_555
In7_0 In7_4 3.057364 1_555
In7_0 In7_4 3.057364 1_455
In7_0 In9_1 3.181212 1_554
In7_1 In7_5 3.057364 1_555
In7_1 In7_5 3.057364 1_455
In7_1 In9_0 3.181212 1_555
In7_2 In7_6 3.057364 1_555
In7_2 In7_6 3.057364 1_455
In7_2 In9_3 3.181212 1_554
In7_3 In7_7 3.057364 1_555
In7_3 In7_7 3.057364 1_455
In7_3 In9_2 3.181212 1_555
In7_4 In9_5 3.181212 1_554
In7_5 In9_4 3.181212 1_555
In7_6 In9_7 3.181212 1_554
In7_7 In9_6 3.181212 1_555
In8_0 In8_4 3.057364 1_555
In8_0 In8_4 3.057364 1_455
In8_0 In9_2 3.181212 1_545
In8_1 In8_5 3.057364 1_555
In8_1 In8_5 3.057364 1_455
In8_1 In9_3 3.181212 1_545
In8_2 In8_6 3.057364 1_555
In8_2 In8_6 3.057364 1_455
In8_2 In9_0 3.181212 1_555
In8_3 In8_7 3.057364 1_555
In8_3 In8_7 3.057364 1_455
In8_3 In9_1 3.181212 1_555
In8_4 In9_6 3.181212 1_545
In8_5 In9_7 3.181212 1_545
In8_6 In9_4 3.181212 1_555
In8_7 In9_5 3.181212 1_555
In9_0 In9_4 3.057364 1_555
In9_0 In9_4 3.057364 1_455
In9_1 In9_5 3.057364 1_555
In9_1 In9_5 3.057364 1_455
In9_2 In9_6 3.057364 1_555
In9_2 In9_6 3.057364 1_455
In9_3 In9_7 3.057364 1_555
In9_3 In9_7 3.057364 1_455
