# generated using pymatgen
data_Na3CaAlSi(SO6)2
_symmetry_space_group_name_H-M   'P 1'
_cell_length_a   9.17976090
_cell_length_b   9.18592813
_cell_length_c   22.35736730
_cell_angle_alpha   91.61883455
_cell_angle_beta   90.00000000
_cell_angle_gamma   119.97779349
_symmetry_Int_Tables_number   1
_chemical_formula_structural   Na3CaAlSi(SO6)2
_chemical_formula_sum   'Na18 Ca6 Al6 Si6 S12 O72'
_cell_volume   1632.19392610
_cell_formula_units_Z   6
loop_
 _symmetry_equiv_pos_site_id
 _symmetry_equiv_pos_as_xyz
  1  'x, y, z'
loop_
 _atom_site_type_symbol
 _atom_site_label
 _atom_site_symmetry_multiplicity
 _atom_site_fract_x
 _atom_site_fract_y
 _atom_site_fract_z
 _atom_site_occupancy
  Na  Na0  1  0.64160355  0.00536978  0.25354803  1
  Na  Na1  1  0.00318874  0.63570261  0.23798162  1
  Na  Na2  1  0.63251387  0.63570261  0.73798162  1
  Na  Na3  1  0.36376623  0.00536978  0.75354803  1
  Na  Na4  1  0.32577293  0.35104362  0.58679011  1
  Na  Na5  1  0.65940239  0.94873829  0.57760581  1
  Na  Na6  1  0.28933690  0.94873829  0.07760581  1
  Na  Na7  1  0.02527169  0.35104362  0.08679011  1
  Na  Na8  1  0.99641448  0.68625329  0.92537342  1
  Na  Na9  1  0.69365178  0.03468835  0.90776230  1
  Na  Na10  1  0.34103557  0.03468835  0.40776230  1
  Na  Na11  1  0.68983781  0.68625329  0.42537342  1
  Na  Na12  1  0.97654873  0.99499299  0.50074240  1
  Na  Na13  1  0.01844426  0.99499299  0.00074240  1
  Na  Na14  1  0.66494826  0.30465035  0.83470020  1
  Na  Na15  1  0.63970309  0.30465035  0.33470020  1
  Na  Na16  1  0.32313284  0.65799848  0.16702438  1
  Na  Na17  1  0.33486464  0.65799848  0.66702438  1
  Ca  Ca0  1  0.00707062  0.01671711  0.35034985  1
  Ca  Ca1  1  0.00964648  0.01671711  0.85034985  1
  Ca  Ca2  1  0.67331250  0.32899194  0.68375682  1
  Ca  Ca3  1  0.65568043  0.32899194  0.18375682  1
  Ca  Ca4  1  0.33565600  0.67034983  0.01653917  1
  Ca  Ca5  1  0.33469282  0.67034983  0.51653917  1
  Al  Al0  1  0.94620018  0.93880421  0.65493934  1
  Al  Al1  1  0.99260403  0.93880421  0.15493934  1
  Al  Al2  1  0.64714713  0.33907492  0.98579396  1
  Al  Al3  1  0.69192879  0.33907492  0.48579396  1
  Al  Al4  1  0.32788885  0.71192440  0.32152331  1
  Al  Al5  1  0.38403455  0.71192440  0.82152331  1
  Si  Si0  1  0.29703673  0.98630684  0.25430277  1
  Si  Si1  1  0.68927011  0.98630684  0.75430277  1
  Si  Si2  1  0.67787812  0.62527757  0.58345649  1
  Si  Si3  1  0.94740044  0.62527757  0.08345649  1
  Si  Si4  1  0.35184133  0.98466028  0.92281253  1
  Si  Si5  1  0.63281794  0.98466028  0.42281253  1
  S  S0  1  0.69759219  0.71326159  0.25032156  1
  S  S1  1  0.01719175  0.30622055  0.24643506  1
  S  S2  1  0.28902881  0.30622055  0.74643506  1
  S  S3  1  0.01566940  0.71326159  0.75032156  1
  S  S4  1  0.95871113  0.31914696  0.58134052  1
  S  S5  1  0.35376949  0.04160572  0.58282604  1
  S  S6  1  0.68783723  0.04160572  0.08282604  1
  S  S7  1  0.36043683  0.31914696  0.08134052  1
  S  S8  1  0.62399196  0.65026746  0.91361409  1
  S  S9  1  0.03328257  0.38268803  0.91534503  1
  S  S10  1  0.34940446  0.38268803  0.41534503  1
  S  S11  1  0.02627450  0.65026746  0.41361409  1
  O  O0  1  0.21996874  0.99920652  0.31658556  1
  O  O1  1  0.78840100  0.78687200  0.30673628  1
  O  O2  1  0.98268047  0.20019147  0.29818309  1
  O  O3  1  0.21751100  0.20019147  0.79818309  1
  O  O4  1  0.99847099  0.78687200  0.80673628  1
  O  O5  1  0.77923778  0.99920652  0.81658556  1
  O  O6  1  0.79170646  0.95674073  0.69610431  1
  O  O7  1  0.18946293  0.21776603  0.69091623  1
  O  O8  1  0.03144587  0.82918646  0.69927776  1
  O  O9  1  0.79774059  0.82918646  0.19927776  1
  O  O10  1  0.02830310  0.21776603  0.19091623  1
  O  O11  1  0.16503427  0.95674073  0.19610431  1
  O  O12  1  0.89049842  0.34251844  0.63695810  1
  O  O13  1  0.45446022  0.11105548  0.63857132  1
  O  O14  1  0.65269454  0.53157287  0.64501763  1
  O  O15  1  0.87887933  0.53157287  0.14501763  1
  O  O16  1  0.65659626  0.11105548  0.13857132  1
  O  O17  1  0.45202102  0.34251844  0.13695810  1
  O  O18  1  0.45654641  0.30347530  0.02868997  1
  O  O19  1  0.82121305  0.51508826  0.02426244  1
  O  O20  1  0.69967995  0.14848513  0.03121696  1
  O  O21  1  0.44880618  0.14848513  0.53121696  1
  O  O22  1  0.69387621  0.51508826  0.52426244  1
  O  O23  1  0.84692989  0.30347530  0.52868997  1
  O  O24  1  0.54712925  0.67443933  0.96655063  1
  O  O25  1  0.11494561  0.44799037  0.97412809  1
  O  O26  1  0.32550867  0.87842247  0.98133345  1
  O  O27  1  0.55291281  0.87842247  0.48133345  1
  O  O28  1  0.33304375  0.44799037  0.47412809  1
  O  O29  1  0.12730908  0.67443933  0.46655063  1
  O  O30  1  0.11698238  0.63682037  0.35819359  1
  O  O31  1  0.49644058  0.88195933  0.36289004  1
  O  O32  1  0.34967151  0.48944967  0.36619990  1
  O  O33  1  0.13977717  0.48944967  0.86619990  1
  O  O34  1  0.38551775  0.88195933  0.86289004  1
  O  O35  1  0.51983699  0.63682037  0.85819359  1
  O  O36  1  0.99892923  0.79554550  0.40943728  1
  O  O37  1  0.81250877  0.99449699  0.41467517  1
  O  O38  1  0.21261844  0.20557903  0.41128426  1
  O  O39  1  0.99296060  0.20557903  0.91128426  1
  O  O40  1  0.18198822  0.99449699  0.91467517  1
  O  O41  1  0.79661627  0.79554550  0.90943728  1
  O  O42  1  0.96200376  0.15833944  0.58094994  1
  O  O43  1  0.19270343  0.04482094  0.58707322  1
  O  O44  1  0.85036847  0.81898406  0.58838186  1
  O  O45  1  0.96861559  0.81898406  0.08838186  1
  O  O46  1  0.85211751  0.04482094  0.08707322  1
  O  O47  1  0.19633568  0.15833944  0.08094994  1
  O  O48  1  0.64575264  0.13575698  0.74850588  1
  O  O49  1  0.46513407  0.33669553  0.74307894  1
  O  O50  1  0.86716117  0.54707766  0.74211071  1
  O  O51  1  0.67991749  0.54707766  0.24211071  1
  O  O52  1  0.87156246  0.33669553  0.24307894  1
  O  O53  1  0.49000535  0.13575698  0.24850588  1
  O  O54  1  0.63267682  0.49253712  0.91519537  1
  O  O55  1  0.86905634  0.38299762  0.91319314  1
  O  O56  1  0.53351587  0.17020576  0.92999654  1
  O  O57  1  0.63669089  0.17020576  0.42999654  1
  O  O58  1  0.51394228  0.38299762  0.41319314  1
  O  O59  1  0.85986130  0.49253712  0.41519537  1
  O  O60  1  0.32976788  0.46092244  0.07509306  1
  O  O61  1  0.13893183  0.65448446  0.07899488  1
  O  O62  1  0.54703837  0.86755234  0.07643559  1
  O  O63  1  0.32051297  0.86755234  0.57643559  1
  O  O64  1  0.51555163  0.65448446  0.57899488  1
  O  O65  1  0.13115355  0.46092244  0.57509306  1
  O  O66  1  0.29991658  0.80173530  0.25516690  1
  O  O67  1  0.53363617  0.70803267  0.24962860  1
  O  O68  1  0.17472185  0.47296075  0.25409845  1
  O  O69  1  0.29823790  0.47296075  0.75409845  1
  O  O70  1  0.17439549  0.70803267  0.74962860  1
  O  O71  1  0.50181772  0.80173530  0.75516690  1
loop_
_geom_bond_atom_site_label_1
_geom_bond_atom_site_label_2
_geom_bond_distance
_geom_bond_site_symmetry_2
Na0 O53 2.248826 1_555
Na0 O67 2.394019 1_545
Na0 O52 2.719160 1_555
Na0 O66 2.734805 1_545
Na0 O16 2.752594 1_555
Na0 O31 2.771980 1_545
Na0 O2 2.881202 1_555
Na0 O9 2.890146 1_545
Na1 O15 2.309519 1_455
Na1 O66 2.389274 1_555
Na1 O52 2.391283 1_455
Na1 O51 2.658502 1_455
Na1 O68 2.688302 1_555
Na1 O11 2.749229 1_555
Na1 O30 2.881377 1_555
Na2 O14 2.309522 1_555
Na2 O71 2.389281 1_555
Na2 O49 2.391282 1_555
Na2 O50 2.658510 1_555
Na2 O69 2.688310 1_555
Na2 O6 2.749229 1_555
Na2 O35 2.881380 1_555
Na3 O48 2.248834 1_555
Na3 O70 2.394020 1_545
Na3 O49 2.719158 1_555
Na3 O71 2.734798 1_545
Na3 O13 2.752596 1_555
Na3 O34 2.771978 1_545
Na3 O3 2.881202 1_555
Na3 O8 2.890146 1_545
Na4 O43 2.443772 1_555
Na4 O64 2.451454 1_555
Na4 O65 2.468987 1_555
Na4 O7 2.667253 1_555
Na4 O28 2.685023 1_555
Na4 O21 2.872443 1_555
Na4 O14 2.890634 1_555
Na4 O42 2.895052 1_455
Na5 O27 2.301321 1_555
Na5 O64 2.342797 1_555
Na5 O42 2.464958 1_565
Na5 O44 2.579935 1_555
Na5 O63 2.813384 1_555
Na5 O6 2.898121 1_555
Na6 O26 2.301316 1_554
Na6 O61 2.342797 1_555
Na6 O47 2.464965 1_565
Na6 O45 2.579943 1_455
Na6 O62 2.813366 1_555
Na6 O11 2.898125 1_555
Na7 O46 2.443773 1_455
Na7 O61 2.451456 1_555
Na7 O60 2.468970 1_555
Na7 O10 2.667251 1_555
Na7 O25 2.685021 1_554
Na7 O20 2.872443 1_455
Na7 O15 2.890634 1_455
Na7 O47 2.895044 1_555
Na8 O55 2.429725 1_555
Na8 O40 2.488893 1_655
Na8 O41 2.521726 1_555
Na8 O19 2.759752 1_556
Na8 O4 2.830375 1_555
Na8 O26 2.890303 1_655
Na8 O54 2.899447 1_555
Na8 O33 2.998807 1_655
Na9 O5 2.257703 1_545
Na9 O39 2.387978 1_555
Na9 O56 2.398218 1_555
Na9 O34 2.632575 1_545
Na9 O55 2.770229 1_555
Na9 O41 2.792864 1_545
Na9 O20 2.914313 1_556
Na10 O0 2.257699 1_545
Na10 O38 2.387970 1_555
Na10 O57 2.398234 1_555
Na10 O31 2.632575 1_545
Na10 O58 2.770229 1_555
Na10 O36 2.792857 1_445
Na10 O21 2.914316 1_555
Na11 O58 2.429724 1_555
Na11 O37 2.488892 1_555
Na11 O36 2.521734 1_555
Na11 O22 2.759757 1_555
Na11 O1 2.830376 1_555
Na11 O27 2.890303 1_555
Na11 O59 2.899463 1_555
Na11 O32 2.998807 1_555
Na12 O42 2.352265 1_565
Na12 O37 2.441912 1_555
Na12 O44 2.470308 1_555
Na12 O43 2.629566 1_665
Na12 O36 2.780423 1_555
Na12 O38 2.909941 1_665
Na13 O47 2.352265 1_565
Na13 O40 2.441912 1_554
Na13 O45 2.470308 1_455
Na13 O46 2.629566 1_465
Na13 O41 2.780423 1_454
Na13 O39 2.909940 1_464
Na14 O55 2.385228 1_555
Na14 O48 2.389463 1_555
Na14 O56 2.485936 1_555
Na14 O54 2.576970 1_555
Na14 O49 2.867183 1_555
Na14 O50 2.969766 1_555
Na15 O58 2.385228 1_555
Na15 O53 2.389463 1_555
Na15 O57 2.485936 1_555
Na15 O59 2.576970 1_555
Na15 O52 2.867183 1_555
Na15 O51 2.969766 1_555
Na16 O66 2.409638 1_555
Na16 O68 2.531372 1_555
Na16 O67 2.533873 1_555
Na16 O61 2.583712 1_555
Na16 O60 2.721283 1_555
Na16 O62 2.880700 1_555
Na17 O71 2.409638 1_555
Na17 O69 2.531372 1_555
Na17 O70 2.533874 1_555
Na17 O64 2.583712 1_555
Na17 O65 2.721283 1_555
Na17 O63 2.880700 1_555
Ca0 O0 2.173133 1_545
Ca0 O2 2.176944 1_455
Ca0 O37 2.225333 1_445
Ca0 O38 2.240806 1_555
Ca0 O1 2.255283 1_445
Ca0 O36 2.424522 1_445
Ca1 O5 2.173132 1_445
Ca1 O3 2.176944 1_555
Ca1 O40 2.225334 1_545
Ca1 O39 2.240806 1_455
Ca1 O4 2.255283 1_445
Ca1 O41 2.424522 1_445
Ca2 O14 2.166085 1_555
Ca2 O12 2.201104 1_555
Ca2 O13 2.220582 1_555
Ca2 O48 2.237586 1_555
Ca2 O50 2.274156 1_555
Ca2 O49 2.354976 1_555
Ca3 O15 2.166085 1_555
Ca3 O17 2.201104 1_555
Ca3 O16 2.220582 1_555
Ca3 O53 2.237586 1_555
Ca3 O51 2.274156 1_555
Ca3 O52 2.354976 1_555
Ca4 O26 2.131750 1_554
Ca4 O25 2.220610 1_554
Ca4 O24 2.224524 1_554
Ca4 O61 2.231751 1_555
Ca4 O62 2.278217 1_555
Ca4 O60 2.335813 1_555
Ca5 O27 2.131750 1_555
Ca5 O28 2.220610 1_555
Ca5 O29 2.224524 1_555
Ca5 O64 2.231751 1_555
Ca5 O63 2.278217 1_555
Ca5 O65 2.335813 1_555
Al0 O6 1.763648 1_555
Al0 O44 1.771859 1_555
Al0 O8 1.858166 1_655
Al0 O43 2.500470 1_665
Al1 O11 1.763648 1_655
Al1 O45 1.771859 1_555
Al1 O9 1.858166 1_555
Al1 O46 2.500470 1_565
Al2 O19 1.801874 1_556
Al2 O56 1.823248 1_555
Al2 O18 1.879888 1_556
Al2 O54 2.192958 1_555
Al2 O20 2.296332 1_556
Al2 O55 2.482493 1_555
Al3 O22 1.801874 1_555
Al3 O57 1.823248 1_555
Al3 O23 1.879888 1_555
Al3 O59 2.192958 1_555
Al3 O21 2.296332 1_555
Al3 O58 2.482493 1_555
Al4 O31 1.786697 1_555
Al4 O66 1.796758 1_555
Al4 O30 1.895692 1_555
Al4 O32 2.395380 1_555
Al4 O68 2.407595 1_555
Al4 O67 2.493270 1_555
Al5 O34 1.786697 1_555
Al5 O71 1.796758 1_555
Al5 O35 1.895692 1_555
Al5 O33 2.395379 1_555
Al5 O69 2.407595 1_555
Al5 O70 2.493270 1_555
O0 Si0 1.589968 1_555
O1 S0 1.459958 1_555
O2 S1 1.463844 1_655
O3 S2 1.463844 1_555
O4 S3 1.459958 1_655
O5 Si1 1.589968 1_555
O6 Si1 1.698907 1_555
O7 S2 1.495718 1_555
O8 S3 1.540075 1_555
O9 S0 1.540075 1_555
O10 S1 1.495718 1_555
O11 Si0 1.698907 1_555
O12 S4 1.450395 1_555
O13 S5 1.476637 1_555
O14 Si2 1.598989 1_555
O15 Si3 1.598989 1_555
O16 S6 1.476637 1_555
O17 S7 1.450395 1_555
O18 S7 1.517264 1_555
O19 Si3 1.694229 1_555
O20 S6 1.504799 1_555
O21 S5 1.504799 1_555
O22 Si2 1.694229 1_555
O23 S4 1.517264 1_555
O24 S8 1.445540 1_555
O25 S9 1.468023 1_555
O26 Si4 1.599700 1_555
O27 Si5 1.599700 1_555
O28 S10 1.468023 1_555
O29 S11 1.445540 1_555
O30 S11 1.529055 1_555
O31 Si5 1.732177 1_555
O32 S10 1.492492 1_555
O33 S9 1.492492 1_555
O34 Si4 1.732177 1_555
O35 S8 1.529055 1_555
O36 S11 1.481374 1_655
O37 Si5 1.616835 1_555
O38 S10 1.477141 1_555
O39 S9 1.477144 1_655
O40 Si4 1.616826 1_555
O41 S8 1.481380 1_555
O42 S4 1.492280 1_555
O43 S5 1.496487 1_555
O44 Si2 1.690811 1_555
O45 Si3 1.690815 1_555
O46 S6 1.496478 1_555
O47 S7 1.492285 1_555
O48 Si1 1.618386 1_545
O49 S2 1.498781 1_555
O50 S3 1.458434 1_655
O51 S0 1.458438 1_555
O52 S1 1.498772 1_655
O53 Si0 1.618392 1_545
O54 S8 1.491726 1_555
O55 S9 1.509750 1_655
O56 Si4 1.689992 1_545
O57 Si5 1.689983 1_545
O58 S10 1.509768 1_555
O59 S11 1.491716 1_655
O60 S7 1.473615 1_555
O61 Si3 1.644188 1_455
O62 S6 1.472835 1_565
O63 S5 1.472829 1_565
O64 Si2 1.644206 1_555
O65 S4 1.473604 1_455
O66 Si0 1.709474 1_555
O67 S0 1.481728 1_555
O68 S1 1.496081 1_555
O69 S2 1.496086 1_555
O70 S3 1.481719 1_555
O71 Si1 1.709479 1_555
