# generated using pymatgen
data_MgV4(OF)6
_symmetry_space_group_name_H-M   'P 1'
_cell_length_a   5.23621285
_cell_length_b   9.35628892
_cell_length_c   5.13918078
_cell_angle_alpha   102.29009782
_cell_angle_beta   118.48103183
_cell_angle_gamma   76.79440436
_symmetry_Int_Tables_number   1
_chemical_formula_structural   MgV4(OF)6
_chemical_formula_sum   'Mg1 V4 O6 F6'
_cell_volume   213.85829785
_cell_formula_units_Z   1
loop_
 _symmetry_equiv_pos_site_id
 _symmetry_equiv_pos_as_xyz
  1  'x, y, z'
loop_
 _atom_site_type_symbol
 _atom_site_label
 _atom_site_symmetry_multiplicity
 _atom_site_fract_x
 _atom_site_fract_y
 _atom_site_fract_z
 _atom_site_occupancy
  Mg  Mg0  1  0.08729300  0.69055100  0.88930600  1
  V  V0  1  0.94426100  0.01510200  0.99485000  1
  V  V1  1  0.69247900  0.77173100  0.24694900  1
  V  V2  1  0.55858600  0.48230900  0.51228900  1
  V  V3  1  0.25190500  0.25639500  0.73318000  1
  O  O0  1  0.35642500  0.86538700  0.18735400  1
  O  O1  1  0.82387200  0.84700900  0.03290200  1
  O  O2  1  0.29081500  0.36908800  0.54175400  1
  O  O3  1  0.76431700  0.62543400  0.49786600  1
  O  O4  1  0.62234500  0.12020000  0.80132900  1
  O  O5  1  0.87197400  0.36977100  0.70896600  1
  F  F0  1  0.17441500  0.60256100  0.24432500  1
  F  F1  1  0.02940600  0.11341500  0.39608500  1
  F  F2  1  0.49135100  0.36919800  0.12257000  1
  F  F3  1  0.21173900  0.13166100  0.98508700  1
  F  F4  1  0.48595300  0.62478600  0.86358500  1
  F  F5  1  0.96786500  0.87397300  0.62910200  1
loop_
_geom_bond_atom_site_label_1
_geom_bond_atom_site_label_2
_geom_bond_distance
_geom_bond_site_symmetry_2
Mg0 O3 1.995593 1_455
Mg0 O1 2.044117 1_456
Mg0 O0 2.221681 1_556
O0 V1 1.689315 1_555
O0 V0 2.184272 1_464
O1 V1 1.858095 1_555
O1 V0 1.900150 1_564
O2 V3 1.688775 1_555
O2 V2 2.015045 1_555
O3 V1 1.931709 1_555
O3 V2 1.933058 1_555
O4 V0 1.690424 1_555
O4 V3 1.980321 1_555
O5 V2 1.704360 1_555
O5 V3 1.988555 1_655
F0 Mg0 1.971989 1_554
F0 V2 2.047527 1_555
F1 V0 1.949334 1_454
F1 V3 1.987122 1_555
F2 V2 1.962313 1_555
F2 V3 2.000747 1_554
F3 V0 1.985350 1_455
F3 V3 2.024164 1_555
F4 Mg0 2.096496 1_555
F4 V1 2.106045 1_556
F4 V2 2.140024 1_555
F5 V1 1.995238 1_555
F5 V0 2.093391 1_565
F5 Mg0 2.193977 1_655
