# generated using pymatgen
data_Na14Ca4Ta4Si9(SO16)3
_symmetry_space_group_name_H-M   'P 1'
_cell_length_a   18.62063373
_cell_length_b   9.30990442
_cell_length_c   22.60306101
_cell_angle_alpha   89.90496203
_cell_angle_beta   90.19298505
_cell_angle_gamma   120.03530285
_symmetry_Int_Tables_number   1
_chemical_formula_structural   Na14Ca4Ta4Si9(SO16)3
_chemical_formula_sum   'Na42 Ca12 Ta12 Si27 S9 O144'
_cell_volume   3392.19259283
_cell_formula_units_Z   3
loop_
 _symmetry_equiv_pos_site_id
 _symmetry_equiv_pos_as_xyz
  1  'x, y, z'
loop_
 _atom_site_type_symbol
 _atom_site_label
 _atom_site_symmetry_multiplicity
 _atom_site_fract_x
 _atom_site_fract_y
 _atom_site_fract_z
 _atom_site_occupancy
  Na  Na0  1  0.82484356  0.01207796  0.25952380  1
  Na  Na1  1  0.16782057  0.33660086  0.25001711  1
  Na  Na2  1  0.65787778  0.34483551  0.25264548  1
  Na  Na3  1  0.01232325  0.66656042  0.24228959  1
  Na  Na4  1  0.51203521  0.65605863  0.25589686  1
  Na  Na5  1  0.32416834  0.63543926  0.76406503  1
  Na  Na6  1  0.01100162  0.36611238  0.76069667  1
  Na  Na7  1  0.50982662  0.35963028  0.74707637  1
  Na  Na8  1  0.16024292  0.97455637  0.75838820  1
  Na  Na9  1  0.66247515  0.98723951  0.75668839  1
  Na  Na10  1  0.14359774  0.30362558  0.59030170  1
  Na  Na11  1  0.64160088  0.30797652  0.59241862  1
  Na  Na12  1  0.34306935  0.00126489  0.57980152  1
  Na  Na13  1  0.83389099  0.97335981  0.59445747  1
  Na  Na14  1  0.14456961  0.98087238  0.09329000  1
  Na  Na15  1  0.63760491  0.97537336  0.09030898  1
  Na  Na16  1  0.34552298  0.69288447  0.09205905  1
  Na  Na17  1  0.84140758  0.68949361  0.07397227  1
  Na  Na18  1  0.47885406  0.66174575  0.92188814  1
  Na  Na19  1  0.97630537  0.64435347  0.92149580  1
  Na  Na20  1  0.35388344  0.05433939  0.91716607  1
  Na  Na21  1  0.84724799  0.03594211  0.91729267  1
  Na  Na22  1  0.16922296  0.29107221  0.92950665  1
  Na  Na23  1  0.66722114  0.27685413  0.91910964  1
  Na  Na24  1  0.47677451  0.31137699  0.41940773  1
  Na  Na25  1  0.98266467  0.30203732  0.40629613  1
  Na  Na26  1  0.17078127  0.06152545  0.41316607  1
  Na  Na27  1  0.66908117  0.04639163  0.42722161  1
  Na  Na28  1  0.34849153  0.65727681  0.41124710  1
  Na  Na29  1  0.85109895  0.65223108  0.41199124  1
  Na  Na30  1  0.01871234  0.98854779  0.49864333  1
  Na  Na31  1  0.51196290  0.00804292  0.50482589  1
  Na  Na32  1  0.01319211  0.02007268  0.00802477  1
  Na  Na33  1  0.51532323  0.02414353  0.00519039  1
  Na  Na34  1  0.33131837  0.32995960  0.84248049  1
  Na  Na35  1  0.83076133  0.33529335  0.84400855  1
  Na  Na36  1  0.33005235  0.32107341  0.33675209  1
  Na  Na37  1  0.83237577  0.33614683  0.33703247  1
  Na  Na38  1  0.17320347  0.67275277  0.16856001  1
  Na  Na39  1  0.64376872  0.63431398  0.16870492  1
  Na  Na40  1  0.14853325  0.65324845  0.67350043  1
  Na  Na41  1  0.66748791  0.66945430  0.67195059  1
  Ca  Ca0  1  0.00885080  0.01816405  0.34870931  1
  Ca  Ca1  1  0.50719178  0.99451228  0.85132941  1
  Ca  Ca2  1  0.99770236  0.99524775  0.65384128  1
  Ca  Ca3  1  0.50942679  0.99949722  0.65281054  1
  Ca  Ca4  1  0.00963742  0.01733440  0.15369766  1
  Ca  Ca5  1  0.49679533  0.99707614  0.15249642  1
  Ca  Ca6  1  0.33646159  0.33317226  0.98601344  1
  Ca  Ca7  1  0.83043724  0.33097154  0.98117561  1
  Ca  Ca8  1  0.33005047  0.32945310  0.48020453  1
  Ca  Ca9  1  0.83543670  0.33944015  0.48370809  1
  Ca  Ca10  1  0.66439751  0.66568441  0.31739978  1
  Ca  Ca11  1  0.16382908  0.66241385  0.81826877  1
  Ta  Ta0  1  0.50278882  0.01292287  0.34998370  1
  Ta  Ta1  1  0.00117964  0.99071705  0.85065398  1
  Ta  Ta2  1  0.33137588  0.32151477  0.68145596  1
  Ta  Ta3  1  0.83301676  0.32408732  0.69038760  1
  Ta  Ta4  1  0.33938193  0.35539347  0.18703334  1
  Ta  Ta5  1  0.83263581  0.34180235  0.18086945  1
  Ta  Ta6  1  0.15212929  0.64851100  0.01908507  1
  Ta  Ta7  1  0.66099230  0.65108992  0.01968178  1
  Ta  Ta8  1  0.16972042  0.68479077  0.51617888  1
  Ta  Ta9  1  0.65153597  0.65553945  0.51959658  1
  Ta  Ta10  1  0.16721351  0.66824679  0.31411151  1
  Ta  Ta11  1  0.66713255  0.66596753  0.81591778  1
  Si  Si0  1  0.15947708  0.00325313  0.24877883  1
  Si  Si1  1  0.65488816  0.01167553  0.24784057  1
  Si  Si2  1  0.34926788  0.70176800  0.24969108  1
  Si  Si3  1  0.99561717  0.30927455  0.25459112  1
  Si  Si4  1  0.49725595  0.30042384  0.24822848  1
  Si  Si5  1  0.15275277  0.29731905  0.74616199  1
  Si  Si6  1  0.65548912  0.31437295  0.74924048  1
  Si  Si7  1  0.99880038  0.69713785  0.74775044  1
  Si  Si8  1  0.49535589  0.68172561  0.75417114  1
  Si  Si9  1  0.84878271  0.99580822  0.74912586  1
  Si  Si10  1  0.48083780  0.32806886  0.57703811  1
  Si  Si11  1  0.18031692  0.02219456  0.57778190  1
  Si  Si12  1  0.68958424  0.02907036  0.57954785  1
  Si  Si13  1  0.48699490  0.63118963  0.07848329  1
  Si  Si14  1  0.98155992  0.63502098  0.07722412  1
  Si  Si15  1  0.18876268  0.34883019  0.07991155  1
  Si  Si16  1  0.68174667  0.33933618  0.07757885  1
  Si  Si17  1  0.81437727  0.67708936  0.91760792  1
  Si  Si18  1  0.01692162  0.35105717  0.91236964  1
  Si  Si19  1  0.52087878  0.36784630  0.91365812  1
  Si  Si20  1  0.16575888  0.96015554  0.91232935  1
  Si  Si21  1  0.66252722  0.94622874  0.91946047  1
  Si  Si22  1  0.31677903  0.95704069  0.41400091  1
  Si  Si23  1  0.16103726  0.37783445  0.42068334  1
  Si  Si24  1  0.66574093  0.37186812  0.41352302  1
  Si  Si25  1  0.02206584  0.67292217  0.41319772  1
  Si  Si26  1  0.51684255  0.68316795  0.41243637  1
  S  S0  1  0.84911586  0.69069579  0.24642013  1
  S  S1  1  0.34893780  0.00647626  0.74530766  1
  S  S2  1  0.98781435  0.35000017  0.58368664  1
  S  S3  1  0.32436282  0.62173810  0.58635668  1
  S  S4  1  0.82698769  0.62411900  0.58066246  1
  S  S5  1  0.32475037  0.02512965  0.07979430  1
  S  S6  1  0.82710617  0.03166743  0.08711324  1
  S  S7  1  0.31371239  0.67821764  0.92062074  1
  S  S8  1  0.81522608  0.94924087  0.42251969  1
  O  O0  1  0.12770962  0.06080938  0.30637006  1
  O  O1  1  0.59937203  0.03968616  0.30453515  1
  O  O2  1  0.41885465  0.81347043  0.30323697  1
  O  O3  1  0.89590390  0.76431926  0.30182618  1
  O  O4  1  0.48743366  0.17991414  0.31037034  1
  O  O5  1  0.96297391  0.19579240  0.31415469  1
  O  O6  1  0.09730285  0.15741695  0.80161871  1
  O  O7  1  0.62470641  0.18911816  0.80515131  1
  O  O8  1  0.46172574  0.72914724  0.81303486  1
  O  O9  1  0.98653118  0.79442534  0.80847546  1
  O  O10  1  0.39678988  0.02693149  0.79991988  1
  O  O11  1  0.91853800  0.02594165  0.80185212  1
  O  O12  1  0.39088903  0.99516323  0.69214769  1
  O  O13  1  0.87522719  0.96768908  0.68548001  1
  O  O14  1  0.09796707  0.23957662  0.68701580  1
  O  O15  1  0.59566309  0.25285935  0.69207825  1
  O  O16  1  0.02237015  0.82383700  0.69519680  1
  O  O17  1  0.52520521  0.81999811  0.70358181  1
  O  O18  1  0.37183067  0.78535185  0.18652779  1
  O  O19  1  0.89194533  0.78975083  0.19416757  1
  O  O20  1  0.02469958  0.22642877  0.20563770  1
  O  O21  1  0.52166302  0.21750154  0.19756998  1
  O  O22  1  0.09421271  0.93408850  0.19430015  1
  O  O23  1  0.59775247  0.95917227  0.19041795  1
  O  O24  1  0.42341628  0.34079318  0.63330613  1
  O  O25  1  0.94193892  0.36039422  0.63680059  1
  O  O26  1  0.24930177  0.13989062  0.63332683  1
  O  O27  1  0.75772370  0.14264052  0.63603001  1
  O  O28  1  0.31926480  0.50883176  0.63775097  1
  O  O29  1  0.82620635  0.51311862  0.62901830  1
  O  O30  1  0.43195916  0.50666096  0.13682126  1
  O  O31  1  0.92571559  0.50785567  0.13425444  1
  O  O32  1  0.32071453  0.13042819  0.12784962  1
  O  O33  1  0.82378698  0.13647949  0.13873312  1
  O  O34  1  0.25604233  0.37548080  0.13646151  1
  O  O35  1  0.75140112  0.35794714  0.13345591  1
  O  O36  1  0.22756728  0.33240481  0.01964656  1
  O  O37  1  0.72074918  0.32201409  0.01701280  1
  O  O38  1  0.44301793  0.55214215  0.01725402  1
  O  O39  1  0.93598910  0.55893361  0.01614254  1
  O  O40  1  0.33274889  0.10166437  0.02133696  1
  O  O41  1  0.83850441  0.12040574  0.03194983  1
  O  O42  1  0.22141774  0.11044172  0.51646656  1
  O  O43  1  0.73207552  0.11958270  0.51948738  1
  O  O44  1  0.33544671  0.55562373  0.53124926  1
  O  O45  1  0.83588810  0.56355732  0.52277493  1
  O  O46  1  0.43596021  0.31320041  0.51564645  1
  O  O47  1  0.94586829  0.34921395  0.52869660  1
  O  O48  1  0.26008520  0.67738728  0.97072972  1
  O  O49  1  0.77053110  0.69614093  0.97975456  1
  O  O50  1  0.08106148  0.46875298  0.97076883  1
  O  O51  1  0.58343684  0.48348833  0.97146732  1
  O  O52  1  0.15491370  0.82516052  0.96905067  1
  O  O53  1  0.66801531  0.83795884  0.97746333  1
  O  O54  1  0.26908786  0.84861778  0.47799950  1
  O  O55  1  0.76168423  0.84459712  0.47354639  1
  O  O56  1  0.16600099  0.49314440  0.48116822  1
  O  O57  1  0.65553921  0.48548516  0.47091870  1
  O  O58  1  0.08585313  0.68474164  0.47160594  1
  O  O59  1  0.58085817  0.69343628  0.47198409  1
  O  O60  1  0.07808736  0.68021009  0.35660283  1
  O  O61  1  0.55737028  0.65929163  0.35463361  1
  O  O62  1  0.25305087  0.82952574  0.36507784  1
  O  O63  1  0.77219379  0.88181905  0.36618431  1
  O  O64  1  0.15266799  0.48320368  0.36468787  1
  O  O65  1  0.68573448  0.47424583  0.35345617  1
  O  O66  1  0.05606763  0.45408780  0.85390540  1
  O  O67  1  0.57838912  0.47637879  0.85710517  1
  O  O68  1  0.18219426  0.89612517  0.85134733  1
  O  O69  1  0.65503988  0.83067228  0.86106990  1
  O  O70  1  0.27408430  0.67045952  0.86335479  1
  O  O71  1  0.75300059  0.67790126  0.86519225  1
  O  O72  1  0.01229041  0.83398189  0.41774757  1
  O  O73  1  0.52144544  0.86631518  0.41324737  1
  O  O74  1  0.40558320  0.95935710  0.40956044  1
  O  O75  1  0.89363133  0.94538720  0.42585027  1
  O  O76  1  0.07687006  0.20059433  0.42656863  1
  O  O77  1  0.57458406  0.19328719  0.41198800  1
  O  O78  1  0.02172333  0.17686280  0.91197728  1
  O  O79  1  0.51310331  0.18831057  0.91815671  1
  O  O80  1  0.07397342  0.95596564  0.91036777  1
  O  O81  1  0.57835883  0.95422448  0.92587813  1
  O  O82  1  0.39392383  0.83512435  0.92567462  1
  O  O83  1  0.90517424  0.85147863  0.90744977  1
  O  O84  1  0.49356609  0.17029798  0.58513935  1
  O  O85  1  0.99327568  0.19760219  0.58607358  1
  O  O86  1  0.09252152  0.01148482  0.58515177  1
  O  O87  1  0.60118293  0.01679094  0.58640282  1
  O  O88  1  0.39107800  0.79251267  0.59628492  1
  O  O89  1  0.89305452  0.79785118  0.58740213  1
  O  O90  1  0.49547922  0.81085067  0.08528528  1
  O  O91  1  0.99426377  0.81795318  0.08519426  1
  O  O92  1  0.39117579  0.98621617  0.08708591  1
  O  O93  1  0.89354214  0.99425868  0.09694809  1
  O  O94  1  0.09942872  0.18699865  0.08830024  1
  O  O95  1  0.59303238  0.18109879  0.08745445  1
  O  O96  1  0.34507344  0.16738815  0.74143155  1
  O  O97  1  0.84718594  0.18002361  0.74512404  1
  O  O98  1  0.24230220  0.29001852  0.73911902  1
  O  O99  1  0.74617779  0.32306664  0.73154182  1
  O  O100  1  0.41310853  0.49553097  0.73377968  1
  O  O101  1  0.91226731  0.51291004  0.73683685  1
  O  O102  1  0.34850340  0.51752316  0.24645197  1
  O  O103  1  0.84653619  0.52399974  0.24200051  1
  O  O104  1  0.41047171  0.30921449  0.24009526  1
  O  O105  1  0.91392258  0.33228894  0.23584872  1
  O  O106  1  0.24693333  0.17418933  0.22973469  1
  O  O107  1  0.74406181  0.19806249  0.24099908  1
  O  O108  1  0.32474088  0.53177991  0.92338673  1
  O  O109  1  0.82488825  0.51716848  0.91132159  1
  O  O110  1  0.43256283  0.36062517  0.91000010  1
  O  O111  1  0.92458776  0.31762788  0.92099976  1
  O  O112  1  0.24085487  0.14776594  0.92127448  1
  O  O113  1  0.74644039  0.12273439  0.91204361  1
  O  O114  1  0.32544844  0.13631772  0.40945805  1
  O  O115  1  0.83198325  0.12217847  0.42693681  1
  O  O116  1  0.24505153  0.37037911  0.41322246  1
  O  O117  1  0.74086163  0.33387677  0.42303055  1
  O  O118  1  0.42487776  0.53099813  0.42112963  1
  O  O119  1  0.93487790  0.49936671  0.41244363  1
  O  O120  1  0.18645555  0.53010326  0.07676032  1
  O  O121  1  0.68914433  0.52765572  0.08071001  1
  O  O122  1  0.07555791  0.64612578  0.07719318  1
  O  O123  1  0.58213555  0.64827097  0.07921784  1
  O  O124  1  0.24103898  0.86301423  0.08122741  1
  O  O125  1  0.74458442  0.87418992  0.08955807  1
  O  O126  1  0.18308438  0.84108782  0.58177496  1
  O  O127  1  0.68649703  0.84223564  0.57894770  1
  O  O128  1  0.24238559  0.61800676  0.58801280  1
  O  O129  1  0.74339267  0.61667460  0.58311795  1
  O  O130  1  0.07410801  0.50001952  0.58483737  1
  O  O131  1  0.57540204  0.50450397  0.57800646  1
  O  O132  1  0.17720754  0.84629171  0.26096603  1
  O  O133  1  0.68497373  0.88018170  0.26044700  1
  O  O134  1  0.25174521  0.64146461  0.26707135  1
  O  O135  1  0.76401251  0.66089585  0.24772171  1
  O  O136  1  0.07580564  0.50367035  0.26033532  1
  O  O137  1  0.57246575  0.49007494  0.25358013  1
  O  O138  1  0.18277628  0.48930031  0.75856389  1
  O  O139  1  0.67480237  0.50610244  0.76015720  1
  O  O140  1  0.07275856  0.65541248  0.75354135  1
  O  O141  1  0.57494834  0.64694529  0.76047209  1
  O  O142  1  0.26381728  0.86515600  0.74697607  1
  O  O143  1  0.75141544  0.85854339  0.76399284  1
loop_
_geom_bond_atom_site_label_1
_geom_bond_atom_site_label_2
_geom_bond_distance
_geom_bond_site_symmetry_2
Na0 O133 2.256159 1_545
Na0 O5 2.578263 1_555
Na0 O105 2.641101 1_555
Na0 O63 2.657074 1_545
Na0 O107 2.834909 1_555
Na0 O135 2.887418 1_545
Na0 O33 2.967811 1_555
Na1 O134 2.491147 1_555
Na1 O20 2.531706 1_555
Na1 O0 2.616986 1_555
Na1 O106 2.627391 1_555
Na1 O136 2.842719 1_555
Na1 O102 2.913994 1_555
Na1 O34 2.974503 1_555
Na1 O64 3.010418 1_555
Na2 O65 2.507647 1_555
Na2 O21 2.522298 1_555
Na2 O137 2.551742 1_555
Na2 O107 2.590579 1_555
Na2 O135 2.599105 1_555
Na2 O1 2.744547 1_555
Na3 O136 2.377534 1_555
Na3 O22 2.430100 1_555
Na3 O103 2.681381 1_455
Na3 O132 2.693557 1_555
Na3 O105 2.711957 1_455
Na3 O60 2.831234 1_555
Na3 O31 2.889110 1_455
Na4 O137 2.323411 1_555
Na4 O61 2.378306 1_555
Na4 O23 2.862619 1_555
Na5 O138 2.282698 1_555
Na5 O8 2.508820 1_555
Na5 O70 2.516667 1_555
Na5 O100 2.660448 1_555
Na5 O98 2.841847 1_555
Na5 O142 2.895877 1_555
Na6 O66 2.262611 1_555
Na6 O140 2.345631 1_555
Na6 O138 2.806598 1_555
Na7 O141 2.338853 1_555
Na7 O15 2.587677 1_555
Na7 O96 2.670691 1_555
Na7 O139 2.680586 1_555
Na7 O100 2.685270 1_555
Na7 O67 2.755877 1_555
Na7 O24 2.987261 1_555
Na7 O10 2.988145 1_555
Na8 O68 2.324442 1_555
Na8 O140 2.578430 1_555
Na8 O98 2.580277 1_565
Na8 O142 2.606550 1_555
Na8 O16 2.641151 1_555
Na8 O6 2.690192 1_565
Na9 O143 2.487865 1_555
Na9 O17 2.529834 1_555
Na9 O7 2.561670 1_565
Na9 O69 2.738449 1_555
Na9 O141 2.744378 1_555
Na9 O99 2.765737 1_565
Na10 O14 2.314573 1_555
Na10 O86 2.392954 1_555
Na10 O85 2.459882 1_455
Na10 O128 2.561908 1_555
Na10 O130 2.720143 1_555
Na10 O56 2.937289 1_555
Na11 O15 2.374660 1_555
Na11 O84 2.393529 1_555
Na11 O87 2.427353 1_555
Na11 O129 2.538490 1_555
Na11 O131 2.688173 1_555
Na12 O84 2.434710 1_555
Na12 O88 2.539602 1_545
Na12 O126 2.579507 1_545
Na12 O54 2.691059 1_545
Na12 O12 2.698038 1_545
Na13 O13 2.204026 1_555
Na13 O89 2.390187 1_555
Na13 O127 2.405560 1_555
Na13 O85 2.646199 1_565
Na13 O27 2.762193 1_565
Na13 O129 2.886272 1_555
Na13 O55 3.014383 1_555
Na14 O22 2.425685 1_555
Na14 O91 2.432102 1_455
Na14 O94 2.452604 1_565
Na14 O124 2.546069 1_555
Na14 O122 2.736345 1_555
Na14 O32 2.953209 1_565
Na15 O90 2.302918 1_555
Na15 O23 2.364674 1_555
Na15 O95 2.439647 1_565
Na15 O125 2.595115 1_555
Na15 O123 2.693605 1_555
Na16 O18 2.262163 1_555
Na16 O92 2.422540 1_555
Na16 O90 2.441076 1_555
Na16 O120 2.586623 1_555
Na16 O34 2.754644 1_555
Na17 O121 2.461229 1_555
Na17 O91 2.486854 1_555
Na17 O49 2.518578 1_554
Na17 O93 2.550824 1_555
Na17 O19 2.872207 1_555
Na18 O38 2.335315 1_556
Na18 O81 2.409299 1_555
Na18 O108 2.494965 1_555
Na18 O110 2.501235 1_555
Na18 O8 2.595973 1_555
Na18 O82 2.769575 1_555
Na19 O39 2.275996 1_556
Na19 O109 2.461482 1_555
Na19 O80 2.550685 1_655
Na19 O111 2.692138 1_555
Na19 O83 2.850516 1_555
Na19 O9 2.870440 1_555
Na20 O40 2.465016 1_556
Na20 O110 2.474195 1_555
Na20 O82 2.505795 1_545
Na20 O79 2.577577 1_555
Na20 O112 2.651213 1_555
Na20 O10 2.819071 1_555
Na21 O111 2.275416 1_555
Na21 O113 2.388942 1_555
Na21 O83 2.453445 1_545
Na21 O41 2.738434 1_556
Na21 O78 2.832994 1_655
Na21 O11 2.954182 1_555
Na22 O36 2.246931 1_556
Na22 O112 2.318983 1_555
Na22 O78 2.429327 1_555
Na22 O108 2.632912 1_555
Na22 O80 2.743378 1_545
Na23 O37 2.374011 1_556
Na23 O113 2.526141 1_555
Na23 O79 2.558720 1_555
Na23 O81 2.609231 1_545
Na23 O109 2.661306 1_555
Na23 O7 2.697147 1_555
Na24 O46 2.309530 1_555
Na24 O114 2.458935 1_555
Na24 O77 2.561442 1_555
Na24 O118 2.663536 1_555
Na24 O4 2.804991 1_555
Na24 O74 2.863336 1_545
Na25 O5 2.255881 1_555
Na25 O119 2.413341 1_555
Na25 O76 2.414661 1_655
Na25 O115 2.489366 1_555
Na26 O42 2.471247 1_555
Na26 O116 2.489918 1_555
Na26 O0 2.540066 1_555
Na26 O114 2.603881 1_555
Na26 O72 2.636432 1_545
Na26 O76 2.664078 1_555
Na27 O43 2.318963 1_555
Na27 O117 2.318997 1_555
Na27 O73 2.418673 1_545
Na27 O77 2.736484 1_555
Na27 O115 2.748931 1_555
Na28 O118 2.264089 1_555
Na28 O116 2.386664 1_555
Na28 O74 2.459233 1_555
Na28 O73 2.808246 1_555
Na28 O2 2.809613 1_555
Na28 O44 2.842119 1_555
Na29 O75 2.451844 1_555
Na29 O119 2.584855 1_555
Na29 O45 2.606887 1_555
Na29 O72 2.608240 1_655
Na29 O117 2.640234 1_555
Na29 O3 2.668197 1_555
Na29 O65 2.974854 1_555
Na30 O72 2.294206 1_555
Na30 O86 2.333967 1_565
Na30 O76 2.363265 1_565
Na30 O75 2.707910 1_455
Na30 O89 2.917699 1_455
Na30 O85 2.976502 1_465
Na31 O87 2.451734 1_555
Na31 O84 2.495180 1_555
Na31 O73 2.510308 1_545
Na31 O77 2.593966 1_555
Na31 O74 2.800287 1_545
Na31 O88 2.977032 1_545
Na32 O94 2.403650 1_555
Na32 O91 2.457002 1_445
Na32 O78 2.574634 1_554
Na32 O80 2.684573 1_544
Na32 O83 2.915090 1_444
Na32 O93 2.924717 1_445
Na33 O95 2.358109 1_555
Na33 O81 2.407930 1_544
Na33 O79 2.502071 1_554
Na33 O90 2.572012 1_545
Na33 O82 2.727256 1_544
Na33 O92 2.846877 1_545
Na34 O110 2.325515 1_555
Na34 O112 2.456913 1_555
Na34 O108 2.670749 1_555
Na34 O98 2.775557 1_555
Na34 O96 2.824281 1_555
Na34 O100 2.897377 1_555
Na35 O109 2.321414 1_555
Na35 O113 2.375267 1_555
Na35 O111 2.524692 1_555
Na35 O97 2.763454 1_555
Na35 O101 2.899134 1_555
Na35 O99 2.958095 1_555
Na36 O114 2.347466 1_555
Na36 O116 2.540046 1_555
Na36 O102 2.644286 1_555
Na36 O118 2.666428 1_555
Na36 O104 2.686263 1_555
Na36 O106 2.825535 1_555
Na37 O119 2.437354 1_555
Na37 O117 2.582402 1_555
Na37 O107 2.633919 1_555
Na37 O103 2.696633 1_555
Na37 O105 2.759693 1_555
Na37 O115 2.840739 1_555
Na38 O124 2.528851 1_555
Na38 O120 2.543758 1_555
Na38 O132 2.620663 1_555
Na38 O122 2.675352 1_555
Na38 O136 2.688277 1_555
Na38 O134 2.753930 1_555
Na39 O137 2.338859 1_555
Na39 O123 2.357540 1_555
Na39 O121 2.552175 1_555
Na39 O125 2.743048 1_555
Na39 O135 2.772029 1_555
Na39 O133 2.893986 1_555
Na40 O140 2.304370 1_555
Na40 O130 2.446127 1_555
Na40 O126 2.577060 1_555
Na40 O142 2.646836 1_555
Na40 O138 2.718331 1_555
Na40 O128 2.737567 1_555
Na41 O139 2.549866 1_555
Na41 O127 2.560402 1_555
Na41 O141 2.583975 1_555
Na41 O129 2.643556 1_555
Na41 O143 2.665653 1_555
Na41 O131 2.675383 1_555
Ca0 O0 2.259471 1_555
Ca0 O76 2.329665 1_555
Ca0 O72 2.340905 1_545
Ca0 O5 2.340924 1_455
Ca0 O3 2.479702 1_445
Ca0 O75 2.582318 1_445
Ca1 O7 2.280466 1_565
Ca1 O81 2.283972 1_555
Ca1 O79 2.314764 1_565
Ca1 O8 2.340472 1_555
Ca1 O10 2.504269 1_565
Ca1 O82 2.521254 1_555
Ca2 O16 2.087425 1_655
Ca2 O14 2.228672 1_665
Ca2 O13 2.280976 1_555
Ca2 O86 2.302438 1_665
Ca2 O89 2.415397 1_555
Ca2 O85 2.459102 1_565
Ca3 O17 2.163051 1_555
Ca3 O87 2.222441 1_565
Ca3 O15 2.266222 1_565
Ca3 O84 2.326883 1_565
Ca3 O12 2.363914 1_555
Ca3 O88 2.437261 1_555
Ca4 O20 2.169147 1_555
Ca4 O94 2.200141 1_555
Ca4 O22 2.265559 1_545
Ca4 O91 2.323706 1_445
Ca4 O19 2.342536 1_445
Ca4 O93 2.425298 1_445
Ca5 O21 2.125122 1_565
Ca5 O23 2.246200 1_555
Ca5 O95 2.289925 1_565
Ca5 O90 2.297893 1_555
Ca5 O18 2.303710 1_555
Ca5 O92 2.417828 1_555
Ca6 O38 2.130133 1_556
Ca6 O36 2.164561 1_556
Ca6 O40 2.265644 1_556
Ca6 O112 2.281371 1_555
Ca6 O110 2.404351 1_555
Ca6 O108 2.421468 1_555
Ca7 O37 2.162213 1_556
Ca7 O39 2.193443 1_556
Ca7 O111 2.274559 1_555
Ca7 O41 2.338546 1_556
Ca7 O113 2.367402 1_555
Ca7 O109 2.382795 1_555
Ca8 O42 2.190375 1_555
Ca8 O46 2.200347 1_555
Ca8 O118 2.261064 1_555
Ca8 O116 2.351181 1_555
Ca8 O44 2.360173 1_555
Ca8 O114 2.377363 1_555
Ca9 O43 2.146911 1_555
Ca9 O117 2.208537 1_555
Ca9 O47 2.251583 1_555
Ca9 O45 2.263148 1_555
Ca9 O119 2.343583 1_555
Ca9 O115 2.370623 1_555
Ca10 O61 2.139144 1_555
Ca10 O65 2.168046 1_555
Ca10 O137 2.207637 1_555
Ca10 O133 2.240675 1_555
Ca10 O63 2.289762 1_555
Ca10 O135 2.454739 1_555
Ca11 O66 2.132286 1_555
Ca11 O68 2.160789 1_555
Ca11 O140 2.212100 1_555
Ca11 O70 2.256381 1_555
Ca11 O138 2.263356 1_555
Ca11 O142 2.473458 1_555
O0 Si0 1.629836 1_555
O1 Si1 1.748914 1_555
O1 Ta0 1.978580 1_555
O2 Si2 1.694090 1_555
O2 Ta0 2.024176 1_565
O3 S0 1.481524 1_555
O4 Si4 1.748188 1_555
O4 Ta0 1.933680 1_555
O5 Si3 1.629777 1_555
O6 Si5 1.729396 1_555
O6 Ta1 2.016816 1_545
O7 Si6 1.617502 1_555
O8 Si8 1.625304 1_555
O9 Si7 1.723336 1_555
O9 Ta1 1.956511 1_655
O10 S1 1.475624 1_555
O11 Si9 1.676915 1_545
O11 Ta1 2.045699 1_645
O12 S1 1.467718 1_565
O13 Si9 1.586068 1_555
O14 Si5 1.600360 1_555
O15 Si6 1.610105 1_555
O16 Si7 1.573416 1_455
O17 Si8 1.598983 1_555
O18 Si2 1.579050 1_555
O19 S0 1.465563 1_555
O20 Si3 1.592943 1_455
O21 Si4 1.572039 1_555
O22 Si0 1.617711 1_565
O23 Si1 1.589856 1_565
O24 Si10 1.706249 1_555
O24 Ta2 1.964167 1_555
O25 S2 1.506787 1_555
O25 Ta3 2.241389 1_555
O26 Si11 1.735399 1_555
O26 Ta2 1.945818 1_555
O27 Si12 1.734439 1_555
O27 Ta3 1.988261 1_555
O28 S3 1.536293 1_555
O28 Ta2 2.110549 1_555
O29 S4 1.498022 1_555
O29 Ta3 2.291609 1_555
O30 Si13 1.716892 1_555
O30 Ta4 1.954645 1_555
O31 Si14 1.707677 1_555
O31 Ta5 1.956706 1_555
O32 S5 1.491419 1_555
O32 Ta4 2.360987 1_555
O33 S6 1.543363 1_555
O33 Ta5 2.068305 1_555
O34 Si15 1.715792 1_555
O34 Ta4 2.006903 1_555
O35 Si16 1.752749 1_555
O35 Ta5 1.917119 1_555
O36 Si15 1.587115 1_555
O37 Si16 1.597568 1_555
O38 Si13 1.587446 1_555
O39 Si14 1.587953 1_555
O40 S5 1.472319 1_555
O41 S6 1.450883 1_555
O42 Si11 1.598558 1_555
O43 Si12 1.585889 1_555
O44 S3 1.450661 1_555
O45 S4 1.467930 1_555
O46 Si10 1.587464 1_555
O47 S2 1.463826 1_555
O48 S7 1.509930 1_555
O48 Ta6 2.186468 1_556
O49 Si17 1.680700 1_555
O49 Ta7 2.074953 1_556
O50 Si18 1.747446 1_555
O50 Ta6 1.877207 1_556
O51 Si19 1.721150 1_555
O51 Ta7 1.856651 1_556
O52 Si20 1.733882 1_555
O52 Ta6 1.973635 1_556
O53 Si21 1.686160 1_555
O53 Ta7 1.929242 1_556
O54 Si22 1.733933 1_555
O54 Ta8 1.917250 1_555
O55 S8 1.518230 1_555
O55 Ta9 2.186903 1_555
O56 Si23 1.713116 1_555
O56 Ta8 1.922250 1_555
O57 Si24 1.745092 1_555
O57 Ta9 1.961405 1_555
O58 Si25 1.739225 1_555
O58 Ta8 1.855398 1_555
O59 Si26 1.765555 1_555
O59 Ta9 1.862448 1_555
O60 Si25 1.633103 1_555
O60 Ta10 1.971089 1_555
O61 Si26 1.581593 1_555
O62 Si22 1.620363 1_555
O62 Ta10 1.930583 1_555
O63 S8 1.466208 1_555
O64 Si23 1.654120 1_555
O64 Ta10 1.968880 1_555
O65 Si24 1.591942 1_555
O66 Si18 1.581151 1_555
O67 Si19 1.650289 1_555
O67 Ta11 1.948806 1_555
O68 Si20 1.592841 1_555
O69 Si21 1.664942 1_555
O69 Ta11 1.948316 1_555
O70 S7 1.471622 1_555
O71 Si17 1.646012 1_555
O71 Ta11 1.902606 1_555
O72 Si25 1.601851 1_555
O73 Si26 1.663967 1_555
O73 Ta0 2.119731 1_565
O74 Si22 1.646302 1_555
O74 Ta0 2.109232 1_565
O75 S8 1.479902 1_555
O76 Si23 1.615107 1_555
O77 Si24 1.679657 1_555
O77 Ta0 2.078213 1_555
O78 Si18 1.668322 1_555
O78 Ta1 2.100388 1_545
O79 Si19 1.606972 1_555
O80 Si20 1.690349 1_555
O80 Ta1 2.046686 1_555
O81 Si21 1.612846 1_555
O82 S7 1.480883 1_555
O83 Si17 1.673501 1_555
O83 Ta1 2.052883 1_655
O84 Si10 1.610740 1_555
O85 S2 1.473235 1_555
O86 Si11 1.596523 1_555
O87 Si12 1.599988 1_555
O88 S3 1.464065 1_555
O89 S4 1.469814 1_555
O90 Si13 1.606997 1_555
O91 Si14 1.608206 1_555
O92 S5 1.461266 1_565
O93 S6 1.459543 1_565
O94 Si15 1.601646 1_555
O95 Si16 1.585602 1_555
O96 S1 1.537698 1_555
O96 Ta2 2.078300 1_555
O97 Si9 1.732311 1_545
O97 Ta3 1.935384 1_555
O98 Si5 1.710464 1_555
O98 Ta2 2.015476 1_555
O99 Si6 1.698778 1_555
O99 Ta3 1.864077 1_555
O100 Si8 1.703839 1_555
O100 Ta2 1.966106 1_555
O101 Si7 1.682564 1_555
O101 Ta3 1.941393 1_555
O102 Si2 1.709909 1_555
O102 Ta4 1.964556 1_555
O103 S0 1.531865 1_555
O103 Ta5 2.102215 1_555
O104 Si4 1.667998 1_555
O104 Ta4 1.983150 1_555
O105 Si3 1.691473 1_555
O105 Ta5 1.991063 1_555
O106 Si0 1.666713 1_555
O106 Ta4 1.959472 1_555
O107 Si1 1.705459 1_555
O107 Ta5 2.039066 1_555
O108 S7 1.478047 1_555
O109 Si17 1.602424 1_555
O110 Si19 1.613741 1_555
O111 Si18 1.599172 1_655
O112 Si20 1.612834 1_545
O113 Si21 1.612557 1_545
O114 Si22 1.597548 1_545
O115 S8 1.482210 1_545
O116 Si23 1.609694 1_555
O117 Si24 1.618922 1_555
O118 Si26 1.597132 1_555
O119 Si25 1.618850 1_655
O120 Si15 1.710903 1_555
O120 Ta6 2.004545 1_555
O121 Si16 1.690090 1_555
O121 Ta7 2.022644 1_555
O122 Si14 1.700914 1_455
O122 Ta6 1.933732 1_555
O123 Si13 1.697599 1_555
O123 Ta7 1.985521 1_555
O124 S5 1.534199 1_565
O124 Ta6 2.320727 1_555
O125 S6 1.502912 1_565
O125 Ta7 2.447314 1_555
O126 Si11 1.714682 1_565
O126 Ta8 2.004938 1_555
O127 Si12 1.711439 1_565
O127 Ta9 2.028219 1_555
O128 S3 1.509970 1_555
O128 Ta8 2.382792 1_555
O129 S4 1.524282 1_555
O129 Ta9 2.391490 1_555
O130 S2 1.512123 1_455
O130 Ta8 2.341167 1_555
O131 Si10 1.703993 1_555
O131 Ta9 1.934142 1_555
O132 Si0 1.673704 1_565
O132 Ta10 1.977704 1_555
O133 Si1 1.605613 1_565
O134 Si2 1.658500 1_555
O134 Ta10 2.018737 1_555
O135 S0 1.466020 1_555
O136 Si3 1.678107 1_455
O136 Ta10 2.025753 1_555
O137 Si4 1.617902 1_555
O138 Si5 1.608100 1_555
O139 Si6 1.653673 1_555
O139 Ta11 2.011031 1_555
O140 Si7 1.612056 1_455
O141 Si8 1.673460 1_555
O141 Ta11 2.056789 1_555
O142 S1 1.468780 1_565
O143 Si9 1.648152 1_555
O143 Ta11 2.059991 1_555
