# generated using pymatgen
data_Bi7RhBr8
_symmetry_space_group_name_H-M   'P 1'
_cell_length_a   15.43339600
_cell_length_b   9.49126700
_cell_length_c   18.93311829
_cell_angle_alpha   62.09443728
_cell_angle_beta   90.00000000
_cell_angle_gamma   90.00000000
_symmetry_Int_Tables_number   1
_chemical_formula_structural   Bi7RhBr8
_chemical_formula_sum   'Bi28 Rh4 Br32'
_cell_volume   2450.88322225
_cell_formula_units_Z   4
loop_
 _symmetry_equiv_pos_site_id
 _symmetry_equiv_pos_as_xyz
  1  'x, y, z'
loop_
 _atom_site_type_symbol
 _atom_site_label
 _atom_site_symmetry_multiplicity
 _atom_site_fract_x
 _atom_site_fract_y
 _atom_site_fract_z
 _atom_site_occupancy
  Bi  Bi0  1  0.93754800  0.68640000  0.36112800  1
  Bi  Bi1  1  0.28604700  0.62933400  0.15247200  1
  Bi  Bi2  1  0.21395300  0.62933400  0.65247200  1
  Bi  Bi3  1  0.71395300  0.37066600  0.84752800  1
  Bi  Bi4  1  0.73647700  0.96185700  0.32898500  1
  Bi  Bi5  1  0.23647700  0.03814300  0.17101500  1
  Bi  Bi6  1  0.26352300  0.03814300  0.67101500  1
  Bi  Bi7  1  0.76352300  0.96185700  0.82898500  1
  Bi  Bi8  1  0.79498000  0.54601300  0.49904800  1
  Bi  Bi9  1  0.29498000  0.45398700  0.00095200  1
  Bi  Bi10  1  0.20502000  0.45398700  0.50095200  1
  Bi  Bi11  1  0.70502000  0.54601300  0.99904800  1
  Bi  Bi12  1  0.78604700  0.37066600  0.34752800  1
  Bi  Bi13  1  0.43754800  0.31360000  0.13887200  1
  Bi  Bi14  1  0.06245200  0.31360000  0.63887200  1
  Bi  Bi15  1  0.56245200  0.68640000  0.86112800  1
  Bi  Bi16  1  0.84076600  0.80234400  0.19093200  1
  Bi  Bi17  1  0.34076600  0.19765600  0.30906800  1
  Bi  Bi18  1  0.15923400  0.19765600  0.80906800  1
  Bi  Bi19  1  0.65923400  0.80234400  0.69093200  1
  Bi  Bi20  1  0.63970000  0.73570600  0.22224200  1
  Bi  Bi21  1  0.13970000  0.26429400  0.27775800  1
  Bi  Bi22  1  0.36030000  0.26429400  0.77775800  1
  Bi  Bi23  1  0.86030000  0.73570600  0.72224200  1
  Bi  Bi24  1  0.60957900  0.56521000  0.41775400  1
  Bi  Bi25  1  0.10957900  0.43479000  0.08224600  1
  Bi  Bi26  1  0.39042100  0.43479000  0.58224600  1
  Bi  Bi27  1  0.89042100  0.56521000  0.91775400  1
  Rh  Rh0  1  0.76338400  0.66614100  0.33848500  1
  Rh  Rh1  1  0.26338400  0.33385900  0.16151500  1
  Rh  Rh2  1  0.23661600  0.33385900  0.66151500  1
  Rh  Rh3  1  0.73661600  0.66614100  0.83848500  1
  Br  Br0  1  0.94747800  0.32394600  0.43602800  1
  Br  Br1  1  0.44747800  0.67605400  0.06397200  1
  Br  Br2  1  0.05252200  0.67605400  0.56397200  1
  Br  Br3  1  0.55252200  0.32394600  0.93602800  1
  Br  Br4  1  0.88919200  0.52110400  0.18789900  1
  Br  Br5  1  0.38919200  0.47889600  0.31210100  1
  Br  Br6  1  0.11080800  0.47889600  0.81210100  1
  Br  Br7  1  0.61080800  0.52110400  0.68789900  1
  Br  Br8  1  0.63874000  0.42648700  0.23180400  1
  Br  Br9  1  0.13874000  0.57351300  0.26819600  1
  Br  Br10  1  0.36126000  0.57351300  0.76819600  1
  Br  Br11  1  0.86126000  0.42648700  0.73180400  1
  Br  Br12  1  0.65887300  0.22253500  0.47091000  1
  Br  Br13  1  0.15887300  0.77746500  0.02909000  1
  Br  Br14  1  0.34112700  0.77746500  0.52909000  1
  Br  Br15  1  0.93965900  0.88018300  0.89486900  1
  Br  Br16  1  0.78423000  0.83043300  0.50776500  1
  Br  Br17  1  0.28423000  0.16956700  0.99223500  1
  Br  Br18  1  0.21577000  0.16956700  0.49223500  1
  Br  Br19  1  0.71577000  0.83043300  0.00776500  1
  Br  Br20  1  0.92505200  0.03035600  0.30615900  1
  Br  Br21  1  0.42505200  0.96964400  0.19384100  1
  Br  Br22  1  0.07494800  0.96964400  0.69384100  1
  Br  Br23  1  0.57494800  0.03035600  0.80615900  1
  Br  Br24  1  0.68562500  0.09676100  0.16400500  1
  Br  Br25  1  0.18562500  0.90323900  0.33599500  1
  Br  Br26  1  0.31437500  0.90323900  0.83599500  1
  Br  Br27  1  0.81437500  0.09676100  0.66400500  1
  Br  Br28  1  0.56034100  0.88018300  0.39486900  1
  Br  Br29  1  0.06034100  0.11981700  0.10513100  1
  Br  Br30  1  0.43965900  0.11981700  0.60513100  1
  Br  Br31  1  0.84112700  0.22253500  0.97091000  1
loop_
_geom_bond_atom_site_label_1
_geom_bond_atom_site_label_2
_geom_bond_distance
_geom_bond_site_symmetry_2
Bi0 Rh0 2.742800 1_555
Bi0 Br20 2.932162 1_565
Bi0 Br0 3.050035 1_555
Bi1 Rh1 2.750828 1_555
Bi1 Br13 2.865607 1_555
Bi1 Br1 2.918209 1_555
Bi1 Br9 3.027085 1_555
Bi1 Br5 3.109287 1_555
Bi2 Rh2 2.750828 1_555
Bi2 Br14 2.865607 1_555
Bi2 Br2 2.918209 1_555
Bi2 Br10 3.027085 1_555
Bi2 Br6 3.109287 1_555
Bi3 Rh3 2.750828 1_555
Bi3 Br31 2.865607 1_555
Bi3 Br3 2.918209 1_555
Bi3 Br11 3.027085 1_555
Bi3 Br7 3.109287 1_555
Bi4 Rh0 2.758611 1_555
Bi4 Br24 2.875509 1_565
Bi4 Br28 2.939620 1_555
Bi4 Br20 2.969278 1_565
Bi4 Br16 3.099079 1_555
Bi5 Rh1 2.758611 1_555
Bi5 Br25 2.875509 1_545
Bi5 Br29 2.939620 1_555
Bi5 Br21 2.969278 1_545
Bi5 Br17 3.099079 1_554
Bi6 Rh2 2.758611 1_555
Bi6 Br26 2.875509 1_545
Bi6 Br30 2.939620 1_555
Bi6 Br22 2.969278 1_545
Bi6 Br18 3.099079 1_555
Bi7 Rh3 2.758611 1_555
Bi7 Br27 2.875509 1_565
Bi7 Br15 2.939620 1_555
Bi7 Br23 2.969278 1_565
Bi7 Br19 3.099079 1_556
Bi8 Rh0 2.744954 1_555
Bi8 Br16 2.785520 1_555
Bi9 Rh1 2.744954 1_555
Bi9 Br17 2.785520 1_554
Bi10 Rh2 2.744954 1_555
Bi10 Br18 2.785520 1_555
Bi11 Rh3 2.744954 1_555
Bi11 Br19 2.785520 1_556
Bi12 Rh0 2.750828 1_555
Bi12 Br12 2.865607 1_555
Bi12 Br0 2.918209 1_555
Bi12 Br8 3.027085 1_555
Bi12 Br4 3.109287 1_555
Bi13 Rh1 2.742800 1_555
Bi13 Br21 2.932162 1_545
Bi13 Br1 3.050035 1_555
Bi14 Rh2 2.742800 1_555
Bi14 Br22 2.932162 1_545
Bi14 Br2 3.050035 1_555
Bi15 Rh3 2.742800 1_555
Bi15 Br23 2.932162 1_565
Bi15 Br3 3.050035 1_555
Bi16 Rh0 2.742524 1_555
Bi16 Br4 2.798328 1_555
Bi17 Rh1 2.742524 1_555
Bi17 Br5 2.798328 1_555
Bi18 Rh2 2.742524 1_555
Bi18 Br6 2.798328 1_555
Bi19 Rh3 2.742524 1_555
Bi19 Br7 2.798328 1_555
Bi20 Rh0 2.750135 1_555
Bi20 Br8 2.854676 1_555
Bi20 Br24 3.150358 1_565
Bi21 Rh1 2.750135 1_555
Bi21 Br9 2.854676 1_555
Bi21 Br25 3.150358 1_545
Bi22 Rh2 2.750135 1_555
Bi22 Br10 2.854676 1_555
Bi22 Br26 3.150358 1_545
Bi23 Rh3 2.750135 1_555
Bi23 Br11 2.854676 1_555
Bi23 Br27 3.150358 1_565
Bi24 Rh0 2.731114 1_555
Bi24 Br28 2.913730 1_555
Bi24 Br12 3.017614 1_555
Bi25 Rh1 2.731114 1_555
Bi25 Br29 2.913730 1_555
Bi25 Br13 3.017614 1_555
Bi26 Rh2 2.731114 1_555
Bi26 Br30 2.913730 1_555
Bi26 Br14 3.017614 1_555
Bi27 Rh3 2.731114 1_555
Bi27 Br15 2.913730 1_555
Bi27 Br31 3.017614 1_555
