# generated using pymatgen
data_Na3AuO2
_symmetry_space_group_name_H-M   'P 1'
_cell_length_a   9.63584962
_cell_length_b   9.63584962
_cell_length_c   4.54762802
_cell_angle_alpha   90.00000000
_cell_angle_beta   90.00000000
_cell_angle_gamma   90.00000000
_symmetry_Int_Tables_number   1
_chemical_formula_structural   Na3AuO2
_chemical_formula_sum   'Na12 Au4 O8'
_cell_volume   422.24543305
_cell_formula_units_Z   4
loop_
 _symmetry_equiv_pos_site_id
 _symmetry_equiv_pos_as_xyz
  1  'x, y, z'
loop_
 _atom_site_type_symbol
 _atom_site_label
 _atom_site_symmetry_multiplicity
 _atom_site_fract_x
 _atom_site_fract_y
 _atom_site_fract_z
 _atom_site_occupancy
  Na  Na0  1  0.65873822  0.65873822  0.50000000  1
  Na  Na1  1  0.15134181  0.51239151  0.00000000  1
  Na  Na2  1  0.98760849  0.65134181  0.50000000  1
  Na  Na3  1  0.84865819  0.48760849  0.00000000  1
  Na  Na4  1  0.34865819  0.01239151  0.50000000  1
  Na  Na5  1  0.65134181  0.98760849  0.50000000  1
  Na  Na6  1  0.51239151  0.15134181  -0.00000000  1
  Na  Na7  1  0.48760849  0.84865819  -0.00000000  1
  Na  Na8  1  0.84126178  0.15873822  -0.00000000  1
  Na  Na9  1  0.34126178  0.34126178  0.50000000  1
  Na  Na10  1  0.01239151  0.34865819  0.50000000  1
  Na  Na11  1  0.15873822  0.84126178  -0.00000000  1
  Au  Au0  1  0.83330920  0.83330920  0.00000000  1
  Au  Au1  1  0.33330920  0.66669080  0.50000000  1
  Au  Au2  1  0.66669080  0.33330920  0.50000000  1
  Au  Au3  1  0.16669080  0.16669080  0.00000000  1
  O  O0  1  0.31034163  0.01577278  0.00000000  1
  O  O1  1  0.68965837  0.98422722  0.00000000  1
  O  O2  1  0.48422722  0.81034163  0.50000000  1
  O  O3  1  0.51577278  0.18965837  0.50000000  1
  O  O4  1  0.18965837  0.51577278  0.50000000  1
  O  O5  1  0.98422722  0.68965837  0.00000000  1
  O  O6  1  0.01577278  0.31034163  0.00000000  1
  O  O7  1  0.81034163  0.48422722  0.50000000  1
loop_
_geom_bond_atom_site_label_1
_geom_bond_atom_site_label_2
_geom_bond_distance
_geom_bond_site_symmetry_2
Na0 O2 2.227480 1_555
Na0 O7 2.227480 1_555
Na1 O4 2.303825 1_554
Na1 O4 2.303825 1_555
Na1 O6 2.344565 1_555
Na1 O5 2.347488 1_455
Na2 O5 2.303825 1_556
Na2 O5 2.303825 1_555
Na2 O4 2.344565 1_655
Na2 O7 2.347488 1_555
Na3 O7 2.303825 1_554
Na3 O7 2.303825 1_555
Na3 O5 2.344565 1_555
Na3 O6 2.347488 1_655
Na4 O0 2.303825 1_556
Na4 O0 2.303825 1_555
Na4 O2 2.344565 1_545
Na4 O3 2.347488 1_555
Na5 O1 2.303825 1_555
Na5 O1 2.303825 1_556
Na5 O3 2.344565 1_565
Na5 O2 2.347488 1_555
Na6 O3 2.303825 1_555
Na6 O3 2.303825 1_554
Na6 O0 2.344565 1_555
Na6 O1 2.347488 1_545
Na7 O2 2.303825 1_554
Na7 O2 2.303825 1_555
Na7 O1 2.344565 1_555
Na7 O0 2.347488 1_565
Na8 O6 2.227480 1_655
Na8 O1 2.227480 1_545
Na9 O4 2.227480 1_555
Na9 O3 2.227480 1_555
Na10 O6 2.303825 1_556
Na10 O6 2.303825 1_555
Na10 O7 2.344565 1_455
Na10 O4 2.347488 1_555
Na11 O0 2.227480 1_565
Na11 O5 2.227480 1_455
Au0 O1 2.007678 1_555
Au0 O5 2.007678 1_555
Au1 O4 2.007678 1_555
Au1 O2 2.007678 1_555
Au2 O3 2.007678 1_555
Au2 O7 2.007678 1_555
Au3 O0 2.007678 1_555
Au3 O6 2.007678 1_555
