# generated using pymatgen
data_Na14Ga4Si9Sn4(SO16)3
_symmetry_space_group_name_H-M   'P 1'
_cell_length_a   18.06133868
_cell_length_b   9.03658236
_cell_length_c   22.09475081
_cell_angle_alpha   90.20133759
_cell_angle_beta   90.03735103
_cell_angle_gamma   120.08438223
_symmetry_Int_Tables_number   1
_chemical_formula_structural   Na14Ga4Si9Sn4(SO16)3
_chemical_formula_sum   'Na42 Ga12 Si27 Sn12 S9 O144'
_cell_volume   3120.32342504
_cell_formula_units_Z   3
loop_
 _symmetry_equiv_pos_site_id
 _symmetry_equiv_pos_as_xyz
  1  'x, y, z'
loop_
 _atom_site_type_symbol
 _atom_site_label
 _atom_site_symmetry_multiplicity
 _atom_site_fract_x
 _atom_site_fract_y
 _atom_site_fract_z
 _atom_site_occupancy
  Na  Na0  1  0.81859844  0.01003779  0.25456971  1
  Na  Na1  1  0.17556189  0.35751628  0.25360546  1
  Na  Na2  1  0.69165152  0.37212673  0.25621310  1
  Na  Na3  1  0.99704816  0.62933277  0.24526567  1
  Na  Na4  1  0.50594883  0.64707003  0.25269418  1
  Na  Na5  1  0.31721734  0.62568960  0.74981241  1
  Na  Na6  1  0.00384260  0.36253909  0.74408111  1
  Na  Na7  1  0.49931680  0.36719644  0.74033704  1
  Na  Na8  1  0.19028106  0.01067661  0.75062729  1
  Na  Na9  1  0.67884068  0.99402480  0.74698697  1
  Na  Na10  1  0.14678770  0.32563341  0.58107921  1
  Na  Na11  1  0.65159783  0.33459521  0.58326123  1
  Na  Na12  1  0.33472754  0.98096156  0.58745654  1
  Na  Na13  1  0.83201996  0.96461286  0.58242177  1
  Na  Na14  1  0.14285976  0.96209805  0.07985988  1
  Na  Na15  1  0.65078025  0.97222106  0.07994335  1
  Na  Na16  1  0.33179921  0.68807878  0.08283025  1
  Na  Na17  1  0.83445842  0.68833640  0.08782242  1
  Na  Na18  1  0.48167779  0.67894291  0.91455600  1
  Na  Na19  1  0.98244389  0.67517861  0.92235054  1
  Na  Na20  1  0.34929602  0.02966140  0.90721811  1
  Na  Na21  1  0.84788696  0.02965132  0.91028410  1
  Na  Na22  1  0.16911900  0.29484955  0.90700145  1
  Na  Na23  1  0.66709768  0.29370906  0.90786578  1
  Na  Na24  1  0.48476945  0.29420872  0.42733147  1
  Na  Na25  1  0.97943949  0.28429630  0.42155406  1
  Na  Na26  1  0.16633166  0.04065357  0.41220214  1
  Na  Na27  1  0.67444358  0.05144144  0.41517577  1
  Na  Na28  1  0.34873040  0.66650829  0.41475021  1
  Na  Na29  1  0.84843401  0.66701315  0.42028144  1
  Na  Na30  1  0.99774657  0.99451826  0.49879762  1
  Na  Na31  1  0.50599286  0.01260719  0.49972815  1
  Na  Na32  1  0.00271414  0.99738716  0.99808457  1
  Na  Na33  1  0.50435043  0.00092632  0.99502693  1
  Na  Na34  1  0.33039386  0.33743292  0.82811616  1
  Na  Na35  1  0.82508883  0.33236348  0.83294384  1
  Na  Na36  1  0.32497437  0.31631746  0.33705747  1
  Na  Na37  1  0.82959173  0.32333159  0.33372408  1
  Na  Na38  1  0.15737128  0.65105873  0.16880407  1
  Na  Na39  1  0.66317170  0.65852589  0.17105217  1
  Na  Na40  1  0.16067753  0.66671452  0.66867822  1
  Na  Na41  1  0.66628998  0.66471112  0.66460140  1
  Ga  Ga0  1  0.99953851  0.01954373  0.34696708  1
  Ga  Ga1  1  0.50334722  0.00557545  0.35081370  1
  Ga  Ga2  1  0.00189424  0.99926009  0.84888889  1
  Ga  Ga3  1  0.49950581  0.98122913  0.84576330  1
  Ga  Ga4  1  0.33564901  0.31726590  0.69007331  1
  Ga  Ga5  1  0.83519559  0.35264743  0.19080857  1
  Ga  Ga6  1  0.32188223  0.34308618  0.98005993  1
  Ga  Ga7  1  0.82088908  0.34531308  0.98360712  1
  Ga  Ga8  1  0.32250815  0.29893948  0.48352410  1
  Ga  Ga9  1  0.82492844  0.32072520  0.48651352  1
  Ga  Ga10  1  0.68758415  0.69513044  0.31731645  1
  Ga  Ga11  1  0.18435393  0.67990510  0.81482930  1
  Si  Si0  1  0.14774071  0.00124794  0.25136547  1
  Si  Si1  1  0.64895740  0.99466919  0.25280692  1
  Si  Si2  1  0.35826993  0.71585117  0.25082254  1
  Si  Si3  1  0.85587351  0.71437934  0.25189628  1
  Si  Si4  1  0.99726336  0.29429057  0.25045281  1
  Si  Si5  1  0.14601150  0.29696182  0.75190853  1
  Si  Si6  1  0.64710464  0.29252003  0.75336888  1
  Si  Si7  1  0.49706579  0.70042036  0.75104720  1
  Si  Si8  1  0.35518416  0.99677127  0.75225834  1
  Si  Si9  1  0.85822723  0.00658930  0.75105994  1
  Si  Si10  1  0.47507036  0.33397812  0.58350216  1
  Si  Si11  1  0.97977157  0.34313865  0.58183950  1
  Si  Si12  1  0.18827119  0.04079971  0.58609506  1
  Si  Si13  1  0.68119156  0.03122309  0.58113570  1
  Si  Si14  1  0.83668646  0.61999654  0.57994039  1
  Si  Si15  1  0.47826489  0.61489282  0.08093920  1
  Si  Si16  1  0.97541994  0.61532643  0.08340193  1
  Si  Si17  1  0.18129726  0.33140444  0.08140118  1
  Si  Si18  1  0.68551524  0.33340691  0.08659789  1
  Si  Si19  1  0.31660955  0.67207810  0.91762599  1
  Si  Si20  1  0.81642799  0.67080377  0.91730603  1
  Si  Si21  1  0.16774629  0.96163722  0.91453326  1
  Si  Si22  1  0.66892054  0.96862780  0.91885363  1
  Si  Si23  1  0.31687063  0.96255964  0.41683164  1
  Si  Si24  1  0.81816713  0.96983129  0.41796529  1
  Si  Si25  1  0.16871760  0.36908691  0.41756180  1
  Si  Si26  1  0.66526195  0.37293991  0.41154966  1
  Sn  Sn0  1  0.99820872  0.00495260  0.64378122  1
  Sn  Sn1  1  0.50354572  0.00615768  0.64961661  1
  Sn  Sn2  1  0.00317282  0.00124235  0.14986170  1
  Sn  Sn3  1  0.50385624  0.98716714  0.14853836  1
  Sn  Sn4  1  0.82913114  0.32318214  0.68341909  1
  Sn  Sn5  1  0.33099141  0.34396348  0.18625808  1
  Sn  Sn6  1  0.16279987  0.66423198  0.01813977  1
  Sn  Sn7  1  0.66765304  0.66707584  0.01984329  1
  Sn  Sn8  1  0.16700299  0.66883476  0.51955313  1
  Sn  Sn9  1  0.66762366  0.65845211  0.52069313  1
  Sn  Sn10  1  0.17469613  0.67322388  0.31165350  1
  Sn  Sn11  1  0.67499233  0.67772208  0.81109834  1
  S  S0  1  0.49695321  0.28774363  0.25019268  1
  S  S1  1  0.99969569  0.70702863  0.75270591  1
  S  S2  1  0.33514927  0.62228056  0.58248669  1
  S  S3  1  0.33585960  0.04797522  0.08200497  1
  S  S4  1  0.83549908  0.04800689  0.08242595  1
  S  S5  1  0.01909208  0.37123527  0.91453793  1
  S  S6  1  0.51807764  0.37187115  0.91733174  1
  S  S7  1  0.02024719  0.66726155  0.41465801  1
  S  S8  1  0.52093016  0.66734613  0.41474844  1
  O  O0  1  0.10393888  0.04226579  0.30850840  1
  O  O1  1  0.60292730  0.03714881  0.30819679  1
  O  O2  1  0.41927632  0.80998402  0.30836564  1
  O  O3  1  0.91926357  0.80950020  0.30867533  1
  O  O4  1  0.48721650  0.19163910  0.30585900  1
  O  O5  1  0.97880215  0.18268133  0.31178998  1
  O  O6  1  0.10381747  0.17028185  0.81057097  1
  O  O7  1  0.60132858  0.16785398  0.81146847  1
  O  O8  1  0.47761594  0.77260560  0.81344863  1
  O  O9  1  0.98976179  0.78422932  0.80960311  1
  O  O10  1  0.41568530  0.02493953  0.81084798  1
  O  O11  1  0.91650145  0.03150677  0.81079191  1
  O  O12  1  0.39321571  0.95628463  0.69045635  1
  O  O13  1  0.89658883  0.97608610  0.68877279  1
  O  O14  1  0.08465440  0.21668748  0.69158455  1
  O  O15  1  0.59170028  0.22111366  0.69046568  1
  O  O16  1  0.01236356  0.81606831  0.69941486  1
  O  O17  1  0.52265294  0.83733690  0.69594604  1
  O  O18  1  0.39457072  0.82013735  0.18668764  1
  O  O19  1  0.89248456  0.82807912  0.18891661  1
  O  O20  1  0.02449721  0.21248274  0.19414959  1
  O  O21  1  0.50854600  0.20291265  0.19554921  1
  O  O22  1  0.09465253  0.96597892  0.18727779  1
  O  O23  1  0.58908914  0.94353835  0.19006322  1
  O  O24  1  0.43252509  0.35298808  0.64523769  1
  O  O25  1  0.94115895  0.36642605  0.64610675  1
  O  O26  1  0.24814617  0.12739535  0.64541532  1
  O  O27  1  0.73898535  0.10591352  0.64344458  1
  O  O28  1  0.32619266  0.52461068  0.63749512  1
  O  O29  1  0.81661688  0.49856816  0.63928331  1
  O  O30  1  0.43962504  0.51043806  0.14459568  1
  O  O31  1  0.93304129  0.51174303  0.14488576  1
  O  O32  1  0.32533224  0.13067487  0.13717764  1
  O  O33  1  0.82672552  0.12839616  0.13743509  1
  O  O34  1  0.24129849  0.37223098  0.14257910  1
  O  O35  1  0.74472155  0.36189562  0.14556800  1
  O  O36  1  0.22322603  0.29162746  0.02267448  1
  O  O37  1  0.72000855  0.28873505  0.02454585  1
  O  O38  1  0.41680867  0.51760510  0.02339965  1
  O  O39  1  0.91885679  0.52400100  0.02216432  1
  O  O40  1  0.34293831  0.14121957  0.02622473  1
  O  O41  1  0.84077282  0.13919315  0.02599506  1
  O  O42  1  0.22289565  0.15192361  0.52378387  1
  O  O43  1  0.72292813  0.15355043  0.52242281  1
  O  O44  1  0.34092209  0.54100719  0.52592012  1
  O  O45  1  0.84570621  0.53445436  0.51764709  1
  O  O46  1  0.41725759  0.30827182  0.52268665  1
  O  O47  1  0.92022885  0.31686254  0.52366891  1
  O  O48  1  0.27297784  0.70654759  0.97840640  1
  O  O49  1  0.77846378  0.71314472  0.97946844  1
  O  O50  1  0.07324548  0.44864407  0.97026048  1
  O  O51  1  0.57390315  0.45336600  0.97191497  1
  O  O52  1  0.14551491  0.84277937  0.97667298  1
  O  O53  1  0.64732385  0.84249375  0.97835210  1
  O  O54  1  0.27715596  0.84187914  0.47785083  1
  O  O55  1  0.77202467  0.83953450  0.47520062  1
  O  O56  1  0.14784548  0.45525988  0.47635263  1
  O  O57  1  0.64041882  0.44664471  0.47216898  1
  O  O58  1  0.07584553  0.69737410  0.46907120  1
  O  O59  1  0.57518912  0.69309325  0.46873108  1
  O  O60  1  0.06108886  0.64205283  0.35983260  1
  O  O61  1  0.55937468  0.64182087  0.35910232  1
  O  O62  1  0.24613336  0.87709592  0.36257909  1
  O  O63  1  0.75680178  0.89615806  0.35778235  1
  O  O64  1  0.18897258  0.49257865  0.35776845  1
  O  O65  1  0.67661220  0.49608184  0.35324161  1
  O  O66  1  0.05974526  0.47880483  0.86112968  1
  O  O67  1  0.55662332  0.48016287  0.86312106  1
  O  O68  1  0.18235763  0.86339493  0.85738241  1
  O  O69  1  0.68837855  0.88153299  0.86022475  1
  O  O70  1  0.25251183  0.62334234  0.85996953  1
  O  O71  1  0.74428969  0.61539867  0.86443730  1
  O  O72  1  0.01268079  0.82198557  0.41135235  1
  O  O73  1  0.51349559  0.82475797  0.41273097  1
  O  O74  1  0.41004098  0.97574153  0.40866354  1
  O  O75  1  0.91100440  0.97779239  0.41248709  1
  O  O76  1  0.08390101  0.17862872  0.41190292  1
  O  O77  1  0.57987677  0.17822085  0.40803744  1
  O  O78  1  0.01178342  0.19964186  0.91204738  1
  O  O79  1  0.51084369  0.20242076  0.91353685  1
  O  O80  1  0.08299769  0.98510506  0.90996089  1
  O  O81  1  0.58415524  0.98900566  0.91281869  1
  O  O82  1  0.41000498  0.84684228  0.91351708  1
  O  O83  1  0.91052275  0.84244714  0.90856525  1
  O  O84  1  0.48124503  0.15407056  0.58545603  1
  O  O85  1  0.98879479  0.16833268  0.58204299  1
  O  O86  1  0.09380222  0.02213378  0.59136495  1
  O  O87  1  0.58819941  0.02271185  0.58544579  1
  O  O88  1  0.40979658  0.80012890  0.58389457  1
  O  O89  1  0.91861429  0.81535675  0.58504445  1
  O  O90  1  0.48292411  0.80545158  0.08212650  1
  O  O91  1  0.98289774  0.80882499  0.08452542  1
  O  O92  1  0.41140672  0.02402359  0.08643094  1
  O  O93  1  0.90988875  0.01865913  0.08349854  1
  O  O94  1  0.08788227  0.15693269  0.08490289  1
  O  O95  1  0.58834900  0.16187993  0.09086438  1
  O  O96  1  0.34493170  0.16702273  0.75064218  1
  O  O97  1  0.85327340  0.18576939  0.74943772  1
  O  O98  1  0.24169103  0.32106625  0.74401230  1
  O  O99  1  0.74094466  0.30389597  0.74876895  1
  O  O100  1  0.41170508  0.51353661  0.74244229  1
  O  O101  1  0.92240476  0.53422341  0.74862917  1
  O  O102  1  0.35504980  0.52788834  0.24988271  1
  O  O103  1  0.84488037  0.52285345  0.24962065  1
  O  O104  1  0.41857502  0.30365575  0.24561803  1
  O  O105  1  0.91224924  0.31048554  0.24185462  1
  O  O106  1  0.24372932  0.17701375  0.24596643  1
  O  O107  1  0.74330748  0.16321696  0.24389154  1
  O  O108  1  0.32734377  0.50109601  0.92095468  1
  O  O109  1  0.82727336  0.50076773  0.92123608  1
  O  O110  1  0.43226325  0.35273131  0.92383733  1
  O  O111  1  0.93316003  0.35068692  0.92127851  1
  O  O112  1  0.25727547  0.14957240  0.92116586  1
  O  O113  1  0.75813164  0.15571493  0.92537518  1
  O  O114  1  0.32812314  0.15462893  0.42067273  1
  O  O115  1  0.82867346  0.16129272  0.42446589  1
  O  O116  1  0.25776658  0.36014676  0.42458060  1
  O  O117  1  0.75251241  0.36071647  0.41628848  1
  O  O118  1  0.43395104  0.51580482  0.42058863  1
  O  O119  1  0.93600971  0.51201708  0.41876988  1
  O  O120  1  0.17923376  0.51100744  0.07702893  1
  O  O121  1  0.68329637  0.51381672  0.08043428  1
  O  O122  1  0.07646713  0.65711777  0.08012074  1
  O  O123  1  0.57821968  0.65679484  0.07997234  1
  O  O124  1  0.25612111  0.87304989  0.08202642  1
  O  O125  1  0.75449618  0.87095625  0.08215467  1
  O  O126  1  0.18564229  0.85540322  0.57996638  1
  O  O127  1  0.67544847  0.84570797  0.57584428  1
  O  O128  1  0.25457432  0.63716650  0.58168883  1
  O  O129  1  0.74969579  0.63908545  0.57959460  1
  O  O130  1  0.07977337  0.50599919  0.58064027  1
  O  O131  1  0.57392242  0.49305375  0.57947736  1
  O  O132  1  0.15129079  0.82451307  0.25568068  1
  O  O133  1  0.65338188  0.81714779  0.26023626  1
  O  O134  1  0.25932062  0.67447596  0.25085969  1
  O  O135  1  0.75935275  0.69163705  0.25423589  1
  O  O136  1  0.08288610  0.48665377  0.25637018  1
  O  O137  1  0.57290537  0.46201778  0.25174800  1
  O  O138  1  0.15126265  0.48521773  0.75944923  1
  O  O139  1  0.65060887  0.47683137  0.75787571  1
  O  O140  1  0.07672169  0.68793420  0.75575335  1
  O  O141  1  0.58237631  0.67910588  0.75715920  1
  O  O142  1  0.25824634  0.82628610  0.75364720  1
  O  O143  1  0.75918750  0.84746259  0.75188082  1
loop_
_geom_bond_atom_site_label_1
_geom_bond_atom_site_label_2
_geom_bond_distance
_geom_bond_site_symmetry_2
Na0 O107 2.389547 1_555
Na0 O105 2.390235 1_555
Na0 O135 2.517307 1_545
Na0 O63 2.524587 1_545
Na0 O133 2.597267 1_545
Na0 O33 2.779587 1_555
Na0 O5 2.803624 1_555
Na0 O19 2.962152 1_545
Na1 O136 2.474920 1_555
Na1 O134 2.480595 1_555
Na1 O106 2.493309 1_555
Na1 O64 2.555023 1_555
Na1 O20 2.699248 1_555
Na1 O34 2.700528 1_555
Na1 O0 2.755406 1_555
Na1 O102 2.807811 1_555
Na2 O103 2.399659 1_555
Na2 O65 2.492662 1_555
Na2 O107 2.504191 1_555
Na2 O135 2.508972 1_555
Na2 O35 2.644627 1_555
Na2 O137 2.648825 1_555
Na2 O1 2.865987 1_555
Na3 O103 2.416261 1_555
Na3 O132 2.448448 1_655
Na3 O136 2.476264 1_655
Na3 O31 2.476503 1_555
Na3 O105 2.495474 1_555
Na3 O60 2.760352 1_655
Na3 O22 2.942379 1_655
Na3 O3 2.977744 1_555
Na4 O133 2.318451 1_555
Na4 O102 2.376622 1_555
Na4 O137 2.507292 1_555
Na4 O61 2.550405 1_555
Na4 O30 2.675192 1_555
Na4 O104 2.689189 1_555
Na4 O23 2.709751 1_555
Na4 O2 2.903643 1_555
Na5 O98 2.384855 1_555
Na5 O100 2.387310 1_555
Na5 O142 2.522336 1_555
Na5 O138 2.613252 1_555
Na5 O28 2.674338 1_555
Na5 O70 2.696163 1_555
Na5 O8 2.873639 1_555
Na5 O12 2.906484 1_555
Na6 O138 2.338939 1_555
Na6 O97 2.368088 1_455
Na6 O25 2.450758 1_455
Na6 O140 2.561112 1_555
Na6 O101 2.620578 1_455
Na6 O14 2.670751 1_555
Na6 O66 2.779479 1_555
Na7 O24 2.392969 1_555
Na7 O139 2.424930 1_555
Na7 O96 2.458873 1_555
Na7 O141 2.466960 1_555
Na7 O100 2.520408 1_555
Na7 O15 2.818046 1_555
Na7 O67 2.896672 1_555
Na8 O96 2.416953 1_555
Na8 O98 2.478466 1_555
Na8 O142 2.517744 1_545
Na8 O26 2.554198 1_555
Na8 O140 2.594422 1_545
Na8 O68 2.680855 1_545
Na8 O6 2.918978 1_555
Na8 O16 3.002478 1_545
Na9 O143 2.408183 1_555
Na9 O99 2.439459 1_565
Na9 O141 2.493747 1_555
Na9 O27 2.520806 1_565
Na9 O17 2.686005 1_555
Na9 O97 2.730771 1_565
Na9 O69 2.741480 1_555
Na9 O7 2.940879 1_565
Na10 O86 2.421293 1_555
Na10 O85 2.469322 1_455
Na10 O130 2.469721 1_555
Na10 O128 2.494114 1_555
Na10 O56 2.592940 1_555
Na10 O14 2.665104 1_555
Na10 O42 2.847422 1_555
Na11 O129 2.414743 1_555
Na11 O87 2.454028 1_555
Na11 O131 2.457697 1_555
Na11 O15 2.596284 1_555
Na11 O84 2.664388 1_555
Na11 O57 2.704189 1_555
Na11 O29 2.857555 1_555
Na11 O43 2.871089 1_555
Na12 O84 2.302690 1_565
Na12 O126 2.345296 1_555
Na12 O12 2.565407 1_555
Na12 O88 2.595249 1_555
Na12 O54 2.681538 1_555
Na12 O128 2.692909 1_555
Na12 O26 2.810973 1_565
Na12 O46 2.937803 1_565
Na13 O127 2.474811 1_555
Na13 O85 2.486158 1_565
Na13 O89 2.526646 1_555
Na13 O129 2.545898 1_555
Na13 O13 2.601120 1_555
Na13 O55 2.610352 1_555
Na13 O27 2.900635 1_565
Na14 O122 2.391711 1_555
Na14 O94 2.418621 1_565
Na14 O91 2.503128 1_455
Na14 O52 2.529325 1_554
Na14 O22 2.534747 1_555
Na14 O124 2.546560 1_555
Na14 O36 2.875099 1_565
Na15 O125 2.463247 1_555
Na15 O123 2.469233 1_555
Na15 O95 2.490372 1_565
Na15 O53 2.514855 1_554
Na15 O90 2.623907 1_555
Na15 O23 2.635705 1_555
Na15 O37 2.771918 1_565
Na16 O90 2.381851 1_555
Na16 O120 2.397386 1_555
Na16 O18 2.568284 1_555
Na16 O48 2.580128 1_554
Na16 O92 2.629029 1_565
Na16 O124 2.636896 1_555
Na16 O34 2.813002 1_555
Na16 O38 2.968921 1_555
Na17 O91 2.335145 1_555
Na17 O121 2.376690 1_555
Na17 O19 2.516450 1_555
Na17 O93 2.588529 1_565
Na17 O49 2.651882 1_554
Na17 O125 2.686161 1_555
Na17 O35 2.862262 1_555
Na17 O39 2.981727 1_555
Na18 O8 2.405740 1_555
Na18 O108 2.425642 1_555
Na18 O82 2.438764 1_555
Na18 O81 2.465674 1_555
Na18 O110 2.625871 1_555
Na18 O38 2.756359 1_556
Na18 O53 2.944294 1_555
Na18 O67 2.962397 1_555
Na19 O109 2.431132 1_555
Na19 O83 2.456846 1_555
Na19 O80 2.474617 1_655
Na19 O39 2.549593 1_556
Na19 O111 2.602682 1_555
Na19 O9 2.661087 1_555
Na19 O52 2.814176 1_655
Na20 O82 2.401759 1_545
Na20 O112 2.415630 1_555
Na20 O10 2.455077 1_555
Na20 O79 2.530078 1_555
Na20 O110 2.551336 1_555
Na20 O68 2.828996 1_545
Na20 O40 2.835690 1_556
Na20 O48 2.983216 1_545
Na21 O113 2.426183 1_555
Na21 O83 2.461974 1_545
Na21 O11 2.520193 1_555
Na21 O111 2.522368 1_555
Na21 O78 2.562135 1_655
Na21 O69 2.726572 1_545
Na21 O41 2.764555 1_556
Na21 O49 2.920114 1_545
Na22 O6 2.417956 1_555
Na22 O80 2.427931 1_545
Na22 O78 2.525439 1_555
Na22 O108 2.527936 1_555
Na22 O112 2.540559 1_555
Na22 O36 2.741093 1_556
Na22 O70 2.775146 1_555
Na23 O81 2.388459 1_545
Na23 O7 2.422009 1_555
Na23 O79 2.515540 1_555
Na23 O113 2.542859 1_555
Na23 O109 2.554563 1_555
Na23 O71 2.696873 1_555
Na23 O37 2.757192 1_556
Na24 O77 2.456397 1_555
Na24 O114 2.457164 1_555
Na24 O46 2.469536 1_555
Na24 O74 2.524015 1_545
Na24 O118 2.592123 1_555
Na24 O57 2.624198 1_555
Na24 O4 2.843965 1_555
Na25 O115 2.370831 1_555
Na25 O75 2.408934 1_545
Na25 O76 2.514401 1_655
Na25 O119 2.544165 1_555
Na25 O47 2.575795 1_555
Na25 O5 2.588180 1_555
Na25 O56 2.894005 1_655
Na26 O76 2.373230 1_555
Na26 O72 2.471509 1_545
Na26 O116 2.520187 1_555
Na26 O0 2.555879 1_555
Na26 O114 2.572057 1_555
Na26 O42 2.661246 1_555
Na26 O62 2.755069 1_545
Na26 O58 2.969854 1_545
Na27 O117 2.418331 1_555
Na27 O115 2.452074 1_555
Na27 O77 2.493463 1_555
Na27 O43 2.530827 1_555
Na27 O73 2.584271 1_545
Na27 O1 2.664337 1_555
Na27 O63 2.805771 1_545
Na28 O116 2.419809 1_555
Na28 O74 2.440000 1_555
Na28 O118 2.518504 1_555
Na28 O73 2.576239 1_555
Na28 O2 2.683027 1_555
Na28 O44 2.683100 1_555
Na28 O64 2.795682 1_555
Na28 O54 2.857809 1_555
Na29 O117 2.420943 1_555
Na29 O75 2.452672 1_555
Na29 O45 2.454462 1_555
Na29 O72 2.576444 1_655
Na29 O119 2.585652 1_555
Na29 O3 2.783917 1_555
Na29 O55 2.820165 1_555
Na30 O75 2.422952 1_555
Na30 O89 2.449614 1_555
Na30 O85 2.472015 1_565
Na30 O76 2.511232 1_665
Na30 O72 2.576359 1_655
Na30 O86 2.610159 1_665
Na31 O87 2.378853 1_555
Na31 O84 2.445127 1_555
Na31 O77 2.479382 1_555
Na31 O74 2.564101 1_545
Na31 O73 2.608203 1_545
Na31 O88 2.616947 1_545
Na32 O94 2.424406 1_566
Na32 O80 2.463634 1_555
Na32 O91 2.468115 1_456
Na32 O83 2.506787 1_455
Na32 O78 2.589528 1_565
Na32 O93 2.594990 1_466
Na33 O81 2.355014 1_545
Na33 O82 2.384420 1_545
Na33 O90 2.512574 1_546
Na33 O79 2.525903 1_555
Na33 O95 2.581261 1_556
Na33 O92 2.700530 1_556
Na34 O96 2.399563 1_555
Na34 O98 2.407969 1_555
Na34 O100 2.440128 1_555
Na34 O108 2.541349 1_555
Na34 O112 2.575490 1_555
Na34 O110 2.759557 1_555
Na35 O99 2.331476 1_555
Na35 O109 2.458021 1_555
Na35 O97 2.465420 1_555
Na35 O113 2.504433 1_555
Na35 O101 2.588632 1_555
Na35 O111 2.704694 1_555
Na36 O114 2.377672 1_555
Na36 O116 2.418594 1_555
Na36 O106 2.432083 1_555
Na36 O102 2.578039 1_555
Na36 O118 2.635270 1_555
Na36 O104 2.673865 1_555
Na37 O117 2.418796 1_555
Na37 O115 2.482017 1_555
Na37 O107 2.485328 1_555
Na37 O103 2.511015 1_555
Na37 O105 2.557050 1_555
Na37 O119 2.611440 1_555
Na38 O136 2.404188 1_555
Na38 O122 2.460657 1_555
Na38 O132 2.511009 1_555
Na38 O134 2.514874 1_555
Na38 O120 2.520597 1_555
Na38 O124 2.706641 1_555
Na39 O135 2.440508 1_555
Na39 O137 2.472613 1_555
Na39 O133 2.490677 1_555
Na39 O121 2.511957 1_555
Na39 O123 2.525045 1_555
Na39 O125 2.668325 1_555
Na40 O130 2.424253 1_555
Na40 O142 2.477568 1_555
Na40 O126 2.491263 1_555
Na40 O140 2.515994 1_555
Na40 O138 2.546590 1_555
Na40 O128 2.663855 1_555
Na41 O131 2.471383 1_555
Na41 O129 2.490168 1_555
Na41 O127 2.509987 1_555
Na41 O143 2.541006 1_555
Na41 O141 2.587655 1_555
Na41 O139 2.598688 1_555
Ga0 O5 1.865168 1_555
Ga0 O3 1.910169 1_545
Ga0 O0 1.983656 1_655
Ga0 O75 2.048656 1_545
Ga0 O76 2.057526 1_655
Ga0 O72 2.389443 1_645
Ga1 O2 1.898707 1_545
Ga1 O1 1.921575 1_555
Ga1 O77 1.940366 1_555
Ga1 O74 2.023902 1_545
Ga1 O4 2.097845 1_555
Ga1 O73 2.211483 1_545
Ga2 O11 1.903356 1_465
Ga2 O6 1.911281 1_565
Ga2 O9 2.034276 1_455
Ga2 O83 2.035065 1_455
Ga2 O80 2.041910 1_555
Ga2 O78 2.217157 1_565
Ga3 O8 1.860954 1_555
Ga3 O10 1.908717 1_565
Ga3 O7 1.924011 1_565
Ga3 O82 2.092060 1_555
Ga3 O81 2.103824 1_555
Ga3 O79 2.418209 1_565
Ga4 O24 1.893488 1_555
Ga4 O26 1.919041 1_555
Ga4 O96 1.975607 1_555
Ga4 O100 1.977992 1_555
Ga4 O98 2.088564 1_555
Ga4 O28 2.285891 1_555
Ga5 O31 1.919619 1_555
Ga5 O103 1.949554 1_555
Ga5 O35 1.952367 1_555
Ga5 O105 1.971439 1_555
Ga5 O107 2.056372 1_555
Ga5 O33 2.278776 1_555
Ga6 O36 1.858055 1_556
Ga6 O38 1.902646 1_556
Ga6 O108 1.904211 1_555
Ga6 O112 2.012244 1_555
Ga6 O40 2.284897 1_556
Ga6 O110 2.314100 1_555
Ga7 O37 1.863025 1_556
Ga7 O39 1.894179 1_556
Ga7 O109 1.933184 1_555
Ga7 O113 1.977694 1_555
Ga7 O41 2.271100 1_556
Ga7 O111 2.432298 1_555
Ga8 O42 1.845867 1_555
Ga8 O46 1.880760 1_555
Ga8 O114 1.938914 1_555
Ga8 O116 2.005196 1_555
Ga8 O44 2.242522 1_555
Ga8 O118 2.427698 1_555
Ga9 O43 1.877699 1_555
Ga9 O45 1.899456 1_555
Ga9 O47 1.922619 1_555
Ga9 O115 2.010881 1_555
Ga9 O117 2.173459 1_555
Ga9 O119 2.408068 1_555
Ga10 O63 1.836471 1_555
Ga10 O65 1.886158 1_555
Ga10 O135 1.914898 1_555
Ga10 O133 1.969658 1_555
Ga10 O61 2.309581 1_555
Ga10 O137 2.535099 1_555
Ga11 O70 1.845050 1_555
Ga11 O142 1.898239 1_555
Ga11 O68 1.919288 1_555
Ga11 O138 1.969605 1_555
Ga11 O66 2.308650 1_555
Ga11 O140 2.372092 1_555
O0 Si0 1.627671 1_555
O1 Si1 1.629186 1_545
O2 Si2 1.614012 1_555
O3 Si3 1.620927 1_555
O4 S0 1.467158 1_555
O5 Si4 1.624216 1_555
O6 Si5 1.645686 1_555
O7 Si6 1.636559 1_555
O8 Si7 1.635203 1_555
O9 S1 1.489588 1_555
O10 Si8 1.628382 1_545
O11 Si9 1.630570 1_555
O12 Si8 1.649224 1_555
O12 Sn1 2.023131 1_565
O13 Si9 1.624827 1_565
O13 Sn0 1.987236 1_565
O14 Si5 1.648064 1_555
O14 Sn0 2.050097 1_455
O15 Si6 1.641307 1_555
O15 Sn1 2.001996 1_555
O16 S1 1.480586 1_455
O16 Sn0 2.222957 1_465
O17 Si7 1.632370 1_555
O17 Sn1 2.008134 1_565
O18 Si2 1.648372 1_555
O18 Sn3 1.977118 1_555
O19 Si3 1.661131 1_555
O19 Sn2 2.016278 1_665
O20 Si4 1.641614 1_455
O20 Sn2 1.999757 1_555
O21 S0 1.497961 1_555
O21 Sn3 2.169585 1_545
O22 Si0 1.647635 1_565
O22 Sn2 2.010675 1_565
O23 Si1 1.672484 1_555
O23 Sn3 1.994040 1_555
O24 Si10 1.616362 1_555
O25 Si11 1.641122 1_555
O25 Sn4 2.034238 1_555
O26 Si12 1.625489 1_555
O27 Si13 1.650972 1_555
O27 Sn4 2.016657 1_555
O28 S2 1.465265 1_555
O29 Si14 1.632967 1_555
O29 Sn4 1.970693 1_555
O30 Si15 1.645106 1_555
O30 Sn5 2.003266 1_555
O31 Si16 1.612290 1_555
O32 S3 1.488968 1_555
O32 Sn5 2.165397 1_555
O33 S4 1.462708 1_555
O34 Si17 1.652694 1_555
O34 Sn5 2.008855 1_555
O35 Si18 1.620874 1_555
O36 Si17 1.630103 1_555
O37 Si18 1.637115 1_555
O38 Si15 1.622714 1_555
O39 Si16 1.643332 1_555
O40 S3 1.464504 1_555
O41 S4 1.473544 1_555
O42 Si12 1.635897 1_555
O43 Si13 1.627571 1_555
O44 S2 1.477435 1_555
O45 Si14 1.624039 1_555
O46 Si10 1.643960 1_555
O47 Si11 1.613959 1_555
O48 Si19 1.663138 1_555
O48 Sn6 2.029442 1_556
O49 Si20 1.662383 1_555
O49 Sn7 2.035753 1_556
O50 S5 1.506057 1_555
O50 Sn6 2.086828 1_556
O51 S6 1.503715 1_555
O51 Sn7 2.103091 1_556
O52 Si21 1.666909 1_555
O52 Sn6 2.013736 1_556
O53 Si22 1.656800 1_555
O53 Sn7 2.020224 1_556
O54 Si23 1.657952 1_555
O54 Sn8 2.036151 1_555
O55 Si24 1.645657 1_555
O55 Sn9 2.040632 1_555
O56 Si25 1.650350 1_555
O56 Sn8 2.018112 1_555
O57 Si26 1.653172 1_555
O57 Sn9 2.023950 1_555
O58 S7 1.499999 1_555
O58 Sn8 2.108704 1_555
O59 S8 1.484944 1_555
O59 Sn9 2.174230 1_555
O60 S7 1.493686 1_555
O60 Sn10 2.201888 1_555
O61 S8 1.485486 1_555
O62 Si23 1.633368 1_555
O62 Sn10 1.981245 1_555
O63 Si24 1.640705 1_555
O64 Si25 1.651127 1_555
O64 Sn10 2.050064 1_555
O65 Si26 1.649772 1_555
O66 S5 1.473147 1_555
O67 S6 1.484343 1_555
O67 Sn11 2.295681 1_555
O68 Si21 1.636985 1_555
O69 Si22 1.640642 1_555
O69 Sn11 2.041536 1_555
O70 Si19 1.624814 1_555
O71 Si20 1.628703 1_555
O71 Sn11 1.995498 1_555
O72 S7 1.473490 1_555
O73 S8 1.495111 1_555
O74 Si23 1.636489 1_555
O75 Si24 1.646438 1_555
O76 Si25 1.636912 1_555
O77 Si26 1.660980 1_555
O78 S5 1.489648 1_555
O79 S6 1.472190 1_555
O80 Si21 1.650311 1_555
O81 Si22 1.636497 1_555
O82 Si19 1.636526 1_555
O83 Si20 1.640470 1_555
O84 Si10 1.685117 1_555
O84 Sn1 2.123850 1_555
O85 Si11 1.667337 1_555
O85 Sn0 2.082048 1_555
O86 Si12 1.632517 1_555
O86 Sn0 2.020259 1_455
O87 Si13 1.645195 1_555
O87 Sn1 2.036018 1_555
O88 S2 1.492939 1_555
O88 Sn1 2.293307 1_565
O89 Si14 1.642661 1_555
O89 Sn0 2.049123 1_565
O90 Si15 1.681504 1_555
O90 Sn3 2.086254 1_555
O91 Si16 1.685013 1_555
O91 Sn2 2.141206 1_665
O92 S3 1.488045 1_555
O92 Sn3 2.310815 1_545
O93 S4 1.494432 1_555
O93 Sn2 2.297316 1_655
O94 Si17 1.634792 1_555
O94 Sn2 2.058925 1_555
O95 Si18 1.662949 1_555
O95 Sn3 2.011586 1_545
O96 Si8 1.639668 1_545
O97 Si9 1.666333 1_555
O97 Sn4 2.101069 1_555
O98 Si5 1.639359 1_555
O99 Si6 1.648977 1_555
O99 Sn4 2.092501 1_555
O100 Si7 1.628543 1_555
O101 S1 1.486182 1_555
O101 Sn4 2.303800 1_555
O102 Si2 1.670200 1_555
O102 Sn5 2.046010 1_555
O103 Si3 1.640814 1_555
O104 S0 1.496277 1_555
O104 Sn5 2.221141 1_555
O105 Si4 1.624891 1_555
O106 Si0 1.668408 1_555
O106 Sn5 2.033058 1_555
O107 Si1 1.631864 1_545
O108 Si19 1.652697 1_555
O109 Si20 1.646069 1_555
O110 S6 1.478021 1_555
O111 S5 1.475493 1_655
O112 Si21 1.662885 1_545
O113 Si22 1.655947 1_545
O114 Si23 1.645079 1_545
O115 Si24 1.648984 1_545
O116 Si25 1.657521 1_555
O117 Si26 1.637338 1_555
O118 S8 1.484785 1_555
O119 S7 1.467087 1_655
O120 Si17 1.645169 1_555
O120 Sn6 2.030381 1_555
O121 Si18 1.656818 1_555
O121 Sn7 2.048158 1_555
O122 Si16 1.669746 1_455
O122 Sn6 2.052757 1_555
O123 Si15 1.648570 1_555
O123 Sn7 2.058156 1_555
O124 S3 1.513437 1_565
O124 Sn6 2.276778 1_555
O125 S4 1.534102 1_565
O125 Sn7 2.198234 1_555
O126 Si12 1.657117 1_565
O126 Sn8 2.037656 1_555
O127 Si13 1.630672 1_565
O127 Sn9 2.028238 1_555
O128 S2 1.527260 1_555
O128 Sn8 2.218563 1_555
O129 Si14 1.664359 1_555
O129 Sn9 2.044696 1_555
O130 Si11 1.662608 1_455
O130 Sn8 2.040007 1_555
O131 Si10 1.640127 1_555
O131 Sn9 2.065327 1_555
O132 Si0 1.633276 1_565
O132 Sn10 2.041522 1_555
O133 Si1 1.654418 1_555
O134 Si2 1.632123 1_555
O134 Sn10 2.031238 1_555
O135 Si3 1.650755 1_555
O136 Si4 1.653301 1_455
O136 Sn10 2.064992 1_555
O137 S0 1.482169 1_555
O138 Si5 1.663440 1_555
O139 Si6 1.637408 1_555
O139 Sn11 2.013737 1_555
O140 S1 1.486722 1_455
O141 Si7 1.651337 1_555
O141 Sn11 2.058424 1_555
O142 Si8 1.654083 1_555
O143 Si9 1.639905 1_565
O143 Sn11 2.013791 1_555
