# generated using pymatgen
data_MgNb2V2O8
_symmetry_space_group_name_H-M   'P 1'
_cell_length_a   6.28558375
_cell_length_b   5.69633366
_cell_length_c   5.92970059
_cell_angle_alpha   74.42489827
_cell_angle_beta   57.99378932
_cell_angle_gamma   56.51957793
_symmetry_Int_Tables_number   1
_chemical_formula_structural   MgNb2V2O8
_chemical_formula_sum   'Mg1 Nb2 V2 O8'
_cell_volume   150.07970187
_cell_formula_units_Z   1
loop_
 _symmetry_equiv_pos_site_id
 _symmetry_equiv_pos_as_xyz
  1  'x, y, z'
loop_
 _atom_site_type_symbol
 _atom_site_label
 _atom_site_symmetry_multiplicity
 _atom_site_fract_x
 _atom_site_fract_y
 _atom_site_fract_z
 _atom_site_occupancy
  Mg  Mg0  1  0.76102658  0.99999173  0.50011286  1
  Nb  Nb0  1  0.03330527  0.40930895  0.54723555  1
  Nb  Nb1  1  0.48984509  0.59079770  0.45251466  1
  V  V0  1  0.26015564  0.00128679  0.00024979  1
  V  V1  1  0.76174341  0.99869086  0.99975271  1
  O  O0  1  0.31102848  0.16524521  0.23603024  1
  O  O1  1  0.31403036  0.29466251  0.66854598  1
  O  O2  1  0.20753148  0.70728053  0.33296432  1
  O  O3  1  0.21244458  0.83470977  0.76384016  1
  O  O4  1  0.79321597  0.24382344  0.18970324  1
  O  O5  1  0.74788459  0.29266420  0.66703103  1
  O  O6  1  0.77699274  0.70546049  0.33153635  1
  O  O7  1  0.72662780  0.75607682  0.81048210  1
loop_
_geom_bond_atom_site_label_1
_geom_bond_atom_site_label_2
_geom_bond_distance
_geom_bond_site_symmetry_2
Mg0 O4 1.974960 1_565
Mg0 O7 1.975039 1_555
Mg0 O5 2.100810 1_565
Mg0 O2 2.101196 1_655
Mg0 O1 2.105105 1_565
Mg0 O6 2.105380 1_555
Nb0 O0 1.915945 1_555
Nb0 O5 1.968626 1_455
Nb0 O1 1.969589 1_555
Nb0 O7 2.078324 1_455
Nb0 O6 2.259286 1_455
Nb0 O2 2.261056 1_555
Nb1 O3 1.916010 1_555
Nb1 O2 1.968113 1_555
Nb1 O6 1.968610 1_555
Nb1 O4 2.077741 1_555
Nb1 O1 2.259098 1_555
Nb1 O5 2.262894 1_555
O0 V1 2.104734 1_544
O0 V0 2.105670 1_555
O1 V0 2.220220 1_556
O2 V0 2.225234 1_565
O3 V0 2.104603 1_566
O3 V1 2.106223 1_455
O4 V1 2.154800 1_544
O4 V0 2.156277 1_655
O5 V1 2.225161 1_545
O6 V1 2.219989 1_554
O7 V0 2.154599 1_566
O7 V1 2.156463 1_555
