# generated using pymatgen
data_CaRuO3
_symmetry_space_group_name_H-M   'P 1'
_cell_length_a   5.35225118
_cell_length_b   5.54761917
_cell_length_c   7.67012603
_cell_angle_alpha   90.00000000
_cell_angle_beta   90.00000000
_cell_angle_gamma   90.00000000
_symmetry_Int_Tables_number   1
_chemical_formula_structural   CaRuO3
_chemical_formula_sum   'Ca4 Ru4 O12'
_cell_volume   227.74330919
_cell_formula_units_Z   4
loop_
 _symmetry_equiv_pos_site_id
 _symmetry_equiv_pos_as_xyz
  1  'x, y, z'
loop_
 _atom_site_type_symbol
 _atom_site_label
 _atom_site_symmetry_multiplicity
 _atom_site_fract_x
 _atom_site_fract_y
 _atom_site_fract_z
 _atom_site_occupancy
  Ca  Ca0  1  0.51531947  0.55895337  0.25000000  1
  Ca  Ca1  1  0.98468053  0.05895337  0.25000000  1
  Ca  Ca2  1  0.48468053  0.44104663  0.75000000  1
  Ca  Ca3  1  0.01531947  0.94104663  0.75000000  1
  Ru  Ru0  1  -0.00000000  0.50000000  0.00000000  1
  Ru  Ru1  1  0.50000000  0.00000000  0.50000000  1
  Ru  Ru2  1  -0.00000000  0.50000000  0.50000000  1
  Ru  Ru3  1  0.50000000  0.00000000  0.00000000  1
  O  O0  1  0.80174380  0.79732250  0.04735613  1
  O  O1  1  0.69825620  0.29732250  0.45264387  1
  O  O2  1  0.19825620  0.20267750  0.54735613  1
  O  O3  1  0.30174380  0.70267750  0.95264387  1
  O  O4  1  0.19825620  0.20267750  0.95264387  1
  O  O5  1  0.30174380  0.70267750  0.54735613  1
  O  O6  1  0.80174380  0.79732250  0.45264387  1
  O  O7  1  0.69825620  0.29732250  0.04735613  1
  O  O8  1  0.40587371  0.97385183  0.25000000  1
  O  O9  1  0.09412629  0.47385183  0.25000000  1
  O  O10  1  0.59412629  0.02614817  0.75000000  1
  O  O11  1  0.90587371  0.52614817  0.75000000  1
loop_
_geom_bond_atom_site_label_1
_geom_bond_atom_site_label_2
_geom_bond_distance
_geom_bond_site_symmetry_2
Ca0 O9 2.303237 1_555
Ca0 O7 2.341194 1_555
Ca0 O1 2.341194 1_555
Ca0 O8 2.375070 1_555
Ca0 O6 2.552389 1_555
Ca0 O0 2.552389 1_555
Ca0 O3 2.672881 1_554
Ca0 O5 2.672881 1_555
Ca1 O8 2.303237 1_645
Ca1 O6 2.341194 1_545
Ca1 O0 2.341194 1_545
Ca1 O9 2.375070 1_655
Ca1 O7 2.552389 1_555
Ca1 O1 2.552389 1_555
Ca1 O4 2.672881 1_654
Ca1 O2 2.672881 1_655
Ca2 O11 2.303237 1_555
Ca2 O5 2.341194 1_555
Ca2 O3 2.341194 1_555
Ca2 O10 2.375070 1_555
Ca2 O2 2.552389 1_555
Ca2 O4 2.552389 1_555
Ca2 O1 2.672881 1_555
Ca2 O7 2.672881 1_556
Ca3 O10 2.303237 1_465
Ca3 O2 2.341194 1_565
Ca3 O4 2.341194 1_565
Ca3 O11 2.375070 1_455
Ca3 O5 2.552389 1_555
Ca3 O3 2.552389 1_555
Ca3 O6 2.672881 1_455
Ca3 O0 2.672881 1_456
O0 Ru0 1.994625 1_655
O0 Ru3 2.001103 1_565
O1 Ru1 1.994625 1_555
O1 Ru2 2.001103 1_655
O2 Ru2 1.994625 1_555
O2 Ru1 2.001103 1_555
O3 Ru3 1.994625 1_566
O3 Ru0 2.001103 1_556
O4 Ru0 1.994625 1_556
O4 Ru3 2.001103 1_556
O5 Ru1 1.994625 1_565
O5 Ru2 2.001103 1_555
O6 Ru2 1.994625 1_655
O6 Ru1 2.001103 1_565
O7 Ru3 1.994625 1_555
O7 Ru0 2.001103 1_655
O8 Ru3 1.987906 1_565
O8 Ru1 1.987906 1_565
O9 Ru0 1.987906 1_555
O9 Ru2 1.987906 1_555
O10 Ru3 1.987906 1_556
O10 Ru1 1.987906 1_555
O11 Ru2 1.987906 1_655
O11 Ru0 1.987906 1_656
