# generated using pymatgen
data_Na3H6Rh
_symmetry_space_group_name_H-M   'P 1'
_cell_length_a   5.18698408
_cell_length_b   9.25611898
_cell_length_c   9.49469127
_cell_angle_alpha   90.00000000
_cell_angle_beta   90.00000000
_cell_angle_gamma   90.00000000
_symmetry_Int_Tables_number   1
_chemical_formula_structural   Na3H6Rh
_chemical_formula_sum   'Na12 H24 Rh4'
_cell_volume   455.85286777
_cell_formula_units_Z   4
loop_
 _symmetry_equiv_pos_site_id
 _symmetry_equiv_pos_as_xyz
  1  'x, y, z'
loop_
 _atom_site_type_symbol
 _atom_site_label
 _atom_site_symmetry_multiplicity
 _atom_site_fract_x
 _atom_site_fract_y
 _atom_site_fract_z
 _atom_site_occupancy
  Na  Na0  1  0.25000000  0.71979051  0.75043038  1
  Na  Na1  1  0.75000000  0.28020949  0.24956962  1
  Na  Na2  1  0.25000000  0.21979051  0.74956962  1
  Na  Na3  1  0.75000000  0.78020949  0.25043038  1
  Na  Na4  1  0.25000000  0.89738023  0.03392400  1
  Na  Na5  1  0.75000000  0.10261977  0.96607600  1
  Na  Na6  1  0.25000000  0.39738023  0.46607600  1
  Na  Na7  1  0.75000000  0.60261977  0.53392400  1
  Na  Na8  1  0.25000000  0.54432744  0.12718785  1
  Na  Na9  1  0.75000000  0.45567256  0.87281215  1
  Na  Na10  1  0.25000000  0.04432744  0.37281215  1
  Na  Na11  1  0.75000000  0.95567256  0.62718785  1
  H  H0  1  0.25000000  0.81303212  0.25087001  1
  H  H1  1  0.75000000  0.18696788  0.74912999  1
  H  H2  1  0.25000000  0.31303212  0.24912999  1
  H  H3  1  0.75000000  0.68696788  0.75087001  1
  H  H4  1  0.25000000  0.62562003  0.54597217  1
  H  H5  1  0.75000000  0.37437997  0.45402783  1
  H  H6  1  0.25000000  0.12562003  0.95402783  1
  H  H7  1  0.75000000  0.87437997  0.04597217  1
  H  H8  1  0.53035518  0.39035397  0.66251824  1
  H  H9  1  0.03035518  0.60964603  0.33748176  1
  H  H10  1  0.96964482  0.89035397  0.83748176  1
  H  H11  1  0.46964482  0.10964603  0.16251824  1
  H  H12  1  0.46964482  0.60964603  0.33748176  1
  H  H13  1  0.96964482  0.39035397  0.66251824  1
  H  H14  1  0.03035518  0.10964603  0.16251824  1
  H  H15  1  0.53035518  0.89035397  0.83748176  1
  H  H16  1  0.52182920  0.66948688  0.96502229  1
  H  H17  1  0.02182920  0.33051312  0.03497771  1
  H  H18  1  0.97817080  0.16948688  0.53497771  1
  H  H19  1  0.47817080  0.83051312  0.46502229  1
  H  H20  1  0.47817080  0.33051312  0.03497771  1
  H  H21  1  0.97817080  0.66948688  0.96502229  1
  H  H22  1  0.02182920  0.83051312  0.46502229  1
  H  H23  1  0.52182920  0.16948688  0.53497771  1
  Rh  Rh0  1  0.25000000  0.72182448  0.40053288  1
  Rh  Rh1  1  0.75000000  0.27817552  0.59946712  1
  Rh  Rh2  1  0.25000000  0.22182448  0.09946712  1
  Rh  Rh3  1  0.75000000  0.77817552  0.90053288  1
loop_
_geom_bond_atom_site_label_1
_geom_bond_atom_site_label_2
_geom_bond_distance
_geom_bond_site_symmetry_2
H0 Rh0 1.652868 1_555
H0 Na4 2.202832 1_555
H0 Na10 2.433916 1_565
H0 Na3 2.611229 1_555
H0 Na3 2.611229 1_455
H1 Rh1 1.652868 1_555
H1 Na5 2.202832 1_555
H1 Na11 2.433916 1_545
H1 Na2 2.611229 1_555
H1 Na2 2.611229 1_655
H2 Rh2 1.652868 1_555
H2 Na6 2.202832 1_555
H2 Na8 2.433916 1_555
H2 Na1 2.611229 1_455
H2 Na1 2.611229 1_555
H3 Rh3 1.652868 1_555
H3 Na7 2.202832 1_555
H3 Na9 2.433916 1_555
H3 Na0 2.611229 1_555
H3 Na0 2.611229 1_655
H4 Rh0 1.643120 1_555
H4 Na0 2.127980 1_555
H4 Na6 2.244682 1_555
H4 Na7 2.604728 1_455
H4 Na7 2.604728 1_555
H5 Rh1 1.643120 1_555
H5 Na1 2.127980 1_555
H5 Na7 2.244682 1_555
H5 Na6 2.604728 1_555
H5 Na6 2.604728 1_655
H6 Rh2 1.643120 1_556
H6 Na2 2.127980 1_555
H6 Na4 2.244682 1_546
H6 Na5 2.604728 1_555
H6 Na5 2.604728 1_455
H7 Rh3 1.643120 1_554
H7 Na3 2.127980 1_555
H7 Na5 2.244682 1_564
H7 Na4 2.604728 1_655
H7 Na4 2.604728 1_555
H8 Rh1 1.653638 1_555
H8 Na2 2.300067 1_555
H8 Na6 2.365954 1_555
H8 Na9 2.377024 1_555
H8 Na7 2.578568 1_555
H9 Rh0 1.653638 1_555
H9 Na3 2.300067 1_455
H9 Na7 2.365954 1_455
H9 Na8 2.377024 1_555
H9 Na6 2.578568 1_555
H10 Rh3 1.653638 1_555
H10 Na0 2.300067 1_655
H10 Na4 2.365954 1_656
H10 Na11 2.377024 1_555
H10 Na5 2.578568 1_565
H11 Rh2 1.653638 1_555
H11 Na1 2.300067 1_555
H11 Na5 2.365954 1_554
H11 Na10 2.377024 1_555
H11 Na4 2.578568 1_545
H12 Rh0 1.653638 1_555
H12 Na3 2.300067 1_555
H12 Na7 2.365954 1_555
H12 Na8 2.377024 1_555
H12 Na6 2.578568 1_555
H13 Rh1 1.653638 1_555
H13 Na2 2.300067 1_655
H13 Na6 2.365954 1_655
H13 Na9 2.377024 1_555
H13 Na7 2.578568 1_555
H14 Rh2 1.653638 1_555
H14 Na1 2.300067 1_455
H14 Na5 2.365954 1_454
H14 Na10 2.377024 1_555
H14 Na4 2.578568 1_545
H15 Rh3 1.653638 1_555
H15 Na0 2.300067 1_555
H15 Na4 2.365954 1_556
H15 Na11 2.377024 1_555
H15 Na5 2.578568 1_565
H16 Rh3 1.669653 1_555
H16 Na8 2.387643 1_556
H16 Na9 2.466582 1_555
H16 Na0 2.521144 1_555
H16 Na4 2.620230 1_556
H17 Rh2 1.669653 1_555
H17 Na9 2.387643 1_454
H17 Na8 2.466582 1_555
H17 Na1 2.521144 1_455
H17 Na5 2.620230 1_454
H18 Rh1 1.669653 1_555
H18 Na10 2.387643 1_655
H18 Na11 2.466582 1_545
H18 Na2 2.521144 1_655
H18 Na6 2.620230 1_655
H19 Rh0 1.669653 1_555
H19 Na11 2.387643 1_555
H19 Na10 2.466582 1_565
H19 Na3 2.521144 1_555
H19 Na7 2.620230 1_555
H20 Rh2 1.669653 1_555
H20 Na9 2.387643 1_554
H20 Na8 2.466582 1_555
H20 Na1 2.521144 1_555
H20 Na5 2.620230 1_554
H21 Rh3 1.669653 1_555
H21 Na8 2.387643 1_656
H21 Na9 2.466582 1_555
H21 Na0 2.521144 1_655
H21 Na4 2.620230 1_656
H22 Rh0 1.669653 1_555
H22 Na11 2.387643 1_455
H22 Na10 2.466582 1_565
H22 Na3 2.521144 1_455
H22 Na7 2.620230 1_455
H23 Rh1 1.669653 1_555
H23 Na10 2.387643 1_555
H23 Na11 2.466582 1_545
H23 Na2 2.521144 1_555
H23 Na6 2.620230 1_555
