# generated using pymatgen
data_LaAuO3
_symmetry_space_group_name_H-M   'P 1'
_cell_length_a   4.03934509
_cell_length_b   5.70785039
_cell_length_c   13.10108913
_cell_angle_alpha   90.00000000
_cell_angle_beta   90.00000000
_cell_angle_gamma   90.00000000
_symmetry_Int_Tables_number   1
_chemical_formula_structural   LaAuO3
_chemical_formula_sum   'La4 Au4 O12'
_cell_volume   302.05841552
_cell_formula_units_Z   4
loop_
 _symmetry_equiv_pos_site_id
 _symmetry_equiv_pos_as_xyz
  1  'x, y, z'
loop_
 _atom_site_type_symbol
 _atom_site_label
 _atom_site_symmetry_multiplicity
 _atom_site_fract_x
 _atom_site_fract_y
 _atom_site_fract_z
 _atom_site_occupancy
  La  La0  1  0.26448486  0.75000000  0.91840258  1
  La  La1  1  0.26448486  0.25000000  0.58159742  1
  La  La2  1  0.73551514  0.25000000  0.08159742  1
  La  La3  1  0.73551514  0.75000000  0.41840258  1
  Au  Au0  1  0.07174462  0.75000000  0.17045648  1
  Au  Au1  1  0.07174462  0.25000000  0.32954352  1
  Au  Au2  1  0.92825538  0.25000000  0.82954352  1
  Au  Au3  1  0.92825538  0.75000000  0.67045648  1
  O  O0  1  0.17080311  0.50000000  0.75000000  1
  O  O1  1  0.82919689  -0.00000000  0.25000000  1
  O  O2  1  0.82919689  0.50000000  0.25000000  1
  O  O3  1  0.17080311  -0.00000000  0.75000000  1
  O  O4  1  0.74334535  0.49457194  0.92075785  1
  O  O5  1  0.74334535  0.50542806  0.57924215  1
  O  O6  1  0.25665465  0.99457194  0.07924215  1
  O  O7  1  0.25665465  0.00542806  0.42075785  1
  O  O8  1  0.74334535  0.99457194  0.57924215  1
  O  O9  1  0.74334535  0.00542806  0.92075785  1
  O  O10  1  0.25665465  0.49457194  0.42075785  1
  O  O11  1  0.25665465  0.50542806  0.07924215  1
loop_
_geom_bond_atom_site_label_1
_geom_bond_atom_site_label_2
_geom_bond_distance
_geom_bond_site_symmetry_2
La0 O9 2.422397 1_565
La0 O4 2.422397 1_555
La0 O11 2.527833 1_556
La0 O6 2.527833 1_556
La0 O4 2.560829 1_455
La0 O9 2.560829 1_465
La0 O0 2.654617 1_555
La0 O3 2.654617 1_565
La1 O8 2.422397 1_545
La1 O5 2.422397 1_555
La1 O10 2.527833 1_555
La1 O7 2.527833 1_555
La1 O8 2.560829 1_445
La1 O5 2.560829 1_455
La1 O0 2.654617 1_555
La1 O3 2.654617 1_555
La2 O6 2.422397 1_545
La2 O11 2.422397 1_555
La2 O9 2.527833 1_554
La2 O4 2.527833 1_554
La2 O6 2.560829 1_645
La2 O11 2.560829 1_655
La2 O1 2.654617 1_555
La2 O2 2.654617 1_555
La3 O10 2.422397 1_555
La3 O7 2.422397 1_565
La3 O8 2.527833 1_555
La3 O5 2.527833 1_555
La3 O10 2.560829 1_655
La3 O7 2.560829 1_665
La3 O1 2.654617 1_565
La3 O2 2.654617 1_555
Au0 O11 1.983604 1_555
Au0 O6 1.983604 1_555
Au0 O1 2.020418 1_465
Au0 O2 2.020418 1_455
Au1 O10 1.983604 1_555
Au1 O7 1.983604 1_555
Au1 O1 2.020418 1_455
Au1 O2 2.020418 1_455
Au2 O9 1.983604 1_555
Au2 O4 1.983604 1_555
Au2 O3 2.020418 1_655
Au2 O0 2.020418 1_655
Au3 O5 1.983604 1_555
Au3 O8 1.983604 1_555
Au3 O0 2.020418 1_655
Au3 O3 2.020418 1_665
