# generated using pymatgen
data_MgFe6(O5F)2
_symmetry_space_group_name_H-M   'P 1'
_cell_length_a   7.94700495
_cell_length_b   5.72094565
_cell_length_c   5.89897906
_cell_angle_alpha   68.85054494
_cell_angle_beta   64.52708422
_cell_angle_gamma   66.71323980
_symmetry_Int_Tables_number   1
_chemical_formula_structural   MgFe6(O5F)2
_chemical_formula_sum   'Mg1 Fe6 O10 F2'
_cell_volume   216.43275643
_cell_formula_units_Z   1
loop_
 _symmetry_equiv_pos_site_id
 _symmetry_equiv_pos_as_xyz
  1  'x, y, z'
loop_
 _atom_site_type_symbol
 _atom_site_label
 _atom_site_symmetry_multiplicity
 _atom_site_fract_x
 _atom_site_fract_y
 _atom_site_fract_z
 _atom_site_occupancy
  Mg  Mg0  1  0.48969200  0.01406200  0.51862000  1
  Fe  Fe0  1  0.82444400  0.64489700  0.65379300  1
  Fe  Fe1  1  0.68844900  0.37544200  0.32281900  1
  Fe  Fe2  1  0.32806900  0.61977100  0.66424800  1
  Fe  Fe3  1  0.13884400  0.30926000  0.31174700  1
  Fe  Fe4  1  0.54710900  0.02150800  0.00856700  1
  Fe  Fe5  1  0.98669900  0.00105400  0.01069500  1
  O  O0  1  0.68276600  0.03104800  0.63971100  1
  O  O1  1  0.33374400  0.34652500  0.97719400  1
  O  O2  1  0.96462000  0.23393400  0.20554700  1
  O  O3  1  0.61618700  0.61003700  0.55488900  1
  O  O4  1  0.41037400  0.40332200  0.44271600  1
  O  O5  1  0.70267600  0.09181000  0.14121900  1
  O  O6  1  0.33002400  0.97004600  0.35944600  1
  O  O7  1  0.67590100  0.64910100  0.01563500  1
  O  O8  1  0.99665000  0.28742800  0.67656800  1
  O  O9  1  0.01071100  0.67720600  0.29762600  1
  F  F0  1  0.28823200  0.89995800  0.85796700  1
  F  F1  1  0.04036800  0.75406400  0.78146600  1
loop_
_geom_bond_atom_site_label_1
_geom_bond_atom_site_label_2
_geom_bond_distance
_geom_bond_site_symmetry_2
Mg0 O4 1.992591 1_555
Mg0 O0 1.996167 1_555
Mg0 O6 2.000803 1_545
Mg0 O3 2.095209 1_545
Mg0 O5 2.158343 1_555
Fe0 O7 1.948690 1_556
Fe0 O8 1.954538 1_555
Fe0 O9 1.974983 1_655
Fe0 O0 2.033793 1_565
Fe0 O3 2.072381 1_555
Fe1 O2 1.908958 1_555
Fe1 O7 1.931178 1_555
Fe1 O4 1.966587 1_555
Fe1 O3 2.011298 1_555
Fe1 O0 2.172188 1_555
Fe1 O5 2.190535 1_555
Fe2 O4 1.860384 1_555
Fe2 O1 1.946050 1_555
Fe2 O3 2.077605 1_555
Fe2 O6 2.156237 1_555
Fe3 O1 1.915049 1_554
Fe3 O9 1.930416 1_555
Fe3 O8 1.936429 1_455
Fe3 O6 1.948327 1_545
Fe3 O2 1.976826 1_455
Fe4 O5 1.937753 1_555
Fe4 O7 1.958801 1_545
Fe4 O0 1.960289 1_554
Fe4 O1 1.973705 1_554
Fe4 O6 2.058506 1_545
Fe5 O5 1.955517 1_555
Fe5 O2 1.968175 1_555
Fe5 O9 2.017244 1_645
Fe5 O8 2.052667 1_554
F0 Mg0 2.030561 1_565
F0 Fe5 2.076428 1_466
F0 Fe2 2.141229 1_555
F1 Fe2 1.982533 1_555
F1 Fe5 2.100761 1_466
F1 Fe0 2.490009 1_455
