# generated using pymatgen
data_MgPb2
_symmetry_space_group_name_H-M   'P 1'
_cell_length_a   15.68313727
_cell_length_b   15.68313727
_cell_length_c   13.77271293
_cell_angle_alpha   67.64579829
_cell_angle_beta   67.64579829
_cell_angle_gamma   25.82705903
_symmetry_Int_Tables_number   1
_chemical_formula_structural   MgPb2
_chemical_formula_sum   'Mg16 Pb32'
_cell_volume   1358.81920797
_cell_formula_units_Z   16
loop_
 _symmetry_equiv_pos_site_id
 _symmetry_equiv_pos_as_xyz
  1  'x, y, z'
loop_
 _atom_site_type_symbol
 _atom_site_label
 _atom_site_symmetry_multiplicity
 _atom_site_fract_x
 _atom_site_fract_y
 _atom_site_fract_z
 _atom_site_occupancy
  Mg  Mg0_0  1  0.24936835  0.24936835  0.37486400  1
  Mg  Mg0_1  1  0.24936835  0.24936835  0.87486400  1
  Mg  Mg0_2  1  0.24936835  0.74936835  0.37486400  1
  Mg  Mg0_3  1  0.24936835  0.74936835  0.87486400  1
  Mg  Mg0_4  1  0.74936835  0.24936835  0.37486400  1
  Mg  Mg0_5  1  0.74936835  0.24936835  0.87486400  1
  Mg  Mg0_6  1  0.74936835  0.74936835  0.37486400  1
  Mg  Mg0_7  1  0.74936835  0.74936835  0.87486400  1
  Mg  Mg1_0  1  0.25063165  0.25063165  0.12513600  1
  Mg  Mg1_1  1  0.25063165  0.25063165  0.62513600  1
  Mg  Mg1_2  1  0.25063165  0.75063165  0.12513600  1
  Mg  Mg1_3  1  0.25063165  0.75063165  0.62513600  1
  Mg  Mg1_4  1  0.75063165  0.25063165  0.12513600  1
  Mg  Mg1_5  1  0.75063165  0.25063165  0.62513600  1
  Mg  Mg1_6  1  0.75063165  0.75063165  0.12513600  1
  Mg  Mg1_7  1  0.75063165  0.75063165  0.62513600  1
  Pb  Pb0_0  1  0.07279525  0.07279525  0.43536601  1
  Pb  Pb0_1  1  0.07279525  0.07279525  0.93536601  1
  Pb  Pb0_2  1  0.07279525  0.57279525  0.43536601  1
  Pb  Pb0_3  1  0.07279525  0.57279525  0.93536601  1
  Pb  Pb0_4  1  0.57279525  0.07279525  0.43536601  1
  Pb  Pb0_5  1  0.57279525  0.07279525  0.93536601  1
  Pb  Pb0_6  1  0.57279525  0.57279525  0.43536601  1
  Pb  Pb0_7  1  0.57279525  0.57279525  0.93536602  1
  Pb  Pb1_0  1  0.42665095  0.42665095  0.31398742  1
  Pb  Pb1_1  1  0.42665095  0.42665095  0.81398742  1
  Pb  Pb1_2  1  0.42665095  0.92665095  0.31398742  1
  Pb  Pb1_3  1  0.42665095  0.92665095  0.81398742  1
  Pb  Pb1_4  1  0.92665095  0.42665095  0.31398742  1
  Pb  Pb1_5  1  0.92665095  0.42665095  0.81398742  1
  Pb  Pb1_6  1  0.92665095  0.92665095  0.31398742  1
  Pb  Pb1_7  1  0.92665095  0.92665095  0.81398742  1
  Pb  Pb2_0  1  0.07334906  0.07334906  0.18601258  1
  Pb  Pb2_1  1  0.07334906  0.07334906  0.68601258  1
  Pb  Pb2_2  1  0.07334906  0.57334906  0.18601258  1
  Pb  Pb2_3  1  0.07334906  0.57334906  0.68601258  1
  Pb  Pb2_4  1  0.57334905  0.07334905  0.18601258  1
  Pb  Pb2_5  1  0.57334905  0.07334905  0.68601258  1
  Pb  Pb2_6  1  0.57334906  0.57334906  0.18601258  1
  Pb  Pb2_7  1  0.57334906  0.57334906  0.68601258  1
  Pb  Pb3_0  1  0.42720476  0.42720476  0.06463399  1
  Pb  Pb3_1  1  0.42720476  0.42720476  0.56463398  1
  Pb  Pb3_2  1  0.42720476  0.92720476  0.06463399  1
  Pb  Pb3_3  1  0.42720476  0.92720476  0.56463399  1
  Pb  Pb3_4  1  0.92720475  0.42720476  0.06463399  1
  Pb  Pb3_5  1  0.92720476  0.42720476  0.56463399  1
  Pb  Pb3_6  1  0.92720476  0.92720476  0.06463399  1
  Pb  Pb3_7  1  0.92720476  0.92720476  0.56463398  1
loop_
_geom_bond_atom_site_label_1
_geom_bond_atom_site_label_2
_geom_bond_distance
_geom_bond_site_symmetry_2
Mg0_0 Pb1_2 3.189237 1_545
Mg0_0 Pb1_4 3.189237 1_455
Mg0_0 Pb0_4 3.203854 1_555
Mg0_0 Pb0_2 3.203854 1_555
Mg0_0 Pb3_3 3.204633 1_545
Mg0_0 Pb3_5 3.204633 1_455
Mg0_0 Pb2_4 3.218841 1_555
Mg0_0 Pb2_2 3.218841 1_555
Mg0_0 Mg1_0 3.424546 1_555
Mg0_0 Mg1_1 3.462178 1_555
Mg0_0 Mg0_6 3.504872 1_455
Mg0_0 Mg0_6 3.504872 1_545
Mg0_1 Pb1_3 3.189237 1_545
Mg0_1 Pb1_5 3.189237 1_455
Mg0_1 Pb0_5 3.203854 1_555
Mg0_1 Pb0_3 3.203854 1_555
Mg0_1 Pb3_2 3.204633 1_546
Mg0_1 Pb3_4 3.204633 1_456
Mg0_1 Pb2_5 3.218841 1_555
Mg0_1 Pb2_3 3.218841 1_555
Mg0_1 Mg1_1 3.424546 1_555
Mg0_1 Mg1_0 3.462178 1_556
Mg0_1 Mg0_7 3.504872 1_455
Mg0_1 Mg0_7 3.504872 1_545
Mg0_2 Pb1_6 3.189237 1_455
Mg0_2 Pb1_0 3.189237 1_555
Mg0_2 Pb0_0 3.203854 1_565
Mg0_2 Pb0_6 3.203854 1_555
Mg0_2 Pb3_7 3.204633 1_455
Mg0_2 Pb3_1 3.204633 1_555
Mg0_2 Pb2_0 3.218841 1_565
Mg0_2 Pb2_6 3.218841 1_555
Mg0_2 Mg1_2 3.424546 1_555
Mg0_2 Mg1_3 3.462178 1_555
Mg0_2 Mg0_4 3.504872 1_555
Mg0_2 Mg0_4 3.504872 1_465
Mg0_3 Pb1_1 3.189237 1_555
Mg0_3 Pb1_7 3.189237 1_455
Mg0_3 Pb0_1 3.203854 1_565
Mg0_3 Pb0_7 3.203854 1_555
Mg0_3 Pb3_6 3.204633 1_456
Mg0_3 Pb3_0 3.204633 1_556
Mg0_3 Pb2_1 3.218841 1_565
Mg0_3 Pb2_7 3.218841 1_555
Mg0_3 Mg1_3 3.424546 1_555
Mg0_3 Mg1_2 3.462178 1_556
Mg0_3 Mg0_5 3.504872 1_465
Mg0_3 Mg0_5 3.504872 1_555
Mg0_4 Pb1_6 3.189237 1_545
Mg0_4 Pb1_0 3.189237 1_555
Mg0_4 Pb0_0 3.203854 1_655
Mg0_4 Pb0_6 3.203854 1_555
Mg0_4 Pb3_7 3.204633 1_545
Mg0_4 Pb3_1 3.204633 1_555
Mg0_4 Pb2_0 3.218841 1_655
Mg0_4 Pb2_6 3.218841 1_555
Mg0_4 Mg1_4 3.424546 1_555
Mg0_4 Mg1_5 3.462178 1_555
Mg0_5 Pb1_1 3.189237 1_555
Mg0_5 Pb1_7 3.189237 1_545
Mg0_5 Pb0_1 3.203854 1_655
Mg0_5 Pb0_7 3.203854 1_555
Mg0_5 Pb3_6 3.204633 1_546
Mg0_5 Pb3_0 3.204633 1_556
Mg0_5 Pb2_1 3.218841 1_655
Mg0_5 Pb2_7 3.218841 1_555
Mg0_5 Mg1_5 3.424546 1_555
Mg0_5 Mg1_4 3.462178 1_556
Mg0_6 Pb1_2 3.189237 1_555
Mg0_6 Pb1_4 3.189237 1_555
Mg0_6 Pb0_4 3.203854 1_565
Mg0_6 Pb0_2 3.203854 1_655
Mg0_6 Pb3_3 3.204633 1_555
Mg0_6 Pb3_5 3.204633 1_555
Mg0_6 Pb2_4 3.218841 1_565
Mg0_6 Pb2_2 3.218841 1_655
Mg0_6 Mg1_6 3.424546 1_555
Mg0_6 Mg1_7 3.462178 1_555
Mg0_7 Pb1_3 3.189237 1_555
Mg0_7 Pb1_5 3.189237 1_555
Mg0_7 Pb0_5 3.203854 1_565
Mg0_7 Pb0_3 3.203854 1_655
Mg0_7 Pb3_2 3.204633 1_556
Mg0_7 Pb3_4 3.204633 1_556
Mg0_7 Pb2_3 3.218841 1_655
Mg0_7 Pb2_5 3.218841 1_565
Mg0_7 Mg1_7 3.424546 1_555
Mg0_7 Mg1_6 3.462178 1_556
Mg1_0 Pb2_4 3.189237 1_555
Mg1_0 Pb2_2 3.189237 1_555
Mg1_0 Pb3_2 3.203854 1_545
Mg1_0 Pb3_4 3.203854 1_455
Mg1_0 Pb0_5 3.204633 1_554
Mg1_0 Pb0_3 3.204633 1_554
Mg1_0 Pb1_2 3.218841 1_545
Mg1_0 Pb1_4 3.218841 1_455
Mg1_0 Mg1_6 3.504872 1_455
Mg1_0 Mg1_6 3.504872 1_545
Mg1_1 Pb2_5 3.189237 1_555
Mg1_1 Pb2_3 3.189237 1_555
Mg1_1 Pb3_3 3.203854 1_545
Mg1_1 Pb3_5 3.203854 1_455
Mg1_1 Pb0_4 3.204633 1_555
Mg1_1 Pb0_2 3.204633 1_555
Mg1_1 Pb1_3 3.218841 1_545
Mg1_1 Pb1_5 3.218841 1_455
Mg1_1 Mg1_7 3.504872 1_455
Mg1_1 Mg1_7 3.504872 1_545
Mg1_2 Pb2_0 3.189237 1_565
Mg1_2 Pb2_6 3.189237 1_555
Mg1_2 Pb3_6 3.203854 1_455
Mg1_2 Pb3_0 3.203854 1_555
Mg1_2 Pb0_1 3.204633 1_564
Mg1_2 Pb0_7 3.204633 1_554
Mg1_2 Pb1_6 3.218841 1_455
Mg1_2 Pb1_0 3.218841 1_555
Mg1_2 Mg1_4 3.504872 1_465
Mg1_2 Mg1_4 3.504872 1_555
Mg1_3 Pb2_1 3.189237 1_565
Mg1_3 Pb2_7 3.189237 1_555
Mg1_3 Pb3_7 3.203854 1_455
Mg1_3 Pb3_1 3.203854 1_555
Mg1_3 Pb0_0 3.204633 1_565
Mg1_3 Pb0_6 3.204633 1_555
Mg1_3 Pb1_7 3.218841 1_455
Mg1_3 Pb1_1 3.218841 1_555
Mg1_3 Mg1_5 3.504872 1_465
Mg1_3 Mg1_5 3.504872 1_555
Mg1_4 Pb2_0 3.189237 1_655
Mg1_4 Pb2_6 3.189237 1_555
Mg1_4 Pb3_6 3.203854 1_545
Mg1_4 Pb3_0 3.203854 1_555
Mg1_4 Pb0_1 3.204633 1_654
Mg1_4 Pb0_7 3.204633 1_554
Mg1_4 Pb1_6 3.218841 1_545
Mg1_4 Pb1_0 3.218841 1_555
Mg1_5 Pb2_1 3.189237 1_655
Mg1_5 Pb2_7 3.189237 1_555
Mg1_5 Pb3_7 3.203854 1_545
Mg1_5 Pb3_1 3.203854 1_555
Mg1_5 Pb0_0 3.204633 1_655
Mg1_5 Pb0_6 3.204633 1_555
Mg1_5 Pb1_7 3.218841 1_545
Mg1_5 Pb1_1 3.218841 1_555
Mg1_6 Pb2_4 3.189237 1_565
Mg1_6 Pb2_2 3.189237 1_655
Mg1_6 Pb3_2 3.203854 1_555
Mg1_6 Pb3_4 3.203854 1_555
Mg1_6 Pb0_5 3.204633 1_564
Mg1_6 Pb0_3 3.204633 1_654
Mg1_6 Pb1_2 3.218841 1_555
Mg1_6 Pb1_4 3.218841 1_555
Mg1_7 Pb2_5 3.189237 1_565
Mg1_7 Pb2_3 3.189237 1_655
Mg1_7 Pb3_3 3.203854 1_555
Mg1_7 Pb3_5 3.203854 1_555
Mg1_7 Pb0_4 3.204633 1_565
Mg1_7 Pb0_2 3.204633 1_655
Mg1_7 Pb1_3 3.218841 1_555
Mg1_7 Pb1_5 3.218841 1_555
Pb0_0 Pb2_0 3.427702 1_555
Pb0_0 Pb1_4 3.435849 1_455
Pb0_0 Pb1_2 3.435849 1_545
Pb0_0 Pb2_1 3.458725 1_555
Pb0_0 Pb0_6 3.504872 1_455
Pb0_0 Pb0_6 3.504872 1_545
Pb0_1 Pb2_1 3.427702 1_555
Pb0_1 Pb1_5 3.435849 1_455
Pb0_1 Pb1_3 3.435849 1_545
Pb0_1 Pb2_0 3.458725 1_556
Pb0_1 Pb0_7 3.504872 1_545
Pb0_1 Pb0_7 3.504872 1_455
Pb0_2 Pb2_2 3.427702 1_555
Pb0_2 Pb1_0 3.435849 1_555
Pb0_2 Pb1_6 3.435849 1_455
Pb0_2 Pb2_3 3.458725 1_555
Pb0_2 Pb0_4 3.504872 1_555
Pb0_2 Pb0_4 3.504872 1_465
Pb0_3 Pb2_3 3.427702 1_555
Pb0_3 Pb1_7 3.435849 1_455
Pb0_3 Pb1_1 3.435849 1_555
Pb0_3 Pb2_2 3.458725 1_556
Pb0_3 Pb0_5 3.504872 1_555
Pb0_3 Pb0_5 3.504872 1_465
Pb0_4 Pb2_4 3.427702 1_555
Pb0_4 Pb1_0 3.435849 1_555
Pb0_4 Pb1_6 3.435849 1_545
Pb0_4 Pb2_5 3.458725 1_555
Pb0_5 Pb2_5 3.427702 1_555
Pb0_5 Pb1_7 3.435849 1_545
Pb0_5 Pb1_1 3.435849 1_555
Pb0_5 Pb2_4 3.458725 1_556
Pb0_6 Pb2_6 3.427702 1_555
Pb0_6 Pb1_4 3.435849 1_555
Pb0_6 Pb1_2 3.435849 1_555
Pb0_6 Pb2_7 3.458725 1_555
Pb0_7 Pb2_7 3.427702 1_555
Pb0_7 Pb1_5 3.435849 1_555
Pb0_7 Pb1_3 3.435849 1_555
Pb0_7 Pb2_6 3.458725 1_556
Pb1_0 Pb3_0 3.427702 1_555
Pb1_0 Pb3_1 3.458725 1_555
Pb1_0 Pb1_6 3.504872 1_545
Pb1_0 Pb1_6 3.504872 1_455
Pb1_1 Pb3_1 3.427702 1_555
Pb1_1 Pb3_0 3.458725 1_556
Pb1_1 Pb1_7 3.504872 1_545
Pb1_1 Pb1_7 3.504872 1_455
Pb1_2 Pb3_2 3.427702 1_555
Pb1_2 Pb3_3 3.458725 1_555
Pb1_2 Pb1_4 3.504872 1_465
Pb1_2 Pb1_4 3.504872 1_555
Pb1_3 Pb3_3 3.427702 1_555
Pb1_3 Pb3_2 3.458725 1_556
Pb1_3 Pb1_5 3.504872 1_465
Pb1_3 Pb1_5 3.504872 1_555
Pb1_4 Pb3_4 3.427702 1_555
Pb1_4 Pb3_5 3.458725 1_555
Pb1_5 Pb3_5 3.427702 1_555
Pb1_5 Pb3_4 3.458725 1_556
Pb1_6 Pb3_6 3.427702 1_555
Pb1_6 Pb3_7 3.458725 1_555
Pb1_7 Pb3_7 3.427702 1_555
Pb1_7 Pb3_6 3.458725 1_556
Pb2_0 Pb3_4 3.435849 1_455
Pb2_0 Pb3_2 3.435849 1_545
Pb2_0 Pb2_6 3.504872 1_545
Pb2_0 Pb2_6 3.504872 1_455
Pb2_1 Pb3_5 3.435849 1_455
Pb2_1 Pb3_3 3.435849 1_545
Pb2_1 Pb2_7 3.504872 1_455
Pb2_1 Pb2_7 3.504872 1_545
Pb2_2 Pb3_0 3.435849 1_555
Pb2_2 Pb3_6 3.435849 1_455
Pb2_2 Pb2_4 3.504872 1_465
Pb2_2 Pb2_4 3.504872 1_555
Pb2_3 Pb3_1 3.435849 1_555
Pb2_3 Pb3_7 3.435849 1_455
Pb2_3 Pb2_5 3.504872 1_555
Pb2_3 Pb2_5 3.504872 1_465
Pb2_4 Pb3_0 3.435849 1_555
Pb2_4 Pb3_6 3.435849 1_545
Pb2_5 Pb3_1 3.435849 1_555
Pb2_5 Pb3_7 3.435849 1_545
Pb2_6 Pb3_4 3.435849 1_555
Pb2_6 Pb3_2 3.435849 1_555
Pb2_7 Pb3_5 3.435849 1_555
Pb2_7 Pb3_3 3.435849 1_555
Pb3_0 Pb3_6 3.504872 1_455
Pb3_0 Pb3_6 3.504872 1_545
Pb3_1 Pb3_7 3.504872 1_455
Pb3_1 Pb3_7 3.504872 1_545
Pb3_2 Pb3_4 3.504872 1_555
Pb3_2 Pb3_4 3.504872 1_465
Pb3_3 Pb3_5 3.504872 1_555
Pb3_3 Pb3_5 3.504872 1_465
