# generated using pymatgen
data_Mo(PO4)2
_symmetry_space_group_name_H-M   'P 1'
_cell_length_a   12.94992000
_cell_length_b   4.98152300
_cell_length_c   10.89585155
_cell_angle_alpha   84.96084249
_cell_angle_beta   90.00000000
_cell_angle_gamma   90.00000000
_symmetry_Int_Tables_number   1
_chemical_formula_structural   Mo(PO4)2
_chemical_formula_sum   'Mo4 P8 O32'
_cell_volume   700.17815855
_cell_formula_units_Z   4
loop_
 _symmetry_equiv_pos_site_id
 _symmetry_equiv_pos_as_xyz
  1  'x, y, z'
loop_
 _atom_site_type_symbol
 _atom_site_label
 _atom_site_symmetry_multiplicity
 _atom_site_fract_x
 _atom_site_fract_y
 _atom_site_fract_z
 _atom_site_occupancy
  Mo  Mo0  1  0.57089400  0.80354000  0.28881300  1
  Mo  Mo1  1  0.07089400  0.69646000  0.21118700  1
  Mo  Mo2  1  0.92910600  0.30354000  0.78881300  1
  Mo  Mo3  1  0.42910600  0.19646000  0.71118700  1
  P  P0  1  0.41113600  0.30295800  0.38478000  1
  P  P1  1  0.58886400  0.69704200  0.61522000  1
  P  P2  1  0.25175900  0.69885800  0.70550000  1
  P  P3  1  0.75175900  0.80114200  0.79450000  1
  P  P4  1  0.91113600  0.19704200  0.11522000  1
  P  P5  1  0.24824100  0.19885800  0.20550000  1
  P  P6  1  0.08886400  0.80295800  0.88478000  1
  P  P7  1  0.74824100  0.30114200  0.29450000  1
  O  O0  1  0.33444500  0.47646100  0.74809500  1
  O  O1  1  0.83444500  0.02353900  0.75190500  1
  O  O2  1  0.31584300  0.96098200  0.66999200  1
  O  O3  1  0.67498000  0.87564300  0.88433800  1
  O  O4  1  0.16555500  0.97646100  0.24809500  1
  O  O5  1  0.68415700  0.03901800  0.33000800  1
  O  O6  1  0.32502000  0.12435700  0.11566200  1
  O  O7  1  0.47444100  0.04795100  0.36593900  1
  O  O8  1  0.44765700  0.06267000  0.85684100  1
  O  O9  1  0.04467600  0.04087900  0.79833100  1
  O  O10  1  0.79630500  0.24444300  0.16101800  1
  O  O11  1  0.29630500  0.25555700  0.33898200  1
  O  O12  1  0.90314800  0.13921600  0.98293300  1
  O  O13  1  0.97444100  0.45204900  0.13406100  1
  O  O14  1  0.82502000  0.37564300  0.38433800  1
  O  O15  1  0.40314800  0.36078400  0.51706700  1
  O  O16  1  0.18415700  0.46098200  0.16999200  1
  O  O17  1  0.66555500  0.52353900  0.25190500  1
  O  O18  1  0.54467600  0.45912100  0.70166900  1
  O  O19  1  0.55234300  0.93733000  0.14315900  1
  O  O20  1  0.05234300  0.56267000  0.35684100  1
  O  O21  1  0.45532400  0.54087900  0.29833100  1
  O  O22  1  0.94765700  0.43733000  0.64315900  1
  O  O23  1  0.81584300  0.53901800  0.83000800  1
  O  O24  1  0.59685200  0.63921600  0.48293300  1
  O  O25  1  0.17498000  0.62435700  0.61566200  1
  O  O26  1  0.02555900  0.54795100  0.86593900  1
  O  O27  1  0.09685200  0.86078400  0.01706700  1
  O  O28  1  0.70369500  0.74444300  0.66101800  1
  O  O29  1  0.20369500  0.75555700  0.83898200  1
  O  O30  1  0.95532400  0.95912100  0.20166900  1
  O  O31  1  0.52555900  0.95204900  0.63406100  1
loop_
_geom_bond_atom_site_label_1
_geom_bond_atom_site_label_2
_geom_bond_distance
_geom_bond_site_symmetry_2
Mo0 O19 1.683668 1_555
Mo0 O17 1.925754 1_555
Mo0 O5 1.954823 1_565
Mo0 O7 1.982041 1_565
Mo0 O21 1.984651 1_555
Mo0 O24 2.225439 1_555
Mo1 O20 1.683668 1_555
Mo1 O4 1.925754 1_555
Mo1 O16 1.954823 1_555
Mo1 O13 1.982041 1_455
Mo1 O30 1.984651 1_455
Mo1 O27 2.225439 1_555
Mo2 O22 1.683668 1_555
Mo2 O1 1.925754 1_555
Mo2 O23 1.954823 1_555
Mo2 O26 1.982041 1_655
Mo2 O9 1.984651 1_655
Mo2 O12 2.225439 1_555
Mo3 O8 1.683668 1_555
Mo3 O0 1.925754 1_555
Mo3 O2 1.954823 1_545
Mo3 O31 1.982041 1_545
Mo3 O18 1.984651 1_555
Mo3 O15 2.225439 1_555
O0 P2 1.580830 1_555
O1 P3 1.580830 1_545
O2 P2 1.566746 1_555
O3 P3 1.465715 1_555
O4 P5 1.580830 1_565
O5 P7 1.566746 1_555
O6 P5 1.465715 1_555
O7 P0 1.540695 1_555
O9 P6 1.556692 1_545
O10 P4 1.592730 1_555
O10 P7 1.629305 1_555
O11 P0 1.592730 1_555
O11 P5 1.629305 1_555
O12 P4 1.498064 1_556
O13 P4 1.540695 1_555
O14 P7 1.465715 1_555
O15 P0 1.498064 1_555
O16 P5 1.566746 1_555
O17 P7 1.580830 1_555
O18 P1 1.556692 1_555
O21 P0 1.556692 1_555
O23 P3 1.566746 1_555
O24 P1 1.498064 1_555
O25 P2 1.465715 1_555
O26 P6 1.540695 1_555
O27 P6 1.498064 1_554
O28 P1 1.592730 1_555
O28 P3 1.629305 1_555
O29 P6 1.592730 1_555
O29 P2 1.629305 1_555
O30 P4 1.556692 1_565
O31 P1 1.540695 1_555
