# generated using pymatgen
data_Na3Y2Sc2P3(SO8)3
_symmetry_space_group_name_H-M   'P 1'
_cell_length_a   9.03250743
_cell_length_b   9.02176541
_cell_length_c   23.75288415
_cell_angle_alpha   89.56877803
_cell_angle_beta   90.45788772
_cell_angle_gamma   120.29143734
_symmetry_Int_Tables_number   1
_chemical_formula_structural   Na3Y2Sc2P3(SO8)3
_chemical_formula_sum   'Na9 Y6 Sc6 P9 S9 O72'
_cell_volume   1671.26957808
_cell_formula_units_Z   3
loop_
 _symmetry_equiv_pos_site_id
 _symmetry_equiv_pos_as_xyz
  1  'x, y, z'
loop_
 _atom_site_type_symbol
 _atom_site_label
 _atom_site_symmetry_multiplicity
 _atom_site_fract_x
 _atom_site_fract_y
 _atom_site_fract_z
 _atom_site_occupancy
  Na  Na0  1  0.35984390  0.35969745  0.25202058  1
  Na  Na1  1  0.68545588  0.01889810  0.91800322  1
  Na  Na2  1  0.97924250  0.30888665  0.41587025  1
  Na  Na3  1  0.00837119  0.99649523  0.49770712  1
  Na  Na4  1  0.00386443  0.98861566  0.00304590  1
  Na  Na5  1  0.65764944  0.33601191  0.83529422  1
  Na  Na6  1  0.66584089  0.33409921  0.33349802  1
  Na  Na7  1  0.33339625  0.68857695  0.16880776  1
  Na  Na8  1  0.33345457  0.66730275  0.66720771  1
  Y  Y0  1  0.00154835  0.99513741  0.85180532  1
  Y  Y1  1  0.99165629  0.00682698  0.64597621  1
  Y  Y2  1  0.67302622  0.32682330  0.68431163  1
  Y  Y3  1  0.33960554  0.67475888  0.02177520  1
  Y  Y4  1  0.32503350  0.66110870  0.51468467  1
  Y  Y5  1  0.34491308  0.67505778  0.81850372  1
  Sc  Sc0  1  0.01211850  0.00082723  0.34809952  1
  Sc  Sc1  1  0.99844870  0.00448163  0.15074877  1
  Sc  Sc2  1  0.67264994  0.31798740  0.18625491  1
  Sc  Sc3  1  0.66129316  0.33182349  0.98571929  1
  Sc  Sc4  1  0.66737135  0.33948127  0.47936140  1
  Sc  Sc5  1  0.31863613  0.66472690  0.31570050  1
  P  P0  1  0.29033017  0.99889143  0.24838855  1
  P  P1  1  0.00082874  0.28988263  0.25161887  1
  P  P2  1  0.69944073  0.99841121  0.75199597  1
  P  P3  1  0.95831897  0.33395470  0.57840922  1
  P  P4  1  0.67747999  0.04790908  0.08437936  1
  P  P5  1  0.63120802  0.65873088  0.91985831  1
  P  P6  1  0.34081038  0.97328980  0.91966317  1
  P  P7  1  0.33467558  0.36980691  0.41221066  1
  P  P8  1  0.03312128  0.66757618  0.41429107  1
  S  S0  1  0.70675855  0.70782187  0.24965413  1
  S  S1  1  0.29921837  0.30035260  0.74930763  1
  S  S2  1  0.00145443  0.70227993  0.74888570  1
  S  S3  1  0.37438239  0.04189102  0.58040692  1
  S  S4  1  0.66690510  0.62383156  0.58095975  1
  S  S5  1  0.94923901  0.62331875  0.08606350  1
  S  S6  1  0.37458057  0.32555567  0.08707293  1
  S  S7  1  0.02901017  0.36968441  0.91883516  1
  S  S8  1  0.63187259  0.96431898  0.41434778  1
  O  O0  1  0.20875057  0.03214704  0.30049962  1
  O  O1  1  0.81208027  0.78882781  0.30016294  1
  O  O2  1  0.97501560  0.18433619  0.30575781  1
  O  O3  1  0.21713640  0.19812836  0.80022762  1
  O  O4  1  0.98833474  0.78671189  0.80003854  1
  O  O5  1  0.79696883  0.01241131  0.80711953  1
  O  O6  1  0.79659087  0.98732034  0.70055850  1
  O  O7  1  0.19928417  0.21266581  0.69838101  1
  O  O8  1  0.01950190  0.80478569  0.69812910  1
  O  O9  1  0.78828962  0.81220762  0.19875780  1
  O  O10  1  0.03001526  0.20097308  0.20083579  1
  O  O11  1  0.17745146  0.97298883  0.19629080  1
  O  O12  1  0.87128760  0.34716061  0.63186046  1
  O  O13  1  0.46766759  0.12150664  0.63295325  1
  O  O14  1  0.64766910  0.52772471  0.63321195  1
  O  O15  1  0.86164341  0.51886180  0.13622915  1
  O  O16  1  0.65862759  0.14326756  0.13522894  1
  O  O17  1  0.47758355  0.34751818  0.13835121  1
  O  O18  1  0.45985614  0.30996829  0.03612471  1
  O  O19  1  0.84950093  0.54183450  0.03422570  1
  O  O20  1  0.69364798  0.14804641  0.02921707  1
  O  O21  1  0.46482128  0.14881629  0.53077792  1
  O  O22  1  0.67728731  0.53201924  0.53104776  1
  O  O23  1  0.85290983  0.32380561  0.52510556  1
  O  O24  1  0.54136342  0.68839644  0.96962807  1
  O  O25  1  0.13501867  0.45165508  0.96863563  1
  O  O26  1  0.31290865  0.85835117  0.97099446  1
  O  O27  1  0.55840514  0.86516373  0.46625760  1
  O  O28  1  0.29903012  0.45046295  0.46368336  1
  O  O29  1  0.14097922  0.70145739  0.46786653  1
  O  O30  1  0.12372784  0.63494301  0.36438576  1
  O  O31  1  0.52150598  0.87799647  0.36510296  1
  O  O32  1  0.35986288  0.48120710  0.35916430  1
  O  O33  1  0.10730798  0.46872059  0.86715950  1
  O  O34  1  0.37050922  0.89236941  0.86689702  1
  O  O35  1  0.52583351  0.63021355  0.86547113  1
  O  O36  1  0.00559008  0.82007348  0.40384296  1
  O  O37  1  0.80733763  0.99010668  0.40768496  1
  O  O38  1  0.16772765  0.19084148  0.40562089  1
  O  O39  1  0.00381047  0.19307364  0.91449173  1
  O  O40  1  0.18765616  0.00125240  0.91376818  1
  O  O41  1  0.80703256  0.82806629  0.91470511  1
  O  O42  1  0.97232381  0.16956381  0.58019284  1
  O  O43  1  0.20116465  0.02220678  0.58259572  1
  O  O44  1  0.82734572  0.79387313  0.58268556  1
  O  O45  1  0.96887377  0.79663602  0.09050165  1
  O  O46  1  0.83919559  0.03139025  0.09172946  1
  O  O47  1  0.20260852  0.16759750  0.09067664  1
  O  O48  1  0.68154014  0.15953835  0.74873140  1
  O  O49  1  0.47274855  0.32284624  0.74615199  1
  O  O50  1  0.84267697  0.53249600  0.74644564  1
  O  O51  1  0.68222467  0.53146472  0.24393861  1
  O  O52  1  0.84490418  0.31467167  0.24300160  1
  O  O53  1  0.46836324  0.16800023  0.24147386  1
  O  O54  1  0.65637870  0.50420927  0.92890743  1
  O  O55  1  0.85487968  0.34794712  0.92428294  1
  O  O56  1  0.50990607  0.14819274  0.92688080  1
  O  O57  1  0.65280453  0.13993263  0.41947529  1
  O  O58  1  0.49197641  0.34823464  0.42192144  1
  O  O59  1  0.85753230  0.49665910  0.42093843  1
  O  O60  1  0.35332377  0.47778469  0.08199758  1
  O  O61  1  0.12078183  0.63821386  0.08272562  1
  O  O62  1  0.51424501  0.86738795  0.08315722  1
  O  O63  1  0.36086473  0.87185303  0.57698890  1
  O  O64  1  0.51747099  0.64855390  0.57638757  1
  O  O65  1  0.13947213  0.49405507  0.57746649  1
  O  O66  1  0.31426741  0.84244337  0.25758579  1
  O  O67  1  0.53214395  0.68640148  0.25520836  1
  O  O68  1  0.16950400  0.46882965  0.25727795  1
  O  O69  1  0.30990525  0.46910363  0.75227567  1
  O  O70  1  0.15204405  0.67934336  0.75291664  1
  O  O71  1  0.51991136  0.83568670  0.75161744  1
loop_
_geom_bond_atom_site_label_1
_geom_bond_atom_site_label_2
_geom_bond_distance
_geom_bond_site_symmetry_2
Na0 O68 2.377742 1_555
Na0 O53 2.394809 1_555
Na0 O51 2.523845 1_555
Na0 O67 2.547402 1_555
Na0 O32 2.778562 1_555
Na0 O0 2.797592 1_555
Na0 O10 2.840576 1_555
Na0 O17 2.932777 1_555
Na1 O56 2.407144 1_555
Na1 O41 2.467132 1_545
Na1 O39 2.487663 1_655
Na1 O55 2.568438 1_555
Na1 O34 2.749376 1_545
Na1 O5 2.838853 1_555
Na1 O24 2.853731 1_545
Na1 O20 2.880553 1_556
Na2 O38 2.435471 1_655
Na2 O59 2.444736 1_555
Na2 O37 2.493718 1_545
Na2 O57 2.548105 1_555
Na2 O28 2.740829 1_655
Na2 O30 2.819633 1_655
Na2 O2 2.846791 1_555
Na2 O23 2.874017 1_555
Na3 O43 2.587546 1_565
Na3 O42 2.636624 1_465
Na3 O44 2.659211 1_455
Na3 O38 2.716072 1_565
Na3 O36 2.741713 1_555
Na3 O37 2.776161 1_455
Na4 O45 2.611341 1_455
Na4 O41 2.655226 1_454
Na4 O40 2.669755 1_564
Na4 O47 2.688716 1_565
Na4 O46 2.727607 1_465
Na4 O39 2.787346 1_564
Na5 O49 2.652145 1_555
Na5 O56 2.663533 1_555
Na5 O48 2.685503 1_555
Na5 O54 2.704781 1_555
Na5 O50 2.720412 1_555
Na5 O55 2.720827 1_555
Na6 O59 2.624743 1_555
Na6 O57 2.644794 1_555
Na6 O58 2.674437 1_555
Na6 O51 2.720287 1_555
Na6 O53 2.737814 1_555
Na6 O52 2.759430 1_555
Na7 O66 2.587548 1_555
Na7 O62 2.599057 1_555
Na7 O61 2.673257 1_555
Na7 O67 2.722302 1_555
Na7 O68 2.750299 1_555
Na7 O60 2.882883 1_555
Na8 O71 2.564175 1_555
Na8 O69 2.625685 1_555
Na8 O70 2.660378 1_555
Na8 O65 2.698985 1_555
Na8 O63 2.747203 1_555
Na8 O64 2.791307 1_555
O0 P0 1.551870 1_545
O0 Sc0 2.008398 1_555
O1 S0 1.473789 1_555
O1 Sc0 2.175536 1_665
O2 P1 1.541801 1_655
O2 Sc0 2.096191 1_655
O3 S1 1.473387 1_555
O3 Y0 2.248002 1_545
O4 S2 1.475756 1_655
O4 Y0 2.206359 1_655
O5 P2 1.542131 1_545
O5 Y0 2.195944 1_645
O6 P2 1.542839 1_555
O6 Y1 2.129911 1_565
O7 S1 1.476639 1_555
O7 Y1 2.235911 1_455
O8 S2 1.472952 1_555
O8 Y1 2.311676 1_465
O9 S0 1.479255 1_555
O9 Sc1 2.143794 1_565
O10 P1 1.549481 1_555
O10 Sc1 2.038531 1_455
O11 P0 1.539258 1_555
O11 Sc1 2.072665 1_465
O12 P3 1.535192 1_555
O12 Y2 2.119802 1_555
O13 S3 1.473043 1_555
O13 Y2 2.211714 1_555
O14 S4 1.468902 1_555
O14 Y2 2.278598 1_555
O15 S5 1.476464 1_555
O15 Sc2 2.118833 1_555
O16 P4 1.547472 1_555
O16 Sc2 1.947969 1_555
O17 S6 1.479173 1_555
O17 Sc2 2.215186 1_555
O18 S6 1.484688 1_555
O18 Sc3 2.110026 1_554
O19 S5 1.481859 1_555
O19 Sc3 2.135304 1_554
O20 P4 1.551265 1_555
O20 Sc3 2.088071 1_554
O21 S3 1.480148 1_555
O21 Sc4 2.151040 1_555
O22 S4 1.481670 1_555
O22 Sc4 2.099035 1_555
O23 P3 1.553215 1_555
O23 Sc4 2.053495 1_555
O24 P5 1.538484 1_555
O24 Y3 2.162878 1_556
O25 S7 1.464148 1_555
O25 Y3 2.303934 1_556
O26 P6 1.532200 1_555
O26 Y3 2.150502 1_556
O27 S8 1.469193 1_555
O27 Y4 2.290796 1_555
O28 P7 1.544018 1_555
O28 Y4 2.171187 1_555
O29 P8 1.532195 1_555
O29 Y4 2.169760 1_555
O30 P8 1.557385 1_555
O30 Sc5 2.014830 1_555
O31 S8 1.476613 1_555
O31 Sc5 2.209003 1_555
O32 P7 1.550583 1_555
O32 Sc5 2.129751 1_555
O33 S7 1.471399 1_555
O33 Y5 2.320337 1_555
O34 P6 1.546776 1_555
O34 Y5 2.188806 1_555
O35 P5 1.542501 1_555
O35 Y5 2.170205 1_555
O36 P8 1.534683 1_555
O36 Sc0 2.070655 1_565
O37 S8 1.490816 1_555
O37 Sc0 2.300684 1_665
O38 P7 1.564995 1_555
O38 Sc0 2.086843 1_555
O39 S7 1.495803 1_555
O39 Y0 2.325739 1_545
O40 P6 1.531463 1_545
O40 Y0 2.205262 1_545
O41 P5 1.556851 1_555
O41 Y0 2.219804 1_655
O42 P3 1.551000 1_555
O42 Y1 2.201660 1_555
O43 S3 1.484268 1_555
O43 Y1 2.375778 1_455
O44 S4 1.487441 1_555
O44 Y1 2.298944 1_565
O45 S5 1.486583 1_555
O45 Sc1 2.272517 1_565
O46 P4 1.549665 1_555
O46 Sc1 2.099589 1_555
O47 S6 1.489363 1_555
O47 Sc1 2.207952 1_455
O48 P2 1.542876 1_545
O48 Y2 2.169201 1_555
O49 S1 1.477956 1_555
O49 Y2 2.325431 1_555
O50 S2 1.479980 1_655
O50 Y2 2.259651 1_555
O51 S0 1.498691 1_555
O51 Sc2 2.337489 1_555
O52 P1 1.545290 1_655
O52 Sc2 2.061876 1_555
O53 P0 1.570359 1_545
O53 Sc2 2.109340 1_555
O54 P5 1.534838 1_555
O54 Sc3 2.068524 1_555
O55 S7 1.490209 1_655
O55 Sc3 2.233649 1_555
O56 P6 1.555861 1_545
O56 Sc3 2.070420 1_555
O57 S8 1.503690 1_545
O57 Sc4 2.253517 1_555
O58 P7 1.543649 1_555
O58 Sc4 2.113678 1_555
O59 P8 1.565655 1_655
O59 Sc4 2.106704 1_555
O60 S6 1.483477 1_555
O60 Y3 2.323901 1_555
O61 S5 1.488936 1_455
O61 Y3 2.343607 1_555
O62 P4 1.550740 1_565
O62 Y3 2.206833 1_555
O63 S3 1.479037 1_565
O63 Y4 2.307313 1_555
O64 S4 1.477971 1_555
O64 Y4 2.310322 1_555
O65 P3 1.542735 1_455
O65 Y4 2.182276 1_555
O66 P0 1.545668 1_555
O66 Sc5 2.123041 1_555
O67 S0 1.495928 1_555
O67 Sc5 2.341282 1_555
O68 P1 1.569822 1_555
O68 Sc5 2.114035 1_555
O69 S1 1.478290 1_555
O69 Y5 2.338893 1_555
O70 S2 1.477734 1_555
O70 Y5 2.342442 1_555
O71 P2 1.543790 1_555
O71 Y5 2.194851 1_555
