# generated using pymatgen
data_KMgMn2(MoO5)2
_symmetry_space_group_name_H-M   'P 1'
_cell_length_a   6.15687906
_cell_length_b   6.16803730
_cell_length_c   8.61096638
_cell_angle_alpha   66.49819569
_cell_angle_beta   67.31670466
_cell_angle_gamma   60.54590369
_symmetry_Int_Tables_number   1
_chemical_formula_structural   KMgMn2(MoO5)2
_chemical_formula_sum   'K1 Mg1 Mn2 Mo2 O10'
_cell_volume   253.65948765
_cell_formula_units_Z   1
loop_
 _symmetry_equiv_pos_site_id
 _symmetry_equiv_pos_as_xyz
  1  'x, y, z'
loop_
 _atom_site_type_symbol
 _atom_site_label
 _atom_site_symmetry_multiplicity
 _atom_site_fract_x
 _atom_site_fract_y
 _atom_site_fract_z
 _atom_site_occupancy
  K  K0  1  0.46262500  0.54164100  0.50359800  1
  Mg  Mg0  1  0.49186200  0.50808000  0.99999200  1
  Mn  Mn0  1  0.98753000  0.51029000  0.00393200  1
  Mn  Mn1  1  0.49052900  0.01095900  0.99737800  1
  Mo  Mo0  1  0.07965000  0.09691500  0.74553600  1
  Mo  Mo1  1  0.90299200  0.92051900  0.25350300  1
  O  O0  1  0.68671400  0.72854000  0.89951700  1
  O  O1  1  0.29573400  0.28880900  0.09977900  1
  O  O2  1  0.14461400  0.17734400  0.51900800  1
  O  O3  1  0.85155500  0.82166300  0.47980000  1
  O  O4  1  0.75726100  0.27050200  0.17909300  1
  O  O5  1  0.72892200  0.22056900  0.84011700  1
  O  O6  1  0.22204300  0.74768400  0.82619900  1
  O  O7  1  0.25188200  0.80101600  0.15491500  1
  O  O8  1  0.22097500  0.23603300  0.81159200  1
  O  O9  1  0.75844600  0.78610400  0.18604300  1
loop_
_geom_bond_atom_site_label_1
_geom_bond_atom_site_label_2
_geom_bond_distance
_geom_bond_site_symmetry_2
K0 O8 2.920302 1_555
K0 O9 2.939273 1_555
K0 O6 3.052332 1_555
K0 O7 3.223387 1_555
K0 O4 3.275627 1_555
K0 O5 3.301707 1_555
K0 O3 3.331916 1_455
Mg0 O0 1.975432 1_555
Mg0 O1 1.976021 1_556
Mg0 O6 2.218665 1_555
Mg0 O4 2.232092 1_556
Mg0 O7 2.236988 1_556
Mg0 O5 2.241045 1_555
Mn0 O1 1.976740 1_655
Mn0 O0 1.979360 1_554
Mn0 O4 2.259681 1_555
Mn0 O6 2.271266 1_654
Mn0 O9 2.324794 1_555
Mn0 O8 2.382838 1_654
Mn1 O0 1.876159 1_545
Mn1 O1 1.876484 1_556
Mn1 O5 2.143954 1_555
Mn1 O7 2.146823 1_546
Mn1 O8 2.291621 1_555
Mn1 O9 2.302980 1_546
Mo0 O2 1.741445 1_555
Mo0 O6 1.819400 1_545
Mo0 O8 1.822702 1_555
Mo0 O5 1.851285 1_455
Mo1 O3 1.742289 1_555
Mo1 O4 1.819624 1_565
Mo1 O9 1.823537 1_555
Mo1 O7 1.847614 1_655
