# generated using pymatgen
data_Ba2Nb15O32
_symmetry_space_group_name_H-M   'P 1'
_cell_length_a   12.79030512
_cell_length_b   12.79030513
_cell_length_c   12.79030575
_cell_angle_alpha   35.80393833
_cell_angle_beta   35.80393827
_cell_angle_gamma   35.80394087
_symmetry_Int_Tables_number   1
_chemical_formula_structural   Ba2Nb15O32
_chemical_formula_sum   'Ba2 Nb15 O32'
_cell_volume   640.28091850
_cell_formula_units_Z   1
loop_
 _symmetry_equiv_pos_site_id
 _symmetry_equiv_pos_as_xyz
  1  'x, y, z'
loop_
 _atom_site_type_symbol
 _atom_site_label
 _atom_site_symmetry_multiplicity
 _atom_site_fract_x
 _atom_site_fract_y
 _atom_site_fract_z
 _atom_site_occupancy
  Ba  Ba0  1  0.63827636  0.63827636  0.63827636  1
  Ba  Ba1  1  0.36172364  0.36172364  0.36172364  1
  Nb  Nb0  1  0.86064809  0.86064809  0.86064809  1
  Nb  Nb1  1  0.13935191  0.13935191  0.13935191  1
  Nb  Nb2  1  0.72541942  0.55777904  0.31581867  1
  Nb  Nb3  1  0.31581867  0.72541942  0.55777904  1
  Nb  Nb4  1  0.55777904  0.31581867  0.72541942  1
  Nb  Nb5  1  0.27458058  0.44222096  0.68418133  1
  Nb  Nb6  1  0.68418133  0.27458058  0.44222096  1
  Nb  Nb7  1  0.44222096  0.68418133  0.27458058  1
  Nb  Nb8  1  0.92171577  0.81085877  0.46807797  1
  Nb  Nb9  1  0.46807797  0.92171577  0.81085877  1
  Nb  Nb10  1  0.81085877  0.46807797  0.92171577  1
  Nb  Nb11  1  0.07828423  0.18914123  0.53192203  1
  Nb  Nb12  1  0.53192203  0.07828423  0.18914123  1
  Nb  Nb13  1  0.18914123  0.53192203  0.07828423  1
  Nb  Nb14  1  0.00000000  0.00000000  -0.00000000  1
  O  O0  1  0.95016414  0.18763406  0.76596717  1
  O  O1  1  0.76596717  0.95016414  0.18763406  1
  O  O2  1  0.18763406  0.76596717  0.95016414  1
  O  O3  1  0.04983586  0.81236594  0.23403283  1
  O  O4  1  0.23403283  0.04983586  0.81236594  1
  O  O5  1  0.81236594  0.23403283  0.04983586  1
  O  O6  1  0.47081630  0.35158642  0.05894169  1
  O  O7  1  0.05894169  0.47081630  0.35158642  1
  O  O8  1  0.35158642  0.05894169  0.47081630  1
  O  O9  1  0.52918370  0.64841358  0.94105831  1
  O  O10  1  0.94105831  0.52918370  0.64841358  1
  O  O11  1  0.64841358  0.94105831  0.52918370  1
  O  O12  1  0.06983516  0.95687638  0.66156576  1
  O  O13  1  0.66156576  0.06983516  0.95687638  1
  O  O14  1  0.95687638  0.66156576  0.06983516  1
  O  O15  1  0.93016484  0.04312362  0.33843424  1
  O  O16  1  0.33843424  0.93016484  0.04312362  1
  O  O17  1  0.53626248  0.80193477  0.36721113  1
  O  O18  1  0.80193477  0.36721113  0.53626248  1
  O  O19  1  0.36721113  0.53626248  0.80193477  1
  O  O20  1  0.46373752  0.19806523  0.63278887  1
  O  O21  1  0.19806523  0.63278887  0.46373752  1
  O  O22  1  0.63278887  0.46373752  0.19806523  1
  O  O23  1  0.76527241  0.07297501  0.66110167  1
  O  O24  1  0.07297501  0.66110167  0.76527241  1
  O  O25  1  0.66110167  0.76527241  0.07297501  1
  O  O26  1  0.23472759  0.92702499  0.33889833  1
  O  O27  1  0.92702499  0.33889833  0.23472759  1
  O  O28  1  0.33889833  0.23472759  0.92702499  1
  O  O29  1  0.23803016  0.23803016  0.23803016  1
  O  O30  1  0.76196984  0.76196984  0.76196984  1
  O  O31  1  0.04312362  0.33843424  0.93016484  1
loop_
_geom_bond_atom_site_label_1
_geom_bond_atom_site_label_2
_geom_bond_distance
_geom_bond_site_symmetry_2
Ba0 O11 2.952523 1_555
Ba0 O10 2.952523 1_555
Ba0 O9 2.952523 1_555
Ba0 O6 3.004554 1_556
Ba0 O7 3.004554 1_655
Ba0 O8 3.004554 1_565
Ba0 O19 3.039752 1_555
Ba0 O18 3.039752 1_555
Ba0 O17 3.039752 1_555
Ba0 O1 3.131407 1_555
Ba0 O2 3.131407 1_555
Ba0 O0 3.131407 1_555
Ba1 O8 2.952523 1_555
Ba1 O7 2.952523 1_555
Ba1 O6 2.952523 1_555
Ba1 O9 3.004554 1_554
Ba1 O10 3.004554 1_455
Ba1 O11 3.004554 1_545
Ba1 O22 3.039752 1_555
Ba1 O21 3.039752 1_555
Ba1 O20 3.039752 1_555
Ba1 O4 3.131407 1_555
Ba1 O5 3.131407 1_555
Ba1 O3 3.131407 1_555
Nb0 O25 1.952195 1_556
Nb0 O24 1.952195 1_655
Nb0 O23 1.952195 1_565
Nb0 O12 2.089140 1_655
Nb0 O13 2.089140 1_565
Nb0 O14 2.089140 1_556
Nb1 O28 1.952195 1_554
Nb1 O27 1.952195 1_455
Nb1 O26 1.952195 1_545
Nb1 O15 2.089140 1_455
Nb1 O16 2.089140 1_545
Nb1 O31 2.089140 1_554
Nb2 O27 2.055406 1_555
Nb2 O18 2.075529 1_555
Nb2 O17 2.128965 1_555
Nb2 O25 2.144765 1_555
Nb2 O14 2.217405 1_555
Nb3 O26 2.055406 1_555
Nb3 O17 2.075529 1_555
Nb3 O19 2.128965 1_555
Nb3 O24 2.144764 1_555
Nb3 O12 2.217405 1_555
Nb4 O28 2.055406 1_555
Nb4 O19 2.075529 1_555
Nb4 O18 2.128965 1_555
Nb4 O23 2.144765 1_555
Nb4 O13 2.217405 1_555
Nb5 O24 2.055406 1_555
Nb5 O21 2.075529 1_555
Nb5 O20 2.128965 1_555
Nb5 O28 2.144765 1_555
Nb5 O31 2.217405 1_555
Nb6 O23 2.055406 1_555
Nb6 O20 2.075529 1_555
Nb6 O22 2.128965 1_555
Nb6 O27 2.144764 1_555
Nb6 O15 2.217405 1_555
Nb7 O25 2.055406 1_555
Nb7 O22 2.075529 1_555
Nb7 O21 2.128965 1_555
Nb7 O26 2.144765 1_555
Nb7 O16 2.217405 1_555
Nb8 O3 1.909858 1_655
Nb8 O15 1.956109 1_565
Nb8 O11 1.959776 1_555
Nb8 O10 2.088499 1_555
Nb8 O30 2.120709 1_555
Nb8 O21 2.124295 1_655
Nb9 O4 1.909858 1_565
Nb9 O16 1.956109 1_556
Nb9 O9 1.959776 1_555
Nb9 O11 2.088499 1_555
Nb9 O30 2.120708 1_555
Nb9 O20 2.124294 1_565
Nb10 O5 1.909858 1_556
Nb10 O31 1.956109 1_655
Nb10 O10 1.959776 1_555
Nb10 O9 2.088499 1_555
Nb10 O30 2.120708 1_555
Nb10 O22 2.124295 1_556
Nb11 O0 1.909858 1_455
Nb11 O12 1.956109 1_545
Nb11 O8 1.959776 1_555
Nb11 O7 2.088499 1_555
Nb11 O29 2.120709 1_555
Nb11 O18 2.124295 1_455
Nb12 O1 1.909858 1_545
Nb12 O13 1.956109 1_554
Nb12 O6 1.959776 1_555
Nb12 O8 2.088499 1_555
Nb12 O29 2.120708 1_555
Nb12 O17 2.124294 1_545
Nb13 O2 1.909858 1_554
Nb13 O14 1.956109 1_455
Nb13 O7 1.959776 1_555
Nb13 O6 2.088499 1_555
Nb13 O29 2.120708 1_555
Nb13 O19 2.124295 1_554
Nb14 O1 2.021678 1_445
Nb14 O4 2.021678 1_554
Nb14 O2 2.021678 1_544
Nb14 O5 2.021678 1_455
Nb14 O0 2.021678 1_454
Nb14 O3 2.021678 1_545
