# generated using pymatgen
data_PrInRh
_symmetry_space_group_name_H-M   'P 1'
_cell_length_a   7.61302448
_cell_length_b   7.61302448
_cell_length_c   4.08048162
_cell_angle_alpha   90.00000000
_cell_angle_beta   90.00000000
_cell_angle_gamma   119.99999528
_symmetry_Int_Tables_number   1
_chemical_formula_structural   PrInRh
_chemical_formula_sum   'Pr3 In3 Rh3'
_cell_volume   204.81253387
_cell_formula_units_Z   3
loop_
 _symmetry_equiv_pos_site_id
 _symmetry_equiv_pos_as_xyz
  1  'x, y, z'
loop_
 _atom_site_type_symbol
 _atom_site_label
 _atom_site_symmetry_multiplicity
 _atom_site_fract_x
 _atom_site_fract_y
 _atom_site_fract_z
 _atom_site_occupancy
  Pr  Pr0  1  -0.00000000  0.58897487  0.50000000  1
  Pr  Pr1  1  0.41102513  0.41102513  0.50000000  1
  Pr  Pr2  1  0.58897487  -0.00000000  0.50000000  1
  In  In0  1  0.75144102  0.75144102  -0.00000000  1
  In  In1  1  -0.00000000  0.24855898  0.00000000  1
  In  In2  1  0.24855898  -0.00000000  0.00000000  1
  Rh  Rh0  1  0.33333300  0.66666700  -0.00000000  1
  Rh  Rh1  1  0.00000000  0.00000000  0.50000000  1
  Rh  Rh2  1  0.66666700  0.33333300  -0.00000000  1
loop_
_geom_bond_atom_site_label_1
_geom_bond_atom_site_label_2
_geom_bond_distance
_geom_bond_site_symmetry_2
Pr0 Rh0 3.074287 1_556
Pr0 Rh0 3.074287 1_555
Pr0 Rh2 3.074289 1_456
Pr0 Rh2 3.074289 1_455
Pr0 Rh1 3.129144 1_565
Pr1 Rh2 3.074292 1_556
Pr1 Rh2 3.074292 1_555
Pr1 Rh0 3.074292 1_556
Pr1 Rh0 3.074292 1_555
Pr1 Rh1 3.129145 1_555
Pr2 Rh2 3.074287 1_556
Pr2 Rh2 3.074287 1_555
Pr2 Rh0 3.074289 1_545
Pr2 Rh0 3.074289 1_546
Pr2 Rh1 3.129144 1_655
In0 Rh1 2.782684 1_664
In0 Rh1 2.782684 1_665
In0 Rh2 2.914469 1_555
In0 Rh0 2.914469 1_555
In0 In1 3.277535 1_665
In0 In2 3.277535 1_665
In0 Pr1 3.298325 1_555
In0 Pr1 3.298325 1_554
In0 Pr0 3.407879 1_654
In0 Pr2 3.407879 1_565
In0 Pr0 3.407879 1_655
In0 Pr2 3.407879 1_564
In1 Rh1 2.782683 1_555
In1 Rh1 2.782683 1_554
In1 Rh2 2.914461 1_455
In1 Rh0 2.914466 1_555
In1 In2 3.277535 1_555
In1 Pr0 3.298325 1_555
In1 Pr0 3.298325 1_554
In1 Pr1 3.407879 1_555
In1 Pr1 3.407879 1_554
In1 Pr2 3.407879 1_455
In1 Pr2 3.407879 1_454
In2 Rh1 2.782683 1_555
In2 Rh1 2.782683 1_554
In2 Rh0 2.914461 1_545
In2 Rh2 2.914466 1_555
In2 Pr2 3.298325 1_555
In2 Pr2 3.298325 1_554
In2 Pr1 3.407879 1_555
In2 Pr1 3.407879 1_554
In2 Pr0 3.407879 1_545
In2 Pr0 3.407879 1_544
