# generated using pymatgen
data_Rb4MgV2(AgS4)2
_symmetry_space_group_name_H-M   'P 1'
_cell_length_a   5.87448564
_cell_length_b   7.11247102
_cell_length_c   13.97644637
_cell_angle_alpha   82.97004933
_cell_angle_beta   72.83283597
_cell_angle_gamma   65.57111927
_symmetry_Int_Tables_number   1
_chemical_formula_structural   Rb4MgV2(AgS4)2
_chemical_formula_sum   'Rb4 Mg1 V2 Ag2 S8'
_cell_volume   507.99819808
_cell_formula_units_Z   1
loop_
 _symmetry_equiv_pos_site_id
 _symmetry_equiv_pos_as_xyz
  1  'x, y, z'
loop_
 _atom_site_type_symbol
 _atom_site_label
 _atom_site_symmetry_multiplicity
 _atom_site_fract_x
 _atom_site_fract_y
 _atom_site_fract_z
 _atom_site_occupancy
  Rb  Rb0  1  0.45870931  0.75274899  0.11251633  1
  Rb  Rb1  1  0.13950758  0.22304951  0.55296180  1
  Rb  Rb2  1  0.78871119  0.75299530  0.38720763  1
  Rb  Rb3  1  0.63644384  0.22336134  0.94699834  1
  Mg  Mg0  1  0.36395278  0.27097130  0.74998058  1
  V  V0  1  0.62925166  0.74082969  0.75018113  1
  V  V1  1  0.38020150  0.23980381  0.24988046  1
  Ag  Ag0  1  0.08297763  0.83304513  0.75001366  1
  Ag  Ag1  1  0.87329810  0.25365175  0.24984051  1
  S  S0  1  0.92058534  0.54045509  0.83567063  1
  S  S1  1  0.27117571  0.98152758  0.85472660  1
  S  S2  1  0.53870424  0.54008155  0.66499048  1
  S  S3  1  0.74634330  0.98145682  0.64531027  1
  S  S4  1  0.41035369  0.44110504  0.34914911  1
  S  S5  1  0.20597832  0.03463033  0.34254265  1
  S  S6  1  0.75962154  0.03463256  0.15732275  1
  S  S7  1  0.14835128  0.44136821  0.15070705  1
loop_
_geom_bond_atom_site_label_1
_geom_bond_atom_site_label_2
_geom_bond_distance
_geom_bond_site_symmetry_2
Rb0 S7 3.315075 1_555
Rb0 S6 3.380638 1_565
Rb0 S5 3.585764 1_565
Rb0 S6 3.640916 1_465
Rb0 S4 3.755497 1_555
Rb0 S7 3.894693 1_655
Rb1 S5 3.232855 1_555
Rb1 S3 3.306498 1_445
Rb1 S2 3.318463 1_455
Rb1 S4 3.366807 1_555
Rb1 S3 3.799126 1_545
Rb2 S4 3.313816 1_655
Rb2 S5 3.377059 1_565
Rb2 S6 3.581977 1_565
Rb2 S5 3.641787 1_665
Rb2 S7 3.754959 1_655
Rb2 S4 3.899869 1_555
Rb3 S6 3.233116 1_556
Rb3 S1 3.305229 1_645
Rb3 S0 3.318929 1_555
Rb3 S7 3.363910 1_556
Rb3 S1 3.802005 1_545
Mg0 S1 2.529361 1_545
Mg0 S3 2.529396 1_545
Mg0 S2 2.545046 1_555
Mg0 S0 2.546199 1_455
Mg0 Rb1 3.490236 1_555
Mg0 Rb3 3.490681 1_555
Ag0 S3 2.601938 1_455
Ag0 S1 2.603583 1_555
Ag0 S0 2.651802 1_455
Ag0 S2 2.652382 1_555
Ag0 Rb1 3.706993 1_565
Ag0 Rb3 3.708349 1_465
Ag1 S7 2.514566 1_655
Ag1 S4 2.515094 1_555
Ag1 S5 2.531280 1_655
Ag1 S6 2.531371 1_555
S0 V0 2.271704 1_555
S1 V0 2.304321 1_555
S2 V0 2.271005 1_555
S3 V0 2.305447 1_555
S4 V1 2.201657 1_555
S5 V1 2.201036 1_555
S6 V1 2.200140 1_555
S7 V1 2.201037 1_555
