# generated using pymatgen
data_CsCrH18Br2N6(ClO4)2
_symmetry_space_group_name_H-M   'P 1'
_cell_length_a   10.36021275
_cell_length_b   10.36021275
_cell_length_c   10.36021241
_cell_angle_alpha   42.76671258
_cell_angle_beta   42.76671258
_cell_angle_gamma   42.76671342
_symmetry_Int_Tables_number   1
_chemical_formula_structural   CsCrH18Br2N6(ClO4)2
_chemical_formula_sum   'Cs1 Cr1 H18 Br2 N6 Cl2 O8'
_cell_volume   464.49265088
_cell_formula_units_Z   1
loop_
 _symmetry_equiv_pos_site_id
 _symmetry_equiv_pos_as_xyz
  1  'x, y, z'
loop_
 _atom_site_type_symbol
 _atom_site_label
 _atom_site_symmetry_multiplicity
 _atom_site_fract_x
 _atom_site_fract_y
 _atom_site_fract_z
 _atom_site_occupancy
  Cs  Cs0  1  0.50000000  0.50000000  0.50000000  1
  Cr  Cr0  1  0.00000000  0.00000000  0.00000000  1
  H  H0  1  0.73863900  0.06337400  0.34366000  1
  H  H1  1  0.93662600  0.65634000  0.26136100  1
  H  H2  1  0.65634000  0.26136100  0.93662600  1
  H  H3  1  0.26136100  0.93662600  0.65634000  1
  H  H4  1  0.06337400  0.34366000  0.73863900  1
  H  H5  1  0.34366000  0.73863900  0.06337400  1
  H  H6  1  0.07001600  0.67580500  0.02314600  1
  H  H7  1  0.85712900  0.80980100  0.41837500  1
  H  H8  1  0.41837500  0.85712900  0.80980100  1
  H  H9  1  0.80980100  0.41837500  0.85712900  1
  H  H10  1  0.14287100  0.19019900  0.58162500  1
  H  H11  1  0.67580500  0.02314600  0.07001600  1
  H  H12  1  0.19019900  0.58162500  0.14287100  1
  H  H13  1  0.97685400  0.92998400  0.32419500  1
  H  H14  1  0.32419500  0.97685400  0.92998400  1
  H  H15  1  0.92998400  0.32419500  0.97685400  1
  H  H16  1  0.02314600  0.07001600  0.67580500  1
  H  H17  1  0.58162500  0.14287100  0.19019900  1
  Br  Br0  1  0.36934800  0.36934800  0.36934800  1
  Br  Br1  1  0.63065200  0.63065200  0.63065200  1
  N  N0  1  0.05665700  0.69535700  0.11691700  1
  N  N1  1  0.88308300  0.94334300  0.30464300  1
  N  N2  1  0.69535700  0.11691700  0.05665700  1
  N  N3  1  0.11691700  0.05665700  0.69535700  1
  N  N4  1  0.94334300  0.30464300  0.88308300  1
  N  N5  1  0.30464300  0.88308300  0.94334300  1
  Cl  Cl0  1  0.81160600  0.81160600  0.81160600  1
  Cl  Cl1  1  0.18839400  0.18839400  0.18839400  1
  O  O0  1  0.33764600  0.99747100  0.28208300  1
  O  O1  1  0.28208300  0.33764600  0.99747100  1
  O  O2  1  0.66235400  0.00252900  0.71791700  1
  O  O3  1  0.86372200  0.86372200  0.86372200  1
  O  O4  1  0.13627800  0.13627800  0.13627800  1
  O  O5  1  0.71791700  0.66235400  0.00252900  1
  O  O6  1  0.00252900  0.71791700  0.66235400  1
  O  O7  1  0.99747100  0.28208300  0.33764600  1
loop_
_geom_bond_atom_site_label_1
_geom_bond_atom_site_label_2
_geom_bond_distance
_geom_bond_site_symmetry_2
Cs0 O1 3.201892 1_555
Cs0 O5 3.201892 1_555
Cs0 O0 3.201893 1_555
Cs0 O2 3.201893 1_555
Cs0 O7 3.201893 1_555
Cs0 O6 3.201893 1_555
Cr0 N3 2.117508 1_554
Cr0 N1 2.117508 1_445
Cr0 N4 2.117508 1_454
Cr0 N0 2.117508 1_545
Cr0 N2 2.117508 1_455
Cr0 N5 2.117508 1_544
H0 N1 1.032864 1_545
H1 N0 1.032864 1_655
H2 N2 1.032864 1_556
H3 N3 1.032864 1_565
H4 N4 1.032864 1_455
H5 N5 1.032864 1_554
H6 N0 1.026806 1_555
H7 N1 1.030681 1_555
H8 N5 1.030681 1_555
H9 N4 1.030681 1_555
H10 N3 1.030681 1_555
H11 N2 1.026806 1_555
H12 N0 1.030681 1_555
H13 N1 1.026806 1_555
H14 N5 1.026806 1_555
H15 N4 1.026806 1_555
H16 N3 1.026806 1_555
H17 N2 1.030681 1_555
Br0 Cs0 3.683323 1_555
Br1 Cs0 3.683323 1_555
Cl0 O5 1.462753 1_556
Cl0 O6 1.462753 1_655
Cl0 O2 1.462753 1_565
Cl0 O3 1.469247 1_555
Cl1 O1 1.462753 1_554
Cl1 O7 1.462753 1_455
Cl1 O0 1.462753 1_545
Cl1 O4 1.469247 1_555
