# generated using pymatgen
data_La2Ti2SiS5O24
_symmetry_space_group_name_H-M   'P 1'
_cell_length_a   9.12129192
_cell_length_b   9.14192005
_cell_length_c   23.54708158
_cell_angle_alpha   90.03871888
_cell_angle_beta   90.18448668
_cell_angle_gamma   119.87191526
_symmetry_Int_Tables_number   1
_chemical_formula_structural   La2Ti2SiS5O24
_chemical_formula_sum   'La6 Ti6 Si3 S15 O72'
_cell_volume   1702.61645536
_cell_formula_units_Z   3
loop_
 _symmetry_equiv_pos_site_id
 _symmetry_equiv_pos_as_xyz
  1  'x, y, z'
loop_
 _atom_site_type_symbol
 _atom_site_label
 _atom_site_symmetry_multiplicity
 _atom_site_fract_x
 _atom_site_fract_y
 _atom_site_fract_z
 _atom_site_occupancy
  La  La0  1  0.99774554  0.00291289  0.36858087  1
  La  La1  1  0.00057393  0.99981644  0.86464919  1
  La  La2  1  0.67564588  0.33744375  0.67721388  1
  La  La3  1  0.65704128  0.33659511  0.18382555  1
  La  La4  1  0.65473286  0.32935114  0.99022538  1
  La  La5  1  0.33230224  0.66650983  0.80058356  1
  Ti  Ti0  1  0.00208769  0.00986745  0.63716647  1
  Ti  Ti1  1  0.01129377  0.01490280  0.14846463  1
  Ti  Ti2  1  0.68986279  0.32182296  0.47789357  1
  Ti  Ti3  1  0.33130654  0.65950349  0.02404209  1
  Ti  Ti4  1  0.33787050  0.66808814  0.52187495  1
  Ti  Ti5  1  0.34971628  0.68257417  0.31605553  1
  Si  Si0  1  0.97521610  0.33634954  0.57835969  1
  Si  Si1  1  0.34928184  0.33367019  0.08377693  1
  Si  Si2  1  0.59367699  0.94920610  0.42140193  1
  S  S0  1  0.27524835  0.97285827  0.25121385  1
  S  S1  1  0.69759471  0.72225176  0.25251415  1
  S  S2  1  0.02160485  0.29692322  0.24960799  1
  S  S3  1  0.27141855  0.27110244  0.74188484  1
  S  S4  1  0.99864036  0.72851112  0.74265055  1
  S  S5  1  0.72798571  0.99907302  0.74201202  1
  S  S6  1  0.36010015  0.02818167  0.57802933  1
  S  S7  1  0.67069706  0.64310140  0.57861152  1
  S  S8  1  0.99107815  0.66153358  0.08464584  1
  S  S9  1  0.67022290  0.00908257  0.08458497  1
  S  S10  1  0.60748016  0.66702493  0.92282868  1
  S  S11  1  0.05682648  0.39357585  0.92292953  1
  S  S12  1  0.33642508  0.94148410  0.92239474  1
  S  S13  1  0.36399588  0.41551878  0.41957638  1
  S  S14  1  0.04985630  0.63877361  0.42005190  1
  O  O0  1  0.20516526  0.00713502  0.30210900  1
  O  O1  1  0.80211499  0.79731344  0.30329680  1
  O  O2  1  0.98791683  0.19152514  0.30038697  1
  O  O3  1  0.19457312  0.18438136  0.79575564  1
  O  O4  1  0.99171839  0.80582562  0.79726908  1
  O  O5  1  0.81563877  0.01084246  0.79619572  1
  O  O6  1  0.82699993  0.99686900  0.69195485  1
  O  O7  1  0.16892832  0.17195582  0.69142596  1
  O  O8  1  0.00248849  0.82935536  0.69285339  1
  O  O9  1  0.77299706  0.82617374  0.20166559  1
  O  O10  1  0.03553770  0.19790161  0.19920686  1
  O  O11  1  0.16591942  0.95139360  0.20059727  1
  O  O12  1  0.90799273  0.38424405  0.63356142  1
  O  O13  1  0.46218676  0.08372860  0.63045499  1
  O  O14  1  0.62250338  0.54130901  0.63092944  1
  O  O15  1  0.92188337  0.54168252  0.13248457  1
  O  O16  1  0.62352252  0.08104171  0.13253811  1
  O  O17  1  0.47570811  0.38323150  0.13700976  1
  O  O18  1  0.41506271  0.27740782  0.02955835  1
  O  O19  1  0.87845685  0.59433675  0.03487243  1
  O  O20  1  0.71988543  0.12253998  0.03516830  1
  O  O21  1  0.44672106  0.15007149  0.53143717  1
  O  O22  1  0.70690728  0.55858505  0.53210783  1
  O  O23  1  0.82847585  0.29649203  0.52605982  1
  O  O24  1  0.50609414  0.66807822  0.97201982  1
  O  O25  1  0.16040930  0.49668198  0.97219938  1
  O  O26  1  0.33458500  0.84076161  0.97173577  1
  O  O27  1  0.48780156  0.83049066  0.47339284  1
  O  O28  1  0.33780136  0.49568801  0.46995081  1
  O  O29  1  0.15173146  0.65964199  0.47051796  1
  O  O30  1  0.12426595  0.61340879  0.36732545  1
  O  O31  1  0.47744723  0.85592243  0.36169321  1
  O  O32  1  0.37659230  0.51513705  0.36629886  1
  O  O33  1  0.13322040  0.47922654  0.86878360  1
  O  O34  1  0.34200150  0.86303533  0.86793242  1
  O  O35  1  0.52041895  0.65532964  0.86852915  1
  O  O36  1  0.02889050  0.78778689  0.41534126  1
  O  O37  1  0.77661093  0.97053459  0.41582576  1
  O  O38  1  0.21036889  0.24822013  0.41404827  1
  O  O39  1  0.05370261  0.23039391  0.92522799  1
  O  O40  1  0.17976098  0.95208366  0.92440629  1
  O  O41  1  0.77066761  0.82659902  0.92516599  1
  O  O42  1  0.98863101  0.16312519  0.59302133  1
  O  O43  1  0.19065914  0.01442385  0.58857634  1
  O  O44  1  0.82283827  0.81338617  0.59015938  1
  O  O45  1  0.01025912  0.82826081  0.10076655  1
  O  O46  1  0.81593745  0.98457294  0.10097058  1
  O  O47  1  0.16219656  0.16927885  0.10414035  1
  O  O48  1  0.70246397  0.14510415  0.73871338  1
  O  O49  1  0.44032288  0.29189225  0.73731814  1
  O  O50  1  0.84862305  0.55897382  0.74038467  1
  O  O51  1  0.66689825  0.54931731  0.24479813  1
  O  O52  1  0.87749434  0.32209050  0.23725400  1
  O  O53  1  0.44905347  0.11113862  0.24093156  1
  O  O54  1  0.63334762  0.52118991  0.92707956  1
  O  O55  1  0.88734920  0.37127177  0.92853578  1
  O  O56  1  0.48749947  0.11054861  0.92531117  1
  O  O57  1  0.61387993  0.14005159  0.43337833  1
  O  O58  1  0.51677318  0.40226181  0.42633435  1
  O  O59  1  0.87616935  0.48487331  0.42777480  1
  O  O60  1  0.31840365  0.49268260  0.06663766  1
  O  O61  1  0.16288344  0.68977980  0.06999002  1
  O  O62  1  0.52474164  0.84009365  0.07008664  1
  O  O63  1  0.32613386  0.85403255  0.56505058  1
  O  O64  1  0.52678014  0.67245043  0.56480771  1
  O  O65  1  0.15974990  0.48623358  0.55872509  1
  O  O66  1  0.28112877  0.81148765  0.26054007  1
  O  O67  1  0.52448813  0.70769728  0.26332302  1
  O  O68  1  0.17982943  0.45921712  0.25597840  1
  O  O69  1  0.27628148  0.43517135  0.74037527  1
  O  O70  1  0.15576418  0.71795618  0.74160561  1
  O  O71  1  0.56421522  0.83946291  0.74048690  1
loop_
_geom_bond_atom_site_label_1
_geom_bond_atom_site_label_2
_geom_bond_distance
_geom_bond_site_symmetry_2
La0 O37 2.194041 1_545
La0 O38 2.363820 1_655
La0 O2 2.390912 1_555
La0 O1 2.391137 1_545
La0 O36 2.391291 1_645
La0 O0 2.444837 1_655
La1 O4 2.349817 1_455
La1 O40 2.353327 1_555
La1 O5 2.367668 1_465
La1 O41 2.377016 1_455
La1 O3 2.378627 1_565
La1 O39 2.384718 1_565
La2 O12 2.200558 1_555
La2 O50 2.366715 1_555
La2 O48 2.382929 1_555
La2 O14 2.407375 1_555
La2 O13 2.422236 1_555
La2 O49 2.431801 1_555
La3 O17 2.196367 1_555
La3 O51 2.381688 1_555
La3 O53 2.404275 1_555
La3 O52 2.427607 1_555
La3 O16 2.508446 1_555
La3 O15 2.514476 1_555
La4 O18 2.200431 1_556
La4 O56 2.367661 1_555
La4 O54 2.380561 1_555
La4 O55 2.443243 1_555
La4 O20 2.483050 1_556
La4 O19 2.489250 1_556
La5 O70 2.341720 1_555
La5 O34 2.363804 1_555
La5 O69 2.378776 1_555
La5 O71 2.380711 1_555
La5 O35 2.381519 1_555
La5 O33 2.394428 1_555
O0 S0 1.465275 1_545
O1 S1 1.466136 1_555
O2 S2 1.470210 1_655
O3 S3 1.477317 1_555
O4 S4 1.483703 1_555
O5 S5 1.478576 1_545
O6 S5 1.493435 1_555
O6 Ti0 2.013312 1_665
O7 S3 1.501513 1_555
O7 Ti0 1.970446 1_555
O8 S4 1.481749 1_455
O8 Ti0 2.109877 1_565
O9 S1 1.471457 1_555
O9 Ti1 2.356987 1_665
O10 S2 1.535654 1_555
O10 Ti1 1.975449 1_555
O11 S0 1.500207 1_555
O11 Ti1 2.153768 1_565
O12 Si0 1.590302 1_555
O13 S6 1.472950 1_555
O14 S7 1.474593 1_555
O15 S8 1.478226 1_555
O16 S9 1.473238 1_555
O17 Si1 1.604917 1_555
O18 Si1 1.601860 1_555
O19 S8 1.472725 1_555
O20 S9 1.473780 1_555
O21 S6 1.483178 1_555
O21 Ti2 2.350617 1_555
O22 S7 1.469875 1_555
O22 Ti2 2.449188 1_555
O23 Si0 1.715759 1_555
O23 Ti2 1.794793 1_555
O24 S10 1.487523 1_555
O24 Ti3 1.984105 1_556
O25 S11 1.493807 1_555
O25 Ti3 1.951851 1_556
O26 S12 1.477901 1_555
O26 Ti3 2.053613 1_556
O27 Si2 1.604556 1_555
O27 Ti4 1.835099 1_555
O28 S13 1.475233 1_555
O28 Ti4 1.993814 1_555
O29 S14 1.458762 1_555
O29 Ti4 2.051115 1_555
O30 S14 1.489190 1_555
O30 Ti5 2.192679 1_555
O31 Si2 1.707668 1_555
O31 Ti5 1.781594 1_555
O32 S13 1.521403 1_555
O32 Ti5 2.043816 1_555
O33 S11 1.479120 1_555
O34 S12 1.482249 1_555
O35 S10 1.478361 1_555
O36 S14 1.471128 1_555
O37 Si2 1.586450 1_555
O38 S13 1.477628 1_555
O39 S11 1.478842 1_555
O40 S12 1.480532 1_555
O41 S10 1.477532 1_555
O42 Si0 1.683879 1_555
O42 Ti0 1.797513 1_655
O43 S6 1.508315 1_555
O43 Ti0 2.051987 1_555
O44 S7 1.506049 1_555
O44 Ti0 2.045728 1_665
O45 S8 1.493675 1_455
O45 Ti1 2.038186 1_565
O46 S9 1.503017 1_565
O46 Ti1 1.999335 1_665
O47 Si1 1.688820 1_555
O47 Ti1 1.746956 1_555
O48 S5 1.466990 1_545
O49 S3 1.459669 1_555
O50 S4 1.471137 1_555
O51 S1 1.472808 1_555
O52 S2 1.471152 1_655
O53 S0 1.475302 1_545
O54 S10 1.468509 1_555
O55 S11 1.461516 1_655
O56 S12 1.473122 1_545
O57 Si2 1.684097 1_545
O57 Ti2 1.784989 1_555
O58 S13 1.465864 1_555
O58 Ti2 2.377541 1_555
O59 S14 1.517990 1_655
O59 Ti2 1.998623 1_555
O60 Si1 1.662314 1_555
O60 Ti3 1.780370 1_555
O61 S8 1.497346 1_455
O61 Ti3 2.010244 1_555
O62 S9 1.489419 1_565
O62 Ti3 2.024308 1_555
O63 S6 1.493797 1_565
O63 Ti4 2.028378 1_555
O64 S7 1.499685 1_555
O64 Ti4 1.978116 1_555
O65 Si0 1.622607 1_455
O65 Ti4 1.864644 1_555
O66 S0 1.518753 1_555
O66 Ti5 2.054355 1_555
O67 S1 1.539137 1_555
O67 Ti5 1.945322 1_555
O68 S2 1.473772 1_555
O68 Ti5 2.324210 1_555
O69 S3 1.478768 1_555
O70 S4 1.483872 1_455
O71 S5 1.479927 1_555
