# generated using pymatgen
data_Ba2Mg(CoO3)2
_symmetry_space_group_name_H-M   'P 1'
_cell_length_a   5.85480660
_cell_length_b   5.80926404
_cell_length_c   5.54080618
_cell_angle_alpha   86.92233392
_cell_angle_beta   91.46409446
_cell_angle_gamma   119.83522512
_symmetry_Int_Tables_number   1
_chemical_formula_structural   Ba2Mg(CoO3)2
_chemical_formula_sum   'Ba2 Mg1 Co2 O6'
_cell_volume   163.24080451
_cell_formula_units_Z   1
loop_
 _symmetry_equiv_pos_site_id
 _symmetry_equiv_pos_as_xyz
  1  'x, y, z'
loop_
 _atom_site_type_symbol
 _atom_site_label
 _atom_site_symmetry_multiplicity
 _atom_site_fract_x
 _atom_site_fract_y
 _atom_site_fract_z
 _atom_site_occupancy
  Ba  Ba0  1  0.67168200  0.33477400  0.00095700  1
  Ba  Ba1  1  0.33584200  0.66844500  0.50002200  1
  Mg  Mg0  1  0.66731900  0.33538800  0.50077600  1
  Co  Co0  1  0.99993500  0.01166900  0.23526700  1
  Co  Co1  1  0.99962700  0.98734000  0.76452000  1
  O  O0  1  0.69352900  0.84336700  0.99939300  1
  O  O1  1  0.85161300  0.15564400  0.50062100  1
  O  O2  1  0.14431700  0.84255700  0.98929200  1
  O  O3  1  0.14460600  0.29994500  0.01049000  1
  O  O4  1  0.85184000  0.69961400  0.49868300  1
  O  O5  1  0.30635600  0.15459500  0.49997500  1
loop_
_geom_bond_atom_site_label_1
_geom_bond_atom_site_label_2
_geom_bond_distance
_geom_bond_site_symmetry_2
Ba0 Mg0 2.770381 1_555
Ba0 Mg0 2.770698 1_554
Ba0 O2 2.868741 1_654
Ba0 O3 2.873888 1_655
Ba0 O0 2.892591 1_554
Ba0 O0 2.920935 1_544
Ba0 O2 2.989768 1_544
Ba0 O3 2.992089 1_555
Ba1 O5 2.903082 1_555
Ba1 O5 2.913898 1_565
Ba1 O1 2.916831 1_455
Ba1 O4 2.927838 1_455
Ba1 O4 2.935371 1_555
Ba1 O1 2.936952 1_565
Ba1 O2 3.308713 1_554
Ba1 O0 3.310956 1_555
Ba1 O3 3.311028 1_556
Ba1 O0 3.315028 1_554
Ba1 O2 3.347840 1_555
Ba1 O3 3.358094 1_555
Mg0 O5 1.833274 1_555
Mg0 O4 1.835147 1_555
Mg0 O1 1.837327 1_555
Co0 O3 1.868593 1_655
Co0 O0 2.038239 1_544
Co0 O4 2.094015 1_545
Co0 O1 2.129637 1_555
Co0 O2 2.136864 1_644
Co0 O5 2.138528 1_655
Co1 O2 1.875815 1_655
Co1 O0 2.028739 1_555
Co1 O1 2.114188 1_565
Co1 O4 2.114777 1_555
Co1 O3 2.132758 1_666
Co1 O5 2.136128 1_665
