# generated using pymatgen
data_VSb2
_symmetry_space_group_name_H-M   'P 1'
_cell_length_a   5.42567550
_cell_length_b   5.42567571
_cell_length_c   5.42567691
_cell_angle_alpha   105.60738291
_cell_angle_beta   105.60738344
_cell_angle_gamma   117.51055557
_symmetry_Int_Tables_number   1
_chemical_formula_structural   VSb2
_chemical_formula_sum   'V2 Sb4'
_cell_volume   121.11404155
_cell_formula_units_Z   2
loop_
 _symmetry_equiv_pos_site_id
 _symmetry_equiv_pos_as_xyz
  1  'x, y, z'
loop_
 _atom_site_type_symbol
 _atom_site_label
 _atom_site_symmetry_multiplicity
 _atom_site_fract_x
 _atom_site_fract_y
 _atom_site_fract_z
 _atom_site_occupancy
  V  V0  1  0.75000000  0.75000000  0.00000000  1
  V  V1  1  0.25000000  0.25000000  0.00000000  1
  Sb  Sb0  1  0.84425523  0.65574477  0.50000000  1
  Sb  Sb1  1  0.34425523  0.84425523  0.18851146  1
  Sb  Sb2  1  0.15574477  0.34425523  0.50000000  1
  Sb  Sb3  1  0.65574477  0.15574477  0.81148854  1
loop_
_geom_bond_atom_site_label_1
_geom_bond_atom_site_label_2
_geom_bond_distance
_geom_bond_site_symmetry_2
V0 V1 2.814268 1_665
V0 V1 2.814268 1_555
Sb0 V1 2.850290 1_555
Sb0 V0 2.850290 1_556
Sb0 V0 2.850290 1_555
Sb0 V1 2.850290 1_666
Sb0 Sb2 2.889834 1_655
Sb1 V0 2.850290 1_455
Sb1 V1 2.850290 1_555
Sb1 V0 2.850293 1_555
Sb1 V1 2.850293 1_565
Sb1 Sb3 2.889826 1_565
Sb2 V0 2.850290 1_556
Sb2 V1 2.850290 1_555
Sb2 V1 2.850290 1_556
Sb2 V0 2.850290 1_445
Sb3 V1 2.850290 1_656
Sb3 V0 2.850290 1_556
Sb3 V1 2.850293 1_556
Sb3 V0 2.850293 1_546
