# generated using pymatgen
data_Na7Y2Ti2Si3(PO8)3
_symmetry_space_group_name_H-M   'P 1'
_cell_length_a   9.17196125
_cell_length_b   9.16896717
_cell_length_c   22.26551895
_cell_angle_alpha   90.14365370
_cell_angle_beta   89.82967850
_cell_angle_gamma   119.92899837
_symmetry_Int_Tables_number   1
_chemical_formula_structural   Na7Y2Ti2Si3(PO8)3
_chemical_formula_sum   'Na21 Y6 Ti6 Si9 P9 O72'
_cell_volume   1622.75941037
_cell_formula_units_Z   3
loop_
 _symmetry_equiv_pos_site_id
 _symmetry_equiv_pos_as_xyz
  1  'x, y, z'
loop_
 _atom_site_type_symbol
 _atom_site_label
 _atom_site_symmetry_multiplicity
 _atom_site_fract_x
 _atom_site_fract_y
 _atom_site_fract_z
 _atom_site_occupancy
  Na  Na0  1  0.62624756  0.00197737  0.25458727  1
  Na  Na1  1  0.37133525  0.37451795  0.24796201  1
  Na  Na2  1  0.00148109  0.61680233  0.25095927  1
  Na  Na3  1  0.63550392  0.63415876  0.74634603  1
  Na  Na4  1  0.98764426  0.36333878  0.74525436  1
  Na  Na5  1  0.37582745  0.00245028  0.74123436  1
  Na  Na6  1  0.02753471  0.69260326  0.58388353  1
  Na  Na7  1  0.65707422  0.96735420  0.58042375  1
  Na  Na8  1  0.67307105  0.68804735  0.08407628  1
  Na  Na9  1  0.02265123  0.34005921  0.08668537  1
  Na  Na10  1  0.95832581  0.66155122  0.92472570  1
  Na  Na11  1  0.69951251  0.03210660  0.91861960  1
  Na  Na12  1  0.34347209  0.30627754  0.92189527  1
  Na  Na13  1  0.97409992  0.31248772  0.41757107  1
  Na  Na14  1  0.33481511  0.03208373  0.41783629  1
  Na  Na15  1  0.00294023  0.99791203  0.49992761  1
  Na  Na16  1  0.01335009  0.99275967  0.00672364  1
  Na  Na17  1  0.66758865  0.33389813  0.83269412  1
  Na  Na18  1  0.67589621  0.35156889  0.34174875  1
  Na  Na19  1  0.32218231  0.67166386  0.16243768  1
  Na  Na20  1  0.33494836  0.65314400  0.65712731  1
  Y  Y0  1  0.99540684  0.99772003  0.85385338  1
  Y  Y1  1  0.66713772  0.33240873  0.67199867  1
  Y  Y2  1  0.67034304  0.33438744  0.18360698  1
  Y  Y3  1  0.66250555  0.33513108  0.99184354  1
  Y  Y4  1  0.32850467  0.66151591  0.32069365  1
  Y  Y5  1  0.33814118  0.66838455  0.81107977  1
  Ti  Ti0  1  0.98816211  0.99702317  0.35822861  1
  Ti  Ti1  1  0.00103541  0.00894170  0.64259004  1
  Ti  Ti2  1  0.00985563  0.00806913  0.14733724  1
  Ti  Ti3  1  0.66874993  0.32828554  0.48648574  1
  Ti  Ti4  1  0.33548880  0.66554130  0.02011767  1
  Ti  Ti5  1  0.32922393  0.67209898  0.51206654  1
  Si  Si0  1  0.99840070  0.28234494  0.25274196  1
  Si  Si1  1  0.70634265  0.00363353  0.74632188  1
  Si  Si2  1  0.97913311  0.33871791  0.58194213  1
  Si  Si3  1  0.36021557  0.02532706  0.58148602  1
  Si  Si4  1  0.98579448  0.65173988  0.08488040  1
  Si  Si5  1  0.35355554  0.33627513  0.08405500  1
  Si  Si6  1  0.62859305  0.66195313  0.91769711  1
  Si  Si7  1  0.63211569  0.97164901  0.41632078  1
  Si  Si8  1  0.02259643  0.66323122  0.41626718  1
  P  P0  1  0.27915304  0.00072642  0.25324494  1
  P  P1  1  0.72124777  0.72099320  0.25112782  1
  P  P2  1  0.28837056  0.28777603  0.74609740  1
  P  P3  1  0.99637162  0.70744904  0.74502860  1
  P  P4  1  0.66210156  0.63589100  0.58234242  1
  P  P5  1  0.66772956  0.01710431  0.08515530  1
  P  P6  1  0.04104012  0.37502077  0.91931112  1
  P  P7  1  0.33789213  0.95903154  0.91818535  1
  P  P8  1  0.33825856  0.36722201  0.41676133  1
  O  O0  1  0.19043652  0.00702520  0.31151242  1
  O  O1  1  0.82664953  0.81891391  0.30752028  1
  O  O2  1  0.99682344  0.17340057  0.31275581  1
  O  O3  1  0.22032922  0.20050384  0.80690940  1
  O  O4  1  0.98975089  0.78806886  0.80522112  1
  O  O5  1  0.80138956  0.01939310  0.80969948  1
  O  O6  1  0.82589839  0.99948635  0.68939212  1
  O  O7  1  0.17584762  0.17325008  0.69368718  1
  O  O8  1  0.00346732  0.81681176  0.69061829  1
  O  O9  1  0.81113827  0.81573169  0.19326775  1
  O  O10  1  0.99648848  0.17288344  0.19379345  1
  O  O11  1  0.17499473  0.99580567  0.19735910  1
  O  O12  1  0.92035268  0.39034542  0.64349562  1
  O  O13  1  0.47067243  0.08609517  0.64261559  1
  O  O14  1  0.63493191  0.55318533  0.64481858  1
  O  O15  1  0.90624828  0.51846857  0.14103406  1
  O  O16  1  0.64021876  0.09992317  0.14091433  1
  O  O17  1  0.48332310  0.38272337  0.14017481  1
  O  O18  1  0.42534356  0.29874376  0.02339583  1
  O  O19  1  0.85883206  0.57447784  0.02767001  1
  O  O20  1  0.70561907  0.13085877  0.02971696  1
  O  O21  1  0.47398641  0.15934646  0.52811331  1
  O  O22  1  0.68712327  0.52248019  0.53625297  1
  O  O23  1  0.83136361  0.30340742  0.53125768  1
  O  O24  1  0.50667848  0.66176397  0.97370308  1
  O  O25  1  0.14819341  0.48436382  0.97324566  1
  O  O26  1  0.33256481  0.84132400  0.96917043  1
  O  O27  1  0.52478921  0.84214628  0.47090306  1
  O  O28  1  0.31250731  0.47648411  0.46401326  1
  O  O29  1  0.16707600  0.69475264  0.46762815  1
  O  O30  1  0.08260766  0.60884890  0.35513840  1
  O  O31  1  0.52300363  0.90687886  0.35497693  1
  O  O32  1  0.36568599  0.45300235  0.35488454  1
  O  O33  1  0.11329939  0.46707902  0.85944965  1
  O  O34  1  0.34549053  0.88532951  0.85646177  1
  O  O35  1  0.53426583  0.64804518  0.85428532  1
  O  O36  1  0.02189752  0.84215569  0.41207687  1
  O  O37  1  0.82365791  0.99527820  0.41266369  1
  O  O38  1  0.17226434  0.18981766  0.41660798  1
  O  O39  1  0.04206562  0.20668801  0.92272566  1
  O  O40  1  0.17801501  0.97509628  0.92311126  1
  O  O41  1  0.81028666  0.83552755  0.92481980  1
  O  O42  1  0.98227422  0.16019403  0.58658097  1
  O  O43  1  0.17016507  0.00001810  0.58645015  1
  O  O44  1  0.82921052  0.81209020  0.58281940  1
  O  O45  1  0.99944731  0.83453809  0.09646378  1
  O  O46  1  0.82325873  0.99269283  0.09184913  1
  O  O47  1  0.16085318  0.17733226  0.09384120  1
  O  O48  1  0.68593821  0.17087955  0.74378857  1
  O  O49  1  0.46906991  0.31766217  0.74051408  1
  O  O50  1  0.83471322  0.53210491  0.74421062  1
  O  O51  1  0.70531600  0.54432509  0.25245876  1
  O  O52  1  0.82763982  0.29670112  0.25474722  1
  O  O53  1  0.45478046  0.16109091  0.25056338  1
  O  O54  1  0.65174966  0.49650905  0.91953232  1
  O  O55  1  0.86005400  0.34322682  0.92412326  1
  O  O56  1  0.49828648  0.13245646  0.92222474  1
  O  O57  1  0.65863216  0.16259553  0.42790715  1
  O  O58  1  0.48766158  0.33775820  0.42877106  1
  O  O59  1  0.84009985  0.50000256  0.43380547  1
  O  O60  1  0.32707993  0.50176290  0.07660287  1
  O  O61  1  0.17180306  0.67387404  0.07277822  1
  O  O62  1  0.51378587  0.83794831  0.07750732  1
  O  O63  1  0.33821832  0.83632763  0.56952647  1
  O  O64  1  0.51423490  0.66568701  0.56942943  1
  O  O65  1  0.16105957  0.49971928  0.56460382  1
  O  O66  1  0.29586502  0.84011661  0.25062328  1
  O  O67  1  0.54546789  0.70529493  0.25258627  1
  O  O68  1  0.16977663  0.46666344  0.24900852  1
  O  O69  1  0.28641773  0.45521387  0.74224248  1
  O  O70  1  0.15585773  0.68991604  0.74225805  1
  O  O71  1  0.52536858  0.82899660  0.74019953  1
loop_
_geom_bond_atom_site_label_1
_geom_bond_atom_site_label_2
_geom_bond_distance
_geom_bond_site_symmetry_2
Na0 O52 2.394496 1_555
Na0 O31 2.413820 1_545
Na0 O67 2.437058 1_545
Na0 O53 2.626930 1_555
Na0 O66 2.627961 1_545
Na0 O16 2.668982 1_555
Na1 O68 2.385418 1_555
Na1 O53 2.431861 1_555
Na1 O32 2.493208 1_555
Na1 O17 2.594134 1_555
Na1 O67 2.631675 1_555
Na1 O51 2.656993 1_555
Na2 O66 2.442588 1_555
Na2 O30 2.450469 1_555
Na2 O51 2.453552 1_455
Na2 O68 2.529695 1_555
Na2 O52 2.548408 1_455
Na2 O15 2.604252 1_455
Na3 O14 2.376795 1_555
Na3 O50 2.433431 1_555
Na3 O71 2.456292 1_555
Na3 O49 2.519393 1_555
Na3 O35 2.599530 1_555
Na3 O69 2.776845 1_555
Na4 O12 2.395689 1_555
Na4 O48 2.429029 1_555
Na4 O69 2.432957 1_655
Na4 O50 2.555143 1_555
Na4 O70 2.596452 1_655
Na4 O33 2.758501 1_655
Na5 O13 2.344744 1_555
Na5 O48 2.468956 1_555
Na5 O70 2.552201 1_545
Na5 O71 2.566598 1_545
Na5 O49 2.572637 1_555
Na5 O34 2.743052 1_545
Na6 O43 2.445353 1_565
Na6 O63 2.491679 1_555
Na6 O44 2.549246 1_455
Na6 O65 2.639359 1_555
Na6 O8 2.688435 1_555
Na6 O12 2.775035 1_455
Na6 O29 2.879948 1_555
Na6 O22 2.908237 1_455
Na7 O64 2.410290 1_555
Na7 O63 2.559670 1_555
Na7 O44 2.601134 1_555
Na7 O42 2.603923 1_565
Na7 O27 2.711121 1_555
Na7 O13 2.803843 1_565
Na7 O6 2.816851 1_555
Na7 O23 2.887812 1_565
Na8 O46 2.426809 1_555
Na8 O62 2.459843 1_555
Na8 O45 2.613843 1_555
Na8 O19 2.704749 1_555
Na8 O9 2.722071 1_555
Na8 O17 2.751212 1_555
Na8 O60 2.758386 1_555
Na8 O24 2.842344 1_554
Na9 O47 2.397487 1_555
Na9 O60 2.431469 1_555
Na9 O15 2.646747 1_455
Na9 O61 2.675734 1_555
Na9 O46 2.773137 1_445
Na9 O10 2.782516 1_455
Na9 O25 2.816980 1_554
Na9 O20 2.861408 1_455
Na10 O54 2.442373 1_555
Na10 O19 2.448195 1_556
Na10 O40 2.558533 1_655
Na10 O41 2.559205 1_555
Na10 O55 2.589635 1_555
Na10 O4 2.861130 1_555
Na11 O56 2.439815 1_555
Na11 O55 2.475621 1_555
Na11 O41 2.475790 1_545
Na11 O5 2.619529 1_555
Na11 O20 2.623141 1_556
Na11 O39 2.724811 1_655
Na12 O18 2.395562 1_556
Na12 O39 2.440780 1_555
Na12 O54 2.473510 1_555
Na12 O56 2.610500 1_555
Na12 O40 2.631816 1_545
Na12 O3 2.771767 1_555
Na13 O57 2.518619 1_555
Na13 O37 2.523856 1_545
Na13 O38 2.570724 1_655
Na13 O59 2.588451 1_555
Na13 O2 2.713607 1_555
Na13 O30 2.760230 1_655
Na13 O23 2.828584 1_555
Na13 O28 2.884159 1_655
Na14 O58 2.440850 1_555
Na14 O36 2.510000 1_545
Na14 O38 2.543082 1_555
Na14 O57 2.599907 1_555
Na14 O0 2.668908 1_555
Na14 O21 2.745509 1_555
Na14 O31 2.865465 1_545
Na14 O29 2.901948 1_545
Na15 O43 2.460074 1_565
Na15 O36 2.475405 1_555
Na15 O44 2.477405 1_455
Na15 O38 2.494403 1_565
Na15 O42 2.497464 1_465
Na15 O37 2.541423 1_455
Na16 O45 2.437570 1_455
Na16 O40 2.449267 1_554
Na16 O47 2.484218 1_565
Na16 O41 2.490096 1_454
Na16 O46 2.571288 1_455
Na16 O39 2.629579 1_564
Na17 O54 2.486470 1_555
Na17 O48 2.532830 1_555
Na17 O50 2.598861 1_555
Na17 O56 2.633379 1_555
Na17 O55 2.671613 1_555
Na17 O49 2.701889 1_555
Na18 O59 2.506149 1_555
Na18 O57 2.539387 1_555
Na18 O58 2.552301 1_555
Na18 O52 2.573016 1_555
Na18 O51 2.586015 1_555
Na18 O53 2.785257 1_555
Na19 O61 2.435680 1_555
Na19 O60 2.477038 1_555
Na19 O62 2.511965 1_555
Na19 O68 2.565698 1_555
Na19 O66 2.579377 1_555
Na19 O67 2.776563 1_555
Na20 O71 2.503110 1_555
Na20 O69 2.507862 1_555
Na20 O64 2.514643 1_555
Na20 O65 2.555932 1_555
Na20 O63 2.567518 1_555
Na20 O70 2.633556 1_555
O0 P0 1.545582 1_555
O0 Ti0 2.086034 1_445
O1 P1 1.566109 1_555
O1 Ti0 1.929474 1_555
O2 Si0 1.666049 1_555
O2 Ti0 1.877840 1_545
O3 P2 1.537929 1_555
O3 Y0 2.230445 1_445
O4 P3 1.544548 1_555
O4 Y0 2.181917 1_555
O5 Si1 1.628727 1_555
O5 Y0 2.130007 1_545
O6 Si1 1.686336 1_565
O6 Ti1 1.877586 1_665
O7 P2 1.564981 1_555
O7 Ti1 1.930472 1_555
O8 P3 1.554960 1_455
O8 Ti1 2.072729 1_565
O9 P1 1.542285 1_555
O9 Ti2 2.066028 1_665
O10 Si0 1.645081 1_555
O10 Ti2 1.882790 1_655
O11 P0 1.557828 1_565
O11 Ti2 1.930771 1_565
O12 Si2 1.624834 1_555
O12 Y1 2.200157 1_555
O13 Si3 1.621882 1_555
O13 Y1 2.171259 1_555
O14 P4 1.544952 1_555
O14 Y1 2.270493 1_555
O15 Si4 1.643575 1_555
O15 Y2 2.186470 1_555
O16 P5 1.538259 1_555
O16 Y2 2.236103 1_555
O17 Si5 1.630863 1_555
O17 Y2 2.201040 1_555
O18 Si5 1.610771 1_555
O18 Y3 2.145797 1_554
O19 Si4 1.631451 1_555
O19 Y3 2.179780 1_554
O20 P5 1.540945 1_555
O20 Y3 2.263720 1_554
O21 Si3 1.652739 1_555
O21 Ti3 1.919838 1_555
O22 P4 1.555139 1_555
O22 Ti3 2.029404 1_555
O23 Si2 1.668743 1_555
O23 Ti3 1.902573 1_555
O24 Si6 1.671874 1_555
O24 Ti4 1.891825 1_556
O25 P6 1.559142 1_555
O25 Ti4 1.988518 1_556
O26 P7 1.552119 1_555
O26 Ti4 1.984367 1_556
O27 Si7 1.640026 1_555
O27 Ti5 1.922270 1_555
O28 P8 1.547795 1_555
O28 Ti5 2.025378 1_555
O29 Si8 1.665093 1_555
O29 Ti5 1.884669 1_555
O30 Si8 1.634044 1_555
O30 Y4 2.193812 1_555
O31 Si7 1.621970 1_555
O31 Y4 2.195702 1_555
O32 P8 1.544649 1_555
O32 Y4 2.238406 1_555
O33 P6 1.539600 1_555
O33 Y5 2.240110 1_555
O34 P7 1.546614 1_555
O34 Y5 2.199739 1_555
O35 Si6 1.629262 1_555
O35 Y5 2.131197 1_555
O36 Si8 1.646640 1_555
O36 Ti0 1.999685 1_455
O37 Si7 1.661147 1_555
O37 Ti0 1.926384 1_555
O38 P8 1.578823 1_555
O38 Ti0 2.165352 1_445
O39 P6 1.550209 1_555
O39 Y0 2.318791 1_445
O40 P7 1.548712 1_555
O40 Y0 2.364284 1_455
O41 Si6 1.639813 1_555
O41 Y0 2.251098 1_555
O42 Si2 1.654931 1_555
O42 Ti1 1.938083 1_655
O43 Si3 1.643148 1_555
O43 Ti1 2.022410 1_555
O44 P4 1.577500 1_555
O44 Ti1 2.162072 1_665
O45 Si4 1.637072 1_555
O45 Ti2 1.914110 1_665
O46 P5 1.557971 1_565
O46 Ti2 2.060652 1_665
O47 Si5 1.650538 1_555
O47 Ti2 1.897399 1_555
O48 Si1 1.636036 1_555
O48 Y1 2.246468 1_555
O49 P2 1.543752 1_555
O49 Y1 2.320618 1_555
O50 P3 1.550775 1_555
O50 Y1 2.343460 1_555
O51 P1 1.552485 1_555
O51 Y2 2.351665 1_555
O52 Si0 1.636342 1_555
O52 Y2 2.285520 1_555
O53 P0 1.548162 1_555
O53 Y2 2.348593 1_555
O54 Si6 1.633946 1_555
O54 Y3 2.224849 1_555
O55 P6 1.538920 1_655
O55 Y3 2.326407 1_555
O56 P7 1.538384 1_545
O56 Y3 2.308950 1_555
O57 Si7 1.662576 1_545
O57 Ti3 1.966687 1_555
O58 P8 1.547321 1_555
O58 Ti3 2.138877 1_555
O59 Si8 1.641179 1_655
O59 Ti3 1.963135 1_555
O60 Si5 1.660732 1_555
O60 Ti4 1.932887 1_555
O61 Si4 1.635999 1_455
O61 Ti4 1.933425 1_555
O62 P5 1.551333 1_565
O62 Ti4 2.056391 1_555
O63 Si3 1.662463 1_565
O63 Ti5 1.943726 1_555
O64 P4 1.539185 1_555
O64 Ti5 2.151060 1_555
O65 Si2 1.628992 1_455
O65 Ti5 1.952286 1_555
O66 P0 1.555727 1_565
O66 Y4 2.389594 1_555
O67 P1 1.545723 1_555
O67 Y4 2.368287 1_555
O68 Si0 1.637972 1_455
O68 Y4 2.294137 1_555
O69 P2 1.546847 1_555
O69 Y5 2.336354 1_555
O70 P3 1.550323 1_455
O70 Y5 2.351260 1_555
O71 Si1 1.638859 1_565
O71 Y5 2.253965 1_555
