# generated using pymatgen
data_EuMgFeO3
_symmetry_space_group_name_H-M   'P 1'
_cell_length_a   3.90225774
_cell_length_b   3.90175351
_cell_length_c   7.28144564
_cell_angle_alpha   90.00000000
_cell_angle_beta   90.00000000
_cell_angle_gamma   90.00000000
_symmetry_Int_Tables_number   1
_chemical_formula_structural   EuMgFeO3
_chemical_formula_sum   'Eu1 Mg1 Fe1 O3'
_cell_volume   110.86472704
_cell_formula_units_Z   1
loop_
 _symmetry_equiv_pos_site_id
 _symmetry_equiv_pos_as_xyz
  1  'x, y, z'
loop_
 _atom_site_type_symbol
 _atom_site_label
 _atom_site_symmetry_multiplicity
 _atom_site_fract_x
 _atom_site_fract_y
 _atom_site_fract_z
 _atom_site_occupancy
  Eu  Eu0  1  0.50000000  0.50000000  0.50000000  1
  Mg  Mg0  1  0.50000000  0.50000000  0.00000000  1
  Fe  Fe0  1  -0.00000000  -0.00000000  0.00000000  1
  O  O0  1  0.50000000  -0.00000000  0.00000000  1
  O  O1  1  -0.00000000  0.50000000  0.00000000  1
  O  O2  1  -0.00000000  -0.00000000  0.50000000  1
loop_
_geom_bond_atom_site_label_1
_geom_bond_atom_site_label_2
_geom_bond_distance
_geom_bond_site_symmetry_2
Eu0 O2 2.759135 1_665
Eu0 O2 2.759135 1_565
Eu0 O2 2.759135 1_555
Eu0 O2 2.759135 1_655
Mg0 O0 1.950877 1_555
Mg0 O0 1.950877 1_565
Mg0 O1 1.951129 1_655
Mg0 O1 1.951129 1_555
Fe0 O1 1.950877 1_555
Fe0 O1 1.950877 1_545
Fe0 O0 1.951129 1_555
Fe0 O0 1.951129 1_455
