# generated using pymatgen
data_Mn6Si7Ni16
_symmetry_space_group_name_H-M   'P 1'
_cell_length_a   7.80082259
_cell_length_b   7.80082282
_cell_length_c   7.80082177
_cell_angle_alpha   60.00417865
_cell_angle_beta   60.00417478
_cell_angle_gamma   60.00418522
_symmetry_Int_Tables_number   1
_chemical_formula_structural   Mn6Si7Ni16
_chemical_formula_sum   'Mn6 Si7 Ni16'
_cell_volume   335.69689463
_cell_formula_units_Z   1
loop_
 _symmetry_equiv_pos_site_id
 _symmetry_equiv_pos_as_xyz
  1  'x, y, z'
loop_
 _atom_site_type_symbol
 _atom_site_label
 _atom_site_symmetry_multiplicity
 _atom_site_fract_x
 _atom_site_fract_y
 _atom_site_fract_z
 _atom_site_occupancy
  Mn  Mn0  1  0.30641512  0.69357837  0.30641514  1
  Mn  Mn1  1  0.30642064  0.69358499  0.69358569  1
  Mn  Mn2  1  0.69357929  0.30641443  0.30641451  1
  Mn  Mn3  1  0.69358581  0.69358499  0.30642032  1
  Mn  Mn4  1  0.30641460  0.30641394  0.69357933  1
  Mn  Mn5  1  0.69358541  0.30642030  0.69358582  1
  Si  Si0  1  0.00000023  -0.00000085  0.00000025  1
  Si  Si1  1  0.00000369  0.49999635  0.00000386  1
  Si  Si2  1  0.49999536  0.00000311  0.00000524  1
  Si  Si3  1  0.00000364  0.49999649  0.49999572  1
  Si  Si4  1  0.49999551  0.00000324  0.49999582  1
  Si  Si5  1  0.00000507  0.00000303  0.49999559  1
  Si  Si6  1  0.49999565  0.49999638  0.00000402  1
  Ni  Ni0  1  0.33296968  0.33296927  0.33296941  1
  Ni  Ni1  1  -0.00109753  0.66703424  0.66703477  1
  Ni  Ni2  1  0.66703387  -0.00109501  0.66703395  1
  Ni  Ni3  1  0.66703473  0.66703442  -0.00109749  1
  Ni  Ni4  1  0.33296816  0.00108921  0.33296788  1
  Ni  Ni5  1  0.33296941  0.33296828  0.00108727  1
  Ni  Ni6  1  0.00108682  0.33296822  0.33296923  1
  Ni  Ni7  1  0.66703440  0.66703331  0.66703454  1
  Ni  Ni8  1  0.11775935  0.11776026  0.11775920  1
  Ni  Ni9  1  0.35328315  0.88224002  0.88223935  1
  Ni  Ni10  1  0.88223965  0.35328169  0.88224003  1
  Ni  Ni11  1  0.88223925  0.88224036  0.35328308  1
  Ni  Ni12  1  0.11775777  0.64672700  0.11775742  1
  Ni  Ni13  1  0.11775633  0.11775776  0.64672875  1
  Ni  Ni14  1  0.64672834  0.11775800  0.11775648  1
  Ni  Ni15  1  0.88223559  0.88223720  0.88223582  1
loop_
_geom_bond_atom_site_label_1
_geom_bond_atom_site_label_2
_geom_bond_distance
_geom_bond_site_symmetry_2
Mn0 Ni0 2.622343 1_555
Mn0 Ni4 2.622359 1_565
Mn0 Ni3 2.622568 1_555
Mn0 Ni1 2.622568 1_555
Mn0 Ni12 2.776052 1_555
Mn0 Ni9 2.776289 1_554
Mn0 Ni11 2.776290 1_455
Mn0 Ni8 2.776373 1_565
Mn0 Si6 2.827372 1_555
Mn0 Si3 2.827374 1_555
Mn0 Si2 2.827511 1_565
Mn0 Si5 2.827512 1_565
Mn0 Mn1 3.020296 1_555
Mn0 Mn3 3.020296 1_555
Mn0 Mn2 3.020389 1_555
Mn0 Mn4 3.020391 1_555
Mn1 Ni1 2.622398 1_555
Mn1 Ni7 2.622399 1_555
Mn1 Ni5 2.622519 1_556
Mn1 Ni4 2.622532 1_565
Mn1 Ni9 2.776067 1_555
Mn1 Ni12 2.776277 1_556
Mn1 Ni13 2.776286 1_565
Mn1 Ni15 2.776375 1_455
Mn1 Si4 2.827369 1_565
Mn1 Si6 2.827372 1_556
Mn1 Si5 2.827513 1_565
Mn1 Si1 2.827514 1_556
Mn1 Mn4 3.020301 1_555
Mn1 Mn5 3.020394 1_555
Mn1 Mn3 3.020398 1_555
Mn2 Ni0 2.622344 1_555
Mn2 Ni6 2.622346 1_655
Mn2 Ni2 2.622557 1_555
Mn2 Ni3 2.622568 1_555
Mn2 Ni14 2.776046 1_555
Mn2 Ni11 2.776277 1_545
Mn2 Ni10 2.776281 1_554
Mn2 Ni8 2.776360 1_655
Mn2 Si6 2.827375 1_555
Mn2 Si4 2.827381 1_555
Mn2 Si1 2.827517 1_655
Mn2 Si5 2.827523 1_655
Mn2 Mn3 3.020297 1_555
Mn2 Mn5 3.020301 1_555
Mn2 Mn4 3.020394 1_555
Mn3 Ni3 2.622394 1_555
Mn3 Ni7 2.622401 1_555
Mn3 Ni6 2.622518 1_655
Mn3 Ni4 2.622532 1_565
Mn3 Ni11 2.776069 1_555
Mn3 Ni12 2.776279 1_655
Mn3 Ni14 2.776287 1_565
Mn3 Ni15 2.776371 1_554
Mn3 Si3 2.827371 1_655
Mn3 Si4 2.827372 1_565
Mn3 Si1 2.827512 1_655
Mn3 Si2 2.827512 1_565
Mn3 Mn5 3.020397 1_555
Mn4 Ni0 2.622344 1_555
Mn4 Ni5 2.622352 1_556
Mn4 Ni2 2.622555 1_555
Mn4 Ni1 2.622570 1_555
Mn4 Ni13 2.776044 1_555
Mn4 Ni9 2.776276 1_545
Mn4 Ni10 2.776284 1_455
Mn4 Ni8 2.776358 1_556
Mn4 Si4 2.827377 1_555
Mn4 Si3 2.827377 1_555
Mn4 Si1 2.827521 1_556
Mn4 Si2 2.827521 1_556
Mn4 Mn5 3.020301 1_555
Mn5 Ni2 2.622383 1_555
Mn5 Ni7 2.622395 1_555
Mn5 Ni5 2.622515 1_556
Mn5 Ni6 2.622518 1_655
Mn5 Ni10 2.776059 1_555
Mn5 Ni14 2.776271 1_556
Mn5 Ni13 2.776274 1_655
Mn5 Ni15 2.776361 1_545
Mn5 Si6 2.827376 1_556
Mn5 Si3 2.827376 1_655
Mn5 Si2 2.827523 1_556
Mn5 Si5 2.827525 1_655
Ni0 Si6 2.252020 1_555
Ni0 Si4 2.252021 1_555
Ni0 Si3 2.252024 1_555
Ni0 Ni12 2.495713 1_555
Ni0 Ni14 2.495716 1_555
Ni0 Ni13 2.495720 1_555
Ni0 Ni4 2.588949 1_555
Ni0 Ni5 2.588958 1_555
Ni0 Ni6 2.588964 1_555
Ni1 Si3 2.251931 1_555
Ni1 Si1 2.252028 1_556
Ni1 Si5 2.252029 1_565
Ni1 Ni15 2.495452 1_455
Ni1 Ni11 2.495611 1_455
Ni1 Ni10 2.495615 1_455
Ni1 Ni7 2.588848 1_455
Ni1 Ni3 2.589005 1_456
Ni1 Ni2 2.589020 1_465
Ni2 Si4 2.251942 1_555
Ni2 Si5 2.252035 1_655
Ni2 Si2 2.252036 1_556
Ni2 Ni9 2.495612 1_545
Ni2 Ni7 2.588868 1_545
Ni2 Ni3 2.589019 1_546
Ni3 Si6 2.251931 1_555
Ni3 Si1 2.252028 1_655
Ni3 Si2 2.252029 1_565
Ni3 Ni9 2.495611 1_554
Ni3 Ni7 2.588849 1_554
Ni4 Si4 2.251853 1_555
Ni4 Si2 2.251950 1_555
Ni4 Si5 2.251953 1_555
Ni4 Ni8 2.495529 1_555
Ni4 Ni5 2.589099 1_555
Ni4 Ni6 2.589102 1_555
Ni5 Si6 2.251859 1_555
Ni5 Si2 2.251958 1_555
Ni5 Si1 2.251965 1_555
Ni5 Ni8 2.495531 1_555
Ni5 Ni6 2.589118 1_555
Ni6 Si3 2.251862 1_555
Ni6 Si5 2.251958 1_555
Ni6 Si1 2.251962 1_555
Ni6 Ni8 2.495529 1_555
Ni7 Si3 2.252089 1_655
Ni7 Si6 2.252089 1_556
Ni7 Si4 2.252096 1_565
Ni7 Ni9 2.495647 1_555
Ni8 Si0 2.250086 1_555
Ni8 Si2 2.438207 1_555
Ni8 Si1 2.438207 1_555
Ni8 Si5 2.438209 1_555
Ni8 Ni9 2.598346 1_544
Ni9 Si0 2.250299 1_566
Ni9 Si2 2.438038 1_566
Ni9 Si4 2.438261 1_565
Ni9 Si6 2.438262 1_556
Ni10 Si0 2.250297 1_656
Ni10 Si1 2.438047 1_656
Ni10 Si6 2.438265 1_556
Ni10 Si3 2.438266 1_655
Ni10 Ni3 2.495615 1_556
Ni10 Ni7 2.495645 1_555
Ni10 Ni14 2.598318 1_556
Ni10 Ni13 2.598319 1_655
Ni10 Ni8 2.598339 1_656
Ni11 Si0 2.250298 1_665
Ni11 Si5 2.438037 1_665
Ni11 Si4 2.438263 1_565
Ni11 Si3 2.438264 1_655
Ni11 Ni2 2.495612 1_565
Ni11 Ni7 2.495649 1_555
Ni11 Ni14 2.598332 1_565
Ni11 Ni12 2.598340 1_655
Ni11 Ni8 2.598345 1_665
Ni12 Si0 2.250231 1_565
Ni12 Si1 2.438026 1_555
Ni12 Si6 2.438233 1_555
Ni12 Si3 2.438235 1_555
Ni12 Ni5 2.495685 1_555
Ni12 Ni6 2.495688 1_555
Ni12 Ni9 2.598337 1_554
Ni12 Ni15 2.598366 1_454
Ni13 Si0 2.250226 1_556
Ni13 Si5 2.438033 1_555
Ni13 Si3 2.438239 1_555
Ni13 Si4 2.438241 1_555
Ni13 Ni6 2.495687 1_555
Ni13 Ni4 2.495692 1_555
Ni13 Ni9 2.598331 1_545
Ni13 Ni15 2.598353 1_445
Ni14 Si0 2.250229 1_655
Ni14 Si2 2.438032 1_555
Ni14 Si6 2.438237 1_555
Ni14 Si4 2.438242 1_555
Ni14 Ni5 2.495683 1_555
Ni14 Ni4 2.495689 1_555
Ni14 Ni15 2.598354 1_544
Ni15 Si0 2.250161 1_666
Ni15 Si5 2.438225 1_665
Ni15 Si2 2.438226 1_566
Ni15 Si1 2.438230 1_656
Ni15 Ni2 2.495447 1_565
Ni15 Ni3 2.495450 1_556
