# generated using pymatgen
data_Na2Hf2Zr2Si3(SO8)3
_symmetry_space_group_name_H-M   'P 1'
_cell_length_a   8.98648428
_cell_length_b   8.96493844
_cell_length_c   23.51137926
_cell_angle_alpha   90.35048976
_cell_angle_beta   90.26844669
_cell_angle_gamma   119.92316118
_symmetry_Int_Tables_number   1
_chemical_formula_structural   Na2Hf2Zr2Si3(SO8)3
_chemical_formula_sum   'Na6 Hf6 Zr6 Si9 S9 O72'
_cell_volume   1641.55781624
_cell_formula_units_Z   3
loop_
 _symmetry_equiv_pos_site_id
 _symmetry_equiv_pos_as_xyz
  1  'x, y, z'
loop_
 _atom_site_type_symbol
 _atom_site_label
 _atom_site_symmetry_multiplicity
 _atom_site_fract_x
 _atom_site_fract_y
 _atom_site_fract_z
 _atom_site_occupancy
  Na  Na0  1  0.97768649  0.97323914  0.49396453  1
  Na  Na1  1  0.00773808  0.98170486  0.00149717  1
  Na  Na2  1  0.64623189  0.30711233  0.82777233  1
  Na  Na3  1  0.67368441  0.31641531  0.33553865  1
  Na  Na4  1  0.30842277  0.65851316  0.17662163  1
  Na  Na5  1  0.35280565  0.65975569  0.66361800  1
  Hf  Hf0  1  0.00368158  0.00368438  0.35328755  1
  Hf  Hf1  1  0.01247916  0.01105563  0.85100175  1
  Hf  Hf2  1  0.68300383  0.33591986  0.19131005  1
  Hf  Hf3  1  0.66447987  0.33519899  0.97985225  1
  Hf  Hf4  1  0.31977352  0.67442953  0.02117644  1
  Hf  Hf5  1  0.34776986  0.68196548  0.81040151  1
  Zr  Zr0  1  0.98735592  0.00083195  0.64745948  1
  Zr  Zr1  1  0.00950031  0.99674203  0.14975524  1
  Zr  Zr2  1  0.65278767  0.33233844  0.68836324  1
  Zr  Zr3  1  0.67920563  0.34588535  0.47660421  1
  Zr  Zr4  1  0.34883004  0.67949692  0.51621523  1
  Zr  Zr5  1  0.32011841  0.67597949  0.31345150  1
  Si  Si0  1  0.29785895  0.00737910  0.25075107  1
  Si  Si1  1  0.00852166  0.29049043  0.24991493  1
  Si  Si2  1  0.28847888  0.29345168  0.75024707  1
  Si  Si3  1  0.71381304  0.00689690  0.75212361  1
  Si  Si4  1  0.66384885  0.62559770  0.58383143  1
  Si  Si5  1  0.95170304  0.62474382  0.08286434  1
  Si  Si6  1  0.32962243  0.95931216  0.91670290  1
  Si  Si7  1  0.63113240  0.96075901  0.41496066  1
  Si  Si8  1  0.04438778  0.67402615  0.41780929  1
  S  S0  1  0.70982284  0.70980805  0.24953786  1
  S  S1  1  0.00191248  0.71128909  0.75113092  1
  S  S2  1  0.95850478  0.33661864  0.58409208  1
  S  S3  1  0.37348845  0.04151668  0.58325546  1
  S  S4  1  0.66574084  0.04462709  0.08179995  1
  S  S5  1  0.37941355  0.33690910  0.08188216  1
  S  S6  1  0.62103735  0.66673828  0.91788503  1
  S  S7  1  0.04326582  0.37767024  0.91718614  1
  S  S8  1  0.33227767  0.37582728  0.41592747  1
  O  O0  1  0.20154010  0.02649559  0.30572012  1
  O  O1  1  0.81681831  0.78851976  0.30064742  1
  O  O2  1  0.97489138  0.17060468  0.30487810  1
  O  O3  1  0.20168149  0.17276580  0.80676282  1
  O  O4  1  0.97746057  0.79389902  0.80264903  1
  O  O5  1  0.82620000  0.02044966  0.80878916  1
  O  O6  1  0.79681213  0.97011905  0.69562113  1
  O  O7  1  0.17634830  0.19887805  0.69367278  1
  O  O8  1  0.02925835  0.81487925  0.69991300  1
  O  O9  1  0.79104117  0.81380714  0.19763209  1
  O  O10  1  0.01625283  0.19288641  0.19114278  1
  O  O11  1  0.17751888  0.97157293  0.19271081  1
  O  O12  1  0.87309726  0.35253394  0.63541709  1
  O  O13  1  0.47975014  0.12242226  0.63580509  1
  O  O14  1  0.64816010  0.51024991  0.64038684  1
  O  O15  1  0.85723653  0.50641634  0.13754544  1
  O  O16  1  0.63599322  0.12062761  0.13318836  1
  O  O17  1  0.48116941  0.35929703  0.13300214  1
  O  O18  1  0.46207803  0.31029668  0.03005942  1
  O  O19  1  0.83822072  0.52479982  0.02565091  1
  O  O20  1  0.68080350  0.14936485  0.03064145  1
  O  O21  1  0.45646226  0.14314329  0.53281207  1
  O  O22  1  0.68180927  0.52608177  0.52843129  1
  O  O23  1  0.85261613  0.30967227  0.53238023  1
  O  O24  1  0.53628025  0.68590510  0.96889649  1
  O  O25  1  0.15111946  0.45946296  0.96902862  1
  O  O26  1  0.30946399  0.84061966  0.97303283  1
  O  O27  1  0.54292216  0.84230691  0.47229492  1
  O  O28  1  0.31038136  0.45729594  0.46812791  1
  O  O29  1  0.15759511  0.68902240  0.47457944  1
  O  O30  1  0.12617730  0.63703522  0.36113038  1
  O  O31  1  0.51179316  0.86245832  0.35989850  1
  O  O32  1  0.35796293  0.47940741  0.36525079  1
  O  O33  1  0.12147527  0.48066175  0.86657966  1
  O  O34  1  0.35424119  0.86227544  0.86190298  1
  O  O35  1  0.51466063  0.63789649  0.86607853  1
  O  O36  1  0.02806905  0.84477508  0.41117439  1
  O  O37  1  0.82235818  0.98600769  0.40972076  1
  O  O38  1  0.17654542  0.20387207  0.41143520  1
  O  O39  1  0.02286407  0.20270851  0.91276349  1
  O  O40  1  0.15636199  0.97566429  0.91208662  1
  O  O41  1  0.79328208  0.81920402  0.91236451  1
  O  O42  1  0.97668519  0.17925107  0.58792739  1
  O  O43  1  0.20205952  0.02459781  0.58976733  1
  O  O44  1  0.83942454  0.81536608  0.58910506  1
  O  O45  1  0.97231605  0.81609815  0.08521672  1
  O  O46  1  0.82002478  0.02900289  0.08541716  1
  O  O47  1  0.20502043  0.18332642  0.08458240  1
  O  O48  1  0.69983923  0.17928107  0.74486940  1
  O  O49  1  0.48207304  0.31792236  0.74615358  1
  O  O50  1  0.84923911  0.53874559  0.74579693  1
  O  O51  1  0.69439814  0.53657719  0.24216922  1
  O  O52  1  0.83806064  0.31596945  0.24334698  1
  O  O53  1  0.48269315  0.18094029  0.23959771  1
  O  O54  1  0.63842836  0.50878902  0.92348673  1
  O  O55  1  0.86911420  0.35818313  0.92494485  1
  O  O56  1  0.50195402  0.15016377  0.92497913  1
  O  O57  1  0.63794734  0.14488434  0.42464764  1
  O  O58  1  0.48377010  0.35212186  0.42274702  1
  O  O59  1  0.85103556  0.50268950  0.42224889  1
  O  O60  1  0.36531708  0.49393036  0.07275353  1
  O  O61  1  0.14461937  0.64179626  0.07572232  1
  O  O62  1  0.51208339  0.86840100  0.07417813  1
  O  O63  1  0.35489019  0.86708155  0.57996578  1
  O  O64  1  0.49081925  0.64277147  0.58037928  1
  O  O65  1  0.12942599  0.49032997  0.57946943  1
  O  O66  1  0.32220416  0.83868173  0.25318732  1
  O  O67  1  0.53891404  0.68893608  0.25432724  1
  O  O68  1  0.18239209  0.47650336  0.25379274  1
  O  O69  1  0.30214320  0.47981229  0.76077769  1
  O  O70  1  0.15539516  0.69124916  0.75896210  1
  O  O71  1  0.52055316  0.83630449  0.75788155  1
loop_
_geom_bond_atom_site_label_1
_geom_bond_atom_site_label_2
_geom_bond_distance
_geom_bond_site_symmetry_2
Na0 O36 2.412737 1_655
Na0 O37 2.453755 1_555
Na0 O44 2.619334 1_555
Na0 O38 2.762038 1_665
Na0 O42 2.873754 1_565
Na0 O43 2.893036 1_665
Na1 O45 2.397937 1_455
Na1 O40 2.510568 1_554
Na1 O47 2.636944 1_565
Na1 O41 2.711429 1_454
Na1 O46 2.766399 1_465
Na1 O39 2.842700 1_564
Na2 O48 2.424229 1_555
Na2 O49 2.446725 1_555
Na2 O56 2.670431 1_555
Na2 O50 2.767199 1_555
Na2 O54 2.901077 1_555
Na2 O55 2.910401 1_555
Na3 O57 2.531840 1_555
Na3 O59 2.599534 1_555
Na3 O52 2.629849 1_555
Na3 O53 2.712859 1_555
Na3 O58 2.790890 1_555
Na3 O51 2.905113 1_555
Na4 O68 2.334304 1_555
Na4 O66 2.372250 1_555
Na4 O67 2.664082 1_555
Na4 O61 2.749518 1_555
Na5 O64 2.366220 1_555
Na5 O65 2.671146 1_555
Na5 O71 2.689751 1_555
Na5 O63 2.708050 1_555
Na5 O69 2.711091 1_555
Na5 O70 2.963310 1_555
Hf0 O2 2.001504 1_455
Hf0 O0 2.027984 1_555
Hf0 O37 2.050834 1_445
Hf0 O36 2.064530 1_545
Hf0 O38 2.161414 1_555
Hf0 O1 2.189088 1_445
Hf1 O3 1.910569 1_555
Hf1 O5 1.980017 1_455
Hf1 O40 2.057334 1_545
Hf1 O4 2.130680 1_445
Hf1 O39 2.208531 1_555
Hf1 O41 2.365735 1_445
Hf2 O52 1.925043 1_555
Hf2 O53 2.000720 1_555
Hf2 O15 2.010037 1_555
Hf2 O51 2.113076 1_555
Hf2 O16 2.218085 1_555
Hf2 O17 2.360624 1_555
Hf3 O19 1.949495 1_556
Hf3 O56 2.021969 1_555
Hf3 O18 2.090414 1_556
Hf3 O20 2.118843 1_556
Hf3 O54 2.149113 1_555
Hf3 O55 2.176736 1_555
Hf4 O26 1.914928 1_554
Hf4 O61 1.942136 1_555
Hf4 O62 2.125677 1_555
Hf4 O25 2.133988 1_554
Hf4 O60 2.221840 1_555
Hf4 O24 2.265216 1_554
Hf5 O71 1.935360 1_555
Hf5 O34 1.991021 1_555
Hf5 O69 2.010487 1_555
Hf5 O70 2.140898 1_555
Hf5 O35 2.167496 1_555
Hf5 O33 2.351557 1_555
O0 Si0 1.613889 1_555
O1 S0 1.472518 1_555
O2 Si1 1.616475 1_655
O3 Si2 1.652258 1_555
O4 S1 1.489226 1_655
O5 Si3 1.634857 1_555
O6 Si3 1.636793 1_565
O6 Zr0 1.960017 1_565
O7 Si2 1.620118 1_555
O7 Zr0 2.041578 1_455
O8 S1 1.470276 1_555
O8 Zr0 2.255851 1_465
O9 S0 1.494875 1_555
O9 Zr1 2.154512 1_655
O10 Si1 1.651256 1_555
O10 Zr1 1.978552 1_545
O11 Si0 1.664083 1_565
O11 Zr1 1.918095 1_555
O12 S2 1.476969 1_555
O12 Zr2 2.273825 1_555
O13 S3 1.500473 1_555
O13 Zr2 2.126151 1_555
O14 Si4 1.652400 1_555
O14 Zr2 1.976298 1_555
O15 Si5 1.620886 1_555
O16 S4 1.473139 1_555
O17 S5 1.457626 1_555
O18 S5 1.508333 1_555
O19 Si5 1.647139 1_555
O20 S4 1.495081 1_555
O21 S3 1.461633 1_555
O21 Zr3 2.341184 1_555
O22 Si4 1.627881 1_555
O22 Zr3 2.008226 1_555
O23 S2 1.482658 1_555
O23 Zr3 2.178152 1_555
O24 S6 1.478078 1_555
O25 S7 1.493892 1_555
O26 Si6 1.657185 1_555
O27 Si7 1.661585 1_555
O27 Zr4 1.932453 1_555
O28 S8 1.487649 1_555
O28 Zr4 2.155894 1_555
O29 Si8 1.638053 1_555
O29 Zr4 2.012606 1_555
O30 Si8 1.634921 1_555
O30 Zr5 1.957568 1_555
O31 Si7 1.622601 1_555
O31 Zr5 2.010332 1_555
O32 S8 1.462003 1_555
O32 Zr5 2.307538 1_555
O33 S7 1.461512 1_555
O34 Si6 1.626875 1_555
O35 S6 1.484238 1_555
O36 Si8 1.617317 1_555
O37 Si7 1.622877 1_555
O38 S8 1.479994 1_555
O39 S7 1.488491 1_555
O40 Si6 1.638248 1_555
O41 S6 1.474549 1_555
O42 S2 1.502175 1_555
O42 Zr0 2.169312 1_555
O43 S3 1.479558 1_555
O43 Zr0 2.286025 1_455
O44 Si4 1.648242 1_555
O44 Zr0 2.040575 1_565
O45 Si5 1.631549 1_555
O45 Zr1 2.112363 1_655
O46 S4 1.463538 1_555
O46 Zr1 2.396584 1_645
O47 S5 1.484943 1_555
O47 Zr1 2.314629 1_545
O48 Si3 1.621666 1_555
O48 Zr2 2.102966 1_555
O49 Si2 1.644721 1_555
O49 Zr2 2.010040 1_555
O50 S1 1.472924 1_655
O50 Zr2 2.247688 1_555
O51 S0 1.497587 1_555
O52 Si1 1.664294 1_655
O53 Si0 1.636873 1_555
O54 S6 1.506557 1_555
O55 S7 1.497781 1_655
O56 Si6 1.647173 1_545
O57 Si7 1.635468 1_545
O57 Zr3 2.044270 1_555
O58 S8 1.487029 1_555
O58 Zr3 2.183813 1_555
O59 Si8 1.652362 1_655
O59 Zr3 1.966861 1_555
O60 S5 1.491657 1_555
O61 Si5 1.672035 1_455
O62 S4 1.500845 1_565
O63 S3 1.488970 1_565
O63 Zr4 2.225904 1_555
O64 Si4 1.638873 1_555
O64 Zr4 2.102269 1_555
O65 S2 1.470266 1_455
O65 Zr4 2.386967 1_555
O66 Si0 1.633838 1_565
O66 Zr5 2.033164 1_555
O67 S0 1.456622 1_555
O67 Zr5 2.368869 1_555
O68 Si1 1.621052 1_555
O68 Zr5 2.107639 1_555
O69 Si2 1.630225 1_555
O70 S1 1.487887 1_555
O71 Si3 1.651758 1_565
