# generated using pymatgen
data_Na7Ca3SnP5SO24
_symmetry_space_group_name_H-M   'P 1'
_cell_length_a   9.36238262
_cell_length_b   9.36862144
_cell_length_c   22.79178527
_cell_angle_alpha   90.06067571
_cell_angle_beta   90.00242478
_cell_angle_gamma   120.15098787
_symmetry_Int_Tables_number   1
_chemical_formula_structural   Na7Ca3SnP5SO24
_chemical_formula_sum   'Na21 Ca9 Sn3 P15 S3 O72'
_cell_volume   1728.65346748
_cell_formula_units_Z   3
loop_
 _symmetry_equiv_pos_site_id
 _symmetry_equiv_pos_as_xyz
  1  'x, y, z'
loop_
 _atom_site_type_symbol
 _atom_site_label
 _atom_site_symmetry_multiplicity
 _atom_site_fract_x
 _atom_site_fract_y
 _atom_site_fract_z
 _atom_site_occupancy
  Na  Na0  1  0.62027636  0.99902477  0.25141267  1
  Na  Na1  1  0.36515235  0.35181362  0.25388985  1
  Na  Na2  1  0.01335455  0.64802514  0.25111997  1
  Na  Na3  1  0.65069533  0.64331513  0.74941215  1
  Na  Na4  1  0.99126098  0.35295834  0.74930232  1
  Na  Na5  1  0.29487869  0.34495492  0.58643256  1
  Na  Na6  1  0.02502240  0.69161943  0.58818529  1
  Na  Na7  1  0.67530615  0.95891202  0.58490456  1
  Na  Na8  1  0.29611246  0.96102209  0.07944246  1
  Na  Na9  1  0.66278918  0.70180622  0.07429310  1
  Na  Na10  1  0.03948711  0.33699749  0.07511418  1
  Na  Na11  1  0.97574834  0.67656985  0.90832477  1
  Na  Na12  1  0.32319895  0.29511401  0.90817152  1
  Na  Na13  1  0.32665462  0.01683833  0.41216227  1
  Na  Na14  1  0.69492563  0.67530049  0.42018855  1
  Na  Na15  1  0.99149721  0.01418318  0.49635541  1
  Na  Na16  1  0.98516161  0.00053017  0.99335850  1
  Na  Na17  1  0.65200546  0.30500299  0.82692543  1
  Na  Na18  1  0.66789263  0.32243674  0.33918906  1
  Na  Na19  1  0.33204659  0.67734469  0.16049261  1
  Na  Na20  1  0.33308877  0.67068933  0.67422868  1
  Ca  Ca0  1  0.00540788  0.00953742  0.35256383  1
  Ca  Ca1  1  0.99712991  0.00047495  0.84809355  1
  Ca  Ca2  1  0.99941557  0.99888381  0.65782637  1
  Ca  Ca3  1  0.00502866  0.99908339  0.14652414  1
  Ca  Ca4  1  0.66214131  0.33084962  0.68713370  1
  Ca  Ca5  1  0.66311705  0.33035319  0.18073809  1
  Ca  Ca6  1  0.33781831  0.67194945  0.01285822  1
  Ca  Ca7  1  0.32698560  0.65927925  0.51153227  1
  Ca  Ca8  1  0.32957182  0.66424498  0.32701388  1
  Sn  Sn0  1  0.66630814  0.32831060  0.98099743  1
  Sn  Sn1  1  0.67779686  0.33860966  0.48365960  1
  Sn  Sn2  1  0.33595422  0.67438703  0.82144946  1
  P  P0  1  0.30578675  0.99618972  0.25037332  1
  P  P1  1  0.30688528  0.32180055  0.75482665  1
  P  P2  1  0.01118061  0.69305768  0.75302763  1
  P  P3  1  0.68401611  0.98778761  0.75068950  1
  P  P4  1  0.96057081  0.32965388  0.58383040  1
  P  P5  1  0.66930766  0.63102513  0.58170740  1
  P  P6  1  0.95962910  0.62741642  0.08151841  1
  P  P7  1  0.66963374  0.03877413  0.08299059  1
  P  P8  1  0.37099213  0.33348285  0.08118314  1
  P  P9  1  0.63202673  0.65393590  0.91944295  1
  P  P10  1  0.02851438  0.37217177  0.91937111  1
  P  P11  1  0.34183114  0.97366869  0.91987240  1
  P  P12  1  0.63916197  0.98283805  0.42001870  1
  P  P13  1  0.34851009  0.35737724  0.42015765  1
  P  P14  1  0.01588831  0.66119533  0.41783969  1
  S  S0  1  0.69463548  0.69796582  0.25044822  1
  S  S1  1  0.00249365  0.30591245  0.24807536  1
  S  S2  1  0.37168883  0.04113976  0.57980755  1
  O  O0  1  0.21651359  0.01068086  0.30496819  1
  O  O1  1  0.79224524  0.78386818  0.30313227  1
  O  O2  1  0.98196191  0.19945206  0.29851559  1
  O  O3  1  0.22224371  0.21971171  0.80932515  1
  O  O4  1  0.98985853  0.77908193  0.80652774  1
  O  O5  1  0.80257288  0.01058251  0.80020630  1
  O  O6  1  0.74590222  0.95160922  0.69208392  1
  O  O7  1  0.20405036  0.24694065  0.69799226  1
  O  O8  1  0.03289988  0.78831544  0.69522736  1
  O  O9  1  0.77458907  0.79523558  0.19696737  1
  O  O10  1  0.01574610  0.22905209  0.19305785  1
  O  O11  1  0.20681115  0.98140830  0.19398488  1
  O  O12  1  0.87994944  0.34655647  0.63929176  1
  O  O13  1  0.47396979  0.12303359  0.63009724  1
  O  O14  1  0.64830023  0.52622050  0.63546634  1
  O  O15  1  0.88298728  0.53305966  0.13839563  1
  O  O16  1  0.65153446  0.11092819  0.14099540  1
  O  O17  1  0.46580913  0.35251703  0.13811345  1
  O  O18  1  0.46625041  0.31430362  0.02664371  1
  O  O19  1  0.84698702  0.53190423  0.02642934  1
  O  O20  1  0.69040361  0.15752959  0.03012126  1
  O  O21  1  0.45126176  0.13993921  0.52425868  1
  O  O22  1  0.68590308  0.53979030  0.52465309  1
  O  O23  1  0.84371034  0.30351779  0.52905193  1
  O  O24  1  0.55897995  0.67340872  0.97633197  1
  O  O25  1  0.12361584  0.44887763  0.97577058  1
  O  O26  1  0.31879650  0.88149726  0.97711830  1
  O  O27  1  0.55218747  0.87713861  0.47402853  1
  O  O28  1  0.33325347  0.44284520  0.47480002  1
  O  O29  1  0.12243466  0.68432494  0.47184591  1
  O  O30  1  0.09092097  0.63895471  0.36085412  1
  O  O31  1  0.53292366  0.90908503  0.36386890  1
  O  O32  1  0.37662628  0.46077542  0.36373852  1
  O  O33  1  0.11955179  0.49344365  0.86562300  1
  O  O34  1  0.36512070  0.87993457  0.86670055  1
  O  O35  1  0.51429165  0.62940415  0.86529772  1
  O  O36  1  0.98794257  0.81070787  0.41503079  1
  O  O37  1  0.81015927  0.99924754  0.41537742  1
  O  O38  1  0.20417373  0.17840048  0.41692446  1
  O  O39  1  0.01286792  0.20348344  0.91126899  1
  O  O40  1  0.19130731  0.99637857  0.91157899  1
  O  O41  1  0.81006674  0.79467167  0.91218982  1
  O  O42  1  0.98010941  0.17436270  0.58316021  1
  O  O43  1  0.20664342  0.02894461  0.58272127  1
  O  O44  1  0.83158944  0.80137270  0.58203674  1
  O  O45  1  0.96962879  0.79778629  0.07961118  1
  O  O46  1  0.82758243  0.02460930  0.08054519  1
  O  O47  1  0.19890288  0.17429365  0.07946505  1
  O  O48  1  0.66300460  0.13958726  0.74809725  1
  O  O49  1  0.48678860  0.35948211  0.75099914  1
  O  O50  1  0.85881132  0.51578179  0.75060285  1
  O  O51  1  0.68213451  0.53247816  0.24895471  1
  O  O52  1  0.85668841  0.33046099  0.24797755  1
  O  O53  1  0.48148944  0.15489195  0.25071717  1
  O  O54  1  0.63366241  0.48296086  0.91957402  1
  O  O55  1  0.85503551  0.36551363  0.92006581  1
  O  O56  1  0.50195917  0.15205292  0.92028063  1
  O  O57  1  0.64956884  0.15726645  0.42476079  1
  O  O58  1  0.51397204  0.34632167  0.42347529  1
  O  O59  1  0.83793672  0.50180852  0.42221317  1
  O  O60  1  0.35191866  0.48764548  0.07663532  1
  O  O61  1  0.13391008  0.64782306  0.07749441  1
  O  O62  1  0.51414399  0.86579314  0.07775066  1
  O  O63  1  0.35075970  0.87329862  0.57570025  1
  O  O64  1  0.51677581  0.65347778  0.57680385  1
  O  O65  1  0.13129616  0.48855265  0.57747331  1
  O  O66  1  0.32332966  0.83829329  0.25218933  1
  O  O67  1  0.52518778  0.67596598  0.25316970  1
  O  O68  1  0.15720267  0.47030133  0.25279517  1
  O  O69  1  0.31338907  0.49657673  0.75984618  1
  O  O70  1  0.16957245  0.67323751  0.75907333  1
  O  O71  1  0.51137491  0.82209143  0.76014403  1
loop_
_geom_bond_atom_site_label_1
_geom_bond_atom_site_label_2
_geom_bond_distance
_geom_bond_site_symmetry_2
Na0 O53 2.393140 1_565
Na0 O66 2.406557 1_555
Na0 O16 2.686168 1_565
Na0 O67 2.692224 1_555
Na0 O31 2.694570 1_555
Na0 O52 2.764642 1_565
Na1 O53 2.571671 1_555
Na1 O51 2.576666 1_555
Na1 O67 2.626199 1_555
Na1 O68 2.682240 1_555
Na1 O32 2.684450 1_555
Na1 O17 2.800920 1_555
Na2 O66 2.530505 1_555
Na2 O52 2.573672 1_455
Na2 O68 2.615395 1_555
Na2 O30 2.617646 1_555
Na2 O51 2.723638 1_455
Na2 O15 2.814926 1_455
Na3 O49 2.308275 1_555
Na3 O71 2.600050 1_555
Na3 O69 2.749347 1_555
Na3 O50 2.750189 1_555
Na3 O14 2.813850 1_555
Na3 O6 2.875034 1_555
Na3 O35 2.908237 1_555
Na4 O50 2.401180 1_555
Na4 O70 2.608925 1_655
Na4 O69 2.624226 1_655
Na4 O48 2.696311 1_555
Na4 O12 2.704268 1_555
Na4 O7 2.882458 1_655
Na4 O33 2.933911 1_655
Na4 O5 3.011848 1_555
Na5 O65 2.503488 1_555
Na5 O42 2.552044 1_455
Na5 O64 2.586093 1_555
Na5 O43 2.645226 1_555
Na5 O28 2.667894 1_555
Na5 O7 2.692968 1_555
Na6 O44 2.495499 1_455
Na6 O65 2.563101 1_555
Na6 O8 2.589659 1_555
Na6 O63 2.658046 1_555
Na6 O43 2.738029 1_565
Na6 O29 2.815982 1_555
Na7 O64 2.481444 1_555
Na7 O42 2.536367 1_565
Na7 O6 2.540569 1_555
Na7 O44 2.548086 1_555
Na7 O27 2.722167 1_555
Na7 O63 2.733373 1_555
Na8 O26 2.488860 1_554
Na8 O61 2.537982 1_555
Na8 O47 2.578237 1_565
Na8 O62 2.606480 1_555
Na8 O45 2.643125 1_455
Na8 O11 2.776761 1_555
Na9 O24 2.395657 1_554
Na9 O62 2.539853 1_555
Na9 O45 2.545727 1_555
Na9 O60 2.575544 1_555
Na9 O46 2.618868 1_565
Na9 O9 2.958612 1_555
Na10 O25 2.453884 1_554
Na10 O60 2.530228 1_555
Na10 O61 2.584156 1_555
Na10 O46 2.585461 1_455
Na10 O47 2.616617 1_555
Na10 O10 2.842229 1_555
Na11 O41 2.315614 1_555
Na11 O4 2.490008 1_555
Na11 O55 2.556252 1_555
Na11 O40 2.642095 1_655
Na11 O54 2.789014 1_555
Na11 O33 2.832000 1_655
Na11 O19 2.983740 1_556
Na12 O3 2.406989 1_555
Na12 O40 2.427451 1_545
Na12 O54 2.544350 1_555
Na12 O39 2.584199 1_555
Na12 O56 2.632043 1_555
Na12 O35 2.888260 1_555
Na12 O18 2.978906 1_556
Na13 O38 2.315388 1_555
Na13 O57 2.637588 1_555
Na13 O0 2.641089 1_555
Na13 O58 2.688974 1_555
Na13 O36 2.763731 1_445
Na13 O21 2.803639 1_555
Na13 O31 2.813585 1_545
Na14 O36 2.377675 1_555
Na14 O59 2.573529 1_555
Na14 O37 2.664266 1_555
Na14 O58 2.670233 1_555
Na14 O22 2.680748 1_555
Na14 O1 2.838576 1_555
Na14 O32 2.924529 1_555
Na15 O37 2.463505 1_545
Na15 O42 2.516350 1_555
Na15 O38 2.556946 1_655
Na15 O36 2.645636 1_545
Na15 O44 2.653286 1_545
Na15 O43 2.769555 1_655
Na16 O46 2.551432 1_556
Na16 O41 2.577881 1_545
Na16 O39 2.587510 1_655
Na16 O45 2.687752 1_546
Na16 O47 2.688215 1_656
Na16 O40 2.697435 1_645
Na17 O48 2.407189 1_555
Na17 O49 2.538211 1_555
Na17 O56 2.557055 1_555
Na17 O50 2.615527 1_555
Na17 O55 2.712125 1_555
Na17 O54 2.747414 1_555
Na18 O57 2.442841 1_555
Na18 O58 2.477976 1_555
Na18 O59 2.498928 1_555
Na18 O53 2.610872 1_555
Na18 O52 2.705338 1_555
Na18 O51 2.804396 1_555
Na19 O62 2.561952 1_555
Na19 O61 2.565009 1_555
Na19 O66 2.600980 1_555
Na19 O60 2.677877 1_555
Na19 O68 2.772554 1_555
Na19 O67 2.784760 1_555
Na20 O70 2.473971 1_555
Na20 O69 2.491431 1_555
Na20 O71 2.499589 1_555
Na20 O65 2.845563 1_555
Na20 O64 2.862207 1_555
Na20 O63 2.892560 1_555
Ca0 O0 2.249930 1_555
Ca0 O2 2.264576 1_455
Ca0 O38 2.270462 1_555
Ca0 O36 2.285450 1_445
Ca0 O37 2.285588 1_445
Ca0 O1 2.340559 1_445
Ca1 O5 2.165975 1_555
Ca1 O4 2.249044 1_545
Ca1 O3 2.257607 1_655
Ca1 O39 2.329140 1_655
Ca1 O40 2.338824 1_645
Ca1 O41 2.352219 1_545
Ca2 O8 2.311148 1_655
Ca2 O6 2.320372 1_555
Ca2 O7 2.330667 1_665
Ca2 O42 2.436358 1_565
Ca2 O44 2.439051 1_555
Ca2 O43 2.495212 1_665
Ca3 O11 2.254093 1_555
Ca3 O47 2.310324 1_565
Ca3 O45 2.314775 1_455
Ca3 O46 2.340550 1_465
Ca3 O9 2.342963 1_455
Ca3 O10 2.356845 1_565
Ca4 O14 2.235294 1_555
Ca4 O12 2.251237 1_555
Ca4 O13 2.265616 1_555
Ca4 O48 2.271847 1_555
Ca4 O50 2.296624 1_555
Ca4 O49 2.308194 1_555
Ca5 O17 2.187448 1_555
Ca5 O16 2.197794 1_555
Ca5 O15 2.202783 1_555
Ca5 O53 2.309844 1_555
Ca5 O52 2.372951 1_555
Ca5 O51 2.385356 1_555
Ca6 O25 2.211285 1_554
Ca6 O26 2.214474 1_554
Ca6 O24 2.225389 1_554
Ca6 O62 2.278859 1_555
Ca6 O60 2.312152 1_555
Ca6 O61 2.330952 1_555
Ca7 O28 2.220765 1_555
Ca7 O29 2.234386 1_555
Ca7 O27 2.241158 1_555
Ca7 O65 2.288069 1_555
Ca7 O64 2.338883 1_555
Ca7 O63 2.398788 1_555
Ca8 O30 2.260976 1_555
Ca8 O31 2.280485 1_555
Ca8 O32 2.318478 1_555
Ca8 O66 2.381637 1_555
Ca8 O68 2.411396 1_555
Ca8 O67 2.448970 1_555
O0 P0 1.542416 1_545
O1 S0 1.477734 1_555
O2 S1 1.470787 1_655
O3 P1 1.525389 1_555
O4 P2 1.528324 1_655
O5 P3 1.520721 1_545
O6 P3 1.559210 1_555
O7 P1 1.554486 1_555
O8 P2 1.547084 1_555
O9 S0 1.481122 1_555
O10 S1 1.481262 1_555
O11 P0 1.549254 1_555
O12 P4 1.520657 1_555
O13 S2 1.442007 1_555
O14 P5 1.520724 1_555
O15 P6 1.530394 1_555
O16 P7 1.531873 1_555
O17 P8 1.530961 1_555
O18 P8 1.591681 1_555
O18 Sn0 2.088374 1_554
O19 P6 1.593388 1_555
O19 Sn0 2.079963 1_554
O20 P7 1.585293 1_555
O20 Sn0 2.056877 1_554
O21 S2 1.524638 1_555
O21 Sn1 2.203867 1_555
O22 P5 1.605230 1_555
O22 Sn1 2.069707 1_555
O23 P4 1.595575 1_555
O23 Sn1 2.026056 1_555
O24 P9 1.518906 1_555
O25 P10 1.522085 1_555
O26 P11 1.519818 1_555
O27 P12 1.533500 1_555
O28 P13 1.524914 1_555
O29 P14 1.529482 1_555
O30 P14 1.539589 1_555
O31 P12 1.553107 1_555
O32 P13 1.551676 1_555
O33 P10 1.596311 1_555
O33 Sn2 2.132076 1_555
O34 P11 1.574003 1_555
O34 Sn2 2.077039 1_555
O35 P9 1.592343 1_555
O35 Sn2 2.161421 1_555
O36 P14 1.550139 1_655
O37 P12 1.533182 1_555
O38 P13 1.538376 1_555
O39 P10 1.523144 1_555
O40 P11 1.538922 1_555
O41 P9 1.528704 1_555
O42 P4 1.554872 1_555
O43 S2 1.492595 1_555
O44 P5 1.555503 1_555
O45 P6 1.551877 1_555
O46 P7 1.550685 1_555
O47 P8 1.551663 1_555
O48 P3 1.531641 1_545
O49 P1 1.540111 1_555
O50 P2 1.554407 1_655
O51 S0 1.495384 1_555
O52 S1 1.493900 1_655
O53 P0 1.568348 1_545
O54 P9 1.609553 1_555
O54 Sn0 2.145130 1_555
O55 P10 1.593837 1_655
O55 Sn0 2.134180 1_555
O56 P11 1.588607 1_545
O56 Sn0 2.109960 1_555
O57 P12 1.591009 1_545
O57 Sn1 2.074219 1_555
O58 P13 1.605429 1_555
O58 Sn1 2.085826 1_555
O59 P14 1.586376 1_655
O59 Sn1 2.061262 1_555
O60 P8 1.545320 1_555
O61 P6 1.547268 1_455
O62 P7 1.545780 1_565
O63 S2 1.486571 1_565
O64 P5 1.548514 1_555
O65 P4 1.549881 1_455
O66 P0 1.568800 1_555
O67 S0 1.494881 1_555
O68 S1 1.496723 1_555
O69 P1 1.611632 1_555
O69 Sn2 2.105347 1_555
O70 P2 1.590342 1_555
O70 Sn2 2.104921 1_555
O71 P3 1.596537 1_555
O71 Sn2 2.070214 1_555
