# generated using pymatgen
data_Na14Mg5Ti3Si6(SO8)6
_symmetry_space_group_name_H-M   'P 1'
_cell_length_a   18.09678688
_cell_length_b   9.02212168
_cell_length_c   22.15540549
_cell_angle_alpha   90.16339275
_cell_angle_beta   89.88952863
_cell_angle_gamma   120.13275336
_symmetry_Int_Tables_number   1
_chemical_formula_structural   Na14Mg5Ti3Si6(SO8)6
_chemical_formula_sum   'Na42 Mg15 Ti9 Si18 S18 O144'
_cell_volume   3128.49980873
_cell_formula_units_Z   3
loop_
 _symmetry_equiv_pos_site_id
 _symmetry_equiv_pos_as_xyz
  1  'x, y, z'
loop_
 _atom_site_type_symbol
 _atom_site_label
 _atom_site_symmetry_multiplicity
 _atom_site_fract_x
 _atom_site_fract_y
 _atom_site_fract_z
 _atom_site_occupancy
  Na  Na0  1  0.19272613  0.35830153  0.24711206  1
  Na  Na1  1  0.68713553  0.35361551  0.24599004  1
  Na  Na2  1  0.99696921  0.64090673  0.25376245  1
  Na  Na3  1  0.49526827  0.63357796  0.24454809  1
  Na  Na4  1  0.31709192  0.63249957  0.74923673  1
  Na  Na5  1  0.81625530  0.62787927  0.73940568  1
  Na  Na6  1  0.18909302  0.02533290  0.74691215  1
  Na  Na7  1  0.69141805  0.02630907  0.74688390  1
  Na  Na8  1  0.15223526  0.32355201  0.57864536  1
  Na  Na9  1  0.66464805  0.34472639  0.57814533  1
  Na  Na10  1  0.01202821  0.70062747  0.58088598  1
  Na  Na11  1  0.52035698  0.70423185  0.58283431  1
  Na  Na12  1  0.32442507  0.97068562  0.59004764  1
  Na  Na13  1  0.82312616  0.95647007  0.58905594  1
  Na  Na14  1  0.15580782  0.97887523  0.07879673  1
  Na  Na15  1  0.64865922  0.96622526  0.07529340  1
  Na  Na16  1  0.82252629  0.67824255  0.08830555  1
  Na  Na17  1  0.01941487  0.33448282  0.08130183  1
  Na  Na18  1  0.52176102  0.34708045  0.08705494  1
  Na  Na19  1  0.49109975  0.67630127  0.92141874  1
  Na  Na20  1  0.99101276  0.67796637  0.91688831  1
  Na  Na21  1  0.84700365  0.03328959  0.90855278  1
  Na  Na22  1  0.16392608  0.28508006  0.90892934  1
  Na  Na23  1  0.66422956  0.28024968  0.91656401  1
  Na  Na24  1  0.49219344  0.30722841  0.41771838  1
  Na  Na25  1  0.98849391  0.30112304  0.42035341  1
  Na  Na26  1  0.16501342  0.05024011  0.41648120  1
  Na  Na27  1  0.66647269  0.05110114  0.41574143  1
  Na  Na28  1  0.34962177  0.66064047  0.40795316  1
  Na  Na29  1  0.84815489  0.65744175  0.41801098  1
  Na  Na30  1  0.00441491  0.99893937  0.50132196  1
  Na  Na31  1  0.51256552  0.01604757  0.49791146  1
  Na  Na32  1  0.00752002  0.00528779  0.99702524  1
  Na  Na33  1  0.50059484  0.99761116  0.00008744  1
  Na  Na34  1  0.33305194  0.30721409  0.82952601  1
  Na  Na35  1  0.82890542  0.31414252  0.82656536  1
  Na  Na36  1  0.32581536  0.32851777  0.32597856  1
  Na  Na37  1  0.82174920  0.32402507  0.32853254  1
  Na  Na38  1  0.18381155  0.67822123  0.16378711  1
  Na  Na39  1  0.66415609  0.66629007  0.16205214  1
  Na  Na40  1  0.16188050  0.66642138  0.66585193  1
  Na  Na41  1  0.67180759  0.66893058  0.66205808  1
  Mg  Mg0  1  0.00483884  0.00369758  0.34890160  1
  Mg  Mg1  1  0.50564249  0.00554695  0.34699981  1
  Mg  Mg2  1  0.00571559  0.00906378  0.84732702  1
  Mg  Mg3  1  0.50287706  0.00971064  0.85158211  1
  Mg  Mg4  1  0.32751557  0.31446018  0.68659309  1
  Mg  Mg5  1  0.82510624  0.32162444  0.68355129  1
  Mg  Mg6  1  0.32996521  0.33964547  0.18497507  1
  Mg  Mg7  1  0.82385630  0.32901845  0.18575616  1
  Mg  Mg8  1  0.81925921  0.31032600  0.98246739  1
  Mg  Mg9  1  0.32131513  0.32781310  0.48226898  1
  Mg  Mg10  1  0.82040221  0.34128004  0.48685910  1
  Mg  Mg11  1  0.17186597  0.67017169  0.01619865  1
  Mg  Mg12  1  0.65894409  0.66177218  0.01896955  1
  Mg  Mg13  1  0.16392732  0.66537050  0.51645565  1
  Mg  Mg14  1  0.67058660  0.66503515  0.51945355  1
  Ti  Ti0  1  0.99966557  0.00705619  0.64962314  1
  Ti  Ti1  1  0.50757549  0.02370950  0.65437305  1
  Ti  Ti2  1  0.00651355  0.99347718  0.15390094  1
  Ti  Ti3  1  0.50347350  0.97225307  0.14769608  1
  Ti  Ti4  1  0.32394849  0.32361823  0.98667319  1
  Ti  Ti5  1  0.17897587  0.67295477  0.30986286  1
  Ti  Ti6  1  0.67743318  0.66895898  0.30815826  1
  Ti  Ti7  1  0.17530722  0.68611321  0.80925983  1
  Ti  Ti8  1  0.67365838  0.68283148  0.80921443  1
  Si  Si0  1  0.15282048  0.99842252  0.25488951  1
  Si  Si1  1  0.65022077  0.99584462  0.25370561  1
  Si  Si2  1  0.35902423  0.71429946  0.25324685  1
  Si  Si3  1  0.85797930  0.71068870  0.25230537  1
  Si  Si4  1  0.14715504  0.30069860  0.75186956  1
  Si  Si5  1  0.64919489  0.30249829  0.75684300  1
  Si  Si6  1  0.36027903  0.01084142  0.75188941  1
  Si  Si7  1  0.85975217  0.01381950  0.75408521  1
  Si  Si8  1  0.18335190  0.03018228  0.58317966  1
  Si  Si9  1  0.68128934  0.03046914  0.58342771  1
  Si  Si10  1  0.83645671  0.63424684  0.58493329  1
  Si  Si11  1  0.47612573  0.61698329  0.08503556  1
  Si  Si12  1  0.18292220  0.33845849  0.08707996  1
  Si  Si13  1  0.68258262  0.33367146  0.08380392  1
  Si  Si14  1  0.16683707  0.95938937  0.91986183  1
  Si  Si15  1  0.66529447  0.95972794  0.91750592  1
  Si  Si16  1  0.16483940  0.37232104  0.41809675  1
  Si  Si17  1  0.66358784  0.37044594  0.41719031  1
  S  S0  1  -0.00032157  0.29139781  0.25025383  1
  S  S1  1  0.49883130  0.29135113  0.25160024  1
  S  S2  1  0.00092775  0.70669424  0.75121316  1
  S  S3  1  0.50026416  0.70738300  0.75006757  1
  S  S4  1  0.47662046  0.33138826  0.58294486  1
  S  S5  1  0.97848234  0.33345442  0.58290277  1
  S  S6  1  0.33565496  0.62968063  0.58302486  1
  S  S7  1  0.97915116  0.62470107  0.08351522  1
  S  S8  1  0.33256692  0.04289803  0.08410356  1
  S  S9  1  0.83775143  0.04510872  0.08294158  1
  S  S10  1  0.31249312  0.66690794  0.91625509  1
  S  S11  1  0.81381631  0.66810597  0.91728637  1
  S  S12  1  0.02095560  0.37841977  0.91812113  1
  S  S13  1  0.51961340  0.37500528  0.91660660  1
  S  S14  1  0.31332088  0.95916757  0.41734719  1
  S  S15  1  0.81339015  0.95976270  0.41597316  1
  S  S16  1  0.02045024  0.66339394  0.41605515  1
  S  S17  1  0.51986673  0.66298449  0.41830813  1
  O  O0  1  0.10769932  0.03376697  0.31070996  1
  O  O1  1  0.60867799  0.03337585  0.31125423  1
  O  O2  1  0.40894750  0.79768177  0.31465949  1
  O  O3  1  0.91167068  0.79948601  0.31159930  1
  O  O4  1  0.48935309  0.19422629  0.30720548  1
  O  O5  1  0.98679639  0.19202991  0.30516175  1
  O  O6  1  0.11047659  0.18027579  0.81022712  1
  O  O7  1  0.60657000  0.17434314  0.81174926  1
  O  O8  1  0.48595838  0.78005493  0.80547863  1
  O  O9  1  0.98794489  0.78308141  0.80637814  1
  O  O10  1  0.41053970  0.00517886  0.80879679  1
  O  O11  1  0.90647645  0.01368669  0.81502857  1
  O  O12  1  0.40054132  0.96769707  0.68938672  1
  O  O13  1  0.90279202  0.97042879  0.69463257  1
  O  O14  1  0.08478054  0.20015659  0.69208388  1
  O  O15  1  0.58600278  0.20392695  0.69461376  1
  O  O16  1  0.01648995  0.81939507  0.69736614  1
  O  O17  1  0.51557327  0.82285936  0.69631737  1
  O  O18  1  0.40643467  0.84009249  0.19440791  1
  O  O19  1  0.90532868  0.83500725  0.19105222  1
  O  O20  1  0.01488712  0.20755008  0.19592909  1
  O  O21  1  0.51434396  0.21338001  0.19744794  1
  O  O22  1  0.08408578  0.96480083  0.19385612  1
  O  O23  1  0.58468372  0.95804074  0.19271847  1
  O  O24  1  0.43524947  0.35826623  0.63552628  1
  O  O25  1  0.93755988  0.35793458  0.63555720  1
  O  O26  1  0.24510357  0.11404233  0.64094386  1
  O  O27  1  0.74007088  0.10988786  0.64239386  1
  O  O28  1  0.32563359  0.52676893  0.63730437  1
  O  O29  1  0.82347157  0.51691892  0.64313715  1
  O  O30  1  0.43658960  0.49910155  0.14313404  1
  O  O31  1  0.93917927  0.51943482  0.13767012  1
  O  O32  1  0.31799605  0.12039748  0.13725808  1
  O  O33  1  0.82775499  0.13240928  0.13570076  1
  O  O34  1  0.23590227  0.35432823  0.14582916  1
  O  O35  1  0.74423227  0.37340487  0.14171243  1
  O  O36  1  0.22975314  0.29771665  0.02660323  1
  O  O37  1  0.71859635  0.28503416  0.02362447  1
  O  O38  1  0.41362721  0.51591788  0.02393065  1
  O  O39  1  0.92787395  0.54549172  0.02844017  1
  O  O40  1  0.34374522  0.15362662  0.02895251  1
  O  O41  1  0.85338379  0.14967163  0.02725213  1
  O  O42  1  0.22002377  0.14737579  0.52239257  1
  O  O43  1  0.71620595  0.14888074  0.52298456  1
  O  O44  1  0.34932421  0.55058556  0.52834164  1
  O  O45  1  0.86183000  0.56754004  0.52379014  1
  O  O46  1  0.42610686  0.30352301  0.52706204  1
  O  O47  1  0.92906222  0.30690349  0.52640559  1
  O  O48  1  0.27118615  0.68565195  0.96919090  1
  O  O49  1  0.77280783  0.69096706  0.97129942  1
  O  O50  1  0.07263128  0.45406688  0.97333833  1
  O  O51  1  0.57063078  0.44997684  0.97221904  1
  O  O52  1  0.15080129  0.84223174  0.97842095  1
  O  O53  1  0.65543582  0.84490598  0.97541343  1
  O  O54  1  0.27292489  0.85574140  0.47182028  1
  O  O55  1  0.77362857  0.85802654  0.47084822  1
  O  O56  1  0.15235529  0.46300500  0.47690800  1
  O  O57  1  0.64819400  0.45917141  0.47530960  1
  O  O58  1  0.07309631  0.69111732  0.47059930  1
  O  O59  1  0.57294820  0.68980812  0.47246342  1
  O  O60  1  0.06409839  0.64682590  0.36143610  1
  O  O61  1  0.56051780  0.64137422  0.36324353  1
  O  O62  1  0.25657371  0.87405368  0.36336028  1
  O  O63  1  0.75671695  0.87370335  0.36223604  1
  O  O64  1  0.17585506  0.50518232  0.35860395  1
  O  O65  1  0.67510058  0.50331191  0.35774523  1
  O  O66  1  0.06453261  0.48594835  0.86476670  1
  O  O67  1  0.56379823  0.48671479  0.86392214  1
  O  O68  1  0.17732373  0.85559082  0.85920478  1
  O  O69  1  0.67508555  0.84958249  0.85758421  1
  O  O70  1  0.25946578  0.64025414  0.86035505  1
  O  O71  1  0.75949856  0.64081063  0.86229165  1
  O  O72  1  0.00828244  0.81459617  0.41269718  1
  O  O73  1  0.50737623  0.81414574  0.41479903  1
  O  O74  1  0.39824586  0.97502688  0.41107302  1
  O  O75  1  0.89856458  0.97491354  0.40964323  1
  O  O76  1  0.07833286  0.18386066  0.41231102  1
  O  O77  1  0.57746976  0.18103015  0.41161772  1
  O  O78  1  0.00842974  0.20197565  0.91355825  1
  O  O79  1  0.50962140  0.20215071  0.91137020  1
  O  O80  1  0.08194821  0.98031501  0.91307022  1
  O  O81  1  0.57863315  0.97360517  0.91301697  1
  O  O82  1  0.40055545  0.81326985  0.91079143  1
  O  O83  1  0.90027434  0.82260279  0.91207839  1
  O  O84  1  0.48391271  0.17068785  0.58898023  1
  O  O85  1  0.98724731  0.17482863  0.58785973  1
  O  O86  1  0.08726751  0.01414396  0.59336832  1
  O  O87  1  0.58171850  0.01306061  0.59429578  1
  O  O88  1  0.41256010  0.80519765  0.58696246  1
  O  O89  1  0.92214755  0.83307664  0.59393565  1
  O  O90  1  0.48473615  0.81174429  0.08709144  1
  O  O91  1  0.98530350  0.79963014  0.08828224  1
  O  O92  1  0.41225291  0.03495622  0.08631252  1
  O  O93  1  0.91521190  0.02461079  0.08830678  1
  O  O94  1  0.08554384  0.15238450  0.08996654  1
  O  O95  1  0.58385225  0.16079514  0.09508184  1
  O  O96  1  0.34130657  0.16518923  0.74655512  1
  O  O97  1  0.84126932  0.16793811  0.74584182  1
  O  O98  1  0.24446630  0.33852628  0.74185386  1
  O  O99  1  0.74395448  0.33209013  0.74716124  1
  O  O100  1  0.42490745  0.53877836  0.73936954  1
  O  O101  1  0.92682272  0.53605823  0.74323331  1
  O  O102  1  0.34460648  0.52297942  0.24753431  1
  O  O103  1  0.84917589  0.52418966  0.24451426  1
  O  O104  1  0.42575793  0.31793235  0.24628868  1
  O  O105  1  0.92766764  0.32023977  0.24036565  1
  O  O106  1  0.24450664  0.16042994  0.24302360  1
  O  O107  1  0.74319309  0.15947614  0.24344541  1
  O  O108  1  0.31811256  0.50434144  0.91927706  1
  O  O109  1  0.82454755  0.51484461  0.92098228  1
  O  O110  1  0.43441244  0.36465553  0.92106955  1
  O  O111  1  0.93558836  0.36604596  0.92334112  1
  O  O112  1  0.25419043  0.15596873  0.92370958  1
  O  O113  1  0.75453482  0.14581705  0.91429689  1
  O  O114  1  0.32356365  0.13300766  0.42053542  1
  O  O115  1  0.82440702  0.13419700  0.41947539  1
  O  O116  1  0.25334559  0.36372849  0.41520699  1
  O  O117  1  0.75189762  0.36122351  0.41466953  1
  O  O118  1  0.43406198  0.50339468  0.42384117  1
  O  O119  1  0.93630637  0.50217067  0.41964960  1
  O  O120  1  0.16490431  0.49418935  0.07589797  1
  O  O121  1  0.67354964  0.50483288  0.07657044  1
  O  O122  1  0.06703257  0.65349642  0.07959123  1
  O  O123  1  0.57332169  0.65503170  0.07820157  1
  O  O124  1  0.25616747  0.87084020  0.07602323  1
  O  O125  1  0.76106506  0.87206774  0.07788486  1
  O  O126  1  0.16942009  0.83522783  0.57721090  1
  O  O127  1  0.66387663  0.83532634  0.57632544  1
  O  O128  1  0.25761679  0.64587238  0.57823414  1
  O  O129  1  0.75159217  0.65463688  0.57978175  1
  O  O130  1  0.06683608  0.48432466  0.57877436  1
  O  O131  1  0.56401434  0.48054538  0.57879037  1
  O  O132  1  0.14790348  0.80938159  0.25814559  1
  O  O133  1  0.64853760  0.80972156  0.25966861  1
  O  O134  1  0.25878633  0.68958245  0.25612294  1
  O  O135  1  0.75906809  0.68597151  0.25440680  1
  O  O136  1  0.08022040  0.46473771  0.25375176  1
  O  O137  1  0.57964373  0.46906836  0.25600167  1
  O  O138  1  0.15481045  0.49297135  0.76009371  1
  O  O139  1  0.65491326  0.49133685  0.76007650  1
  O  O140  1  0.08191766  0.69779952  0.75555288  1
  O  O141  1  0.58002226  0.69605528  0.75372265  1
  O  O142  1  0.25904308  0.82687931  0.75565408  1
  O  O143  1  0.75939865  0.82710765  0.75709816  1
loop_
_geom_bond_atom_site_label_1
_geom_bond_atom_site_label_2
_geom_bond_distance
_geom_bond_site_symmetry_2
Na0 O102 2.379503 1_555
Na0 O34 2.380770 1_555
Na0 O106 2.398254 1_555
Na0 O134 2.610051 1_555
Na0 O136 2.655192 1_555
Na0 O64 2.887140 1_555
Na0 O0 2.901364 1_555
Na0 O20 3.017254 1_555
Na1 O107 2.425584 1_555
Na1 O35 2.498998 1_555
Na1 O103 2.537213 1_555
Na1 O135 2.607564 1_555
Na1 O137 2.636209 1_555
Na1 O65 2.876831 1_555
Na1 O1 2.889921 1_555
Na1 O21 2.927184 1_555
Na2 O103 2.340389 1_555
Na2 O132 2.369025 1_655
Na2 O105 2.526779 1_555
Na2 O60 2.667363 1_655
Na2 O136 2.683322 1_655
Na2 O31 2.784584 1_555
Na2 O22 2.859192 1_655
Na2 O3 2.875937 1_555
Na3 O102 2.387887 1_555
Na3 O133 2.430231 1_555
Na3 O104 2.469323 1_555
Na3 O30 2.519559 1_555
Na3 O137 2.622566 1_555
Na3 O23 2.786122 1_555
Na3 O61 2.870948 1_555
Na4 O98 2.299379 1_555
Na4 O142 2.459055 1_555
Na4 O100 2.494660 1_555
Na4 O138 2.560161 1_555
Na4 O70 2.686188 1_555
Na4 O28 2.686421 1_555
Na4 O8 2.929906 1_555
Na4 O12 2.935034 1_555
Na5 O99 2.314993 1_555
Na5 O29 2.384614 1_555
Na5 O143 2.508884 1_555
Na5 O101 2.522387 1_555
Na5 O139 2.576655 1_555
Na5 O13 2.853071 1_555
Na5 O71 2.930662 1_555
Na6 O96 2.385414 1_555
Na6 O98 2.481854 1_555
Na6 O26 2.523298 1_555
Na6 O140 2.603484 1_545
Na6 O142 2.669130 1_545
Na6 O6 2.814947 1_555
Na6 O68 2.876186 1_545
Na6 O16 2.930615 1_545
Na7 O97 2.346949 1_555
Na7 O99 2.425160 1_555
Na7 O27 2.457365 1_555
Na7 O141 2.633538 1_545
Na7 O143 2.649138 1_545
Na7 O69 2.862041 1_545
Na7 O7 2.871637 1_555
Na7 O17 2.981339 1_545
Na8 O86 2.447407 1_555
Na8 O128 2.554525 1_555
Na8 O56 2.583999 1_555
Na8 O85 2.594934 1_455
Na8 O130 2.596738 1_555
Na8 O42 2.743207 1_555
Na8 O14 2.772324 1_555
Na9 O129 2.424355 1_555
Na9 O57 2.582726 1_555
Na9 O87 2.613352 1_555
Na9 O131 2.656814 1_555
Na9 O43 2.669214 1_555
Na9 O84 2.839656 1_555
Na9 O29 2.875408 1_555
Na9 O15 2.913262 1_555
Na10 O86 2.462005 1_565
Na10 O89 2.470812 1_455
Na10 O126 2.474062 1_555
Na10 O130 2.595573 1_555
Na10 O45 2.675411 1_455
Na10 O58 2.698650 1_555
Na10 O16 2.777176 1_555
Na10 O25 2.945220 1_455
Na11 O127 2.254039 1_555
Na11 O87 2.439591 1_565
Na11 O131 2.510892 1_555
Na11 O88 2.535086 1_555
Na11 O59 2.648743 1_555
Na11 O17 2.747969 1_555
Na11 O44 2.942145 1_555
Na11 O24 2.943626 1_555
Na12 O126 2.449937 1_555
Na12 O84 2.521486 1_565
Na12 O128 2.560799 1_555
Na12 O12 2.606030 1_555
Na12 O26 2.618096 1_565
Na12 O88 2.677254 1_555
Na12 O54 2.797984 1_555
Na13 O129 2.364778 1_555
Na13 O127 2.533459 1_555
Na13 O89 2.542950 1_555
Na13 O85 2.613130 1_565
Na13 O13 2.719326 1_555
Na13 O27 2.764789 1_565
Na13 O55 2.765333 1_555
Na14 O124 2.455389 1_555
Na14 O94 2.474613 1_565
Na14 O52 2.519249 1_554
Na14 O122 2.542474 1_555
Na14 O91 2.677635 1_455
Na14 O36 2.747911 1_565
Na14 O22 2.832444 1_555
Na14 O32 2.857490 1_565
Na15 O123 2.429651 1_555
Na15 O53 2.495966 1_554
Na15 O125 2.568765 1_555
Na15 O90 2.580474 1_555
Na15 O95 2.590341 1_565
Na15 O37 2.746592 1_565
Na15 O23 2.831574 1_555
Na16 O121 2.355686 1_555
Na16 O125 2.510878 1_555
Na16 O91 2.576388 1_555
Na16 O35 2.659198 1_555
Na16 O19 2.700866 1_555
Na16 O93 2.704861 1_565
Na16 O49 2.767170 1_554
Na17 O120 2.283301 1_555
Na17 O93 2.470686 1_455
Na17 O94 2.478879 1_555
Na17 O122 2.557004 1_555
Na17 O50 2.603011 1_554
Na17 O20 2.772979 1_555
Na17 O41 2.866092 1_455
Na17 O31 2.977608 1_455
Na18 O121 2.387305 1_555
Na18 O95 2.453058 1_555
Na18 O123 2.455205 1_555
Na18 O92 2.500882 1_555
Na18 O51 2.701404 1_554
Na18 O21 2.703337 1_555
Na18 O30 2.811750 1_555
Na19 O81 2.339749 1_555
Na19 O110 2.462125 1_555
Na19 O82 2.510678 1_555
Na19 O38 2.680927 1_556
Na19 O108 2.707988 1_555
Na19 O8 2.754124 1_555
Na19 O53 2.837383 1_555
Na19 O67 2.918854 1_555
Na20 O80 2.376989 1_655
Na20 O111 2.472624 1_555
Na20 O83 2.561922 1_555
Na20 O109 2.607230 1_555
Na20 O9 2.638892 1_555
Na20 O39 2.734428 1_556
Na20 O52 2.849141 1_655
Na20 O66 2.898576 1_655
Na21 O113 2.356114 1_555
Na21 O11 2.379813 1_555
Na21 O83 2.527767 1_545
Na21 O78 2.529619 1_655
Na21 O111 2.618135 1_555
Na21 O41 2.809907 1_556
Na21 O69 2.920143 1_545
Na21 O49 3.021238 1_545
Na22 O80 2.382253 1_545
Na22 O6 2.385332 1_555
Na22 O112 2.459083 1_555
Na22 O108 2.491889 1_555
Na22 O78 2.524320 1_555
Na22 O36 2.846586 1_556
Na23 O81 2.399203 1_545
Na23 O113 2.476629 1_555
Na23 O79 2.521794 1_555
Na23 O7 2.527869 1_555
Na23 O37 2.561613 1_556
Na23 O109 2.596386 1_555
Na24 O77 2.336369 1_555
Na24 O118 2.474836 1_555
Na24 O74 2.603374 1_545
Na24 O4 2.640197 1_555
Na24 O114 2.640277 1_555
Na24 O46 2.692459 1_555
Na24 O57 2.756007 1_555
Na24 O61 2.889014 1_555
Na25 O76 2.349246 1_655
Na25 O119 2.429505 1_555
Na25 O75 2.560330 1_545
Na25 O115 2.568299 1_555
Na25 O47 2.593472 1_555
Na25 O5 2.727383 1_555
Na25 O56 2.855177 1_655
Na26 O76 2.412951 1_555
Na26 O116 2.452861 1_555
Na26 O42 2.527156 1_555
Na26 O0 2.538117 1_555
Na26 O72 2.552911 1_545
Na26 O114 2.578317 1_555
Na27 O77 2.423543 1_555
Na27 O117 2.424147 1_555
Na27 O1 2.513522 1_555
Na27 O43 2.536305 1_555
Na27 O115 2.566495 1_555
Na27 O73 2.584642 1_545
Na28 O116 2.356416 1_555
Na28 O2 2.372114 1_555
Na28 O73 2.474277 1_555
Na28 O74 2.513491 1_555
Na28 O118 2.579376 1_555
Na28 O44 2.847783 1_555
Na28 O64 2.937265 1_555
Na29 O117 2.346811 1_555
Na29 O72 2.509161 1_655
Na29 O45 2.534978 1_555
Na29 O75 2.539601 1_555
Na29 O119 2.598625 1_555
Na29 O3 2.655112 1_555
Na30 O86 2.495887 1_565
Na30 O76 2.495965 1_565
Na30 O89 2.536726 1_455
Na30 O72 2.593095 1_555
Na30 O85 2.601164 1_465
Na30 O75 2.727199 1_455
Na31 O77 2.345782 1_555
Na31 O87 2.484233 1_555
Na31 O73 2.554894 1_545
Na31 O84 2.644357 1_555
Na31 O88 2.708825 1_545
Na31 O74 2.713133 1_545
Na32 O80 2.370102 1_545
Na32 O94 2.471698 1_556
Na32 O78 2.560907 1_555
Na32 O83 2.609610 1_445
Na32 O91 2.638467 1_446
Na32 O93 2.681095 1_456
Na33 O81 2.461078 1_554
Na33 O90 2.478546 1_555
Na33 O95 2.575772 1_565
Na33 O92 2.616140 1_565
Na33 O82 2.632418 1_554
Na33 O79 2.648086 1_564
Na34 O96 2.284968 1_555
Na34 O112 2.510475 1_555
Na34 O110 2.607813 1_555
Na34 O98 2.625374 1_555
Na34 O100 2.764417 1_555
Na34 O108 2.765991 1_555
Na35 O97 2.295635 1_555
Na35 O99 2.397188 1_555
Na35 O113 2.418758 1_555
Na35 O101 2.646443 1_555
Na35 O111 2.765196 1_555
Na35 O109 2.789627 1_555
Na36 O106 2.365782 1_555
Na36 O102 2.372842 1_555
Na36 O116 2.476628 1_555
Na36 O104 2.560791 1_555
Na36 O114 2.729549 1_555
Na36 O118 2.814513 1_555
Na37 O107 2.377840 1_555
Na37 O117 2.401152 1_555
Na37 O103 2.467461 1_555
Na37 O115 2.664202 1_555
Na37 O105 2.746233 1_555
Na37 O119 2.758371 1_555
Na38 O134 2.430296 1_555
Na38 O120 2.465617 1_555
Na38 O124 2.498054 1_555
Na38 O132 2.635464 1_555
Na38 O122 2.745016 1_555
Na38 O136 2.753045 1_555
Na39 O121 2.443208 1_555
Na39 O123 2.450858 1_555
Na39 O125 2.595744 1_555
Na39 O133 2.603994 1_555
Na39 O135 2.621775 1_555
Na39 O137 2.667277 1_555
Na40 O126 2.449965 1_555
Na40 O140 2.553579 1_555
Na40 O130 2.556771 1_555
Na40 O142 2.566587 1_555
Na40 O138 2.577096 1_555
Na40 O128 2.666786 1_555
Na41 O129 2.366350 1_555
Na41 O127 2.473025 1_555
Na41 O143 2.589886 1_555
Na41 O131 2.600890 1_555
Na41 O139 2.627206 1_555
Na41 O141 2.708425 1_555
Mg0 O0 1.934622 1_555
Mg0 O3 1.948873 1_445
Mg0 O76 2.051414 1_555
Mg0 O5 2.121433 1_455
Mg0 O72 2.243487 1_545
Mg0 O75 2.251188 1_445
Mg1 O1 1.921566 1_555
Mg1 O2 1.948033 1_545
Mg1 O77 2.042997 1_555
Mg1 O4 2.067702 1_555
Mg1 O73 2.304065 1_545
Mg1 O74 2.307076 1_545
Mg2 O6 1.927927 1_555
Mg2 O11 1.954335 1_455
Mg2 O9 2.101344 1_445
Mg2 O80 2.112162 1_545
Mg2 O78 2.254939 1_555
Mg2 O83 2.304222 1_445
Mg3 O10 1.905203 1_555
Mg3 O7 1.925877 1_555
Mg3 O81 2.072757 1_545
Mg3 O79 2.135121 1_555
Mg3 O8 2.186869 1_545
Mg3 O82 2.235989 1_545
Mg4 O26 1.950524 1_555
Mg4 O96 1.997450 1_555
Mg4 O98 2.030744 1_555
Mg4 O24 2.111345 1_555
Mg4 O28 2.222671 1_555
Mg4 O100 2.232179 1_555
Mg5 O27 1.973034 1_555
Mg5 O29 1.992128 1_555
Mg5 O99 2.069368 1_555
Mg5 O97 2.081447 1_555
Mg5 O25 2.168804 1_555
Mg5 O101 2.301943 1_555
Mg6 O30 1.966176 1_555
Mg6 O34 1.974868 1_555
Mg6 O106 2.038068 1_555
Mg6 O102 2.067731 1_555
Mg6 O32 2.153173 1_555
Mg6 O104 2.289197 1_555
Mg7 O35 1.943161 1_555
Mg7 O107 1.966309 1_555
Mg7 O103 2.045590 1_555
Mg7 O33 2.120251 1_555
Mg7 O31 2.200909 1_555
Mg7 O105 2.271157 1_555
Mg8 O37 1.944087 1_556
Mg8 O113 2.025980 1_555
Mg8 O41 2.091891 1_556
Mg8 O109 2.259666 1_555
Mg8 O39 2.282725 1_556
Mg8 O111 2.308919 1_555
Mg9 O42 1.950996 1_555
Mg9 O116 2.058031 1_555
Mg9 O44 2.075076 1_555
Mg9 O114 2.240365 1_555
Mg9 O46 2.248325 1_555
Mg9 O118 2.259331 1_555
Mg10 O45 1.963397 1_555
Mg10 O43 1.981201 1_555
Mg10 O117 2.088194 1_555
Mg10 O47 2.313244 1_555
Mg10 O119 2.380595 1_555
Mg10 O115 2.417502 1_555
Mg11 O52 1.964282 1_554
Mg11 O48 2.018988 1_554
Mg11 O120 2.024034 1_555
Mg11 O50 2.099701 1_554
Mg11 O124 2.140789 1_555
Mg11 O122 2.301903 1_555
Mg12 O53 1.944186 1_554
Mg12 O123 2.006186 1_555
Mg12 O121 2.022542 1_555
Mg12 O51 2.051175 1_554
Mg12 O49 2.208855 1_554
Mg12 O125 2.278964 1_555
Mg13 O56 1.937188 1_555
Mg13 O126 2.001508 1_555
Mg13 O58 2.044310 1_555
Mg13 O54 2.102239 1_555
Mg13 O130 2.187140 1_555
Mg13 O128 2.255834 1_555
Mg14 O57 1.950875 1_555
Mg14 O129 2.022528 1_555
Mg14 O127 2.034345 1_555
Mg14 O55 2.100403 1_555
Mg14 O59 2.158893 1_555
Mg14 O131 2.235622 1_555
O0 Si0 1.597876 1_545
O1 Si1 1.598416 1_545
O2 Si2 1.596863 1_555
O3 Si3 1.590298 1_555
O4 S1 1.472898 1_555
O5 S0 1.460567 1_655
O6 Si4 1.604160 1_555
O7 Si5 1.587649 1_555
O8 S3 1.472633 1_555
O9 S2 1.476685 1_655
O10 Si6 1.571935 1_555
O11 Si7 1.594838 1_555
O12 Si6 1.696404 1_565
O12 Ti1 1.903336 1_565
O13 Si7 1.671574 1_565
O13 Ti0 1.894852 1_565
O14 Si4 1.679990 1_555
O14 Ti0 1.895969 1_455
O15 Si5 1.725546 1_555
O15 Ti1 1.769915 1_555
O16 S2 1.501522 1_555
O16 Ti0 2.146434 1_465
O17 S3 1.515368 1_555
O17 Ti1 2.107526 1_565
O18 Si2 1.658321 1_555
O18 Ti3 1.863969 1_555
O19 Si3 1.695053 1_555
O19 Ti2 1.856617 1_655
O20 S0 1.516315 1_555
O20 Ti2 2.077671 1_545
O21 S1 1.485016 1_555
O21 Ti3 2.354546 1_545
O22 Si0 1.758710 1_555
O22 Ti2 1.786613 1_555
O23 Si1 1.716418 1_555
O23 Ti3 1.834902 1_555
O24 S4 1.467574 1_555
O25 S5 1.455179 1_555
O26 Si8 1.615617 1_555
O27 Si9 1.608251 1_555
O28 S6 1.475685 1_555
O29 Si10 1.611056 1_555
O30 Si11 1.593790 1_555
O31 S7 1.475876 1_555
O32 S8 1.457575 1_555
O33 S9 1.468475 1_555
O34 Si12 1.581093 1_555
O35 Si13 1.618830 1_555
O36 Si12 1.718787 1_555
O36 Ti4 1.827138 1_554
O37 Si13 1.635680 1_555
O38 Si11 1.704950 1_555
O38 Ti4 1.869567 1_554
O39 S7 1.481317 1_555
O40 S8 1.528093 1_555
O40 Ti4 1.979676 1_554
O41 S9 1.493203 1_555
O42 Si8 1.634722 1_555
O43 Si9 1.631266 1_555
O44 S6 1.486396 1_555
O45 Si10 1.636624 1_555
O46 S4 1.484454 1_555
O47 S5 1.487126 1_555
O48 S10 1.444054 1_555
O49 S11 1.474510 1_555
O50 S12 1.481818 1_555
O51 S13 1.483463 1_555
O52 Si14 1.607213 1_555
O53 Si15 1.603786 1_555
O54 S14 1.476420 1_555
O55 S15 1.475892 1_555
O56 Si16 1.611388 1_555
O57 Si17 1.610306 1_555
O58 S16 1.481234 1_555
O59 S17 1.479969 1_555
O60 S16 1.491462 1_555
O60 Ti5 2.276704 1_555
O61 S17 1.485509 1_555
O61 Ti6 2.343306 1_555
O62 S14 1.510857 1_555
O62 Ti5 2.026018 1_555
O63 S15 1.507347 1_555
O63 Ti6 2.058965 1_555
O64 Si16 1.726857 1_555
O64 Ti5 1.839501 1_555
O65 Si17 1.723987 1_555
O65 Ti6 1.840676 1_555
O66 S12 1.481627 1_555
O66 Ti7 2.271727 1_555
O67 S13 1.487144 1_555
O67 Ti8 2.241325 1_555
O68 Si14 1.699796 1_555
O68 Ti7 1.870362 1_555
O69 Si15 1.717491 1_555
O69 Ti8 1.834222 1_555
O70 S10 1.511209 1_555
O70 Ti7 2.101000 1_555
O71 S11 1.507092 1_555
O71 Ti8 2.130871 1_555
O72 S16 1.489027 1_555
O73 S17 1.492398 1_555
O74 S14 1.476573 1_555
O75 S15 1.483897 1_555
O76 Si16 1.638685 1_555
O77 Si17 1.640136 1_555
O78 S12 1.494197 1_555
O79 S13 1.481271 1_555
O80 Si14 1.646356 1_555
O81 Si15 1.637962 1_555
O82 S10 1.478307 1_555
O83 S11 1.488231 1_555
O84 S4 1.526650 1_555
O84 Ti1 2.150420 1_555
O85 S5 1.521271 1_555
O85 Ti0 2.137454 1_555
O86 Si8 1.685658 1_555
O86 Ti0 1.990413 1_455
O87 Si9 1.744686 1_555
O87 Ti1 1.924316 1_555
O88 S6 1.496363 1_555
O88 Ti1 2.379792 1_565
O89 Si10 1.693722 1_555
O89 Ti0 1.933601 1_565
O90 Si11 1.684823 1_555
O90 Ti3 1.874197 1_555
O91 S7 1.528737 1_555
O91 Ti2 2.152498 1_655
O92 S8 1.480237 1_555
O92 Ti3 2.417723 1_545
O93 S9 1.508105 1_555
O93 Ti2 2.323450 1_645
O94 Si12 1.719819 1_555
O94 Ti2 2.013071 1_545
O95 Si13 1.700007 1_555
O95 Ti3 1.971994 1_545
O96 Si6 1.597548 1_555
O97 Si7 1.596025 1_555
O98 Si4 1.631691 1_555
O99 Si5 1.611590 1_555
O100 S3 1.465020 1_555
O101 S2 1.458177 1_655
O102 Si2 1.615632 1_555
O103 Si3 1.617309 1_555
O104 S1 1.462619 1_555
O105 S0 1.468275 1_655
O106 Si0 1.588754 1_545
O107 Si1 1.602670 1_545
O108 S10 1.521958 1_555
O108 Ti4 2.255372 1_555
O109 S11 1.492217 1_555
O110 S13 1.500251 1_555
O110 Ti4 2.344058 1_555
O111 S12 1.496227 1_655
O112 Si14 1.684193 1_545
O112 Ti4 1.976133 1_555
O113 Si15 1.646178 1_545
O114 S14 1.485523 1_545
O115 S15 1.485549 1_545
O116 Si16 1.643083 1_555
O117 Si17 1.642308 1_555
O118 S17 1.501619 1_555
O119 S16 1.489036 1_655
O120 Si12 1.613706 1_555
O121 Si13 1.640743 1_555
O122 S7 1.479561 1_455
O123 Si11 1.621006 1_555
O124 S8 1.482514 1_565
O125 S9 1.483284 1_565
O126 Si8 1.651774 1_565
O127 Si9 1.632597 1_565
O128 S6 1.494934 1_555
O129 Si10 1.640100 1_555
O130 S5 1.494225 1_455
O131 S4 1.477840 1_555
O132 Si0 1.664431 1_555
O132 Ti5 1.962023 1_555
O133 Si1 1.669752 1_555
O133 Ti6 1.927985 1_555
O134 Si2 1.714008 1_555
O134 Ti5 1.817413 1_555
O135 Si3 1.689638 1_555
O135 Ti6 1.841430 1_555
O136 S0 1.512406 1_555
O136 Ti5 2.211985 1_555
O137 S1 1.537691 1_555
O137 Ti6 2.123943 1_555
O138 Si4 1.678872 1_555
O138 Ti7 1.924165 1_555
O139 Si5 1.655547 1_555
O139 Ti8 1.920274 1_555
O140 S2 1.510799 1_555
O140 Ti7 2.114385 1_555
O141 S3 1.499636 1_555
O141 Ti8 2.146855 1_555
O142 Si6 1.750815 1_565
O142 Ti7 1.840971 1_555
O143 Si7 1.751831 1_565
O143 Ti8 1.846343 1_555
