# generated using pymatgen
data_LiVF4
_symmetry_space_group_name_H-M   'P 1'
_cell_length_a   5.36365136
_cell_length_b   5.36365136
_cell_length_c   6.18726956
_cell_angle_alpha   90.00000000
_cell_angle_beta   90.00000000
_cell_angle_gamma   98.99072956
_symmetry_Int_Tables_number   1
_chemical_formula_structural   LiVF4
_chemical_formula_sum   'Li2 V2 F8'
_cell_volume   175.81307478
_cell_formula_units_Z   2
loop_
 _symmetry_equiv_pos_site_id
 _symmetry_equiv_pos_as_xyz
  1  'x, y, z'
loop_
 _atom_site_type_symbol
 _atom_site_label
 _atom_site_symmetry_multiplicity
 _atom_site_fract_x
 _atom_site_fract_y
 _atom_site_fract_z
 _atom_site_occupancy
  Li  Li0  1  0.34766147  0.65233853  0.25000000  1
  Li  Li1  1  0.65233853  0.34766147  0.75000000  1
  V  V0  1  0.97892458  0.02107542  0.25000000  1
  V  V1  1  0.02107542  0.97892458  0.75000000  1
  F  F0  1  0.22702576  0.31464805  0.25000000  1
  F  F1  1  0.31464805  0.22702576  0.75000000  1
  F  F2  1  0.83943320  0.16056680  0.52991084  1
  F  F3  1  0.83943320  0.16056680  0.97008916  1
  F  F4  1  0.16056680  0.83943320  0.47008916  1
  F  F5  1  0.16056680  0.83943320  0.02991084  1
  F  F6  1  0.68535195  0.77297424  0.25000000  1
  F  F7  1  0.77297424  0.68535195  0.75000000  1
loop_
_geom_bond_atom_site_label_1
_geom_bond_atom_site_label_2
_geom_bond_distance
_geom_bond_site_symmetry_2
F0 Li0 1.825654 1_555
F0 V0 1.896142 1_455
F1 Li1 1.825654 1_555
F1 V1 1.896142 1_545
F2 V1 2.012318 1_645
F2 Li1 2.045282 1_555
F2 V0 2.072181 1_555
F3 V1 2.012318 1_645
F3 Li1 2.045282 1_555
F3 V0 2.072181 1_556
F4 V0 2.012318 1_465
F4 Li0 2.045282 1_555
F4 V1 2.072181 1_555
F5 V0 2.012318 1_465
F5 Li0 2.045282 1_555
F5 V1 2.072181 1_554
F6 Li0 1.825654 1_555
F6 V0 1.896142 1_565
F7 Li1 1.825654 1_555
F7 V1 1.896142 1_655
