# generated using pymatgen
data_Na5Nb3GaSi5PO24
_symmetry_space_group_name_H-M   'P 1'
_cell_length_a   9.00953139
_cell_length_b   8.99671374
_cell_length_c   22.44070058
_cell_angle_alpha   89.94157182
_cell_angle_beta   89.85173135
_cell_angle_gamma   120.12308724
_symmetry_Int_Tables_number   1
_chemical_formula_structural   Na5Nb3GaSi5PO24
_chemical_formula_sum   'Na15 Nb9 Ga3 Si15 P3 O72'
_cell_volume   1573.29490650
_cell_formula_units_Z   3
loop_
 _symmetry_equiv_pos_site_id
 _symmetry_equiv_pos_as_xyz
  1  'x, y, z'
loop_
 _atom_site_type_symbol
 _atom_site_label
 _atom_site_symmetry_multiplicity
 _atom_site_fract_x
 _atom_site_fract_y
 _atom_site_fract_z
 _atom_site_occupancy
  Na  Na0  1  0.99075347  0.62679871  0.24355674  1
  Na  Na1  1  0.63403289  0.62287920  0.74566154  1
  Na  Na2  1  0.98896527  0.36552926  0.74549787  1
  Na  Na3  1  0.37502855  0.00996524  0.74656130  1
  Na  Na4  1  0.31271832  0.97174256  0.08431854  1
  Na  Na5  1  0.66583948  0.69238051  0.08448840  1
  Na  Na6  1  0.96737230  0.29112764  0.41216482  1
  Na  Na7  1  0.32249596  0.03267582  0.41145382  1
  Na  Na8  1  0.70852514  0.67683871  0.41290884  1
  Na  Na9  1  0.99919688  0.99946824  0.49978444  1
  Na  Na10  1  0.99950318  0.01020293  0.99536108  1
  Na  Na11  1  0.66622770  0.33402047  0.83329051  1
  Na  Na12  1  0.65161193  0.31999607  0.32225284  1
  Na  Na13  1  0.33461555  0.65696937  0.16549058  1
  Na  Na14  1  0.33256495  0.66472342  0.66365087  1
  Nb  Nb0  1  0.00033660  0.99941340  0.85554624  1
  Nb  Nb1  1  0.99660087  0.99969376  0.64321538  1
  Nb  Nb2  1  0.00357234  0.00387441  0.14588051  1
  Nb  Nb3  1  0.66695638  0.33179469  0.97733867  1
  Nb  Nb4  1  0.67104489  0.33601187  0.48091805  1
  Nb  Nb5  1  0.32763158  0.66211232  0.02110962  1
  Nb  Nb6  1  0.33380360  0.66253949  0.52255441  1
  Nb  Nb7  1  0.33766560  0.67165542  0.31029568  1
  Nb  Nb8  1  0.33364071  0.66620197  0.81333026  1
  Ga  Ga0  1  0.00667015  0.00363797  0.35161263  1
  Ga  Ga1  1  0.67018380  0.33906712  0.68661790  1
  Ga  Ga2  1  0.65216185  0.32150396  0.18289548  1
  Si  Si0  1  0.29925975  0.01318555  0.25224178  1
  Si  Si1  1  0.29198927  0.28805761  0.74824229  1
  Si  Si2  1  0.99812727  0.70904803  0.74882029  1
  Si  Si3  1  0.71079546  0.00363760  0.74920004  1
  Si  Si4  1  0.95477770  0.33452288  0.58705503  1
  Si  Si5  1  0.66626048  0.62095591  0.58701535  1
  Si  Si6  1  0.94900776  0.61088671  0.08872823  1
  Si  Si7  1  0.66854295  0.04894133  0.08514895  1
  Si  Si8  1  0.38428334  0.33664895  0.08549539  1
  Si  Si9  1  0.62391530  0.66660302  0.91748409  1
  Si  Si10  1  0.04053662  0.37399461  0.91607399  1
  Si  Si11  1  0.33330274  0.95856178  0.91691713  1
  Si  Si12  1  0.62654947  0.95621213  0.41586691  1
  Si  Si13  1  0.32998469  0.37416076  0.41543900  1
  Si  Si14  1  0.04604715  0.67037395  0.41562143  1
  P  P0  1  0.71308697  0.71045407  0.25221315  1
  P  P1  1  0.99625765  0.28661299  0.25330183  1
  P  P2  1  0.38018379  0.04538217  0.58555414  1
  O  O0  1  0.20648511  0.02578100  0.31277088  1
  O  O1  1  0.82104143  0.79816601  0.30847102  1
  O  O2  1  0.97610677  0.18411923  0.31089298  1
  O  O3  1  0.19595559  0.16361069  0.80608968  1
  O  O4  1  0.96892146  0.80554943  0.80616875  1
  O  O5  1  0.83736970  0.03498615  0.80596189  1
  O  O6  1  0.80260142  0.96387066  0.69201989  1
  O  O7  1  0.16139577  0.19752023  0.69162242  1
  O  O8  1  0.03716413  0.83965710  0.69198470  1
  O  O9  1  0.79872999  0.82248885  0.19527376  1
  O  O10  1  0.01658589  0.18995555  0.19842643  1
  O  O11  1  0.16905705  0.97538262  0.19392998  1
  O  O12  1  0.87063118  0.36116588  0.64634449  1
  O  O13  1  0.48451942  0.12380259  0.64222903  1
  O  O14  1  0.63337706  0.50849936  0.64646149  1
  O  O15  1  0.86931421  0.50534973  0.14962628  1
  O  O16  1  0.61725525  0.12365061  0.14148274  1
  O  O17  1  0.50784538  0.38561945  0.14236620  1
  O  O18  1  0.46498126  0.29247408  0.02703679  1
  O  O19  1  0.82401280  0.52670972  0.03054384  1
  O  O20  1  0.69916660  0.16744774  0.02562829  1
  O  O21  1  0.47110472  0.15681991  0.52838987  1
  O  O22  1  0.68682717  0.52465427  0.52611612  1
  O  O23  1  0.83738725  0.30947442  0.52600271  1
  O  O24  1  0.52944712  0.69011579  0.97646290  1
  O  O25  1  0.16400231  0.47543077  0.97322565  1
  O  O26  1  0.31045989  0.84180894  0.97638590  1
  O  O27  1  0.53145097  0.82897609  0.47250625  1
  O  O28  1  0.30106890  0.47093831  0.47300264  1
  O  O29  1  0.17371088  0.70095984  0.47148221  1
  O  O30  1  0.13104760  0.62883837  0.35671983  1
  O  O31  1  0.49445847  0.86361466  0.35851315  1
  O  O32  1  0.36976928  0.50698509  0.35910756  1
  O  O33  1  0.13463419  0.49168322  0.85614372  1
  O  O34  1  0.35647117  0.86259040  0.85743951  1
  O  O35  1  0.50537707  0.64315836  0.85786402  1
  O  O36  1  0.01855341  0.83444803  0.41089098  1
  O  O37  1  0.81446655  0.97714322  0.40849331  1
  O  O38  1  0.15911783  0.18657293  0.41176539  1
  O  O39  1  0.02678824  0.18783860  0.91164357  1
  O  O40  1  0.16058463  0.97237106  0.91126560  1
  O  O41  1  0.81106723  0.83922343  0.91118032  1
  O  O42  1  0.97668982  0.16339028  0.58750266  1
  O  O43  1  0.20077784  0.03034258  0.58702056  1
  O  O44  1  0.84241561  0.81048124  0.58745254  1
  O  O45  1  0.97137374  0.80899975  0.09301077  1
  O  O46  1  0.83352963  0.01681379  0.09134690  1
  O  O47  1  0.19171003  0.16134471  0.09223432  1
  O  O48  1  0.68670333  0.16947009  0.74424214  1
  O  O49  1  0.47973744  0.30569547  0.74467835  1
  O  O50  1  0.82869799  0.51982589  0.74682229  1
  O  O51  1  0.70025530  0.53456926  0.24784402  1
  O  O52  1  0.84530177  0.31852114  0.24785589  1
  O  O53  1  0.48771387  0.17802994  0.24477331  1
  O  O54  1  0.63903288  0.49448562  0.92241597  1
  O  O55  1  0.85584118  0.36313736  0.92176324  1
  O  O56  1  0.50623607  0.14591529  0.92099468  1
  O  O57  1  0.63679010  0.14370796  0.42200360  1
  O  O58  1  0.50263714  0.35691800  0.42283027  1
  O  O59  1  0.85570410  0.49329179  0.42248151  1
  O  O60  1  0.35974702  0.50475647  0.07726054  1
  O  O61  1  0.14859676  0.65286327  0.07993348  1
  O  O62  1  0.50014886  0.85238992  0.07702655  1
  O  O63  1  0.35971941  0.86455567  0.57674964  1
  O  O64  1  0.49889730  0.64650478  0.57679667  1
  O  O65  1  0.14515564  0.50666095  0.57688263  1
  O  O66  1  0.30051537  0.82487827  0.25498552  1
  O  O67  1  0.53133288  0.69466619  0.25536957  1
  O  O68  1  0.16667872  0.46844778  0.25434690  1
  O  O69  1  0.30777517  0.47906648  0.75399729  1
  O  O70  1  0.17388255  0.69474459  0.75404814  1
  O  O71  1  0.52149482  0.82637548  0.75388829  1
loop_
_geom_bond_atom_site_label_1
_geom_bond_atom_site_label_2
_geom_bond_distance
_geom_bond_site_symmetry_2
Na0 O51 2.316578 1_555
Na0 O15 2.377132 1_555
Na0 O52 2.401994 1_555
Na0 O66 2.458229 1_655
Na0 O68 2.620725 1_655
Na0 O30 2.835537 1_655
Na0 O11 2.929673 1_655
Na1 O50 2.359771 1_555
Na1 O14 2.452184 1_555
Na1 O49 2.468743 1_555
Na1 O71 2.505359 1_555
Na1 O69 2.555117 1_555
Na1 O35 2.813324 1_555
Na1 O6 2.910928 1_555
Na1 O4 2.949026 1_555
Na2 O48 2.388990 1_555
Na2 O50 2.454496 1_555
Na2 O12 2.461620 1_555
Na2 O69 2.527524 1_655
Na2 O70 2.575846 1_655
Na2 O33 2.775472 1_655
Na2 O5 2.907820 1_555
Na2 O7 2.917319 1_655
Na3 O49 2.334699 1_555
Na3 O48 2.429323 1_555
Na3 O70 2.488768 1_545
Na3 O13 2.544160 1_555
Na3 O71 2.585486 1_545
Na3 O34 2.783094 1_545
Na3 O8 2.907803 1_545
Na3 O3 2.920495 1_555
Na4 O62 2.418736 1_555
Na4 O47 2.448700 1_565
Na4 O61 2.483946 1_555
Na4 O45 2.667654 1_455
Na4 O26 2.686180 1_554
Na4 O16 2.701763 1_565
Na4 O11 2.784417 1_555
Na4 O18 2.805476 1_565
Na5 O60 2.410667 1_555
Na5 O45 2.412284 1_555
Na5 O46 2.530166 1_565
Na5 O62 2.546874 1_555
Na5 O17 2.714752 1_555
Na5 O24 2.716140 1_554
Na5 O9 2.756631 1_555
Na5 O19 2.800809 1_555
Na6 O38 2.345266 1_655
Na6 O37 2.445267 1_545
Na6 O2 2.485431 1_555
Na6 O59 2.492027 1_555
Na6 O57 2.590310 1_555
Na6 O23 2.846774 1_555
Na6 O30 2.905099 1_655
Na6 O28 2.943419 1_655
Na7 O36 2.403713 1_545
Na7 O0 2.438761 1_555
Na7 O38 2.475746 1_555
Na7 O57 2.497386 1_555
Na7 O58 2.541739 1_555
Na7 O21 2.906773 1_555
Na7 O31 2.912828 1_545
Na7 O29 2.912900 1_545
Na8 O37 2.372957 1_555
Na8 O36 2.416300 1_655
Na8 O58 2.532266 1_555
Na8 O1 2.565869 1_555
Na8 O59 2.594201 1_555
Na8 O22 2.844009 1_555
Na8 O27 2.896841 1_555
Na8 O32 2.906774 1_555
Na9 O44 2.514900 1_555
Na9 O38 2.520931 1_665
Na9 O42 2.528810 1_565
Na9 O36 2.545198 1_655
Na9 O37 2.586546 1_555
Na9 O43 2.592504 1_665
Na10 O39 2.396053 1_655
Na10 O41 2.493666 1_545
Na10 O40 2.503265 1_645
Na10 O46 2.636687 1_556
Na10 O47 2.689917 1_656
Na10 O45 2.769734 1_546
Na11 O50 2.494972 1_555
Na11 O56 2.519005 1_555
Na11 O49 2.535893 1_555
Na11 O48 2.548947 1_555
Na11 O55 2.549162 1_555
Na11 O54 2.550042 1_555
Na12 O53 2.227026 1_555
Na12 O52 2.416795 1_555
Na12 O51 2.418133 1_555
Na12 O57 2.706046 1_555
Na12 O58 2.727517 1_555
Na12 O59 2.832286 1_555
Na13 O60 2.482171 1_555
Na13 O61 2.539893 1_555
Na13 O68 2.558064 1_555
Na13 O62 2.569441 1_555
Na13 O67 2.596312 1_555
Na13 O66 2.622708 1_555
Na14 O65 2.505424 1_555
Na14 O64 2.510686 1_555
Na14 O69 2.562538 1_555
Na14 O70 2.570150 1_555
Na14 O63 2.577586 1_555
Na14 O71 2.579182 1_555
Nb0 O4 1.964692 1_455
Nb0 O3 1.973187 1_565
Nb0 O5 1.993913 1_465
Nb0 O41 2.015468 1_455
Nb0 O40 2.017020 1_555
Nb0 O39 2.028711 1_565
Nb1 O6 1.944807 1_555
Nb1 O7 1.977889 1_665
Nb1 O8 1.982761 1_655
Nb1 O42 2.006683 1_565
Nb1 O44 2.008289 1_555
Nb1 O43 2.127992 1_665
Nb2 O11 1.960259 1_545
Nb2 O47 1.976144 1_555
Nb2 O10 2.003643 1_555
Nb2 O46 2.011624 1_455
Nb2 O45 2.015225 1_445
Nb2 O9 2.064085 1_445
Nb3 O20 1.968188 1_556
Nb3 O18 2.005699 1_556
Nb3 O19 2.006320 1_556
Nb3 O55 2.009365 1_555
Nb3 O56 2.018741 1_555
Nb3 O54 2.022932 1_555
Nb4 O22 1.921294 1_555
Nb4 O23 1.921743 1_555
Nb4 O21 2.012584 1_555
Nb4 O59 2.027758 1_555
Nb4 O57 2.075392 1_555
Nb4 O58 2.081554 1_555
Nb5 O25 1.917150 1_554
Nb5 O26 1.973170 1_554
Nb5 O24 1.975760 1_554
Nb5 O60 2.021150 1_555
Nb5 O61 2.050688 1_555
Nb5 O62 2.065124 1_555
Nb6 O28 1.946850 1_555
Nb6 O65 1.983730 1_555
Nb6 O64 1.984758 1_555
Nb6 O27 1.996089 1_555
Nb6 O29 2.005388 1_555
Nb6 O63 2.101639 1_555
Nb7 O31 1.926627 1_555
Nb7 O32 1.976549 1_555
Nb7 O30 1.992086 1_555
Nb7 O66 2.003657 1_555
Nb7 O67 2.057280 1_555
Nb7 O68 2.116531 1_555
Nb8 O35 1.940436 1_555
Nb8 O33 1.940460 1_555
Nb8 O34 1.945174 1_555
Nb8 O71 2.063204 1_555
Nb8 O69 2.067373 1_555
Nb8 O70 2.070662 1_555
Ga0 O0 1.916208 1_555
Ga0 O2 1.998598 1_455
Ga0 O1 2.015052 1_445
Ga0 O38 2.040228 1_555
Ga0 O36 2.063529 1_545
Ga0 O37 2.063594 1_445
Ga1 O12 1.936111 1_555
Ga1 O14 1.936936 1_555
Ga1 O50 2.047643 1_555
Ga1 O49 2.049970 1_555
Ga1 O48 2.060911 1_555
Ga1 O13 2.074123 1_555
Ga2 O16 1.890520 1_555
Ga2 O17 1.899568 1_555
Ga2 O53 1.963566 1_555
Ga2 O15 1.965378 1_555
Ga2 O51 2.271954 1_555
Ga2 O52 2.283340 1_555
O0 Si0 1.626660 1_555
O1 P0 1.549367 1_555
O2 P1 1.543317 1_555
O3 Si1 1.645054 1_555
O4 Si2 1.645916 1_555
O5 Si3 1.639491 1_555
O6 Si3 1.658649 1_565
O7 Si1 1.646249 1_555
O8 Si2 1.646506 1_455
O9 P0 1.567048 1_555
O10 P1 1.570691 1_455
O11 Si0 1.677045 1_565
O12 Si4 1.606316 1_555
O13 P2 1.530124 1_555
O14 Si5 1.607895 1_555
O15 Si6 1.610167 1_555
O16 Si7 1.604324 1_555
O17 Si8 1.605725 1_555
O18 Si8 1.641237 1_555
O19 Si6 1.643225 1_555
O20 Si7 1.642202 1_555
O21 P2 1.577777 1_555
O22 Si5 1.677759 1_555
O23 Si4 1.677894 1_555
O24 Si9 1.642047 1_555
O25 Si10 1.644965 1_555
O26 Si11 1.644800 1_555
O27 Si12 1.633073 1_555
O28 Si13 1.650104 1_555
O29 Si14 1.631118 1_555
O30 Si14 1.660197 1_555
O31 Si12 1.667879 1_555
O32 Si13 1.648971 1_555
O33 Si10 1.654908 1_555
O34 Si11 1.659024 1_555
O35 Si9 1.660406 1_555
O36 Si14 1.618147 1_555
O37 Si12 1.614845 1_555
O38 Si13 1.618057 1_555
O39 Si10 1.619364 1_555
O40 Si11 1.627277 1_555
O41 Si9 1.626326 1_555
O42 Si4 1.647604 1_555
O43 P2 1.553132 1_555
O44 Si5 1.646271 1_555
O45 Si6 1.693111 1_555
O46 Si7 1.656703 1_555
O47 Si8 1.664971 1_555
O48 Si3 1.615621 1_555
O49 Si1 1.619471 1_555
O50 Si2 1.619395 1_555
O51 P0 1.530908 1_555
O52 P1 1.529615 1_555
O53 Si0 1.606535 1_555
O54 Si9 1.624822 1_555
O55 Si10 1.621891 1_655
O56 Si11 1.625458 1_545
O57 Si12 1.648410 1_545
O58 Si13 1.647633 1_555
O59 Si14 1.660904 1_655
O60 Si8 1.644882 1_555
O61 Si6 1.652725 1_455
O62 Si7 1.664699 1_565
O63 P2 1.555453 1_565
O64 Si5 1.651858 1_555
O65 Si4 1.650314 1_455
O66 Si0 1.700905 1_565
O67 P0 1.572445 1_555
O68 P1 1.585365 1_455
O69 Si1 1.656870 1_555
O70 Si2 1.656250 1_455
O71 Si3 1.652832 1_565
