# generated using pymatgen
data_MgV5O12
_symmetry_space_group_name_H-M   'P 1'
_cell_length_a   5.12681602
_cell_length_b   5.08211072
_cell_length_c   9.18469393
_cell_angle_alpha   88.36462259
_cell_angle_beta   94.70293407
_cell_angle_gamma   66.53173786
_symmetry_Int_Tables_number   1
_chemical_formula_structural   MgV5O12
_chemical_formula_sum   'Mg1 V5 O12'
_cell_volume   218.28262209
_cell_formula_units_Z   1
loop_
 _symmetry_equiv_pos_site_id
 _symmetry_equiv_pos_as_xyz
  1  'x, y, z'
loop_
 _atom_site_type_symbol
 _atom_site_label
 _atom_site_symmetry_multiplicity
 _atom_site_fract_x
 _atom_site_fract_y
 _atom_site_fract_z
 _atom_site_occupancy
  Mg  Mg0  1  0.63433000  0.84815800  0.11794400  1
  V  V0  1  0.02777900  0.08448300  0.27402200  1
  V  V1  1  0.08267200  0.47024200  0.95413200  1
  V  V2  1  0.47804500  0.02104400  0.53503800  1
  V  V3  1  0.38458800  0.45865500  0.25994000  1
  V  V4  1  0.62787700  0.55875500  0.74053400  1
  O  O0  1  0.97096500  0.25673100  0.84437200  1
  O  O1  1  0.28906100  0.91865600  0.65015500  1
  O  O2  1  0.18681700  0.31129400  0.38990700  1
  O  O3  1  0.27040700  0.19837900  0.11882100  1
  O  O4  1  0.34203600  0.52578200  0.87324300  1
  O  O5  1  0.55745200  0.27788000  0.62377800  1
  O  O6  1  0.36978700  0.78758500  0.36429700  1
  O  O7  1  0.69097200  0.43937100  0.16549100  1
  O  O8  1  0.73402200  0.76084400  0.90925500  1
  O  O9  1  0.78986100  0.68293300  0.60472600  1
  O  O10  1  0.72774900  0.06513700  0.35075600  1
  O  O11  1  0.06415900  0.75015200  0.14501900  1
loop_
_geom_bond_atom_site_label_1
_geom_bond_atom_site_label_2
_geom_bond_distance
_geom_bond_site_symmetry_2
Mg0 O3 2.001843 1_565
Mg0 O7 2.009467 1_555
Mg0 O8 2.039753 1_554
Mg0 O11 2.048139 1_655
Mg0 O10 2.530813 1_565
O0 V1 1.727545 1_655
O0 V4 1.962255 1_555
O1 V2 1.692793 1_565
O1 V4 2.048950 1_555
O2 V3 1.940646 1_555
O2 V0 1.950038 1_555
O2 V2 1.997302 1_555
O3 V1 1.925131 1_554
O3 V3 2.088656 1_555
O3 V0 2.175196 1_555
O4 V1 1.687818 1_555
O4 V4 2.034250 1_555
O5 V2 1.721429 1_555
O5 V4 1.937083 1_555
O6 V0 1.903048 1_565
O6 V3 1.929053 1_555
O6 V2 2.159392 1_565
O7 V3 1.826239 1_555
O7 V0 2.088742 1_655
O8 V1 1.813261 1_655
O8 V4 2.037174 1_555
O9 V4 1.784991 1_555
O9 V2 1.870679 1_565
O10 V0 1.779523 1_655
O10 V3 2.156925 1_555
O10 V2 2.261868 1_555
O11 V3 1.922368 1_555
O11 V0 2.055326 1_565
O11 V1 2.273446 1_554
