# generated using pymatgen
data_Eu2Ge2O7
_symmetry_space_group_name_H-M   'P 1'
_cell_length_a   7.03795800
_cell_length_b   7.03795800
_cell_length_c   12.72625900
_cell_angle_alpha   90.00000000
_cell_angle_beta   90.00000000
_cell_angle_gamma   90.00000000
_symmetry_Int_Tables_number   1
_chemical_formula_structural   Eu2Ge2O7
_chemical_formula_sum   'Eu8 Ge8 O28'
_cell_volume   630.36791387
_cell_formula_units_Z   4
loop_
 _symmetry_equiv_pos_site_id
 _symmetry_equiv_pos_as_xyz
  1  'x, y, z'
loop_
 _atom_site_type_symbol
 _atom_site_label
 _atom_site_symmetry_multiplicity
 _atom_site_fract_x
 _atom_site_fract_y
 _atom_site_fract_z
 _atom_site_occupancy
  Eu  Eu0  1  0.64990500  0.11754100  0.36482700  1
  Eu  Eu1  1  0.35009500  0.88245900  0.86482700  1
  Eu  Eu2  1  0.11754100  0.64990500  0.63517300  1
  Eu  Eu3  1  0.61754100  0.85009500  0.11482700  1
  Eu  Eu4  1  0.38245900  0.14990500  0.61482700  1
  Eu  Eu5  1  0.85009500  0.61754100  0.88517300  1
  Eu  Eu6  1  0.14990500  0.38245900  0.38517300  1
  Eu  Eu7  1  0.88245900  0.35009500  0.13517300  1
  Ge  Ge0  1  0.84352200  0.09546700  0.87793600  1
  Ge  Ge1  1  0.15647800  0.90453300  0.37793600  1
  Ge  Ge2  1  0.09546700  0.84352200  0.12206400  1
  Ge  Ge3  1  0.59546700  0.65647800  0.62793600  1
  Ge  Ge4  1  0.40453300  0.34352200  0.12793600  1
  Ge  Ge5  1  0.65647800  0.59546700  0.37206400  1
  Ge  Ge6  1  0.34352200  0.40453300  0.87206400  1
  Ge  Ge7  1  0.90453300  0.15647800  0.62206400  1
  O  O0  1  0.85666700  0.30462400  0.95363100  1
  O  O1  1  0.14333300  0.69537600  0.45363100  1
  O  O2  1  0.30462400  0.85666700  0.04636900  1
  O  O3  1  0.80462400  0.64333300  0.70363100  1
  O  O4  1  0.19537600  0.35666700  0.20363100  1
  O  O5  1  0.64333300  0.80462400  0.29636900  1
  O  O6  1  0.35666700  0.19537600  0.79636900  1
  O  O7  1  0.69537600  0.14333300  0.54636900  1
  O  O8  1  0.66068700  0.93992800  0.92655800  1
  O  O9  1  0.33931300  0.06007200  0.42655800  1
  O  O10  1  0.93992800  0.66068700  0.07344200  1
  O  O11  1  0.43992800  0.83931300  0.67655800  1
  O  O12  1  0.56007200  0.16068700  0.17655800  1
  O  O13  1  0.83931300  0.43992800  0.32344200  1
  O  O14  1  0.16068700  0.56007200  0.82344200  1
  O  O15  1  0.06007200  0.33931300  0.57344200  1
  O  O16  1  0.30307300  0.30307300  0.00000000  1
  O  O17  1  0.19692700  0.80307300  0.25000000  1
  O  O18  1  0.80307300  0.19692700  0.75000000  1
  O  O19  1  0.69692700  0.69692700  0.50000000  1
  O  O20  1  0.07740600  0.97589600  0.62660100  1
  O  O21  1  0.52410400  0.57740600  0.87660100  1
  O  O22  1  0.47589600  0.42259400  0.37660100  1
  O  O23  1  0.57740600  0.52410400  0.12339900  1
  O  O24  1  0.42259400  0.47589600  0.62339900  1
  O  O25  1  0.92259400  0.02410400  0.12660100  1
  O  O26  1  0.97589600  0.07740600  0.37339900  1
  O  O27  1  0.02410400  0.92259400  0.87339900  1
loop_
_geom_bond_atom_site_label_1
_geom_bond_atom_site_label_2
_geom_bond_distance
_geom_bond_site_symmetry_2
Eu0 O26 2.314207 1_555
Eu0 O7 2.339463 1_555
Eu0 O9 2.357768 1_555
Eu0 O5 2.368811 1_545
Eu0 O22 2.476219 1_555
Eu0 O12 2.496510 1_555
Eu0 O13 2.683750 1_555
Eu1 O27 2.314207 1_555
Eu1 O2 2.339463 1_556
Eu1 O8 2.357768 1_555
Eu1 O6 2.368811 1_565
Eu1 O21 2.476219 1_555
Eu1 O11 2.496510 1_555
Eu1 O14 2.683750 1_555
Eu2 O20 2.314207 1_555
Eu2 O1 2.339463 1_555
Eu2 O15 2.357768 1_555
Eu2 O3 2.368811 1_455
Eu2 O24 2.476219 1_555
Eu2 O14 2.496510 1_555
Eu2 O11 2.683750 1_555
Eu3 O23 2.314207 1_555
Eu3 O5 2.339463 1_555
Eu3 O12 2.357768 1_565
Eu3 O2 2.368811 1_555
Eu3 O25 2.476219 1_565
Eu3 O8 2.496510 1_554
Eu3 O10 2.683750 1_555
Eu4 O24 2.314207 1_555
Eu4 O6 2.339463 1_555
Eu4 O11 2.357768 1_545
Eu4 O7 2.368811 1_555
Eu4 O20 2.476219 1_545
Eu4 O9 2.496510 1_555
Eu4 O15 2.683750 1_555
Eu5 O21 2.314207 1_555
Eu5 O3 2.339463 1_555
Eu5 O14 2.357768 1_655
Eu5 O0 2.368811 1_555
Eu5 O27 2.476219 1_655
Eu5 O10 2.496510 1_556
Eu5 O8 2.683750 1_555
Eu6 O22 2.314207 1_555
Eu6 O4 2.339463 1_555
Eu6 O13 2.357768 1_455
Eu6 O1 2.368811 1_555
Eu6 O26 2.476219 1_455
Eu6 O15 2.496510 1_555
Eu6 O9 2.683750 1_555
Eu7 O25 2.314207 1_555
Eu7 O0 2.339463 1_554
Eu7 O10 2.357768 1_555
Eu7 O4 2.368811 1_655
Eu7 O23 2.476219 1_555
Eu7 O13 2.496510 1_555
Eu7 O12 2.683750 1_555
Ge0 O27 1.760365 1_645
Ge0 O0 1.761655 1_555
Ge0 O8 1.799171 1_545
Ge0 O18 1.800500 1_555
Ge1 O26 1.760365 1_465
Ge1 O1 1.761655 1_555
Ge1 O9 1.799171 1_565
Ge1 O17 1.800500 1_555
Ge2 O25 1.760365 1_465
Ge2 O2 1.761655 1_555
Ge2 O10 1.799171 1_455
Ge2 O17 1.800500 1_555
Ge3 O24 1.760365 1_555
Ge3 O3 1.761655 1_555
Ge3 O11 1.799171 1_555
Ge3 O19 1.800500 1_555
Ge4 O23 1.760365 1_555
Ge4 O4 1.761655 1_555
Ge4 O12 1.799171 1_555
Ge4 O16 1.800500 1_555
Ge5 O22 1.760365 1_555
Ge5 O5 1.761655 1_555
Ge5 O13 1.799171 1_555
Ge5 O19 1.800500 1_555
Ge6 O21 1.760365 1_555
Ge6 O6 1.761655 1_555
Ge6 O14 1.799171 1_555
Ge6 O16 1.800500 1_556
Ge7 O20 1.760365 1_645
Ge7 O7 1.761655 1_555
Ge7 O15 1.799171 1_655
Ge7 O18 1.800500 1_555
