# generated using pymatgen
data_LiMo(PO4)2
_symmetry_space_group_name_H-M   'P 1'
_cell_length_a   5.16456928
_cell_length_b   5.16456928
_cell_length_c   14.13357401
_cell_angle_alpha   85.21328015
_cell_angle_beta   85.21328015
_cell_angle_gamma   54.92142627
_symmetry_Int_Tables_number   1
_chemical_formula_structural   LiMo(PO4)2
_chemical_formula_sum   'Li2 Mo2 P4 O16'
_cell_volume   307.14120591
_cell_formula_units_Z   2
loop_
 _symmetry_equiv_pos_site_id
 _symmetry_equiv_pos_as_xyz
  1  'x, y, z'
loop_
 _atom_site_type_symbol
 _atom_site_label
 _atom_site_symmetry_multiplicity
 _atom_site_fract_x
 _atom_site_fract_y
 _atom_site_fract_z
 _atom_site_occupancy
  Li  Li0  1  0.08733500  0.91266500  0.75000000  1
  Li  Li1  1  0.91266500  0.08733500  0.25000000  1
  Mo  Mo0  1  0.00000000  0.00000000  0.00000000  1
  Mo  Mo1  1  0.00000000  0.00000000  0.50000000  1
  P  P0  1  0.68181600  0.63909000  0.61795800  1
  P  P1  1  0.63909000  0.68181600  0.11795800  1
  P  P2  1  0.31818400  0.36091000  0.38204200  1
  P  P3  1  0.36091000  0.31818400  0.88204200  1
  O  O0  1  0.86228900  0.26842100  0.61590800  1
  O  O1  1  0.77514500  0.42826300  0.03847000  1
  O  O2  1  0.13771100  0.73157900  0.38409200  1
  O  O3  1  0.22485500  0.57173700  0.96153000  1
  O  O4  1  0.22379700  0.47599800  0.78897900  1
  O  O5  1  0.07358400  0.28668300  0.41982700  1
  O  O6  1  0.28668300  0.07358400  0.91982700  1
  O  O7  1  0.47599800  0.22379700  0.28897900  1
  O  O8  1  0.57173700  0.22485500  0.46153000  1
  O  O9  1  0.26842100  0.86228900  0.11590800  1
  O  O10  1  0.73157900  0.13771100  0.88409200  1
  O  O11  1  0.42826300  0.77514500  0.53847000  1
  O  O12  1  0.52400200  0.77620300  0.71102100  1
  O  O13  1  0.71331700  0.92641600  0.08017300  1
  O  O14  1  0.92641600  0.71331700  0.58017300  1
  O  O15  1  0.77620300  0.52400200  0.21102100  1
loop_
_geom_bond_atom_site_label_1
_geom_bond_atom_site_label_2
_geom_bond_distance
_geom_bond_site_symmetry_2
Li0 O12 1.979071 1_555
Li0 O4 1.979071 1_555
Li0 O0 2.377056 1_465
Li0 O10 2.377056 1_465
Li1 O7 1.979071 1_555
Li1 O15 1.979071 1_555
Li1 O9 2.377056 1_645
Li1 O2 2.377056 1_645
Mo0 O1 1.918155 1_455
Mo0 O3 1.918155 1_544
Mo0 O6 1.978745 1_554
Mo0 O13 1.978745 1_445
Mo0 O9 2.040245 1_545
Mo0 O10 2.040245 1_454
Mo1 O11 1.918155 1_545
Mo1 O8 1.918155 1_455
Mo1 O5 1.978745 1_555
Mo1 O14 1.978745 1_445
Mo1 O0 2.040245 1_455
Mo1 O2 2.040245 1_545
O0 P0 1.577399 1_555
O1 P1 1.589598 1_555
O2 P2 1.577399 1_555
O3 P3 1.589598 1_555
O4 P3 1.486250 1_555
O5 P2 1.561353 1_555
O6 P3 1.561353 1_555
O7 P2 1.486250 1_555
O8 P2 1.589598 1_555
O9 P1 1.577399 1_555
O10 P3 1.577399 1_555
O11 P0 1.589598 1_555
O12 P0 1.486250 1_555
O13 P1 1.561353 1_555
O14 P0 1.561353 1_555
O15 P1 1.486250 1_555
