# generated using pymatgen
data_Na3Sc2Ti2P5SO24
_symmetry_space_group_name_H-M   'P 1'
_cell_length_a   8.76150255
_cell_length_b   8.74349809
_cell_length_c   22.57269979
_cell_angle_alpha   90.06809130
_cell_angle_beta   90.08051764
_cell_angle_gamma   119.70650157
_symmetry_Int_Tables_number   1
_chemical_formula_structural   Na3Sc2Ti2P5SO24
_chemical_formula_sum   'Na9 Sc6 Ti6 P15 S3 O72'
_cell_volume   1501.94259529
_cell_formula_units_Z   3
loop_
 _symmetry_equiv_pos_site_id
 _symmetry_equiv_pos_as_xyz
  1  'x, y, z'
loop_
 _atom_site_type_symbol
 _atom_site_label
 _atom_site_symmetry_multiplicity
 _atom_site_fract_x
 _atom_site_fract_y
 _atom_site_fract_z
 _atom_site_occupancy
  Na  Na0  1  0.00170272  0.36442680  0.75067096  1
  Na  Na1  1  0.66781740  0.96404239  0.58351903  1
  Na  Na2  1  0.03742118  0.33284004  0.08335935  1
  Na  Na3  1  0.00867639  0.99756669  0.49974322  1
  Na  Na4  1  0.00303605  0.99321720  0.99913649  1
  Na  Na5  1  0.65926547  0.32961881  0.83443455  1
  Na  Na6  1  0.67163490  0.33406468  0.33322746  1
  Na  Na7  1  0.34283511  0.67188054  0.16777243  1
  Na  Na8  1  0.33389645  0.66758906  0.66704867  1
  Sc  Sc0  1  0.00555764  0.99728502  0.64636177  1
  Sc  Sc1  1  0.99694564  0.99552403  0.14643654  1
  Sc  Sc2  1  0.33243572  0.67139808  0.01887150  1
  Sc  Sc3  1  0.32623757  0.66723118  0.51868696  1
  Sc  Sc4  1  0.32869153  0.66588872  0.31513459  1
  Sc  Sc5  1  0.33546532  0.67650068  0.81584245  1
  Ti  Ti0  1  0.97787052  0.98811866  0.35169637  1
  Ti  Ti1  1  0.01043568  0.00812411  0.85050590  1
  Ti  Ti2  1  0.66119301  0.33483023  0.68653155  1
  Ti  Ti3  1  0.67375634  0.34035228  0.18602740  1
  Ti  Ti4  1  0.66490894  0.32540091  0.98118127  1
  Ti  Ti5  1  0.67491294  0.33582171  0.48091388  1
  P  P0  1  0.70727382  0.70579791  0.24884581  1
  P  P1  1  0.99692679  0.28850890  0.24894375  1
  P  P2  1  0.29388391  0.29005295  0.74958232  1
  P  P3  1  0.99569556  0.70883927  0.75034047  1
  P  P4  1  0.70995747  0.99974105  0.74872269  1
  P  P5  1  0.95421360  0.33677783  0.58467817  1
  P  P6  1  0.38291969  0.05294003  0.58216751  1
  P  P7  1  0.66507680  0.61638485  0.58265025  1
  P  P8  1  0.94913181  0.61898439  0.08211498  1
  P  P9  1  0.66285473  0.04632258  0.08447350  1
  P  P10  1  0.38470659  0.33392498  0.08349546  1
  P  P11  1  0.03490008  0.36835156  0.91682157  1
  P  P12  1  0.33248437  0.96504364  0.91723160  1
  P  P13  1  0.62653027  0.96308211  0.41771953  1
  P  P14  1  0.03593443  0.66826847  0.41627632  1
  S  S0  1  0.29198297  0.00472765  0.25055711  1
  S  S1  1  0.63181452  0.66754151  0.91694978  1
  S  S2  1  0.33264485  0.36779938  0.41669605  1
  O  O0  1  0.20691154  0.02871300  0.30378481  1
  O  O1  1  0.82654359  0.79722268  0.30491337  1
  O  O2  1  0.97247576  0.16665919  0.30343800  1
  O  O3  1  0.20321607  0.17147629  0.80508522  1
  O  O4  1  0.97144908  0.80103305  0.80542359  1
  O  O5  1  0.83471387  0.03306308  0.80287325  1
  O  O6  1  0.78942460  0.97497675  0.69159537  1
  O  O7  1  0.17603280  0.20984687  0.69564810  1
  O  O8  1  0.02681764  0.81865346  0.69504963  1
  O  O9  1  0.79395189  0.81872920  0.19503103  1
  O  O10  1  0.02557957  0.21041357  0.19220222  1
  O  O11  1  0.18682648  0.97682817  0.19671957  1
  O  O12  1  0.86437677  0.35796550  0.64120580  1
  O  O13  1  0.50057743  0.14246531  0.63815293  1
  O  O14  1  0.64416441  0.50250482  0.63862302  1
  O  O15  1  0.86057993  0.50117124  0.13818990  1
  O  O16  1  0.64318695  0.14145205  0.13948346  1
  O  O17  1  0.49938204  0.35635783  0.13924118  1
  O  O18  1  0.47655248  0.31155777  0.02829640  1
  O  O19  1  0.83503626  0.52469825  0.02752240  1
  O  O20  1  0.69140888  0.16405523  0.02884560  1
  O  O21  1  0.47726671  0.16534672  0.52734372  1
  O  O22  1  0.68752620  0.52376463  0.52797341  1
  O  O23  1  0.83525083  0.30973672  0.52959773  1
  O  O24  1  0.55162938  0.69710686  0.96977918  1
  O  O25  1  0.14702435  0.44658251  0.97292620  1
  O  O26  1  0.29967057  0.85045798  0.97198044  1
  O  O27  1  0.55563114  0.85384724  0.47441576  1
  O  O28  1  0.30239942  0.44761199  0.46968536  1
  O  O29  1  0.14982158  0.70148431  0.47157302  1
  O  O30  1  0.11525133  0.63118460  0.36152556  1
  O  O31  1  0.51318547  0.87894609  0.36287650  1
  O  O32  1  0.36347582  0.47848781  0.36354800  1
  O  O33  1  0.11511565  0.47957723  0.86074898  1
  O  O34  1  0.36981781  0.88728204  0.86196854  1
  O  O35  1  0.52165365  0.63643592  0.86349857  1
  O  O36  1  0.01698018  0.83492420  0.40625875  1
  O  O37  1  0.81515554  0.98576401  0.40750281  1
  O  O38  1  0.17471559  0.19029120  0.40855105  1
  O  O39  1  0.01268306  0.18087344  0.90726883  1
  O  O40  1  0.16652218  0.98408241  0.90747544  1
  O  O41  1  0.80820025  0.82601192  0.90942178  1
  O  O42  1  0.96136048  0.16469759  0.58701924  1
  O  O43  1  0.20145805  0.03459578  0.58612984  1
  O  O44  1  0.82792511  0.80080402  0.58651875  1
  O  O45  1  0.96837277  0.80075190  0.08695904  1
  O  O46  1  0.83478951  0.03897696  0.08731887  1
  O  O47  1  0.20005353  0.17082335  0.08761486  1
  O  O48  1  0.69944823  0.17336419  0.74390510  1
  O  O49  1  0.47593424  0.30404931  0.74349668  1
  O  O50  1  0.82978186  0.52146589  0.74437223  1
  O  O51  1  0.69476049  0.52250558  0.24346993  1
  O  O52  1  0.82658157  0.30240638  0.24350825  1
  O  O53  1  0.46890882  0.16465958  0.24500700  1
  O  O54  1  0.65030619  0.50815084  0.92378679  1
  O  O55  1  0.84943677  0.34862391  0.92566307  1
  O  O56  1  0.49569328  0.15113005  0.92623104  1
  O  O57  1  0.65133475  0.15035543  0.42561108  1
  O  O58  1  0.49162225  0.34966090  0.42378581  1
  O  O59  1  0.85014951  0.50507808  0.42599627  1
  O  O60  1  0.36251240  0.49773766  0.07896760  1
  O  O61  1  0.12855143  0.62589923  0.07902344  1
  O  O62  1  0.50029030  0.86525899  0.07919014  1
  O  O63  1  0.37458988  0.87214151  0.57906035  1
  O  O64  1  0.50086011  0.63707846  0.57891143  1
  O  O65  1  0.13513697  0.50005097  0.57916439  1
  O  O66  1  0.31310230  0.84663299  0.25607120  1
  O  O67  1  0.52501224  0.68518009  0.25772122  1
  O  O68  1  0.15768029  0.47230811  0.25739095  1
  O  O69  1  0.31021143  0.47163484  0.75864843  1
  O  O70  1  0.15372372  0.67699797  0.75687619  1
  O  O71  1  0.52723202  0.83919144  0.75663310  1
loop_
_geom_bond_atom_site_label_1
_geom_bond_atom_site_label_2
_geom_bond_distance
_geom_bond_site_symmetry_2
Na0 O48 2.332522 1_455
Na0 O70 2.377719 1_555
Na0 O69 2.388373 1_555
Na0 O50 2.494826 1_455
Na0 O33 2.677805 1_555
Na0 O12 2.735004 1_455
Na0 O5 2.781187 1_455
Na0 O7 2.783819 1_555
Na1 O63 2.282366 1_555
Na1 O42 2.286009 1_565
Na1 O44 2.448230 1_555
Na1 O64 2.485467 1_555
Na1 O6 2.643304 1_555
Na1 O27 2.647366 1_555
Na1 O13 2.892698 1_565
Na1 O23 2.896301 1_565
Na2 O61 2.277255 1_555
Na2 O46 2.289452 1_455
Na2 O47 2.459029 1_555
Na2 O60 2.476352 1_555
Na2 O10 2.662656 1_555
Na2 O25 2.681644 1_554
Na2 O15 2.891344 1_455
Na2 O20 2.904072 1_455
Na3 O43 2.491466 1_565
Na3 O36 2.564436 1_555
Na3 O44 2.573106 1_455
Na3 O38 2.603865 1_565
Na3 O42 2.604663 1_465
Na3 O37 2.652703 1_455
Na4 O45 2.521326 1_456
Na4 O40 2.541721 1_555
Na4 O41 2.581120 1_455
Na4 O47 2.589621 1_566
Na4 O39 2.621191 1_565
Na4 O46 2.624133 1_466
Na5 O49 2.545074 1_555
Na5 O56 2.565601 1_555
Na5 O54 2.573955 1_555
Na5 O48 2.576520 1_555
Na5 O50 2.590650 1_555
Na5 O55 2.599910 1_555
Na6 O52 2.529801 1_555
Na6 O51 2.557132 1_555
Na6 O57 2.585776 1_555
Na6 O53 2.586482 1_555
Na6 O59 2.594715 1_555
Na6 O58 2.627963 1_555
Na7 O62 2.542460 1_555
Na7 O67 2.547557 1_555
Na7 O60 2.572986 1_555
Na7 O66 2.600735 1_555
Na7 O61 2.634215 1_555
Na7 O68 2.642124 1_555
Na8 O64 2.561814 1_555
Na8 O65 2.562989 1_555
Na8 O63 2.578571 1_555
Na8 O71 2.583386 1_555
Na8 O70 2.597570 1_555
Na8 O69 2.628875 1_555
O0 S0 1.483226 1_555
O0 Ti0 2.150279 1_445
O1 P0 1.580724 1_555
O1 Ti0 1.859438 1_555
O2 P1 1.572166 1_555
O2 Ti0 1.924271 1_545
O3 P2 1.570092 1_555
O3 Ti1 1.887160 1_555
O4 P3 1.552090 1_555
O4 Ti1 1.952568 1_665
O5 P4 1.566363 1_545
O5 Ti1 1.975490 1_655
O6 P4 1.531595 1_555
O6 Sc0 2.075167 1_655
O7 P2 1.522132 1_555
O7 Sc0 2.040073 1_545
O8 P3 1.515995 1_455
O8 Sc0 1.993440 1_555
O9 P0 1.513130 1_555
O9 Sc1 2.010118 1_555
O10 P1 1.529204 1_455
O10 Sc1 2.046420 1_445
O11 S0 1.469219 1_565
O11 Sc1 2.085035 1_455
O12 P5 1.558449 1_555
O12 Ti2 1.976235 1_555
O13 P6 1.570564 1_555
O13 Ti2 1.909775 1_555
O14 P7 1.563379 1_555
O14 Ti2 1.887109 1_555
O15 P8 1.574471 1_555
O15 Ti3 1.884117 1_555
O16 P9 1.550356 1_555
O16 Ti3 1.932142 1_555
O17 P10 1.559453 1_555
O17 Ti3 1.917485 1_555
O18 P10 1.548067 1_555
O18 Ti4 1.917401 1_554
O19 P8 1.541048 1_555
O19 Ti4 1.941513 1_554
O20 P9 1.564502 1_555
O20 Ti4 1.878611 1_554
O21 P6 1.543136 1_555
O21 Ti5 1.941505 1_555
O22 P7 1.540759 1_555
O22 Ti5 1.912200 1_555
O23 P5 1.561896 1_555
O23 Ti5 1.883329 1_555
O24 S1 1.471078 1_555
O24 Sc2 2.132000 1_556
O25 P11 1.537936 1_555
O25 Sc2 2.098572 1_556
O26 P12 1.527139 1_555
O26 Sc2 2.025441 1_556
O27 P13 1.533966 1_555
O27 Sc3 2.111800 1_555
O28 S2 1.473118 1_555
O28 Sc3 2.133355 1_555
O29 P14 1.531800 1_555
O29 Sc3 2.016119 1_555
O30 P14 1.529783 1_555
O30 Sc4 2.032144 1_555
O31 P13 1.526506 1_555
O31 Sc4 2.061648 1_555
O32 S2 1.481028 1_555
O32 Sc4 2.114285 1_555
O33 P11 1.539395 1_555
O33 Sc5 2.105798 1_555
O34 P12 1.531312 1_555
O34 Sc5 2.003992 1_555
O35 S1 1.482243 1_555
O35 Sc5 2.122109 1_555
O36 P14 1.562857 1_555
O36 Ti0 1.971314 1_455
O37 P13 1.581164 1_555
O37 Ti0 1.896235 1_555
O38 S2 1.492444 1_555
O38 Ti0 2.170949 1_445
O39 P11 1.566591 1_555
O39 Ti1 1.972146 1_555
O40 P12 1.558731 1_555
O40 Ti1 1.961807 1_565
O41 S1 1.488634 1_555
O41 Ti1 2.158462 1_665
O42 P5 1.537543 1_555
O42 Sc0 2.156822 1_645
O43 P6 1.519581 1_555
O43 Sc0 2.086517 1_545
O44 P7 1.537049 1_555
O44 Sc0 2.129982 1_655
O45 P8 1.516639 1_555
O45 Sc1 2.082406 1_555
O46 P9 1.540500 1_555
O46 Sc1 2.115285 1_545
O47 P10 1.540721 1_555
O47 Sc1 2.141756 1_445
O48 P4 1.569635 1_545
O48 Ti2 2.062715 1_555
O49 P2 1.544401 1_555
O49 Ti2 1.983479 1_555
O50 P3 1.566476 1_555
O50 Ti2 2.037135 1_555
O51 P0 1.555790 1_555
O51 Ti3 1.988872 1_555
O52 P1 1.560955 1_555
O52 Ti3 2.005712 1_555
O53 S0 1.492182 1_555
O53 Ti3 2.152315 1_555
O54 S1 1.488792 1_555
O54 Ti4 2.110708 1_555
O55 P11 1.559873 1_655
O55 Ti4 1.976491 1_555
O56 P12 1.557493 1_545
O56 Ti4 1.951846 1_555
O57 P13 1.551330 1_545
O57 Ti5 1.973099 1_555
O58 S2 1.486356 1_555
O58 Ti5 2.107986 1_555
O59 P14 1.559954 1_655
O59 Ti5 1.960053 1_555
O60 P10 1.541449 1_555
O60 Sc2 2.148398 1_555
O61 P8 1.544598 1_455
O61 Sc2 2.120524 1_555
O62 P9 1.520993 1_565
O62 Sc2 2.099525 1_555
O63 P6 1.547445 1_565
O63 Sc3 2.118237 1_555
O64 P7 1.538723 1_555
O64 Sc3 2.157104 1_555
O65 P5 1.524581 1_455
O65 Sc3 2.095028 1_555
O66 S0 1.488064 1_565
O66 Sc4 2.124153 1_555
O67 P0 1.529165 1_555
O67 Sc4 2.094243 1_555
O68 P1 1.535534 1_455
O68 Sc4 2.069897 1_555
O69 P2 1.535270 1_555
O69 Sc5 2.127238 1_555
O70 P3 1.548502 1_455
O70 Sc5 2.075593 1_555
O71 P4 1.529539 1_555
O71 Sc5 2.067546 1_555
