# generated using pymatgen
data_YCd3
_symmetry_space_group_name_H-M   'P 1'
_cell_length_a   4.91407773
_cell_length_b   6.57266668
_cell_length_c   6.57266699
_cell_angle_alpha   118.69065772
_cell_angle_beta   90.00000000
_cell_angle_gamma   90.00000000
_symmetry_Int_Tables_number   1
_chemical_formula_structural   YCd3
_chemical_formula_sum   'Y2 Cd6'
_cell_volume   186.22414514
_cell_formula_units_Z   2
loop_
 _symmetry_equiv_pos_site_id
 _symmetry_equiv_pos_as_xyz
  1  'x, y, z'
loop_
 _atom_site_type_symbol
 _atom_site_label
 _atom_site_symmetry_multiplicity
 _atom_site_fract_x
 _atom_site_fract_y
 _atom_site_fract_z
 _atom_site_occupancy
  Y  Y0  1  0.25000000  0.65799567  0.34200433  1
  Y  Y1  1  0.75000000  0.34200433  0.65799567  1
  Cd  Cd0  1  0.75000000  0.31571504  0.14852873  1
  Cd  Cd1  1  0.25000000  0.68428496  0.85147127  1
  Cd  Cd2  1  0.25000000  0.14852873  0.31571504  1
  Cd  Cd3  1  0.75000000  0.85147127  0.68428496  1
  Cd  Cd4  1  0.25000000  0.16632342  0.83367658  1
  Cd  Cd5  1  0.75000000  0.83367658  0.16632342  1
loop_
_geom_bond_atom_site_label_1
_geom_bond_atom_site_label_2
_geom_bond_distance
_geom_bond_site_symmetry_2
Cd0 Cd4 3.054939 1_654
Cd0 Cd4 3.054939 1_554
Cd0 Cd2 3.100228 1_555
Cd0 Cd2 3.100228 1_655
Cd0 Cd3 3.111507 1_544
Cd0 Y0 3.157280 1_655
Cd0 Y0 3.157280 1_555
Cd0 Cd5 3.226060 1_545
Cd0 Y1 3.269119 1_555
Cd0 Y1 3.310536 1_554
Cd0 Cd5 3.349811 1_555
Cd1 Cd5 3.054939 1_556
Cd1 Cd5 3.054939 1_456
Cd1 Cd3 3.100228 1_455
Cd1 Cd3 3.100228 1_555
Cd1 Cd2 3.111507 1_566
Cd1 Y1 3.157280 1_455
Cd1 Y1 3.157280 1_555
Cd1 Cd4 3.226060 1_565
Cd1 Y0 3.269119 1_555
Cd1 Y0 3.310536 1_556
Cd1 Cd4 3.349811 1_555
Cd2 Cd5 3.054938 1_545
Cd2 Cd5 3.054938 1_445
Cd2 Y1 3.157280 1_555
Cd2 Y1 3.157280 1_455
Cd2 Cd4 3.226060 1_554
Cd2 Y0 3.269119 1_555
Cd2 Y0 3.310536 1_545
Cd2 Cd4 3.349811 1_555
Cd3 Cd4 3.054938 1_665
Cd3 Cd4 3.054938 1_565
Cd3 Y0 3.157280 1_655
Cd3 Y0 3.157280 1_555
Cd3 Cd5 3.226060 1_556
Cd3 Y1 3.269119 1_555
Cd3 Y1 3.310536 1_565
Cd3 Cd5 3.349811 1_555
Cd4 Y1 3.159725 1_455
Cd4 Y1 3.159725 1_555
Cd4 Y0 3.352479 1_545
Cd4 Y0 3.352479 1_556
Cd5 Y0 3.159725 1_655
Cd5 Y0 3.159725 1_555
Cd5 Y1 3.352479 1_565
Cd5 Y1 3.352479 1_554
