# generated using pymatgen
data_MgMnCo3O8
_symmetry_space_group_name_H-M   'P 1'
_cell_length_a   5.97949686
_cell_length_b   5.84413246
_cell_length_c   5.79806780
_cell_angle_alpha   62.10798142
_cell_angle_beta   120.25637090
_cell_angle_gamma   120.55017663
_symmetry_Int_Tables_number   1
_chemical_formula_structural   MgMnCo3O8
_chemical_formula_sum   'Mg1 Mn1 Co3 O8'
_cell_volume   144.48667614
_cell_formula_units_Z   1
loop_
 _symmetry_equiv_pos_site_id
 _symmetry_equiv_pos_as_xyz
  1  'x, y, z'
loop_
 _atom_site_type_symbol
 _atom_site_label
 _atom_site_symmetry_multiplicity
 _atom_site_fract_x
 _atom_site_fract_y
 _atom_site_fract_z
 _atom_site_occupancy
  Mg  Mg0  1  0.90584900  0.16956500  0.65882800  1
  Mn  Mn0  1  0.53597600  0.53758800  0.53312800  1
  Co  Co0  1  0.53818100  0.53973000  0.04189400  1
  Co  Co1  1  0.53135300  0.03311000  0.03182900  1
  Co  Co2  1  0.04494900  0.54635700  0.04612400  1
  O  O0  1  0.76875900  0.75374600  0.80615500  1
  O  O1  1  0.77213800  0.31414500  0.78869700  1
  O  O2  1  0.32121700  0.75992000  0.83621100  1
  O  O3  1  0.32290500  0.30705000  0.78839400  1
  O  O4  1  0.74161900  0.75828200  0.28467200  1
  O  O5  1  0.75973200  0.30669100  0.24711100  1
  O  O6  1  0.31015400  0.76108400  0.29531600  1
  O  O7  1  0.31621800  0.33177900  0.26664100  1
loop_
_geom_bond_atom_site_label_1
_geom_bond_atom_site_label_2
_geom_bond_distance
_geom_bond_site_symmetry_2
Mg0 O1 1.951636 1_555
Mg0 O5 1.980967 1_555
Mg0 O0 2.011328 1_545
Mg0 O3 2.017121 1_655
Mn0 O7 1.909643 1_555
Mn0 O6 1.913686 1_555
Mn0 O4 1.919691 1_555
Mn0 O1 1.962279 1_555
Mn0 O0 1.975407 1_555
Mn0 O3 1.979536 1_555
Co0 O2 1.861016 1_554
Co0 O4 1.862702 1_555
Co0 O7 1.886273 1_555
Co0 O5 1.937800 1_555
Co0 O3 1.962223 1_554
Co0 O0 1.969789 1_554
Co1 O2 1.906027 1_544
Co1 O5 1.977138 1_555
Co1 O1 2.057403 1_554
Co1 O6 2.058410 1_545
Co1 O3 2.061616 1_554
Co1 O4 2.074128 1_545
Co2 O6 1.881877 1_555
Co2 O1 1.980278 1_454
Co2 O0 2.067288 1_454
Co2 O5 2.067780 1_455
Co2 O2 2.068061 1_554
Co2 O7 2.077525 1_555
