# generated using pymatgen
data_MgFe8(OF)8
_symmetry_space_group_name_H-M   'P 1'
_cell_length_a   10.08057623
_cell_length_b   10.13660198
_cell_length_c   3.05328400
_cell_angle_alpha   90.00000000
_cell_angle_beta   90.00000000
_cell_angle_gamma   83.25659768
_symmetry_Int_Tables_number   1
_chemical_formula_structural   MgFe8(OF)8
_chemical_formula_sum   'Mg1 Fe8 O8 F8'
_cell_volume   309.83470203
_cell_formula_units_Z   1
loop_
 _symmetry_equiv_pos_site_id
 _symmetry_equiv_pos_as_xyz
  1  'x, y, z'
loop_
 _atom_site_type_symbol
 _atom_site_label
 _atom_site_symmetry_multiplicity
 _atom_site_fract_x
 _atom_site_fract_y
 _atom_site_fract_z
 _atom_site_occupancy
  Mg  Mg0  1  0.10566900  0.60172100  0.50000000  1
  Fe  Fe0  1  0.03465900  0.02320300  0.00000000  1
  Fe  Fe1  1  0.94752400  0.44549500  0.00000000  1
  Fe  Fe2  1  0.22421900  0.24887600  0.50000000  1
  Fe  Fe3  1  0.26434700  0.78603000  0.50000000  1
  Fe  Fe4  1  0.53825600  0.51457200  0.00000000  1
  Fe  Fe5  1  0.50735100  0.00505200  0.00000000  1
  Fe  Fe6  1  0.73398300  0.25373200  0.50000000  1
  Fe  Fe7  1  0.74838100  0.72210600  0.50000000  1
  O  O0  1  0.08102100  0.40208300  0.50000000  1
  O  O1  1  0.10054200  0.92610100  0.50000000  1
  O  O2  1  0.14387400  0.16349100  0.00000000  1
  O  O3  1  0.18292900  0.67417200  0.00000000  1
  O  O4  1  0.59078500  0.39849500  0.50000000  1
  O  O5  1  0.65867700  0.64389100  0.00000000  1
  O  O6  1  0.82527900  0.32187900  0.00000000  1
  O  O7  1  0.90208300  0.57934500  0.50000000  1
  F  F0  1  0.31695200  0.33746700  0.00000000  1
  F  F1  1  0.37819700  0.86837900  0.00000000  1
  F  F2  1  0.39865300  0.11369900  0.50000000  1
  F  F3  1  0.42400300  0.60557700  0.50000000  1
  F  F4  1  0.61700800  0.89806700  0.50000000  1
  F  F5  1  0.64808500  0.14806900  0.00000000  1
  F  F6  1  0.83562400  0.81330800  0.00000000  1
  F  F7  1  0.88912200  0.09546500  0.50000000  1
loop_
_geom_bond_atom_site_label_1
_geom_bond_atom_site_label_2
_geom_bond_distance
_geom_bond_site_symmetry_2
Mg0 O3 1.900233 1_555
Mg0 O3 1.900233 1_556
Mg0 O0 2.067603 1_555
Mg0 O7 2.091065 1_455
Fe0 O1 1.893941 1_544
Fe0 O1 1.893941 1_545
Fe0 O2 1.897887 1_555
Fe1 O6 1.857773 1_555
Fe1 O0 2.048460 1_654
Fe1 O0 2.048460 1_655
Fe1 O7 2.058002 1_554
Fe1 O7 2.058002 1_555
Fe2 O2 1.974931 1_555
Fe2 O2 1.974931 1_556
Fe2 O0 1.992254 1_555
Fe3 O1 2.047432 1_555
Fe3 O3 2.123308 1_555
Fe3 O3 2.123308 1_556
Fe4 O5 1.888287 1_555
Fe4 O4 1.961927 1_554
Fe4 O4 1.961927 1_555
Fe6 O4 1.933796 1_555
Fe6 O6 1.950409 1_555
Fe6 O6 1.950409 1_556
Fe7 O5 1.986276 1_556
Fe7 O5 1.986276 1_555
Fe7 O7 1.992040 1_555
F0 Fe2 2.051356 1_555
F0 Fe2 2.051356 1_554
F1 Fe5 2.009476 1_565
F1 Fe3 2.137654 1_555
F1 Fe3 2.137654 1_554
F2 Fe2 2.098489 1_555
F2 Fe5 2.112052 1_555
F2 Fe5 2.112052 1_556
F3 Fe4 2.063635 1_556
F3 Fe4 2.063635 1_555
F3 Fe3 2.290148 1_555
F4 Fe7 2.092958 1_555
F4 Fe5 2.108813 1_565
F4 Fe5 2.108813 1_566
F5 Fe6 2.108412 1_554
F5 Fe6 2.108412 1_555
F5 Fe5 2.144132 1_555
F6 Fe7 2.037078 1_555
F6 Fe7 2.037078 1_554
F7 Fe6 2.104824 1_555
F7 Fe0 2.183387 1_656
F7 Fe0 2.183387 1_655
