# generated using pymatgen
data_Na15Mg7Nb5Si9(SO8)9
_symmetry_space_group_name_H-M   'P 1'
_cell_length_a   9.02543460
_cell_length_b   9.00155763
_cell_length_c   22.56302152
_cell_angle_alpha   89.77332347
_cell_angle_beta   90.40134177
_cell_angle_gamma   119.91389865
_symmetry_Int_Tables_number   1
_chemical_formula_structural   Na15Mg7Nb5Si9(SO8)9
_chemical_formula_sum   'Na15 Mg7 Nb5 Si9 S9 O72'
_cell_volume   1588.83613880
_cell_formula_units_Z   1
loop_
 _symmetry_equiv_pos_site_id
 _symmetry_equiv_pos_as_xyz
  1  'x, y, z'
loop_
 _atom_site_type_symbol
 _atom_site_label
 _atom_site_symmetry_multiplicity
 _atom_site_fract_x
 _atom_site_fract_y
 _atom_site_fract_z
 _atom_site_occupancy
  Na  Na0  1  0.63143419  0.00358011  0.23635147  1
  Na  Na1  1  0.99480285  0.64718034  0.24967008  1
  Na  Na2  1  0.65201644  0.64025628  0.75560831  1
  Na  Na3  1  0.34256119  0.99612987  0.74341779  1
  Na  Na4  1  0.97676421  0.68937141  0.91244335  1
  Na  Na5  1  0.70103859  0.01055492  0.91950782  1
  Na  Na6  1  0.31629015  0.30123141  0.91877890  1
  Na  Na7  1  0.30594692  0.01893124  0.41095738  1
  Na  Na8  1  0.70397545  0.67821857  0.40630489  1
  Na  Na9  1  0.01680313  0.01589218  0.49762088  1
  Na  Na10  1  0.99824859  0.00106497  0.99165725  1
  Na  Na11  1  0.69682064  0.35429694  0.82667235  1
  Na  Na12  1  0.64349391  0.33353684  0.32099594  1
  Na  Na13  1  0.35110276  0.67354138  0.15443679  1
  Na  Na14  1  0.30478752  0.65508048  0.66260700  1
  Mg  Mg0  1  0.00890514  0.99735700  0.35270088  1
  Mg  Mg1  1  0.99665592  0.99260084  0.85186269  1
  Mg  Mg2  1  0.00793880  0.99454769  0.64888349  1
  Mg  Mg3  1  0.68146536  0.34028523  0.68387625  1
  Mg  Mg4  1  0.64935120  0.32534374  0.18565609  1
  Mg  Mg5  1  0.34315853  0.67563837  0.01751782  1
  Mg  Mg6  1  0.32414419  0.65989641  0.51890887  1
  Nb  Nb0  1  0.99102414  0.98538874  0.14567428  1
  Nb  Nb1  1  0.66582248  0.32219723  0.97882160  1
  Nb  Nb2  1  0.67073336  0.34156483  0.47943930  1
  Nb  Nb3  1  0.32658467  0.65498349  0.31239643  1
  Nb  Nb4  1  0.32130058  0.66473329  0.81959396  1
  Si  Si0  1  0.29733335  0.00674658  0.25461947  1
  Si  Si1  1  0.70484201  0.70171389  0.25392564  1
  Si  Si2  1  0.99897641  0.70291656  0.74957023  1
  Si  Si3  1  0.66136642  0.03423020  0.08956620  1
  Si  Si4  1  0.62522625  0.66833770  0.91786691  1
  Si  Si5  1  0.04402197  0.37207088  0.92321537  1
  Si  Si6  1  0.32586760  0.95593261  0.92002735  1
  Si  Si7  1  0.32047062  0.37049340  0.42173353  1
  Si  Si8  1  0.04679993  0.67037253  0.42002725  1
  S  S0  1  0.00441934  0.28677062  0.25047502  1
  S  S1  1  0.29116805  0.29628356  0.74810869  1
  S  S2  1  0.70562096  0.00004981  0.74835614  1
  S  S3  1  0.95966121  0.32926118  0.58535945  1
  S  S4  1  0.37742574  0.04156287  0.58484987  1
  S  S5  1  0.66584920  0.62978192  0.58471159  1
  S  S6  1  0.95774361  0.62088769  0.08591442  1
  S  S7  1  0.37190000  0.33125622  0.08419434  1
  S  S8  1  0.62124506  0.95814051  0.41835976  1
  O  O0  1  0.21333036  0.01982512  0.31469886  1
  O  O1  1  0.81169716  0.79483069  0.31223967  1
  O  O2  1  0.98096701  0.18415161  0.30318461  1
  O  O3  1  0.21315152  0.20082511  0.80315214  1
  O  O4  1  0.97648887  0.78524473  0.81037689  1
  O  O5  1  0.79967101  0.02267751  0.80435823  1
  O  O6  1  0.79451539  0.98184322  0.69680732  1
  O  O7  1  0.18550643  0.21637834  0.69521241  1
  O  O8  1  0.05172495  0.83553242  0.69437341  1
  O  O9  1  0.80574612  0.83636318  0.19471058  1
  O  O10  1  0.02684081  0.20752874  0.19584178  1
  O  O11  1  0.16414515  0.97563999  0.19657230  1
  O  O12  1  0.87320589  0.34446171  0.63770252  1
  O  O13  1  0.47716821  0.13055176  0.63839034  1
  O  O14  1  0.64731748  0.52293128  0.63659092  1
  O  O15  1  0.86985135  0.52704684  0.13945995  1
  O  O16  1  0.66095191  0.13485114  0.14742580  1
  O  O17  1  0.47669320  0.34933822  0.13608285  1
  O  O18  1  0.45511332  0.31033465  0.02827805  1
  O  O19  1  0.85083750  0.54172663  0.03114072  1
  O  O20  1  0.68606886  0.16292422  0.02920776  1
  O  O21  1  0.47613049  0.15077729  0.53019226  1
  O  O22  1  0.68125759  0.53202285  0.52888692  1
  O  O23  1  0.84843520  0.31637059  0.53059038  1
  O  O24  1  0.53631912  0.70885864  0.97018241  1
  O  O25  1  0.16686914  0.45352097  0.97785666  1
  O  O26  1  0.28031123  0.82690111  0.97303176  1
  O  O27  1  0.54474398  0.85254528  0.47046932  1
  O  O28  1  0.32507949  0.47454425  0.47787482  1
  O  O29  1  0.17896571  0.71565752  0.47244009  1
  O  O30  1  0.13374189  0.63534080  0.35813628  1
  O  O31  1  0.51032960  0.87980475  0.36324624  1
  O  O32  1  0.36666823  0.50039362  0.36101620  1
  O  O33  1  0.13315708  0.50643363  0.86356523  1
  O  O34  1  0.37091835  0.87217086  0.85873014  1
  O  O35  1  0.50359033  0.62721422  0.85451220  1
  O  O36  1  -0.00266696  0.81872851  0.41314327  1
  O  O37  1  0.79420837  0.98821962  0.40959515  1
  O  O38  1  0.16482196  0.17990593  0.41378839  1
  O  O39  1  0.00220404  0.18208858  0.90672710  1
  O  O40  1  0.18120742  0.00561941  0.90764229  1
  O  O41  1  0.81653685  0.82641731  0.90896302  1
  O  O42  1  0.97063741  0.17073887  0.58548147  1
  O  O43  1  0.20962308  0.03308157  0.58279689  1
  O  O44  1  0.82534366  0.79662411  0.58460586  1
  O  O45  1  0.97252441  0.80040450  0.08770243  1
  O  O46  1  0.84946951  0.02833593  0.09134372  1
  O  O47  1  0.20030636  0.16652735  0.08762692  1
  O  O48  1  0.66525250  0.14176401  0.74227955  1
  O  O49  1  0.46448878  0.30966807  0.74300791  1
  O  O50  1  0.82780629  0.51415308  0.74258405  1
  O  O51  1  0.69681227  0.52203253  0.24278344  1
  O  O52  1  0.86185619  0.32226551  0.24482460  1
  O  O53  1  0.49161104  0.15719271  0.24709529  1
  O  O54  1  0.63311964  0.48629072  0.92595308  1
  O  O55  1  0.85646750  0.37097829  0.92703461  1
  O  O56  1  0.51275014  0.14348238  0.92477215  1
  O  O57  1  0.62606172  0.12995924  0.42315803  1
  O  O58  1  0.50736018  0.35401728  0.42628909  1
  O  O59  1  0.85219523  0.48709678  0.42757597  1
  O  O60  1  0.34611781  0.47808952  0.07913462  1
  O  O61  1  0.12773571  0.64248347  0.08164863  1
  O  O62  1  0.50198450  0.84650758  0.08150706  1
  O  O63  1  0.36434223  0.87195596  0.58052211  1
  O  O64  1  0.51424515  0.64832271  0.57805171  1
  O  O65  1  0.12894280  0.48514786  0.57998696  1
  O  O66  1  0.30176191  0.81750317  0.25655156  1
  O  O67  1  0.51670770  0.69634342  0.25656890  1
  O  O68  1  0.16731118  0.46277861  0.25376452  1
  O  O69  1  0.32357586  0.47867011  0.75149315  1
  O  O70  1  0.18129305  0.68359488  0.75642095  1
  O  O71  1  0.53203090  0.83326939  0.75112945  1
loop_
_geom_bond_atom_site_label_1
_geom_bond_atom_site_label_2
_geom_bond_distance
_geom_bond_site_symmetry_2
Na0 O16 2.273273 1_555
Na0 O53 2.304496 1_555
Na0 O67 2.463590 1_545
Na0 O52 2.576670 1_555
Na0 O66 2.628431 1_545
Na0 O9 2.831482 1_545
Na1 O51 2.345255 1_555
Na1 O66 2.410273 1_655
Na1 O52 2.550735 1_555
Na1 O15 2.718527 1_555
Na1 O30 2.767937 1_655
Na1 O68 2.786107 1_655
Na1 O11 2.829053 1_655
Na1 O1 2.954472 1_555
Na2 O50 2.386954 1_555
Na2 O71 2.464796 1_555
Na2 O69 2.570645 1_555
Na2 O35 2.582865 1_555
Na2 O49 2.603333 1_555
Na2 O4 2.820728 1_555
Na2 O14 2.881781 1_555
Na3 O70 2.456538 1_555
Na3 O49 2.465527 1_565
Na3 O8 2.528198 1_555
Na3 O48 2.528670 1_565
Na3 O13 2.665927 1_565
Na3 O71 2.756428 1_555
Na3 O34 2.886597 1_555
Na3 O3 2.960402 1_565
Na4 O41 2.322981 1_555
Na4 O4 2.456542 1_555
Na4 O40 2.506310 1_665
Na4 O55 2.528884 1_555
Na4 O54 2.721776 1_555
Na4 O26 2.735913 1_655
Na4 O33 2.876600 1_655
Na4 O19 2.956107 1_556
Na5 O41 2.370776 1_545
Na5 O39 2.382650 1_655
Na5 O56 2.523058 1_555
Na5 O24 2.620127 1_545
Na5 O5 2.736398 1_555
Na5 O55 2.825650 1_555
Na5 O20 2.870929 1_556
Na5 O34 2.926435 1_545
Na6 O40 2.322830 1_555
Na6 O39 2.493842 1_555
Na6 O54 2.494521 1_555
Na6 O25 2.712610 1_555
Na6 O18 2.745255 1_556
Na6 O3 2.763185 1_555
Na6 O56 2.772194 1_555
Na6 O35 2.936651 1_555
Na7 O0 2.323147 1_555
Na7 O38 2.359831 1_555
Na7 O36 2.450124 1_545
Na7 O57 2.555974 1_555
Na7 O58 2.655717 1_555
Na7 O29 2.749947 1_545
Na7 O31 2.910771 1_545
Na7 O21 3.025669 1_555
Na8 O36 2.299889 1_655
Na8 O1 2.354792 1_555
Na8 O37 2.487921 1_555
Na8 O58 2.589303 1_555
Na8 O59 2.694364 1_555
Na8 O32 2.825494 1_555
Na9 O38 2.363966 1_555
Na9 O43 2.536312 1_555
Na9 O36 2.554376 1_545
Na9 O42 2.580517 1_455
Na9 O44 2.710860 1_445
Na9 O37 2.737109 1_445
Na10 O41 2.459936 1_545
Na10 O39 2.499378 1_655
Na10 O40 2.509492 1_655
Na10 O46 2.701452 1_556
Na10 O47 2.737515 1_656
Na10 O45 2.751448 1_546
Na11 O50 2.319699 1_555
Na11 O48 2.616220 1_555
Na11 O55 2.639645 1_555
Na11 O49 2.689277 1_555
Na11 O54 2.735068 1_555
Na11 O56 2.852056 1_555
Na12 O53 2.235569 1_555
Na12 O51 2.323482 1_555
Na12 O52 2.663916 1_555
Na12 O58 2.730932 1_555
Na12 O57 2.894888 1_555
Na12 O59 2.933865 1_555
Na13 O62 2.209682 1_555
Na13 O60 2.434706 1_555
Na13 O61 2.496934 1_555
Na13 O67 2.689969 1_555
Na13 O66 2.792794 1_555
Na13 O68 2.872840 1_555
Na14 O65 2.427653 1_555
Na14 O70 2.472128 1_555
Na14 O63 2.543426 1_555
Na14 O69 2.609828 1_555
Na14 O64 2.717244 1_555
Na14 O71 2.730455 1_555
Mg0 O0 1.956742 1_565
Mg0 O1 2.019649 1_455
Mg0 O38 2.065092 1_565
Mg0 O36 2.067210 1_555
Mg0 O2 2.131458 1_465
Mg0 O37 2.298808 1_455
Mg1 O4 2.016388 1_555
Mg1 O41 2.031982 1_555
Mg1 O40 2.036965 1_665
Mg1 O39 2.091634 1_665
Mg1 O5 2.198653 1_565
Mg1 O3 2.213593 1_665
Mg2 O8 1.950744 1_555
Mg2 O7 2.109413 1_565
Mg2 O6 2.168222 1_455
Mg2 O44 2.247651 1_455
Mg2 O43 2.249748 1_565
Mg2 O42 2.276625 1_465
Mg3 O50 1.969450 1_555
Mg3 O12 2.010381 1_555
Mg3 O14 2.103147 1_555
Mg3 O13 2.129369 1_555
Mg3 O48 2.162064 1_555
Mg3 O49 2.277361 1_555
Mg4 O16 1.971639 1_555
Mg4 O17 2.008844 1_555
Mg4 O53 2.025179 1_555
Mg4 O51 2.057547 1_555
Mg4 O15 2.180298 1_555
Mg4 O52 2.340603 1_555
Mg5 O24 1.942421 1_554
Mg5 O26 1.983614 1_554
Mg5 O25 2.037460 1_554
Mg5 O62 2.072343 1_555
Mg5 O60 2.263403 1_555
Mg5 O61 2.328158 1_555
Mg6 O28 1.915047 1_555
Mg6 O29 1.923718 1_555
Mg6 O65 2.174898 1_555
Mg6 O27 2.176620 1_555
Mg6 O64 2.209179 1_555
Mg6 O63 2.243031 1_555
Nb0 O9 1.896514 1_555
Nb0 O46 1.936843 1_565
Nb0 O11 1.969456 1_655
Nb0 O45 2.061160 1_555
Nb0 O10 2.179968 1_665
Nb0 O47 2.210823 1_665
Nb1 O20 1.904431 1_556
Nb1 O56 1.938826 1_555
Nb1 O55 1.946616 1_555
Nb1 O54 2.026782 1_555
Nb1 O18 2.167827 1_556
Nb1 O19 2.187817 1_556
Nb2 O59 1.908557 1_555
Nb2 O58 1.940083 1_555
Nb2 O22 2.011030 1_555
Nb2 O23 2.071353 1_555
Nb2 O21 2.085596 1_555
Nb2 O57 2.156228 1_555
Nb3 O32 1.937832 1_555
Nb3 O30 1.960212 1_555
Nb3 O67 2.014731 1_555
Nb3 O66 2.021481 1_555
Nb3 O68 2.078648 1_555
Nb3 O31 2.192357 1_555
Nb4 O33 1.870105 1_555
Nb4 O34 1.907992 1_555
Nb4 O70 1.960641 1_555
Nb4 O35 1.993879 1_555
Nb4 O69 2.285104 1_555
Nb4 O71 2.334510 1_555
O0 Si0 1.590891 1_555
O1 Si1 1.596411 1_555
O2 S0 1.453378 1_655
O3 S1 1.475441 1_555
O4 Si2 1.623174 1_555
O5 S2 1.474181 1_555
O6 S2 1.472781 1_565
O7 S1 1.468990 1_555
O8 Si2 1.622477 1_455
O9 Si1 1.728243 1_555
O10 S0 1.491207 1_555
O11 Si0 1.698205 1_565
O12 S3 1.463921 1_555
O13 S4 1.478037 1_555
O14 S5 1.468556 1_555
O15 S6 1.462686 1_555
O16 Si3 1.592950 1_555
O17 S7 1.457454 1_555
O18 S7 1.532151 1_555
O19 S6 1.506852 1_555
O20 Si3 1.726430 1_555
O21 S4 1.553470 1_555
O22 S5 1.585408 1_555
O23 S3 1.554308 1_555
O24 Si4 1.574441 1_555
O25 Si5 1.569732 1_555
O26 Si6 1.570972 1_555
O27 S8 1.452774 1_555
O28 Si7 1.566317 1_555
O29 Si8 1.576914 1_555
O30 Si8 1.711980 1_555
O31 S8 1.526812 1_555
O32 Si7 1.710843 1_555
O33 Si5 1.718503 1_555
O34 Si6 1.722949 1_555
O35 Si4 1.721192 1_555
O36 Si8 1.612108 1_555
O37 S8 1.460028 1_555
O38 Si7 1.594978 1_555
O39 Si5 1.601474 1_555
O40 Si6 1.599720 1_545
O41 Si4 1.612006 1_555
O42 S3 1.478837 1_555
O43 S4 1.478304 1_555
O44 S5 1.473584 1_555
O45 S6 1.554377 1_555
O46 Si3 1.724970 1_555
O47 S7 1.521033 1_555
O48 S2 1.496764 1_555
O49 S1 1.513015 1_555
O50 Si2 1.636828 1_555
O51 Si1 1.603286 1_555
O52 S0 1.476937 1_655
O53 Si0 1.603529 1_555
O54 Si4 1.684522 1_555
O55 Si5 1.690678 1_655
O56 Si6 1.692728 1_545
O57 S8 1.529671 1_545
O58 Si7 1.767677 1_555
O59 Si8 1.716837 1_655
O60 S7 1.455795 1_555
O61 S6 1.451010 1_455
O62 Si3 1.591249 1_565
O63 S4 1.474984 1_565
O64 S5 1.465383 1_555
O65 S3 1.476806 1_455
O66 Si0 1.724140 1_565
O67 Si1 1.675888 1_555
O68 S0 1.534037 1_555
O69 S1 1.519373 1_555
O70 Si2 1.744546 1_455
O71 S2 1.538523 1_565
