# generated using pymatgen
data_Na2CaTiP2SO12
_symmetry_space_group_name_H-M   'P 1'
_cell_length_a   9.02804610
_cell_length_b   9.06944209
_cell_length_c   22.70030720
_cell_angle_alpha   90.94988071
_cell_angle_beta   90.00000000
_cell_angle_gamma   119.84912745
_symmetry_Int_Tables_number   1
_chemical_formula_structural   Na2CaTiP2SO12
_chemical_formula_sum   'Na12 Ca6 Ti6 P12 S6 O72'
_cell_volume   1611.81655571
_cell_formula_units_Z   6
loop_
 _symmetry_equiv_pos_site_id
 _symmetry_equiv_pos_as_xyz
  1  'x, y, z'
loop_
 _atom_site_type_symbol
 _atom_site_label
 _atom_site_symmetry_multiplicity
 _atom_site_fract_x
 _atom_site_fract_y
 _atom_site_fract_z
 _atom_site_occupancy
  Na  Na0  1  0.99064569  0.63300587  0.24533688  1
  Na  Na1  1  0.64236018  0.63300587  0.74533688  1
  Na  Na2  1  0.65731269  0.96633887  0.57866988  1
  Na  Na3  1  0.30902718  0.96633887  0.07866988  1
  Na  Na4  1  0.32397869  0.29967287  0.91200388  1
  Na  Na5  1  0.97569318  0.29967287  0.41200388  1
  Na  Na6  1  0.00759019  0.97765220  0.49845523  1
  Na  Na7  1  0.97006200  0.97765220  0.99845523  1
  Na  Na8  1  0.67425719  0.31098520  0.83178823  1
  Na  Na9  1  0.63672900  0.31098520  0.33178823  1
  Na  Na10  1  0.34092319  0.64431920  0.16512223  1
  Na  Na11  1  0.30339500  0.64431920  0.66512223  1
  Ca  Ca0  1  0.99656070  0.99622167  0.35240970  1
  Ca  Ca1  1  0.99966097  0.99622167  0.85240970  1
  Ca  Ca2  1  0.66322770  0.32955467  0.68574270  1
  Ca  Ca3  1  0.66632797  0.32955467  0.18574270  1
  Ca  Ca4  1  0.32989370  0.66288867  0.01907670  1
  Ca  Ca5  1  0.33299397  0.66288867  0.51907670  1
  Ti  Ti0  1  0.99584849  0.01320147  0.64979108  1
  Ti  Ti1  1  0.01735298  0.01320147  0.14979108  1
  Ti  Ti2  1  0.66251549  0.34653447  0.98312408  1
  Ti  Ti3  1  0.68401998  0.34653447  0.48312408  1
  Ti  Ti4  1  0.32918149  0.67986847  0.31645808  1
  Ti  Ti5  1  0.35068598  0.67986847  0.81645808  1
  P  P0  1  0.29246033  0.99125414  0.25115020  1
  P  P1  1  0.01819626  0.30515763  0.25333167  1
  P  P2  1  0.28696137  0.30515763  0.75333167  1
  P  P3  1  0.69879381  0.99125414  0.75115020  1
  P  P4  1  0.95912733  0.32458714  0.58448320  1
  P  P5  1  0.68486326  0.63849063  0.58666467  1
  P  P6  1  0.95362837  0.63849063  0.08666467  1
  P  P7  1  0.36546081  0.32458714  0.08448320  1
  P  P8  1  0.62579333  0.65792114  0.91781720  1
  P  P9  1  0.35152926  0.97182463  0.91999867  1
  P  P10  1  0.62029437  0.97182463  0.41999867  1
  P  P11  1  0.03212681  0.65792114  0.41781720  1
  S  S0  1  0.69863496  0.71459172  0.24846030  1
  S  S1  1  0.01595676  0.71459172  0.74846030  1
  S  S2  1  0.36530196  0.04792472  0.58179330  1
  S  S3  1  0.68262376  0.04792472  0.08179330  1
  S  S4  1  0.03196796  0.38125872  0.91512730  1
  S  S5  1  0.34928976  0.38125872  0.41512730  1
  O  O0  1  0.20539646  0.00796129  0.30423410  1
  O  O1  1  0.79704768  0.78648075  0.30249653  1
  O  O2  1  0.99011421  0.20954000  0.30956704  1
  O  O3  1  0.21942579  0.20954000  0.80956704  1
  O  O4  1  0.98943308  0.78648075  0.80249653  1
  O  O5  1  0.80256482  0.00796129  0.80423410  1
  O  O6  1  0.79227444  0.96628073  0.69342333  1
  O  O7  1  0.16029759  0.19255210  0.69887656  1
  O  O8  1  0.03138252  0.82203917  0.69639237  1
  O  O9  1  0.79065665  0.82203917  0.19639237  1
  O  O10  1  0.03225451  0.19255210  0.19887656  1
  O  O11  1  0.17400629  0.96628073  0.19342333  1
  O  O12  1  0.87206346  0.34129429  0.63756710  1
  O  O13  1  0.46371468  0.11981375  0.63582953  1
  O  O14  1  0.65678121  0.54287300  0.64290004  1
  O  O15  1  0.88609279  0.54287300  0.14290004  1
  O  O16  1  0.65610008  0.11981375  0.13582953  1
  O  O17  1  0.46923182  0.34129429  0.13756710  1
  O  O18  1  0.45894144  0.29961373  0.02675633  1
  O  O19  1  0.82696459  0.52588510  0.03220956  1
  O  O20  1  0.69804952  0.15537217  0.02972537  1
  O  O21  1  0.45732365  0.15537217  0.52972537  1
  O  O22  1  0.69892151  0.52588510  0.53220956  1
  O  O23  1  0.84067329  0.29961373  0.52675633  1
  O  O24  1  0.53872946  0.67462829  0.97090110  1
  O  O25  1  0.13038068  0.45314775  0.96916353  1
  O  O26  1  0.32344721  0.87620700  0.97623404  1
  O  O27  1  0.55275879  0.87620700  0.47623404  1
  O  O28  1  0.32276608  0.45314775  0.46916353  1
  O  O29  1  0.13589782  0.67462829  0.47090110  1
  O  O30  1  0.12560744  0.63294773  0.36009033  1
  O  O31  1  0.49363059  0.85921910  0.36554356  1
  O  O32  1  0.36471552  0.48870617  0.36305937  1
  O  O33  1  0.12398965  0.48870617  0.86305937  1
  O  O34  1  0.36558751  0.85921910  0.86554356  1
  O  O35  1  0.50733929  0.63294773  0.86009033  1
  O  O36  1  0.99533570  0.80195633  0.41165620  1
  O  O37  1  0.80289707  0.00919637  0.41022487  1
  O  O38  1  0.19707449  0.20907473  0.40891244  1
  O  O39  1  0.01200024  0.20907473  0.90891244  1
  O  O40  1  0.20629930  0.00919637  0.91022487  1
  O  O41  1  0.80662063  0.80195633  0.91165620  1
  O  O42  1  0.95834143  0.14682877  0.58920014  1
  O  O43  1  0.19310231  0.03467482  0.58612381  1
  O  O44  1  0.85542498  0.81703023  0.58995753  1
  O  O45  1  0.96160526  0.81703023  0.08995753  1
  O  O46  1  0.84157251  0.03467482  0.08612381  1
  O  O47  1  0.18848733  0.14682877  0.08920014  1
  O  O48  1  0.66200270  0.13528933  0.74498920  1
  O  O49  1  0.46956407  0.34252937  0.74355787  1
  O  O50  1  0.86374149  0.54240773  0.74224544  1
  O  O51  1  0.67866724  0.54240773  0.24224544  1
  O  O52  1  0.87296630  0.34252937  0.24355787  1
  O  O53  1  0.47328763  0.13528933  0.24498920  1
  O  O54  1  0.62500843  0.48016177  0.92253314  1
  O  O55  1  0.85976931  0.36800782  0.91945681  1
  O  O56  1  0.52209198  0.15036323  0.92329053  1
  O  O57  1  0.62827226  0.15036323  0.42329053  1
  O  O58  1  0.50823951  0.36800782  0.41945681  1
  O  O59  1  0.85515433  0.48016177  0.42253314  1
  O  O60  1  0.32866870  0.46862333  0.07832320  1
  O  O61  1  0.13623007  0.67586337  0.07689187  1
  O  O62  1  0.53040749  0.87574173  0.07557944  1
  O  O63  1  0.34533324  0.87574173  0.57557944  1
  O  O64  1  0.53963230  0.67586337  0.57689187  1
  O  O65  1  0.13995363  0.46862333  0.57832320  1
  O  O66  1  0.29167443  0.81349577  0.25586714  1
  O  O67  1  0.52643531  0.70134182  0.25279081  1
  O  O68  1  0.18875798  0.48369723  0.25662453  1
  O  O69  1  0.29493826  0.48369723  0.75662453  1
  O  O70  1  0.17490551  0.70134182  0.75279081  1
  O  O71  1  0.52182033  0.81349577  0.75586714  1
loop_
_geom_bond_atom_site_label_1
_geom_bond_atom_site_label_2
_geom_bond_distance
_geom_bond_site_symmetry_2
Na0 O52 2.298063 1_555
Na0 O66 2.383534 1_655
Na0 O15 2.476960 1_555
Na0 O51 2.511458 1_555
Na0 O68 2.742402 1_655
Na0 O30 2.875933 1_655
Na0 O11 2.898726 1_655
Na0 O1 3.006290 1_555
Na1 O49 2.298062 1_555
Na1 O71 2.383541 1_555
Na1 O14 2.476962 1_555
Na1 O50 2.511466 1_555
Na1 O69 2.742410 1_555
Na1 O35 2.875936 1_555
Na1 O6 2.898726 1_555
Na1 O4 3.006290 1_555
Na2 O64 2.298054 1_555
Na2 O42 2.383534 1_565
Na2 O27 2.476940 1_555
Na2 O63 2.511468 1_555
Na2 O44 2.742402 1_555
Na2 O6 2.875933 1_555
Na2 O23 2.898726 1_565
Na2 O13 3.006290 1_565
Na3 O61 2.298056 1_555
Na3 O47 2.383541 1_565
Na3 O26 2.476936 1_554
Na3 O62 2.511451 1_555
Na3 O45 2.742410 1_455
Na3 O11 2.875936 1_555
Na3 O18 2.898726 1_565
Na3 O16 3.006290 1_565
Na4 O40 2.298063 1_555
Na4 O54 2.383538 1_555
Na4 O3 2.476960 1_555
Na4 O39 2.511458 1_555
Na4 O56 2.742415 1_555
Na4 O18 2.875918 1_556
Na4 O35 2.898726 1_555
Na4 O25 3.006290 1_555
Na5 O37 2.298062 1_555
Na5 O59 2.383523 1_555
Na5 O2 2.476962 1_555
Na5 O38 2.511466 1_655
Na5 O57 2.742399 1_555
Na5 O23 2.875910 1_555
Na5 O30 2.898726 1_655
Na5 O28 3.006290 1_655
Na6 O43 2.477225 1_565
Na6 O36 2.480749 1_455
Na6 O44 2.536146 1_455
Na6 O42 2.714684 1_465
Na6 O38 2.833846 1_565
Na6 O37 2.837882 1_465
Na7 O46 2.477225 1_566
Na7 O41 2.480749 1_555
Na7 O45 2.536146 1_556
Na7 O47 2.714684 1_666
Na7 O39 2.833846 1_665
Na7 O40 2.837882 1_665
Na8 O55 2.477225 1_555
Na8 O48 2.480749 1_555
Na8 O56 2.536146 1_555
Na8 O54 2.714684 1_555
Na8 O50 2.833846 1_555
Na8 O49 2.837882 1_555
Na9 O58 2.477225 1_555
Na9 O53 2.480749 1_555
Na9 O57 2.536146 1_555
Na9 O59 2.714684 1_555
Na9 O51 2.833846 1_555
Na9 O52 2.837882 1_555
Na10 O67 2.477225 1_555
Na10 O60 2.480749 1_555
Na10 O68 2.536146 1_555
Na10 O66 2.714684 1_555
Na10 O62 2.833846 1_555
Na10 O61 2.837882 1_555
Na11 O70 2.477225 1_555
Na11 O65 2.480749 1_555
Na11 O69 2.536146 1_555
Na11 O71 2.714684 1_555
Na11 O63 2.833846 1_555
Na11 O64 2.837882 1_555
Ca0 O0 2.136818 1_665
Ca0 O1 2.159745 1_555
Ca0 O2 2.206053 1_565
Ca0 O36 2.229865 1_555
Ca0 O37 2.234479 1_565
Ca0 O38 2.255671 1_665
Ca1 O5 2.136818 1_565
Ca1 O4 2.159745 1_555
Ca1 O3 2.206053 1_665
Ca1 O41 2.229865 1_555
Ca1 O40 2.234479 1_665
Ca1 O39 2.255671 1_665
Ca2 O12 2.136818 1_555
Ca2 O13 2.159745 1_555
Ca2 O14 2.206053 1_555
Ca2 O48 2.229865 1_555
Ca2 O49 2.234479 1_555
Ca2 O50 2.255671 1_555
Ca3 O17 2.136818 1_555
Ca3 O16 2.159745 1_555
Ca3 O15 2.206053 1_555
Ca3 O53 2.229865 1_555
Ca3 O52 2.234479 1_555
Ca3 O51 2.255671 1_555
Ca4 O24 2.136818 1_554
Ca4 O25 2.159745 1_554
Ca4 O26 2.206053 1_554
Ca4 O60 2.229865 1_555
Ca4 O61 2.234479 1_555
Ca4 O62 2.255671 1_555
Ca5 O29 2.136818 1_555
Ca5 O28 2.159745 1_555
Ca5 O27 2.206053 1_555
Ca5 O65 2.229865 1_555
Ca5 O64 2.234479 1_555
Ca5 O63 2.255671 1_555
O0 P0 1.485046 1_545
O1 S0 1.454639 1_555
O2 P1 1.504581 1_655
O3 P2 1.504581 1_555
O4 S1 1.454639 1_655
O5 P3 1.485046 1_545
O6 P3 1.631312 1_555
O6 Ti0 1.943024 1_565
O7 P2 1.635338 1_555
O7 Ti0 1.904626 1_455
O8 S1 1.506368 1_555
O8 Ti0 2.200520 1_465
O9 S0 1.506368 1_555
O9 Ti1 2.200520 1_665
O10 P1 1.635338 1_555
O10 Ti1 1.904626 1_555
O11 P0 1.631312 1_555
O11 Ti1 1.943024 1_565
O12 P4 1.485046 1_555
O13 S2 1.454639 1_555
O14 P5 1.504581 1_555
O15 P6 1.504581 1_555
O16 S3 1.454639 1_555
O17 P7 1.485046 1_555
O18 P7 1.631312 1_555
O18 Ti2 1.943024 1_554
O19 P6 1.635338 1_555
O19 Ti2 1.904626 1_554
O20 S3 1.506368 1_555
O20 Ti2 2.200520 1_554
O21 S2 1.506368 1_555
O21 Ti3 2.200520 1_555
O22 P5 1.635338 1_555
O22 Ti3 1.904626 1_555
O23 P4 1.631312 1_555
O23 Ti3 1.943024 1_555
O24 P8 1.485046 1_555
O25 S4 1.454639 1_555
O26 P9 1.504581 1_555
O27 P10 1.504581 1_555
O28 S5 1.454639 1_555
O29 P11 1.485046 1_555
O30 P11 1.631312 1_555
O30 Ti4 1.943024 1_555
O31 P10 1.635338 1_555
O31 Ti4 1.904626 1_555
O32 S5 1.506368 1_555
O32 Ti4 2.200520 1_555
O33 S4 1.506368 1_555
O33 Ti5 2.200520 1_555
O34 P9 1.635338 1_555
O34 Ti5 1.904626 1_555
O35 P8 1.631312 1_555
O35 Ti5 1.943024 1_555
O36 P11 1.508087 1_655
O37 P10 1.525809 1_545
O38 S5 1.484417 1_555
O39 S4 1.484420 1_555
O40 P9 1.525800 1_545
O41 P8 1.508093 1_555
O42 P4 1.613983 1_555
O42 Ti0 1.984694 1_555
O43 S2 1.501797 1_555
O43 Ti0 2.227584 1_455
O44 P5 1.585135 1_555
O44 Ti0 2.071731 1_565
O45 P6 1.585139 1_555
O45 Ti1 2.071731 1_665
O46 S3 1.501788 1_555
O46 Ti1 2.227584 1_655
O47 P7 1.613988 1_555
O47 Ti1 1.984694 1_555
O48 P3 1.508087 1_545
O49 P2 1.525809 1_555
O50 S1 1.484417 1_655
O51 S0 1.484420 1_555
O52 P1 1.525800 1_655
O53 P0 1.508093 1_545
O54 P8 1.613995 1_555
O54 Ti2 1.984694 1_555
O55 S4 1.501782 1_655
O55 Ti2 2.227584 1_555
O56 P9 1.585134 1_545
O56 Ti2 2.071731 1_555
O57 P10 1.585125 1_545
O57 Ti3 2.071731 1_555
O58 S5 1.501800 1_555
O58 Ti3 2.227584 1_555
O59 P11 1.613986 1_655
O59 Ti3 1.984694 1_555
O60 P7 1.508099 1_555
O61 P6 1.525794 1_455
O62 S3 1.484413 1_565
O63 S2 1.484406 1_565
O64 P5 1.525812 1_555
O65 P4 1.508088 1_455
O66 P0 1.613983 1_555
O66 Ti4 1.984694 1_555
O67 S0 1.501797 1_555
O67 Ti4 2.227584 1_555
O68 P1 1.585135 1_555
O68 Ti4 2.071731 1_555
O69 P2 1.585139 1_555
O69 Ti5 2.071731 1_555
O70 S1 1.501788 1_555
O70 Ti5 2.227584 1_555
O71 P3 1.613988 1_555
O71 Ti5 1.984694 1_555
