# generated using pymatgen
data_Na6Y4Zr4Si5S7O48
_symmetry_space_group_name_H-M   'P 1'
_cell_length_a   18.45016066
_cell_length_b   9.19385994
_cell_length_c   23.45652940
_cell_angle_alpha   89.97287301
_cell_angle_beta   89.78595468
_cell_angle_gamma   119.95244609
_symmetry_Int_Tables_number   1
_chemical_formula_structural   Na6Y4Zr4Si5S7O48
_chemical_formula_sum   'Na18 Y12 Zr12 Si15 S21 O144'
_cell_volume   3447.43207125
_cell_formula_units_Z   3
loop_
 _symmetry_equiv_pos_site_id
 _symmetry_equiv_pos_as_xyz
  1  'x, y, z'
loop_
 _atom_site_type_symbol
 _atom_site_label
 _atom_site_symmetry_multiplicity
 _atom_site_fract_x
 _atom_site_fract_y
 _atom_site_fract_z
 _atom_site_occupancy
  Na  Na0  1  0.99782144  0.62287978  0.26066259  1
  Na  Na1  1  0.49936932  0.63038112  0.25019773  1
  Na  Na2  1  0.99872868  0.37371137  0.74879970  1
  Na  Na3  1  0.50035073  0.36175654  0.75670049  1
  Na  Na4  1  0.66409016  0.30942846  0.92076128  1
  Na  Na5  1  0.16267510  0.00737520  0.43789385  1
  Na  Na6  1  0.00279724  0.99153479  0.50917211  1
  Na  Na7  1  0.50714064  0.98712459  0.50366734  1
  Na  Na8  1  0.00968618  0.02428116  0.99449452  1
  Na  Na9  1  0.50611386  0.02469536  0.00311344  1
  Na  Na10  1  0.32935981  0.31140107  0.84274952  1
  Na  Na11  1  0.82673531  0.33003680  0.81798907  1
  Na  Na12  1  0.34468201  0.35233449  0.32648834  1
  Na  Na13  1  0.82290548  0.34059343  0.34728537  1
  Na  Na14  1  0.19896865  0.64638130  0.16448384  1
  Na  Na15  1  0.67446254  0.64239147  0.15851457  1
  Na  Na16  1  0.17776012  0.71368841  0.66280619  1
  Na  Na17  1  0.69165700  0.70537537  0.67514509  1
  Y  Y0  1  0.99693239  0.99542073  0.35807416  1
  Y  Y1  1  0.50149657  0.00727941  0.85451060  1
  Y  Y2  1  0.32321016  0.33412392  0.67883117  1
  Y  Y3  1  0.82443569  0.31591668  0.68791461  1
  Y  Y4  1  0.32930297  0.34127144  0.18618732  1
  Y  Y5  1  0.82180863  0.31457703  0.17925466  1
  Y  Y6  1  0.83213497  0.32183778  0.98688618  1
  Y  Y7  1  0.33452599  0.34790128  0.48900548  1
  Y  Y8  1  0.16962076  0.66378860  0.31426005  1
  Y  Y9  1  0.66984812  0.64860430  0.31363861  1
  Y  Y10  1  0.17104293  0.69167110  0.81428164  1
  Y  Y11  1  0.66631100  0.66186259  0.81194476  1
  Zr  Zr0  1  0.49799272  0.01682516  0.35205547  1
  Zr  Zr1  1  0.99843273  0.97761664  0.85062233  1
  Zr  Zr2  1  0.99897603  0.98526033  0.65037156  1
  Zr  Zr3  1  0.50926536  0.00019846  0.64382231  1
  Zr  Zr4  1  0.00275074  0.01565350  0.13932937  1
  Zr  Zr5  1  0.49821914  0.01329371  0.14898618  1
  Zr  Zr6  1  0.32750943  0.32253726  0.97991696  1
  Zr  Zr7  1  0.82856464  0.33559190  0.48080789  1
  Zr  Zr8  1  0.16238429  0.66616051  0.01725928  1
  Zr  Zr9  1  0.66433951  0.65560602  0.02103989  1
  Zr  Zr10  1  0.16389428  0.67189899  0.52287967  1
  Zr  Zr11  1  0.66170882  0.65580440  0.51834326  1
  Si  Si0  1  0.35574799  0.71454636  0.25119245  1
  Si  Si1  1  0.49983358  0.30171522  0.24903545  1
  Si  Si2  1  0.64474596  0.29479793  0.75188297  1
  Si  Si3  1  0.00330827  0.70017668  0.74815028  1
  Si  Si4  1  0.85644107  0.99880030  0.75177755  1
  Si  Si5  1  0.17662598  0.03567019  0.57819930  1
  Si  Si6  1  0.68811092  0.03238938  0.58263457  1
  Si  Si7  1  0.33414811  0.64656481  0.58368759  1
  Si  Si8  1  0.82979649  0.02398827  0.08386879  1
  Si  Si9  1  0.18840216  0.34627669  0.08407598  1
  Si  Si10  1  0.67676287  0.32110145  0.07840537  1
  Si  Si11  1  0.51697443  0.37335612  0.91421798  1
  Si  Si12  1  0.16165505  0.96498821  0.91878138  1
  Si  Si13  1  0.66330476  0.35988758  0.41761471  1
  Si  Si14  1  0.01936692  0.65772917  0.41179472  1
  S  S0  1  0.14116328  0.99736988  0.24955109  1
  S  S1  1  0.64403699  0.00611804  0.25226326  1
  S  S2  1  0.85885080  0.71145505  0.24678211  1
  S  S3  1  0.99926008  0.29304589  0.24808009  1
  S  S4  1  0.14470056  0.28331291  0.75250530  1
  S  S5  1  0.49604674  0.70117180  0.74874907  1
  S  S6  1  0.35613839  0.00425720  0.74629842  1
  S  S7  1  0.48508670  0.33497326  0.58603198  1
  S  S8  1  0.97856256  0.32705464  0.58172264  1
  S  S9  1  0.83259870  0.63189376  0.58116490  1
  S  S10  1  0.47940166  0.63137358  0.08250524  1
  S  S11  1  0.98563332  0.63328407  0.08749787  1
  S  S12  1  0.33084765  0.03295664  0.08228332  1
  S  S13  1  0.31154603  0.66259870  0.91888922  1
  S  S14  1  0.81486060  0.66958207  0.91932663  1
  S  S15  1  0.02003918  0.37191417  0.91498679  1
  S  S16  1  0.66760933  0.96290309  0.91827316  1
  S  S17  1  0.31445323  0.96205646  0.41865589  1
  S  S18  1  0.81049036  0.96023532  0.41790709  1
  S  S19  1  0.16995502  0.37045169  0.41769464  1
  S  S20  1  0.51892578  0.66576469  0.41413385  1
  O  O0  1  0.10339541  0.01258484  0.30384225  1
  O  O1  1  0.60078701  0.01785619  0.30431758  1
  O  O2  1  0.41296124  0.81626270  0.30741811  1
  O  O3  1  0.90457383  0.79443009  0.30001895  1
  O  O4  1  0.49930978  0.19600841  0.30662773  1
  O  O5  1  0.99430694  0.19836881  0.30008886  1
  O  O6  1  0.10186923  0.18401476  0.80449009  1
  O  O7  1  0.60393041  0.20451590  0.81349657  1
  O  O8  1  0.48643503  0.78206783  0.80014231  1
  O  O9  1  0.00241806  0.80367327  0.80610961  1
  O  O10  1  0.40041845  0.00954118  0.79970316  1
  O  O11  1  0.91476469  0.00845626  0.80745159  1
  O  O12  1  0.40058446  0.99611966  0.69545638  1
  O  O13  1  0.90866319  0.99113762  0.69480014  1
  O  O14  1  0.09617202  0.19683443  0.70037536  1
  O  O15  1  0.58209705  0.17326536  0.70024221  1
  O  O16  1  0.01164718  0.81770375  0.69232962  1
  O  O17  1  0.49552867  0.79170736  0.69618020  1
  O  O18  1  0.40768823  0.82130767  0.19395486  1
  O  O19  1  0.90573607  0.81074967  0.19666087  1
  O  O20  1  0.00156893  0.20025308  0.19664926  1
  O  O21  1  0.50707137  0.20169873  0.19281226  1
  O  O22  1  0.08846341  0.98921207  0.20040781  1
  O  O23  1  0.59547147  0.99550515  0.20027353  1
  O  O24  1  0.44798397  0.35697683  0.63878451  1
  O  O25  1  0.94939634  0.36141418  0.63571786  1
  O  O26  1  0.23893458  0.12589722  0.63105006  1
  O  O27  1  0.74024463  0.09758606  0.64017377  1
  O  O28  1  0.31684497  0.52874881  0.63933735  1
  O  O29  1  0.81999039  0.53285299  0.63233555  1
  O  O30  1  0.44874174  0.53750557  0.13725210  1
  O  O31  1  0.94920047  0.53747847  0.14071251  1
  O  O32  1  0.31844700  0.10727306  0.13419413  1
  O  O33  1  0.81809188  0.10785700  0.14129201  1
  O  O34  1  0.23764130  0.37820355  0.14339447  1
  O  O35  1  0.73736310  0.35443303  0.13291735  1
  O  O36  1  0.23839263  0.31724745  0.03176616  1
  O  O37  1  0.71938763  0.30798600  0.01900982  1
  O  O38  1  0.42403335  0.53579419  0.03485256  1
  O  O39  1  0.93236324  0.55607683  0.03755122  1
  O  O40  1  0.34266578  0.13680565  0.03108670  1
  O  O41  1  0.85353117  0.14871483  0.02961273  1
  O  O42  1  0.21944990  0.13289332  0.51843503  1
  O  O43  1  0.73929496  0.16325290  0.52976989  1
  O  O44  1  0.35489010  0.56525027  0.52842251  1
  O  O45  1  0.84551680  0.55329676  0.52927029  1
  O  O46  1  0.43326948  0.31239842  0.53530165  1
  O  O47  1  0.92429667  0.31390296  0.53309501  1
  O  O48  1  0.26217590  0.67213378  0.96823328  1
  O  O49  1  0.77575673  0.69011648  0.97191596  1
  O  O50  1  0.07308462  0.46441438  0.96614188  1
  O  O51  1  0.58830406  0.49235715  0.96231478  1
  O  O52  1  0.15429825  0.84320061  0.97348843  1
  O  O53  1  0.66923088  0.87364321  0.97016850  1
  O  O54  1  0.27457105  0.86326169  0.47066159  1
  O  O55  1  0.76348765  0.85207198  0.46691096  1
  O  O56  1  0.16767249  0.46003644  0.46866676  1
  O  O57  1  0.65484173  0.46651723  0.47125628  1
  O  O58  1  0.09220282  0.68782534  0.45877280  1
  O  O59  1  0.57070389  0.67602282  0.46467845  1
  O  O60  1  0.05138980  0.63738461  0.34848594  1
  O  O61  1  0.56073979  0.65783654  0.36070500  1
  O  O62  1  0.26220607  0.87847269  0.36777275  1
  O  O63  1  0.76618125  0.88963642  0.36385584  1
  O  O64  1  0.17448552  0.46168724  0.36458808  1
  O  O65  1  0.68021676  0.46798365  0.35932373  1
  O  O66  1  0.06244215  0.46430635  0.86227229  1
  O  O67  1  0.54865672  0.46074958  0.85200425  1
  O  O68  1  0.17803301  0.88842275  0.86136252  1
  O  O69  1  0.67186013  0.87983539  0.86601094  1
  O  O70  1  0.26610865  0.64232600  0.86531759  1
  O  O71  1  0.76234442  0.64628264  0.86921109  1
  O  O72  1  0.01579435  0.83543830  0.41432997  1
  O  O73  1  0.51023895  0.81748184  0.41391943  1
  O  O74  1  0.39854359  0.97763569  0.41323984  1
  O  O75  1  0.89461198  0.97453208  0.41706729  1
  O  O76  1  0.09242546  0.19997239  0.41664378  1
  O  O77  1  0.57997855  0.17193480  0.41445636  1
  O  O78  1  0.01089886  0.20273049  0.91479528  1
  O  O79  1  0.51207291  0.18912703  0.91917504  1
  O  O80  1  0.07818069  0.98462937  0.91625274  1
  O  O81  1  0.58948258  0.97502508  0.91932035  1
  O  O82  1  0.39447264  0.81494752  0.91917604  1
  O  O83  1  0.89934433  0.82195645  0.91413637  1
  O  O84  1  0.49838030  0.18956445  0.59002309  1
  O  O85  1  0.98431944  0.17204797  0.58468552  1
  O  O86  1  0.08456059  0.02168696  0.58577576  1
  O  O87  1  0.59411209  0.01485450  0.58689621  1
  O  O88  1  0.41396911  0.83688860  0.59257687  1
  O  O89  1  0.90760206  0.80317801  0.58580753  1
  O  O90  1  0.48534404  0.79790306  0.08649375  1
  O  O91  1  0.00018932  0.80752264  0.09381816  1
  O  O92  1  0.40613272  0.01294780  0.08707764  1
  O  O93  1  0.91192740  0.99405230  0.09259715  1
  O  O94  1  0.09330500  0.17461386  0.08877443  1
  O  O95  1  0.58430566  0.15001006  0.08660943  1
  O  O96  1  0.35120155  0.16191012  0.74561361  1
  O  O97  1  0.85668796  0.17577158  0.74993770  1
  O  O98  1  0.22941384  0.30350383  0.75078528  1
  O  O99  1  0.73719513  0.31799239  0.74711868  1
  O  O100  1  0.42556774  0.52344155  0.74686189  1
  O  O101  1  0.92062264  0.51904959  0.74572950  1
  O  O102  1  0.35175488  0.53233849  0.25049933  1
  O  O103  1  0.85333962  0.54397337  0.24573005  1
  O  O104  1  0.41594676  0.31620355  0.24800356  1
  O  O105  1  0.92654023  0.32064694  0.24617665  1
  O  O106  1  0.22632759  0.13992051  0.24537126  1
  O  O107  1  0.72872379  0.15592630  0.25104828  1
  O  O108  1  0.32165205  0.51239466  0.92575094  1
  O  O109  1  0.82427825  0.51855864  0.92317580  1
  O  O110  1  0.42464110  0.35344213  0.92894081  1
  O  O111  1  0.93837709  0.36425108  0.92012611  1
  O  O112  1  0.24610552  0.15181735  0.92681708  1
  O  O113  1  0.74035587  0.13968985  0.91801494  1
  O  O114  1  0.32344586  0.13140960  0.42157821  1
  O  O115  1  0.82243188  0.13156699  0.42440842  1
  O  O116  1  0.24286851  0.34207948  0.41756227  1
  O  O117  1  0.74777257  0.34241942  0.42584439  1
  O  O118  1  0.43602038  0.51039761  0.41756642  1
  O  O119  1  0.92680789  0.49574512  0.42577341  1
  O  O120  1  0.17215924  0.50500428  0.07278339  1
  O  O121  1  0.66048324  0.48346783  0.07464096  1
  O  O122  1  0.06918058  0.64681140  0.07895724  1
  O  O123  1  0.56520206  0.65752142  0.07266833  1
  O  O124  1  0.25642895  0.86083408  0.07480957  1
  O  O125  1  0.74760993  0.83797934  0.07504750  1
  O  O126  1  0.15941326  0.83926993  0.57349279  1
  O  O127  1  0.67164348  0.84248252  0.56727171  1
  O  O128  1  0.24878513  0.65989387  0.57275706  1
  O  O129  1  0.75783670  0.65340485  0.57254843  1
  O  O130  1  0.06503288  0.47208967  0.57052939  1
  O  O131  1  0.56911413  0.49062169  0.57814114  1
  O  O132  1  0.14357959  0.83758822  0.24972347  1
  O  O133  1  0.64933333  0.85035628  0.25471461  1
  O  O134  1  0.26337442  0.69734045  0.25215941  1
  O  O135  1  0.77442282  0.69356495  0.24716425  1
  O  O136  1  0.07701521  0.46153174  0.24762364  1
  O  O137  1  0.58155821  0.49271777  0.24929864  1
  O  O138  1  0.14951599  0.44887780  0.75522844  1
  O  O139  1  0.64432184  0.47284414  0.74713302  1
  O  O140  1  0.08579550  0.67560548  0.74851464  1
  O  O141  1  0.57559898  0.69775146  0.74961259  1
  O  O142  1  0.27055104  0.85446809  0.74675830  1
  O  O143  1  0.76483400  0.83469549  0.75459846  1
loop_
_geom_bond_atom_site_label_1
_geom_bond_atom_site_label_2
_geom_bond_distance
_geom_bond_site_symmetry_2
Na0 O60 2.263227 1_655
Na0 O103 2.414775 1_555
Na0 O132 2.426528 1_655
Na0 O105 2.433367 1_555
Na0 O136 2.567181 1_655
Na0 O31 2.941980 1_555
Na0 O3 2.999801 1_555
Na1 O102 2.403850 1_555
Na1 O137 2.412067 1_555
Na1 O133 2.484273 1_555
Na1 O104 2.505270 1_555
Na1 O61 2.793210 1_555
Na1 O30 2.800834 1_555
Na2 O97 2.327560 1_555
Na2 O101 2.406418 1_555
Na2 O140 2.414953 1_655
Na2 O138 2.514662 1_655
Na2 O25 2.791521 1_555
Na2 O66 2.864940 1_655
Na3 O139 2.331446 1_555
Na3 O67 2.413903 1_555
Na3 O96 2.443981 1_555
Na3 O100 2.493357 1_555
Na3 O141 2.685676 1_555
Na3 O24 2.926314 1_555
Na4 O79 2.448350 1_555
Na4 O37 2.526494 1_556
Na4 O113 2.571300 1_555
Na4 O109 2.600374 1_555
Na4 O81 2.668842 1_545
Na4 O7 2.728920 1_555
Na4 O51 2.841361 1_555
Na4 O71 2.951890 1_555
Na5 O42 2.192689 1_555
Na5 O72 2.425413 1_545
Na5 O58 2.596367 1_545
Na5 O114 2.618948 1_555
Na5 O116 2.707913 1_555
Na5 O76 2.712846 1_555
Na6 O86 2.276925 1_565
Na6 O89 2.500272 1_455
Na6 O85 2.563442 1_465
Na6 O72 2.721935 1_555
Na6 O76 2.814674 1_565
Na6 O75 2.897783 1_455
Na7 O87 2.463037 1_565
Na7 O77 2.601422 1_565
Na7 O88 2.609933 1_555
Na7 O73 2.637962 1_555
Na7 O84 2.809769 1_565
Na7 O74 2.894593 1_555
Na8 O80 2.354043 1_545
Na8 O78 2.479361 1_555
Na8 O94 2.660871 1_556
Na8 O83 2.721795 1_445
Na8 O93 2.844918 1_446
Na8 O91 3.012296 1_546
Na9 O95 2.368118 1_555
Na9 O79 2.450242 1_554
Na9 O92 2.658409 1_555
Na9 O81 2.667834 1_544
Na9 O90 2.740865 1_545
Na9 O82 2.811666 1_544
Na10 O112 2.474837 1_555
Na10 O110 2.583807 1_555
Na10 O108 2.736650 1_555
Na10 O96 2.791410 1_555
Na10 O98 2.820496 1_555
Na10 O100 2.919022 1_555
Na11 O99 2.311487 1_555
Na11 O97 2.375539 1_555
Na11 O101 2.421306 1_555
Na11 O113 2.879338 1_555
Na12 O104 2.376344 1_555
Na12 O102 2.390132 1_555
Na12 O118 2.664629 1_555
Na12 O116 2.809665 1_555
Na12 O106 2.824673 1_555
Na12 O114 2.906652 1_555
Na13 O117 2.306876 1_555
Na13 O119 2.529319 1_555
Na13 O115 2.635466 1_555
Na13 O107 2.843376 1_555
Na13 O103 2.902335 1_555
Na14 O134 2.307434 1_555
Na14 O120 2.435042 1_555
Na14 O124 2.707024 1_555
Na14 O136 2.810661 1_555
Na14 O34 2.930558 1_555
Na15 O121 2.387928 1_555
Na15 O125 2.538045 1_555
Na15 O137 2.642162 1_555
Na15 O135 2.666425 1_555
Na15 O123 2.906540 1_555
Na16 O126 2.495969 1_555
Na16 O142 2.509776 1_555
Na16 O140 2.534562 1_555
Na16 O128 2.655346 1_555
Na17 O143 2.264464 1_555
Na17 O139 2.511108 1_555
Na17 O141 2.731891 1_555
Na17 O129 2.841207 1_555
Na17 O127 2.932007 1_555
O0 S0 1.489215 1_545
O0 Y0 2.274435 1_445
O1 S1 1.489333 1_555
O1 Zr0 2.194793 1_555
O2 Si0 1.659529 1_555
O2 Zr0 2.020665 1_565
O3 S2 1.489679 1_555
O3 Y0 2.246823 1_555
O4 Si1 1.660977 1_555
O4 Zr0 1.951434 1_555
O5 S3 1.474119 1_555
O5 Y0 2.328550 1_545
O6 S4 1.488681 1_555
O6 Zr1 2.186391 1_445
O7 Si2 1.646616 1_555
O7 Y1 2.085234 1_555
O8 S5 1.472689 1_555
O8 Y1 2.328393 1_565
O9 Si3 1.664529 1_555
O9 Zr1 1.942031 1_455
O10 S6 1.485635 1_555
O10 Y1 2.277646 1_555
O11 Si4 1.669273 1_545
O11 Zr1 1.984255 1_545
O12 S6 1.467767 1_565
O12 Zr3 2.322881 1_565
O13 Si4 1.666664 1_555
O13 Zr2 1.985566 1_555
O14 S4 1.492403 1_555
O14 Zr2 2.215842 1_445
O15 Si2 1.665501 1_555
O15 Zr3 1.992262 1_555
O16 Si3 1.654322 1_555
O16 Zr2 1.938120 1_455
O17 S5 1.490130 1_555
O17 Zr3 2.181089 1_565
O18 Si0 1.653547 1_555
O18 Zr5 2.014738 1_565
O19 S2 1.471974 1_555
O19 Zr4 2.274588 1_665
O20 S3 1.490600 1_455
O20 Zr4 2.174293 1_555
O21 Si1 1.650778 1_555
O21 Zr5 1.950468 1_555
O22 S0 1.488441 1_555
O22 Zr4 2.238983 1_565
O23 S1 1.490155 1_565
O23 Zr5 2.236643 1_565
O24 S7 1.474064 1_555
O24 Y2 2.393084 1_555
O25 S8 1.469191 1_555
O25 Y3 2.450502 1_555
O26 Si5 1.614286 1_555
O26 Y2 2.093187 1_555
O27 Si6 1.594002 1_555
O27 Y3 2.144234 1_555
O28 Si7 1.621539 1_555
O28 Y2 2.069506 1_555
O29 S9 1.452341 1_555
O29 Y3 2.417846 1_555
O30 S10 1.489937 1_555
O30 Y4 2.331902 1_555
O31 S11 1.478929 1_555
O31 Y5 2.390399 1_555
O32 S12 1.468555 1_555
O32 Y4 2.393704 1_555
O33 Si8 1.618813 1_555
O33 Y5 2.069219 1_555
O34 Si9 1.609671 1_555
O34 Y4 2.137448 1_555
O35 Si10 1.627240 1_555
O35 Y5 2.079780 1_555
O36 Si9 1.632524 1_555
O36 Zr6 2.022405 1_554
O37 Si10 1.631174 1_555
O37 Y6 2.152885 1_554
O38 S10 1.475884 1_555
O38 Zr6 2.282336 1_554
O39 S11 1.468049 1_555
O39 Y6 2.347758 1_554
O40 S12 1.479986 1_555
O40 Zr6 2.216322 1_554
O41 Si8 1.618458 1_555
O41 Y6 2.079076 1_554
O42 Si5 1.635169 1_555
O42 Y7 2.165353 1_555
O43 Si6 1.652963 1_555
O43 Zr7 1.980022 1_555
O44 Si7 1.633620 1_555
O44 Y7 2.060040 1_555
O45 S9 1.493773 1_555
O45 Zr7 2.185390 1_555
O46 S7 1.477726 1_555
O46 Y7 2.283233 1_555
O47 S8 1.485219 1_555
O47 Zr7 2.243071 1_555
O48 S13 1.499675 1_555
O48 Zr8 2.144419 1_556
O49 S14 1.485741 1_555
O49 Zr9 2.232675 1_556
O50 S15 1.516415 1_555
O50 Zr8 2.134922 1_556
O51 Si11 1.666210 1_555
O51 Zr9 2.007996 1_556
O52 Si12 1.662655 1_555
O52 Zr8 1.991931 1_556
O53 S16 1.476474 1_555
O53 Zr9 2.294939 1_556
O54 S17 1.476280 1_555
O54 Zr10 2.270951 1_555
O55 S18 1.480724 1_555
O55 Zr11 2.198909 1_555
O56 S19 1.464534 1_555
O56 Zr10 2.356538 1_555
O57 Si13 1.649600 1_555
O57 Zr11 2.011773 1_555
O58 Si14 1.654321 1_555
O58 Zr10 2.059191 1_555
O59 S20 1.498589 1_555
O59 Zr11 2.183018 1_555
O60 Si14 1.641146 1_555
O60 Y8 2.218067 1_555
O61 S20 1.490017 1_555
O61 Y9 2.330793 1_555
O62 S17 1.487974 1_555
O62 Y8 2.245206 1_555
O63 S18 1.475038 1_555
O63 Y9 2.354221 1_555
O64 S19 1.480054 1_555
O64 Y8 2.240410 1_555
O65 Si13 1.624941 1_555
O65 Y9 2.063884 1_555
O66 S15 1.480108 1_555
O66 Y10 2.334544 1_555
O67 Si11 1.624933 1_555
O67 Y11 2.233621 1_555
O68 Si12 1.615887 1_555
O68 Y10 2.068423 1_555
O69 S16 1.467036 1_555
O69 Y11 2.330962 1_555
O70 S13 1.472635 1_555
O70 Y10 2.350559 1_555
O71 S14 1.472444 1_555
O71 Y11 2.288080 1_555
O72 Si14 1.668800 1_555
O72 Y0 2.130377 1_455
O73 S20 1.481419 1_555
O73 Zr0 2.434981 1_565
O74 S17 1.490085 1_555
O74 Zr0 2.208146 1_565
O75 S18 1.490840 1_555
O75 Y0 2.265791 1_555
O76 S19 1.504955 1_555
O76 Y0 2.289154 1_445
O77 Si13 1.644151 1_555
O77 Zr0 2.080550 1_555
O78 S15 1.478501 1_555
O78 Zr1 2.476381 1_445
O79 Si11 1.654496 1_555
O79 Y1 2.193809 1_555
O80 Si12 1.639044 1_555
O80 Zr1 2.112178 1_455
O81 S16 1.500320 1_555
O81 Y1 2.352228 1_565
O82 S13 1.470709 1_555
O82 Y1 2.411449 1_565
O83 S14 1.491624 1_555
O83 Zr1 2.230469 1_555
O84 S7 1.477705 1_555
O84 Zr3 2.238948 1_555
O85 S8 1.482620 1_555
O85 Zr2 2.420853 1_545
O86 Si5 1.647145 1_555
O86 Zr2 2.086850 1_445
O87 Si6 1.662305 1_555
O87 Zr3 2.006320 1_555
O88 Si7 1.644254 1_555
O88 Zr3 2.042554 1_565
O89 S9 1.493966 1_555
O89 Zr2 2.267472 1_555
O90 S10 1.482389 1_555
O90 Zr5 2.379549 1_565
O91 S11 1.493718 1_455
O91 Zr4 2.171510 1_565
O92 S12 1.494045 1_555
O92 Zr5 2.237957 1_555
O93 Si8 1.683037 1_565
O93 Zr4 1.931488 1_665
O94 Si9 1.677714 1_555
O94 Zr4 1.969469 1_555
O95 Si10 1.655019 1_555
O95 Zr5 2.056885 1_555
O96 S6 1.497080 1_555
O96 Y2 2.459201 1_555
O97 Si4 1.625332 1_545
O97 Y3 2.213854 1_555
O98 S4 1.479451 1_555
O98 Y2 2.326795 1_555
O99 Si2 1.613296 1_555
O99 Y3 2.129256 1_555
O100 S5 1.497217 1_555
O100 Y2 2.425964 1_555
O101 Si3 1.602368 1_655
O101 Y3 2.277544 1_555
O102 Si0 1.639744 1_555
O102 Y4 2.193998 1_555
O103 S2 1.491862 1_555
O103 Y5 2.450011 1_555
O104 Si1 1.618618 1_555
O104 Y4 2.257432 1_555
O105 S3 1.485578 1_555
O105 Y5 2.473087 1_555
O106 S0 1.462393 1_545
O106 Y4 2.330157 1_555
O107 S1 1.479818 1_555
O107 Y5 2.321136 1_555
O108 S13 1.491590 1_555
O108 Zr6 2.204566 1_555
O109 S14 1.485650 1_555
O109 Y6 2.405472 1_555
O110 Si11 1.654996 1_555
O110 Zr6 2.048730 1_555
O111 S15 1.477232 1_655
O111 Y6 2.379041 1_555
O112 Si12 1.656411 1_545
O112 Zr6 1.983061 1_555
O113 S16 1.504929 1_545
O113 Y6 2.339432 1_555
O114 S17 1.482811 1_545
O114 Y7 2.470635 1_555
O115 S18 1.485589 1_545
O115 Zr7 2.252338 1_555
O116 S19 1.492705 1_555
O116 Y7 2.366829 1_555
O117 Si13 1.656488 1_555
O117 Zr7 1.998949 1_555
O118 S20 1.484513 1_555
O118 Y7 2.393148 1_555
O119 Si14 1.642408 1_655
O119 Zr7 2.106103 1_555
O120 Si9 1.651218 1_555
O120 Zr8 2.047149 1_555
O121 Si10 1.665590 1_555
O121 Zr9 1.993873 1_555
O122 S11 1.495974 1_455
O122 Zr8 2.181488 1_555
O123 S10 1.494733 1_555
O123 Zr9 2.197302 1_555
O124 S12 1.500857 1_565
O124 Zr8 2.226007 1_555
O125 Si8 1.637057 1_565
O125 Zr9 2.054470 1_555
O126 Si5 1.673722 1_565
O126 Zr10 1.977926 1_555
O127 Si6 1.655991 1_565
O127 Zr11 1.996435 1_555
O128 Si7 1.660413 1_555
O128 Zr10 2.005068 1_555
O129 S9 1.502357 1_555
O129 Zr11 2.195124 1_555
O130 S8 1.504826 1_455
O130 Zr10 2.141914 1_555
O131 S7 1.505925 1_555
O131 Zr11 2.140491 1_555
O132 S0 1.491773 1_555
O132 Y8 2.417740 1_555
O133 S1 1.484361 1_565
O133 Y9 2.489324 1_555
O134 Si0 1.631164 1_555
O134 Y8 2.158023 1_555
O135 S2 1.482446 1_555
O135 Y9 2.346343 1_555
O136 S3 1.496166 1_455
O136 Y8 2.381252 1_555
O137 Si1 1.647230 1_555
O137 Y9 2.162033 1_555
O138 S4 1.481248 1_555
O138 Y10 2.486155 1_555
O139 Si2 1.644581 1_555
O139 Y11 2.190628 1_555
O140 Si3 1.646420 1_555
O140 Y10 2.159117 1_555
O141 S5 1.483915 1_555
O141 Y11 2.370015 1_555
O142 S6 1.489474 1_565
O142 Y10 2.313348 1_555
O143 Si4 1.609370 1_555
O143 Y11 2.175785 1_555
