# generated using pymatgen
data_SrMg(SbO3)2
_symmetry_space_group_name_H-M   'P 1'
_cell_length_a   5.56410600
_cell_length_b   5.56410587
_cell_length_c   6.06416100
_cell_angle_alpha   90.00000000
_cell_angle_beta   90.00000000
_cell_angle_gamma   120.00000075
_symmetry_Int_Tables_number   1
_chemical_formula_structural   SrMg(SbO3)2
_chemical_formula_sum   'Sr1 Mg1 Sb2 O6'
_cell_volume   162.58936378
_cell_formula_units_Z   1
loop_
 _symmetry_equiv_pos_site_id
 _symmetry_equiv_pos_as_xyz
  1  'x, y, z'
loop_
 _atom_site_type_symbol
 _atom_site_label
 _atom_site_symmetry_multiplicity
 _atom_site_fract_x
 _atom_site_fract_y
 _atom_site_fract_z
 _atom_site_occupancy
  Sr  Sr0  1  0.00000000  0.00000000  0.00000000  1
  Mg  Mg0  1  0.00000000  0.00000000  0.50000000  1
  Sb  Sb0  1  0.33333300  0.66666700  0.50000000  1
  Sb  Sb1  1  0.66666700  0.33333300  0.50000000  1
  O  O0  1  0.32622100  0.32622100  0.68248200  1
  O  O1  1  0.67377900  0.00000000  0.68248200  1
  O  O2  1  0.00000000  0.67377900  0.68248200  1
  O  O3  1  0.32622100  0.00000000  0.31751800  1
  O  O4  1  0.00000000  0.32622100  0.31751800  1
  O  O5  1  0.67377900  0.67377900  0.31751800  1
loop_
_geom_bond_atom_site_label_1
_geom_bond_atom_site_label_2
_geom_bond_distance
_geom_bond_site_symmetry_2
Mg0 O0 2.125854 1_555
Mg0 O2 2.125854 1_545
Mg0 O4 2.125854 1_555
Mg0 O5 2.125854 1_445
Mg0 O1 2.125854 1_455
Mg0 O3 2.125854 1_555
O0 Sb0 2.177029 1_555
O0 Sb1 2.177030 1_555
O0 Sr0 2.646160 1_556
O1 Sb1 2.177025 1_555
O1 Sb0 2.177027 1_545
O1 Sr0 2.646160 1_656
O2 Sb0 2.177025 1_555
O2 Sb1 2.177027 1_455
O2 Sr0 2.646160 1_566
O3 Sb0 2.177025 1_545
O3 Sb1 2.177027 1_555
O3 Sr0 2.646160 1_555
O4 Sb1 2.177025 1_455
O4 Sb0 2.177027 1_555
O4 Sr0 2.646160 1_555
O5 Sb1 2.177029 1_555
O5 Sb0 2.177030 1_555
O5 Sr0 2.646160 1_665
