# generated using pymatgen
data_Na10Ti6Zn2Si7S5O48
_symmetry_space_group_name_H-M   'P 1'
_cell_length_a   17.79184669
_cell_length_b   8.94124460
_cell_length_c   22.20409725
_cell_angle_alpha   90.10005310
_cell_angle_beta   89.72694856
_cell_angle_gamma   120.13885227
_symmetry_Int_Tables_number   1
_chemical_formula_structural   Na10Ti6Zn2Si7S5O48
_chemical_formula_sum   'Na30 Ti18 Zn6 Si21 S15 O144'
_cell_volume   3054.69848760
_cell_formula_units_Z   3
loop_
 _symmetry_equiv_pos_site_id
 _symmetry_equiv_pos_as_xyz
  1  'x, y, z'
loop_
 _atom_site_type_symbol
 _atom_site_label
 _atom_site_symmetry_multiplicity
 _atom_site_fract_x
 _atom_site_fract_y
 _atom_site_fract_z
 _atom_site_occupancy
  Na  Na0  1  0.81439658  0.00800504  0.24887835  1
  Na  Na1  1  0.18817564  0.37504828  0.24710749  1
  Na  Na2  1  0.68808280  0.36380794  0.25024399  1
  Na  Na3  1  0.99533466  0.61803832  0.25092315  1
  Na  Na4  1  0.49542725  0.63067013  0.24546524  1
  Na  Na5  1  0.31558225  0.62068279  0.74930741  1
  Na  Na6  1  0.99512413  0.35874070  0.74646624  1
  Na  Na7  1  0.49534239  0.37504872  0.75033395  1
  Na  Na8  1  0.19051995  0.01699091  0.74668100  1
  Na  Na9  1  0.68748652  0.99899009  0.74750985  1
  Na  Na10  1  0.15016986  0.33099251  0.58147877  1
  Na  Na11  1  0.01571694  0.69426063  0.58457795  1
  Na  Na12  1  0.48541253  0.66515792  0.91726610  1
  Na  Na13  1  0.99100409  0.67810919  0.92035119  1
  Na  Na14  1  0.84957451  0.02604704  0.91563282  1
  Na  Na15  1  0.49047132  0.30569421  0.42010540  1
  Na  Na16  1  0.16361507  0.02697547  0.41734028  1
  Na  Na17  1  0.35063936  0.66930918  0.41464526  1
  Na  Na18  1  0.99323056  0.99754646  0.49930180  1
  Na  Na19  1  0.51038748  0.00938585  0.49846717  1
  Na  Na20  1  0.00884286  0.01022927  0.99889882  1
  Na  Na21  1  0.50216157  0.01208523  0.00143456  1
  Na  Na22  1  0.32875220  0.32165655  0.83101255  1
  Na  Na23  1  0.82989159  0.33505348  0.83017197  1
  Na  Na24  1  0.33560284  0.33501237  0.32995767  1
  Na  Na25  1  0.83166146  0.33420884  0.33194015  1
  Na  Na26  1  0.17263692  0.67305353  0.16250832  1
  Na  Na27  1  0.66336755  0.66789158  0.16230848  1
  Na  Na28  1  0.16973070  0.67462952  0.66408413  1
  Na  Na29  1  0.67140218  0.67196330  0.66251882  1
  Ti  Ti0  1  0.99351768  0.99563853  0.35459480  1
  Ti  Ti1  1  0.50613037  0.99074294  0.35649912  1
  Ti  Ti2  1  0.00413725  0.01866926  0.85684553  1
  Ti  Ti3  1  0.49737614  0.00203132  0.85430731  1
  Ti  Ti4  1  0.99774844  0.02106070  0.64480282  1
  Ti  Ti5  1  0.49730237  0.98775498  0.64929316  1
  Ti  Ti6  1  0.99547797  0.00780442  0.14828859  1
  Ti  Ti7  1  0.49499235  0.96662776  0.14582537  1
  Ti  Ti8  1  0.33780565  0.32221282  0.98071790  1
  Ti  Ti9  1  0.83162565  0.33815009  0.97431965  1
  Ti  Ti10  1  0.32802105  0.32244387  0.47615786  1
  Ti  Ti11  1  0.83724683  0.34203792  0.47718615  1
  Ti  Ti12  1  0.65806727  0.65855431  0.01452501  1
  Ti  Ti13  1  0.16246454  0.67222751  0.51580217  1
  Ti  Ti14  1  0.17076386  0.66303963  0.31657061  1
  Ti  Ti15  1  0.66412632  0.65648705  0.31632778  1
  Ti  Ti16  1  0.16495355  0.67255412  0.81665705  1
  Ti  Ti17  1  0.67240577  0.68097642  0.81685994  1
  Zn  Zn0  1  0.33108072  0.32189816  0.68793023  1
  Zn  Zn1  1  0.83656353  0.32257912  0.67895187  1
  Zn  Zn2  1  0.33884295  0.35077869  0.17845368  1
  Zn  Zn3  1  0.83294275  0.33382710  0.18814488  1
  Zn  Zn4  1  0.16117310  0.66848003  0.01383010  1
  Zn  Zn5  1  0.66033125  0.65470569  0.51322045  1
  Si  Si0  1  0.64442245  0.99492676  0.24984261  1
  Si  Si1  1  0.35289774  0.71053241  0.25245830  1
  Si  Si2  1  0.85412571  0.71210701  0.25062566  1
  Si  Si3  1  0.00219500  0.29308369  0.25146975  1
  Si  Si4  1  0.14439071  0.29510680  0.75085140  1
  Si  Si5  1  0.50172557  0.71037129  0.75183910  1
  Si  Si6  1  0.35430501  0.99610199  0.75101872  1
  Si  Si7  1  0.85331802  0.99438692  0.75175135  1
  Si  Si8  1  0.97833260  0.33571479  0.58270468  1
  Si  Si9  1  0.18770143  0.03685478  0.58541850  1
  Si  Si10  1  0.48098895  0.62186284  0.08267743  1
  Si  Si11  1  0.80884331  0.66658539  0.91821642  1
  Si  Si12  1  0.02463352  0.37921361  0.91969008  1
  Si  Si13  1  0.52240126  0.37308762  0.91385711  1
  Si  Si14  1  0.16883909  0.96521111  0.91802540  1
  Si  Si15  1  0.66435009  0.95866606  0.91764607  1
  Si  Si16  1  0.31175098  0.95346815  0.41656854  1
  Si  Si17  1  0.16241220  0.37312147  0.41863630  1
  Si  Si18  1  0.66866416  0.37322624  0.41789776  1
  Si  Si19  1  0.01972640  0.66408293  0.41343722  1
  Si  Si20  1  0.52345123  0.66851194  0.41977437  1
  S  S0  1  0.14406745  0.99927420  0.24922365  1
  S  S1  1  0.49827844  0.28355108  0.25076589  1
  S  S2  1  0.64365978  0.28833841  0.74941284  1
  S  S3  1  0.99815258  0.71118896  0.75072260  1
  S  S4  1  0.48054721  0.33154187  0.58469128  1
  S  S5  1  0.68565121  0.03957280  0.58380808  1
  S  S6  1  0.33608632  0.63073023  0.58274647  1
  S  S7  1  0.83038715  0.62085182  0.58458554  1
  S  S8  1  0.97933644  0.62800980  0.08485860  1
  S  S9  1  0.33340918  0.04076959  0.08553644  1
  S  S10  1  0.83348900  0.04023663  0.08306029  1
  S  S11  1  0.18604541  0.33126516  0.08399510  1
  S  S12  1  0.68763689  0.33544579  0.08342339  1
  S  S13  1  0.31163652  0.66561666  0.91683183  1
  S  S14  1  0.81117386  0.95764822  0.41740571  1
  O  O0  1  0.10577433  0.02840616  0.30526386  1
  O  O1  1  0.59645668  0.02939136  0.30662774  1
  O  O2  1  0.41608755  0.80718661  0.30949169  1
  O  O3  1  0.91903879  0.81101040  0.30770293  1
  O  O4  1  0.48939404  0.18727525  0.30668648  1
  O  O5  1  0.99046833  0.16184454  0.30702901  1
  O  O6  1  0.09350221  0.16101140  0.80599651  1
  O  O7  1  0.60376296  0.17783990  0.80379763  1
  O  O8  1  0.48979348  0.81190946  0.80937576  1
  O  O9  1  0.98943352  0.79316720  0.80581053  1
  O  O10  1  0.41943011  0.02173415  0.80737816  1
  O  O11  1  0.91541759  0.02447987  0.80958115  1
  O  O12  1  0.40547453  0.96629285  0.69298985  1
  O  O13  1  0.90348677  0.97288765  0.69190381  1
  O  O14  1  0.08256095  0.20259796  0.68999578  1
  O  O15  1  0.58789746  0.20439635  0.69530007  1
  O  O16  1  0.01274409  0.81587702  0.69568808  1
  O  O17  1  0.51894990  0.84502002  0.69351858  1
  O  O18  1  0.40110536  0.83017558  0.19167454  1
  O  O19  1  0.90557156  0.84611833  0.19306771  1
  O  O20  1  0.01909678  0.19529184  0.19250033  1
  O  O21  1  0.51375717  0.20560059  0.19702772  1
  O  O22  1  0.08713880  0.97243552  0.19610455  1
  O  O23  1  0.57892100  0.96303850  0.19196013  1
  O  O24  1  0.44001592  0.35351707  0.63977068  1
  O  O25  1  0.94821987  0.38716477  0.64421407  1
  O  O26  1  0.24145036  0.11630606  0.64567856  1
  O  O27  1  0.73295702  0.11664401  0.64124817  1
  O  O28  1  0.32253904  0.52772203  0.63790459  1
  O  O29  1  0.81775177  0.51750441  0.63922194  1
  O  O30  1  0.44778224  0.52248438  0.14569181  1
  O  O31  1  0.93701044  0.52425747  0.13928263  1
  O  O32  1  0.31896133  0.11903517  0.13906617  1
  O  O33  1  0.82265345  0.11777235  0.13860200  1
  O  O34  1  0.23317715  0.34910541  0.14126203  1
  O  O35  1  0.73719706  0.35972264  0.13935906  1
  O  O36  1  0.23060463  0.30698589  0.03122354  1
  O  O37  1  0.73383673  0.31128165  0.03060441  1
  O  O38  1  0.41717427  0.52417062  0.02413004  1
  O  O39  1  0.92579979  0.54232995  0.02950614  1
  O  O40  1  0.34422130  0.15256872  0.03034650  1
  O  O41  1  0.84616699  0.14784664  0.02878405  1
  O  O42  1  0.23555439  0.16893374  0.52603025  1
  O  O43  1  0.72927338  0.15205405  0.53103606  1
  O  O44  1  0.34843180  0.54896418  0.52805379  1
  O  O45  1  0.84521132  0.53587249  0.53036586  1
  O  O46  1  0.42637969  0.30934999  0.52963141  1
  O  O47  1  0.91292452  0.30962447  0.52669293  1
  O  O48  1  0.27520506  0.69542218  0.97122778  1
  O  O49  1  0.76432011  0.70589158  0.97513542  1
  O  O50  1  0.08167586  0.45270542  0.97772538  1
  O  O51  1  0.58270397  0.46696643  0.97291508  1
  O  O52  1  0.14285638  0.83737047  0.97377008  1
  O  O53  1  0.64640519  0.82642291  0.97296587  1
  O  O54  1  0.26425723  0.82460367  0.47343690  1
  O  O55  1  0.77592132  0.85605942  0.47134894  1
  O  O56  1  0.15144369  0.46446672  0.47813738  1
  O  O57  1  0.64320696  0.44905326  0.47390284  1
  O  O58  1  0.08164258  0.70247207  0.47340641  1
  O  O59  1  0.58151437  0.71296292  0.47742476  1
  O  O60  1  0.06538614  0.63380368  0.35428306  1
  O  O61  1  0.56712069  0.63050398  0.35848669  1
  O  O62  1  0.24505251  0.86693810  0.35951997  1
  O  O63  1  0.75875998  0.87555006  0.36136574  1
  O  O64  1  0.18588058  0.50060977  0.35910741  1
  O  O65  1  0.68385967  0.49851362  0.35638031  1
  O  O66  1  0.06584585  0.50335463  0.85845176  1
  O  O67  1  0.56427088  0.50150885  0.85537623  1
  O  O68  1  0.18371999  0.86922483  0.85655887  1
  O  O69  1  0.68832927  0.87913884  0.85773376  1
  O  O70  1  0.25847783  0.64302742  0.86138973  1
  O  O71  1  0.74680147  0.63055466  0.85903303  1
  O  O72  1  0.01362624  0.84045513  0.40816658  1
  O  O73  1  0.50499625  0.82926118  0.40975220  1
  O  O74  1  0.40841977  0.98248040  0.41016158  1
  O  O75  1  0.90059043  0.97983830  0.40946815  1
  O  O76  1  0.08253911  0.17713670  0.40970559  1
  O  O77  1  0.58047519  0.18642531  0.40491434  1
  O  O78  1  0.00389527  0.18020003  0.91025234  1
  O  O79  1  0.51106444  0.18174808  0.90837706  1
  O  O80  1  0.08069187  0.97573214  0.90485796  1
  O  O81  1  0.57738841  0.97072672  0.90988864  1
  O  O82  1  0.40149174  0.82090789  0.90965521  1
  O  O83  1  0.90689850  0.83039877  0.90968539  1
  O  O84  1  0.48696203  0.16950230  0.58859906  1
  O  O85  1  0.98776091  0.15989780  0.58569356  1
  O  O86  1  0.08824366  0.01265440  0.58842337  1
  O  O87  1  0.59726505  0.02744713  0.58843792  1
  O  O88  1  0.41620690  0.80692992  0.58707443  1
  O  O89  1  0.91485280  0.79207248  0.58804624  1
  O  O90  1  0.48809816  0.81699892  0.08576512  1
  O  O91  1  0.98628324  0.80289658  0.08855241  1
  O  O92  1  0.41640915  0.03724714  0.08768747  1
  O  O93  1  0.91618474  0.02829492  0.08718336  1
  O  O94  1  0.09760612  0.16725086  0.08785566  1
  O  O95  1  0.59960961  0.17892207  0.08677806  1
  O  O96  1  0.34813690  0.16810045  0.75084004  1
  O  O97  1  0.84164961  0.16534508  0.74880234  1
  O  O98  1  0.23956880  0.31790066  0.74867209  1
  O  O99  1  0.73046312  0.30603690  0.74370549  1
  O  O100  1  0.41520324  0.52573210  0.74548580  1
  O  O101  1  0.92221890  0.53439800  0.74784990  1
  O  O102  1  0.34098695  0.51671320  0.24948019  1
  O  O103  1  0.84564960  0.52546260  0.24667470  1
  O  O104  1  0.42273884  0.30955345  0.24739088  1
  O  O105  1  0.91540787  0.30418442  0.24708076  1
  O  O106  1  0.23084558  0.15472403  0.24330427  1
  O  O107  1  0.73874809  0.16536888  0.24550150  1
  O  O108  1  0.32267686  0.51124960  0.91927139  1
  O  O109  1  0.82245263  0.49674395  0.92697524  1
  O  O110  1  0.42693646  0.36106272  0.92485284  1
  O  O111  1  0.92532360  0.35938030  0.92591640  1
  O  O112  1  0.25449173  0.15895017  0.92568843  1
  O  O113  1  0.75373358  0.14643759  0.92780231  1
  O  O114  1  0.32087404  0.14665626  0.42489899  1
  O  O115  1  0.82024500  0.13256852  0.42023563  1
  O  O116  1  0.25292508  0.35995736  0.42476141  1
  O  O117  1  0.75337502  0.34806622  0.42543701  1
  O  O118  1  0.42510150  0.49164387  0.42464670  1
  O  O119  1  0.92426115  0.49217720  0.42463794  1
  O  O120  1  0.17677855  0.48563113  0.07890095  1
  O  O121  1  0.68038740  0.49283059  0.07572519  1
  O  O122  1  0.06690919  0.64837317  0.08124740  1
  O  O123  1  0.57960373  0.65126112  0.07422770  1
  O  O124  1  0.25827731  0.86544107  0.07715105  1
  O  O125  1  0.75771218  0.86449064  0.07748643  1
  O  O126  1  0.17372471  0.84200034  0.57523559  1
  O  O127  1  0.67665441  0.86751634  0.57909513  1
  O  O128  1  0.25704507  0.64655420  0.57739930  1
  O  O129  1  0.75691040  0.64980339  0.57708046  1
  O  O130  1  0.07805128  0.50061818  0.57446979  1
  O  O131  1  0.56823161  0.48498847  0.58046765  1
  O  O132  1  0.14841418  0.83817791  0.25324603  1
  O  O133  1  0.65023818  0.81832346  0.25684762  1
  O  O134  1  0.25674917  0.69384118  0.25617252  1
  O  O135  1  0.75939062  0.70135009  0.25543573  1
  O  O136  1  0.08977899  0.48342481  0.25447769  1
  O  O137  1  0.58068218  0.46406012  0.25432729  1
  O  O138  1  0.14910880  0.48297756  0.75721627  1
  O  O139  1  0.64777838  0.45724566  0.75437187  1
  O  O140  1  0.08048083  0.69684078  0.75418934  1
  O  O141  1  0.58963375  0.69545210  0.75442126  1
  O  O142  1  0.25940903  0.81724684  0.75545563  1
  O  O143  1  0.75670438  0.82011545  0.75535818  1
loop_
_geom_bond_atom_site_label_1
_geom_bond_atom_site_label_2
_geom_bond_distance
_geom_bond_site_symmetry_2
Na0 O105 2.337709 1_555
Na0 O107 2.387446 1_555
Na0 O135 2.408792 1_545
Na0 O133 2.541647 1_545
Na0 O33 2.615453 1_555
Na0 O63 2.725874 1_545
Na1 O102 2.354134 1_555
Na1 O136 2.393918 1_555
Na1 O106 2.442317 1_555
Na1 O134 2.482329 1_555
Na1 O34 2.526851 1_555
Na1 O64 2.735296 1_555
Na1 O20 2.876724 1_555
Na1 O0 2.975923 1_555
Na2 O107 2.361425 1_555
Na2 O103 2.425651 1_555
Na2 O137 2.486199 1_555
Na2 O35 2.614974 1_555
Na2 O135 2.624237 1_555
Na2 O65 2.662600 1_555
Na2 O1 2.874777 1_555
Na2 O21 2.939438 1_555
Na3 O103 2.361145 1_555
Na3 O105 2.428472 1_555
Na3 O132 2.431545 1_655
Na3 O136 2.512172 1_655
Na3 O60 2.586512 1_655
Na3 O31 2.658616 1_555
Na4 O30 2.397744 1_555
Na4 O102 2.404767 1_555
Na4 O133 2.414533 1_555
Na4 O104 2.487806 1_555
Na4 O137 2.613758 1_555
Na4 O61 2.820863 1_555
Na4 O23 2.830557 1_555
Na4 O2 2.952107 1_555
Na5 O100 2.319246 1_555
Na5 O98 2.341322 1_555
Na5 O142 2.422424 1_555
Na5 O138 2.579377 1_555
Na5 O28 2.630227 1_555
Na5 O70 2.728318 1_555
Na6 O97 2.388804 1_555
Na6 O138 2.397071 1_655
Na6 O25 2.479687 1_555
Na6 O101 2.489071 1_555
Na6 O140 2.620101 1_655
Na6 O66 2.796931 1_655
Na6 O14 2.845645 1_655
Na6 O11 2.940569 1_555
Na7 O96 2.327381 1_555
Na7 O100 2.406409 1_555
Na7 O139 2.429864 1_555
Na7 O141 2.490799 1_555
Na7 O67 2.616867 1_555
Na7 O24 2.619909 1_555
Na8 O98 2.375819 1_555
Na8 O26 2.412210 1_555
Na8 O96 2.428031 1_555
Na8 O140 2.534892 1_545
Na8 O142 2.632779 1_545
Na8 O68 2.749635 1_545
Na8 O6 2.928626 1_555
Na8 O16 2.972435 1_545
Na9 O97 2.374904 1_565
Na9 O141 2.382112 1_555
Na9 O99 2.453792 1_565
Na9 O143 2.466955 1_555
Na9 O27 2.542434 1_565
Na9 O69 2.676586 1_555
Na9 O17 2.864787 1_555
Na9 O7 2.950514 1_565
Na10 O130 2.434718 1_555
Na10 O86 2.487983 1_555
Na10 O128 2.489276 1_555
Na10 O85 2.501502 1_455
Na10 O56 2.582999 1_555
Na10 O14 2.676934 1_555
Na10 O42 2.847750 1_555
Na10 O28 2.946305 1_555
Na11 O89 2.359175 1_455
Na11 O126 2.440771 1_555
Na11 O86 2.467416 1_565
Na11 O130 2.490510 1_555
Na11 O16 2.705359 1_555
Na11 O58 2.713125 1_555
Na11 O25 2.724217 1_455
Na11 O45 2.893443 1_455
Na12 O110 2.379694 1_555
Na12 O81 2.383006 1_555
Na12 O108 2.505343 1_555
Na12 O82 2.507688 1_555
Na12 O38 2.671979 1_556
Na12 O8 2.715368 1_555
Na12 O53 2.773679 1_555
Na12 O67 2.834459 1_555
Na13 O80 2.340934 1_655
Na13 O111 2.481537 1_555
Na13 O83 2.489984 1_555
Na13 O109 2.599536 1_555
Na13 O52 2.625881 1_655
Na13 O39 2.695022 1_556
Na13 O9 2.750645 1_555
Na13 O66 2.857971 1_655
Na14 O78 2.376937 1_655
Na14 O83 2.430507 1_545
Na14 O113 2.444837 1_555
Na14 O111 2.591969 1_555
Na14 O11 2.628233 1_555
Na14 O41 2.749043 1_556
Na14 O69 2.802418 1_545
Na14 O49 2.806171 1_545
Na15 O77 2.350261 1_555
Na15 O118 2.463185 1_555
Na15 O74 2.509164 1_545
Na15 O114 2.612866 1_555
Na15 O57 2.642382 1_555
Na15 O46 2.688189 1_555
Na15 O4 2.726606 1_555
Na15 O61 2.860949 1_555
Na16 O72 2.340722 1_545
Na16 O76 2.420774 1_555
Na16 O114 2.449268 1_555
Na16 O116 2.581913 1_555
Na16 O0 2.699972 1_555
Na16 O42 2.731476 1_555
Na16 O58 2.800225 1_545
Na16 O62 2.802334 1_545
Na17 O73 2.377578 1_555
Na17 O116 2.427582 1_555
Na17 O74 2.452926 1_555
Na17 O118 2.538770 1_555
Na17 O2 2.621028 1_555
Na17 O44 2.732484 1_555
Na17 O64 2.824288 1_555
Na17 O54 2.848103 1_555
Na18 O85 2.434486 1_565
Na18 O76 2.545550 1_665
Na18 O75 2.547284 1_555
Na18 O86 2.567769 1_665
Na18 O89 2.572249 1_555
Na18 O72 2.587339 1_655
Na19 O87 2.486730 1_555
Na19 O73 2.513738 1_545
Na19 O77 2.525927 1_555
Na19 O74 2.605319 1_545
Na19 O84 2.609544 1_555
Na19 O88 2.624977 1_545
Na20 O94 2.481965 1_556
Na20 O78 2.517557 1_555
Na20 O80 2.541190 1_545
Na20 O91 2.611243 1_446
Na20 O93 2.611902 1_456
Na20 O83 2.625574 1_445
Na21 O90 2.485980 1_545
Na21 O95 2.499289 1_555
Na21 O92 2.522213 1_555
Na21 O79 2.522364 1_554
Na21 O81 2.555081 1_544
Na21 O82 2.689062 1_544
Na22 O96 2.373630 1_555
Na22 O98 2.415668 1_555
Na22 O112 2.517007 1_555
Na22 O100 2.543143 1_555
Na22 O108 2.626065 1_555
Na22 O110 2.632742 1_555
Na23 O97 2.432319 1_555
Na23 O101 2.501810 1_555
Na23 O99 2.540183 1_555
Na23 O109 2.627972 1_555
Na23 O113 2.658858 1_555
Na23 O111 2.666771 1_555
Na24 O102 2.386200 1_555
Na24 O104 2.478343 1_555
Na24 O118 2.588354 1_555
Na24 O106 2.603970 1_555
Na24 O114 2.629253 1_555
Na24 O116 2.634962 1_555
Na25 O103 2.479921 1_555
Na25 O107 2.491887 1_555
Na25 O105 2.493118 1_555
Na25 O117 2.531815 1_555
Na25 O119 2.575104 1_555
Na25 O115 2.603116 1_555
Na26 O124 2.494917 1_555
Na26 O134 2.519596 1_555
Na26 O120 2.524253 1_555
Na26 O122 2.541044 1_555
Na26 O136 2.586809 1_555
Na26 O132 2.654251 1_555
Na27 O123 2.423293 1_555
Na27 O125 2.544243 1_555
Na27 O133 2.563427 1_555
Na27 O121 2.587988 1_555
Na27 O135 2.608125 1_555
Na27 O137 2.636733 1_555
Na28 O126 2.457378 1_555
Na28 O142 2.503325 1_555
Na28 O130 2.551927 1_555
Na28 O128 2.557819 1_555
Na28 O138 2.592512 1_555
Na28 O140 2.617014 1_555
Na29 O129 2.495307 1_555
Na29 O143 2.511764 1_555
Na29 O127 2.518476 1_555
Na29 O131 2.534392 1_555
Na29 O141 2.569378 1_555
Na29 O139 2.686497 1_555
O0 S0 1.499786 1_545
O0 Ti0 2.160394 1_445
O1 Si0 1.632635 1_545
O1 Ti1 1.831670 1_545
O2 Si1 1.627453 1_555
O2 Ti1 1.928516 1_555
O3 Si2 1.645137 1_555
O3 Ti0 1.837290 1_555
O4 S1 1.474097 1_555
O4 Ti1 2.221550 1_545
O5 Si3 1.642900 1_655
O5 Ti0 1.847663 1_545
O6 Si4 1.631265 1_555
O6 Ti2 1.838047 1_555
O7 S2 1.493304 1_555
O7 Ti3 2.075963 1_555
O8 Si5 1.639620 1_555
O8 Ti3 1.915292 1_565
O9 S3 1.471986 1_555
O9 Ti2 2.209763 1_665
O10 Si6 1.645381 1_545
O10 Ti3 1.816539 1_555
O11 Si7 1.629637 1_545
O11 Ti2 1.921984 1_655
O12 Si6 1.670728 1_555
O12 Ti5 1.821584 1_555
O13 Si7 1.661221 1_555
O13 Ti4 1.830678 1_565
O14 Si4 1.678305 1_555
O14 Ti4 1.862197 1_455
O15 S2 1.500578 1_555
O15 Ti5 2.065724 1_545
O16 S3 1.481142 1_455
O16 Ti4 2.283671 1_465
O17 Si5 1.688618 1_555
O17 Ti5 1.800827 1_555
O18 Si1 1.665597 1_555
O18 Ti7 1.804667 1_555
O19 Si2 1.673241 1_555
O19 Ti6 1.817952 1_565
O20 Si3 1.680979 1_555
O20 Ti6 1.800357 1_455
O21 S1 1.473795 1_555
O21 Ti7 2.290924 1_545
O22 S0 1.496975 1_555
O22 Ti6 2.102943 1_465
O23 Si0 1.664502 1_555
O23 Ti7 1.828383 1_555
O24 S4 1.478976 1_555
O24 Zn0 2.100222 1_555
O25 Si8 1.613163 1_555
O25 Zn1 1.926091 1_555
O26 Si9 1.592525 1_555
O26 Zn0 1.966429 1_555
O27 S5 1.494876 1_555
O27 Zn1 2.022412 1_555
O28 S6 1.478024 1_555
O28 Zn0 2.221103 1_555
O29 S7 1.472706 1_555
O29 Zn1 2.126456 1_555
O30 Si10 1.601746 1_555
O30 Zn2 1.909251 1_555
O31 S8 1.477063 1_555
O31 Zn3 2.079894 1_555
O32 S9 1.464011 1_555
O32 Zn2 2.108097 1_555
O33 S10 1.472297 1_555
O33 Zn3 2.148220 1_555
O34 S11 1.490177 1_555
O34 Zn2 2.050135 1_555
O35 S12 1.478002 1_555
O35 Zn3 2.131539 1_555
O36 S11 1.487183 1_555
O36 Ti8 2.152519 1_554
O37 S12 1.505342 1_555
O37 Ti9 2.051159 1_554
O38 Si10 1.660196 1_555
O38 Ti8 1.905318 1_554
O39 S8 1.509914 1_555
O39 Ti9 2.140529 1_554
O40 S9 1.531957 1_555
O40 Ti8 1.925881 1_554
O41 S10 1.487468 1_555
O41 Ti9 2.208377 1_554
O42 Si9 1.686254 1_555
O42 Ti10 1.880727 1_555
O43 S5 1.482721 1_555
O43 Ti11 2.171150 1_555
O44 S6 1.487657 1_555
O44 Ti10 2.195236 1_555
O45 S7 1.513700 1_555
O45 Ti11 2.041060 1_555
O46 S4 1.510351 1_555
O46 Ti10 2.170698 1_555
O47 Si8 1.641835 1_555
O47 Ti11 1.874126 1_555
O48 S13 1.454253 1_555
O48 Zn4 2.135591 1_556
O49 Si11 1.617643 1_555
O49 Ti12 1.923505 1_556
O50 Si12 1.569125 1_555
O50 Zn4 1.905400 1_556
O51 Si13 1.637216 1_555
O51 Ti12 1.812650 1_556
O52 Si14 1.587824 1_555
O52 Zn4 1.918182 1_556
O53 Si15 1.622058 1_555
O53 Ti12 1.861947 1_556
O54 Si16 1.628883 1_555
O54 Ti13 1.879237 1_555
O55 S14 1.441396 1_555
O55 Zn5 2.145844 1_555
O56 Si17 1.613835 1_555
O56 Ti13 1.954240 1_555
O57 Si18 1.584698 1_555
O57 Zn5 1.915847 1_555
O58 Si19 1.654413 1_555
O58 Ti13 1.852386 1_555
O59 Si20 1.569163 1_555
O59 Zn5 1.901334 1_555
O60 Si19 1.633365 1_555
O60 Ti14 1.943781 1_555
O61 Si20 1.680623 1_555
O61 Ti15 1.868618 1_555
O62 Si16 1.643262 1_555
O62 Ti14 1.888470 1_555
O63 S14 1.509058 1_555
O63 Ti15 2.090196 1_555
O64 Si17 1.656166 1_555
O64 Ti14 1.863628 1_555
O65 Si18 1.700436 1_555
O65 Ti15 1.847871 1_555
O66 Si12 1.672442 1_555
O66 Ti16 1.889361 1_555
O67 Si13 1.642124 1_555
O67 Ti17 1.974013 1_555
O68 Si14 1.700004 1_555
O68 Ti16 1.842955 1_555
O69 Si15 1.659296 1_555
O69 Ti17 1.880436 1_555
O70 S13 1.506380 1_555
O70 Ti16 2.069504 1_555
O71 Si11 1.644502 1_555
O71 Ti17 1.855982 1_555
O72 Si19 1.638598 1_555
O72 Ti0 1.994118 1_455
O73 Si20 1.642829 1_555
O73 Ti1 1.860037 1_555
O74 Si16 1.611028 1_555
O74 Ti1 2.073403 1_555
O75 S14 1.510572 1_555
O75 Ti0 1.996220 1_555
O76 Si17 1.621827 1_555
O76 Ti0 2.017422 1_445
O77 Si18 1.644887 1_555
O77 Ti1 1.910366 1_545
O78 Si12 1.639068 1_555
O78 Ti2 1.868806 1_555
O79 Si13 1.623378 1_555
O79 Ti3 1.919856 1_555
O80 Si14 1.645150 1_555
O80 Ti2 1.918187 1_565
O81 Si15 1.614096 1_555
O81 Ti3 2.011480 1_565
O82 S13 1.509432 1_555
O82 Ti3 2.062990 1_565
O83 Si11 1.629909 1_555
O83 Ti2 2.065523 1_665
O84 S4 1.512040 1_555
O84 Ti5 2.191127 1_545
O85 Si8 1.664055 1_555
O85 Ti4 1.877389 1_555
O86 Si9 1.672411 1_555
O86 Ti4 2.065702 1_455
O87 S5 1.523986 1_555
O87 Ti5 2.111837 1_545
O88 S6 1.506274 1_555
O88 Ti5 2.067131 1_555
O89 S7 1.516051 1_555
O89 Ti4 2.220755 1_565
O90 Si10 1.686101 1_555
O90 Ti7 1.847679 1_555
O91 S8 1.507563 1_555
O91 Ti6 2.198949 1_565
O92 S9 1.493776 1_555
O92 Ti7 2.219570 1_545
O93 S10 1.530885 1_555
O93 Ti6 2.035530 1_555
O94 S11 1.521774 1_555
O94 Ti6 2.125283 1_455
O95 S12 1.488374 1_555
O95 Ti7 2.285623 1_545
O96 Si6 1.595819 1_545
O96 Zn0 2.089046 1_555
O97 Si7 1.644107 1_545
O97 Zn1 2.127641 1_555
O98 Si4 1.601295 1_555
O98 Zn0 2.095720 1_555
O99 S2 1.476155 1_555
O99 Zn1 2.312384 1_555
O100 Si5 1.601350 1_555
O100 Zn0 2.113244 1_555
O101 S3 1.477811 1_555
O101 Zn1 2.315920 1_555
O102 Si1 1.638129 1_555
O102 Zn2 2.150687 1_555
O103 Si2 1.600729 1_555
O103 Zn3 2.069310 1_555
O104 S1 1.476745 1_555
O104 Zn2 2.298516 1_555
O105 Si3 1.599679 1_655
O105 Zn3 2.084572 1_555
O106 S0 1.475348 1_545
O106 Zn2 2.332048 1_555
O107 Si0 1.605892 1_545
O107 Zn3 2.037344 1_555
O108 S13 1.489691 1_555
O108 Ti8 2.293299 1_555
O109 Si11 1.665325 1_555
O109 Ti9 1.838962 1_555
O110 Si13 1.663974 1_555
O110 Ti8 1.898340 1_555
O111 Si12 1.689861 1_655
O111 Ti9 1.906848 1_555
O112 Si14 1.643948 1_545
O112 Ti8 1.912926 1_555
O113 Si15 1.649112 1_545
O113 Ti9 1.883521 1_555
O114 Si16 1.661894 1_545
O114 Ti10 1.891145 1_555
O115 S14 1.490766 1_545
O115 Ti11 2.150540 1_555
O116 Si17 1.678749 1_555
O116 Ti10 1.914659 1_555
O117 Si18 1.641092 1_555
O117 Ti11 1.909790 1_555
O118 Si20 1.671663 1_555
O118 Ti10 1.985817 1_555
O119 Si19 1.638586 1_655
O119 Ti11 1.860517 1_555
O120 S11 1.474529 1_555
O120 Zn4 2.303355 1_555
O121 S12 1.486414 1_555
O121 Ti12 2.191584 1_555
O122 S8 1.476882 1_455
O122 Zn4 2.181776 1_555
O123 Si10 1.648214 1_555
O123 Ti12 1.897809 1_555
O124 S9 1.475159 1_565
O124 Zn4 2.241026 1_555
O125 S10 1.475029 1_565
O125 Ti12 2.285708 1_555
O126 Si9 1.646955 1_565
O126 Ti13 1.943207 1_555
O127 S5 1.468182 1_565
O127 Zn5 2.298656 1_555
O128 S6 1.487690 1_555
O128 Ti13 2.272871 1_555
O129 S7 1.464867 1_555
O129 Zn5 2.250382 1_555
O130 Si8 1.651084 1_455
O130 Ti13 1.995275 1_555
O131 S4 1.474672 1_555
O131 Zn5 2.169091 1_555
O132 S0 1.483608 1_555
O132 Ti14 2.285973 1_555
O133 Si0 1.641156 1_555
O133 Ti15 2.065917 1_555
O134 Si1 1.642486 1_555
O134 Ti14 1.942525 1_555
O135 Si2 1.642296 1_555
O135 Ti15 2.039374 1_555
O136 Si3 1.632964 1_555
O136 Ti14 2.060006 1_555
O137 S1 1.544384 1_555
O137 Ti15 2.122665 1_555
O138 Si4 1.645122 1_555
O138 Ti16 2.051950 1_555
O139 S2 1.478745 1_555
O139 Ti17 2.287957 1_555
O140 S3 1.535498 1_455
O140 Ti16 2.139737 1_555
O141 Si5 1.636376 1_555
O141 Ti17 2.078241 1_555
O142 Si6 1.644788 1_555
O142 Ti16 2.036101 1_555
O143 Si7 1.642738 1_555
O143 Ti17 1.942867 1_555
