# generated using pymatgen
data_MgMn2Co5O12
_symmetry_space_group_name_H-M   'P 1'
_cell_length_a   5.13348313
_cell_length_b   5.01035678
_cell_length_c   9.61920267
_cell_angle_alpha   83.12924490
_cell_angle_beta   95.25951333
_cell_angle_gamma   60.42273501
_symmetry_Int_Tables_number   1
_chemical_formula_structural   MgMn2Co5O12
_chemical_formula_sum   'Mg1 Mn2 Co5 O12'
_cell_volume   210.34666917
_cell_formula_units_Z   1
loop_
 _symmetry_equiv_pos_site_id
 _symmetry_equiv_pos_as_xyz
  1  'x, y, z'
loop_
 _atom_site_type_symbol
 _atom_site_label
 _atom_site_symmetry_multiplicity
 _atom_site_fract_x
 _atom_site_fract_y
 _atom_site_fract_z
 _atom_site_occupancy
  Mg  Mg0  1  0.16733900  0.67310200  0.50544300  1
  Mn  Mn0  1  0.24451600  0.23054900  0.74937200  1
  Mn  Mn1  1  0.72413600  0.77763800  0.24305400  1
  Co  Co0  1  0.07151300  0.10847200  0.25146700  1
  Co  Co1  1  0.97592500  0.56517400  0.97805000  1
  Co  Co2  1  0.53963400  0.98031800  0.51334100  1
  Co  Co3  1  0.40272800  0.44421900  0.24370200  1
  Co  Co4  1  0.59587000  0.52871000  0.76502400  1
  O  O0  1  0.97026300  0.23412600  0.87054900  1
  O  O1  1  0.29261600  0.91358300  0.62710700  1
  O  O2  1  0.18633100  0.33168600  0.37651100  1
  O  O3  1  0.30360300  0.20430900  0.13492700  1
  O  O4  1  0.28628000  0.50085800  0.85537200  1
  O  O5  1  0.50846900  0.27491000  0.63019000  1
  O  O6  1  0.43171000  0.74042200  0.35801300  1
  O  O7  1  0.72125300  0.46909000  0.14636100  1
  O  O8  1  0.61083900  0.85183000  0.87229900  1
  O  O9  1  0.88443600  0.58477200  0.61726900  1
  O  O10  1  0.79308200  0.02350000  0.36954200  1
  O  O11  1  0.01802800  0.81631200  0.14240400  1
loop_
_geom_bond_atom_site_label_1
_geom_bond_atom_site_label_2
_geom_bond_distance
_geom_bond_site_symmetry_2
Mg0 O5 2.019867 1_555
Mg0 O10 2.035425 1_465
Mg0 O1 2.049229 1_555
Mg0 O9 2.066168 1_455
Mg0 O6 2.158029 1_555
Mg0 O2 2.199771 1_555
Mn0 O4 1.869985 1_555
Mn0 O0 1.903172 1_455
Mn0 O5 1.928957 1_555
Mn0 O9 1.993134 1_455
Mn0 O8 2.016928 1_545
Mn0 O1 2.019720 1_545
Mn1 O7 1.902454 1_555
Mn1 O11 1.939729 1_655
Mn1 O10 1.957856 1_565
Mn1 O6 2.010577 1_555
Mn1 O3 2.193792 1_565
Mn1 O2 2.406609 1_655
Co0 O7 1.882097 1_455
Co0 O3 1.894099 1_555
Co0 O6 1.924644 1_545
Co0 O2 1.971701 1_555
Co0 O11 2.007529 1_545
Co0 O10 2.072892 1_455
Co1 O8 1.803801 1_555
Co1 O4 1.990861 1_655
Co1 O3 2.062815 1_656
Co1 O0 2.067316 1_555
Co1 O11 2.193450 1_656
Co1 O7 2.320569 1_556
Co2 O1 1.871574 1_555
Co2 O5 1.914251 1_565
Co2 O9 1.949012 1_555
Co2 O2 1.994238 1_565
Co2 O10 2.046743 1_565
Co2 O6 2.217974 1_555
Co3 O3 1.898886 1_555
Co3 O2 1.972346 1_555
Co3 O11 1.975640 1_555
Co3 O6 2.003032 1_555
Co3 O7 2.004965 1_555
Co3 O10 2.167730 1_555
Co4 O0 1.840157 1_555
Co4 O4 1.934866 1_555
Co4 O1 1.986901 1_555
Co4 O8 2.049315 1_555
Co4 O5 2.086074 1_555
Co4 O9 2.234858 1_555
