# generated using pymatgen
data_La4MgNiO8
_symmetry_space_group_name_H-M   'P 1'
_cell_length_a   5.01160344
_cell_length_b   8.82673759
_cell_length_c   8.82673729
_cell_angle_alpha   35.03813636
_cell_angle_beta   90.00000000
_cell_angle_gamma   90.00000000
_symmetry_Int_Tables_number   1
_chemical_formula_structural   La4MgNiO8
_chemical_formula_sum   'La4 Mg1 Ni1 O8'
_cell_volume   224.17178853
_cell_formula_units_Z   1
loop_
 _symmetry_equiv_pos_site_id
 _symmetry_equiv_pos_as_xyz
  1  'x, y, z'
loop_
 _atom_site_type_symbol
 _atom_site_label
 _atom_site_symmetry_multiplicity
 _atom_site_fract_x
 _atom_site_fract_y
 _atom_site_fract_z
 _atom_site_occupancy
  La  La0  1  -0.00000000  0.10096511  0.10096511  1
  La  La1  1  -0.00000000  0.89903489  0.89903489  1
  La  La2  1  0.50000000  0.32081405  0.32081405  1
  La  La3  1  0.50000000  0.67918595  0.67918595  1
  Mg  Mg0  1  0.50000000  0.50000000  0.50000000  1
  Ni  Ni0  1  0.50000000  -0.00000000  0.00000000  1
  O  O0  1  -0.00000000  0.33332225  0.33332225  1
  O  O1  1  -0.00000000  0.66667775  0.66667775  1
  O  O2  1  0.24227141  0.23564801  0.76435199  1
  O  O3  1  0.24227141  0.76435199  0.23564801  1
  O  O4  1  0.50000000  0.81122505  0.81122505  1
  O  O5  1  0.50000000  0.18877495  0.18877495  1
  O  O6  1  0.75772859  0.76435199  0.23564801  1
  O  O7  1  0.75772859  0.23564801  0.76435199  1
loop_
_geom_bond_atom_site_label_1
_geom_bond_atom_site_label_2
_geom_bond_distance
_geom_bond_site_symmetry_2
La0 O7 2.435442 1_454
La0 O2 2.435442 1_554
La0 O3 2.435442 1_545
La0 O6 2.435442 1_445
La0 O1 2.878144 1_545
La0 O1 2.878145 1_554
La0 O5 2.909340 1_455
La0 O5 2.909340 1_555
La1 O6 2.435442 1_456
La1 O3 2.435442 1_556
La1 O2 2.435442 1_565
La1 O7 2.435442 1_465
La1 O0 2.878144 1_565
La1 O0 2.878145 1_556
La1 O4 2.909340 1_455
La1 O4 2.909340 1_555
La2 O5 2.222832 1_555
La2 O0 2.514634 1_655
La2 O0 2.514634 1_555
La2 O4 2.661952 1_554
La2 O4 2.661952 1_545
La3 O4 2.222832 1_555
La3 O1 2.514634 1_555
La3 O1 2.514634 1_655
La3 O5 2.661952 1_556
La3 O5 2.661952 1_565
Mg0 O7 1.908341 1_555
Mg0 O3 1.908341 1_555
Mg0 O6 1.908341 1_555
Mg0 O2 1.908341 1_555
Ni0 O6 1.799019 1_545
Ni0 O3 1.799019 1_545
Ni0 O7 1.799019 1_554
Ni0 O2 1.799019 1_554
