# generated using pymatgen
data_MgMn4(CuO4)3
_symmetry_space_group_name_H-M   'P 1'
_cell_length_a   6.37827324
_cell_length_b   6.37478074
_cell_length_c   6.37475017
_cell_angle_alpha   110.64783791
_cell_angle_beta   107.31746080
_cell_angle_gamma   110.45271104
_symmetry_Int_Tables_number   1
_chemical_formula_structural   MgMn4(CuO4)3
_chemical_formula_sum   'Mg1 Mn4 Cu3 O12'
_cell_volume   199.36211983
_cell_formula_units_Z   1
loop_
 _symmetry_equiv_pos_site_id
 _symmetry_equiv_pos_as_xyz
  1  'x, y, z'
loop_
 _atom_site_type_symbol
 _atom_site_label
 _atom_site_symmetry_multiplicity
 _atom_site_fract_x
 _atom_site_fract_y
 _atom_site_fract_z
 _atom_site_occupancy
  Mg  Mg0  1  0.10222900  0.06255600  0.03986800  1
  Mn  Mn0  1  0.01578200  0.01170100  0.50313000  1
  Mn  Mn1  1  0.01576800  0.51263900  0.00408400  1
  Mn  Mn2  1  0.53119000  0.52467600  0.51851700  1
  Mn  Mn3  1  0.53113600  0.01269500  0.00652700  1
  Cu  Cu0  1  0.51457200  0.50709400  0.00743000  1
  Cu  Cu1  1  0.02416800  0.51616200  0.50804600  1
  Cu  Cu2  1  0.51600700  0.01527400  0.50080500  1
  O  O0  1  0.52363500  0.83647000  0.68725500  1
  O  O1  1  0.15478800  0.84181700  0.31297500  1
  O  O2  1  0.87740700  0.18897600  0.68839900  1
  O  O3  1  0.18519300  0.31116000  0.47486600  1
  O  O4  1  0.30580300  0.48231000  0.16046600  1
  O  O5  1  0.71458800  0.51906300  0.84603200  1
  O  O6  1  0.85817200  0.32136000  0.14317500  1
  O  O7  1  0.71505500  0.86858900  0.19503300  1
  O  O8  1  0.49288900  0.18851100  0.30435000  1
  O  O9  1  0.18503200  0.71031400  0.87401500  1
  O  O10  1  0.85807400  0.71497700  0.53674400  1
  O  O11  1  0.30559300  0.14532700  0.82370500  1
loop_
_geom_bond_atom_site_label_1
_geom_bond_atom_site_label_2
_geom_bond_distance
_geom_bond_site_symmetry_2
Mg0 O8 2.200472 1_555
Mg0 O11 2.226726 1_554
Mg0 O4 2.227975 1_555
Mg0 O3 2.433552 1_555
Mg0 O9 2.434296 1_544
Mg0 O1 2.614096 1_545
Mg0 O6 2.686576 1_455
Mg0 O10 2.687852 1_444
Mn0 O7 1.907759 1_445
Mn0 O10 1.928768 1_445
Mn0 O11 1.934362 1_555
Mn0 O3 1.939371 1_555
Mn0 O1 1.952787 1_545
Mn0 O2 1.956343 1_455
Mn1 O5 1.907592 1_454
Mn1 O6 1.928713 1_455
Mn1 O4 1.934267 1_555
Mn1 O9 1.939078 1_554
Mn1 O1 1.952718 1_555
Mn1 O2 1.956430 1_454
Mn2 O0 1.923531 1_555
Mn2 O10 1.954719 1_555
Mn2 O8 1.971849 1_555
Mn2 O3 2.017017 1_555
Mn2 O5 2.087253 1_555
Mn2 O4 2.165595 1_555
Mn3 O0 1.923186 1_544
Mn3 O6 1.955152 1_555
Mn3 O8 1.971370 1_555
Mn3 O9 2.017450 1_544
Mn3 O7 2.087226 1_545
Mn3 O11 2.165523 1_554
Cu0 O5 1.860300 1_554
Cu0 O7 1.860762 1_555
Cu0 O11 1.866636 1_554
Cu0 O4 1.866775 1_555
Cu1 O6 1.910807 1_455
Cu1 O10 1.911100 1_455
Cu1 O9 1.917915 1_555
Cu1 O3 1.918292 1_555
Cu2 O1 1.899493 1_545
Cu2 O2 1.900247 1_555
Cu2 O0 1.916789 1_545
Cu2 O8 1.946524 1_555
