# generated using pymatgen
data_Ba3(SnP2)2
_symmetry_space_group_name_H-M   'P 1'
_cell_length_a   7.95098669
_cell_length_b   7.94490769
_cell_length_c   19.48669696
_cell_angle_alpha   90.00000000
_cell_angle_beta   90.00000000
_cell_angle_gamma   112.81975719
_symmetry_Int_Tables_number   1
_chemical_formula_structural   Ba3(SnP2)2
_chemical_formula_sum   'Ba12 Sn8 P16'
_cell_volume   1134.62301074
_cell_formula_units_Z   4
loop_
 _symmetry_equiv_pos_site_id
 _symmetry_equiv_pos_as_xyz
  1  'x, y, z'
loop_
 _atom_site_type_symbol
 _atom_site_label
 _atom_site_symmetry_multiplicity
 _atom_site_fract_x
 _atom_site_fract_y
 _atom_site_fract_z
 _atom_site_occupancy
  Ba  Ba0  1  0.93333709  0.29648584  0.31185774  1
  Ba  Ba1  1  0.56666291  0.70351416  0.81185774  1
  Ba  Ba2  1  0.06666291  0.70351416  0.68814226  1
  Ba  Ba3  1  0.43333709  0.29648584  0.18814226  1
  Ba  Ba4  1  0.54423852  0.23192691  0.93711234  1
  Ba  Ba5  1  0.95576148  0.76807309  0.43711234  1
  Ba  Ba6  1  0.45576148  0.76807309  0.06288766  1
  Ba  Ba7  1  0.04423852  0.23192691  0.56288766  1
  Ba  Ba8  1  0.55015642  0.18266867  0.69482433  1
  Ba  Ba9  1  0.94984358  0.81733133  0.19482433  1
  Ba  Ba10  1  0.44984358  0.81733133  0.30517567  1
  Ba  Ba11  1  0.05015642  0.18266867  0.80517567  1
  Sn  Sn0  1  0.41500191  0.35306544  0.37939872  1
  Sn  Sn1  1  0.08499809  0.64693456  0.87939872  1
  Sn  Sn2  1  0.58499809  0.64693456  0.62060128  1
  Sn  Sn3  1  0.91500191  0.35306544  0.12060128  1
  Sn  Sn4  1  0.94595154  0.77287957  0.99387755  1
  Sn  Sn5  1  0.44595154  0.77287957  0.50612245  1
  Sn  Sn6  1  0.05404846  0.22712043  0.00612245  1
  Sn  Sn7  1  0.55404846  0.22712043  0.49387755  1
  P  P0  1  0.68410211  0.55643350  0.31042580  1
  P  P1  1  0.81589789  0.44356650  0.81042580  1
  P  P2  1  0.31589789  0.44356650  0.68957420  1
  P  P3  1  0.18410211  0.55643350  0.18957420  1
  P  P4  1  0.72270102  0.52930703  0.07111855  1
  P  P5  1  0.77729898  0.47069297  0.57111855  1
  P  P6  1  0.27729898  0.47069297  0.92888145  1
  P  P7  1  0.22270102  0.52930703  0.42888145  1
  P  P8  1  0.70208740  0.07030113  0.18029872  1
  P  P9  1  0.79791260  0.92969887  0.68029872  1
  P  P10  1  0.29791260  0.92969887  0.81970128  1
  P  P11  1  0.20208740  0.07030113  0.31970128  1
  P  P12  1  0.79086768  0.97446528  0.94374130  1
  P  P13  1  0.29086768  0.97446528  0.55625870  1
  P  P14  1  0.20913332  0.02553472  0.05625870  1
  P  P15  1  0.70913232  0.02553472  0.44374130  1
loop_
_geom_bond_atom_site_label_1
_geom_bond_atom_site_label_2
_geom_bond_distance
_geom_bond_site_symmetry_2
Ba0 P7 3.257929 1_655
Ba0 P8 3.258737 1_555
Ba0 P3 3.274883 1_655
Ba0 P11 3.285905 1_655
Ba0 P0 3.371588 1_555
Ba0 P15 3.382313 1_555
Ba1 P6 3.257929 1_555
Ba1 P9 3.258737 1_555
Ba1 P2 3.274883 1_555
Ba1 P10 3.285905 1_555
Ba1 P1 3.371588 1_555
Ba1 P12 3.382313 1_555
Ba2 P5 3.257929 1_455
Ba2 P10 3.258737 1_555
Ba2 P1 3.274883 1_455
Ba2 P9 3.285905 1_455
Ba2 P2 3.371588 1_555
Ba2 P13 3.382313 1_555
Ba3 P4 3.257929 1_555
Ba3 P11 3.258737 1_555
Ba3 P0 3.274883 1_555
Ba3 P8 3.285905 1_555
Ba3 P3 3.371588 1_555
Ba3 P14 3.382311 1_555
Ba4 P1 3.281781 1_555
Ba4 P12 3.340270 1_545
Ba4 P10 3.344911 1_545
Ba4 P6 3.354392 1_555
Ba4 P14 3.433607 1_556
Ba4 P4 3.437185 1_556
Ba5 P0 3.281781 1_555
Ba5 P15 3.340270 1_565
Ba5 P11 3.344911 1_665
Ba5 P7 3.354392 1_655
Ba5 P13 3.433612 1_655
Ba5 P5 3.437185 1_555
Ba6 P3 3.281781 1_555
Ba6 P14 3.340263 1_565
Ba6 P8 3.344911 1_565
Ba6 P4 3.354392 1_555
Ba6 P12 3.433612 1_554
Ba6 P6 3.437185 1_554
Ba7 P2 3.281781 1_555
Ba7 P13 3.340270 1_545
Ba7 P9 3.344911 1_445
Ba7 P5 3.354392 1_455
Ba7 P15 3.433612 1_455
Ba7 P7 3.437185 1_555
Ba8 P1 3.230848 1_555
Ba8 P2 3.281908 1_555
Ba8 P10 3.294962 1_545
Ba8 P9 3.327315 1_545
Ba8 P5 3.332199 1_555
Ba8 P13 3.410609 1_545
Ba9 P0 3.230848 1_555
Ba9 P3 3.281908 1_655
Ba9 P11 3.294962 1_665
Ba9 P8 3.327315 1_565
Ba9 P4 3.332199 1_555
Ba9 P14 3.410612 1_665
Ba10 P3 3.230848 1_555
Ba10 P0 3.281908 1_555
Ba10 P8 3.294962 1_565
Ba10 P11 3.327315 1_565
Ba10 P7 3.332199 1_555
Ba10 P15 3.410609 1_565
Ba11 P2 3.230848 1_555
Ba11 P1 3.281908 1_455
Ba11 P9 3.294962 1_445
Ba11 P10 3.327315 1_545
Ba11 P6 3.332199 1_555
Ba11 P12 3.410609 1_445
P0 Sn0 2.512671 1_555
P1 Sn1 2.512671 1_655
P2 Sn2 2.512671 1_555
P3 Sn3 2.512671 1_455
P4 Sn4 2.548881 1_554
P4 Sn3 2.624659 1_555
P5 Sn7 2.548881 1_555
P5 Sn2 2.624659 1_555
P6 Sn6 2.548881 1_556
P6 Sn1 2.624659 1_555
P7 Sn5 2.548881 1_555
P7 Sn0 2.624659 1_555
P8 Sn3 2.513185 1_555
P9 Sn2 2.513185 1_555
P10 Sn1 2.513185 1_555
P11 Sn0 2.513185 1_555
P12 Sn4 2.563564 1_555
P12 Sn6 2.574424 1_666
P13 Sn5 2.563564 1_555
P13 Sn7 2.574424 1_565
P14 Sn6 2.563570 1_555
P14 Sn4 2.574428 1_444
P15 Sn7 2.563564 1_555
P15 Sn5 2.574424 1_545
