# generated using pymatgen
data_DySn2
_symmetry_space_group_name_H-M   'P 1'
_cell_length_a   4.31444881
_cell_length_b   4.39059965
_cell_length_c   8.56566633
_cell_angle_alpha   104.85008511
_cell_angle_beta   90.00000000
_cell_angle_gamma   90.00000000
_symmetry_Int_Tables_number   1
_chemical_formula_structural   DySn2
_chemical_formula_sum   'Dy2 Sn4'
_cell_volume   156.84005207
_cell_formula_units_Z   2
loop_
 _symmetry_equiv_pos_site_id
 _symmetry_equiv_pos_as_xyz
  1  'x, y, z'
loop_
 _atom_site_type_symbol
 _atom_site_label
 _atom_site_symmetry_multiplicity
 _atom_site_fract_x
 _atom_site_fract_y
 _atom_site_fract_z
 _atom_site_occupancy
  Dy  Dy0  1  0.25000000  0.89949588  0.79899076  1
  Dy  Dy1  1  0.75000000  0.10050412  0.20100924  1
  Sn  Sn0  1  0.25000000  0.25171549  0.50342997  1
  Sn  Sn1  1  0.75000000  0.74828451  0.49657003  1
  Sn  Sn2  1  0.75000000  0.43910876  0.87821753  1
  Sn  Sn3  1  0.25000000  0.56089124  0.12178247  1
loop_
_geom_bond_atom_site_label_1
_geom_bond_atom_site_label_2
_geom_bond_distance
_geom_bond_site_symmetry_2
Dy0 Sn2 3.146941 1_565
Dy0 Sn2 3.146941 1_465
Dy0 Sn2 3.146944 1_455
Dy0 Sn2 3.146944 1_555
Dy0 Sn0 3.287509 1_555
Dy0 Sn0 3.287510 1_565
Dy0 Sn1 3.305027 1_555
Dy0 Sn1 3.305027 1_455
Dy0 Sn3 3.458612 1_566
Dy0 Sn3 3.458615 1_556
Dy1 Sn3 3.146941 1_645
Dy1 Sn3 3.146941 1_545
Dy1 Sn3 3.146944 1_555
Dy1 Sn3 3.146944 1_655
Dy1 Sn1 3.287509 1_555
Dy1 Sn1 3.287510 1_545
Dy1 Sn0 3.305027 1_655
Dy1 Sn0 3.305027 1_555
Dy1 Sn2 3.458612 1_544
Dy1 Sn2 3.458615 1_554
Sn0 Sn1 3.078338 1_455
Sn0 Sn1 3.078338 1_555
Sn0 Sn1 3.078344 1_545
Sn0 Sn1 3.078344 1_445
Sn2 Sn3 2.953023 1_556
Sn2 Sn3 2.953023 1_656
