# generated using pymatgen
data_Ta2InCuTe4
_symmetry_space_group_name_H-M   'P 1'
_cell_length_a   6.54538800
_cell_length_b   6.54538800
_cell_length_c   7.78902731
_cell_angle_alpha   114.84514562
_cell_angle_beta   114.84514562
_cell_angle_gamma   90.00000000
_symmetry_Int_Tables_number   1
_chemical_formula_structural   Ta2InCuTe4
_chemical_formula_sum   'Ta2 In1 Cu1 Te4'
_cell_volume   268.39781337
_cell_formula_units_Z   1
loop_
 _symmetry_equiv_pos_site_id
 _symmetry_equiv_pos_as_xyz
  1  'x, y, z'
loop_
 _atom_site_type_symbol
 _atom_site_label
 _atom_site_symmetry_multiplicity
 _atom_site_fract_x
 _atom_site_fract_y
 _atom_site_fract_z
 _atom_site_occupancy
  Ta  Ta0  1  0.25000000  0.75000000  0.50000000  1
  Ta  Ta1  1  0.75000000  0.25000000  0.50000000  1
  In  In0  1  0.00000000  0.00000000  0.00000000  1
  Cu  Cu0  1  0.50000000  0.50000000  0.00000000  1
  Te  Te0  1  0.85166900  0.42326400  0.27493300  1
  Te  Te1  1  0.42326400  0.85166900  0.27493300  1
  Te  Te2  1  0.14833100  0.14833100  0.72506700  1
  Te  Te3  1  0.57673600  0.57673600  0.72506700  1
loop_
_geom_bond_atom_site_label_1
_geom_bond_atom_site_label_2
_geom_bond_distance
_geom_bond_site_symmetry_2
Ta0 Te1 2.730050 1_555
Ta0 Te3 2.730050 1_555
Ta0 Te2 2.730050 1_565
Ta0 Te0 2.730050 1_455
Ta1 Te2 2.730050 1_655
Ta1 Te0 2.730050 1_555
Ta1 Te3 2.730050 1_555
Ta1 Te1 2.730050 1_545
In0 Te2 3.156799 1_554
In0 Te0 3.156799 1_455
In0 Te1 3.156799 1_545
In0 Te3 3.156799 1_444
Cu0 Te0 2.626423 1_555
Cu0 Te3 2.626423 1_554
Cu0 Te1 2.626423 1_555
Cu0 Te2 2.626423 1_554
