# generated using pymatgen
data_NpAsSe
_symmetry_space_group_name_H-M   'P 1'
_cell_length_a   3.98274568
_cell_length_b   3.98274568
_cell_length_c   8.73030290
_cell_angle_alpha   90.00000000
_cell_angle_beta   90.00000000
_cell_angle_gamma   90.00000000
_symmetry_Int_Tables_number   1
_chemical_formula_structural   NpAsSe
_chemical_formula_sum   'Np2 As2 Se2'
_cell_volume   138.48236199
_cell_formula_units_Z   2
loop_
 _symmetry_equiv_pos_site_id
 _symmetry_equiv_pos_as_xyz
  1  'x, y, z'
loop_
 _atom_site_type_symbol
 _atom_site_label
 _atom_site_symmetry_multiplicity
 _atom_site_fract_x
 _atom_site_fract_y
 _atom_site_fract_z
 _atom_site_occupancy
  Np  Np0  1  0.00000000  0.50000000  0.72754382  1
  Np  Np1  1  0.50000000  -0.00000000  0.27245618  1
  As  As0  1  0.00000000  -0.00000000  0.00000000  1
  As  As1  1  0.50000000  0.50000000  0.00000000  1
  Se  Se0  1  0.50000000  -0.00000000  0.63044432  1
  Se  Se1  1  0.00000000  0.50000000  0.36955568  1
loop_
_geom_bond_atom_site_label_1
_geom_bond_atom_site_label_2
_geom_bond_distance
_geom_bond_site_symmetry_2
Np0 Se0 2.941044 1_565
Np0 Se0 2.941044 1_465
Np0 Se0 2.941044 1_455
Np0 Se0 2.941044 1_555
Np0 Se1 3.125345 1_555
Np1 Se1 2.941044 1_645
Np1 Se1 2.941044 1_555
Np1 Se1 2.941044 1_655
Np1 Se1 2.941044 1_545
Np1 Se0 3.125345 1_555
As0 As1 2.816226 1_445
As0 As1 2.816226 1_455
As0 As1 2.816226 1_555
As0 As1 2.816226 1_545
As0 Np0 3.102164 1_554
As0 Np0 3.102164 1_544
As0 Np1 3.102164 1_555
As0 Np1 3.102164 1_455
As1 Np0 3.102164 1_554
As1 Np0 3.102164 1_654
As1 Np1 3.102164 1_565
As1 Np1 3.102164 1_555
