# generated using pymatgen
data_NaAlInP(SO6)2
_symmetry_space_group_name_H-M   'P 1'
_cell_length_a   8.59011042
_cell_length_b   8.57822938
_cell_length_c   22.54104922
_cell_angle_alpha   90.02671660
_cell_angle_beta   89.85020365
_cell_angle_gamma   119.99452191
_symmetry_Int_Tables_number   1
_chemical_formula_structural   NaAlInP(SO6)2
_chemical_formula_sum   'Na6 Al6 In6 P6 S12 O72'
_cell_volume   1438.54496879
_cell_formula_units_Z   6
loop_
 _symmetry_equiv_pos_site_id
 _symmetry_equiv_pos_as_xyz
  1  'x, y, z'
loop_
 _atom_site_type_symbol
 _atom_site_label
 _atom_site_symmetry_multiplicity
 _atom_site_fract_x
 _atom_site_fract_y
 _atom_site_fract_z
 _atom_site_occupancy
  Na  Na0  1  0.98560047  0.99047885  0.50060717  1
  Na  Na1  1  0.00514370  0.98812253  0.00036831  1
  Na  Na2  1  0.65764122  0.31165224  0.83115020  1
  Na  Na3  1  0.65666817  0.31516888  0.33743106  1
  Na  Na4  1  0.31947137  0.67404070  0.16663607  1
  Na  Na5  1  0.34826328  0.67150580  0.66276410  1
  Al  Al0  1  0.00046955  0.00150577  0.35538415  1
  Al  Al1  1  0.98344686  0.98790807  0.64451291  1
  Al  Al2  1  0.66484840  0.33173484  0.67999465  1
  Al  Al3  1  0.67053707  0.33390396  0.48630765  1
  Al  Al4  1  0.32420390  0.67307065  0.01710921  1
  Al  Al5  1  0.36092468  0.67580561  0.51884741  1
  In  In0  1  0.99737020  0.00104855  0.85039993  1
  In  In1  1  0.00530121  0.99243725  0.14925569  1
  In  In2  1  0.66342092  0.33120422  0.18611539  1
  In  In3  1  0.66562554  0.33025596  0.98279473  1
  In  In4  1  0.33880729  0.68270749  0.32334400  1
  In  In5  1  0.34329411  0.68267101  0.80866193  1
  P  P0  1  0.28936528  0.00309731  0.25576083  1
  P  P1  1  0.71599988  0.01614867  0.74252741  1
  P  P2  1  0.66665534  0.61549424  0.58281099  1
  P  P3  1  0.97269314  0.62838434  0.08147720  1
  P  P4  1  0.33004568  0.95687204  0.91806036  1
  P  P5  1  0.64009216  0.97475839  0.42155650  1
  S  S0  1  0.71041691  0.71080766  0.25542394  1
  S  S1  1  0.00172625  0.28803456  0.25499352  1
  S  S2  1  0.29611007  0.28502695  0.74198000  1
  S  S3  1  0.98636344  0.69960694  0.74217893  1
  S  S4  1  0.95978986  0.33616175  0.58292106  1
  S  S5  1  0.37603500  0.04275359  0.58277322  1
  S  S6  1  0.65677618  0.01887239  0.08179132  1
  S  S7  1  0.36346031  0.34817050  0.08074691  1
  S  S8  1  0.61766174  0.66766790  0.91921237  1
  S  S9  1  0.05153099  0.38225453  0.91750010  1
  S  S10  1  0.33594365  0.37024836  0.42121681  1
  S  S11  1  0.03365259  0.66355771  0.42252080  1
  O  O0  1  0.18345095  0.01223938  0.30980235  1
  O  O1  1  0.81877820  0.81202111  0.30740452  1
  O  O2  1  0.98607556  0.17541446  0.30692571  1
  O  O3  1  0.23334328  0.18935470  0.79993104  1
  O  O4  1  0.95848105  0.76553794  0.80010202  1
  O  O5  1  0.81352272  0.04861261  0.80321291  1
  O  O6  1  0.81769284  0.99057601  0.69129755  1
  O  O7  1  0.17717732  0.18532690  0.69209885  1
  O  O8  1  0.01548863  0.82411788  0.69278988  1
  O  O9  1  0.77798063  0.80645248  0.19829990  1
  O  O10  1  0.01571644  0.21269705  0.19744584  1
  O  O11  1  0.20085963  0.98431606  0.19521558  1
  O  O12  1  0.87667966  0.36646598  0.63593617  1
  O  O13  1  0.49047428  0.12173145  0.63580000  1
  O  O14  1  0.63361492  0.49601058  0.63741940  1
  O  O15  1  0.89107713  0.51771276  0.13906428  1
  O  O16  1  0.62033450  0.09393664  0.13606850  1
  O  O17  1  0.46857770  0.37626250  0.13592550  1
  O  O18  1  0.44139467  0.30582131  0.02918613  1
  O  O19  1  0.85589376  0.54560385  0.02665342  1
  O  O20  1  0.69082755  0.13165816  0.02880579  1
  O  O21  1  0.45857038  0.15728838  0.52988449  1
  O  O22  1  0.69659069  0.52692070  0.52810123  1
  O  O23  1  0.84311806  0.30001643  0.53042354  1
  O  O24  1  0.51720911  0.67351656  0.97153188  1
  O  O25  1  0.15736756  0.47749151  0.97045473  1
  O  O26  1  0.31929924  0.84482317  0.97252977  1
  O  O27  1  0.54357855  0.83913640  0.47280400  1
  O  O28  1  0.30289689  0.46327939  0.47134747  1
  O  O29  1  0.15996471  0.69468179  0.47181759  1
  O  O30  1  0.09151980  0.61545539  0.36635101  1
  O  O31  1  0.52918952  0.91671688  0.36389335  1
  O  O32  1  0.37426262  0.47517663  0.36536799  1
  O  O33  1  0.13185671  0.47403441  0.86105518  1
  O  O34  1  0.35354192  0.88497194  0.85845240  1
  O  O35  1  0.52359800  0.64475556  0.86244888  1
  O  O36  1  0.02080361  0.82974984  0.41408110  1
  O  O37  1  0.82620624  0.98854770  0.41071576  1
  O  O38  1  0.17143534  0.19020857  0.41411329  1
  O  O39  1  0.03677466  0.20211613  0.91870405  1
  O  O40  1  0.15445304  0.96669642  0.91663289  1
  O  O41  1  0.79303282  0.83869048  0.91896140  1
  O  O42  1  0.98160931  0.17415031  0.59014035  1
  O  O43  1  0.19496904  0.02418294  0.59122205  1
  O  O44  1  0.83562284  0.80699853  0.59085321  1
  O  O45  1  0.99744299  0.81919982  0.08410804  1
  O  O46  1  0.81734019  0.00036162  0.08795030  1
  O  O47  1  0.17710778  0.19573936  0.08566886  1
  O  O48  1  0.69150527  0.18069007  0.73222473  1
  O  O49  1  0.47818267  0.30958109  0.73378250  1
  O  O50  1  0.82508944  0.52184806  0.73321115  1
  O  O51  1  0.70970451  0.53766411  0.25394536  1
  O  O52  1  0.83636803  0.30259964  0.25440631  1
  O  O53  1  0.47557240  0.17948911  0.25425395  1
  O  O54  1  0.64673458  0.51223275  0.92166596  1
  O  O55  1  0.87041825  0.36245873  0.91947378  1
  O  O56  1  0.49701017  0.14759293  0.92116056  1
  O  O57  1  0.66382424  0.16167265  0.43588469  1
  O  O58  1  0.49287376  0.34617211  0.43176314  1
  O  O59  1  0.85111875  0.50913042  0.43314969  1
  O  O60  1  0.35647526  0.51346994  0.07075120  1
  O  O61  1  0.15837257  0.64508809  0.07370200  1
  O  O62  1  0.49840274  0.83959211  0.07291668  1
  O  O63  1  0.35552125  0.85983796  0.57404159  1
  O  O64  1  0.49706701  0.63674998  0.57390052  1
  O  O65  1  0.13967325  0.49952796  0.57389467  1
  O  O66  1  0.30959697  0.83429628  0.25772711  1
  O  O67  1  0.52533303  0.67874905  0.25946334  1
  O  O68  1  0.16485466  0.46674896  0.25968148  1
  O  O69  1  0.30795731  0.46432604  0.74517502  1
  O  O70  1  0.14796749  0.67841537  0.74406139  1
  O  O71  1  0.52821691  0.84214971  0.74362618  1
loop_
_geom_bond_atom_site_label_1
_geom_bond_atom_site_label_2
_geom_bond_distance
_geom_bond_site_symmetry_2
Na0 O37 2.443869 1_555
Na0 O36 2.491535 1_655
Na0 O44 2.497412 1_555
Na0 O38 2.556799 1_665
Na0 O42 2.570470 1_565
Na0 O43 2.643668 1_665
Na1 O40 2.337545 1_554
Na1 O45 2.360755 1_455
Na1 O41 2.451596 1_454
Na1 O39 2.516734 1_564
Na1 O47 2.536190 1_565
Na1 O46 2.581382 1_465
Na2 O56 2.459177 1_555
Na2 O48 2.576839 1_555
Na2 O55 2.591559 1_555
Na2 O49 2.680305 1_555
Na2 O54 2.699841 1_555
Na2 O50 2.754606 1_555
Na3 O53 2.343675 1_555
Na3 O52 2.459259 1_555
Na3 O51 2.553668 1_555
Na3 O57 2.597494 1_555
Na3 O58 2.632436 1_555
Na3 O59 2.729549 1_555
Na4 O61 2.456846 1_555
Na4 O66 2.495206 1_555
Na4 O62 2.577878 1_555
Na4 O68 2.636744 1_555
Na4 O60 2.664792 1_555
Na4 O67 2.730362 1_555
Na5 O71 2.367371 1_555
Na5 O64 2.470264 1_555
Na5 O69 2.472591 1_555
Na5 O70 2.531280 1_555
Na5 O63 2.552481 1_555
Na5 O65 2.602480 1_555
Al0 O0 1.838953 1_555
Al0 O2 1.902794 1_455
Al0 O37 1.905984 1_445
Al0 O1 1.928307 1_445
Al0 O38 2.039825 1_555
Al0 O36 2.052368 1_545
Al1 O6 1.778959 1_555
Al1 O44 1.876109 1_555
Al1 O8 1.903609 1_655
Al1 O7 1.994440 1_665
Al1 O42 2.020381 1_565
Al1 O43 2.065163 1_665
Al2 O14 1.832881 1_555
Al2 O48 1.848466 1_555
Al2 O50 1.937945 1_555
Al2 O49 1.939751 1_555
Al2 O13 1.946669 1_555
Al2 O12 1.958311 1_555
Al3 O22 1.818850 1_555
Al3 O57 1.841624 1_555
Al3 O23 1.926138 1_555
Al3 O59 1.939617 1_555
Al3 O21 1.951785 1_555
Al3 O58 2.005583 1_555
Al4 O26 1.801640 1_554
Al4 O61 1.833864 1_555
Al4 O25 1.891248 1_554
Al4 O62 1.932129 1_555
Al4 O24 1.946534 1_554
Al4 O60 1.948348 1_555
Al5 O27 1.815738 1_555
Al5 O64 1.849219 1_555
Al5 O28 1.952158 1_555
Al5 O63 2.028142 1_555
Al5 O29 2.102200 1_555
Al5 O65 2.134095 1_555
In0 O5 2.108402 1_555
In0 O40 2.131911 1_645
In0 O3 2.174446 1_655
In0 O4 2.191702 1_545
In0 O39 2.208292 1_655
In0 O41 2.225472 1_545
In1 O11 2.006552 1_555
In1 O45 2.065824 1_455
In1 O9 2.110940 1_455
In1 O10 2.141849 1_565
In1 O46 2.154688 1_465
In1 O47 2.166056 1_565
In2 O15 2.090783 1_555
In2 O53 2.132092 1_555
In2 O16 2.190676 1_555
In2 O17 2.210836 1_555
In2 O51 2.220151 1_555
In2 O52 2.239131 1_555
In3 O19 2.012266 1_556
In3 O56 2.054905 1_555
In3 O20 2.096761 1_556
In3 O18 2.105605 1_556
In3 O54 2.149012 1_555
In3 O55 2.170176 1_555
In4 O31 2.064788 1_555
In4 O66 2.066768 1_555
In4 O30 2.132937 1_555
In4 O67 2.164290 1_555
In4 O32 2.168996 1_555
In4 O68 2.228235 1_555
In5 O34 2.030982 1_555
In5 O71 2.088274 1_555
In5 O35 2.118600 1_555
In5 O33 2.153461 1_555
In5 O70 2.210996 1_555
In5 O69 2.253791 1_555
O0 P0 1.543783 1_555
O1 S0 1.479818 1_555
O2 S1 1.480567 1_655
O3 S2 1.491813 1_555
O4 S3 1.488310 1_555
O5 P1 1.556573 1_555
O6 P1 1.526699 1_565
O7 S2 1.473404 1_555
O8 S3 1.474878 1_455
O9 S0 1.479521 1_555
O10 S1 1.480150 1_555
O11 P0 1.532735 1_565
O12 S4 1.478560 1_555
O13 S5 1.481067 1_555
O14 P2 1.534529 1_555
O15 P3 1.552008 1_555
O16 S6 1.486031 1_555
O17 S7 1.486087 1_555
O18 S7 1.472972 1_555
O19 P3 1.526888 1_555
O20 S6 1.471186 1_555
O21 S5 1.479678 1_555
O22 P2 1.535274 1_555
O23 S4 1.481913 1_555
O24 S8 1.475078 1_555
O25 S9 1.476799 1_555
O26 P4 1.533516 1_555
O27 P5 1.551495 1_555
O28 S10 1.489409 1_555
O29 S11 1.483151 1_555
O30 S11 1.490549 1_555
O31 P5 1.541604 1_555
O32 S10 1.485258 1_555
O33 S9 1.472402 1_555
O34 P4 1.532565 1_555
O35 S8 1.474805 1_555
O36 S11 1.496161 1_555
O37 P5 1.561595 1_555
O38 S10 1.492206 1_555
O39 S9 1.486216 1_555
O40 P4 1.552624 1_555
O41 S8 1.487277 1_555
O42 S4 1.501296 1_555
O43 S5 1.493850 1_555
O44 P2 1.566956 1_555
O45 P3 1.542743 1_555
O46 S6 1.472023 1_555
O47 S7 1.480204 1_555
O48 P1 1.545304 1_555
O49 S2 1.481157 1_555
O50 S3 1.474559 1_555
O51 S0 1.482575 1_555
O52 S1 1.486942 1_655
O53 P0 1.558556 1_555
O54 S8 1.475246 1_555
O55 S9 1.478770 1_655
O56 P4 1.546902 1_545
O57 P5 1.545894 1_545
O58 S10 1.482056 1_555
O59 S11 1.480672 1_655
O60 S7 1.466445 1_555
O61 P3 1.537969 1_455
O62 S6 1.471473 1_565
O63 S5 1.501759 1_565
O64 P2 1.569378 1_555
O65 S4 1.492153 1_455
O66 P0 1.542927 1_565
O67 S0 1.474375 1_555
O68 S1 1.475724 1_555
O69 S2 1.491520 1_555
O70 S3 1.488141 1_455
O71 P1 1.556610 1_565
