# generated using pymatgen
data_Ni10SnP3
_symmetry_space_group_name_H-M   'P 1'
_cell_length_a   7.67167437
_cell_length_b   7.67167437
_cell_length_c   9.61018700
_cell_angle_alpha   90.00000000
_cell_angle_beta   90.00000000
_cell_angle_gamma   120.00000318
_symmetry_Int_Tables_number   1
_chemical_formula_structural   Ni10SnP3
_chemical_formula_sum   'Ni30 Sn3 P9'
_cell_volume   489.82706422
_cell_formula_units_Z   3
loop_
 _symmetry_equiv_pos_site_id
 _symmetry_equiv_pos_as_xyz
  1  'x, y, z'
loop_
 _atom_site_type_symbol
 _atom_site_label
 _atom_site_symmetry_multiplicity
 _atom_site_fract_x
 _atom_site_fract_y
 _atom_site_fract_z
 _atom_site_occupancy
  Ni  Ni0  1  0.00000000  0.00000000  0.61978200  1
  Ni  Ni1  1  0.00000000  0.33784500  0.50000000  1
  Ni  Ni2  1  0.66215500  0.66215500  0.50000000  1
  Ni  Ni3  1  0.66215500  0.00000000  0.50000000  1
  Ni  Ni4  1  0.00000000  0.66215500  0.50000000  1
  Ni  Ni5  1  0.33784500  0.33784500  0.50000000  1
  Ni  Ni6  1  0.18915900  0.81084100  0.07270800  1
  Ni  Ni7  1  0.18915900  0.37831700  0.07270800  1
  Ni  Ni8  1  0.62168300  0.81084100  0.07270800  1
  Ni  Ni9  1  0.37831700  0.18915900  0.92729200  1
  Ni  Ni10  1  0.33784500  0.00000000  0.50000000  1
  Ni  Ni11  1  0.81084100  0.18915900  0.92729200  1
  Ni  Ni12  1  0.13763700  0.86236300  0.80047000  1
  Ni  Ni13  1  0.13763700  0.27527500  0.80047000  1
  Ni  Ni14  1  0.72472500  0.86236300  0.80047000  1
  Ni  Ni15  1  0.27527500  0.13763700  0.19953000  1
  Ni  Ni16  1  0.86236300  0.72472500  0.19953000  1
  Ni  Ni17  1  0.86236300  0.13763700  0.19953000  1
  Ni  Ni18  1  0.49066000  0.50934000  0.24026000  1
  Ni  Ni19  1  0.49066000  0.98131900  0.24026000  1
  Ni  Ni20  1  0.01868100  0.50934000  0.24026000  1
  Ni  Ni21  1  0.98131900  0.49066000  0.75974000  1
  Ni  Ni22  1  0.50934000  0.01868100  0.75974000  1
  Ni  Ni23  1  0.50934000  0.49066000  0.75974000  1
  Ni  Ni24  1  0.66666700  0.33333300  0.09613200  1
  Ni  Ni25  1  0.33333300  0.66666700  0.90386800  1
  Ni  Ni26  1  0.66666700  0.33333300  0.61585500  1
  Ni  Ni27  1  0.33333300  0.66666700  0.38414500  1
  Ni  Ni28  1  0.81084100  0.62168300  0.92729200  1
  Ni  Ni29  1  0.00000000  0.00000000  0.38021800  1
  Sn  Sn0  1  0.66666700  0.33333300  0.36056500  1
  Sn  Sn1  1  0.33333300  0.66666700  0.63943500  1
  Sn  Sn2  1  0.00000000  0.00000000  0.00000000  1
  P  P0  1  0.83556200  0.16443800  0.69094700  1
  P  P1  1  0.83556200  0.67112400  0.69094700  1
  P  P2  1  0.32887600  0.16443800  0.69094700  1
  P  P3  1  0.16443800  0.83556200  0.30905300  1
  P  P4  1  0.50000000  0.50000000  0.00000000  1
  P  P5  1  0.00000000  0.50000000  0.00000000  1
  P  P6  1  0.50000000  0.00000000  0.00000000  1
  P  P7  1  0.67112400  0.83556200  0.30905300  1
  P  P8  1  0.16443800  0.32887600  0.30905300  1
loop_
_geom_bond_atom_site_label_1
_geom_bond_atom_site_label_2
_geom_bond_distance
_geom_bond_site_symmetry_2
Ni0 P2 2.289539 1_555
Ni0 P1 2.289539 1_445
Ni0 P0 2.289539 1_455
Ni1 P0 2.247290 1_455
Ni1 P8 2.247290 1_555
Ni1 Sn0 2.871873 1_455
Ni1 Sn1 2.871877 1_555
Ni2 P1 2.247290 1_555
Ni2 P7 2.247290 1_555
Ni2 Sn1 2.871880 1_555
Ni2 Sn0 2.871880 1_555
Ni3 P0 2.247290 1_555
Ni3 P7 2.247290 1_545
Ni3 Sn0 2.871873 1_555
Ni3 Sn1 2.871877 1_545
Ni4 P3 2.247290 1_555
Ni4 P1 2.247290 1_455
Ni4 Sn1 2.871873 1_555
Ni4 Sn0 2.871877 1_455
Ni5 P2 2.247290 1_555
Ni5 P8 2.247290 1_555
Ni5 Sn1 2.871880 1_555
Ni5 Sn0 2.871880 1_555
Ni6 P5 2.195500 1_555
Ni6 P6 2.195500 1_565
Ni6 P3 2.294950 1_555
Ni6 Sn2 2.608809 1_565
Ni7 P4 2.195499 1_555
Ni7 P5 2.195506 1_555
Ni7 P8 2.294949 1_555
Ni7 Sn2 2.608803 1_555
Ni8 P4 2.195499 1_555
Ni8 P6 2.195506 1_565
Ni8 P7 2.294949 1_555
Ni8 Sn2 2.608803 1_665
Ni9 P4 2.195499 1_556
Ni9 P6 2.195506 1_556
Ni9 P2 2.294949 1_555
Ni9 Sn2 2.608803 1_556
Ni10 P3 2.247290 1_545
Ni10 P2 2.247290 1_555
Ni10 Sn1 2.871873 1_545
Ni10 Sn0 2.871877 1_555
Ni11 P6 2.195500 1_556
Ni11 P5 2.195500 1_656
Ni11 P0 2.294950 1_555
Ni11 Ni24 2.510549 1_556
Ni11 Sn2 2.608809 1_656
Ni12 P1 2.287090 1_455
Ni12 P2 2.287090 1_565
Ni12 Sn2 2.649849 1_566
Ni12 Ni25 2.783745 1_555
Ni12 Sn1 3.026027 1_555
Ni13 P0 2.287089 1_455
Ni13 P2 2.287096 1_555
Ni13 Sn2 2.649853 1_556
Ni13 Ni25 2.783745 1_555
Ni13 Sn1 3.026027 1_555
Ni14 P0 2.287089 1_565
Ni14 P1 2.287096 1_555
Ni14 Sn2 2.649853 1_666
Ni14 Ni25 2.783745 1_555
Ni14 Sn1 3.026027 1_555
Ni15 P3 2.287089 1_545
Ni15 P8 2.287096 1_555
Ni15 Sn2 2.649853 1_555
Ni15 Ni24 2.783745 1_555
Ni15 Sn0 3.026027 1_555
Ni16 P3 2.287089 1_655
Ni16 P7 2.287096 1_555
Ni16 Sn2 2.649853 1_665
Ni16 Ni24 2.783745 1_555
Ni16 Sn0 3.026027 1_555
Ni17 P7 2.287090 1_545
Ni17 P8 2.287090 1_655
Ni17 Sn2 2.649849 1_655
Ni17 Ni24 2.783745 1_555
Ni17 Sn0 3.026027 1_555
Ni18 P7 2.269869 1_555
Ni18 P8 2.269869 1_555
Ni18 P4 2.312277 1_555
Ni18 Sn0 2.608901 1_555
Ni18 Ni24 2.718118 1_555
Ni19 P7 2.269863 1_555
Ni19 P3 2.269870 1_555
Ni19 P6 2.312277 1_565
Ni19 Sn0 2.608901 1_565
Ni19 Ni24 2.718118 1_565
Ni20 P8 2.269863 1_555
Ni20 P3 2.269870 1_555
Ni20 P5 2.312277 1_555
Ni20 Sn0 2.608901 1_455
Ni20 Ni24 2.718118 1_455
Ni21 P1 2.269863 1_555
Ni21 P0 2.269870 1_555
Ni21 P5 2.312277 1_656
Ni21 Sn1 2.608901 1_655
Ni21 Ni25 2.718118 1_655
Ni22 P2 2.269863 1_555
Ni22 P0 2.269870 1_555
Ni22 P6 2.312277 1_556
Ni22 Sn1 2.608901 1_545
Ni22 Ni25 2.718118 1_545
Ni23 P1 2.269869 1_555
Ni23 P2 2.269869 1_555
Ni23 P4 2.312277 1_556
Ni23 Sn1 2.608901 1_555
Ni23 Ni25 2.718118 1_555
Ni24 P5 2.399590 1_655
Ni24 P6 2.399590 1_555
Ni24 P4 2.399596 1_555
Ni24 Ni28 2.510559 1_554
Ni24 Ni9 2.510559 1_554
Ni24 Sn0 2.541251 1_555
Ni25 P6 2.399590 1_566
Ni25 P5 2.399590 1_556
Ni25 P4 2.399596 1_556
Ni25 Ni6 2.510549 1_556
Ni25 Ni8 2.510559 1_556
Ni25 Ni7 2.510559 1_556
Ni25 Sn1 2.541251 1_555
Ni26 P0 2.357403 1_555
Ni26 P1 2.357409 1_555
Ni26 P2 2.357409 1_555
Ni26 Sn0 2.453385 1_555
Ni27 P3 2.357403 1_555
Ni27 P7 2.357409 1_555
Ni27 P8 2.357409 1_555
Ni27 Sn1 2.453385 1_555
Ni28 P4 2.195499 1_556
Ni28 P5 2.195506 1_656
Ni28 P1 2.294949 1_555
Ni28 Sn2 2.608803 1_666
Ni29 P8 2.289539 1_555
Ni29 P7 2.289539 1_445
Ni29 P3 2.289539 1_545
