# generated using pymatgen
data_Na9Ca11Ta(SO4)18
_symmetry_space_group_name_H-M   'P 1'
_cell_length_a   9.22794558
_cell_length_b   9.23050332
_cell_length_c   24.18403858
_cell_angle_alpha   89.90001037
_cell_angle_beta   90.14737104
_cell_angle_gamma   120.28144413
_symmetry_Int_Tables_number   1
_chemical_formula_structural   Na9Ca11Ta(SO4)18
_chemical_formula_sum   'Na9 Ca11 Ta1 S18 O72'
_cell_volume   1778.89250193
_cell_formula_units_Z   1
loop_
 _symmetry_equiv_pos_site_id
 _symmetry_equiv_pos_as_xyz
  1  'x, y, z'
loop_
 _atom_site_type_symbol
 _atom_site_label
 _atom_site_symmetry_multiplicity
 _atom_site_fract_x
 _atom_site_fract_y
 _atom_site_fract_z
 _atom_site_occupancy
  Na  Na0  1  0.36154951  0.36193821  0.25435613  1
  Na  Na1  1  0.30402302  0.97199171  0.08906704  1
  Na  Na2  1  0.97192260  0.30469259  0.41988369  1
  Na  Na3  1  0.99969037  0.98427367  0.50252637  1
  Na  Na4  1  0.98534162  0.99979353  0.00644673  1
  Na  Na5  1  0.66661023  0.33310995  0.83079306  1
  Na  Na6  1  0.66778438  0.33431023  0.33806963  1
  Na  Na7  1  0.33391948  0.66718167  0.17228599  1
  Na  Na8  1  0.33400006  0.66722262  0.65012452  1
  Ca  Ca0  1  0.99515067  0.98583770  0.35027745  1
  Ca  Ca1  1  0.00090898  0.99962328  0.84945002  1
  Ca  Ca2  1  0.00045276  0.00131100  0.64831203  1
  Ca  Ca3  1  0.98585842  0.99560646  0.15241890  1
  Ca  Ca4  1  0.66758910  0.33388018  0.67908484  1
  Ca  Ca5  1  0.68148863  0.33871693  0.18362267  1
  Ca  Ca6  1  0.67112868  0.33867007  0.98056546  1
  Ca  Ca7  1  0.65755305  0.33381747  0.48652636  1
  Ca  Ca8  1  0.33370344  0.65750280  0.01882557  1
  Ca  Ca9  1  0.33940827  0.67198213  0.51646747  1
  Ca  Ca10  1  0.33811000  0.68097018  0.31943352  1
  Ta  Ta0  1  0.33315716  0.66661489  0.81570698  1
  S  S0  1  0.30019462  0.00239119  0.24662525  1
  S  S1  1  0.69200451  0.69320155  0.24947947  1
  S  S2  1  0.00476893  0.30116458  0.25206950  1
  S  S3  1  0.30248915  0.31155511  0.75485400  1
  S  S4  1  0.00881807  0.69776334  0.75487370  1
  S  S5  1  0.68971101  0.99201115  0.75477693  1
  S  S6  1  0.96917047  0.33380035  0.58254180  1
  S  S7  1  0.36394650  0.03010913  0.58490259  1
  S  S8  1  0.66587456  0.63508572  0.58473963  1
  S  S9  1  0.97000372  0.63875288  0.08153324  1
  S  S10  1  0.66478435  0.03682197  0.08131016  1
  S  S11  1  0.36818372  0.32836022  0.08411914  1
  S  S12  1  0.61784844  0.66514808  0.91280979  1
  S  S13  1  0.04630506  0.38079434  0.91257976  1
  S  S14  1  0.33496704  0.95194122  0.91417587  1
  S  S15  1  0.63950281  0.97404752  0.41688467  1
  S  S16  1  0.33109856  0.36702012  0.41383129  1
  S  S17  1  0.03245921  0.66183395  0.41724119  1
  O  O0  1  0.21047688  0.01965543  0.29446573  1
  O  O1  1  0.79037197  0.77646388  0.29921970  1
  O  O2  1  0.98860471  0.20588972  0.30320879  1
  O  O3  1  0.21943658  0.20707359  0.80340813  1
  O  O4  1  0.98796234  0.78080978  0.80346980  1
  O  O5  1  0.79451735  0.01325283  0.80339029  1
  O  O6  1  0.74876399  0.95119421  0.70481021  1
  O  O7  1  0.20157843  0.25129995  0.70476999  1
  O  O8  1  0.04971405  0.79833813  0.70484131  1
  O  O9  1  0.77378861  0.78920261  0.19906733  1
  O  O10  1  0.02148804  0.21394678  0.20289310  1
  O  O11  1  0.20707698  0.98521348  0.19404607  1
  O  O12  1  0.88126592  0.34729143  0.63202958  1
  O  O13  1  0.46140821  0.11395530  0.63568006  1
  O  O14  1  0.65198324  0.53807793  0.63557837  1
  O  O15  1  0.88874893  0.54168176  0.13172205  1
  O  O16  1  0.64710434  0.11912841  0.13109042  1
  O  O17  1  0.46225009  0.34428905  0.13559761  1
  O  O18  1  0.45655636  0.31236195  0.03502904  1
  O  O19  1  0.87248925  0.55488646  0.03137803  1
  O  O20  1  0.68179617  0.13564592  0.03080693  1
  O  O21  1  0.44770876  0.12846756  0.53499772  1
  O  O22  1  0.67986467  0.55148199  0.53488715  1
  O  O23  1  0.87546689  0.31947266  0.53091953  1
  O  O24  1  0.54136095  0.68034194  0.96360289  1
  O  O25  1  0.13876061  0.45794470  0.96337954  1
  O  O26  1  0.32016344  0.86267847  0.96577219  1
  O  O27  1  0.55595216  0.87520842  0.46621363  1
  O  O28  1  0.31343066  0.45639364  0.46155960  1
  O  O29  1  0.13222269  0.67868316  0.46684143  1
  O  O30  1  0.11460511  0.64447980  0.36679534  1
  O  O31  1  0.54354213  0.89325738  0.36614211  1
  O  O32  1  0.34824365  0.45985720  0.36123784  1
  O  O33  1  0.15045208  0.49253595  0.86326417  1
  O  O34  1  0.34289883  0.84663903  0.86531362  1
  O  O35  1  0.50627382  0.65722387  0.86347414  1
  O  O36  1  0.01025611  0.80931814  0.41334997  1
  O  O37  1  0.81248985  0.99694161  0.41376896  1
  O  O38  1  0.17180146  0.19981023  0.41142803  1
  O  O39  1  0.02834134  0.21449817  0.90574108  1
  O  O40  1  0.18547344  0.96785811  0.90630156  1
  O  O41  1  0.78471229  0.81472233  0.90596412  1
  O  O42  1  0.98435702  0.18089877  0.58751469  1
  O  O43  1  0.19439997  0.01277699  0.58834394  1
  O  O44  1  0.81924088  0.80486382  0.58822666  1
  O  O45  1  0.99275273  0.81160429  0.08433206  1
  O  O46  1  0.81176976  0.01316885  0.08488856  1
  O  O47  1  0.20003977  0.16922676  0.08596793  1
  O  O48  1  0.65957958  0.13275346  0.74949133  1
  O  O49  1  0.47433106  0.34340054  0.74961329  1
  O  O50  1  0.86793912  0.52588702  0.74964360  1
  O  O51  1  0.66874190  0.52024454  0.24673145  1
  O  O52  1  0.85713615  0.32256697  0.24712432  1
  O  O53  1  0.46692434  0.16188530  0.24460510  1
  O  O54  1  0.62385718  0.50924812  0.91078210  1
  O  O55  1  0.88379728  0.37404594  0.91040340  1
  O  O56  1  0.49088104  0.11589621  0.91145724  1
  O  O57  1  0.66310209  0.14724249  0.41975057  1
  O  O58  1  0.47849087  0.34492531  0.41884913  1
  O  O59  1  0.86507637  0.50272354  0.42026727  1
  O  O60  1  0.34553476  0.47517861  0.07947330  1
  O  O61  1  0.14363252  0.66327439  0.07886439  1
  O  O62  1  0.50543755  0.86981933  0.07805271  1
  O  O63  1  0.34649578  0.86133601  0.58181907  1
  O  O64  1  0.51419802  0.65176370  0.58154334  1
  O  O65  1  0.13897961  0.48576394  0.58065771  1
  O  O66  1  0.32203640  0.85521022  0.25154718  1
  O  O67  1  0.51924599  0.67022336  0.25216092  1
  O  O68  1  0.16373086  0.46860475  0.25386440  1
  O  O69  1  0.31948503  0.48774306  0.76746809  1
  O  O70  1  0.16799890  0.68115196  0.76780830  1
  O  O71  1  0.51262292  0.83294909  0.76769835  1
loop_
_geom_bond_atom_site_label_1
_geom_bond_atom_site_label_2
_geom_bond_distance
_geom_bond_site_symmetry_2
Na0 O51 2.455475 1_555
Na0 O67 2.457998 1_555
Na0 O68 2.472710 1_555
Na0 O53 2.494918 1_555
Na0 O32 2.763163 1_555
Na0 O0 2.901858 1_555
Na0 O10 2.987512 1_555
Na0 O17 3.050710 1_555
Na1 O47 2.449857 1_565
Na1 O61 2.473644 1_555
Na1 O45 2.483101 1_455
Na1 O62 2.487198 1_555
Na1 O11 2.717295 1_555
Na2 O37 2.457939 1_545
Na2 O57 2.461002 1_555
Na2 O59 2.476133 1_555
Na2 O38 2.486887 1_655
Na2 O23 2.856172 1_555
Na2 O28 2.906251 1_655
Na2 O2 2.995007 1_555
Na2 O30 3.008154 1_655
Na3 O44 2.652474 1_555
Na3 O43 2.666632 1_665
Na3 O36 2.727755 1_655
Na3 O37 2.790900 1_555
Na3 O42 2.795008 1_565
Na3 O38 2.854899 1_665
Na4 O46 2.528905 1_565
Na4 O45 2.584131 1_555
Na4 O47 2.633573 1_665
Na5 O55 2.661820 1_555
Na5 O50 2.672459 1_555
Na5 O49 2.676393 1_555
Na5 O56 2.679342 1_555
Na5 O48 2.679822 1_555
Na5 O54 2.683828 1_555
Na6 O57 2.607462 1_555
Na6 O59 2.611654 1_555
Na6 O58 2.658601 1_555
Na6 O51 2.792236 1_555
Na6 O53 2.844953 1_555
Na6 O52 2.848506 1_555
Na7 O67 2.567439 1_555
Na7 O68 2.611269 1_555
Na7 O66 2.627411 1_555
Na7 O61 2.846961 1_555
Na7 O62 2.866240 1_555
Na7 O60 2.897817 1_555
Na8 O63 2.394740 1_555
Na8 O64 2.406370 1_555
Na8 O65 2.412649 1_555
Ca0 O1 2.268014 1_555
Ca0 O36 2.284782 1_655
Ca0 O0 2.292229 1_665
Ca0 O37 2.323251 1_555
Ca0 O38 2.344375 1_665
Ca0 O2 2.353816 1_565
Ca1 O3 2.254536 1_565
Ca1 O4 2.256993 1_455
Ca1 O5 2.261472 1_465
Ca1 O41 2.309345 1_455
Ca1 O39 2.313554 1_565
Ca1 O40 2.316724 1_555
Ca2 O44 2.265965 1_445
Ca2 O43 2.267029 1_555
Ca2 O42 2.273877 1_455
Ca2 O7 2.512458 1_555
Ca2 O6 2.530972 1_445
Ca2 O8 2.536248 1_545
Ca3 O9 2.230698 1_555
Ca3 O10 2.235664 1_665
Ca3 O11 2.318739 1_655
Ca3 O46 2.349995 1_565
Ca3 O45 2.391513 1_555
Ca3 O47 2.422869 1_665
Ca4 O13 2.223695 1_555
Ca4 O14 2.224068 1_555
Ca4 O12 2.227826 1_555
Ca4 O50 2.482101 1_555
Ca4 O48 2.490486 1_555
Ca4 O49 2.504327 1_555
Ca5 O15 2.265798 1_555
Ca5 O16 2.276267 1_555
Ca5 O52 2.288659 1_555
Ca5 O51 2.315043 1_555
Ca5 O53 2.346689 1_555
Ca5 O17 2.353137 1_555
Ca6 O20 2.274957 1_556
Ca6 O19 2.280963 1_556
Ca6 O18 2.289515 1_556
Ca6 O54 2.489408 1_555
Ca6 O55 2.491199 1_555
Ca6 O56 2.517277 1_555
Ca7 O21 2.240317 1_555
Ca7 O22 2.244268 1_555
Ca7 O23 2.338972 1_555
Ca7 O58 2.361363 1_555
Ca7 O59 2.379450 1_555
Ca7 O57 2.382336 1_555
Ca8 O25 2.254242 1_554
Ca8 O24 2.259384 1_554
Ca8 O60 2.274052 1_555
Ca8 O62 2.295604 1_555
Ca8 O61 2.301105 1_555
Ca8 O26 2.340495 1_554
Ca9 O29 2.281832 1_555
Ca9 O27 2.283245 1_555
Ca9 O28 2.303763 1_555
Ca9 O64 2.324386 1_555
Ca9 O63 2.334714 1_555
Ca9 O65 2.363167 1_555
Ca10 O31 2.227086 1_555
Ca10 O30 2.233712 1_555
Ca10 O32 2.319756 1_555
Ca10 O66 2.352491 1_555
Ca10 O67 2.373278 1_555
Ca10 O68 2.400635 1_555
O0 S0 1.479206 1_555
O1 S1 1.468233 1_555
O2 S2 1.479891 1_655
O3 S3 1.466822 1_555
O4 S4 1.469339 1_655
O5 S5 1.469601 1_545
O6 S5 1.452984 1_555
O7 S3 1.455263 1_555
O8 S4 1.453765 1_555
O9 S1 1.472310 1_555
O10 S2 1.488582 1_555
O11 S0 1.496027 1_565
O12 S6 1.487707 1_555
O13 S7 1.487115 1_555
O14 S8 1.486968 1_555
O15 S9 1.470249 1_555
O16 S10 1.477281 1_555
O17 S11 1.480336 1_555
O18 S11 1.491081 1_555
O19 S9 1.474930 1_555
O20 S10 1.483635 1_555
O21 S7 1.473634 1_555
O22 S8 1.473184 1_555
O23 S6 1.484408 1_555
O24 S12 1.460024 1_555
O25 S13 1.459208 1_555
O26 S14 1.462306 1_555
O27 S15 1.463396 1_555
O28 S16 1.476280 1_555
O29 S17 1.470092 1_555
O30 S17 1.488806 1_555
O31 S15 1.475743 1_555
O32 S16 1.495878 1_555
O33 S13 1.553003 1_555
O33 Ta0 2.004663 1_555
O34 S14 1.556506 1_555
O34 Ta0 2.016031 1_555
O35 S12 1.551465 1_555
O35 Ta0 2.005956 1_555
O36 S17 1.478130 1_555
O37 S15 1.502969 1_555
O38 S16 1.502728 1_555
O39 S13 1.468053 1_555
O40 S14 1.471012 1_555
O41 S12 1.470077 1_555
O42 S6 1.491585 1_555
O43 S7 1.492843 1_555
O44 S8 1.493012 1_555
O45 S9 1.502268 1_555
O46 S10 1.480841 1_555
O47 S11 1.506241 1_555
O48 S5 1.464548 1_545
O49 S3 1.465565 1_555
O50 S4 1.463863 1_655
O51 S1 1.501307 1_555
O52 S2 1.476423 1_655
O53 S0 1.500928 1_555
O54 S12 1.468684 1_555
O55 S13 1.469996 1_655
O56 S14 1.472732 1_545
O57 S15 1.502398 1_545
O58 S16 1.478203 1_555
O59 S17 1.503516 1_655
O60 S11 1.475768 1_555
O61 S9 1.502432 1_455
O62 S10 1.502845 1_565
O63 S7 1.485182 1_565
O64 S8 1.485071 1_555
O65 S6 1.486120 1_455
O66 S0 1.475102 1_565
O67 S1 1.500055 1_555
O68 S2 1.501960 1_555
O69 S3 1.583280 1_555
O69 Ta0 1.974548 1_555
O70 S4 1.582301 1_555
O70 Ta0 1.969587 1_555
O71 S5 1.582763 1_555
O71 Ta0 1.971639 1_555
