# generated using pymatgen
data_V2Ga5
_symmetry_space_group_name_H-M   'P 1'
_cell_length_a   5.31413768
_cell_length_b   17.80911004
_cell_length_c   17.80911004
_cell_angle_alpha   90.00000000
_cell_angle_beta   90.00000000
_cell_angle_gamma   90.00000000
_symmetry_Int_Tables_number   1
_chemical_formula_structural   V2Ga5
_chemical_formula_sum   'V32 Ga80'
_cell_volume   1685.45529101
_cell_formula_units_Z   16
loop_
 _symmetry_equiv_pos_site_id
 _symmetry_equiv_pos_as_xyz
  1  'x, y, z'
loop_
 _atom_site_type_symbol
 _atom_site_label
 _atom_site_symmetry_multiplicity
 _atom_site_fract_x
 _atom_site_fract_y
 _atom_site_fract_z
 _atom_site_occupancy
  V  V0_0  1  0.25000000  0.33974271  0.08974271  1
  V  V0_1  1  0.25000000  0.33974271  0.58974271  1
  V  V0_2  1  0.25000000  0.83974271  0.08974271  1
  V  V0_3  1  0.25000000  0.83974271  0.58974271  1
  V  V0_4  1  0.75000000  0.33974271  0.08974271  1
  V  V0_5  1  0.75000000  0.33974271  0.58974271  1
  V  V0_6  1  0.75000000  0.83974271  0.08974271  1
  V  V0_7  1  0.75000000  0.83974271  0.58974271  1
  V  V1_0  1  0.25000000  0.41025729  0.33974271  1
  V  V1_1  1  0.25000000  0.41025729  0.83974271  1
  V  V1_2  1  0.25000000  0.91025729  0.33974271  1
  V  V1_3  1  0.25000000  0.91025729  0.83974271  1
  V  V1_4  1  0.75000000  0.41025729  0.33974271  1
  V  V1_5  1  0.75000000  0.41025729  0.83974271  1
  V  V1_6  1  0.75000000  0.91025729  0.33974271  1
  V  V1_7  1  0.75000000  0.91025729  0.83974271  1
  V  V2_0  1  0.25000000  0.08974271  0.16025729  1
  V  V2_1  1  0.25000000  0.08974271  0.66025729  1
  V  V2_2  1  0.25000000  0.58974271  0.16025729  1
  V  V2_3  1  0.25000000  0.58974271  0.66025729  1
  V  V2_4  1  0.75000000  0.08974271  0.16025729  1
  V  V2_5  1  0.75000000  0.08974271  0.66025729  1
  V  V2_6  1  0.75000000  0.58974271  0.16025729  1
  V  V2_7  1  0.75000000  0.58974271  0.66025729  1
  V  V3_0  1  0.25000000  0.16025729  0.41025729  1
  V  V3_1  1  0.25000000  0.16025729  0.91025729  1
  V  V3_2  1  0.25000000  0.66025729  0.41025729  1
  V  V3_3  1  0.25000000  0.66025729  0.91025729  1
  V  V3_4  1  0.75000000  0.16025729  0.41025729  1
  V  V3_5  1  0.75000000  0.16025729  0.91025729  1
  V  V3_6  1  0.75000000  0.66025729  0.41025729  1
  V  V3_7  1  0.75000000  0.66025729  0.91025729  1
  Ga  Ga0_0  1  0.00000000  0.28081936  0.35343198  1
  Ga  Ga0_1  1  0.00000000  0.28081936  0.85343198  1
  Ga  Ga0_2  1  0.00000000  0.78081936  0.35343198  1
  Ga  Ga0_3  1  0.00000000  0.78081936  0.85343198  1
  Ga  Ga0_4  1  0.50000000  0.28081936  0.35343198  1
  Ga  Ga0_5  1  0.50000000  0.28081936  0.85343198  1
  Ga  Ga0_6  1  0.50000000  0.78081936  0.35343198  1
  Ga  Ga0_7  1  0.50000000  0.78081936  0.85343198  1
  Ga  Ga1_0  1  0.00000000  0.35343198  0.21918063  1
  Ga  Ga1_1  1  0.00000000  0.35343198  0.71918063  1
  Ga  Ga1_2  1  0.00000000  0.85343198  0.21918063  1
  Ga  Ga1_3  1  0.00000000  0.85343198  0.71918063  1
  Ga  Ga1_4  1  0.50000000  0.35343198  0.21918063  1
  Ga  Ga1_5  1  0.50000000  0.35343198  0.71918063  1
  Ga  Ga1_6  1  0.50000000  0.85343198  0.21918063  1
  Ga  Ga1_7  1  0.50000000  0.85343198  0.71918063  1
  Ga  Ga2_0  1  0.00000000  0.39656802  0.46918063  1
  Ga  Ga2_1  1  0.00000000  0.39656802  0.96918063  1
  Ga  Ga2_2  1  0.00000000  0.89656802  0.46918063  1
  Ga  Ga2_3  1  0.00000000  0.89656802  0.96918063  1
  Ga  Ga2_4  1  0.50000000  0.39656802  0.46918063  1
  Ga  Ga2_5  1  0.50000000  0.39656802  0.96918063  1
  Ga  Ga2_6  1  0.50000000  0.89656802  0.46918063  1
  Ga  Ga2_7  1  0.50000000  0.89656802  0.96918063  1
  Ga  Ga3_0  1  0.00000000  0.10343197  0.03081937  1
  Ga  Ga3_1  1  0.00000000  0.10343197  0.53081936  1
  Ga  Ga3_2  1  0.00000000  0.60343197  0.03081937  1
  Ga  Ga3_3  1  0.00000000  0.60343197  0.53081936  1
  Ga  Ga3_4  1  0.50000000  0.10343197  0.03081937  1
  Ga  Ga3_5  1  0.50000000  0.10343197  0.53081936  1
  Ga  Ga3_6  1  0.50000000  0.60343197  0.03081937  1
  Ga  Ga3_7  1  0.50000000  0.60343197  0.53081936  1
  Ga  Ga4_0  1  0.00000000  0.03081937  0.39656802  1
  Ga  Ga4_1  1  0.00000000  0.03081937  0.89656802  1
  Ga  Ga4_2  1  0.00000000  0.53081936  0.39656802  1
  Ga  Ga4_3  1  0.00000000  0.53081936  0.89656802  1
  Ga  Ga4_4  1  0.50000000  0.03081937  0.39656802  1
  Ga  Ga4_5  1  0.50000000  0.03081937  0.89656802  1
  Ga  Ga4_6  1  0.50000000  0.53081936  0.39656802  1
  Ga  Ga4_7  1  0.50000000  0.53081936  0.89656802  1
  Ga  Ga5_0  1  0.00000000  0.46918063  0.10343197  1
  Ga  Ga5_1  1  0.00000000  0.46918063  0.60343197  1
  Ga  Ga5_2  1  0.00000000  0.96918063  0.10343197  1
  Ga  Ga5_3  1  0.00000000  0.96918063  0.60343197  1
  Ga  Ga5_4  1  0.50000000  0.46918063  0.10343197  1
  Ga  Ga5_5  1  0.50000000  0.46918063  0.60343197  1
  Ga  Ga5_6  1  0.50000000  0.96918063  0.10343197  1
  Ga  Ga5_7  1  0.50000000  0.96918063  0.60343197  1
  Ga  Ga6_0  1  0.00000000  0.21918063  0.14656802  1
  Ga  Ga6_1  1  0.00000000  0.21918063  0.64656802  1
  Ga  Ga6_2  1  0.00000000  0.71918063  0.14656802  1
  Ga  Ga6_3  1  0.00000000  0.71918063  0.64656802  1
  Ga  Ga6_4  1  0.50000000  0.21918063  0.14656802  1
  Ga  Ga6_5  1  0.50000000  0.21918063  0.64656802  1
  Ga  Ga6_6  1  0.50000000  0.71918063  0.14656802  1
  Ga  Ga6_7  1  0.50000000  0.71918063  0.64656802  1
  Ga  Ga7_0  1  0.00000000  0.14656802  0.28081936  1
  Ga  Ga7_1  1  0.00000000  0.14656802  0.78081936  1
  Ga  Ga7_2  1  0.00000000  0.64656802  0.28081936  1
  Ga  Ga7_3  1  0.00000000  0.64656802  0.78081936  1
  Ga  Ga7_4  1  0.50000000  0.14656802  0.28081936  1
  Ga  Ga7_5  1  0.50000000  0.14656802  0.78081936  1
  Ga  Ga7_6  1  0.50000000  0.64656802  0.28081936  1
  Ga  Ga7_7  1  0.50000000  0.64656802  0.78081936  1
  Ga  Ga8_0  1  0.00000000  0.25000000  0.00000000  1
  Ga  Ga8_1  1  0.00000000  0.25000000  0.50000000  1
  Ga  Ga8_2  1  0.00000000  0.75000000  0.00000000  1
  Ga  Ga8_3  1  0.00000000  0.75000000  0.50000000  1
  Ga  Ga8_4  1  0.50000000  0.25000000  0.00000000  1
  Ga  Ga8_5  1  0.50000000  0.25000000  0.50000000  1
  Ga  Ga8_6  1  0.50000000  0.75000000  0.00000000  1
  Ga  Ga8_7  1  0.50000000  0.75000000  0.50000000  1
  Ga  Ga9_0  1  0.00000000  0.00000000  0.25000000  1
  Ga  Ga9_1  1  0.00000000  0.00000000  0.75000000  1
  Ga  Ga9_2  1  0.00000000  0.50000000  0.25000000  1
  Ga  Ga9_3  1  0.00000000  0.50000000  0.75000000  1
  Ga  Ga9_4  1  0.50000000  0.00000000  0.25000000  1
  Ga  Ga9_5  1  0.50000000  0.00000000  0.75000000  1
  Ga  Ga9_6  1  0.50000000  0.50000000  0.25000000  1
  Ga  Ga9_7  1  0.50000000  0.50000000  0.75000000  1
loop_
_geom_bond_atom_site_label_1
_geom_bond_atom_site_label_2
_geom_bond_distance
_geom_bond_site_symmetry_2
V0_0 V0_4 2.657069 1_455
V0_0 V0_4 2.657069 1_555
V0_1 V0_5 2.657069 1_555
V0_1 V0_5 2.657069 1_455
V0_2 V0_6 2.657069 1_455
V0_2 V0_6 2.657069 1_555
V0_3 V0_7 2.657069 1_455
V0_3 V0_7 2.657069 1_555
V1_0 V1_4 2.657069 1_555
V1_0 V1_4 2.657069 1_455
V1_1 V1_5 2.657069 1_555
V1_1 V1_5 2.657069 1_455
V1_2 V1_6 2.657069 1_555
V1_2 V1_6 2.657069 1_455
V1_3 V1_7 2.657069 1_555
V1_3 V1_7 2.657069 1_455
V2_0 V2_4 2.657069 1_455
V2_0 V2_4 2.657069 1_555
V2_1 V2_5 2.657069 1_455
V2_1 V2_5 2.657069 1_555
V2_2 V2_6 2.657069 1_455
V2_2 V2_6 2.657069 1_555
V2_3 V2_7 2.657069 1_455
V2_3 V2_7 2.657069 1_555
V3_0 V3_4 2.657069 1_455
V3_0 V3_4 2.657069 1_555
V3_1 V3_5 2.657069 1_455
V3_1 V3_5 2.657069 1_555
V3_2 V3_6 2.657069 1_455
V3_2 V3_6 2.657069 1_555
V3_3 V3_7 2.657069 1_555
V3_3 V3_7 2.657069 1_455
Ga0_0 Ga0_4 2.657069 1_555
Ga0_0 Ga0_4 2.657069 1_455
Ga0_0 Ga8_1 2.667328 1_555
Ga0_0 V1_4 2.671754 1_455
Ga0_0 V1_0 2.671754 1_555
Ga0_0 Ga7_0 2.718210 1_555
Ga0_0 Ga1_0 2.718210 1_555
Ga0_0 V3_0 2.720150 1_555
Ga0_0 V3_4 2.720150 1_455
Ga0_0 Ga2_0 2.915232 1_555
Ga0_1 Ga0_5 2.657069 1_555
Ga0_1 Ga0_5 2.657069 1_455
Ga0_1 Ga8_0 2.667328 1_556
Ga0_1 V1_1 2.671754 1_555
Ga0_1 V1_5 2.671754 1_455
Ga0_1 Ga7_1 2.718210 1_555
Ga0_1 Ga1_1 2.718210 1_555
Ga0_1 V3_5 2.720150 1_455
Ga0_1 V3_1 2.720150 1_555
Ga0_1 Ga2_1 2.915232 1_555
Ga0_2 Ga0_6 2.657069 1_555
Ga0_2 Ga0_6 2.657069 1_455
Ga0_2 Ga8_3 2.667328 1_555
Ga0_2 V1_6 2.671754 1_455
Ga0_2 V1_2 2.671754 1_555
Ga0_2 Ga1_2 2.718210 1_555
Ga0_2 Ga7_2 2.718210 1_555
Ga0_2 V3_2 2.720150 1_555
Ga0_2 V3_6 2.720150 1_455
Ga0_2 Ga2_2 2.915232 1_555
Ga0_3 Ga0_7 2.657069 1_455
Ga0_3 Ga0_7 2.657069 1_555
Ga0_3 Ga8_2 2.667328 1_556
Ga0_3 V1_3 2.671754 1_555
Ga0_3 V1_7 2.671754 1_455
Ga0_3 Ga7_3 2.718210 1_555
Ga0_3 Ga1_3 2.718210 1_555
Ga0_3 V3_3 2.720150 1_555
Ga0_3 V3_7 2.720150 1_455
Ga0_3 Ga2_3 2.915232 1_555
Ga0_4 Ga8_5 2.667328 1_555
Ga0_4 V1_4 2.671754 1_555
Ga0_4 V1_0 2.671754 1_555
Ga0_4 Ga7_4 2.718210 1_555
Ga0_4 Ga1_4 2.718210 1_555
Ga0_4 V3_0 2.720150 1_555
Ga0_4 V3_4 2.720150 1_555
Ga0_4 Ga2_4 2.915232 1_555
Ga0_5 Ga8_4 2.667328 1_556
Ga0_5 V1_5 2.671754 1_555
Ga0_5 V1_1 2.671754 1_555
Ga0_5 Ga7_5 2.718210 1_555
Ga0_5 Ga1_5 2.718210 1_555
Ga0_5 V3_5 2.720150 1_555
Ga0_5 V3_1 2.720150 1_555
Ga0_5 Ga2_5 2.915232 1_555
Ga0_6 Ga8_7 2.667328 1_555
Ga0_6 V1_6 2.671754 1_555
Ga0_6 V1_2 2.671754 1_555
Ga0_6 Ga1_6 2.718210 1_555
Ga0_6 Ga7_6 2.718210 1_555
Ga0_6 V3_2 2.720150 1_555
Ga0_6 V3_6 2.720150 1_555
Ga0_6 Ga2_6 2.915232 1_555
Ga0_7 Ga8_6 2.667328 1_556
Ga0_7 V1_3 2.671754 1_555
Ga0_7 V1_7 2.671754 1_555
Ga0_7 Ga1_7 2.718210 1_555
Ga0_7 Ga7_7 2.718210 1_555
Ga0_7 V3_3 2.720150 1_555
Ga0_7 V3_7 2.720150 1_555
Ga0_7 Ga2_7 2.915232 1_555
Ga1_0 Ga1_4 2.657069 1_555
Ga1_0 Ga1_4 2.657069 1_455
Ga1_0 Ga9_2 2.667328 1_555
Ga1_0 V0_0 2.671754 1_555
Ga1_0 V0_4 2.671754 1_455
Ga1_0 Ga6_0 2.718210 1_555
Ga1_0 V1_0 2.720150 1_555
Ga1_0 V1_4 2.720150 1_455
Ga1_0 Ga5_0 2.915232 1_555
Ga1_1 Ga1_5 2.657069 1_455
Ga1_1 Ga1_5 2.657069 1_555
Ga1_1 Ga9_3 2.667328 1_555
Ga1_1 V0_1 2.671754 1_555
Ga1_1 V0_5 2.671754 1_455
Ga1_1 Ga6_1 2.718210 1_555
Ga1_1 V1_1 2.720150 1_555
Ga1_1 V1_5 2.720150 1_455
Ga1_1 Ga5_1 2.915232 1_555
Ga1_2 Ga1_6 2.657069 1_555
Ga1_2 Ga1_6 2.657069 1_455
Ga1_2 Ga9_0 2.667328 1_565
Ga1_2 V0_6 2.671754 1_455
Ga1_2 V0_2 2.671754 1_555
Ga1_2 Ga6_2 2.718210 1_555
Ga1_2 V1_6 2.720150 1_455
Ga1_2 V1_2 2.720150 1_555
Ga1_2 Ga5_2 2.915232 1_555
Ga1_3 Ga1_7 2.657069 1_555
Ga1_3 Ga1_7 2.657069 1_455
Ga1_3 Ga9_1 2.667328 1_565
Ga1_3 V0_3 2.671754 1_555
Ga1_3 V0_7 2.671754 1_455
Ga1_3 Ga6_3 2.718210 1_555
Ga1_3 V1_3 2.720150 1_555
Ga1_3 V1_7 2.720150 1_455
Ga1_3 Ga5_3 2.915232 1_555
Ga1_4 Ga9_6 2.667328 1_555
Ga1_4 V0_0 2.671754 1_555
Ga1_4 V0_4 2.671754 1_555
Ga1_4 Ga6_4 2.718210 1_555
Ga1_4 V1_0 2.720150 1_555
Ga1_4 V1_4 2.720150 1_555
Ga1_4 Ga5_4 2.915232 1_555
Ga1_5 Ga9_7 2.667328 1_555
Ga1_5 V0_1 2.671754 1_555
Ga1_5 V0_5 2.671754 1_555
Ga1_5 Ga6_5 2.718210 1_555
Ga1_5 V1_5 2.720150 1_555
Ga1_5 V1_1 2.720150 1_555
Ga1_5 Ga5_5 2.915232 1_555
Ga1_6 Ga9_4 2.667328 1_565
Ga1_6 V0_6 2.671754 1_555
Ga1_6 V0_2 2.671754 1_555
Ga1_6 Ga6_6 2.718210 1_555
Ga1_6 V1_2 2.720150 1_555
Ga1_6 V1_6 2.720150 1_555
Ga1_6 Ga5_6 2.915232 1_555
Ga1_7 Ga9_5 2.667328 1_565
Ga1_7 V0_3 2.671754 1_555
Ga1_7 V0_7 2.671754 1_555
Ga1_7 Ga6_7 2.718210 1_555
Ga1_7 V1_7 2.720150 1_555
Ga1_7 V1_3 2.720150 1_555
Ga1_7 Ga5_7 2.915232 1_555
Ga2_0 Ga2_4 2.657069 1_555
Ga2_0 Ga2_4 2.657069 1_455
Ga2_0 Ga8_1 2.667328 1_555
Ga2_0 V1_4 2.671754 1_455
Ga2_0 V1_0 2.671754 1_555
Ga2_0 Ga5_1 2.718210 1_555
Ga2_0 Ga4_2 2.718210 1_555
Ga2_0 V0_5 2.720150 1_455
Ga2_0 V0_1 2.720150 1_555
Ga2_1 Ga2_5 2.657069 1_555
Ga2_1 Ga2_5 2.657069 1_455
Ga2_1 Ga8_0 2.667328 1_556
Ga2_1 V1_1 2.671754 1_555
Ga2_1 V1_5 2.671754 1_455
Ga2_1 Ga5_0 2.718210 1_556
Ga2_1 Ga4_3 2.718210 1_555
Ga2_1 V0_4 2.720150 1_456
Ga2_1 V0_0 2.720150 1_556
Ga2_2 Ga2_6 2.657069 1_555
Ga2_2 Ga2_6 2.657069 1_455
Ga2_2 Ga8_3 2.667328 1_555
Ga2_2 V1_2 2.671754 1_555
Ga2_2 V1_6 2.671754 1_455
Ga2_2 Ga5_3 2.718210 1_555
Ga2_2 Ga4_0 2.718210 1_565
Ga2_2 V0_7 2.720150 1_455
Ga2_2 V0_3 2.720150 1_555
Ga2_3 Ga2_7 2.657069 1_555
Ga2_3 Ga2_7 2.657069 1_455
Ga2_3 Ga8_2 2.667328 1_556
Ga2_3 V1_7 2.671754 1_455
Ga2_3 V1_3 2.671754 1_555
Ga2_3 Ga5_2 2.718210 1_556
Ga2_3 Ga4_1 2.718210 1_565
Ga2_3 V0_2 2.720150 1_556
Ga2_3 V0_6 2.720150 1_456
Ga2_4 Ga8_5 2.667328 1_555
Ga2_4 V1_4 2.671754 1_555
Ga2_4 V1_0 2.671754 1_555
Ga2_4 Ga5_5 2.718210 1_555
Ga2_4 Ga4_6 2.718210 1_555
Ga2_4 V0_1 2.720150 1_555
Ga2_4 V0_5 2.720150 1_555
Ga2_5 Ga8_4 2.667328 1_556
Ga2_5 V1_5 2.671754 1_555
Ga2_5 V1_1 2.671754 1_555
Ga2_5 Ga5_4 2.718210 1_556
Ga2_5 Ga4_7 2.718210 1_555
Ga2_5 V0_4 2.720150 1_556
Ga2_5 V0_0 2.720150 1_556
Ga2_6 Ga8_7 2.667328 1_555
Ga2_6 V1_2 2.671754 1_555
Ga2_6 V1_6 2.671754 1_555
Ga2_6 Ga5_7 2.718210 1_555
Ga2_6 Ga4_4 2.718210 1_565
Ga2_6 V0_7 2.720150 1_555
Ga2_6 V0_3 2.720150 1_555
Ga2_7 Ga8_6 2.667328 1_556
Ga2_7 V1_7 2.671754 1_555
Ga2_7 V1_3 2.671754 1_555
Ga2_7 Ga5_6 2.718210 1_556
Ga2_7 Ga4_5 2.718210 1_565
Ga2_7 V0_2 2.720150 1_556
Ga2_7 V0_6 2.720150 1_556
Ga3_0 Ga3_4 2.657069 1_555
Ga3_0 Ga3_4 2.657069 1_455
Ga3_0 Ga8_0 2.667328 1_555
Ga3_0 V2_4 2.671754 1_455
Ga3_0 V2_0 2.671754 1_555
Ga3_0 Ga4_1 2.718210 1_554
Ga3_0 Ga5_2 2.718210 1_545
Ga3_0 V3_1 2.720150 1_554
Ga3_0 V3_5 2.720150 1_454
Ga3_0 Ga6_0 2.915232 1_555
Ga3_1 Ga3_5 2.657069 1_455
Ga3_1 Ga3_5 2.657069 1_555
Ga3_1 Ga8_1 2.667328 1_555
Ga3_1 V2_5 2.671754 1_455
Ga3_1 V2_1 2.671754 1_555
Ga3_1 Ga4_0 2.718210 1_555
Ga3_1 Ga5_3 2.718210 1_545
Ga3_1 V3_4 2.720150 1_455
Ga3_1 V3_0 2.720150 1_555
Ga3_1 Ga6_1 2.915232 1_555
Ga3_2 Ga3_6 2.657069 1_455
Ga3_2 Ga3_6 2.657069 1_555
Ga3_2 Ga8_2 2.667328 1_555
Ga3_2 V2_6 2.671754 1_455
Ga3_2 V2_2 2.671754 1_555
Ga3_2 Ga5_0 2.718210 1_555
Ga3_2 Ga4_3 2.718210 1_554
Ga3_2 V3_7 2.720150 1_454
Ga3_2 V3_3 2.720150 1_554
Ga3_2 Ga6_2 2.915232 1_555
Ga3_3 Ga3_7 2.657069 1_555
Ga3_3 Ga3_7 2.657069 1_455
Ga3_3 Ga8_3 2.667328 1_555
Ga3_3 V2_3 2.671754 1_555
Ga3_3 V2_7 2.671754 1_455
Ga3_3 Ga5_1 2.718210 1_555
Ga3_3 Ga4_2 2.718210 1_555
Ga3_3 V3_2 2.720150 1_555
Ga3_3 V3_6 2.720150 1_455
Ga3_3 Ga6_3 2.915232 1_555
Ga3_4 Ga8_4 2.667328 1_555
Ga3_4 V2_4 2.671754 1_555
Ga3_4 V2_0 2.671754 1_555
Ga3_4 Ga4_5 2.718210 1_554
Ga3_4 Ga5_6 2.718210 1_545
Ga3_4 V3_1 2.720150 1_554
Ga3_4 V3_5 2.720150 1_554
Ga3_4 Ga6_4 2.915232 1_555
Ga3_5 Ga8_5 2.667328 1_555
Ga3_5 V2_1 2.671754 1_555
Ga3_5 V2_5 2.671754 1_555
Ga3_5 Ga4_4 2.718210 1_555
Ga3_5 Ga5_7 2.718210 1_545
Ga3_5 V3_4 2.720150 1_555
Ga3_5 V3_0 2.720150 1_555
Ga3_5 Ga6_5 2.915232 1_555
Ga3_6 Ga8_6 2.667328 1_555
Ga3_6 V2_2 2.671754 1_555
Ga3_6 V2_6 2.671754 1_555
Ga3_6 Ga5_4 2.718210 1_555
Ga3_6 Ga4_7 2.718210 1_554
Ga3_6 V3_3 2.720150 1_554
Ga3_6 V3_7 2.720150 1_554
Ga3_6 Ga6_6 2.915232 1_555
Ga3_7 Ga8_7 2.667328 1_555
Ga3_7 V2_3 2.671754 1_555
Ga3_7 V2_7 2.671754 1_555
Ga3_7 Ga5_5 2.718210 1_555
Ga3_7 Ga4_6 2.718210 1_555
Ga3_7 V3_6 2.720150 1_555
Ga3_7 V3_2 2.720150 1_555
Ga3_7 Ga6_7 2.915232 1_555
Ga4_0 Ga4_4 2.657069 1_455
Ga4_0 Ga4_4 2.657069 1_555
Ga4_0 Ga9_0 2.667328 1_555
Ga4_0 V3_0 2.671754 1_555
Ga4_0 V3_4 2.671754 1_455
Ga4_0 V1_6 2.720150 1_445
Ga4_0 V1_2 2.720150 1_545
Ga4_0 Ga7_0 2.915232 1_555
Ga4_1 Ga4_5 2.657069 1_455
Ga4_1 Ga4_5 2.657069 1_555
Ga4_1 Ga9_1 2.667328 1_555
Ga4_1 V3_5 2.671754 1_455
Ga4_1 V3_1 2.671754 1_555
Ga4_1 V1_7 2.720150 1_445
Ga4_1 V1_3 2.720150 1_545
Ga4_1 Ga7_1 2.915232 1_555
Ga4_2 Ga4_6 2.657069 1_455
Ga4_2 Ga4_6 2.657069 1_555
Ga4_2 Ga9_2 2.667328 1_555
Ga4_2 V3_6 2.671754 1_455
Ga4_2 V3_2 2.671754 1_555
Ga4_2 V1_4 2.720150 1_455
Ga4_2 V1_0 2.720150 1_555
Ga4_2 Ga7_2 2.915232 1_555
Ga4_3 Ga4_7 2.657069 1_555
Ga4_3 Ga4_7 2.657069 1_455
Ga4_3 Ga9_3 2.667328 1_555
Ga4_3 V3_7 2.671754 1_455
Ga4_3 V3_3 2.671754 1_555
Ga4_3 V1_1 2.720150 1_555
Ga4_3 V1_5 2.720150 1_455
Ga4_3 Ga7_3 2.915232 1_555
Ga4_4 Ga9_4 2.667328 1_555
Ga4_4 V3_0 2.671754 1_555
Ga4_4 V3_4 2.671754 1_555
Ga4_4 V1_6 2.720150 1_545
Ga4_4 V1_2 2.720150 1_545
Ga4_4 Ga7_4 2.915232 1_555
Ga4_5 Ga9_5 2.667328 1_555
Ga4_5 V3_5 2.671754 1_555
Ga4_5 V3_1 2.671754 1_555
Ga4_5 V1_3 2.720150 1_545
Ga4_5 V1_7 2.720150 1_545
Ga4_5 Ga7_5 2.915232 1_555
Ga4_6 Ga9_6 2.667328 1_555
Ga4_6 V3_2 2.671754 1_555
Ga4_6 V3_6 2.671754 1_555
Ga4_6 V1_4 2.720150 1_555
Ga4_6 V1_0 2.720150 1_555
Ga4_6 Ga7_6 2.915232 1_555
Ga4_7 Ga9_7 2.667328 1_555
Ga4_7 V3_3 2.671754 1_555
Ga4_7 V3_7 2.671754 1_555
Ga4_7 V1_5 2.720150 1_555
Ga4_7 V1_1 2.720150 1_555
Ga4_7 Ga7_7 2.915232 1_555
Ga5_0 Ga5_4 2.657069 1_455
Ga5_0 Ga5_4 2.657069 1_555
Ga5_0 Ga9_2 2.667328 1_555
Ga5_0 V0_0 2.671754 1_555
Ga5_0 V0_4 2.671754 1_455
Ga5_0 V2_6 2.720150 1_455
Ga5_0 V2_2 2.720150 1_555
Ga5_1 Ga5_5 2.657069 1_455
Ga5_1 Ga5_5 2.657069 1_555
Ga5_1 Ga9_3 2.667328 1_555
Ga5_1 V0_1 2.671754 1_555
Ga5_1 V0_5 2.671754 1_455
Ga5_1 V2_7 2.720150 1_455
Ga5_1 V2_3 2.720150 1_555
Ga5_2 Ga5_6 2.657069 1_455
Ga5_2 Ga5_6 2.657069 1_555
Ga5_2 Ga9_0 2.667328 1_565
Ga5_2 V0_6 2.671754 1_455
Ga5_2 V0_2 2.671754 1_555
Ga5_2 V2_4 2.720150 1_465
Ga5_2 V2_0 2.720150 1_565
Ga5_3 Ga5_7 2.657069 1_455
Ga5_3 Ga5_7 2.657069 1_555
Ga5_3 Ga9_1 2.667328 1_565
Ga5_3 V0_3 2.671754 1_555
Ga5_3 V0_7 2.671754 1_455
Ga5_3 V2_1 2.720150 1_565
Ga5_3 V2_5 2.720150 1_465
Ga5_4 Ga9_6 2.667328 1_555
Ga5_4 V0_0 2.671754 1_555
Ga5_4 V0_4 2.671754 1_555
Ga5_4 V2_6 2.720150 1_555
Ga5_4 V2_2 2.720150 1_555
Ga5_5 Ga9_7 2.667328 1_555
Ga5_5 V0_1 2.671754 1_555
Ga5_5 V0_5 2.671754 1_555
Ga5_5 V2_3 2.720150 1_555
Ga5_5 V2_7 2.720150 1_555
Ga5_6 Ga9_4 2.667328 1_565
Ga5_6 V0_6 2.671754 1_555
Ga5_6 V0_2 2.671754 1_555
Ga5_6 V2_0 2.720150 1_565
Ga5_6 V2_4 2.720150 1_565
Ga5_7 Ga9_5 2.667328 1_565
Ga5_7 V0_3 2.671754 1_555
Ga5_7 V0_7 2.671754 1_555
Ga5_7 V2_1 2.720150 1_565
Ga5_7 V2_5 2.720150 1_565
Ga6_0 Ga6_4 2.657069 1_455
Ga6_0 Ga6_4 2.657069 1_555
Ga6_0 Ga8_0 2.667328 1_555
Ga6_0 V2_4 2.671754 1_455
Ga6_0 V2_0 2.671754 1_555
Ga6_0 Ga7_0 2.718210 1_555
Ga6_0 V0_4 2.720150 1_455
Ga6_0 V0_0 2.720150 1_555
Ga6_1 Ga6_5 2.657069 1_455
Ga6_1 Ga6_5 2.657069 1_555
Ga6_1 Ga8_1 2.667328 1_555
Ga6_1 V2_5 2.671754 1_455
Ga6_1 V2_1 2.671754 1_555
Ga6_1 Ga7_1 2.718210 1_555
Ga6_1 V0_5 2.720150 1_455
Ga6_1 V0_1 2.720150 1_555
Ga6_2 Ga6_6 2.657069 1_455
Ga6_2 Ga6_6 2.657069 1_555
Ga6_2 Ga8_2 2.667328 1_555
Ga6_2 V2_6 2.671754 1_455
Ga6_2 V2_2 2.671754 1_555
Ga6_2 Ga7_2 2.718210 1_555
Ga6_2 V0_6 2.720150 1_455
Ga6_2 V0_2 2.720150 1_555
Ga6_3 Ga6_7 2.657069 1_455
Ga6_3 Ga6_7 2.657069 1_555
Ga6_3 Ga8_3 2.667328 1_555
Ga6_3 V2_3 2.671754 1_555
Ga6_3 V2_7 2.671754 1_455
Ga6_3 Ga7_3 2.718210 1_555
Ga6_3 V0_3 2.720150 1_555
Ga6_3 V0_7 2.720150 1_455
Ga6_4 Ga8_4 2.667328 1_555
Ga6_4 V2_4 2.671754 1_555
Ga6_4 V2_0 2.671754 1_555
Ga6_4 Ga7_4 2.718210 1_555
Ga6_4 V0_0 2.720150 1_555
Ga6_4 V0_4 2.720150 1_555
Ga6_5 Ga8_5 2.667328 1_555
Ga6_5 V2_5 2.671754 1_555
Ga6_5 V2_1 2.671754 1_555
Ga6_5 Ga7_5 2.718210 1_555
Ga6_5 V0_1 2.720150 1_555
Ga6_5 V0_5 2.720150 1_555
Ga6_6 Ga8_6 2.667328 1_555
Ga6_6 V2_2 2.671754 1_555
Ga6_6 V2_6 2.671754 1_555
Ga6_6 Ga7_6 2.718210 1_555
Ga6_6 V0_6 2.720150 1_555
Ga6_6 V0_2 2.720150 1_555
Ga6_7 Ga8_7 2.667328 1_555
Ga6_7 V2_3 2.671754 1_555
Ga6_7 V2_7 2.671754 1_555
Ga6_7 Ga7_7 2.718210 1_555
Ga6_7 V0_7 2.720150 1_555
Ga6_7 V0_3 2.720150 1_555
Ga7_0 Ga7_4 2.657069 1_455
Ga7_0 Ga7_4 2.657069 1_555
Ga7_0 Ga9_0 2.667328 1_555
Ga7_0 V3_0 2.671754 1_555
Ga7_0 V3_4 2.671754 1_455
Ga7_0 V2_4 2.720150 1_455
Ga7_0 V2_0 2.720150 1_555
Ga7_1 Ga7_5 2.657069 1_555
Ga7_1 Ga7_5 2.657069 1_455
Ga7_1 Ga9_1 2.667328 1_555
Ga7_1 V3_5 2.671754 1_455
Ga7_1 V3_1 2.671754 1_555
Ga7_1 V2_5 2.720150 1_455
Ga7_1 V2_1 2.720150 1_555
Ga7_2 Ga7_6 2.657069 1_455
Ga7_2 Ga7_6 2.657069 1_555
Ga7_2 Ga9_2 2.667328 1_555
Ga7_2 V3_2 2.671754 1_555
Ga7_2 V3_6 2.671754 1_455
Ga7_2 V2_6 2.720150 1_455
Ga7_2 V2_2 2.720150 1_555
Ga7_3 Ga7_7 2.657069 1_455
Ga7_3 Ga7_7 2.657069 1_555
Ga7_3 Ga9_3 2.667328 1_555
Ga7_3 V3_3 2.671754 1_555
Ga7_3 V3_7 2.671754 1_455
Ga7_3 V2_7 2.720150 1_455
Ga7_3 V2_3 2.720150 1_555
Ga7_4 Ga9_4 2.667328 1_555
Ga7_4 V3_0 2.671754 1_555
Ga7_4 V3_4 2.671754 1_555
Ga7_4 V2_0 2.720150 1_555
Ga7_4 V2_4 2.720150 1_555
Ga7_5 Ga9_5 2.667328 1_555
Ga7_5 V3_1 2.671754 1_555
Ga7_5 V3_5 2.671754 1_555
Ga7_5 V2_5 2.720150 1_555
Ga7_5 V2_1 2.720150 1_555
Ga7_6 Ga9_6 2.667328 1_555
Ga7_6 V3_2 2.671754 1_555
Ga7_6 V3_6 2.671754 1_555
Ga7_6 V2_6 2.720150 1_555
Ga7_6 V2_2 2.720150 1_555
Ga7_7 Ga9_7 2.667328 1_555
Ga7_7 V3_3 2.671754 1_555
Ga7_7 V3_7 2.671754 1_555
Ga7_7 V2_3 2.720150 1_555
Ga7_7 V2_7 2.720150 1_555
Ga8_0 V3_5 2.621780 1_454
Ga8_0 V3_1 2.621780 1_554
Ga8_0 V0_4 2.621780 1_455
Ga8_0 V0_0 2.621780 1_555
Ga8_0 Ga8_4 2.657069 1_455
Ga8_0 Ga8_4 2.657069 1_555
Ga8_1 V3_0 2.621780 1_555
Ga8_1 V3_4 2.621780 1_455
Ga8_1 V0_5 2.621780 1_455
Ga8_1 V0_1 2.621780 1_555
Ga8_1 Ga8_5 2.657069 1_555
Ga8_1 Ga8_5 2.657069 1_455
Ga8_2 V0_2 2.621780 1_555
Ga8_2 V0_6 2.621780 1_455
Ga8_2 V3_7 2.621780 1_454
Ga8_2 V3_3 2.621780 1_554
Ga8_2 Ga8_6 2.657069 1_455
Ga8_2 Ga8_6 2.657069 1_555
Ga8_3 V0_3 2.621780 1_555
Ga8_3 V0_7 2.621780 1_455
Ga8_3 V3_6 2.621780 1_455
Ga8_3 V3_2 2.621780 1_555
Ga8_3 Ga8_7 2.657069 1_455
Ga8_3 Ga8_7 2.657069 1_555
Ga8_4 V3_5 2.621780 1_554
Ga8_4 V3_1 2.621780 1_554
Ga8_4 V0_4 2.621780 1_555
Ga8_4 V0_0 2.621780 1_555
Ga8_5 V3_0 2.621780 1_555
Ga8_5 V3_4 2.621780 1_555
Ga8_5 V0_1 2.621780 1_555
Ga8_5 V0_5 2.621780 1_555
Ga8_6 V0_2 2.621780 1_555
Ga8_6 V0_6 2.621780 1_555
Ga8_6 V3_3 2.621780 1_554
Ga8_6 V3_7 2.621780 1_554
Ga8_7 V0_7 2.621780 1_555
Ga8_7 V0_3 2.621780 1_555
Ga8_7 V3_2 2.621780 1_555
Ga8_7 V3_6 2.621780 1_555
Ga9_0 V2_4 2.621780 1_455
Ga9_0 V2_0 2.621780 1_555
Ga9_0 V1_6 2.621780 1_445
Ga9_0 V1_2 2.621780 1_545
Ga9_0 Ga9_4 2.657069 1_555
Ga9_0 Ga9_4 2.657069 1_455
Ga9_1 V1_3 2.621780 1_545
Ga9_1 V1_7 2.621780 1_445
Ga9_1 V2_1 2.621780 1_555
Ga9_1 V2_5 2.621780 1_455
Ga9_1 Ga9_5 2.657069 1_455
Ga9_1 Ga9_5 2.657069 1_555
Ga9_2 V2_6 2.621780 1_455
Ga9_2 V2_2 2.621780 1_555
Ga9_2 V1_0 2.621780 1_555
Ga9_2 V1_4 2.621780 1_455
Ga9_2 Ga9_6 2.657069 1_555
Ga9_2 Ga9_6 2.657069 1_455
Ga9_3 V1_5 2.621780 1_455
Ga9_3 V1_1 2.621780 1_555
Ga9_3 V2_3 2.621780 1_555
Ga9_3 V2_7 2.621780 1_455
Ga9_3 Ga9_7 2.657069 1_455
Ga9_3 Ga9_7 2.657069 1_555
Ga9_4 V2_0 2.621780 1_555
Ga9_4 V2_4 2.621780 1_555
Ga9_4 V1_2 2.621780 1_545
Ga9_4 V1_6 2.621780 1_545
Ga9_5 V1_3 2.621780 1_545
Ga9_5 V1_7 2.621780 1_545
Ga9_5 V2_5 2.621780 1_555
Ga9_5 V2_1 2.621780 1_555
Ga9_6 V2_2 2.621780 1_555
Ga9_6 V2_6 2.621780 1_555
Ga9_6 V1_0 2.621780 1_555
Ga9_6 V1_4 2.621780 1_555
Ga9_7 V1_5 2.621780 1_555
Ga9_7 V1_1 2.621780 1_555
Ga9_7 V2_3 2.621780 1_555
Ga9_7 V2_7 2.621780 1_555
