# generated using pymatgen
data_Na18Nb4Zn8Si9(SO8)9
_symmetry_space_group_name_H-M   'P 1'
_cell_length_a   9.06537475
_cell_length_b   9.11715965
_cell_length_c   22.36287340
_cell_angle_alpha   90.77153955
_cell_angle_beta   89.32140515
_cell_angle_gamma   119.92572533
_symmetry_Int_Tables_number   1
_chemical_formula_structural   Na18Nb4Zn8Si9(SO8)9
_chemical_formula_sum   'Na18 Nb4 Zn8 Si9 S9 O72'
_cell_volume   1601.69987564
_cell_formula_units_Z   1
loop_
 _symmetry_equiv_pos_site_id
 _symmetry_equiv_pos_as_xyz
  1  'x, y, z'
loop_
 _atom_site_type_symbol
 _atom_site_label
 _atom_site_symmetry_multiplicity
 _atom_site_fract_x
 _atom_site_fract_y
 _atom_site_fract_z
 _atom_site_occupancy
  Na  Na0  1  0.65699195  0.02970154  0.25579396  1
  Na  Na1  1  0.35117441  0.34022769  0.25233671  1
  Na  Na2  1  0.98983040  0.63183887  0.24101794  1
  Na  Na3  1  0.64387544  0.63122283  0.73416082  1
  Na  Na4  1  0.98747121  0.34403293  0.73842157  1
  Na  Na5  1  0.37821403  0.03455820  0.74901578  1
  Na  Na6  1  0.29639671  0.33913128  0.59035996  1
  Na  Na7  1  0.03064396  0.69572118  0.58617028  1
  Na  Na8  1  0.67462881  0.95118973  0.58148813  1
  Na  Na9  1  0.27796170  0.94823398  0.08351849  1
  Na  Na10  1  0.67840558  0.70902963  0.08407832  1
  Na  Na11  1  0.03262658  0.33766396  0.09302673  1
  Na  Na12  1  0.97719729  0.99646395  0.49683886  1
  Na  Na13  1  0.00907833  0.98588223  0.99221456  1
  Na  Na14  1  0.64828284  0.31664357  0.82353124  1
  Na  Na15  1  0.66253866  0.31382726  0.33203037  1
  Na  Na16  1  0.30986281  0.66152890  0.16420179  1
  Na  Na17  1  0.33588877  0.65269404  0.65492532  1
  Nb  Nb0  1  0.66777518  0.33822279  0.97565373  1
  Nb  Nb1  1  0.67679810  0.33034119  0.48139450  1
  Nb  Nb2  1  0.33212099  0.67614084  0.31721045  1
  Nb  Nb3  1  0.34261447  0.67911710  0.81387242  1
  Zn  Zn0  1  0.00286967  0.02578363  0.35070583  1
  Zn  Zn1  1  0.02141802  0.02046272  0.84597907  1
  Zn  Zn2  1  0.98039226  0.02286227  0.64730253  1
  Zn  Zn3  1  0.02017920  0.00286820  0.16173133  1
  Zn  Zn4  1  0.66771129  0.33494801  0.68068591  1
  Zn  Zn5  1  0.67983677  0.32754068  0.18679043  1
  Zn  Zn6  1  0.30446943  0.67563063  0.01117595  1
  Zn  Zn7  1  0.35493800  0.66385010  0.51819823  1
  Si  Si0  1  0.29363047  0.00285811  0.24977866  1
  Si  Si1  1  0.00161565  0.29516945  0.24788662  1
  Si  Si2  1  0.29882204  0.29471552  0.74860883  1
  Si  Si3  1  0.71744435  0.00542462  0.75204631  1
  Si  Si4  1  0.97107244  0.34198469  0.58589877  1
  Si  Si5  1  0.67137118  0.62918527  0.58630056  1
  Si  Si6  1  0.95957850  0.62870339  0.08612757  1
  Si  Si7  1  0.31947219  0.96387463  0.92092461  1
  Si  Si8  1  0.63818731  0.96250416  0.42224182  1
  S  S0  1  0.69946193  0.70469235  0.25008054  1
  S  S1  1  0.00497874  0.70734107  0.75279337  1
  S  S2  1  0.37412854  0.04090928  0.58343800  1
  S  S3  1  0.66552713  0.03987089  0.08111959  1
  S  S4  1  0.37762921  0.33828023  0.08197604  1
  S  S5  1  0.62167096  0.66502388  0.92026503  1
  S  S6  1  0.03829240  0.37127392  0.91966869  1
  S  S7  1  0.33806514  0.37339078  0.41741772  1
  S  S8  1  0.03601859  0.66581958  0.41950923  1
  O  O0  1  0.19605411  0.03029397  0.30485087  1
  O  O1  1  0.80862847  0.78465234  0.30126451  1
  O  O2  1  0.94942119  0.16124798  0.30017612  1
  O  O3  1  0.22518422  0.17057164  0.80467116  1
  O  O4  1  0.98197088  0.78887366  0.80544891  1
  O  O5  1  0.83054417  0.02698129  0.80939288  1
  O  O6  1  0.76327626  0.93863164  0.69053842  1
  O  O7  1  0.18023747  0.23267873  0.68862571  1
  O  O8  1  0.04469636  0.80463259  0.69733843  1
  O  O9  1  0.76468504  0.80477571  0.19378395  1
  O  O10  1  0.04780125  0.22693806  0.18503152  1
  O  O11  1  0.18417999  0.93808467  0.18737560  1
  O  O12  1  0.88527544  0.36837526  0.64565615  1
  O  O13  1  0.47276345  0.11297035  0.63886130  1
  O  O14  1  0.63559823  0.51265340  0.64417698  1
  O  O15  1  0.86841076  0.51425660  0.14413801  1
  O  O16  1  0.63412387  0.10959741  0.13689463  1
  O  O17  1  0.47185748  0.35527537  0.13704261  1
  O  O18  1  0.47478989  0.32013635  0.02862681  1
  O  O19  1  0.83048837  0.51206583  0.02757236  1
  O  O20  1  0.67815417  0.15139714  0.02915372  1
  O  O21  1  0.47094688  0.15192749  0.53052218  1
  O  O22  1  0.67776001  0.50877611  0.52727398  1
  O  O23  1  0.83596400  0.31596562  0.52747596  1
  O  O24  1  0.53496444  0.67224968  0.97511568  1
  O  O25  1  0.13298659  0.44937128  0.97530756  1
  O  O26  1  0.31600285  0.87534539  0.98309872  1
  O  O27  1  0.54012936  0.86173247  0.48091400  1
  O  O28  1  0.31759951  0.45159641  0.47228317  1
  O  O29  1  0.13289189  0.67895535  0.47234954  1
  O  O30  1  0.12550357  0.64117508  0.36344411  1
  O  O31  1  0.50402468  0.85303462  0.36312332  1
  O  O32  1  0.35229305  0.48001676  0.36313687  1
  O  O33  1  0.12106923  0.47827168  0.86694305  1
  O  O34  1  0.35049528  0.85791502  0.86420408  1
  O  O35  1  0.51413776  0.63886826  0.86628079  1
  O  O36  1  0.01407337  0.81124356  0.41005275  1
  O  O37  1  0.82211066  0.98170469  0.41187759  1
  O  O38  1  0.19151659  0.20274664  0.41172667  1
  O  O39  1  0.00582521  0.19888334  0.91501229  1
  O  O40  1  0.15750641  0.98590855  0.91176559  1
  O  O41  1  0.79242544  0.80881358  0.91405059  1
  O  O42  1  0.97803224  0.16784234  0.57966312  1
  O  O43  1  0.20856597  0.03489453  0.58382224  1
  O  O44  1  0.85161255  0.80703692  0.58289043  1
  O  O45  1  0.96869491  0.81247655  0.08290385  1
  O  O46  1  0.82739220  0.03714948  0.08145497  1
  O  O47  1  0.20842971  0.18349227  0.07930940  1
  O  O48  1  0.67876693  0.16084430  0.74719107  1
  O  O49  1  0.49615021  0.33709424  0.74419514  1
  O  O50  1  0.85974733  0.53273890  0.74920105  1
  O  O51  1  0.66546704  0.52841450  0.24364355  1
  O  O52  1  0.84671094  0.33826544  0.24677093  1
  O  O53  1  0.48614699  0.16603013  0.24312836  1
  O  O54  1  0.63500076  0.50153309  0.92163409  1
  O  O55  1  0.86321201  0.36240930  0.92315394  1
  O  O56  1  0.50588158  0.15531400  0.92501602  1
  O  O57  1  0.64173553  0.15038776  0.42162777  1
  O  O58  1  0.50083183  0.36747570  0.41743766  1
  O  O59  1  0.86545087  0.50275054  0.41872309  1
  O  O60  1  0.36575117  0.49347755  0.07461445  1
  O  O61  1  0.14674484  0.63966623  0.08098364  1
  O  O62  1  0.52056464  0.86426994  0.07495444  1
  O  O63  1  0.35048207  0.86923785  0.57651650  1
  O  O64  1  0.50489466  0.65201752  0.58105835  1
  O  O65  1  0.15211949  0.51397420  0.57493817  1
  O  O66  1  0.31953174  0.82972337  0.26191585  1
  O  O67  1  0.52340283  0.68830268  0.25769381  1
  O  O68  1  0.18135493  0.48607305  0.25979670  1
  O  O69  1  0.31044212  0.48630549  0.76513205  1
  O  O70  1  0.16368962  0.68415159  0.76057174  1
  O  O71  1  0.51566681  0.82867523  0.76356330  1
loop_
_geom_bond_atom_site_label_1
_geom_bond_atom_site_label_2
_geom_bond_distance
_geom_bond_site_symmetry_2
Na0 O53 2.442204 1_555
Na0 O52 2.468292 1_555
Na0 O2 2.511808 1_555
Na0 O66 2.670830 1_545
Na0 O67 2.719921 1_545
Na0 O16 2.803458 1_555
Na0 O31 2.841648 1_545
Na1 O53 2.446633 1_555
Na1 O68 2.489235 1_555
Na1 O51 2.493546 1_555
Na1 O0 2.725227 1_555
Na1 O67 2.751987 1_555
Na1 O17 2.767013 1_555
Na1 O32 2.768862 1_555
Na1 O10 2.849171 1_555
Na2 O52 2.324716 1_555
Na2 O15 2.423051 1_555
Na2 O51 2.601907 1_555
Na2 O66 2.652698 1_655
Na2 O68 2.700293 1_655
Na2 O11 2.733289 1_655
Na2 O1 2.938551 1_555
Na2 O30 2.997424 1_655
Na3 O14 2.255577 1_555
Na3 O49 2.336838 1_555
Na3 O50 2.554594 1_555
Na3 O6 2.645774 1_555
Na3 O71 2.657357 1_555
Na3 O69 2.711531 1_555
Na4 O12 2.339696 1_555
Na4 O48 2.447846 1_555
Na4 O50 2.515663 1_555
Na4 O69 2.615903 1_655
Na4 O7 2.649170 1_655
Na4 O70 2.729073 1_655
Na5 O48 2.370554 1_555
Na5 O49 2.413640 1_555
Na5 O3 2.577848 1_555
Na5 O13 2.588430 1_555
Na5 O71 2.746202 1_545
Na5 O70 2.804708 1_545
Na5 O8 2.926597 1_545
Na5 O34 2.997481 1_545
Na6 O7 2.421314 1_555
Na6 O43 2.477384 1_555
Na6 O42 2.516915 1_455
Na6 O64 2.525924 1_555
Na6 O65 2.544879 1_555
Na6 O28 2.815137 1_555
Na6 O14 2.930765 1_555
Na7 O44 2.306018 1_455
Na7 O65 2.413372 1_555
Na7 O63 2.524656 1_555
Na7 O8 2.645261 1_555
Na7 O43 2.681886 1_565
Na7 O29 2.726975 1_555
Na7 O12 2.924817 1_455
Na8 O64 2.370572 1_555
Na8 O42 2.459107 1_565
Na8 O27 2.496753 1_555
Na8 O44 2.531532 1_555
Na8 O6 2.598425 1_555
Na8 O63 2.649593 1_555
Na9 O26 2.402855 1_554
Na9 O45 2.435277 1_455
Na9 O61 2.447651 1_555
Na9 O11 2.450730 1_555
Na9 O47 2.522404 1_565
Na9 O62 2.669350 1_555
Na10 O45 2.310428 1_555
Na10 O62 2.475407 1_555
Na10 O60 2.527003 1_555
Na10 O9 2.588274 1_555
Na10 O46 2.597755 1_565
Na10 O24 2.712734 1_554
Na11 O10 2.339337 1_555
Na11 O61 2.428025 1_555
Na11 O46 2.437511 1_455
Na11 O47 2.611839 1_555
Na11 O60 2.648265 1_555
Na11 O25 2.808240 1_554
Na11 O15 2.901092 1_455
Na12 O37 2.339286 1_555
Na12 O42 2.404706 1_565
Na12 O44 2.461256 1_555
Na12 O36 2.681358 1_655
Na12 O38 2.701415 1_665
Na12 O43 2.766021 1_665
Na13 O40 2.233724 1_555
Na13 O45 2.497568 1_456
Na13 O41 2.522062 1_455
Na13 O39 2.627055 1_565
Na13 O47 2.654362 1_566
Na13 O46 2.753018 1_466
Na14 O48 2.307314 1_555
Na14 O49 2.325500 1_555
Na14 O50 2.562010 1_555
Na14 O56 2.665804 1_555
Na14 O54 2.786693 1_555
Na14 O55 2.863627 1_555
Na15 O52 2.457102 1_555
Na15 O57 2.462048 1_555
Na15 O53 2.485670 1_555
Na15 O58 2.580707 1_555
Na15 O59 2.634824 1_555
Na15 O51 2.790389 1_555
Na16 O61 2.334690 1_555
Na16 O68 2.580677 1_555
Na16 O66 2.629508 1_555
Na16 O60 2.699208 1_555
Na16 O62 2.744953 1_555
Na16 O67 2.790855 1_555
Na17 O64 2.241714 1_555
Na17 O65 2.341350 1_555
Na17 O63 2.610926 1_555
Na17 O69 2.857707 1_555
Na17 O70 2.905497 1_555
Na17 O71 2.917610 1_555
Nb0 O19 1.922048 1_556
Nb0 O56 1.940043 1_555
Nb0 O55 2.033189 1_555
Nb0 O18 2.039502 1_556
Nb0 O54 2.064667 1_555
Nb0 O20 2.135183 1_556
Nb1 O23 1.840826 1_555
Nb1 O22 1.907982 1_555
Nb1 O57 2.002468 1_555
Nb1 O21 2.075143 1_555
Nb1 O59 2.163380 1_555
Nb1 O58 2.304533 1_555
Nb2 O31 1.889287 1_555
Nb2 O66 1.926694 1_555
Nb2 O30 2.011521 1_555
Nb2 O68 2.034188 1_555
Nb2 O67 2.132633 1_555
Nb2 O32 2.160024 1_555
Nb3 O71 1.857766 1_555
Nb3 O34 1.940517 1_555
Nb3 O69 1.951328 1_555
Nb3 O70 2.043373 1_555
Nb3 O35 2.133092 1_555
Nb3 O33 2.264489 1_555
O0 Si0 1.596390 1_555
O0 Zn0 2.001748 1_555
O1 S0 1.451039 1_555
O1 Zn0 2.296612 1_665
O2 Si1 1.590901 1_655
O2 Zn0 1.919537 1_655
O3 Si2 1.600942 1_555
O3 Zn1 1.899945 1_555
O4 S1 1.451877 1_655
O4 Zn1 2.147166 1_665
O5 Si3 1.599310 1_555
O5 Zn1 1.950506 1_655
O6 Si3 1.628433 1_565
O6 Zn2 1.966055 1_565
O7 Si2 1.637669 1_555
O7 Zn2 2.080783 1_455
O8 S1 1.467911 1_555
O8 Zn2 2.604448 1_465
O9 S0 1.497389 1_555
O9 Zn3 2.227553 1_665
O10 Si1 1.661455 1_555
O10 Zn3 1.992886 1_555
O11 Si0 1.645191 1_565
O11 Zn3 1.947708 1_565
O12 Si4 1.613102 1_555
O12 Zn4 1.991636 1_555
O13 S2 1.478351 1_555
O13 Zn4 2.124490 1_555
O14 Si5 1.610104 1_555
O14 Zn4 1.971834 1_555
O15 Si6 1.614114 1_555
O15 Zn5 1.957445 1_555
O16 S3 1.480441 1_555
O16 Zn5 2.120069 1_555
O17 S4 1.468969 1_555
O17 Zn5 2.321489 1_555
O18 S4 1.530257 1_555
O19 Si6 1.723992 1_555
O20 S3 1.519876 1_555
O21 S2 1.521982 1_555
O22 Si5 1.724386 1_555
O23 Si4 1.732927 1_555
O24 S5 1.467455 1_555
O24 Zn6 2.245226 1_556
O25 S6 1.477710 1_555
O25 Zn6 2.025027 1_556
O26 Si7 1.609194 1_555
O26 Zn6 1.886766 1_556
O27 Si8 1.595562 1_555
O27 Zn7 1.937490 1_555
O28 S7 1.466713 1_555
O28 Zn7 2.053011 1_555
O29 S8 1.448351 1_555
O29 Zn7 2.334823 1_555
O30 S8 1.559068 1_555
O31 Si8 1.736257 1_555
O32 S7 1.529093 1_555
O33 S6 1.478052 1_555
O34 Si7 1.688461 1_555
O35 S5 1.500924 1_555
O36 S8 1.453929 1_555
O36 Zn0 2.422587 1_565
O37 Si8 1.601589 1_555
O37 Zn0 2.005664 1_665
O38 S7 1.462210 1_555
O38 Zn0 2.152404 1_555
O39 S6 1.450004 1_555
O39 Zn1 2.281662 1_555
O40 Si7 1.593952 1_555
O40 Zn1 2.056419 1_565
O41 S5 1.452290 1_555
O41 Zn1 2.521450 1_665
O42 Si4 1.624174 1_555
O42 Zn2 2.029397 1_555
O43 S2 1.474222 1_555
O43 Zn2 2.452376 1_455
O44 Si5 1.631491 1_555
O44 Zn2 2.231849 1_565
O45 Si6 1.638367 1_555
O45 Zn3 2.338201 1_665
O46 S3 1.480010 1_555
O47 S4 1.479181 1_555
O47 Zn3 2.494956 1_555
O48 Si3 1.625834 1_555
O48 Zn4 2.228768 1_555
O49 Si2 1.632867 1_555
O49 Zn4 2.100865 1_555
O50 S1 1.477105 1_655
O50 Zn4 2.342360 1_555
O51 S0 1.482998 1_555
O51 Zn5 2.271310 1_555
O52 Si1 1.636638 1_655
O52 Zn5 1.998545 1_555
O53 Si0 1.640252 1_555
O53 Zn5 2.063129 1_555
O54 S5 1.555113 1_555
O55 S6 1.549505 1_655
O56 Si7 1.722473 1_545
O57 Si8 1.697386 1_545
O58 S7 1.503177 1_555
O59 S8 1.519152 1_655
O60 S4 1.483077 1_555
O60 Zn6 2.466146 1_555
O61 Si6 1.651849 1_455
O61 Zn6 2.020422 1_555
O62 S3 1.486026 1_565
O62 Zn6 2.338437 1_555
O63 S2 1.476186 1_565
O63 Zn7 2.284160 1_555
O64 Si5 1.628796 1_555
O64 Zn7 2.007835 1_555
O65 Si4 1.626538 1_455
O65 Zn7 2.083851 1_555
O66 Si0 1.733006 1_565
O67 S0 1.534587 1_555
O68 Si1 1.709802 1_555
O69 Si2 1.731687 1_555
O70 S1 1.566988 1_555
O71 Si3 1.751580 1_565
