# generated using pymatgen
data_Na2Mn2Se3
_symmetry_space_group_name_H-M   'P 1'
_cell_length_a   10.40845438
_cell_length_b   10.40845438
_cell_length_c   7.27682566
_cell_angle_alpha   69.91732667
_cell_angle_beta   69.91732667
_cell_angle_gamma   83.87490680
_symmetry_Int_Tables_number   1
_chemical_formula_structural   Na2Mn2Se3
_chemical_formula_sum   'Na8 Mn8 Se12'
_cell_volume   695.33460339
_cell_formula_units_Z   4
loop_
 _symmetry_equiv_pos_site_id
 _symmetry_equiv_pos_as_xyz
  1  'x, y, z'
loop_
 _atom_site_type_symbol
 _atom_site_label
 _atom_site_symmetry_multiplicity
 _atom_site_fract_x
 _atom_site_fract_y
 _atom_site_fract_z
 _atom_site_occupancy
  Na  Na0  1  0.01949443  0.18793937  0.35677302  1
  Na  Na1  1  0.81206063  0.98050557  0.14322698  1
  Na  Na2  1  0.98050557  0.81206063  0.64322698  1
  Na  Na3  1  0.18793937  0.01949443  0.85677302  1
  Na  Na4  1  0.72062888  0.27937112  0.25000000  1
  Na  Na5  1  0.27937112  0.72062888  0.75000000  1
  Na  Na6  1  0.42984512  0.57015488  0.25000000  1
  Na  Na7  1  0.57015488  0.42984512  0.75000000  1
  Mn  Mn0  1  0.44482248  0.91824692  0.24183584  1
  Mn  Mn1  1  0.08175308  0.55517752  0.25816416  1
  Mn  Mn2  1  0.55517752  0.08175308  0.75816416  1
  Mn  Mn3  1  0.91824692  0.44482248  0.74183584  1
  Mn  Mn4  1  0.63380387  0.78581128  0.70302986  1
  Mn  Mn5  1  0.21418872  0.36619613  0.79697014  1
  Mn  Mn6  1  0.36619613  0.21418872  0.29697014  1
  Mn  Mn7  1  0.78581128  0.63380387  0.20302986  1
  Se  Se0  1  0.22484391  0.99724208  0.45419718  1
  Se  Se1  1  0.00275792  0.77515609  0.04580282  1
  Se  Se2  1  0.77515609  0.00275792  0.54580282  1
  Se  Se3  1  0.99724208  0.22484391  0.95419718  1
  Se  Se4  1  0.85339693  0.41354418  0.44883628  1
  Se  Se5  1  0.58645582  0.14660307  0.05116372  1
  Se  Se6  1  0.14660307  0.58645582  0.55116372  1
  Se  Se7  1  0.41354418  0.85339693  0.94883628  1
  Se  Se8  1  0.56871951  0.71936101  0.43490076  1
  Se  Se9  1  0.28063899  0.43128049  0.06509924  1
  Se  Se10  1  0.43128049  0.28063899  0.56509924  1
  Se  Se11  1  0.71936101  0.56871951  0.93490076  1
loop_
_geom_bond_atom_site_label_1
_geom_bond_atom_site_label_2
_geom_bond_distance
_geom_bond_site_symmetry_2
Na0 Se0 2.859993 1_545
Na0 Se4 2.893146 1_455
Na0 Se3 2.908128 1_454
Na0 Se2 2.982922 1_455
Na0 Se9 3.481875 1_555
Na1 Se1 2.859993 1_655
Na1 Se5 2.893146 1_565
Na1 Se2 2.908128 1_565
Na1 Se3 2.982922 1_564
Na1 Se8 3.481875 1_555
Na2 Se2 2.859993 1_565
Na2 Se6 2.893146 1_655
Na2 Se1 2.908128 1_656
Na2 Se0 2.982922 1_655
Na2 Se11 3.481875 1_555
Na3 Se3 2.859993 1_455
Na3 Se7 2.893146 1_545
Na3 Se0 2.908128 1_545
Na3 Se1 2.982922 1_546
Na3 Se10 3.481875 1_555
Na4 Se4 3.020953 1_555
Na4 Se5 3.020953 1_555
Na4 Se2 3.078790 1_555
Na4 Se3 3.078790 1_554
Na4 Se11 3.098022 1_554
Na4 Se10 3.098022 1_555
Na5 Se7 3.020953 1_555
Na5 Se6 3.020953 1_555
Na5 Se1 3.078790 1_556
Na5 Se0 3.078790 1_555
Na5 Se8 3.098022 1_555
Na5 Se9 3.098022 1_556
Na6 Se7 3.038835 1_554
Na6 Se6 3.038835 1_555
Na6 Se8 3.092124 1_555
Na6 Se9 3.092124 1_555
Na6 Se11 3.099543 1_554
Na6 Se10 3.099543 1_555
Na7 Se5 3.038835 1_556
Na7 Se4 3.038835 1_555
Na7 Se11 3.092124 1_555
Na7 Se10 3.092124 1_555
Na7 Se9 3.099543 1_556
Na7 Se8 3.099543 1_555
Mn0 Se0 2.519414 1_555
Mn0 Se8 2.568912 1_555
Mn0 Se7 2.572819 1_554
Mn0 Se5 2.612649 1_565
Mn1 Se1 2.519414 1_555
Mn1 Se9 2.568912 1_555
Mn1 Se6 2.572819 1_555
Mn1 Se4 2.612649 1_455
Mn2 Se2 2.519414 1_555
Mn2 Se10 2.568912 1_555
Mn2 Se5 2.572819 1_556
Mn2 Se7 2.612649 1_545
Mn3 Se3 2.519414 1_555
Mn3 Se11 2.568912 1_555
Mn3 Se4 2.572819 1_555
Mn3 Se6 2.612649 1_655
Mn4 Se2 2.520170 1_565
Mn4 Se7 2.579522 1_555
Mn4 Se8 2.584307 1_555
Mn4 Se11 2.594203 1_555
Mn5 Se3 2.520170 1_455
Mn5 Se6 2.579522 1_555
Mn5 Se9 2.584307 1_556
Mn5 Se10 2.594203 1_555
Mn6 Se0 2.520170 1_545
Mn6 Se5 2.579522 1_555
Mn6 Se10 2.584307 1_555
Mn6 Se9 2.594203 1_555
Mn7 Se1 2.520170 1_655
Mn7 Se4 2.579522 1_555
Mn7 Se11 2.584307 1_554
Mn7 Se8 2.594203 1_555
