# generated using pymatgen
data_Ti2Al2SiS5O24
_symmetry_space_group_name_H-M   'P 1'
_cell_length_a   8.46721202
_cell_length_b   8.47159883
_cell_length_c   21.94710151
_cell_angle_alpha   90.01330151
_cell_angle_beta   89.98633397
_cell_angle_gamma   120.01061428
_symmetry_Int_Tables_number   1
_chemical_formula_structural   Ti2Al2SiS5O24
_chemical_formula_sum   'Ti6 Al6 Si3 S15 O72'
_cell_volume   1363.22374937
_cell_formula_units_Z   3
loop_
 _symmetry_equiv_pos_site_id
 _symmetry_equiv_pos_as_xyz
  1  'x, y, z'
loop_
 _atom_site_type_symbol
 _atom_site_label
 _atom_site_symmetry_multiplicity
 _atom_site_fract_x
 _atom_site_fract_y
 _atom_site_fract_z
 _atom_site_occupancy
  Ti  Ti0  1  0.99835176  0.00625186  0.64334693  1
  Ti  Ti1  1  0.00788069  0.00931300  0.14137405  1
  Ti  Ti2  1  0.67615053  0.32216008  0.47615017  1
  Ti  Ti3  1  0.33372233  0.65843454  0.02367397  1
  Ti  Ti4  1  0.33867394  0.66710084  0.52306770  1
  Ti  Ti5  1  0.34339354  0.67816645  0.31240999  1
  Al  Al0  1  0.99734470  0.00034914  0.35497444  1
  Al  Al1  1  0.00129166  0.99874833  0.85344672  1
  Al  Al2  1  0.67414490  0.33783991  0.68882055  1
  Al  Al3  1  0.66261237  0.33744145  0.18766583  1
  Al  Al4  1  0.65725662  0.32893670  0.97802440  1
  Al  Al5  1  0.33224078  0.66808894  0.81284844  1
  Si  Si0  1  0.95335350  0.33991701  0.58689621  1
  Si  Si1  1  0.39476269  0.33405011  0.08315578  1
  Si  Si2  1  0.63408913  0.95562768  0.41686447  1
  S  S0  1  0.28954562  0.00512298  0.25072646  1
  S  S1  1  0.71663010  0.70891509  0.25015873  1
  S  S2  1  0.99402348  0.28739290  0.24999411  1
  S  S3  1  0.29275312  0.29201275  0.75159657  1
  S  S4  1  0.00007694  0.70927582  0.75187052  1
  S  S5  1  0.70757449  0.99934366  0.75227773  1
  S  S6  1  0.38241547  0.04909789  0.58537981  1
  S  S7  1  0.66676731  0.61600507  0.58514789  1
  S  S8  1  0.94757637  0.61421327  0.08312580  1
  S  S9  1  0.66598699  0.05232364  0.08311726  1
  S  S10  1  0.62568750  0.66757203  0.91449981  1
  S  S11  1  0.04026075  0.37459147  0.91507850  1
  S  S12  1  0.33316009  0.95708172  0.91491437  1
  S  S13  1  0.33004674  0.37360196  0.41559435  1
  S  S14  1  0.04636219  0.67341784  0.41541246  1
  O  O0  1  0.20405015  0.03374211  0.30498699  1
  O  O1  1  0.83030572  0.79457814  0.30435767  1
  O  O2  1  0.96479873  0.17174060  0.30370092  1
  O  O3  1  0.20667171  0.17262409  0.80514300  1
  O  O4  1  0.96845498  0.79661194  0.80579369  1
  O  O5  1  0.82849939  0.03313645  0.80550366  1
  O  O6  1  0.78951299  0.96388318  0.69731351  1
  O  O7  1  0.17555157  0.20989741  0.69667862  1
  O  O8  1  0.03547890  0.82434203  0.69713157  1
  O  O9  1  0.79282054  0.82389426  0.19555692  1
  O  O10  1  0.02853641  0.20427543  0.19505020  1
  O  O11  1  0.17288668  0.96933662  0.19605066  1
  O  O12  1  0.85890323  0.36721065  0.64454512  1
  O  O13  1  0.49364688  0.13142325  0.63990390  1
  O  O14  1  0.63176900  0.50342411  0.63995144  1
  O  O15  1  0.87297555  0.50268386  0.13842802  1
  O  O16  1  0.63647948  0.13129623  0.13857111  1
  O  O17  1  0.50685729  0.36895398  0.14430334  1
  O  O18  1  0.47193923  0.29790560  0.02228101  1
  O  O19  1  0.83832171  0.53478634  0.02794365  1
  O  O20  1  0.70371857  0.16437290  0.02805665  1
  O  O21  1  0.45559293  0.16112685  0.52990715  1
  O  O22  1  0.69842632  0.54080217  0.52955765  1
  O  O23  1  0.83017621  0.29760762  0.52496573  1
  O  O24  1  0.54340700  0.70270967  0.96964501  1
  O  O25  1  0.15768304  0.45706691  0.97016084  1
  O  O26  1  0.29811464  0.84218951  0.96977703  1
  O  O27  1  0.52766338  0.82795977  0.47481706  1
  O  O28  1  0.29262153  0.45202695  0.47047379  1
  O  O29  1  0.15727643  0.70257699  0.47035392  1
  O  O30  1  0.12414112  0.63119760  0.36102465  1
  O  O31  1  0.49385444  0.86026852  0.35808953  1
  O  O32  1  0.36161356  0.49125524  0.36121028  1
  O  O33  1  0.12662903  0.49405975  0.86163950  1
  O  O34  1  0.36475007  0.86985958  0.86099826  1
  O  O35  1  0.50473852  0.63347812  0.86133581  1
  O  O36  1  0.03286528  0.83644440  0.40517085  1
  O  O37  1  0.82540498  0.97636738  0.40423486  1
  O  O38  1  0.17071954  0.19364377  0.40524515  1
  O  O39  1  0.02375958  0.19434366  0.90553958  1
  O  O40  1  0.17044075  0.97650745  0.90519455  1
  O  O41  1  0.80580931  0.83245342  0.90545353  1
  O  O42  1  0.97613837  0.15832561  0.59497511  1
  O  O43  1  0.19746102  0.02470629  0.59321282  1
  O  O44  1  0.82965897  0.79934048  0.59346075  1
  O  O45  1  0.96735895  0.79679717  0.09167945  1
  O  O46  1  0.82490069  0.02529351  0.09138161  1
  O  O47  1  0.18429274  0.16135771  0.09409111  1
  O  O48  1  0.68699040  0.15971132  0.74290220  1
  O  O49  1  0.47225285  0.30877202  0.74069822  1
  O  O50  1  0.83456127  0.53024996  0.74384195  1
  O  O51  1  0.69881748  0.52830137  0.24283153  1
  O  O52  1  0.83153544  0.30469952  0.23945078  1
  O  O53  1  0.47254184  0.16235115  0.24253276  1
  O  O54  1  0.64643475  0.50713892  0.92397429  1
  O  O55  1  0.86085344  0.35792198  0.92630095  1
  O  O56  1  0.49913145  0.13619666  0.92298015  1
  O  O57  1  0.63373453  0.14693800  0.42368646  1
  O  O58  1  0.49511922  0.36306954  0.42447435  1
  O  O59  1  0.86302957  0.51298544  0.42302020  1
  O  O60  1  0.35618689  0.50649314  0.07186441  1
  O  O61  1  0.13346174  0.64103296  0.07481166  1
  O  O62  1  0.50324229  0.86948184  0.07486659  1
  O  O63  1  0.36146791  0.86702110  0.57758841  1
  O  O64  1  0.50555294  0.63874261  0.57833797  1
  O  O65  1  0.15311938  0.50871773  0.57212913  1
  O  O66  1  0.30179933  0.83676798  0.25718113  1
  O  O67  1  0.53113385  0.68663678  0.25808759  1
  O  O68  1  0.15722884  0.46765435  0.25774088  1
  O  O69  1  0.30953655  0.47242728  0.76126901  1
  O  O70  1  0.16301788  0.69015833  0.76158435  1
  O  O71  1  0.52743678  0.83425062  0.76138380  1
loop_
_geom_bond_atom_site_label_1
_geom_bond_atom_site_label_2
_geom_bond_distance
_geom_bond_site_symmetry_2
Al0 O37 1.741575 1_545
Al0 O38 1.910244 1_655
Al0 O36 1.910700 1_645
Al0 O1 1.951102 1_545
Al0 O0 1.962352 1_655
Al0 O2 1.962548 1_555
Al1 O4 1.904341 1_455
Al1 O40 1.909822 1_555
Al1 O41 1.922085 1_455
Al1 O3 1.937833 1_565
Al1 O5 1.939027 1_465
Al1 O39 1.942384 1_565
Al2 O12 1.750277 1_555
Al2 O50 1.935259 1_555
Al2 O14 1.936796 1_555
Al2 O49 1.964011 1_555
Al2 O48 1.965428 1_555
Al2 O13 1.967922 1_555
Al3 O17 1.751893 1_555
Al3 O51 1.917709 1_555
Al3 O15 1.950788 1_555
Al3 O52 1.952485 1_555
Al3 O53 1.962709 1_555
Al3 O16 1.967860 1_555
Al4 O18 1.749699 1_556
Al4 O56 1.931608 1_555
Al4 O54 1.958033 1_555
Al4 O20 1.963063 1_556
Al4 O55 1.973957 1_555
Al4 O19 1.979228 1_556
Al5 O70 1.903337 1_555
Al5 O34 1.908638 1_555
Al5 O71 1.913498 1_555
Al5 O69 1.935570 1_555
Al5 O35 1.944469 1_555
Al5 O33 1.945119 1_555
O0 S0 1.475127 1_555
O1 S1 1.472900 1_555
O2 S2 1.472546 1_555
O3 S3 1.482563 1_555
O4 S4 1.489055 1_655
O5 S5 1.483950 1_545
O6 S5 1.494885 1_555
O6 Ti0 2.005688 1_565
O7 S3 1.493676 1_555
O7 Ti0 2.002024 1_455
O8 S4 1.480346 1_555
O8 Ti0 2.086319 1_465
O9 S1 1.473975 1_555
O9 Ti1 2.082293 1_665
O10 S2 1.496856 1_455
O10 Ti1 1.963802 1_555
O11 S0 1.486066 1_565
O11 Ti1 1.995239 1_565
O12 Si0 1.574225 1_555
O13 S6 1.465769 1_555
O14 S7 1.470292 1_555
O15 S8 1.472410 1_555
O16 S9 1.468984 1_555
O17 Si1 1.583969 1_555
O18 Si1 1.582813 1_555
O19 S8 1.467230 1_555
O20 S9 1.469825 1_555
O21 S6 1.476075 1_555
O21 Ti2 2.047391 1_555
O22 S7 1.461700 1_555
O22 Ti2 2.118947 1_555
O23 Si0 1.640172 1_555
O23 Ti2 1.778778 1_555
O24 S10 1.498544 1_555
O24 Ti3 2.007988 1_556
O25 S11 1.497802 1_555
O25 Ti3 1.991877 1_556
O26 S12 1.482116 1_555
O26 Ti3 2.093785 1_556
O27 Si2 1.620079 1_555
O27 Ti4 1.832382 1_555
O28 S13 1.484103 1_555
O28 Ti4 2.023046 1_555
O29 S14 1.471496 1_555
O29 Ti4 2.061705 1_555
O30 S14 1.490474 1_555
O30 Ti5 2.000867 1_555
O31 Si2 1.663483 1_555
O31 Ti5 1.744107 1_555
O32 S13 1.491107 1_555
O32 Ti5 1.980755 1_555
O33 S11 1.481357 1_555
O34 S12 1.488250 1_555
O35 S10 1.482614 1_555
O36 S14 1.459126 1_555
O37 Si2 1.564262 1_555
O38 S13 1.462324 1_555
O39 S11 1.476986 1_555
O40 S12 1.482508 1_555
O41 S10 1.478344 1_555
O42 Si0 1.652957 1_555
O42 Ti0 1.750792 1_555
O43 S6 1.483557 1_555
O43 Ti0 1.952664 1_455
O44 S7 1.484919 1_555
O44 Ti0 1.951102 1_565
O45 S8 1.482068 1_555
O45 Ti1 1.982387 1_665
O46 S9 1.484657 1_555
O46 Ti1 1.957875 1_655
O47 Si1 1.663047 1_555
O47 Ti1 1.744256 1_555
O48 S5 1.468141 1_545
O49 S3 1.473545 1_555
O50 S4 1.472795 1_655
O51 S1 1.469294 1_555
O52 S2 1.473048 1_555
O53 S0 1.463834 1_555
O54 S10 1.469797 1_555
O55 S11 1.474265 1_655
O56 S12 1.474997 1_545
O57 Si2 1.629068 1_545
O57 Ti2 1.767585 1_555
O58 S13 1.457535 1_555
O58 Ti2 2.070834 1_555
O59 S14 1.474548 1_655
O59 Ti2 1.979401 1_555
O60 Si1 1.667260 1_555
O60 Ti3 1.748508 1_555
O61 S8 1.484701 1_455
O61 Ti3 1.976281 1_555
O62 S9 1.481818 1_565
O62 Ti3 1.987943 1_555
O63 S6 1.471790 1_565
O63 Ti4 2.002412 1_555
O64 S7 1.478478 1_555
O64 Ti4 1.966272 1_555
O65 Si0 1.609776 1_455
O65 Ti4 1.821889 1_555
O66 S0 1.487652 1_565
O66 Ti5 1.967956 1_555
O67 S1 1.495379 1_555
O67 Ti5 1.959212 1_555
O68 S2 1.469558 1_455
O68 Ti5 2.071860 1_555
O69 S3 1.477788 1_555
O70 S4 1.482835 1_555
O71 S5 1.479365 1_555
