# generated using pymatgen
data_CdH6(CO3)2
_symmetry_space_group_name_H-M   'P 1'
_cell_length_a   7.30438274
_cell_length_b   8.94897359
_cell_length_c   9.75435593
_cell_angle_alpha   82.67748998
_cell_angle_beta   90.00000000
_cell_angle_gamma   90.00000000
_symmetry_Int_Tables_number   1
_chemical_formula_structural   CdH6(CO3)2
_chemical_formula_sum   'Cd4 H24 C8 O24'
_cell_volume   632.41026786
_cell_formula_units_Z   4
loop_
 _symmetry_equiv_pos_site_id
 _symmetry_equiv_pos_as_xyz
  1  'x, y, z'
loop_
 _atom_site_type_symbol
 _atom_site_label
 _atom_site_symmetry_multiplicity
 _atom_site_fract_x
 _atom_site_fract_y
 _atom_site_fract_z
 _atom_site_occupancy
  Cd  Cd0  1  0.50000000  0.50000000  0.00000000  1
  Cd  Cd1  1  -0.00000000  0.50000000  0.50000000  1
  Cd  Cd2  1  -0.00000000  -0.00000000  0.00000000  1
  Cd  Cd3  1  0.50000000  -0.00000000  0.50000000  1
  H  H0  1  0.65438336  0.45550084  0.27763739  1
  H  H1  1  0.15438336  0.54449916  0.22236261  1
  H  H2  1  0.34561664  0.54449916  0.72236261  1
  H  H3  1  0.84561664  0.45550084  0.77763739  1
  H  H4  1  0.60419252  0.29455765  0.23340182  1
  H  H5  1  0.10419252  0.70544235  0.26659818  1
  H  H6  1  0.39580748  0.70544235  0.76659818  1
  H  H7  1  0.89580748  0.29455765  0.73340182  1
  H  H8  1  0.37049191  0.23477766  0.95659259  1
  H  H9  1  0.87049191  0.76522234  0.54340741  1
  H  H10  1  0.62950809  0.76522234  0.04340741  1
  H  H11  1  0.12950809  0.23477766  0.45659259  1
  H  H12  1  0.58108694  0.19828103  0.98410542  1
  H  H13  1  0.08108694  0.80171897  0.51589458  1
  H  H14  1  0.41891306  0.80171897  0.01589458  1
  H  H15  1  0.91891306  0.19828103  0.48410542  1
  H  H16  1  0.96541920  0.33119116  0.12617314  1
  H  H17  1  0.46541920  0.66880884  0.37382686  1
  H  H18  1  0.03458080  0.66880884  0.87382686  1
  H  H19  1  0.53458080  0.33119116  0.62617314  1
  H  H20  1  0.75243251  0.92673279  0.25445067  1
  H  H21  1  0.25243251  0.07326721  0.24554933  1
  H  H22  1  0.24756749  0.07326721  0.74554933  1
  H  H23  1  0.74756749  0.92673279  0.75445067  1
  C  C0  1  0.10240354  0.33330547  0.07896551  1
  C  C1  1  0.60240354  0.66669453  0.42103449  1
  C  C2  1  0.89759646  0.66669453  0.92103349  1
  C  C3  1  0.39759646  0.33330547  0.57896651  1
  C  C4  1  0.81051848  0.03249695  0.70728591  1
  C  C5  1  0.31051848  0.96750305  0.79271409  1
  C  C6  1  0.18948152  0.96750305  0.29271409  1
  C  C7  1  0.68948152  0.03249695  0.20728591  1
  O  O0  1  0.63861035  0.39825094  0.19819406  1
  O  O1  1  0.13861035  0.60174906  0.30180594  1
  O  O2  1  0.36138965  0.60174906  0.80180594  1
  O  O3  1  0.86138965  0.39825094  0.69819406  1
  O  O4  1  0.49597514  0.26477180  0.92648332  1
  O  O5  1  0.99597514  0.73522820  0.57351668  1
  O  O6  1  0.50402486  0.73522820  0.07351668  1
  O  O7  1  0.00402486  0.26477180  0.42648332  1
  O  O8  1  0.14820183  0.22481933  0.01391131  1
  O  O9  1  0.64820183  0.77518067  0.48608869  1
  O  O10  1  0.85179817  0.77518067  0.98608869  1
  O  O11  1  0.35179817  0.22481933  0.51391131  1
  O  O12  1  0.20468267  0.44381425  0.09352866  1
  O  O13  1  0.70468267  0.55618575  0.40647134  1
  O  O14  1  0.79531733  0.55618575  0.90647134  1
  O  O15  1  0.29531733  0.44381425  0.59352866  1
  O  O16  1  0.73296576  0.08212261  0.08436123  1
  O  O17  1  0.23296576  0.91787739  0.41563877  1
  O  O18  1  0.26703424  0.91787739  0.91563877  1
  O  O19  1  0.76703424  0.08212261  0.58436123  1
  O  O20  1  0.57890879  0.09864310  0.27879674  1
  O  O21  1  0.07890879  0.90135690  0.22120326  1
  O  O22  1  0.42109121  0.90135690  0.72120326  1
  O  O23  1  0.92109121  0.09864310  0.77879674  1
loop_
_geom_bond_atom_site_label_1
_geom_bond_atom_site_label_2
_geom_bond_distance
_geom_bond_site_symmetry_2
Cd0 O2 2.267804 1_554
Cd0 O0 2.267804 1_555
Cd0 O6 2.308927 1_555
Cd0 O4 2.308927 1_554
Cd0 O12 2.370933 1_555
Cd0 O14 2.370933 1_554
Cd1 O1 2.267804 1_555
Cd1 O3 2.267804 1_455
Cd1 O7 2.308927 1_555
Cd1 O5 2.308927 1_455
Cd1 O15 2.370933 1_555
Cd1 O13 2.370933 1_455
Cd2 O16 2.275067 1_455
Cd2 O18 2.275067 1_544
Cd2 O23 2.298171 1_454
Cd2 O21 2.298171 1_545
Cd2 O10 2.303825 1_444
Cd2 O8 2.303825 1_555
Cd3 O19 2.275067 1_555
Cd3 O17 2.275067 1_545
Cd3 O20 2.298171 1_555
Cd3 O22 2.298171 1_545
Cd3 O9 2.303825 1_545
Cd3 O11 2.303825 1_555
H0 O0 0.988663 1_555
H0 O13 1.677721 1_555
H1 O1 0.988663 1_555
H1 O12 1.677721 1_555
H2 O2 0.988663 1_555
H2 O15 1.677721 1_555
H3 O3 0.988663 1_555
H3 O14 1.677721 1_555
H4 O0 0.980306 1_555
H5 O1 0.980306 1_555
H6 O2 0.980306 1_555
H7 O3 0.980306 1_555
H8 O4 0.989103 1_555
H8 O8 1.715872 1_556
H9 O5 0.989103 1_555
H9 O9 1.715872 1_555
H10 O6 0.989103 1_555
H10 O10 1.715872 1_554
H11 O7 0.989103 1_555
H11 O11 1.715872 1_555
H12 O4 0.985504 1_555
H12 O16 1.734504 1_556
H13 O5 0.985504 1_455
H13 O17 1.734504 1_555
H14 O6 0.985504 1_555
H14 O18 1.734504 1_554
H15 O7 0.985504 1_655
H15 O19 1.734504 1_555
C0 H16 1.100614 1_455
C0 O12 1.261796 1_555
C0 O8 1.270490 1_555
C1 H17 1.100614 1_555
C1 O13 1.261796 1_555
C1 O9 1.270490 1_555
C2 H18 1.100610 1_655
C2 O14 1.261794 1_555
C2 O10 1.270496 1_555
C3 H19 1.100610 1_555
C3 O15 1.261794 1_555
C3 O11 1.270496 1_555
C4 H23 1.099053 1_545
C4 O23 1.262749 1_555
C4 O19 1.264949 1_555
C5 H22 1.099053 1_565
C5 O22 1.262749 1_555
C5 O18 1.264949 1_555
C6 H21 1.099053 1_565
C6 O21 1.262749 1_555
C6 O17 1.264949 1_555
C7 H20 1.099053 1_545
C7 O20 1.262749 1_555
C7 O16 1.264949 1_555
