# generated using pymatgen
data_Na2NbIn3Si2(SO6)4
_symmetry_space_group_name_H-M   'P 1'
_cell_length_a   8.95131331
_cell_length_b   8.93833490
_cell_length_c   23.43418798
_cell_angle_alpha   90.57430393
_cell_angle_beta   89.43427962
_cell_angle_gamma   119.98193963
_symmetry_Int_Tables_number   1
_chemical_formula_structural   Na2NbIn3Si2(SO6)4
_chemical_formula_sum   'Na6 Nb3 In9 Si6 S12 O72'
_cell_volume   1623.95601816
_cell_formula_units_Z   3
loop_
 _symmetry_equiv_pos_site_id
 _symmetry_equiv_pos_as_xyz
  1  'x, y, z'
loop_
 _atom_site_type_symbol
 _atom_site_label
 _atom_site_symmetry_multiplicity
 _atom_site_fract_x
 _atom_site_fract_y
 _atom_site_fract_z
 _atom_site_occupancy
  Na  Na0  1  0.00233997  0.98893876  0.49601404  1
  Na  Na1  1  0.00173153  0.97682476  0.99652244  1
  Na  Na2  1  0.64230206  0.32609750  0.83293306  1
  Na  Na3  1  0.69016892  0.34008654  0.33069770  1
  Na  Na4  1  0.31445312  0.65754005  0.15619511  1
  Na  Na5  1  0.32695894  0.65164741  0.67096780  1
  Nb  Nb0  1  0.66761823  0.34731194  0.97788467  1
  Nb  Nb1  1  0.31233564  0.65428035  0.31233002  1
  Nb  Nb2  1  0.34423127  0.66561445  0.81927176  1
  In  In0  1  0.99673559  0.99611438  0.35002279  1
  In  In1  1  0.01414393  0.99941260  0.85314600  1
  In  In2  1  0.01030360  0.01123541  0.65377063  1
  In  In3  1  0.99760261  0.99820607  0.14430149  1
  In  In4  1  0.65641599  0.33452733  0.68573786  1
  In  In5  1  0.68863728  0.34013282  0.18436495  1
  In  In6  1  0.67769037  0.34183464  0.47850220  1
  In  In7  1  0.33295130  0.67643396  0.01789626  1
  In  In8  1  0.32315889  0.66830525  0.51646130  1
  Si  Si0  1  0.98812099  0.27512773  0.25070790  1
  Si  Si1  1  0.29461186  0.29848386  0.75002027  1
  Si  Si2  1  0.96685341  0.63200783  0.08366151  1
  Si  Si3  1  0.63028281  0.67636447  0.92008502  1
  Si  Si4  1  0.33692925  0.96352878  0.91901560  1
  Si  Si5  1  0.03491272  0.67192287  0.41809552  1
  S  S0  1  0.29982869  -0.00046113  0.25057202  1
  S  S1  1  0.69554364  0.70005035  0.25172452  1
  S  S2  1  0.00328962  0.70077906  0.74862531  1
  S  S3  1  0.70222574  0.99592283  0.75017160  1
  S  S4  1  0.95812177  0.32949715  0.58414070  1
  S  S5  1  0.37447229  0.04011178  0.58156501  1
  S  S6  1  0.66767249  0.63590928  0.58285488  1
  S  S7  1  0.66641459  0.04493231  0.08245909  1
  S  S8  1  0.38041680  0.33391985  0.08344613  1
  S  S9  1  0.03949967  0.37655387  0.91714320  1
  S  S10  1  0.62138695  0.95472621  0.41712975  1
  S  S11  1  0.33453240  0.37734426  0.41653489  1
  O  O0  1  0.22335498  0.02404316  0.30336902  1
  O  O1  1  0.80466766  0.77330340  0.30294576  1
  O  O2  1  0.97281072  0.17806215  0.30970922  1
  O  O3  1  0.20332873  0.18118674  0.80448867  1
  O  O4  1  0.96610229  0.77585728  0.79885703  1
  O  O5  1  0.80601818  0.01841831  0.80038974  1
  O  O6  1  0.77030256  0.95950157  0.69663359  1
  O  O7  1  0.18869579  0.23480120  0.68990739  1
  O  O8  1  0.02942370  0.80219130  0.69541534  1
  O  O9  1  0.76873581  0.80561489  0.20035448  1
  O  O10  1  0.03753039  0.20564753  0.19376544  1
  O  O11  1  0.19031184  0.95669110  0.20011403  1
  O  O12  1  0.87524837  0.35304511  0.63585587  1
  O  O13  1  0.47593366  0.12181714  0.63360037  1
  O  O14  1  0.64183786  0.53040598  0.63411006  1
  O  O15  1  0.88328861  0.52872711  0.14171120  1
  O  O16  1  0.63782322  0.11556188  0.13636756  1
  O  O17  1  0.47732959  0.34779940  0.13562254  1
  O  O18  1  0.47239211  0.31777557  0.03053810  1
  O  O19  1  0.83805161  0.51901903  0.02688122  1
  O  O20  1  0.67569538  0.14981845  0.03200816  1
  O  O21  1  0.45710175  0.14393200  0.52963289  1
  O  O22  1  0.69307479  0.55569066  0.53038406  1
  O  O23  1  0.85822629  0.31035807  0.53169949  1
  O  O24  1  0.53950607  0.68762231  0.97672090  1
  O  O25  1  0.14036793  0.44861473  0.96861569  1
  O  O26  1  0.29906816  0.84773274  0.97366266  1
  O  O27  1  0.54883744  0.85565637  0.47042084  1
  O  O28  1  0.31602276  0.45605179  0.46998426  1
  O  O29  1  0.14639843  0.70078365  0.47471992  1
  O  O30  1  0.14575605  0.65134393  0.36133305  1
  O  O31  1  0.51592574  0.86165105  0.36624190  1
  O  O32  1  0.35442213  0.48764676  0.36563913  1
  O  O33  1  0.12688909  0.48850896  0.86531503  1
  O  O34  1  0.35958354  0.85958057  0.86087623  1
  O  O35  1  0.50049735  0.63488757  0.86214392  1
  O  O36  1  0.01921594  0.84321284  0.40967780  1
  O  O37  1  0.79751481  0.98122184  0.41266496  1
  O  O38  1  0.17902477  0.20625022  0.41158460  1
  O  O39  1  0.00805718  0.20189630  0.90843044  1
  O  O40  1  0.18017082  0.00043710  0.91272148  1
  O  O41  1  0.81429336  0.83911629  0.90712413  1
  O  O42  1  0.97158727  0.17020246  0.58732743  1
  O  O43  1  0.19775635  0.01757724  0.58582078  1
  O  O44  1  0.82499073  0.81033519  0.58899201  1
  O  O45  1  0.97288595  0.81938305  0.08328543  1
  O  O46  1  0.83155594  0.04293701  0.08318307  1
  O  O47  1  0.20986136  0.17436034  0.08275073  1
  O  O48  1  0.68386148  0.15160145  0.74365029  1
  O  O49  1  0.49113948  0.32809213  0.74674422  1
  O  O50  1  0.85442321  0.52215431  0.74229551  1
  O  O51  1  0.65975054  0.52002689  0.24575813  1
  O  O52  1  0.83007714  0.31422396  0.24931815  1
  O  O53  1  0.47229351  0.15215861  0.24360438  1
  O  O54  1  0.64276988  0.49473248  0.92527849  1
  O  O55  1  0.86892930  0.37094120  0.92100356  1
  O  O56  1  0.52278824  0.15107365  0.92594657  1
  O  O57  1  0.62539374  0.12375058  0.41989581  1
  O  O58  1  0.49317640  0.36348186  0.41793362  1
  O  O59  1  0.85122771  0.49048081  0.41637462  1
  O  O60  1  0.36573835  0.48990673  0.07885476  1
  O  O61  1  0.15235640  0.64169020  0.07920579  1
  O  O62  1  0.51831923  0.86718818  0.07981108  1
  O  O63  1  0.36152833  0.86682075  0.57886296  1
  O  O64  1  0.51010333  0.65286529  0.57751481  1
  O  O65  1  0.13524542  0.48514883  0.58062254  1
  O  O66  1  0.32486737  0.84246840  0.25977813  1
  O  O67  1  0.52445625  0.69013741  0.26263059  1
  O  O68  1  0.17062158  0.47966930  0.26268358  1
  O  O69  1  0.31236162  0.49441177  0.76085642  1
  O  O70  1  0.16279700  0.68962131  0.75595851  1
  O  O71  1  0.52340447  0.83980897  0.75684684  1
loop_
_geom_bond_atom_site_label_1
_geom_bond_atom_site_label_2
_geom_bond_distance
_geom_bond_site_symmetry_2
Na0 O36 2.439397 1_555
Na0 O37 2.668894 1_455
Na0 O38 2.670911 1_565
Na0 O43 2.677468 1_565
Na0 O44 2.699011 1_455
Na0 O42 2.764854 1_465
Na1 O45 2.421752 1_456
Na1 O40 2.462069 1_565
Na1 O41 2.583161 1_455
Na1 O47 2.717855 1_566
Na1 O46 2.758332 1_466
Na1 O39 2.877343 1_565
Na2 O49 2.447337 1_555
Na2 O56 2.587001 1_555
Na2 O54 2.623656 1_555
Na2 O48 2.729062 1_555
Na2 O55 2.790853 1_555
Na2 O50 2.803051 1_555
Na3 O52 2.343521 1_555
Na3 O59 2.445968 1_555
Na3 O51 2.671256 1_555
Na3 O57 2.716824 1_555
Na3 O53 2.743420 1_555
Na3 O58 2.760627 1_555
Na4 O61 2.285083 1_555
Na4 O60 2.521362 1_555
Na4 O62 2.575021 1_555
Na4 O68 2.895332 1_555
Na4 O66 2.898820 1_555
Na5 O69 2.509954 1_555
Na5 O70 2.582346 1_555
Na5 O71 2.648987 1_555
Na5 O65 2.664248 1_555
Na5 O64 2.719470 1_555
Na5 O63 2.815797 1_555
Nb0 O54 1.906949 1_555
Nb0 O19 1.913226 1_556
Nb0 O56 1.988567 1_555
Nb0 O18 2.036883 1_556
Nb0 O55 2.155556 1_555
Nb0 O20 2.214570 1_556
Nb1 O68 1.847321 1_555
Nb1 O30 1.862917 1_555
Nb1 O66 2.051544 1_555
Nb1 O67 2.102389 1_555
Nb1 O32 2.127993 1_555
Nb1 O31 2.230554 1_555
Nb2 O35 1.859745 1_555
Nb2 O34 1.925075 1_555
Nb2 O69 1.956129 1_555
Nb2 O33 2.090417 1_555
Nb2 O71 2.154085 1_555
Nb2 O70 2.299410 1_555
In0 O2 1.991515 1_565
In0 O36 2.044836 1_655
In0 O1 2.170371 1_555
In0 O0 2.197303 1_665
In0 O37 2.251163 1_555
In0 O38 2.280499 1_665
In1 O3 2.014160 1_565
In1 O40 2.045720 1_565
In1 O41 2.069561 1_455
In1 O4 2.212991 1_455
In1 O39 2.237674 1_565
In1 O5 2.322513 1_465
In2 O7 2.015889 1_555
In2 O6 2.193602 1_445
In2 O8 2.198291 1_545
In2 O42 2.260667 1_455
In2 O43 2.282167 1_555
In2 O44 2.301868 1_445
In3 O10 2.052343 1_665
In3 O45 2.062829 1_555
In3 O46 2.251195 1_565
In3 O47 2.273996 1_665
In3 O9 2.313713 1_555
In3 O11 2.349046 1_655
In4 O49 2.027497 1_555
In4 O13 2.154096 1_555
In4 O50 2.177537 1_555
In4 O14 2.195475 1_555
In4 O12 2.205785 1_555
In4 O48 2.242341 1_555
In5 O15 1.985065 1_555
In5 O52 2.076438 1_555
In5 O16 2.133906 1_555
In5 O17 2.249641 1_555
In5 O51 2.254786 1_555
In5 O53 2.289568 1_555
In6 O59 2.056534 1_555
In6 O23 2.178544 1_555
In6 O22 2.201063 1_555
In6 O57 2.225345 1_555
In6 O21 2.229012 1_555
In6 O58 2.269623 1_555
In7 O26 2.003245 1_554
In7 O24 2.035073 1_554
In7 O61 2.057975 1_555
In7 O25 2.221657 1_554
In7 O62 2.221686 1_555
In7 O60 2.334856 1_555
In8 O29 2.009954 1_555
In8 O28 2.151395 1_555
In8 O27 2.159023 1_555
In8 O63 2.180292 1_555
In8 O65 2.239952 1_555
In8 O64 2.269003 1_555
O0 S0 1.474809 1_555
O1 S1 1.480479 1_555
O2 Si0 1.607701 1_555
O3 Si1 1.595668 1_555
O4 S2 1.465091 1_655
O5 S3 1.455563 1_545
O6 S3 1.492105 1_555
O7 Si1 1.636530 1_555
O8 S2 1.495390 1_555
O9 S1 1.469040 1_555
O10 Si0 1.614985 1_455
O11 S0 1.464391 1_565
O12 S4 1.482061 1_555
O13 S5 1.478600 1_555
O14 S6 1.478084 1_555
O15 Si2 1.605370 1_555
O16 S7 1.482934 1_555
O17 S8 1.474214 1_555
O18 S8 1.526724 1_555
O19 Si2 1.720272 1_555
O20 S7 1.491991 1_555
O21 S5 1.485981 1_555
O22 S6 1.489134 1_555
O23 S4 1.484482 1_555
O24 Si3 1.577862 1_555
O25 S9 1.452497 1_555
O26 Si4 1.579085 1_555
O27 S10 1.482183 1_555
O28 S11 1.478507 1_555
O29 Si5 1.607861 1_555
O30 Si5 1.714382 1_555
O31 S10 1.490902 1_555
O32 S11 1.506724 1_555
O33 S9 1.520419 1_555
O34 Si4 1.708256 1_555
O35 Si3 1.709189 1_555
O36 Si5 1.619990 1_555
O37 S10 1.475362 1_555
O38 S11 1.470333 1_555
O39 S9 1.453851 1_555
O40 Si4 1.602268 1_545
O41 Si3 1.589244 1_555
O42 S4 1.490379 1_555
O43 S5 1.493847 1_555
O44 S6 1.496546 1_555
O45 Si2 1.648612 1_555
O46 S7 1.487490 1_555
O47 S8 1.479509 1_555
O48 S3 1.489982 1_545
O49 Si1 1.644104 1_555
O50 S2 1.489834 1_655
O51 S1 1.480723 1_555
O52 Si0 1.618579 1_555
O53 S0 1.471579 1_555
O54 Si3 1.687784 1_555
O55 S9 1.504232 1_655
O56 Si4 1.678343 1_545
O57 S10 1.493961 1_545
O58 S11 1.486571 1_555
O59 Si5 1.634064 1_655
O60 S8 1.469418 1_555
O61 Si2 1.621347 1_455
O62 S7 1.476472 1_565
O63 S5 1.495138 1_565
O64 S6 1.498505 1_555
O65 S4 1.500427 1_455
O66 S0 1.545758 1_565
O67 S1 1.508520 1_555
O68 Si0 1.761740 1_455
O69 Si1 1.694242 1_555
O70 S2 1.491845 1_555
O71 S3 1.516857 1_555
