# generated using pymatgen
data_MgCr2O4
_symmetry_space_group_name_H-M   'P 1'
_cell_length_a   2.98228838
_cell_length_b   5.24953835
_cell_length_c   5.13162493
_cell_angle_alpha   74.45184249
_cell_angle_beta   90.02392334
_cell_angle_gamma   90.01946591
_symmetry_Int_Tables_number   1
_chemical_formula_structural   MgCr2O4
_chemical_formula_sum   'Mg1 Cr2 O4'
_cell_volume   77.39888885
_cell_formula_units_Z   1
loop_
 _symmetry_equiv_pos_site_id
 _symmetry_equiv_pos_as_xyz
  1  'x, y, z'
loop_
 _atom_site_type_symbol
 _atom_site_label
 _atom_site_symmetry_multiplicity
 _atom_site_fract_x
 _atom_site_fract_y
 _atom_site_fract_z
 _atom_site_occupancy
  Mg  Mg0  1  0.49974592  0.12670943  0.27794145  1
  Cr  Cr0  1  0.50018563  0.52834420  0.52218141  1
  Cr  Cr1  1  0.99965992  0.94884377  0.89035756  1
  O  O0  1  0.49980719  0.78780275  0.14623895  1
  O  O1  1  0.50022765  0.22584941  0.85499821  1
  O  O2  1  0.00043694  0.74800427  0.61962537  1
  O  O3  1  0.99993676  0.31500216  0.39699006  1
loop_
_geom_bond_atom_site_label_1
_geom_bond_atom_site_label_2
_geom_bond_distance
_geom_bond_site_symmetry_2
Mg0 O3 1.974188 1_555
Mg0 O3 1.974221 1_455
Mg0 O0 2.065571 1_545
Mg0 O1 2.091862 1_554
Cr0 O1 1.996141 1_555
Cr0 O2 2.027783 1_555
Cr0 O2 2.028002 1_655
Cr0 O0 2.041636 1_555
Cr0 O3 2.067838 1_555
Cr0 O3 2.067973 1_455
Cr1 O2 1.956268 1_655
Cr1 O0 2.016620 1_556
Cr1 O0 2.016884 1_656
Cr1 O1 2.055660 1_565
Cr1 O1 2.057509 1_665
