# generated using pymatgen
data_Ba3Cr2O8
_symmetry_space_group_name_H-M   'P 1'
_cell_length_a   7.96816611
_cell_length_b   7.97389803
_cell_length_c   7.97499827
_cell_angle_alpha   43.04819410
_cell_angle_beta   43.03074248
_cell_angle_gamma   43.01933656
_symmetry_Int_Tables_number   1
_chemical_formula_structural   Ba3Cr2O8
_chemical_formula_sum   'Ba3 Cr2 O8'
_cell_volume   213.89868086
_cell_formula_units_Z   1
loop_
 _symmetry_equiv_pos_site_id
 _symmetry_equiv_pos_as_xyz
  1  'x, y, z'
loop_
 _atom_site_type_symbol
 _atom_site_label
 _atom_site_symmetry_multiplicity
 _atom_site_fract_x
 _atom_site_fract_y
 _atom_site_fract_z
 _atom_site_occupancy
  Ba  Ba0  1  0.79338600  0.79322700  0.79436100  1
  Ba  Ba1  1  0.20686000  0.20571600  0.20640900  1
  Ba  Ba2  1  0.99783100  0.00578800  0.99639300  1
  Cr  Cr0  1  0.59236800  0.59423600  0.59215400  1
  Cr  Cr1  1  0.40674900  0.40852100  0.40597200  1
  O  O0  1  0.67729700  0.66210700  0.67585700  1
  O  O1  1  0.32991100  0.31864600  0.33617600  1
  O  O2  1  0.26992300  0.27460000  0.75605100  1
  O  O3  1  0.27697100  0.75636700  0.27257100  1
  O  O4  1  0.75641300  0.27787600  0.26887900  1
  O  O5  1  0.72691200  0.24388800  0.72858700  1
  O  O6  1  0.72190100  0.73013800  0.24376100  1
  O  O7  1  0.24347700  0.72889000  0.72283000  1
loop_
_geom_bond_atom_site_label_1
_geom_bond_atom_site_label_2
_geom_bond_distance
_geom_bond_site_symmetry_2
Ba0 O0 2.641666 1_555
Ba0 O7 2.863074 1_655
Ba0 O6 2.867341 1_556
Ba0 O5 2.887399 1_565
Ba0 O4 2.950606 1_556
Ba0 O3 2.958127 1_556
Ba0 O2 2.966940 1_655
Ba0 O3 2.989945 1_655
Ba0 O2 2.993756 1_565
Ba0 O4 3.008906 1_565
Ba1 O1 2.641934 1_555
Ba1 O3 2.858255 1_545
Ba1 O4 2.871717 1_455
Ba1 O2 2.887138 1_554
Ba1 O6 2.948078 1_545
Ba1 O7 2.958251 1_545
Ba1 O5 2.974659 1_554
Ba1 O5 2.987851 1_455
Ba1 O7 2.996989 1_554
Ba1 O6 3.002799 1_455
Ba2 O5 2.765333 1_555
Ba2 O2 2.772024 1_655
Ba2 O4 2.794010 1_556
Ba2 O7 2.818477 1_645
Ba2 O6 2.818672 1_546
Ba2 O3 2.836385 1_646
Cr0 O0 1.708927 1_555
Cr0 O6 1.732541 1_555
Cr0 O7 1.732783 1_555
Cr0 O5 1.738094 1_555
Cr1 O1 1.709136 1_555
Cr1 O3 1.730886 1_555
Cr1 O4 1.735061 1_555
Cr1 O2 1.737390 1_555
