# generated using pymatgen
data_ScTa3(PO4)6
_symmetry_space_group_name_H-M   'P 1'
_cell_length_a   8.79816864
_cell_length_b   8.79816836
_cell_length_c   22.67785126
_cell_angle_alpha   90.00000000
_cell_angle_beta   90.00000000
_cell_angle_gamma   120.00000107
_symmetry_Int_Tables_number   1
_chemical_formula_structural   ScTa3(PO4)6
_chemical_formula_sum   'Sc3 Ta9 P18 O72'
_cell_volume   1520.25723764
_cell_formula_units_Z   3
loop_
 _symmetry_equiv_pos_site_id
 _symmetry_equiv_pos_as_xyz
  1  'x, y, z'
loop_
 _atom_site_type_symbol
 _atom_site_label
 _atom_site_symmetry_multiplicity
 _atom_site_fract_x
 _atom_site_fract_y
 _atom_site_fract_z
 _atom_site_occupancy
  Sc  Sc0  1  -0.00000000  -0.00000000  0.35809589  1
  Sc  Sc1  1  0.66666700  0.33333300  0.68977367  1
  Sc  Sc2  1  0.66666700  0.33333300  0.19113090  1
  Ta  Ta0  1  -0.00000000  -0.00000000  0.85666556  1
  Ta  Ta1  1  -0.00000000  -0.00000000  0.64081457  1
  Ta  Ta2  1  -0.00000000  -0.00000000  0.14716552  1
  Ta  Ta3  1  0.66666700  0.33333300  0.97887020  1
  Ta  Ta4  1  0.66666700  0.33333300  0.47499229  1
  Ta  Ta5  1  0.33333300  0.66666700  0.02409675  1
  Ta  Ta6  1  0.33333300  0.66666700  0.52187463  1
  Ta  Ta7  1  0.33333300  0.66666700  0.30779101  1
  Ta  Ta8  1  0.33333300  0.66666700  0.80782635  1
  P  P0  1  0.28569067  0.00012984  0.25172145  1
  P  P1  1  0.71443917  0.71430933  0.25172145  1
  P  P2  1  -0.00012984  0.28556083  0.25172145  1
  P  P3  1  0.28279135  0.28265195  0.74995841  1
  P  P4  1  0.99986060  0.71720865  0.74995841  1
  P  P5  1  0.71734805  0.00013940  0.74995841  1
  P  P6  1  0.95165173  0.33501999  0.58341537  1
  P  P7  1  0.38336926  0.04834827  0.58341537  1
  P  P8  1  0.66498001  0.61663074  0.58341537  1
  P  P9  1  0.95214644  0.62155543  0.08380962  1
  P  P10  1  0.66940999  0.04785356  0.08380962  1
  P  P11  1  0.37844457  0.33059001  0.08380962  1
  P  P12  1  0.61619868  0.66494288  0.91632155  1
  P  P13  1  0.04874320  0.38380132  0.91632155  1
  P  P14  1  0.33505712  0.95125680  0.91632155  1
  P  P15  1  0.61639858  0.95092630  0.41639149  1
  P  P16  1  0.33452672  0.38360142  0.41639149  1
  P  P17  1  0.04907370  0.66547328  0.41639149  1
  O  O0  1  0.20102092  0.02552767  0.30529104  1
  O  O1  1  0.82450674  0.79897908  0.30529104  1
  O  O2  1  0.97447233  0.17549326  0.30529104  1
  O  O3  1  0.18851509  0.16935280  0.80555635  1
  O  O4  1  0.98083771  0.81148491  0.80555635  1
  O  O5  1  0.83064720  0.01916229  0.80555635  1
  O  O6  1  0.80235075  0.96583081  0.69571811  1
  O  O7  1  0.16348006  0.19764925  0.69571811  1
  O  O8  1  0.03416919  0.83651994  0.69571811  1
  O  O9  1  0.80207894  0.83537078  0.19491798  1
  O  O10  1  0.03329184  0.19792106  0.19491798  1
  O  O11  1  0.16462922  0.96670816  0.19491798  1
  O  O12  1  0.87787505  0.36957972  0.63836632  1
  O  O13  1  0.49170568  0.12212495  0.63836632  1
  O  O14  1  0.63042028  0.50829432  0.63836632  1
  O  O15  1  0.87916948  0.50726265  0.13649361  1
  O  O16  1  0.62809417  0.12083052  0.13649361  1
  O  O17  1  0.49273735  0.37190583  0.13649361  1
  O  O18  1  0.46870446  0.30424450  0.02737790  1
  O  O19  1  0.83554103  0.53129554  0.02737790  1
  O  O20  1  0.69575550  0.16445897  0.02737790  1
  O  O21  1  0.46724689  0.16570485  0.52866805  1
  O  O22  1  0.69845896  0.53275311  0.52866805  1
  O  O23  1  0.83429515  0.30154104  0.52866805  1
  O  O24  1  0.53134752  0.69668015  0.97044734  1
  O  O25  1  0.16533163  0.46865248  0.97044734  1
  O  O26  1  0.30331985  0.83466837  0.97044734  1
  O  O27  1  0.52205893  0.83722284  0.47158348  1
  O  O28  1  0.31516291  0.47794107  0.47158348  1
  O  O29  1  0.16277716  0.68483709  0.47158348  1
  O  O30  1  0.13464420  0.63123082  0.36215628  1
  O  O31  1  0.49658562  0.86535580  0.36215628  1
  O  O32  1  0.36876918  0.50341438  0.36215628  1
  O  O33  1  0.13543124  0.50005231  0.86172364  1
  O  O34  1  0.36462007  0.86456876  0.86172364  1
  O  O35  1  0.49994769  0.63537993  0.86172364  1
  O  O36  1  0.02777291  0.82278315  0.41154164  1
  O  O37  1  0.79501024  0.97222709  0.41154164  1
  O  O38  1  0.17721685  0.20498976  0.41154164  1
  O  O39  1  0.02710653  0.19996550  0.90613174  1
  O  O40  1  0.17285897  0.97289347  0.90613174  1
  O  O41  1  0.80003450  0.82714103  0.90613174  1
  O  O42  1  0.97329877  0.16938441  0.59298808  1
  O  O43  1  0.19608564  0.02670123  0.59298808  1
  O  O44  1  0.83061559  0.80391436  0.59298808  1
  O  O45  1  0.97453202  0.80581628  0.09080325  1
  O  O46  1  0.83128426  0.02546798  0.09080325  1
  O  O47  1  0.19418372  0.16871574  0.09080325  1
  O  O48  1  0.69569694  0.15730960  0.74438163  1
  O  O49  1  0.46161366  0.30430306  0.74438163  1
  O  O50  1  0.84269040  0.53838634  0.74438163  1
  O  O51  1  0.68651747  0.53437089  0.23983174  1
  O  O52  1  0.84785442  0.31348253  0.23983174  1
  O  O53  1  0.46562911  0.15214558  0.23983174  1
  O  O54  1  0.63802641  0.50381908  0.92698147  1
  O  O55  1  0.86579367  0.36197359  0.92698147  1
  O  O56  1  0.49618092  0.13420633  0.92698147  1
  O  O57  1  0.62824294  0.13237491  0.42788247  1
  O  O58  1  0.50413297  0.37175706  0.42788247  1
  O  O59  1  0.86762509  0.49586703  0.42788247  1
  O  O60  1  0.35356004  0.49108342  0.06855332  1
  O  O61  1  0.13752238  0.64643996  0.06855332  1
  O  O62  1  0.50891658  0.86247762  0.06855332  1
  O  O63  1  0.35227765  0.86225792  0.57084715  1
  O  O64  1  0.50997927  0.64772235  0.57084715  1
  O  O65  1  0.13774208  0.49002073  0.57084715  1
  O  O66  1  0.29704897  0.82797298  0.25908689  1
  O  O67  1  0.53092301  0.70295103  0.25908689  1
  O  O68  1  0.17202702  0.46907699  0.25908689  1
  O  O69  1  0.29503339  0.46457416  0.76135354  1
  O  O70  1  0.16953977  0.70496661  0.76135354  1
  O  O71  1  0.53542584  0.83046023  0.76135354  1
loop_
_geom_bond_atom_site_label_1
_geom_bond_atom_site_label_2
_geom_bond_distance
_geom_bond_site_symmetry_2
O0 P0 1.499056 1_555
O0 Sc0 2.053102 1_555
O1 P1 1.499056 1_555
O1 Sc0 2.053102 1_665
O2 P2 1.499056 1_655
O2 Sc0 2.053102 1_655
O3 P3 1.563508 1_555
O3 Ta0 1.960383 1_555
O4 P4 1.563508 1_555
O4 Ta0 1.960383 1_665
O5 P5 1.563508 1_555
O5 Ta0 1.960383 1_655
O6 P5 1.545704 1_565
O6 Ta1 2.035145 1_665
O7 P3 1.545703 1_555
O7 Ta1 2.035145 1_555
O8 P4 1.545703 1_455
O8 Ta1 2.035145 1_565
O9 P1 1.602234 1_555
O9 Ta2 1.944413 1_665
O10 P2 1.602234 1_555
O10 Ta2 1.944413 1_555
O11 P0 1.602234 1_565
O11 Ta2 1.944413 1_565
O12 P6 1.504689 1_555
O12 Sc1 2.078768 1_555
O13 P7 1.504689 1_555
O13 Sc1 2.078768 1_555
O14 P8 1.504689 1_555
O14 Sc1 2.078768 1_555
O15 P9 1.485000 1_555
O15 Sc2 2.124020 1_555
O16 P10 1.485000 1_555
O16 Sc2 2.124020 1_555
O17 P11 1.485000 1_555
O17 Sc2 2.124020 1_555
O18 P11 1.583095 1_555
O18 Ta3 1.965555 1_554
O19 P9 1.583095 1_555
O19 Ta3 1.965555 1_554
O20 P10 1.583095 1_555
O20 Ta3 1.965555 1_554
O21 P7 1.546022 1_555
O21 Ta4 2.036555 1_555
O22 P8 1.546022 1_555
O22 Ta4 2.036555 1_555
O23 P6 1.546022 1_555
O23 Ta4 2.036555 1_555
O24 P12 1.533098 1_555
O24 Ta5 2.031028 1_556
O25 P13 1.533098 1_555
O25 Ta5 2.031028 1_556
O26 P14 1.533098 1_555
O26 Ta5 2.031028 1_556
O27 P15 1.557546 1_555
O27 Ta6 1.953948 1_555
O28 P16 1.557546 1_555
O28 Ta6 1.953947 1_555
O29 P17 1.557546 1_555
O29 Ta6 1.953948 1_555
O30 P17 1.548267 1_555
O30 Ta7 2.031760 1_555
O31 P15 1.548267 1_555
O31 Ta7 2.031760 1_555
O32 P16 1.548267 1_555
O32 Ta7 2.031760 1_555
O33 P13 1.542978 1_555
O33 Ta8 2.030301 1_555
O34 P14 1.542978 1_555
O34 Ta8 2.030301 1_555
O35 P12 1.542978 1_555
O35 Ta8 2.030301 1_555
O36 P17 1.490692 1_555
O36 Sc0 2.083453 1_565
O37 P15 1.490700 1_555
O37 Sc0 2.083453 1_665
O38 P16 1.490697 1_555
O38 Sc0 2.083453 1_555
O39 P13 1.548478 1_555
O39 Ta0 1.997735 1_555
O40 P14 1.548469 1_555
O40 Ta0 1.997735 1_565
O41 P12 1.548474 1_555
O41 Ta0 1.997735 1_665
O42 P6 1.576274 1_555
O42 Ta1 1.950015 1_655
O43 P7 1.576283 1_555
O43 Ta1 1.950015 1_555
O44 P8 1.576279 1_555
O44 Ta1 1.950015 1_665
O45 P9 1.540392 1_555
O45 Ta2 2.054254 1_665
O46 P10 1.540383 1_555
O46 Ta2 2.054255 1_655
O47 P11 1.540388 1_555
O47 Ta2 2.054254 1_555
O48 P5 1.492600 1_555
O48 Sc1 2.095905 1_555
O49 P3 1.492609 1_555
O49 Sc1 2.095905 1_555
O50 P4 1.492606 1_555
O50 Sc1 2.095905 1_555
O51 P1 1.500145 1_555
O51 Sc2 2.017396 1_555
O52 P2 1.500137 1_655
O52 Sc2 2.017396 1_555
O53 P0 1.500142 1_555
O53 Sc2 2.017396 1_555
O54 P12 1.541796 1_555
O54 Ta3 2.018921 1_555
O55 P13 1.541779 1_655
O55 Ta3 2.018921 1_555
O56 P14 1.541786 1_545
O56 Ta3 2.018921 1_555
O57 P15 1.568741 1_545
O57 Ta4 1.945248 1_555
O58 P16 1.568759 1_555
O58 Ta4 1.945248 1_555
O59 P17 1.568749 1_655
O59 Ta4 1.945248 1_555
O60 P11 1.571836 1_555
O60 Ta5 1.925996 1_555
O61 P9 1.571819 1_455
O61 Ta5 1.925997 1_555
O62 P10 1.571825 1_565
O62 Ta5 1.925996 1_555
O63 P7 1.545574 1_565
O63 Ta6 1.983851 1_555
O64 P8 1.545591 1_555
O64 Ta6 1.983851 1_555
O65 P6 1.545580 1_455
O65 Ta6 1.983851 1_555
O66 P0 1.575900 1_565
O66 Ta7 1.946539 1_555
O67 P1 1.575909 1_555
O67 Ta7 1.946539 1_555
O68 P2 1.575905 1_555
O68 Ta7 1.946539 1_555
O69 P3 1.570939 1_555
O69 Ta8 1.945910 1_555
O70 P4 1.570930 1_455
O70 Ta8 1.945910 1_555
O71 P5 1.570935 1_565
O71 Ta8 1.945910 1_555
