# generated using pymatgen
data_BaPPt
_symmetry_space_group_name_H-M   'P 1'
_cell_length_a   6.58716757
_cell_length_b   6.58716757
_cell_length_c   6.58716757
_cell_angle_alpha   90.00000000
_cell_angle_beta   90.00000000
_cell_angle_gamma   90.00000000
_symmetry_Int_Tables_number   1
_chemical_formula_structural   BaPPt
_chemical_formula_sum   'Ba4 P4 Pt4'
_cell_volume   285.82231643
_cell_formula_units_Z   4
loop_
 _symmetry_equiv_pos_site_id
 _symmetry_equiv_pos_as_xyz
  1  'x, y, z'
loop_
 _atom_site_type_symbol
 _atom_site_label
 _atom_site_symmetry_multiplicity
 _atom_site_fract_x
 _atom_site_fract_y
 _atom_site_fract_z
 _atom_site_occupancy
  Ba  Ba0  1  0.63895078  0.36104922  0.86104922  1
  Ba  Ba1  1  0.36104922  0.86104922  0.63895078  1
  Ba  Ba2  1  0.13895078  0.13895078  0.13895078  1
  Ba  Ba3  1  0.86104922  0.63895078  0.36104922  1
  P  P0  1  0.58463334  0.91536666  0.08463334  1
  P  P1  1  0.08463334  0.58463334  0.91536666  1
  P  P2  1  0.91536666  0.08463334  0.58463334  1
  P  P3  1  0.41536666  0.41536666  0.41536666  1
  Pt  Pt0  1  0.15057656  0.34942344  0.65057656  1
  Pt  Pt1  1  0.65057656  0.15057656  0.34942344  1
  Pt  Pt2  1  0.84942344  0.84942344  0.84942344  1
  Pt  Pt3  1  0.34942344  0.65057656  0.15057656  1
loop_
_geom_bond_atom_site_label_1
_geom_bond_atom_site_label_2
_geom_bond_distance
_geom_bond_site_symmetry_2
Ba0 P2 3.153714 1_555
Ba0 Pt3 3.303307 1_556
Ba0 P1 3.303930 1_655
Ba0 P3 3.303930 1_555
Ba0 P0 3.303930 1_546
Ba0 Pt2 3.503873 1_555
Ba0 Pt1 3.503873 1_556
Ba0 Pt0 3.503873 1_555
Ba1 P1 3.153714 1_555
Ba1 Pt1 3.303307 1_565
Ba1 P0 3.303930 1_556
Ba1 P3 3.303930 1_555
Ba1 P2 3.303930 1_465
Ba1 Pt2 3.503873 1_555
Ba1 Pt0 3.503873 1_565
Ba1 Pt3 3.503873 1_555
Ba2 P3 3.153714 1_555
Ba2 Pt2 3.303307 1_444
Ba2 P2 3.303930 1_455
Ba2 P1 3.303930 1_554
Ba2 P0 3.303930 1_545
Ba2 Pt3 3.503873 1_545
Ba2 Pt0 3.503873 1_554
Ba2 Pt1 3.503873 1_455
Ba3 P0 3.153714 1_555
Ba3 Pt0 3.303307 1_655
Ba3 P2 3.303930 1_565
Ba3 P1 3.303930 1_654
Ba3 P3 3.303930 1_555
Ba3 Pt2 3.503873 1_555
Ba3 Pt3 3.503873 1_655
Ba3 Pt1 3.503873 1_555
P0 Pt1 2.373081 1_565
P0 Pt2 2.373081 1_554
P0 Pt3 2.373081 1_555
P1 Pt3 2.373081 1_556
P1 Pt2 2.373081 1_455
P1 Pt0 2.373081 1_555
P2 Pt0 2.373081 1_655
P2 Pt2 2.373081 1_545
P2 Pt1 2.373081 1_555
P3 Pt1 2.373081 1_555
P3 Pt3 2.373081 1_555
P3 Pt0 2.373081 1_555
