# generated using pymatgen
data_Na6Ca2Ti2Si3(SO8)3
_symmetry_space_group_name_H-M   'P 1'
_cell_length_a   9.23296321
_cell_length_b   9.25567956
_cell_length_c   22.69957587
_cell_angle_alpha   90.39948616
_cell_angle_beta   90.93078255
_cell_angle_gamma   119.54070245
_symmetry_Int_Tables_number   1
_chemical_formula_structural   Na6Ca2Ti2Si3(SO8)3
_chemical_formula_sum   'Na18 Ca6 Ti6 Si9 S9 O72'
_cell_volume   1687.20367138
_cell_formula_units_Z   3
loop_
 _symmetry_equiv_pos_site_id
 _symmetry_equiv_pos_as_xyz
  1  'x, y, z'
loop_
 _atom_site_type_symbol
 _atom_site_label
 _atom_site_symmetry_multiplicity
 _atom_site_fract_x
 _atom_site_fract_y
 _atom_site_fract_z
 _atom_site_occupancy
  Na  Na0  1  0.36825301  0.34167167  0.24272067  1
  Na  Na1  1  0.00174832  0.64106934  0.23943207  1
  Na  Na2  1  0.98448293  0.34649605  0.74628889  1
  Na  Na3  1  0.37802815  0.03607953  0.74296397  1
  Na  Na4  1  0.30408718  0.33575689  0.57736854  1
  Na  Na5  1  0.64964469  0.97945545  0.59374169  1
  Na  Na6  1  0.31593716  0.96565111  0.06949974  1
  Na  Na7  1  0.65366373  0.67970451  0.08475229  1
  Na  Na8  1  0.99471059  0.68175604  0.91797468  1
  Na  Na9  1  0.32145075  0.28922703  0.90526397  1
  Na  Na10  1  0.99588472  0.30860776  0.42679452  1
  Na  Na11  1  0.32381959  0.03798586  0.40946086  1
  Na  Na12  1  0.00637519  0.98817840  0.50695965  1
  Na  Na13  1  0.00461118  0.01937093  0.99394218  1
  Na  Na14  1  0.65378974  0.31201359  0.82678813  1
  Na  Na15  1  0.64738429  0.31980908  0.33433127  1
  Na  Na16  1  0.30847049  0.64612268  0.15718988  1
  Na  Na17  1  0.30319796  0.65932910  0.66035187  1
  Ca  Ca0  1  0.99914278  0.00013821  0.34907766  1
  Ca  Ca1  1  0.00042045  0.00040609  0.84876131  1
  Ca  Ca2  1  0.66775791  0.34355235  0.68464694  1
  Ca  Ca3  1  0.66808966  0.32313896  0.18351274  1
  Ca  Ca4  1  0.32286905  0.65890058  0.01592529  1
  Ca  Ca5  1  0.32198272  0.66207067  0.51875354  1
  Ti  Ti0  1  0.00626134  0.04239081  0.64918068  1
  Ti  Ti1  1  0.03423174  0.99451757  0.14097918  1
  Ti  Ti2  1  0.64796726  0.32160313  0.98719512  1
  Ti  Ti3  1  0.64044782  0.32400257  0.49235298  1
  Ti  Ti4  1  0.34267885  0.66332182  0.31557728  1
  Ti  Ti5  1  0.36329221  0.69979650  0.80700454  1
  Si  Si0  1  0.30405108  0.98642071  0.25479063  1
  Si  Si1  1  0.30024742  0.31797419  0.75648655  1
  Si  Si2  1  0.70622406  -0.00000895  0.74835656  1
  Si  Si3  1  0.95662913  0.33027344  0.58536160  1
  Si  Si4  1  0.35162508  0.03321351  0.59001704  1
  Si  Si5  1  0.95765709  0.62484699  0.08685703  1
  Si  Si6  1  0.36867954  0.32915299  0.08850156  1
  Si  Si7  1  0.34747633  0.97113957  0.91918292  1
  Si  Si8  1  0.34868399  0.37354901  0.41842670  1
  S  S0  1  0.68996506  0.70443974  0.24904678  1
  S  S1  1  0.01521009  0.30395638  0.25241627  1
  S  S2  1  0.01807524  0.71331217  0.75259314  1
  S  S3  1  0.68047293  0.63804376  0.58100267  1
  S  S4  1  0.68276596  0.04254960  0.08117184  1
  S  S5  1  0.62420634  0.65332295  0.91760371  1
  S  S6  1  0.02179030  0.36995362  0.91499454  1
  S  S7  1  0.62083380  0.96502257  0.41630171  1
  S  S8  1  0.03390145  0.65437200  0.41044924  1
  O  O0  1  0.20978725  0.00381056  0.31029579  1
  O  O1  1  0.78801606  0.79185594  0.30142436  1
  O  O2  1  0.99795098  0.22139890  0.30880037  1
  O  O3  1  0.22164178  0.20343590  0.81223171  1
  O  O4  1  0.00210534  0.77597547  0.81025430  1
  O  O5  1  0.81083311  0.01825701  0.80564318  1
  O  O6  1  0.80356714  0.97916372  0.68803106  1
  O  O7  1  0.15995246  0.20998759  0.69610546  1
  O  O8  1  0.03033606  0.82221816  0.70332696  1
  O  O9  1  0.76375490  0.79636890  0.19441574  1
  O  O10  1  0.02536320  0.20640374  0.20205849  1
  O  O11  1  0.16984692  0.96502473  0.19327251  1
  O  O12  1  0.88504145  0.34810582  0.64606560  1
  O  O13  1  0.46164462  0.11971094  0.64704470  1
  O  O14  1  0.65452676  0.54446002  0.63449208  1
  O  O15  1  0.88408129  0.54296380  0.14858923  1
  O  O16  1  0.65214472  0.10834861  0.13536977  1
  O  O17  1  0.45936290  0.34231658  0.14976798  1
  O  O18  1  0.47092627  0.29531211  0.03179707  1
  O  O19  1  0.82328795  0.51768062  0.03047382  1
  O  O20  1  0.69195754  0.15007776  0.02991486  1
  O  O21  1  0.46336880  0.17209080  0.53071926  1
  O  O22  1  0.68389175  0.53228118  0.52873713  1
  O  O23  1  0.82308270  0.30954134  0.52646394  1
  O  O24  1  0.55720977  0.67528912  0.97299860  1
  O  O25  1  0.12760643  0.44860222  0.96781249  1
  O  O26  1  0.32521517  0.87058260  0.97794823  1
  O  O27  1  0.55268124  0.87858623  0.47093715  1
  O  O28  1  0.31812290  0.45273346  0.47563974  1
  O  O29  1  0.13637075  0.68719931  0.46393395  1
  O  O30  1  0.13172155  0.64402143  0.35795365  1
  O  O31  1  0.50960498  0.86373655  0.36399201  1
  O  O32  1  0.35983326  0.50462558  0.35997570  1
  O  O33  1  0.10233675  0.46839679  0.86181764  1
  O  O34  1  0.36304203  0.86133094  0.86023276  1
  O  O35  1  0.51642191  0.64269169  0.86600567  1
  O  O36  1  0.00130831  0.79417045  0.40463749  1
  O  O37  1  0.79344936  0.99950687  0.40938175  1
  O  O38  1  0.18525749  0.18966689  0.41087075  1
  O  O39  1  0.99811492  0.19958268  0.91260495  1
  O  O40  1  0.18643542  0.99864861  0.91520510  1
  O  O41  1  0.79929190  0.78591433  0.91255415  1
  O  O42  1  0.95245992  0.14233171  0.58577292  1
  O  O43  1  0.17323072  0.03463216  0.59064208  1
  O  O44  1  0.83749901  0.79687595  0.58014655  1
  O  O45  1  0.95782508  0.81590327  0.09049864  1
  O  O46  1  0.84053673  0.03554494  0.08434405  1
  O  O47  1  0.18409078  0.14712494  0.08934834  1
  O  O48  1  0.66879958  0.15208409  0.74578231  1
  O  O49  1  0.48062207  0.34128626  0.74647906  1
  O  O50  1  0.88326783  0.54041752  0.74582508  1
  O  O51  1  0.67191509  0.53523025  0.24855193  1
  O  O52  1  0.88048202  0.34497426  0.24701628  1
  O  O53  1  0.48231279  0.15062495  0.25003132  1
  O  O54  1  0.62143605  0.48650990  0.91904049  1
  O  O55  1  0.85861376  0.36920802  0.92110847  1
  O  O56  1  0.51971839  0.16367836  0.92690264  1
  O  O57  1  0.62013843  0.12764534  0.41543836  1
  O  O58  1  0.51929419  0.35277252  0.42254932  1
  O  O59  1  0.87749745  0.49234737  0.41190341  1
  O  O60  1  0.35690180  0.49317582  0.07851163  1
  O  O61  1  0.15163769  0.68297691  0.08101739  1
  O  O62  1  0.54131702  0.87098484  0.07301535  1
  O  O63  1  0.35291438  0.86384364  0.57720848  1
  O  O64  1  0.53727631  0.66629551  0.57275214  1
  O  O65  1  0.14936880  0.46684297  0.57847736  1
  O  O66  1  0.30186851  0.80374555  0.25900837  1
  O  O67  1  0.51515683  0.68294615  0.25373448  1
  O  O68  1  0.18049101  0.46982480  0.25356499  1
  O  O69  1  0.29306330  0.49480495  0.76260706  1
  O  O70  1  0.18401481  0.71104633  0.75292662  1
  O  O71  1  0.51597717  0.82328621  0.75364508  1
loop_
_geom_bond_atom_site_label_1
_geom_bond_atom_site_label_2
_geom_bond_distance
_geom_bond_site_symmetry_2
Na0 O17 2.283114 1_555
Na0 O53 2.469418 1_555
Na0 O51 2.473752 1_555
Na0 O68 2.551544 1_555
Na0 O67 2.762788 1_555
Na0 O10 2.902194 1_555
Na1 O15 2.277144 1_455
Na1 O52 2.404372 1_455
Na1 O66 2.445294 1_555
Na1 O51 2.712592 1_455
Na1 O68 2.812098 1_555
Na1 O11 2.829314 1_555
Na1 O30 2.922462 1_555
Na2 O50 2.397696 1_555
Na2 O12 2.442344 1_555
Na2 O69 2.498204 1_655
Na2 O48 2.561314 1_555
Na2 O7 2.752658 1_655
Na2 O33 2.826607 1_655
Na3 O13 2.329117 1_555
Na3 O48 2.348505 1_555
Na3 O49 2.497888 1_555
Na3 O70 2.649357 1_545
Na4 O65 2.285425 1_555
Na4 O43 2.453884 1_555
Na4 O28 2.535284 1_555
Na4 O64 2.742767 1_555
Na4 O42 2.841686 1_455
Na5 O63 2.421152 1_555
Na5 O42 2.446699 1_565
Na5 O6 2.550638 1_555
Na5 O64 2.589228 1_555
Na5 O27 2.915876 1_555
Na6 O26 2.270474 1_554
Na6 O61 2.307280 1_555
Na6 O47 2.555326 1_565
Na6 O62 2.626376 1_555
Na6 O18 2.803731 1_565
Na7 O60 2.414043 1_555
Na7 O45 2.446967 1_555
Na7 O62 2.467767 1_555
Na7 O24 2.668181 1_554
Na7 O9 2.682139 1_555
Na7 O46 2.867381 1_565
Na7 O19 2.927908 1_555
Na8 O41 2.430986 1_555
Na8 O55 2.524653 1_555
Na8 O40 2.574241 1_655
Na8 O4 2.592420 1_655
Na9 O3 2.265224 1_555
Na9 O40 2.355818 1_545
Na9 O54 2.465827 1_555
Na9 O56 2.649350 1_555
Na9 O39 2.684039 1_455
Na10 O59 2.455658 1_555
Na10 O38 2.512528 1_655
Na10 O37 2.553817 1_545
Na10 O23 2.791936 1_555
Na10 O2 2.795088 1_555
Na10 O28 2.796304 1_655
Na11 O38 2.319587 1_555
Na11 O0 2.420797 1_555
Na11 O57 2.437167 1_555
Na11 O58 2.572882 1_555
Na11 O36 2.707615 1_545
Na12 O43 2.325275 1_565
Na12 O44 2.393547 1_455
Na12 O42 2.485533 1_465
Na12 O38 2.846010 1_565
Na12 O36 2.911513 1_555
Na12 O37 2.974400 1_455
Na13 O39 2.516478 1_455
Na13 O40 2.541598 1_545
Na13 O47 2.598061 1_556
Na13 O46 2.617002 1_456
Na13 O41 2.732623 1_445
Na13 O45 2.797006 1_446
Na14 O48 2.400865 1_555
Na14 O49 2.508455 1_555
Na14 O56 2.653460 1_555
Na14 O55 2.702980 1_555
Na14 O54 2.744420 1_555
Na14 O50 2.846013 1_555
Na15 O58 2.434344 1_555
Na15 O53 2.438605 1_555
Na15 O57 2.497172 1_555
Na15 O59 2.580396 1_555
Na15 O51 2.727889 1_555
Na15 O52 2.874932 1_555
Na16 O61 2.369984 1_555
Na16 O60 2.451228 1_555
Na16 O68 2.660312 1_555
Na16 O66 2.742114 1_555
Na16 O67 2.788009 1_555
Na16 O62 2.895025 1_555
Na17 O65 2.453220 1_555
Na17 O70 2.537020 1_555
Na17 O63 2.564563 1_555
Na17 O71 2.743611 1_555
Na17 O69 2.762462 1_555
Na17 O64 2.938220 1_555
Ca0 O0 2.132962 1_655
Ca0 O1 2.209789 1_545
Ca0 O38 2.216426 1_655
Ca0 O2 2.253441 1_555
Ca0 O36 2.301202 1_645
Ca0 O37 2.356756 1_545
Ca1 O5 2.069092 1_455
Ca1 O3 2.163958 1_555
Ca1 O4 2.255276 1_545
Ca1 O40 2.273434 1_545
Ca1 O39 2.345569 1_455
Ca1 O41 2.445155 1_445
Ca2 O13 2.162682 1_555
Ca2 O12 2.183509 1_555
Ca2 O49 2.235900 1_555
Ca2 O14 2.240084 1_555
Ca2 O48 2.262119 1_555
Ca2 O50 2.346848 1_555
Ca3 O17 2.150226 1_555
Ca3 O15 2.194982 1_555
Ca3 O16 2.200927 1_555
Ca3 O53 2.277870 1_555
Ca3 O52 2.340434 1_555
Ca3 O51 2.433922 1_555
Ca4 O26 2.136501 1_554
Ca4 O25 2.162819 1_554
Ca4 O60 2.227347 1_555
Ca4 O61 2.269589 1_555
Ca4 O24 2.323972 1_554
Ca4 O62 2.361400 1_555
Ca5 O28 2.148842 1_555
Ca5 O63 2.181092 1_555
Ca5 O29 2.206197 1_555
Ca5 O65 2.215325 1_555
Ca5 O64 2.301922 1_555
Ca5 O27 2.372221 1_555
O0 Si0 1.594296 1_545
O1 S0 1.455040 1_555
O2 S1 1.465471 1_655
O3 Si1 1.594262 1_555
O4 S2 1.466739 1_555
O5 Si2 1.564467 1_555
O6 Si2 1.710919 1_565
O6 Ti0 1.898274 1_665
O7 Si1 1.789427 1_555
O7 Ti0 1.819829 1_555
O8 S2 1.478794 1_555
O8 Ti0 2.487094 1_565
O9 S0 1.482069 1_555
O9 Ti1 2.585447 1_655
O10 S1 1.484344 1_555
O10 Ti1 2.428837 1_545
O11 Si0 1.795155 1_555
O11 Ti1 1.828845 1_555
O12 Si3 1.580149 1_555
O13 Si4 1.577798 1_555
O14 S3 1.449624 1_555
O15 Si5 1.592969 1_555
O16 S4 1.461176 1_555
O17 Si6 1.584044 1_555
O18 Si6 1.723820 1_555
O18 Ti2 1.849646 1_554
O19 Si5 1.696571 1_555
O19 Ti2 1.976273 1_554
O20 S4 1.512463 1_555
O20 Ti2 2.066460 1_554
O21 Ti3 1.790260 1_555
O21 Si4 1.813849 1_555
O22 S3 1.543470 1_555
O22 Ti3 1.940055 1_555
O23 Si3 1.747620 1_555
O23 Ti3 1.908540 1_555
O24 S5 1.466577 1_555
O25 S6 1.473216 1_555
O26 Si7 1.589180 1_555
O27 S7 1.454949 1_555
O28 Si8 1.583029 1_555
O29 S8 1.461329 1_555
O30 S8 1.537389 1_555
O30 Ti4 2.114510 1_555
O31 S7 1.529366 1_555
O31 Ti4 2.030144 1_555
O32 Si8 1.773873 1_555
O32 Ti4 1.855574 1_555
O33 S6 1.488847 1_555
O33 Ti5 2.643191 1_555
O34 Si7 1.724986 1_555
O34 Ti5 1.916652 1_555
O35 S5 1.495273 1_555
O35 Ti5 2.181114 1_555
O36 S8 1.472166 1_555
O37 S7 1.474388 1_555
O38 Si8 1.630350 1_555
O39 S6 1.481841 1_655
O40 Si7 1.628828 1_555
O41 S5 1.477900 1_555
O42 Si3 1.720970 1_555
O42 Ti0 1.903295 1_655
O43 Si4 1.653912 1_555
O43 Ti0 2.078908 1_555
O44 S3 1.470761 1_555
O44 Ti0 2.535125 1_665
O45 Si5 1.768946 1_555
O45 Ti1 1.827861 1_655
O46 S4 1.490343 1_555
O46 Ti1 2.365803 1_645
O47 Si6 1.706933 1_555
O47 Ti1 1.852499 1_545
O48 Si2 1.607683 1_555
O49 Si1 1.590701 1_555
O50 S2 1.469666 1_655
O51 S0 1.490987 1_555
O52 S1 1.472388 1_655
O53 Si0 1.603712 1_545
O54 S5 1.532104 1_555
O54 Ti2 2.274299 1_555
O55 S6 1.511858 1_655
O55 Ti2 2.342252 1_555
O56 Si7 1.711012 1_545
O56 Ti2 1.903817 1_555
O57 S7 1.508622 1_545
O57 Ti3 2.448573 1_555
O58 Si8 1.679665 1_555
O58 Ti3 2.018637 1_555
O59 S8 1.483966 1_655
O59 Ti3 2.712881 1_555
O60 Si6 1.592104 1_555
O61 Si5 1.604145 1_455
O62 S4 1.484767 1_565
O63 Si4 1.598221 1_565
O64 S3 1.478184 1_555
O65 Si3 1.607081 1_455
O66 Si0 1.684352 1_555
O66 Ti4 1.992637 1_555
O67 S0 1.531387 1_555
O67 Ti4 2.081014 1_555
O68 S1 1.540883 1_555
O68 Ti4 2.164068 1_555
O69 Si1 1.675301 1_555
O69 Ti5 1.942925 1_555
O70 S2 1.542459 1_555
O70 Ti5 2.088857 1_555
O71 Si2 1.717991 1_565
O71 Ti5 1.801876 1_555
