# generated using pymatgen
data_TbAg3H6C6(N2O)3
_symmetry_space_group_name_H-M   'P 1'
_cell_length_a   6.77564861
_cell_length_b   6.77564861
_cell_length_c   18.43071900
_cell_angle_alpha   90.00000000
_cell_angle_beta   90.00000000
_cell_angle_gamma   120.00000596
_symmetry_Int_Tables_number   1
_chemical_formula_structural   TbAg3H6C6(N2O)3
_chemical_formula_sum   'Tb2 Ag6 H12 C12 N12 O6'
_cell_volume   732.78173141
_cell_formula_units_Z   2
loop_
 _symmetry_equiv_pos_site_id
 _symmetry_equiv_pos_as_xyz
  1  'x, y, z'
loop_
 _atom_site_type_symbol
 _atom_site_label
 _atom_site_symmetry_multiplicity
 _atom_site_fract_x
 _atom_site_fract_y
 _atom_site_fract_z
 _atom_site_occupancy
  Tb  Tb0  1  0.00000000  0.00000000  0.75000000  1
  Tb  Tb1  1  0.00000000  0.00000000  0.25000000  1
  Ag  Ag0  1  0.50000000  0.00000000  0.50000000  1
  Ag  Ag1  1  0.50000000  0.50000000  0.50000000  1
  Ag  Ag2  1  0.00000000  0.50000000  0.00000000  1
  Ag  Ag3  1  0.00000000  0.50000000  0.50000000  1
  Ag  Ag4  1  0.50000000  0.00000000  0.00000000  1
  Ag  Ag5  1  0.50000000  0.50000000  0.00000000  1
  H  H0  1  0.44648100  0.44648100  0.79246800  1
  H  H1  1  0.55351900  0.00000000  0.79246800  1
  H  H2  1  0.00000000  0.55351900  0.79246800  1
  H  H3  1  0.00000000  0.44648100  0.29246800  1
  H  H4  1  0.55351900  0.00000000  0.70753200  1
  H  H5  1  0.55351900  0.55351900  0.29246800  1
  H  H6  1  0.44648100  0.00000000  0.29246800  1
  H  H7  1  0.55351900  0.55351900  0.20753200  1
  H  H8  1  0.00000000  0.44648100  0.20753200  1
  H  H9  1  0.00000000  0.55351900  0.70753200  1
  H  H10  1  0.44648100  0.44648100  0.70753200  1
  H  H11  1  0.44648100  0.00000000  0.20753200  1
  C  C0  1  0.65367200  0.65367200  0.90366300  1
  C  C1  1  0.34632800  0.00000000  0.90366300  1
  C  C2  1  0.00000000  0.34632800  0.90366300  1
  C  C3  1  0.00000000  0.65367200  0.40366300  1
  C  C4  1  0.34632800  0.00000000  0.59633700  1
  C  C5  1  0.65367200  0.00000000  0.40366300  1
  C  C6  1  0.00000000  0.65367200  0.09633700  1
  C  C7  1  0.34632800  0.34632800  0.09633700  1
  C  C8  1  0.65367200  0.00000000  0.09633700  1
  C  C9  1  0.65367200  0.65367200  0.59633700  1
  C  C10  1  0.00000000  0.34632800  0.59633700  1
  C  C11  1  0.34632800  0.34632800  0.40366300  1
  N  N0  1  0.74362600  0.74362600  0.84932500  1
  N  N1  1  0.74362600  0.74362600  0.65067500  1
  N  N2  1  0.00000000  0.25637400  0.84932500  1
  N  N3  1  0.00000000  0.74362600  0.34932500  1
  N  N4  1  0.25637400  0.00000000  0.65067500  1
  N  N5  1  0.25637400  0.25637400  0.34932500  1
  N  N6  1  0.74362600  0.00000000  0.34932500  1
  N  N7  1  0.25637400  0.25637400  0.15067500  1
  N  N8  1  0.74362600  0.00000000  0.15067500  1
  N  N9  1  0.00000000  0.25637400  0.65067500  1
  N  N10  1  0.00000000  0.74362600  0.15067500  1
  N  N11  1  0.25637400  0.00000000  0.84932500  1
  O  O0  1  0.63980400  0.63980400  0.25000000  1
  O  O1  1  0.00000000  0.36019600  0.25000000  1
  O  O2  1  0.00000000  0.63980400  0.75000000  1
  O  O3  1  0.36019600  0.36019600  0.75000000  1
  O  O4  1  0.36019600  0.00000000  0.25000000  1
  O  O5  1  0.63980400  0.00000000  0.75000000  1
loop_
_geom_bond_atom_site_label_1
_geom_bond_atom_site_label_2
_geom_bond_distance
_geom_bond_site_symmetry_2
Ag0 C5 2.058341 1_555
Ag0 C4 2.058341 1_555
Ag1 C9 2.058341 1_555
Ag1 C11 2.058341 1_555
Ag2 C6 2.058341 1_555
Ag2 C2 2.058341 1_554
Ag3 C3 2.058341 1_555
Ag3 C10 2.058341 1_555
Ag4 C8 2.058341 1_555
Ag4 C1 2.058341 1_554
Ag5 C7 2.058341 1_555
Ag5 C0 2.058341 1_554
H0 O3 0.976957 1_555
H1 O5 0.976957 1_555
H2 O2 0.976957 1_555
H3 O1 0.976957 1_555
H4 O5 0.976957 1_555
H5 O0 0.976957 1_555
H6 O4 0.976957 1_555
H7 O0 0.976957 1_555
H8 O1 0.976957 1_555
H9 O2 0.976957 1_555
H10 O3 0.976957 1_555
H11 O4 0.976957 1_555
C0 N0 1.172376 1_555
C1 N11 1.172376 1_555
C2 N2 1.172376 1_555
C3 N3 1.172376 1_555
C4 N4 1.172376 1_555
C5 N6 1.172376 1_555
C6 N10 1.172376 1_555
C7 N7 1.172376 1_555
C8 N8 1.172376 1_555
C9 N1 1.172376 1_555
C10 N9 1.172376 1_555
C11 N5 1.172376 1_555
N0 Tb0 2.523634 1_665
N1 Tb0 2.523634 1_665
N2 Tb0 2.523634 1_555
N3 Tb1 2.523634 1_565
N4 Tb0 2.523634 1_555
N5 Tb1 2.523634 1_555
N6 Tb1 2.523634 1_655
N7 Tb1 2.523634 1_555
N8 Tb1 2.523634 1_655
N9 Tb0 2.523634 1_555
N10 Tb1 2.523634 1_565
N11 Tb0 2.523634 1_555
O0 Tb1 2.440561 1_665
O1 Tb1 2.440562 1_555
O2 Tb0 2.440562 1_565
O3 Tb0 2.440561 1_555
O4 Tb1 2.440562 1_555
O5 Tb0 2.440562 1_655
