# generated using pymatgen
data_YbCeSe3
_symmetry_space_group_name_H-M   'P 1'
_cell_length_a   7.22466572
_cell_length_b   7.22466572
_cell_length_c   9.66128000
_cell_angle_alpha   90.00000000
_cell_angle_beta   90.00000000
_cell_angle_gamma   147.56307421
_symmetry_Int_Tables_number   1
_chemical_formula_structural   YbCeSe3
_chemical_formula_sum   'Yb2 Ce2 Se6'
_cell_volume   270.48011175
_cell_formula_units_Z   2
loop_
 _symmetry_equiv_pos_site_id
 _symmetry_equiv_pos_as_xyz
  1  'x, y, z'
loop_
 _atom_site_type_symbol
 _atom_site_label
 _atom_site_symmetry_multiplicity
 _atom_site_fract_x
 _atom_site_fract_y
 _atom_site_fract_z
 _atom_site_occupancy
  Yb  Yb0  1  0.00000000  0.00000000  0.00000000  1
  Yb  Yb1  1  0.00000000  0.00000000  0.50000000  1
  Ce  Ce0  1  0.24866000  0.75134000  0.75000000  1
  Ce  Ce1  1  0.75134000  0.24866000  0.25000000  1
  Se  Se0  1  0.10593900  0.89406100  0.25000000  1
  Se  Se1  1  0.89406100  0.10593900  0.75000000  1
  Se  Se2  1  0.64969100  0.35030900  0.57014100  1
  Se  Se3  1  0.35030900  0.64969100  0.42985900  1
  Se  Se4  1  0.64969100  0.35030900  0.92985900  1
  Se  Se5  1  0.35030900  0.64969100  0.07014100  1
loop_
_geom_bond_atom_site_label_1
_geom_bond_atom_site_label_2
_geom_bond_distance
_geom_bond_site_symmetry_2
Ce0 Se1 2.853311 1_455
Ce0 Se1 2.853311 1_565
Ce0 Se2 2.996113 1_565
Ce0 Se2 2.996113 1_455
Ce0 Se4 2.996113 1_565
Ce0 Se4 2.996113 1_455
Ce0 Se3 3.399330 1_555
Ce0 Se5 3.399330 1_556
Ce1 Se0 2.853311 1_545
Ce1 Se0 2.853311 1_655
Ce1 Se5 2.996113 1_655
Ce1 Se5 2.996113 1_545
Ce1 Se3 2.996113 1_545
Ce1 Se3 2.996113 1_655
Ce1 Se4 3.399330 1_554
Ce1 Se2 3.399330 1_555
Se0 Yb1 2.827396 1_565
Se0 Yb0 2.827396 1_565
Se1 Yb0 2.827396 1_656
Se1 Yb1 2.827396 1_655
Se2 Yb1 2.973934 1_555
Se2 Yb1 2.973934 1_665
Se3 Yb1 2.973934 1_555
Se3 Yb1 2.973934 1_665
Se4 Yb0 2.973934 1_666
Se4 Yb0 2.973934 1_556
Se5 Yb0 2.973934 1_665
Se5 Yb0 2.973934 1_555
