# generated using pymatgen
data_MgFe12(OF)12
_symmetry_space_group_name_H-M   'P 1'
_cell_length_a   9.73124401
_cell_length_b   14.46227711
_cell_length_c   3.09111857
_cell_angle_alpha   89.94623962
_cell_angle_beta   90.04369794
_cell_angle_gamma   89.02593240
_symmetry_Int_Tables_number   1
_chemical_formula_structural   MgFe12(OF)12
_chemical_formula_sum   'Mg1 Fe12 O12 F12'
_cell_volume   434.96831251
_cell_formula_units_Z   1
loop_
 _symmetry_equiv_pos_site_id
 _symmetry_equiv_pos_as_xyz
  1  'x, y, z'
loop_
 _atom_site_type_symbol
 _atom_site_label
 _atom_site_symmetry_multiplicity
 _atom_site_fract_x
 _atom_site_fract_y
 _atom_site_fract_z
 _atom_site_occupancy
  Mg  Mg0  1  0.48253700  0.49944800  0.01694800  1
  Fe  Fe0  1  0.00715400  0.00739200  0.99972800  1
  Fe  Fe1  1  0.01156700  0.31684800  0.00609300  1
  Fe  Fe2  1  0.01533100  0.67860000  0.00717400  1
  Fe  Fe3  1  0.23034100  0.15724800  0.50174500  1
  Fe  Fe4  1  0.21869200  0.47715900  0.51165500  1
  Fe  Fe5  1  0.25388300  0.86650800  0.49900900  1
  Fe  Fe6  1  0.50183800  0.32090900  0.99479300  1
  Fe  Fe7  1  0.51459900  0.99607400  0.99774900  1
  Fe  Fe8  1  0.52638500  0.68596100  0.00362500  1
  Fe  Fe9  1  0.74666800  0.14292600  0.49484500  1
  Fe  Fe10  1  0.74960400  0.49468800  0.50922700  1
  Fe  Fe11  1  0.74112200  0.84032200  0.50129200  1
  O  O0  1  0.09511000  0.26202500  0.50579500  1
  O  O1  1  0.08886600  0.93418000  0.50044000  1
  O  O2  1  0.16056500  0.09765000  0.00166200  1
  O  O3  1  0.13466800  0.42627400  0.01102800  1
  O  O4  1  0.35585300  0.90733400  0.99895800  1
  O  O5  1  0.40696300  0.42035800  0.51369500  1
  O  O6  1  0.60369300  0.93503800  0.49827500  1
  O  O7  1  0.57213500  0.59246800  0.50699700  1
  O  O8  1  0.64584600  0.10063800  0.99526200  1
  O  O9  1  0.66413200  0.43742900  0.00872300  1
  O  O10  1  0.66730700  0.76811500  0.00196400  1
  O  O11  1  0.90413800  0.06420100  0.49893400  1
  F  F0  1  0.09070500  0.59372200  0.50871300  1
  F  F1  1  0.17252900  0.77054600  0.00219300  1
  F  F2  1  0.34266700  0.23051300  0.99796200  1
  F  F3  1  0.31304400  0.56991900  0.01087300  1
  F  F4  1  0.40701700  0.07074400  0.49812600  1
  F  F5  1  0.41300800  0.73674200  0.50272700  1
  F  F6  1  0.61195100  0.26251200  0.49314000  1
  F  F7  1  0.84479300  0.23340600  0.00279200  1
  F  F8  1  0.84813200  0.89597600  0.00067400  1
  F  F9  1  0.84484200  0.56835300  0.00834900  1
  F  F10  1  0.90087400  0.39682600  0.50860000  1
  F  F11  1  0.90430000  0.74094600  0.50523600  1
loop_
_geom_bond_atom_site_label_1
_geom_bond_atom_site_label_2
_geom_bond_distance
_geom_bond_site_symmetry_2
Mg0 O9 1.968290 1_555
Mg0 O5 2.057664 1_555
Mg0 O5 2.073479 1_554
Mg0 O7 2.215016 1_555
Mg0 O7 2.256716 1_554
Fe0 O2 1.999721 1_556
Fe0 O11 2.009445 1_456
Fe0 O11 2.010858 1_455
Fe0 O1 2.027716 1_545
Fe0 O1 2.028631 1_546
Fe1 O0 1.910326 1_555
Fe1 O0 1.914020 1_554
Fe1 O3 2.001048 1_555
Fe3 O2 1.900243 1_556
Fe3 O2 1.901133 1_555
Fe3 O0 1.990066 1_555
Fe4 O3 1.900829 1_556
Fe4 O3 1.904087 1_555
Fe4 O5 1.995066 1_555
Fe5 O1 1.866307 1_555
Fe5 O4 1.934121 1_555
Fe5 O4 1.934697 1_554
Fe6 O5 2.254171 1_555
Fe6 O9 2.329452 1_556
Fe6 O5 2.335637 1_556
Fe7 O6 1.973115 1_555
Fe7 O6 1.973329 1_556
Fe7 O8 1.995946 1_565
Fe7 O4 2.025064 1_555
Fe8 O10 1.829666 1_555
Fe8 O7 2.089869 1_554
Fe8 O7 2.102867 1_555
Fe9 O11 1.893476 1_555
Fe9 O8 1.934236 1_554
Fe9 O8 1.936573 1_555
Fe10 O9 1.945370 1_556
Fe10 O9 1.948071 1_555
Fe10 O7 2.213419 1_555
Fe11 O6 1.898066 1_555
Fe11 O10 2.003912 1_555
Fe11 O10 2.006448 1_556
F0 Fe4 2.078861 1_555
F0 Fe2 2.096081 1_556
F0 Fe2 2.100568 1_555
F1 Fe2 2.043944 1_555
F1 Fe5 2.225028 1_555
F1 Fe5 2.237694 1_554
F2 Fe6 2.043832 1_555
F2 Fe3 2.170283 1_555
F2 Fe3 2.186648 1_556
F3 Mg0 1.924129 1_555
F3 Fe4 2.251131 1_554
F3 Fe4 2.253682 1_555
F4 Fe3 2.109047 1_555
F4 Fe7 2.145533 1_545
F4 Fe7 2.149818 1_544
F5 Fe8 2.028295 1_555
F5 Fe8 2.030192 1_556
F5 Fe5 2.412698 1_555
F6 Fe6 2.049077 1_554
F6 Fe6 2.059189 1_555
F6 Fe9 2.152362 1_555
F7 Fe1 2.038830 1_655
F7 Fe9 2.231249 1_555
F7 Fe9 2.265707 1_554
F8 Fe11 2.035548 1_554
F8 Fe11 2.038506 1_555
F8 Fe0 2.252968 1_664
F9 Fe10 2.099708 1_554
F9 Fe10 2.103269 1_555
F9 Fe2 2.320484 1_655
F10 Fe10 2.024646 1_555
F10 Fe1 2.194270 1_656
F10 Fe1 2.207831 1_655
F11 Fe2 2.079112 1_655
F11 Fe2 2.085525 1_656
F11 Fe11 2.123571 1_555
