# generated using pymatgen
data_Na3TaSi3GeO12
_symmetry_space_group_name_H-M   'P 1'
_cell_length_a   8.90928507
_cell_length_b   8.88122300
_cell_length_c   22.01520827
_cell_angle_alpha   90.00000000
_cell_angle_beta   90.17821185
_cell_angle_gamma   119.89586370
_symmetry_Int_Tables_number   1
_chemical_formula_structural   Na3TaSi3GeO12
_chemical_formula_sum   'Na18 Ta6 Si18 Ge6 O72'
_cell_volume   1510.15329584
_cell_formula_units_Z   6
loop_
 _symmetry_equiv_pos_site_id
 _symmetry_equiv_pos_as_xyz
  1  'x, y, z'
loop_
 _atom_site_type_symbol
 _atom_site_label
 _atom_site_symmetry_multiplicity
 _atom_site_fract_x
 _atom_site_fract_y
 _atom_site_fract_z
 _atom_site_occupancy
  Na  Na0  1  0.99157288  0.98040141  0.49570932  1
  Na  Na1  1  0.99157288  0.01117147  0.99570932  1
  Na  Na2  1  0.66628913  0.33439967  0.82897787  1
  Na  Na3  1  0.66628913  0.33188846  0.32897787  1
  Na  Na4  1  0.33202787  0.66539149  0.16233548  1
  Na  Na5  1  0.33202787  0.66663738  0.66233548  1
  Na  Na6  1  0.36850399  0.36720918  0.24842278  1
  Na  Na7  1  0.99288830  0.62975839  0.24785929  1
  Na  Na8  1  0.99288830  0.36312991  0.74785929  1
  Na  Na9  1  0.36850399  0.00129480  0.74842278  1
  Na  Na10  1  0.30181892  0.34004498  0.58152984  1
  Na  Na11  1  0.66480326  0.96614740  0.58134482  1
  Na  Na12  1  0.30181892  0.96177294  0.08152984  1
  Na  Na13  1  0.66480326  0.69865486  0.08134482  1
  Na  Na14  1  0.96875437  0.67407054  0.91448155  1
  Na  Na15  1  0.33174169  0.29911141  0.91508125  1
  Na  Na16  1  0.96875437  0.29468483  0.41448155  1
  Na  Na17  1  0.33174169  0.03263128  0.41508125  1
  Ta  Ta0  1  -0.00022865  0.99766536  0.64400968  1
  Ta  Ta1  1  -0.00022865  0.00210599  0.14400968  1
  Ta  Ta2  1  0.66798986  0.32928425  0.97727873  1
  Ta  Ta3  1  0.66798986  0.33870461  0.47727873  1
  Ta  Ta4  1  0.33633429  0.67006521  0.31071559  1
  Ta  Ta5  1  0.33633429  0.66627008  0.81071559  1
  Si  Si0  1  0.29310855  0.00802045  0.25086351  1
  Si  Si1  1  0.71576934  0.71234572  0.25061735  1
  Si  Si2  1  0.98767570  0.28063679  0.25233816  1
  Si  Si3  1  0.29310855  0.28508810  0.75086351  1
  Si  Si4  1  0.98767570  0.70703891  0.75233816  1
  Si  Si5  1  0.71576934  0.00342362  0.75061735  1
  Si  Si6  1  0.95922730  0.34627441  0.58472343  1
  Si  Si7  1  0.38104460  0.04075884  0.58419227  1
  Si  Si8  1  0.66201497  0.61765748  0.58513728  1
  Si  Si9  1  0.95922730  0.61295188  0.08472343  1
  Si  Si10  1  0.66201497  0.04435649  0.08513728  1
  Si  Si11  1  0.38104460  0.34028476  0.08419227  1
  Si  Si12  1  0.62645454  0.67984886  0.91939701  1
  Si  Si13  1  0.04860492  0.37475772  0.91681506  1
  Si  Si14  1  0.32937443  0.95151090  0.91763523  1
  Si  Si15  1  0.62645454  0.94660668  0.41939701  1
  Si  Si16  1  0.32937443  0.37786453  0.41763523  1
  Si  Si17  1  0.04860492  0.67384821  0.41681506  1
  Ge  Ge0  1  0.99734132  0.99689109  0.35384773  1
  Ge  Ge1  1  0.99734132  0.00045023  0.85384773  1
  Ge  Ge2  1  0.66613886  0.33577032  0.68724114  1
  Ge  Ge3  1  0.66613886  0.33036755  0.18724114  1
  Ge  Ge4  1  0.33021704  0.66077447  0.02049174  1
  Ge  Ge5  1  0.33021704  0.66944358  0.52049174  1
  O  O0  1  0.20668335  0.04503193  0.31101292  1
  O  O1  1  0.84787686  0.80230862  0.30786471  1
  O  O2  1  0.96530299  0.16862282  0.31385005  1
  O  O3  1  0.20668335  0.16165142  0.81101292  1
  O  O4  1  0.96530299  0.79668017  0.81385005  1
  O  O5  1  0.84787686  0.04556824  0.80786471  1
  O  O6  1  0.79958922  0.97167923  0.68921957  1
  O  O7  1  0.16787124  0.20101128  0.69090057  1
  O  O8  1  0.03148852  0.83881685  0.69451089  1
  O  O9  1  0.79958922  0.82790999  0.18921957  1
  O  O10  1  0.03148852  0.19267167  0.19451089  1
  O  O11  1  0.16787124  0.96685996  0.19090057  1
  O  O12  1  0.86789449  0.36789466  0.64581710  1
  O  O13  1  0.50451155  0.12674527  0.64454916  1
  O  O14  1  0.62022934  0.48666858  0.64247931  1
  O  O15  1  0.86789449  0.49999883  0.14581710  1
  O  O16  1  0.62022934  0.13355976  0.14247931  1
  O  O17  1  0.50451155  0.37776528  0.14454916  1
  O  O18  1  0.46745347  0.30159870  0.02439590  1
  O  O19  1  0.83341750  0.53212369  0.02484341  1
  O  O20  1  0.69605738  0.16628726  0.02534672  1
  O  O21  1  0.46745347  0.16585377  0.52439590  1
  O  O22  1  0.69605738  0.52976912  0.52534672  1
  O  O23  1  0.83341750  0.30129281  0.52484341  1
  O  O24  1  0.53753222  0.70406806  0.98051078  1
  O  O25  1  0.17877996  0.46540339  0.97472844  1
  O  O26  1  0.29267991  0.82774228  0.97740059  1
  O  O27  1  0.53753222  0.83346516  0.48051078  1
  O  O28  1  0.29267991  0.46493864  0.47740059  1
  O  O29  1  0.17877996  0.71337757  0.47472844  1
  O  O30  1  0.13035385  0.63293784  0.35625270  1
  O  O31  1  0.49434386  0.85973607  0.36128894  1
  O  O32  1  0.36058277  0.49563428  0.35696525  1
  O  O33  1  0.13035385  0.49741701  0.85625270  1
  O  O34  1  0.36058277  0.86494949  0.85696525  1
  O  O35  1  0.49434386  0.63460879  0.86128894  1
  O  O36  1  0.03605174  0.85004755  0.40991502  1
  O  O37  1  0.82136788  0.97667934  0.41156407  1
  O  O38  1  0.15657530  0.18370299  0.41234533  1
  O  O39  1  0.03605174  0.18600419  0.90991502  1
  O  O40  1  0.15657530  0.97287231  0.91234533  1
  O  O41  1  0.82136788  0.84468854  0.91156407  1
  O  O42  1  0.97762624  0.16878073  0.58880114  1
  O  O43  1  0.19247259  0.03159328  0.58850288  1
  O  O44  1  0.83167914  0.81361930  0.58796625  1
  O  O45  1  0.97762624  0.80884551  0.08880114  1
  O  O46  1  0.83167914  0.01805984  0.08796625  1
  O  O47  1  0.19247259  0.16087931  0.08850288  1
  O  O48  1  0.69355732  0.17619848  0.74502878  1
  O  O49  1  0.48085633  0.29684915  0.74388992  1
  O  O50  1  0.82260594  0.51164937  0.74485653  1
  O  O51  1  0.69355732  0.51735784  0.24502878  1
  O  O52  1  0.82260594  0.31095556  0.24485653  1
  O  O53  1  0.48085633  0.18400618  0.24388992  1
  O  O54  1  0.64311313  0.50170617  0.92277218  1
  O  O55  1  0.86006466  0.36567763  0.92172173  1
  O  O56  1  0.49833064  0.14881802  0.92063691  1
  O  O57  1  0.64311313  0.14140597  0.42277218  1
  O  O58  1  0.49833064  0.34951162  0.42063691  1
  O  O59  1  0.86006466  0.49438603  0.42172173  1
  O  O60  1  0.36740046  0.51606688  0.07791893  1
  O  O61  1  0.15489036  0.64383673  0.07769478  1
  O  O62  1  0.48937992  0.85161334  0.07826517  1
  O  O63  1  0.36740046  0.85133458  0.57791893  1
  O  O64  1  0.48937992  0.63776758  0.57826517  1
  O  O65  1  0.15489036  0.51105463  0.57769478  1
  O  O66  1  0.30228404  0.82800071  0.25502960  1
  O  O67  1  0.51928305  0.68504442  0.25476453  1
  O  O68  1  0.16504527  0.47524135  0.25534318  1
  O  O69  1  0.30228404  0.47428433  0.75502960  1
  O  O70  1  0.16504527  0.68980492  0.75534318  1
  O  O71  1  0.51928305  0.83423963  0.75476453  1
loop_
_geom_bond_atom_site_label_1
_geom_bond_atom_site_label_2
_geom_bond_distance
_geom_bond_site_symmetry_2
Na0 O36 2.350909 1_655
Na0 O37 2.380083 1_555
Na0 O38 2.481981 1_665
Na0 O44 2.502621 1_555
Na0 O43 2.598023 1_665
Na0 O42 2.687656 1_565
Na1 O39 2.350909 1_655
Na1 O41 2.380083 1_545
Na1 O40 2.481981 1_645
Na1 O46 2.502621 1_556
Na1 O47 2.598023 1_656
Na1 O45 2.687656 1_546
Na2 O50 2.382845 1_555
Na2 O49 2.404387 1_555
Na2 O48 2.406624 1_555
Na2 O56 2.566676 1_555
Na2 O55 2.593547 1_555
Na2 O54 2.612050 1_555
Na3 O52 2.382845 1_555
Na3 O53 2.404387 1_555
Na3 O51 2.406624 1_555
Na3 O58 2.566676 1_555
Na3 O59 2.593547 1_555
Na3 O57 2.612050 1_555
Na4 O61 2.383276 1_555
Na4 O60 2.394197 1_555
Na4 O62 2.414758 1_555
Na4 O67 2.577387 1_555
Na4 O66 2.589417 1_555
Na4 O68 2.602357 1_555
Na5 O65 2.383276 1_555
Na5 O63 2.394197 1_555
Na5 O64 2.414758 1_555
Na5 O71 2.577387 1_555
Na5 O69 2.589417 1_555
Na5 O70 2.602357 1_555
Na6 O53 2.298568 1_555
Na6 O68 2.442329 1_555
Na6 O67 2.451715 1_555
Na6 O51 2.514415 1_555
Na6 O17 2.571094 1_555
Na6 O32 2.664074 1_555
Na6 O0 2.839820 1_555
Na6 O10 2.857467 1_555
Na7 O51 2.336136 1_555
Na7 O66 2.425369 1_655
Na7 O52 2.457642 1_555
Na7 O15 2.513962 1_555
Na7 O68 2.521807 1_655
Na7 O30 2.672550 1_655
Na7 O1 2.783328 1_555
Na7 O11 2.885409 1_655
Na8 O48 2.336137 1_555
Na8 O69 2.425368 1_655
Na8 O50 2.457635 1_555
Na8 O12 2.513960 1_555
Na8 O70 2.521814 1_655
Na8 O33 2.672552 1_655
Na8 O5 2.783328 1_555
Na8 O7 2.885409 1_655
Na9 O49 2.298560 1_555
Na9 O70 2.442322 1_545
Na9 O71 2.451707 1_545
Na9 O48 2.514414 1_555
Na9 O13 2.571092 1_555
Na9 O34 2.664070 1_545
Na9 O3 2.839820 1_555
Na9 O8 2.857467 1_545
Na10 O64 2.320607 1_555
Na10 O43 2.411988 1_555
Na10 O65 2.451230 1_555
Na10 O42 2.510989 1_455
Na10 O28 2.565358 1_555
Na10 O7 2.700999 1_555
Na10 O14 2.799561 1_555
Na10 O21 2.905226 1_555
Na11 O63 2.317658 1_555
Na11 O42 2.455703 1_565
Na11 O44 2.464347 1_555
Na11 O27 2.500913 1_555
Na11 O64 2.531474 1_555
Na11 O6 2.647258 1_555
Na11 O13 2.837738 1_565
Na11 O23 2.866677 1_565
Na12 O62 2.320593 1_555
Na12 O47 2.411996 1_565
Na12 O61 2.451215 1_555
Na12 O45 2.510989 1_455
Na12 O26 2.565350 1_554
Na12 O11 2.701001 1_555
Na12 O16 2.799561 1_565
Na12 O18 2.905226 1_565
Na13 O60 2.317655 1_555
Na13 O45 2.455702 1_555
Na13 O46 2.464354 1_565
Na13 O24 2.500917 1_554
Na13 O62 2.531489 1_555
Na13 O9 2.647260 1_555
Na13 O17 2.837738 1_555
Na13 O19 2.866677 1_555
Na14 O40 2.327753 1_655
Na14 O55 2.412843 1_555
Na14 O41 2.451012 1_555
Na14 O4 2.475430 1_555
Na14 O54 2.523862 1_555
Na14 O19 2.729326 1_556
Na14 O26 2.856374 1_655
Na14 O33 2.905301 1_655
Na15 O39 2.306980 1_555
Na15 O56 2.444002 1_555
Na15 O54 2.446042 1_555
Na15 O40 2.515157 1_545
Na15 O3 2.570808 1_555
Na15 O18 2.685018 1_556
Na15 O25 2.789289 1_555
Na15 O35 2.843772 1_555
Na16 O38 2.327760 1_655
Na16 O59 2.412826 1_555
Na16 O37 2.451020 1_545
Na16 O2 2.475434 1_555
Na16 O57 2.523862 1_555
Na16 O23 2.729322 1_555
Na16 O28 2.856374 1_655
Na16 O30 2.905301 1_655
Na17 O36 2.306981 1_545
Na17 O58 2.443987 1_555
Na17 O57 2.446045 1_555
Na17 O38 2.515149 1_555
Na17 O0 2.570806 1_555
Na17 O21 2.685014 1_555
Na17 O29 2.789289 1_545
Na17 O31 2.843772 1_545
Ge0 O1 1.866039 1_555
Ge0 O2 1.901438 1_565
Ge0 O0 1.940791 1_665
Ge0 O36 1.946546 1_655
Ge0 O37 1.958719 1_555
Ge0 O38 2.016462 1_665
Ge1 O5 1.866039 1_555
Ge1 O4 1.901438 1_545
Ge1 O3 1.940791 1_655
Ge1 O39 1.946546 1_655
Ge1 O41 1.958719 1_545
Ge1 O40 2.016462 1_645
Ge2 O14 1.865032 1_555
Ge2 O12 1.908677 1_555
Ge2 O13 1.931307 1_555
Ge2 O50 1.952034 1_555
Ge2 O49 1.960550 1_555
Ge2 O48 2.007433 1_555
Ge3 O16 1.865032 1_555
Ge3 O15 1.908677 1_555
Ge3 O17 1.931307 1_555
Ge3 O52 1.952034 1_555
Ge3 O53 1.960550 1_555
Ge3 O51 2.007433 1_555
Ge4 O25 1.871880 1_554
Ge4 O24 1.906898 1_554
Ge4 O26 1.924347 1_554
Ge4 O60 1.944639 1_555
Ge4 O61 1.956148 1_555
Ge4 O62 2.023389 1_555
Ge5 O29 1.871880 1_555
Ge5 O27 1.906898 1_555
Ge5 O28 1.924347 1_555
Ge5 O63 1.944639 1_555
Ge5 O65 1.956148 1_555
Ge5 O64 2.023389 1_555
O0 Si0 1.647144 1_555
O1 Si1 1.632604 1_555
O2 Si2 1.633175 1_555
O3 Si3 1.647144 1_555
O4 Si4 1.633175 1_555
O5 Si5 1.632604 1_555
O6 Si5 1.637181 1_565
O6 Ta0 1.955870 1_655
O7 Si3 1.644835 1_555
O7 Ta0 1.965788 1_545
O8 Si4 1.640277 1_455
O8 Ta0 1.923967 1_555
O9 Si1 1.637181 1_555
O9 Ta1 1.955870 1_665
O10 Si2 1.640277 1_455
O10 Ta1 1.923967 1_555
O11 Si0 1.644835 1_565
O11 Ta1 1.965788 1_565
O12 Si6 1.634182 1_555
O13 Si7 1.646918 1_555
O14 Si8 1.629969 1_555
O15 Si9 1.634182 1_555
O16 Si10 1.629969 1_555
O17 Si11 1.646918 1_555
O18 Si11 1.647320 1_555
O18 Ta2 1.975378 1_554
O19 Si9 1.642630 1_555
O19 Ta2 1.964099 1_554
O20 Si10 1.634742 1_555
O20 Ta2 1.907135 1_554
O21 Si7 1.647320 1_555
O21 Ta3 1.975378 1_555
O22 Si8 1.634742 1_555
O22 Ta3 1.907135 1_555
O23 Si6 1.642630 1_555
O23 Ta3 1.964099 1_555
O24 Si12 1.631132 1_555
O25 Si13 1.636703 1_555
O26 Si14 1.640364 1_555
O27 Si15 1.631132 1_555
O28 Si16 1.640364 1_555
O29 Si17 1.636703 1_555
O30 Si17 1.646199 1_555
O30 Ta4 1.972238 1_555
O31 Si15 1.643932 1_555
O31 Ta4 1.919715 1_555
O32 Si16 1.633310 1_555
O32 Ta4 1.953342 1_555
O33 Si13 1.646199 1_555
O33 Ta5 1.972238 1_555
O34 Si14 1.633310 1_555
O34 Ta5 1.953342 1_555
O35 Si12 1.643932 1_555
O35 Ta5 1.919715 1_555
O36 Si17 1.630566 1_555
O37 Si15 1.629773 1_555
O38 Si16 1.646122 1_555
O39 Si13 1.630575 1_555
O40 Si14 1.646117 1_555
O41 Si12 1.629770 1_555
O42 Si6 1.666534 1_555
O42 Ta0 2.030546 1_645
O43 Si7 1.644031 1_555
O43 Ta0 2.007220 1_545
O44 Si8 1.641542 1_555
O44 Ta0 1.996281 1_655
O45 Si9 1.666543 1_555
O45 Ta1 2.030546 1_665
O46 Si10 1.641537 1_555
O46 Ta1 1.996281 1_655
O47 Si11 1.644027 1_555
O47 Ta1 2.007220 1_555
O48 Si5 1.646630 1_555
O49 Si3 1.630899 1_555
O50 Si4 1.629638 1_555
O51 Si1 1.646639 1_555
O52 Si2 1.629632 1_555
O53 Si0 1.630895 1_555
O54 Si12 1.662730 1_555
O54 Ta2 2.042219 1_555
O55 Si13 1.644949 1_655
O55 Ta2 1.997616 1_555
O56 Si14 1.646461 1_545
O56 Ta2 1.995452 1_555
O57 Si15 1.662713 1_545
O57 Ta3 2.042219 1_555
O58 Si16 1.646472 1_555
O58 Ta3 1.995452 1_555
O59 Si17 1.644957 1_655
O59 Ta3 1.997616 1_555
O60 Si11 1.630995 1_555
O61 Si9 1.631876 1_455
O62 Si10 1.640961 1_565
O63 Si7 1.630977 1_565
O64 Si8 1.640972 1_555
O65 Si6 1.631882 1_455
O66 Si0 1.643618 1_565
O66 Ta4 1.996064 1_555
O67 Si1 1.646037 1_555
O67 Ta4 1.997001 1_555
O68 Si2 1.662956 1_455
O68 Ta4 2.040833 1_555
O69 Si3 1.643627 1_555
O69 Ta5 1.996064 1_555
O70 Si4 1.662951 1_455
O70 Ta5 2.040833 1_555
O71 Si5 1.646033 1_565
O71 Ta5 1.997001 1_555
