# generated using pymatgen
data_Sr2FeN2
_symmetry_space_group_name_H-M   'P 1'
_cell_length_a   6.55185400
_cell_length_b   8.66721323
_cell_length_c   8.89040557
_cell_angle_alpha   90.12804467
_cell_angle_beta   109.55065267
_cell_angle_gamma   102.25496445
_symmetry_Int_Tables_number   1
_chemical_formula_structural   Sr2FeN2
_chemical_formula_sum   'Sr10 Fe5 N10'
_cell_volume   463.43181777
_cell_formula_units_Z   5
loop_
 _symmetry_equiv_pos_site_id
 _symmetry_equiv_pos_as_xyz
  1  'x, y, z'
loop_
 _atom_site_type_symbol
 _atom_site_label
 _atom_site_symmetry_multiplicity
 _atom_site_fract_x
 _atom_site_fract_y
 _atom_site_fract_z
 _atom_site_occupancy
  Sr  Sr0  1  0.10933500  0.84915200  0.18009700  1
  Sr  Sr1  1  0.89066500  0.15084800  0.81990300  1
  Sr  Sr2  1  0.23069700  0.56542300  0.93512800  1
  Sr  Sr3  1  0.85615100  0.13549400  0.35693600  1
  Sr  Sr4  1  0.14384900  0.86450600  0.64306400  1
  Sr  Sr5  1  0.63057100  0.70212400  0.73260200  1
  Sr  Sr6  1  0.36942900  0.29787600  0.26739800  1
  Sr  Sr7  1  0.61752700  0.69790100  0.33219500  1
  Sr  Sr8  1  0.38247300  0.30209900  0.66780500  1
  Sr  Sr9  1  0.76930300  0.43457700  0.06487200  1
  Fe  Fe0  1  0.50000000  0.00000000  0.50000000  1
  Fe  Fe1  1  0.89952400  0.47040600  0.59212100  1
  Fe  Fe2  1  0.41391200  0.10721700  0.97939600  1
  Fe  Fe3  1  0.58608800  0.89278300  0.02060400  1
  Fe  Fe4  1  0.10047600  0.52959400  0.40787900  1
  N  N0  1  0.76181300  0.93102200  0.56878900  1
  N  N1  1  0.67904000  0.71365600  0.04453100  1
  N  N2  1  0.32096000  0.28634400  0.95546900  1
  N  N3  1  0.29371800  0.89364100  0.95916400  1
  N  N4  1  0.70628200  0.10635900  0.04083600  1
  N  N5  1  0.23818700  0.06897800  0.43121100  1
  N  N6  1  0.80234500  0.44357600  0.76134900  1
  N  N7  1  0.19765500  0.55642400  0.23865100  1
  N  N8  1  0.79993100  0.44038800  0.36839800  1
  N  N9  1  0.20006900  0.55961200  0.63160200  1
loop_
_geom_bond_atom_site_label_1
_geom_bond_atom_site_label_2
_geom_bond_distance
_geom_bond_site_symmetry_2
Fe0 N0 1.846287 1_545
Fe0 N5 1.846287 1_555
Fe1 N6 1.817369 1_555
Fe1 N9 1.867707 1_655
Fe1 N8 1.872574 1_555
Fe2 N2 1.772754 1_555
Fe2 N4 1.809305 1_556
Fe2 N3 1.834112 1_545
Fe3 N1 1.772754 1_555
Fe3 N3 1.809305 1_554
Fe3 N4 1.834112 1_565
Fe4 N7 1.817369 1_555
Fe4 N8 1.867707 1_455
Fe4 N9 1.872574 1_555
N0 Sr4 2.557678 1_655
N0 Sr5 2.631183 1_555
N0 Sr7 2.690687 1_555
N0 Sr1 2.713598 1_565
N0 Sr3 2.720146 1_565
N1 Sr9 2.602089 1_555
N1 Sr0 2.663427 1_655
N1 Sr5 2.682763 1_554
N1 Sr7 2.718392 1_555
N1 Sr2 2.775877 1_554
N2 Sr2 2.602089 1_555
N2 Sr1 2.663427 1_455
N2 Sr6 2.682763 1_556
N2 Sr8 2.718392 1_555
N2 Sr9 2.775877 1_556
N3 Sr0 2.619124 1_556
N3 Sr4 2.640114 1_555
N3 Sr2 2.783569 1_555
N4 Sr1 2.619124 1_554
N4 Sr3 2.640114 1_555
N4 Sr9 2.783569 1_555
N5 Sr3 2.557678 1_455
N5 Sr6 2.631183 1_555
N5 Sr8 2.690687 1_555
N5 Sr0 2.713598 1_545
N5 Sr4 2.720146 1_545
N6 Sr8 2.606748 1_555
N6 Sr2 2.685360 1_655
N6 Sr5 2.689650 1_555
N6 Sr1 2.733213 1_555
N6 Sr9 2.778361 1_556
N7 Sr7 2.606748 1_555
N7 Sr9 2.685360 1_455
N7 Sr6 2.689650 1_555
N7 Sr0 2.733213 1_555
N7 Sr2 2.778361 1_554
N8 Sr9 2.637656 1_555
N8 Sr6 2.666197 1_555
N8 Sr7 2.718715 1_555
N8 Sr3 2.750716 1_555
N9 Sr2 2.637656 1_555
N9 Sr5 2.666197 1_555
N9 Sr8 2.718715 1_555
N9 Sr4 2.750716 1_555
