# generated using pymatgen
data_Rb3Mo2Cl9
_symmetry_space_group_name_H-M   'P 1'
_cell_length_a   7.16768358
_cell_length_b   7.16768929
_cell_length_c   17.51448908
_cell_angle_alpha   90.00006024
_cell_angle_beta   89.99984991
_cell_angle_gamma   120.00011181
_symmetry_Int_Tables_number   1
_chemical_formula_structural   Rb3Mo2Cl9
_chemical_formula_sum   'Rb6 Mo4 Cl18'
_cell_volume   779.26579017
_cell_formula_units_Z   2
loop_
 _symmetry_equiv_pos_site_id
 _symmetry_equiv_pos_as_xyz
  1  'x, y, z'
loop_
 _atom_site_type_symbol
 _atom_site_label
 _atom_site_symmetry_multiplicity
 _atom_site_fract_x
 _atom_site_fract_y
 _atom_site_fract_z
 _atom_site_occupancy
  Rb  Rb0  1  0.00000054  0.00000009  0.25006243  1
  Rb  Rb1  1  -0.00000049  0.00000016  0.74993796  1
  Rb  Rb2  1  0.33333332  0.66666686  0.06819983  1
  Rb  Rb3  1  0.66666670  0.33333368  0.56815359  1
  Rb  Rb4  1  0.33333335  0.66666539  0.43182812  1
  Rb  Rb5  1  0.66666604  0.33333175  0.93181578  1
  Mo  Mo0  1  0.33333445  0.66666706  0.82854247  1
  Mo  Mo1  1  0.66666847  0.33333613  0.32864628  1
  Mo  Mo2  1  0.66666564  0.33333394  0.17147767  1
  Mo  Mo3  1  0.33333233  0.66666647  0.67137447  1
  Cl  Cl0  1  0.82564012  0.17441642  0.40685085  1
  Cl  Cl1  1  0.82558277  0.65122165  0.40685039  1
  Cl  Cl2  1  0.34877774  0.17436061  0.40685050  1
  Cl  Cl3  1  0.65114300  0.82553350  0.90674728  1
  Cl  Cl4  1  0.17434952  0.34877384  0.59315400  1
  Cl  Cl5  1  0.17446549  0.82560999  0.90674801  1
  Cl  Cl6  1  0.17438971  0.34885621  0.90674742  1
  Cl  Cl7  1  0.82561035  0.17445277  0.09324334  1
  Cl  Cl8  1  0.34884439  0.17439080  0.09324355  1
  Cl  Cl9  1  0.65122595  0.82557615  0.59315445  1
  Cl  Cl10  1  0.50009374  0.00008374  0.25003791  1
  Cl  Cl11  1  0.49990041  0.50001526  0.74995294  1
  Cl  Cl12  1  0.00011404  0.50009962  0.74995248  1
  Cl  Cl13  1  -0.00008504  0.50000854  0.25003833  1
  Cl  Cl14  1  0.49999105  0.49990600  0.25003790  1
  Cl  Cl15  1  0.49998486  -0.00011438  0.74995279  1
  Cl  Cl16  1  0.82554694  0.65115604  0.09324360  1
  Cl  Cl17  1  0.17442361  0.82565070  0.59315367  1
loop_
_geom_bond_atom_site_label_1
_geom_bond_atom_site_label_2
_geom_bond_distance
_geom_bond_site_symmetry_2
Cl0 Mo1 2.402074 1_555
Cl0 Rb3 3.446038 1_555
Cl0 Rb0 3.496868 1_655
Cl0 Rb4 3.611506 1_655
Cl0 Rb4 3.611916 1_545
Cl1 Mo1 2.402035 1_555
Cl1 Rb3 3.446037 1_555
Cl1 Rb0 3.496869 1_665
Cl1 Rb4 3.611511 1_555
Cl1 Rb4 3.611921 1_655
Cl2 Mo1 2.402058 1_555
Cl2 Rb3 3.446042 1_555
Cl2 Rb0 3.496870 1_555
Cl2 Rb4 3.611527 1_545
Cl2 Rb4 3.611910 1_555
Cl3 Mo0 2.401651 1_555
Cl3 Rb2 3.447899 1_556
Cl3 Rb1 3.497458 1_665
Cl3 Rb5 3.611664 1_555
Cl3 Rb5 3.612186 1_565
Cl4 Mo3 2.402235 1_555
Cl4 Rb4 3.446375 1_555
Cl4 Rb1 3.496796 1_555
Cl4 Rb3 3.611500 1_455
Cl4 Rb3 3.612028 1_555
Cl5 Mo0 2.401673 1_555
Cl5 Rb2 3.447903 1_556
Cl5 Rb1 3.497478 1_565
Cl5 Rb5 3.611640 1_565
Cl5 Rb5 3.612191 1_455
Cl6 Mo0 2.401662 1_555
Cl6 Rb2 3.447906 1_556
Cl6 Rb1 3.497464 1_555
Cl6 Rb5 3.611647 1_455
Cl6 Rb5 3.612198 1_555
Cl7 Mo2 2.402032 1_555
Cl7 Rb5 3.447598 1_554
Cl7 Rb0 3.497551 1_655
Cl7 Rb2 3.611638 1_655
Cl7 Rb2 3.612087 1_545
Cl8 Mo2 2.402008 1_555
Cl8 Rb5 3.447586 1_554
Cl8 Rb0 3.497541 1_555
Cl8 Rb2 3.611645 1_545
Cl8 Rb2 3.612096 1_555
Cl9 Mo3 2.402231 1_555
Cl9 Rb4 3.446389 1_555
Cl9 Rb1 3.496793 1_665
Cl9 Rb3 3.611503 1_555
Cl9 Rb3 3.612032 1_565
Cl10 Mo2 2.484429 1_555
Cl10 Mo1 2.484908 1_555
Cl10 Rb0 3.583474 1_655
Cl10 Rb0 3.584210 1_555
Cl10 Rb4 3.797513 1_545
Cl10 Rb2 3.798212 1_545
Cl11 Mo3 2.484451 1_555
Cl11 Mo0 2.484545 1_555
Cl11 Rb1 3.583536 1_555
Cl11 Rb1 3.584138 1_665
Cl11 Rb3 3.797745 1_555
Cl11 Rb5 3.798689 1_555
Cl12 Mo3 2.484432 1_555
Cl12 Mo0 2.484565 1_555
Cl12 Rb1 3.583542 1_565
Cl12 Rb1 3.584147 1_555
Cl12 Rb3 3.797742 1_455
Cl12 Rb5 3.798682 1_455
Cl13 Mo2 2.484430 1_455
Cl13 Mo1 2.484868 1_455
Cl13 Rb0 3.583477 1_565
Cl13 Rb0 3.584212 1_555
Cl13 Rb4 3.797511 1_555
Cl13 Rb2 3.798217 1_555
Cl14 Mo2 2.484410 1_555
Cl14 Mo1 2.484886 1_555
Cl14 Rb0 3.583466 1_555
Cl14 Rb0 3.584208 1_665
Cl14 Rb4 3.797507 1_555
Cl14 Rb2 3.798222 1_555
Cl15 Mo3 2.484444 1_545
Cl15 Mo0 2.484551 1_545
Cl15 Rb1 3.583536 1_655
Cl15 Rb1 3.584147 1_555
Cl15 Rb3 3.797745 1_555
Cl15 Rb5 3.798677 1_555
Cl16 Mo2 2.402010 1_555
Cl16 Rb5 3.447601 1_554
Cl16 Rb0 3.497547 1_665
Cl16 Rb2 3.611649 1_555
Cl16 Rb2 3.612086 1_655
Cl17 Mo3 2.402244 1_555
Cl17 Rb4 3.446381 1_555
Cl17 Rb1 3.496799 1_565
Cl17 Rb3 3.611495 1_565
Cl17 Rb3 3.612022 1_455
