# generated using pymatgen
data_Na14Hf2Zn6Si5S7O48
_symmetry_space_group_name_H-M   'P 1'
_cell_length_a   18.34899631
_cell_length_b   9.17476988
_cell_length_c   22.40462297
_cell_angle_alpha   90.06659391
_cell_angle_beta   89.99428652
_cell_angle_gamma   120.14150873
_symmetry_Int_Tables_number   1
_chemical_formula_structural   Na14Hf2Zn6Si5S7O48
_chemical_formula_sum   'Na42 Hf6 Zn18 Si15 S21 O144'
_cell_volume   3261.77770706
_cell_formula_units_Z   3
loop_
 _symmetry_equiv_pos_site_id
 _symmetry_equiv_pos_as_xyz
  1  'x, y, z'
loop_
 _atom_site_type_symbol
 _atom_site_label
 _atom_site_symmetry_multiplicity
 _atom_site_fract_x
 _atom_site_fract_y
 _atom_site_fract_z
 _atom_site_occupancy
  Na  Na0  1  0.81198942  0.00456792  0.25065109  1
  Na  Na1  1  0.68940533  0.35908024  0.24600451  1
  Na  Na2  1  0.50332789  0.64003461  0.24663099  1
  Na  Na3  1  0.31021677  0.61856844  0.75139761  1
  Na  Na4  1  0.00338082  0.37268505  0.74579031  1
  Na  Na5  1  0.17966697  0.00090344  0.74446635  1
  Na  Na6  1  0.15364523  0.33155544  0.57551299  1
  Na  Na7  1  0.66613852  0.35959514  0.58191113  1
  Na  Na8  1  0.01489559  0.69432661  0.57395988  1
  Na  Na9  1  0.52328029  0.68644887  0.58640241  1
  Na  Na10  1  0.32423145  0.98094209  0.58246453  1
  Na  Na11  1  0.82441444  0.95839443  0.58651606  1
  Na  Na12  1  0.16034939  0.96464915  0.07623291  1
  Na  Na13  1  0.65816442  0.98180975  0.07058477  1
  Na  Na14  1  0.32084810  0.68971171  0.08142707  1
  Na  Na15  1  0.82647088  0.67011584  0.07743164  1
  Na  Na16  1  0.02239159  0.36031458  0.08216578  1
  Na  Na17  1  0.51425215  0.33344538  0.06814087  1
  Na  Na18  1  0.48603511  0.66673760  0.91905445  1
  Na  Na19  1  0.97935285  0.66096881  0.91355808  1
  Na  Na20  1  0.35351118  0.04423059  0.92257071  1
  Na  Na21  1  0.84860752  0.04297284  0.91244735  1
  Na  Na22  1  0.16750228  0.29374139  0.91463259  1
  Na  Na23  1  0.66293256  0.28949718  0.92578695  1
  Na  Na24  1  0.48014776  0.30450899  0.42658766  1
  Na  Na25  1  0.98692664  0.30740090  0.42320733  1
  Na  Na26  1  0.16049727  0.03240040  0.42938981  1
  Na  Na27  1  0.67157915  0.04654421  0.42109453  1
  Na  Na28  1  0.34516025  0.65268617  0.41878937  1
  Na  Na29  1  0.85459019  0.66202817  0.42550018  1
  Na  Na30  1  0.00345847  0.98646471  0.49802191  1
  Na  Na31  1  0.50730024  0.01494162  0.50011706  1
  Na  Na32  1  0.00604089  0.99920357  0.99399569  1
  Na  Na33  1  0.50327371  0.01874047  0.99268287  1
  Na  Na34  1  0.33727094  0.33178312  0.83065446  1
  Na  Na35  1  0.82894664  0.33454624  0.82602881  1
  Na  Na36  1  0.31933945  0.32307469  0.33250834  1
  Na  Na37  1  0.84015790  0.34399929  0.33246626  1
  Na  Na38  1  0.16719656  0.67078172  0.15609423  1
  Na  Na39  1  0.66802269  0.66241475  0.16329438  1
  Na  Na40  1  0.16072007  0.67250447  0.66864398  1
  Na  Na41  1  0.67048262  0.66687374  0.65800815  1
  Hf  Hf0  1  0.00370429  0.98979505  0.65121177  1
  Hf  Hf1  1  0.50652001  0.01719941  0.64673193  1
  Hf  Hf2  1  0.00612807  0.99613947  0.14652934  1
  Hf  Hf3  1  0.50296635  0.00572395  0.14860535  1
  Hf  Hf4  1  0.16183948  0.65194488  0.31703437  1
  Hf  Hf5  1  0.66275319  0.67236537  0.81743760  1
  Zn  Zn0  1  0.00898879  0.00447266  0.35674754  1
  Zn  Zn1  1  0.50725062  0.00595275  0.33970299  1
  Zn  Zn2  1  0.00954214  0.99115717  0.82843397  1
  Zn  Zn3  1  0.50815496  0.01281284  0.85596480  1
  Zn  Zn4  1  0.32695712  0.31109796  0.67796146  1
  Zn  Zn5  1  0.83054663  0.34941259  0.67960683  1
  Zn  Zn6  1  0.31541875  0.30605316  0.16877581  1
  Zn  Zn7  1  0.82811283  0.34174464  0.17647927  1
  Zn  Zn8  1  0.33190853  0.31153133  0.98856219  1
  Zn  Zn9  1  0.82442225  0.33461197  0.98847557  1
  Zn  Zn10  1  0.32427026  0.31690479  0.49142186  1
  Zn  Zn11  1  0.83424103  0.35196456  0.49363961  1
  Zn  Zn12  1  0.16546952  0.66714549  0.02293536  1
  Zn  Zn13  1  0.65842713  0.64920882  0.00811239  1
  Zn  Zn14  1  0.15596131  0.66410165  0.51060721  1
  Zn  Zn15  1  0.66630543  0.66903057  0.52563894  1
  Zn  Zn16  1  0.66596120  0.68063536  0.31699273  1
  Zn  Zn17  1  0.15711562  0.65054664  0.81067119  1
  Si  Si0  1  0.65274700  0.00167785  0.25178377  1
  Si  Si1  1  0.15380067  0.30163417  0.75082274  1
  Si  Si2  1  0.99416896  0.68487937  0.75409797  1
  Si  Si3  1  0.47540572  0.33467894  0.58135684  1
  Si  Si4  1  0.18247519  0.02237501  0.58309704  1
  Si  Si5  1  0.69182255  0.04941324  0.58183629  1
  Si  Si6  1  0.83493479  0.63796530  0.58174658  1
  Si  Si7  1  0.97535304  0.61594930  0.08137919  1
  Si  Si8  1  0.33514481  0.03460030  0.08314000  1
  Si  Si9  1  0.18835010  0.33737424  0.07997599  1
  Si  Si10  1  0.68351666  0.34381506  0.08474912  1
  Si  Si11  1  0.51254958  0.36504735  0.91760631  1
  Si  Si12  1  0.66975406  0.96759688  0.92219709  1
  Si  Si13  1  0.16978929  0.37268515  0.42186318  1
  Si  Si14  1  0.01247415  0.66026745  0.41745224  1
  S  S0  1  0.15047540  -0.00062827  0.25240934  1
  S  S1  1  0.35157801  0.70303340  0.25221150  1
  S  S2  1  0.85418623  0.71124495  0.25322864  1
  S  S3  1  0.00107871  0.29079049  0.25179941  1
  S  S4  1  0.49825313  0.29628348  0.25287899  1
  S  S5  1  0.64883169  0.30112876  0.75306010  1
  S  S6  1  0.50146738  0.71173094  0.75181582  1
  S  S7  1  0.35633121  0.00022846  0.75330862  1
  S  S8  1  0.85045976  0.99456666  0.75209973  1
  S  S9  1  0.98187952  0.32890018  0.58476027  1
  S  S10  1  0.33616516  0.63638031  0.58503370  1
  S  S11  1  0.48088734  0.63067186  0.08748393  1
  S  S12  1  0.83565258  0.03512372  0.08633614  1
  S  S13  1  0.31227598  0.66679981  0.91536239  1
  S  S14  1  0.81502686  0.67407667  0.91624997  1
  S  S15  1  0.01791051  0.36606365  0.91779464  1
  S  S16  1  0.16572584  0.95669622  0.91578085  1
  S  S17  1  0.31795441  0.95955015  0.41308289  1
  S  S18  1  0.81345661  0.96063441  0.41503969  1
  S  S19  1  0.66236169  0.37407415  0.41233188  1
  S  S20  1  0.51817847  0.66987187  0.41512314  1
  O  O0  1  0.10750083  0.01202590  0.30596366  1
  O  O1  1  0.61242603  0.03503132  0.31207763  1
  O  O2  1  0.40089637  0.78911391  0.30719451  1
  O  O3  1  0.90182253  0.80170390  0.30670833  1
  O  O4  1  0.48639666  0.19672514  0.30800858  1
  O  O5  1  0.99405945  0.19119860  0.30566582  1
  O  O6  1  0.11289375  0.19312269  0.81237185  1
  O  O7  1  0.60504659  0.20283387  0.80662753  1
  O  O8  1  0.49433015  0.79713131  0.80585280  1
  O  O9  1  0.97956663  0.76255155  0.81580397  1
  O  O10  1  0.40489575  0.00840531  0.80669885  1
  O  O11  1  0.90071993  0.01109634  0.80699809  1
  O  O12  1  0.40096153  0.98410601  0.69833296  1
  O  O13  1  0.89394988  0.97895037  0.69803910  1
  O  O14  1  0.08834037  0.20130763  0.69445851  1
  O  O15  1  0.59488514  0.21350244  0.69803069  1
  O  O16  1  0.00755951  0.81717313  0.69823161  1
  O  O17  1  0.51051294  0.81513358  0.69694448  1
  O  O18  1  0.39540439  0.80760667  0.19843380  1
  O  O19  1  0.89813254  0.81650429  0.19847167  1
  O  O20  1  0.00970803  0.20519436  0.19694883  1
  O  O21  1  0.50491411  0.20012221  0.20035328  1
  O  O22  1  0.09754403  0.98143246  0.19748114  1
  O  O23  1  0.58674609  0.97249812  0.19562858  1
  O  O24  1  0.43258870  0.37745204  0.63648729  1
  O  O25  1  0.94139294  0.34898431  0.63824423  1
  O  O26  1  0.23953478  0.09994162  0.64277667  1
  O  O27  1  0.75420463  0.13470859  0.63753441  1
  O  O28  1  0.32399909  0.53348603  0.63849161  1
  O  O29  1  0.81283854  0.51029879  0.63647154  1
  O  O30  1  0.44050905  0.53200800  0.14181393  1
  O  O31  1  0.93424667  0.48954753  0.13756451  1
  O  O32  1  0.32083210  0.11983440  0.14177403  1
  O  O33  1  0.82333163  0.11223316  0.14029159  1
  O  O34  1  0.24867165  0.38966543  0.13841621  1
  O  O35  1  0.73817066  0.37590343  0.14554874  1
  O  O36  1  0.22456901  0.28710933  0.02149740  1
  O  O37  1  0.71825736  0.29011572  0.02654434  1
  O  O38  1  0.43165834  0.55521576  0.03275291  1
  O  O39  1  0.91802296  0.55115188  0.02037000  1
  O  O40  1  0.36249723  0.15359026  0.02355933  1
  O  O41  1  0.85247941  0.13869113  0.03229060  1
  O  O42  1  0.21845130  0.14242352  0.52390001  1
  O  O43  1  0.72348847  0.15992190  0.51946118  1
  O  O44  1  0.35345195  0.56723132  0.53046741  1
  O  O45  1  0.86118836  0.57449977  0.52085303  1
  O  O46  1  0.41965755  0.28866906  0.51929397  1
  O  O47  1  0.93313344  0.30825050  0.52920536  1
  O  O48  1  0.27324315  0.69024708  0.96999002  1
  O  O49  1  0.77597044  0.68809126  0.97257300  1
  O  O50  1  0.07045514  0.44895665  0.97132257  1
  O  O51  1  0.56961828  0.43701143  0.97758332  1
  O  O52  1  0.15965932  0.86077859  0.97086458  1
  O  O53  1  0.65642722  0.85274673  0.98151221  1
  O  O54  1  0.28202675  0.86602703  0.46920125  1
  O  O55  1  0.77094965  0.85344598  0.46750448  1
  O  O56  1  0.15843144  0.46354107  0.48091311  1
  O  O57  1  0.65549703  0.45809297  0.46660941  1
  O  O58  1  0.07027819  0.70457431  0.47700038  1
  O  O59  1  0.57148885  0.69246881  0.46782089  1
  O  O60  1  0.07005098  0.64265525  0.36162749  1
  O  O61  1  0.55722792  0.64967921  0.35934367  1
  O  O62  1  0.26138036  0.86328628  0.36140057  1
  O  O63  1  0.76396247  0.88161826  0.35905430  1
  O  O64  1  0.18229584  0.49945039  0.36351780  1
  O  O65  1  0.66857084  0.47257934  0.35726044  1
  O  O66  1  0.05860604  0.46519686  0.86281358  1
  O  O67  1  0.57009474  0.49802691  0.86249492  1
  O  O68  1  0.17235224  0.87067523  0.86168880  1
  O  O69  1  0.68214484  0.86501375  0.86440176  1
  O  O70  1  0.26138801  0.64971359  0.86124526  1
  O  O71  1  0.75934338  0.65801719  0.86418166  1
  O  O72  1  0.00086882  0.82523363  0.40946214  1
  O  O73  1  0.50776465  0.82294083  0.41249879  1
  O  O74  1  0.40329773  0.97638092  0.40659335  1
  O  O75  1  0.89928606  0.98057712  0.41151810  1
  O  O76  1  0.08305960  0.18935229  0.41442508  1
  O  O77  1  0.58291835  0.20166381  0.41166881  1
  O  O78  1  0.00676376  0.19252142  0.91480255  1
  O  O79  1  0.50058577  0.17641089  0.91006470  1
  O  O80  1  0.08842358  0.97391880  0.91543509  1
  O  O81  1  0.58319531  0.97814875  0.91451853  1
  O  O82  1  0.39922945  0.81821290  0.91180402  1
  O  O83  1  0.89864903  0.82925136  0.91211294  1
  O  O84  1  0.48321685  0.15824125  0.59237111  1
  O  O85  1  0.98854118  0.17121710  0.58862029  1
  O  O86  1  0.08817622  0.00800576  0.58984845  1
  O  O87  1  0.59355722  0.02775824  0.59224429  1
  O  O88  1  0.41577189  0.81104666  0.59242656  1
  O  O89  1  0.91671818  0.83221360  0.59102173  1
  O  O90  1  0.48725248  0.80409943  0.09121697  1
  O  O91  1  0.98372754  0.80860610  0.09346277  1
  O  O92  1  0.41663834  0.00278865  0.09297054  1
  O  O93  1  0.91478608  0.01868643  0.09368629  1
  O  O94  1  0.09228846  0.16066727  0.09193706  1
  O  O95  1  0.58752527  0.17044861  0.09282154  1
  O  O96  1  0.34768452  0.15145176  0.75011622  1
  O  O97  1  0.84166103  0.14459270  0.74864643  1
  O  O98  1  0.24776057  0.31938701  0.74426973  1
  O  O99  1  0.73067321  0.31406549  0.74827328  1
  O  O100  1  0.42566024  0.54422338  0.74768100  1
  O  O101  1  0.91717363  0.49173462  0.74507244  1
  O  O102  1  0.34718988  0.53790512  0.24894744  1
  O  O103  1  0.84584504  0.54248009  0.25046586  1
  O  O104  1  0.42844484  0.33021251  0.24710587  1
  O  O105  1  0.92559352  0.30721111  0.24795347  1
  O  O106  1  0.23390511  0.15204763  0.24763744  1
  O  O107  1  0.74723982  0.16849010  0.24441083  1
  O  O108  1  0.32007549  0.51240105  0.91873737  1
  O  O109  1  0.82164904  0.51922250  0.91426772  1
  O  O110  1  0.42236637  0.36360248  0.91802770  1
  O  O111  1  0.93322765  0.35168374  0.92134670  1
  O  O112  1  0.24272584  0.12884323  0.91623699  1
  O  O113  1  0.75575362  0.15519551  0.92188372  1
  O  O114  1  0.32497369  0.12777683  0.41187504  1
  O  O115  1  0.82144173  0.13009654  0.41902174  1
  O  O116  1  0.25567890  0.35676683  0.42109976  1
  O  O117  1  0.73779477  0.35377747  0.41276148  1
  O  O118  1  0.43321365  0.51592238  0.41908906  1
  O  O119  1  0.92234493  0.48149625  0.41769877  1
  O  O120  1  0.16875942  0.49137621  0.07450965  1
  O  O121  1  0.67323688  0.51100977  0.07819926  1
  O  O122  1  0.07294995  0.65921629  0.07639735  1
  O  O123  1  0.56767316  0.65907088  0.08459041  1
  O  O124  1  0.25109600  0.84859809  0.07727030  1
  O  O125  1  0.76258879  0.86313769  0.08059904  1
  O  O126  1  0.17302729  0.83450016  0.57702187  1
  O  O127  1  0.67080326  0.85365679  0.57701452  1
  O  O128  1  0.26351845  0.66234772  0.57906733  1
  O  O129  1  0.75176790  0.65959348  0.57575029  1
  O  O130  1  0.06853662  0.47805553  0.58189255  1
  O  O131  1  0.57307978  0.48798325  0.57629325  1
  O  O132  1  0.15767567  0.84344624  0.25378115  1
  O  O133  1  0.65703903  0.82478701  0.25303055  1
  O  O134  1  0.26630096  0.68630283  0.25397151  1
  O  O135  1  0.76786143  0.69233628  0.25233755  1
  O  O136  1  0.07993732  0.46240369  0.25365900  1
  O  O137  1  0.58063116  0.45999590  0.25312587  1
  O  O138  1  0.16270234  0.48916166  0.75217611  1
  O  O139  1  0.65576978  0.47156802  0.75442248  1
  O  O140  1  0.08627840  0.69139017  0.75337179  1
  O  O141  1  0.58001498  0.69801148  0.75404685  1
  O  O142  1  0.27151410  0.84517795  0.75249299  1
  O  O143  1  0.76555549  0.83566706  0.75455636  1
loop_
_geom_bond_atom_site_label_1
_geom_bond_atom_site_label_2
_geom_bond_distance
_geom_bond_site_symmetry_2
Na0 O107 2.342638 1_555
Na0 O133 2.469344 1_545
Na0 O105 2.499283 1_555
Na0 O135 2.556188 1_545
Na0 O33 2.632822 1_555
Na0 O63 2.637313 1_545
Na1 O35 2.398274 1_555
Na1 O107 2.459376 1_555
Na1 O103 2.496015 1_555
Na1 O137 2.592636 1_555
Na1 O135 2.649481 1_555
Na1 O65 2.799530 1_555
Na2 O104 2.458815 1_555
Na2 O133 2.459055 1_555
Na2 O102 2.528411 1_555
Na2 O30 2.583348 1_555
Na2 O137 2.667440 1_555
Na2 O61 2.697245 1_555
Na2 O23 2.876057 1_555
Na3 O138 2.347132 1_555
Na3 O98 2.390250 1_555
Na3 O142 2.512012 1_555
Na3 O100 2.531827 1_555
Na3 O70 2.682615 1_555
Na3 O28 2.695516 1_555
Na4 O101 2.330362 1_455
Na4 O140 2.534711 1_555
Na4 O138 2.563394 1_555
Na4 O25 2.626361 1_455
Na4 O97 2.636812 1_455
Na4 O66 2.784422 1_555
Na4 O14 2.946568 1_555
Na5 O140 2.480829 1_545
Na5 O26 2.494995 1_555
Na5 O98 2.536300 1_555
Na5 O96 2.674251 1_555
Na5 O142 2.707899 1_545
Na5 O68 2.861704 1_545
Na5 O16 2.921980 1_545
Na5 O6 3.014859 1_555
Na6 O56 2.421855 1_555
Na6 O130 2.524546 1_555
Na6 O86 2.603667 1_555
Na6 O85 2.636910 1_455
Na6 O128 2.671406 1_555
Na6 O42 2.798139 1_555
Na6 O14 2.921376 1_555
Na7 O129 2.391919 1_555
Na7 O131 2.517813 1_555
Na7 O29 2.628836 1_555
Na7 O87 2.650656 1_555
Na7 O57 2.776855 1_555
Na7 O43 2.889789 1_555
Na7 O84 2.916692 1_555
Na7 O15 2.919222 1_555
Na8 O58 2.380059 1_555
Na8 O86 2.515685 1_565
Na8 O126 2.515949 1_555
Na8 O130 2.626739 1_555
Na8 O89 2.698013 1_455
Na8 O45 2.731770 1_455
Na9 O127 2.356954 1_555
Na9 O131 2.423188 1_555
Na9 O24 2.708259 1_555
Na9 O87 2.725739 1_565
Na9 O88 2.735097 1_555
Na9 O59 2.791914 1_555
Na9 O17 2.802408 1_555
Na10 O126 2.402849 1_555
Na10 O84 2.537549 1_565
Na10 O128 2.553469 1_555
Na10 O26 2.670829 1_565
Na10 O54 2.706479 1_555
Na10 O88 2.816221 1_555
Na10 O46 2.843286 1_565
Na10 O12 2.946480 1_555
Na11 O129 2.383083 1_555
Na11 O89 2.487649 1_555
Na11 O127 2.488541 1_555
Na11 O85 2.641717 1_565
Na11 O13 2.768491 1_555
Na11 O27 2.769707 1_565
Na11 O55 2.836405 1_555
Na12 O124 2.384818 1_555
Na12 O122 2.431341 1_555
Na12 O52 2.542457 1_554
Na12 O94 2.678010 1_565
Na12 O91 2.836036 1_455
Na12 O36 2.855204 1_565
Na12 O32 2.939411 1_565
Na12 O22 2.984606 1_555
Na13 O53 2.311351 1_554
Na13 O123 2.586069 1_555
Na13 O125 2.646309 1_555
Na13 O37 2.657924 1_565
Na13 O95 2.678499 1_565
Na13 O90 2.751972 1_555
Na14 O124 2.376099 1_555
Na14 O120 2.454121 1_555
Na14 O92 2.516952 1_565
Na14 O48 2.646005 1_554
Na14 O90 2.693316 1_555
Na14 O34 2.703496 1_555
Na14 O18 2.902029 1_555
Na15 O121 2.432058 1_555
Na15 O91 2.527192 1_555
Na15 O49 2.561240 1_554
Na15 O125 2.568973 1_555
Na15 O39 2.735956 1_555
Na15 O93 2.789088 1_565
Na15 O35 2.803119 1_555
Na16 O120 2.333552 1_555
Na16 O122 2.417371 1_555
Na16 O50 2.624961 1_554
Na16 O94 2.721819 1_555
Na16 O31 2.735753 1_455
Na16 O93 2.752449 1_455
Na16 O20 2.892902 1_555
Na16 O41 2.955035 1_455
Na17 O51 2.255226 1_554
Na17 O95 2.524104 1_555
Na17 O121 2.537993 1_555
Na17 O40 2.618497 1_555
Na17 O123 2.660563 1_555
Na17 O92 2.695865 1_555
Na18 O110 2.416033 1_555
Na18 O81 2.497408 1_555
Na18 O82 2.591993 1_555
Na18 O108 2.635879 1_555
Na18 O38 2.740772 1_556
Na18 O8 2.776869 1_555
Na19 O9 2.380428 1_555
Na19 O109 2.507146 1_555
Na19 O111 2.527465 1_555
Na19 O80 2.545586 1_655
Na19 O83 2.621822 1_555
Na19 O39 2.621977 1_556
Na20 O79 2.354982 1_555
Na20 O40 2.445805 1_556
Na20 O112 2.517972 1_555
Na20 O110 2.544654 1_555
Na20 O82 2.609172 1_545
Na20 O10 2.836428 1_555
Na21 O113 2.401837 1_555
Na21 O111 2.460692 1_555
Na21 O78 2.511592 1_655
Na21 O83 2.548767 1_545
Na21 O11 2.619219 1_555
Na21 O41 2.813827 1_556
Na21 O69 2.853461 1_545
Na22 O6 2.484354 1_555
Na22 O108 2.495983 1_555
Na22 O112 2.508509 1_555
Na22 O80 2.537732 1_545
Na22 O78 2.609719 1_555
Na22 O36 2.626308 1_556
Na23 O37 2.474108 1_556
Na23 O81 2.483021 1_545
Na23 O113 2.556179 1_555
Na23 O109 2.612861 1_555
Na23 O79 2.640045 1_555
Na23 O7 2.834656 1_555
Na23 O51 2.904020 1_555
Na24 O46 2.324964 1_555
Na24 O114 2.491444 1_555
Na24 O118 2.492098 1_555
Na24 O77 2.518763 1_555
Na24 O74 2.643085 1_545
Na24 O4 2.856032 1_555
Na24 O57 2.930236 1_555
Na25 O119 2.423257 1_555
Na25 O76 2.498264 1_655
Na25 O47 2.573216 1_555
Na25 O75 2.607965 1_545
Na25 O115 2.629509 1_555
Na25 O5 2.867486 1_555
Na26 O42 2.356034 1_555
Na26 O76 2.502206 1_555
Na26 O116 2.592816 1_555
Na26 O72 2.607388 1_545
Na26 O114 2.715929 1_555
Na26 O58 2.816285 1_545
Na26 O0 2.905911 1_555
Na27 O43 2.417927 1_555
Na27 O117 2.453241 1_555
Na27 O115 2.456511 1_555
Na27 O1 2.653255 1_555
Na27 O77 2.653792 1_555
Na27 O73 2.662170 1_545
Na28 O116 2.364995 1_555
Na28 O118 2.494191 1_555
Na28 O73 2.584923 1_555
Na28 O74 2.617765 1_555
Na28 O44 2.650058 1_555
Na28 O2 2.754096 1_555
Na28 O64 2.866689 1_555
Na28 O54 2.953074 1_555
Na29 O45 2.307640 1_555
Na29 O72 2.353780 1_655
Na29 O119 2.527238 1_555
Na29 O117 2.565929 1_555
Na29 O75 2.628180 1_555
Na29 O3 2.892912 1_555
Na29 O55 3.004662 1_555
Na30 O72 2.459657 1_555
Na30 O86 2.525725 1_565
Na30 O76 2.526541 1_565
Na30 O89 2.573253 1_455
Na30 O75 2.703622 1_455
Na30 O85 2.743387 1_465
Na31 O77 2.531234 1_555
Na31 O87 2.567576 1_555
Na31 O84 2.602489 1_555
Na31 O73 2.638900 1_545
Na31 O88 2.729553 1_545
Na31 O74 2.734689 1_545
Na32 O80 2.405740 1_555
Na32 O78 2.505553 1_565
Na32 O83 2.566759 1_455
Na32 O94 2.674483 1_566
Na32 O91 2.735271 1_456
Na32 O93 2.850132 1_466
Na33 O79 2.366275 1_555
Na33 O81 2.429520 1_545
Na33 O82 2.603586 1_545
Na33 O95 2.682038 1_556
Na33 O92 2.713572 1_556
Na33 O90 2.875180 1_546
Na34 O110 2.428334 1_555
Na34 O98 2.503770 1_555
Na34 O96 2.518000 1_555
Na34 O100 2.591983 1_555
Na34 O112 2.629955 1_555
Na34 O108 2.693984 1_555
Na35 O101 2.377244 1_555
Na35 O99 2.445678 1_555
Na35 O97 2.549259 1_555
Na35 O113 2.629027 1_555
Na35 O109 2.648995 1_555
Na35 O111 2.818605 1_555
Na36 O116 2.400088 1_555
Na36 O106 2.461438 1_555
Na36 O114 2.564505 1_555
Na36 O102 2.578343 1_555
Na36 O118 2.745789 1_555
Na36 O104 2.746123 1_555
Na37 O119 2.365717 1_555
Na37 O103 2.553262 1_555
Na37 O107 2.574502 1_555
Na37 O105 2.585737 1_555
Na37 O117 2.634470 1_555
Na37 O115 2.657424 1_555
Na38 O124 2.373654 1_555
Na38 O122 2.450720 1_555
Na38 O120 2.468130 1_555
Na38 O132 2.756812 1_555
Na38 O134 2.806409 1_555
Na38 O136 2.816325 1_555
Na39 O121 2.387652 1_555
Na39 O123 2.538604 1_555
Na39 O133 2.568369 1_555
Na39 O125 2.575494 1_555
Na39 O135 2.627871 1_555
Na39 O137 2.662400 1_555
Na40 O140 2.394936 1_555
Na40 O126 2.478659 1_555
Na40 O138 2.530255 1_555
Na40 O130 2.604535 1_555
Na40 O142 2.632732 1_555
Na40 O128 2.787421 1_555
Na41 O129 2.392645 1_555
Na41 O127 2.495348 1_555
Na41 O131 2.507508 1_555
Na41 O143 2.720382 1_555
Na41 O139 2.733669 1_555
Na41 O141 2.818006 1_555
Hf0 O16 1.933781 1_555
Hf0 O86 2.015070 1_565
Hf0 O14 2.021333 1_565
Hf0 O89 2.033418 1_455
Hf0 O13 2.228212 1_455
Hf0 O85 2.298943 1_465
Hf1 O87 1.973510 1_555
Hf1 O84 1.974878 1_555
Hf1 O15 2.063133 1_555
Hf1 O12 2.142447 1_545
Hf1 O88 2.159299 1_545
Hf1 O17 2.202096 1_545
Hf2 O91 1.956530 1_455
Hf2 O94 1.970100 1_565
Hf2 O22 2.088789 1_555
Hf2 O93 2.145396 1_465
Hf2 O19 2.172897 1_455
Hf2 O20 2.197195 1_565
Hf3 O95 1.975486 1_555
Hf3 O92 2.005259 1_555
Hf3 O23 2.009422 1_545
Hf3 O21 2.111336 1_555
Hf3 O90 2.148765 1_545
Hf3 O18 2.201605 1_545
Hf4 O60 1.922959 1_555
Hf4 O64 1.927135 1_555
Hf4 O62 2.126737 1_555
Hf4 O136 2.160744 1_555
Hf4 O134 2.272297 1_555
Hf4 O132 2.289497 1_555
Hf5 O69 1.929245 1_555
Hf5 O67 1.934031 1_555
Hf5 O71 2.119032 1_555
Hf5 O141 2.176519 1_555
Hf5 O143 2.225731 1_555
Hf5 O139 2.271686 1_555
O0 S0 1.471862 1_555
O0 Zn0 2.107310 1_555
O1 Si0 1.640748 1_555
O1 Zn1 1.913559 1_555
O2 S1 1.496789 1_555
O2 Zn1 2.096338 1_565
O3 S2 1.468959 1_555
O3 Zn0 2.215012 1_665
O4 S4 1.486704 1_555
O4 Zn1 2.095172 1_555
O5 S3 1.480656 1_655
O5 Zn0 2.189913 1_655
O6 Si1 1.645804 1_555
O6 Zn2 1.905724 1_545
O7 S5 1.474394 1_555
O7 Zn3 2.076879 1_555
O8 S6 1.482438 1_555
O8 Zn3 2.175185 1_565
O9 Si2 1.637169 1_555
O9 Zn2 1.903104 1_655
O10 S7 1.470863 1_555
O10 Zn3 2.175602 1_555
O11 S8 1.498557 1_545
O11 Zn2 2.149066 1_645
O12 S7 1.526646 1_565
O13 S8 1.496190 1_555
O14 Si1 1.664922 1_555
O15 S5 1.531333 1_555
O16 Si2 1.674583 1_455
O17 S6 1.511113 1_555
O18 S1 1.498854 1_555
O19 S2 1.519349 1_555
O20 S3 1.508183 1_555
O21 S4 1.511314 1_555
O22 S0 1.524503 1_565
O23 Si0 1.671866 1_565
O24 Si3 1.614070 1_555
O24 Zn4 1.951090 1_555
O25 S9 1.469189 1_555
O25 Zn5 2.236801 1_555
O26 Si4 1.624887 1_555
O26 Zn4 1.955383 1_555
O27 Si5 1.605707 1_555
O27 Zn5 1.988941 1_555
O28 S10 1.471889 1_555
O28 Zn4 2.250207 1_555
O29 Si6 1.601863 1_555
O29 Zn5 1.924439 1_555
O30 S11 1.476101 1_555
O30 Zn6 2.270436 1_555
O31 Si7 1.619623 1_555
O31 Zn7 1.934393 1_555
O32 Si8 1.615559 1_555
O32 Zn6 1.860883 1_555
O33 S12 1.473607 1_555
O33 Zn7 2.215763 1_555
O34 Si9 1.623316 1_555
O34 Zn6 1.869776 1_555
O35 Si10 1.628121 1_555
O35 Zn7 1.955061 1_555
O36 Si9 1.636203 1_555
O36 Zn8 2.007688 1_554
O37 Si10 1.631990 1_555
O37 Zn9 1.972491 1_554
O38 S11 1.472781 1_555
O38 Zn8 2.283521 1_554
O39 Si7 1.642788 1_555
O39 Zn9 1.994390 1_554
O40 Si8 1.636649 1_555
O40 Zn8 1.961932 1_554
O41 S12 1.473904 1_555
O41 Zn9 2.322363 1_554
O42 Si4 1.637365 1_555
O42 Zn10 1.934705 1_555
O43 Si5 1.652291 1_555
O43 Zn11 1.993785 1_555
O44 S10 1.482539 1_555
O44 Zn10 2.255473 1_555
O45 Si6 1.646858 1_555
O45 Zn11 1.941165 1_555
O46 Si3 1.650245 1_555
O46 Zn10 1.994098 1_555
O47 S9 1.488172 1_555
O47 Zn11 2.195541 1_555
O48 S13 1.486992 1_555
O48 Zn12 2.223034 1_556
O49 S14 1.488113 1_555
O49 Zn13 2.154224 1_556
O50 S15 1.485915 1_555
O50 Zn12 2.207735 1_556
O51 Si11 1.625435 1_555
O51 Zn13 1.929925 1_556
O52 S16 1.487961 1_555
O52 Zn12 2.173367 1_556
O53 Si12 1.637257 1_555
O53 Zn13 1.978678 1_556
O54 S17 1.478493 1_555
O54 Zn14 2.311577 1_555
O55 S18 1.479646 1_555
O55 Zn15 2.233388 1_555
O56 Si13 1.631087 1_555
O56 Zn14 1.977757 1_555
O57 S19 1.477905 1_555
O57 Zn15 2.267703 1_555
O58 Si14 1.623639 1_555
O58 Zn14 1.940054 1_555
O59 S20 1.479806 1_555
O59 Zn15 2.264502 1_555
O60 Si14 1.696260 1_555
O61 S20 1.497368 1_555
O61 Zn16 2.095895 1_555
O62 S17 1.508491 1_555
O63 S18 1.503527 1_555
O63 Zn16 2.046500 1_555
O64 Si13 1.688062 1_555
O65 S19 1.500440 1_555
O65 Zn16 2.134433 1_555
O66 S15 1.490835 1_555
O66 Zn17 2.107389 1_555
O67 Si11 1.684501 1_555
O68 S16 1.483410 1_555
O68 Zn17 2.211612 1_555
O69 Si12 1.681141 1_555
O70 S13 1.489740 1_555
O70 Zn17 2.227058 1_555
O71 S14 1.508374 1_555
O72 Si14 1.640875 1_555
O72 Zn0 1.969721 1_565
O73 S20 1.510604 1_555
O73 Zn1 2.345581 1_565
O74 S17 1.501462 1_555
O74 Zn1 2.332063 1_565
O75 S18 1.493514 1_555
O75 Zn0 2.272162 1_665
O76 Si13 1.643394 1_555
O76 Zn0 2.018494 1_555
O77 S19 1.520380 1_555
O77 Zn1 2.289464 1_555
O78 S15 1.501388 1_555
O79 Si11 1.640068 1_555
O79 Zn3 1.986571 1_555
O80 S16 1.504005 1_555
O80 Zn2 2.480046 1_555
O81 Si12 1.648050 1_555
O81 Zn3 2.039403 1_565
O82 S13 1.502043 1_555
O82 Zn3 2.273437 1_565
O83 S14 1.481983 1_555
O84 Si3 1.713421 1_555
O85 S9 1.514353 1_555
O86 Si4 1.674836 1_555
O87 Si5 1.727765 1_555
O88 S10 1.542007 1_555
O89 Si6 1.668724 1_555
O90 S11 1.538012 1_555
O91 Si7 1.716792 1_555
O92 Si8 1.675769 1_555
O93 S12 1.542155 1_555
O94 Si9 1.714109 1_555
O95 Si10 1.688812 1_555
O96 S7 1.475323 1_555
O96 Zn4 2.338487 1_555
O97 S8 1.466323 1_545
O97 Zn5 2.521348 1_555
O98 Si1 1.654839 1_555
O98 Zn4 2.105907 1_555
O99 S5 1.449730 1_555
O99 Zn5 2.287810 1_555
O100 S6 1.469061 1_555
O100 Zn4 2.529300 1_555
O101 Si2 1.631573 1_555
O101 Zn5 2.072319 1_555
O102 S1 1.477950 1_555
O103 S2 1.478687 1_555
O103 Zn7 2.374178 1_555
O104 S4 1.467970 1_555
O105 S3 1.469073 1_655
O105 Zn7 2.536722 1_555
O106 S0 1.471009 1_555
O106 Zn6 2.288725 1_555
O107 Si0 1.646643 1_555
O107 Zn7 2.163677 1_555
O108 S13 1.495569 1_555
O108 Zn8 2.509884 1_555
O109 S14 1.486102 1_555
O109 Zn9 2.393484 1_555
O110 Si11 1.648181 1_555
O110 Zn8 2.164586 1_555
O111 S15 1.494087 1_655
O111 Zn9 2.440971 1_555
O112 S16 1.499923 1_545
O112 Zn8 2.313580 1_555
O113 Si12 1.650753 1_545
O113 Zn9 2.105927 1_555
O114 S17 1.483236 1_545
O114 Zn10 2.490522 1_555
O115 S18 1.489180 1_545
O115 Zn11 2.550627 1_555
O116 Si13 1.654238 1_555
O116 Zn10 2.159655 1_555
O117 S19 1.486411 1_555
O117 Zn11 2.538870 1_555
O118 S20 1.490727 1_555
O118 Zn10 2.509372 1_555
O119 Si14 1.643516 1_655
O119 Zn11 2.235032 1_555
O120 Si9 1.628215 1_555
O120 Zn12 2.010363 1_555
O121 Si10 1.643562 1_555
O121 Zn13 2.120853 1_555
O122 Si7 1.631919 1_455
O122 Zn12 2.048844 1_555
O123 S11 1.480291 1_555
O123 Zn13 2.422306 1_555
O124 Si8 1.632295 1_565
O124 Zn12 2.022585 1_555
O125 S12 1.476075 1_565
O125 Zn13 2.523617 1_555
O126 Si4 1.648973 1_565
O126 Zn14 2.063817 1_555
O127 Si5 1.640126 1_565
O127 Zn15 2.013983 1_555
O128 S10 1.473278 1_555
O128 Zn14 2.506070 1_555
O129 Si6 1.640244 1_555
O129 Zn15 1.965716 1_555
O130 S9 1.489992 1_455
O130 Zn14 2.300796 1_555
O131 Si3 1.634624 1_555
O131 Zn15 2.030689 1_555
O132 S0 1.501625 1_565
O133 Si0 1.664139 1_565
O133 Zn16 2.012831 1_555
O134 S1 1.494102 1_555
O135 S2 1.504493 1_555
O135 Zn16 2.324685 1_555
O136 S3 1.512086 1_555
O137 S4 1.503592 1_555
O137 Zn16 2.325403 1_555
O138 Si1 1.644824 1_555
O138 Zn17 2.017017 1_555
O139 S5 1.504124 1_555
O140 Si2 1.661003 1_455
O140 Zn17 1.992123 1_555
O141 S6 1.509245 1_555
O142 S7 1.490851 1_565
O142 Zn17 2.352536 1_555
O143 S8 1.508218 1_555
