# generated using pymatgen
data_NaCa2Ti2PS5O24
_symmetry_space_group_name_H-M   'P 1'
_cell_length_a   8.92086966
_cell_length_b   8.94422589
_cell_length_c   23.26763667
_cell_angle_alpha   89.31683992
_cell_angle_beta   89.97358466
_cell_angle_gamma   120.04811755
_symmetry_Int_Tables_number   1
_chemical_formula_structural   NaCa2Ti2PS5O24
_chemical_formula_sum   'Na3 Ca6 Ti6 P3 S15 O72'
_cell_volume   1606.86436282
_cell_formula_units_Z   3
loop_
 _symmetry_equiv_pos_site_id
 _symmetry_equiv_pos_as_xyz
  1  'x, y, z'
loop_
 _atom_site_type_symbol
 _atom_site_label
 _atom_site_symmetry_multiplicity
 _atom_site_fract_x
 _atom_site_fract_y
 _atom_site_fract_z
 _atom_site_occupancy
  Na  Na0  1  0.66501962  0.33098844  0.82941290  1
  Na  Na1  1  0.66176020  0.33482128  0.33156067  1
  Na  Na2  1  0.33388884  0.66555155  0.16475604  1
  Ca  Ca0  1  0.99827475  0.00047268  0.85720534  1
  Ca  Ca1  1  0.66558149  0.33057742  0.68450946  1
  Ca  Ca2  1  0.66342200  0.33296796  0.19285922  1
  Ca  Ca3  1  0.66548941  0.33461171  0.48336663  1
  Ca  Ca4  1  0.33498541  0.66603391  0.02011070  1
  Ca  Ca5  1  0.33303038  0.66708798  0.51894527  1
  Ti  Ti0  1  0.00198006  0.99500183  0.35023748  1
  Ti  Ti1  1  0.99421951  0.99705243  0.64639434  1
  Ti  Ti2  1  0.99921711  0.98627842  0.14444493  1
  Ti  Ti3  1  0.67053374  0.32799009  0.97426569  1
  Ti  Ti4  1  0.34326344  0.67600564  0.31081639  1
  Ti  Ti5  1  0.31643752  0.65111397  0.80974168  1
  P  P0  1  0.27344946  0.98600618  0.25175415  1
  P  P1  1  0.71657046  0.72705714  0.25231421  1
  P  P2  1  0.03955480  0.38535436  0.91687950  1
  S  S0  1  0.01466651  0.28838118  0.25202612  1
  S  S1  1  0.28796929  0.29811394  0.75115702  1
  S  S2  1  0.00916838  0.71152864  0.75164109  1
  S  S3  1  0.69781262  0.98440952  0.75158132  1
  S  S4  1  0.96543781  0.32150387  0.58600510  1
  S  S5  1  0.35391567  0.03342908  0.58656065  1
  S  S6  1  0.67827327  0.64408049  0.58607596  1
  S  S7  1  0.95197796  0.62886004  0.08458045  1
  S  S8  1  0.68141653  0.05013297  0.08506368  1
  S  S9  1  0.36764146  0.31936417  0.08521024  1
  S  S10  1  0.61498598  0.64800946  0.91639819  1
  S  S11  1  0.34885785  0.96436167  0.91601109  1
  S  S12  1  0.63182877  0.95660483  0.40962199  1
  S  S13  1  0.32296364  0.37049359  0.40886067  1
  S  S14  1  0.04606307  0.67396603  0.40944750  1
  O  O0  1  0.17474372  0.00140324  0.30420693  1
  O  O1  1  0.82718204  0.82758062  0.30449691  1
  O  O2  1  0.99727238  0.18197369  0.30390392  1
  O  O3  1  0.21357950  0.19541422  0.80319492  1
  O  O4  1  0.98356122  0.78611993  0.80326119  1
  O  O5  1  0.80369332  0.01339634  0.80231850  1
  O  O6  1  0.78613322  0.96456045  0.69940748  1
  O  O7  1  0.18125325  0.21826589  0.69969475  1
  O  O8  1  0.03474500  0.82020979  0.69965782  1
  O  O9  1  0.80313424  0.83652060  0.19619005  1
  O  O10  1  0.03577909  0.20940032  0.19922291  1
  O  O11  1  0.16298163  0.96486490  0.19653429  1
  O  O12  1  0.88345032  0.34761562  0.63600569  1
  O  O13  1  0.46417367  0.11485781  0.63600475  1
  O  O14  1  0.65120212  0.53484933  0.63644272  1
  O  O15  1  0.87578539  0.52661480  0.13670927  1
  O  O16  1  0.65284327  0.12655367  0.13588668  1
  O  O17  1  0.47136694  0.34639222  0.13663212  1
  O  O18  1  0.45059163  0.29666350  0.03287500  1
  O  O19  1  0.84648906  0.54864000  0.03254932  1
  O  O20  1  0.70200236  0.15945150  0.03161093  1
  O  O21  1  0.42020812  0.14162315  0.53389098  1
  O  O22  1  0.71997124  0.57898021  0.53402463  1
  O  O23  1  0.85865886  0.28201815  0.53386467  1
  O  O24  1  0.54513473  0.67447753  0.96884247  1
  O  O25  1  0.13847466  0.46359593  0.97016520  1
  O  O26  1  0.32690590  0.87052933  0.96926654  1
  O  O27  1  0.56422966  0.86015153  0.46277519  1
  O  O28  1  0.29471261  0.43495176  0.46219810  1
  O  O29  1  0.13823684  0.70167052  0.46303834  1
  O  O30  1  0.14727722  0.65866056  0.36008837  1
  O  O31  1  0.51066582  0.85555466  0.35979561  1
  O  O32  1  0.34353753  0.49310828  0.35911514  1
  O  O33  1  0.13568117  0.51002334  0.86170016  1
  O  O34  1  0.38068568  0.88449715  0.86499537  1
  O  O35  1  0.50280565  0.61936458  0.86513651  1
  O  O36  1  0.02463071  0.82936104  0.39910998  1
  O  O37  1  0.80490117  0.97669671  0.39806296  1
  O  O38  1  0.16885586  0.19780245  0.39714791  1
  O  O39  1  0.99572489  0.20502176  0.90480692  1
  O  O40  1  0.20937965  0.00054761  0.90768205  1
  O  O41  1  0.79168177  0.78551654  0.90728159  1
  O  O42  1  0.97822154  0.15888196  0.59964891  1
  O  O43  1  0.17902255  0.02103088  0.60091807  1
  O  O44  1  0.84093294  0.81951634  0.59929691  1
  O  O45  1  0.96065005  0.80489492  0.09294190  1
  O  O46  1  0.84569294  0.04145668  0.09281895  1
  O  O47  1  0.19223136  0.15447040  0.09494494  1
  O  O48  1  0.66638902  0.13021367  0.74460616  1
  O  O49  1  0.46755246  0.33670294  0.74510839  1
  O  O50  1  0.86722455  0.53314137  0.74565786  1
  O  O51  1  0.69652246  0.54905444  0.25279241  1
  O  O52  1  0.86049565  0.30717891  0.25124342  1
  O  O53  1  0.45209329  0.14359513  0.25197965  1
  O  O54  1  0.62369204  0.47943635  0.92487392  1
  O  O55  1  0.85312220  0.37746532  0.92573137  1
  O  O56  1  0.51783446  0.14483407  0.92319778  1
  O  O57  1  0.64395883  0.12722374  0.40917335  1
  O  O58  1  0.48089075  0.35571870  0.40894933  1
  O  O59  1  0.87248231  0.51776142  0.40994655  1
  O  O60  1  0.33347732  0.46338997  0.07972624  1
  O  O61  1  0.13177797  0.66812231  0.07929645  1
  O  O62  1  0.53600192  0.87328393  0.07879754  1
  O  O63  1  0.32071597  0.85887650  0.57882676  1
  O  O64  1  0.53699932  0.67795590  0.57827088  1
  O  O65  1  0.14107846  0.46260378  0.57821117  1
  O  O66  1  0.28752413  0.81750044  0.25943756  1
  O  O67  1  0.53229983  0.71241987  0.25985690  1
  O  O68  1  0.17485002  0.46458372  0.25778409  1
  O  O69  1  0.29654955  0.47381407  0.75978682  1
  O  O70  1  0.17751812  0.70420312  0.75956581  1
  O  O71  1  0.52488484  0.82028849  0.76033243  1
loop_
_geom_bond_atom_site_label_1
_geom_bond_atom_site_label_2
_geom_bond_distance
_geom_bond_site_symmetry_2
Na0 O50 2.639563 1_555
Na0 O56 2.641857 1_555
Na0 O49 2.654144 1_555
Na0 O48 2.687960 1_555
Na0 O55 2.708924 1_555
Na0 O54 2.718853 1_555
Na1 O58 2.487584 1_555
Na1 O57 2.521616 1_555
Na1 O51 2.539178 1_555
Na1 O59 2.555680 1_555
Na1 O53 2.593728 1_555
Na1 O52 2.672750 1_555
Na2 O61 2.692395 1_555
Na2 O62 2.693779 1_555
Na2 O60 2.694889 1_555
Na2 O68 2.698073 1_555
Na2 O67 2.736358 1_555
Na2 O66 2.739509 1_555
Ca0 O39 2.159724 1_555
Ca0 O41 2.201531 1_545
Ca0 O5 2.203838 1_555
Ca0 O3 2.213650 1_655
Ca0 O40 2.219634 1_655
Ca0 O4 2.252529 1_545
Ca1 O12 2.184410 1_555
Ca1 O14 2.188953 1_555
Ca1 O13 2.192437 1_555
Ca1 O48 2.262768 1_555
Ca1 O49 2.282193 1_555
Ca1 O50 2.311415 1_555
Ca2 O17 2.205837 1_555
Ca2 O15 2.225648 1_555
Ca2 O16 2.249149 1_555
Ca2 O53 2.249335 1_555
Ca2 O51 2.293552 1_555
Ca2 O52 2.321696 1_555
Ca3 O21 2.305681 1_555
Ca3 O23 2.317733 1_555
Ca3 O22 2.323980 1_555
Ca3 O59 2.431591 1_555
Ca3 O58 2.460050 1_555
Ca3 O57 2.485483 1_555
Ca4 O25 2.139024 1_554
Ca4 O24 2.190262 1_554
Ca4 O26 2.197880 1_554
Ca4 O60 2.263847 1_555
Ca4 O61 2.283683 1_555
Ca4 O62 2.291322 1_555
Ca5 O65 2.231626 1_555
Ca5 O64 2.248137 1_555
Ca5 O63 2.267493 1_555
Ca5 O27 2.306696 1_555
Ca5 O29 2.310473 1_555
Ca5 O28 2.350785 1_555
O0 P0 1.551863 1_545
O0 Ti0 1.853191 1_545
O1 P1 1.547555 1_555
O1 Ti0 1.872887 1_655
O2 S0 1.487090 1_655
O2 Ti0 1.997007 1_645
O3 S1 1.453432 1_555
O4 S2 1.453051 1_655
O5 S3 1.454693 1_545
O6 S3 1.506766 1_555
O6 Ti1 2.121539 1_555
O7 S1 1.480098 1_555
O7 Ti1 2.234072 1_445
O8 S2 1.486448 1_555
O8 Ti1 2.166741 1_455
O9 P1 1.572144 1_555
O9 Ti2 1.979070 1_555
O10 S0 1.482466 1_555
O10 Ti2 2.263334 1_445
O11 P0 1.574183 1_555
O11 Ti2 1.978944 1_455
O12 S4 1.455933 1_555
O13 S5 1.457755 1_555
O14 S6 1.456834 1_555
O15 S7 1.455943 1_555
O16 S8 1.457408 1_555
O17 S9 1.459483 1_555
O18 S9 1.492372 1_555
O18 Ti3 2.285998 1_554
O19 S7 1.487151 1_555
O19 Ti3 2.271844 1_554
O20 S8 1.525636 1_555
O20 Ti3 2.123137 1_554
O21 S5 1.478506 1_555
O22 S6 1.475640 1_555
O23 S4 1.475905 1_555
O24 S10 1.444743 1_555
O25 P2 1.486234 1_555
O26 S11 1.445174 1_555
O27 S12 1.445797 1_555
O28 S13 1.448570 1_555
O29 S14 1.447976 1_555
O30 S14 1.509823 1_555
O30 Ti4 2.029154 1_555
O31 S12 1.541772 1_555
O31 Ti4 1.936853 1_555
O32 S13 1.531044 1_555
O32 Ti4 1.974635 1_555
O33 P2 1.623073 1_555
O33 Ti5 1.891616 1_555
O34 S11 1.490942 1_555
O34 Ti5 2.281496 1_555
O35 S10 1.497123 1_555
O35 Ti5 2.229822 1_555
O36 S14 1.511422 1_555
O36 Ti0 1.946458 1_555
O37 S12 1.486281 1_555
O37 Ti0 2.015354 1_655
O38 S13 1.494612 1_555
O38 Ti0 2.010526 1_545
O39 P2 1.487507 1_655
O40 S11 1.446560 1_545
O41 S10 1.447166 1_555
O42 S4 1.544207 1_555
O42 Ti1 1.862235 1_545
O43 S5 1.543854 1_555
O43 Ti1 1.876809 1_445
O44 S6 1.547289 1_555
O44 Ti1 1.860272 1_555
O45 S7 1.551840 1_555
O45 Ti2 1.916809 1_555
O46 S8 1.516589 1_555
O46 Ti2 2.055842 1_545
O47 S9 1.534798 1_555
O47 Ti2 1.979189 1_445
O48 S3 1.471976 1_545
O49 S1 1.466407 1_555
O50 S2 1.466523 1_655
O51 P1 1.510398 1_555
O52 S0 1.466860 1_655
O53 P0 1.509018 1_545
O54 S10 1.558347 1_555
O54 Ti3 1.964785 1_555
O55 P2 1.641722 1_655
O55 Ti3 1.840865 1_555
O56 S11 1.573450 1_545
O56 Ti3 1.940174 1_555
O57 S12 1.474755 1_545
O58 S13 1.479447 1_555
O59 S14 1.477477 1_655
O60 S9 1.468987 1_555
O61 S7 1.464877 1_455
O62 S8 1.468618 1_565
O63 S5 1.449567 1_565
O64 S6 1.447209 1_555
O65 S4 1.447291 1_455
O66 P0 1.581880 1_555
O66 Ti4 1.967920 1_555
O67 P1 1.591810 1_555
O67 Ti4 1.948005 1_555
O68 S0 1.514450 1_555
O68 Ti4 2.137258 1_555
O69 S1 1.550120 1_555
O69 Ti5 1.913026 1_555
O70 S2 1.546702 1_555
O70 Ti5 1.923986 1_555
O71 S3 1.516862 1_555
O71 Ti5 2.051300 1_555
