# generated using pymatgen
data_Sr4MgMn3(ClO4)2
_symmetry_space_group_name_H-M   'P 1'
_cell_length_a   4.00566438
_cell_length_b   4.00569022
_cell_length_c   18.11224619
_cell_angle_alpha   96.36567207
_cell_angle_beta   96.36508579
_cell_angle_gamma   89.99263639
_symmetry_Int_Tables_number   1
_chemical_formula_structural   Sr4MgMn3(ClO4)2
_chemical_formula_sum   'Sr4 Mg1 Mn3 Cl2 O8'
_cell_volume   287.02515111
_cell_formula_units_Z   1
loop_
 _symmetry_equiv_pos_site_id
 _symmetry_equiv_pos_as_xyz
  1  'x, y, z'
loop_
 _atom_site_type_symbol
 _atom_site_label
 _atom_site_symmetry_multiplicity
 _atom_site_fract_x
 _atom_site_fract_y
 _atom_site_fract_z
 _atom_site_occupancy
  Sr  Sr0  1  0.66889053  0.66889421  0.33784262  1
  Sr  Sr1  1  0.29562143  0.29564038  0.58903108  1
  Sr  Sr2  1  0.56290986  0.56290956  0.12533315  1
  Sr  Sr3  1  0.46598846  0.46597504  0.93104625  1
  Mg  Mg0  1  0.37187127  0.37186691  0.74717162  1
  Mn  Mn0  1  0.00944773  0.00944933  0.01812285  1
  Mn  Mn1  1  0.88806774  0.88807117  0.77873929  1
  Mn  Mn2  1  0.11907816  0.11907372  0.23820458  1
  Cl  Cl0  1  0.21339353  0.21339790  0.42635490  1
  Cl  Cl1  1  0.77648898  0.77650165  0.55148556  1
  O  O0  1  0.12866642  0.62874991  0.25756233  1
  O  O1  1  0.36308610  0.86274247  0.72877136  1
  O  O2  1  0.00886741  0.50878463  0.01680163  1
  O  O3  1  0.50878942  0.00886262  0.01680086  1
  O  O4  1  0.62875173  0.12866789  0.25756437  1
  O  O5  1  0.06402530  0.06402159  0.12738329  1
  O  O6  1  0.86275028  0.36308525  0.72877583  1
  O  O7  1  0.94664364  0.94663778  0.89284842  1
loop_
_geom_bond_atom_site_label_1
_geom_bond_atom_site_label_2
_geom_bond_distance
_geom_bond_site_symmetry_2
Mg0 O6 2.029293 1_455
Mg0 O1 2.029321 1_545
Mg0 O6 2.030079 1_555
Mg0 O1 2.030103 1_555
Mg0 Sr1 2.828911 1_555
Mn0 O5 1.954479 1_555
Mn0 O3 2.002955 1_455
Mn0 O2 2.002975 1_555
Mn0 O3 2.002989 1_555
Mn0 O2 2.002994 1_545
Mn0 O7 2.240941 1_444
Mn1 O7 2.041228 1_555
Mn1 O6 2.193000 1_555
Mn1 O1 2.193005 1_555
Mn1 O6 2.193431 1_565
Mn1 O1 2.193468 1_655
Mn2 O5 1.982402 1_555
Mn2 O4 2.032434 1_555
Mn2 O0 2.032452 1_555
Mn2 O0 2.032666 1_545
Mn2 O4 2.032671 1_455
Cl0 Sr1 2.909996 1_555
Cl0 Sr0 3.244424 1_555
Cl0 Sr0 3.244777 1_545
Cl0 Sr0 3.244793 1_455
Cl0 Sr0 3.245781 1_445
Cl1 Sr1 2.909414 1_555
Cl1 Sr1 2.910790 1_655
Cl1 Sr1 2.910816 1_565
Cl1 Sr1 2.912900 1_665
O0 Sr0 2.464431 1_555
O0 Sr0 2.464523 1_455
O0 Sr2 3.098045 1_455
O0 Sr2 3.100736 1_555
O1 Sr1 3.195767 1_555
O1 Sr1 3.210520 1_565
O2 Sr3 2.522474 1_454
O2 Sr3 2.523133 1_554
O2 Sr2 2.788336 1_555
O2 Sr2 2.790383 1_455
O3 Sr3 2.522493 1_544
O3 Sr3 2.523118 1_554
O3 Sr2 2.788353 1_555
O3 Sr2 2.790404 1_545
O4 Sr0 2.464420 1_555
O4 Sr0 2.464513 1_545
O4 Sr2 3.098069 1_545
O4 Sr2 3.100784 1_555
O5 Sr2 2.832373 1_555
O5 Sr2 2.832487 1_545
O5 Sr2 2.832507 1_455
O5 Sr2 2.833349 1_445
O6 Sr1 3.195898 1_555
O6 Sr1 3.210498 1_655
O7 Sr3 2.912799 1_555
O7 Sr3 2.913492 1_565
O7 Sr3 2.913543 1_655
O7 Sr3 2.914943 1_665
