# generated using pymatgen
data_PrMgS3
_symmetry_space_group_name_H-M   'P 1'
_cell_length_a   7.01348161
_cell_length_b   7.01348161
_cell_length_c   5.02697966
_cell_angle_alpha   82.29292011
_cell_angle_beta   82.29292011
_cell_angle_gamma   108.13761109
_symmetry_Int_Tables_number   1
_chemical_formula_structural   PrMgS3
_chemical_formula_sum   'Pr2 Mg2 S6'
_cell_volume   228.76634512
_cell_formula_units_Z   2
loop_
 _symmetry_equiv_pos_site_id
 _symmetry_equiv_pos_as_xyz
  1  'x, y, z'
loop_
 _atom_site_type_symbol
 _atom_site_label
 _atom_site_symmetry_multiplicity
 _atom_site_fract_x
 _atom_site_fract_y
 _atom_site_fract_z
 _atom_site_occupancy
  Pr  Pr0  1  0.15834957  0.15834957  0.68661298  1
  Pr  Pr1  1  0.84165043  0.84165043  0.31338702  1
  Mg  Mg0  1  0.30093282  0.69906718  -0.00000000  1
  Mg  Mg1  1  0.69906718  0.30093282  -0.00000000  1
  S  S0  1  0.00378530  0.71017547  0.80028797  1
  S  S1  1  0.99621470  0.28982453  0.19971203  1
  S  S2  1  0.28982453  0.99621470  0.19971203  1
  S  S3  1  0.71017547  0.00378530  0.80028797  1
  S  S4  1  0.48905970  0.48905970  0.29765079  1
  S  S5  1  0.51094030  0.51094030  0.70234921  1
loop_
_geom_bond_atom_site_label_1
_geom_bond_atom_site_label_2
_geom_bond_distance
_geom_bond_site_symmetry_2
Pr0 S5 2.921342 1_555
Pr0 S0 2.934688 1_545
Pr0 S3 2.934688 1_455
Pr0 S4 2.966556 1_555
Pr0 S2 2.988021 1_545
Pr0 S1 2.988021 1_455
Pr0 S2 3.049652 1_546
Pr0 S1 3.049652 1_456
Pr1 S4 2.921342 1_555
Pr1 S1 2.934688 1_565
Pr1 S2 2.934688 1_655
Pr1 S5 2.966556 1_555
Pr1 S3 2.988021 1_565
Pr1 S0 2.988021 1_655
Pr1 S0 3.049652 1_654
Pr1 S3 3.049652 1_564
Mg0 S2 2.449181 1_555
Mg0 S0 2.449181 1_554
Mg0 S5 2.701385 1_554
Mg0 S4 2.701385 1_555
Mg0 S3 2.940405 1_564
Mg0 S1 2.940405 1_455
Mg1 S1 2.449181 1_555
Mg1 S3 2.449181 1_554
Mg1 S5 2.701385 1_554
Mg1 S4 2.701385 1_555
Mg1 S0 2.940405 1_654
Mg1 S2 2.940405 1_545
S4 S5 2.082964 1_555
