# generated using pymatgen
data_MgCd2Cu(PO4)2
_symmetry_space_group_name_H-M   'P 1'
_cell_length_a   5.07662061
_cell_length_b   5.51734809
_cell_length_c   7.83974256
_cell_angle_alpha   78.88299273
_cell_angle_beta   84.47108741
_cell_angle_gamma   77.38047257
_symmetry_Int_Tables_number   1
_chemical_formula_structural   MgCd2Cu(PO4)2
_chemical_formula_sum   'Mg1 Cd2 Cu1 P2 O8'
_cell_volume   209.92412461
_cell_formula_units_Z   1
loop_
 _symmetry_equiv_pos_site_id
 _symmetry_equiv_pos_as_xyz
  1  'x, y, z'
loop_
 _atom_site_type_symbol
 _atom_site_label
 _atom_site_symmetry_multiplicity
 _atom_site_fract_x
 _atom_site_fract_y
 _atom_site_fract_z
 _atom_site_occupancy
  Mg  Mg0  1  0.84673038  0.39293809  0.00628881  1
  Cd  Cd0  1  0.26818118  0.25108115  0.36031381  1
  Cd  Cd1  1  0.72123196  0.78448296  0.64009605  1
  Cu  Cu0  1  0.08587521  0.90091092  0.03141607  1
  P  P0  1  0.62933712  0.67660467  0.22969499  1
  P  P1  1  0.34804184  0.34519802  0.77432247  1
  O  O0  1  0.65465075  0.84853531  0.35773557  1
  O  O1  1  0.42891998  0.15355091  0.64652027  1
  O  O2  1  0.75592675  0.76881920  0.04008677  1
  O  O3  1  0.21886238  0.21747563  0.95058108  1
  O  O4  1  0.60633721  0.42718145  0.81838096  1
  O  O5  1  0.79071235  0.39386445  0.27265760  1
  O  O6  1  0.14743743  0.58310660  0.69606550  1
  O  O7  1  0.33108846  0.66101264  0.21287706  1
loop_
_geom_bond_atom_site_label_1
_geom_bond_atom_site_label_2
_geom_bond_distance
_geom_bond_site_symmetry_2
Mg0 O4 1.957947 1_554
Mg0 O3 1.975304 1_654
Mg0 O5 2.081054 1_555
Mg0 O2 2.086689 1_555
Cd0 O1 2.384397 1_555
Cd0 O7 2.406202 1_555
Cd0 O5 2.499224 1_455
Cd0 O0 2.624525 1_545
Cd1 O0 2.220276 1_555
Cd1 O6 2.247896 1_655
Cd1 O1 2.248527 1_565
Cd1 O4 2.337270 1_555
Cu0 O2 1.958017 1_455
Cu0 O3 1.978375 1_564
Cu0 O7 2.054402 1_555
O0 P0 1.539254 1_555
O1 P1 1.558875 1_555
O2 P0 1.596439 1_555
O3 P1 1.577305 1_555
O4 P1 1.565256 1_555
O5 P0 1.584379 1_555
O6 P1 1.536961 1_555
O7 P0 1.554678 1_555
