# generated using pymatgen
data_K2GeSe4
_symmetry_space_group_name_H-M   'P 1'
_cell_length_a   8.33637415
_cell_length_b   9.01311055
_cell_length_c   12.02412953
_cell_angle_alpha   73.80579521
_cell_angle_beta   90.00000000
_cell_angle_gamma   90.00000000
_symmetry_Int_Tables_number   1
_chemical_formula_structural   K2GeSe4
_chemical_formula_sum   'K8 Ge4 Se16'
_cell_volume   867.60565672
_cell_formula_units_Z   4
loop_
 _symmetry_equiv_pos_site_id
 _symmetry_equiv_pos_as_xyz
  1  'x, y, z'
loop_
 _atom_site_type_symbol
 _atom_site_label
 _atom_site_symmetry_multiplicity
 _atom_site_fract_x
 _atom_site_fract_y
 _atom_site_fract_z
 _atom_site_occupancy
  K  K0  1  0.08938279  0.69253581  0.15563179  1
  K  K1  1  0.07544859  0.22948421  0.45338168  1
  K  K2  1  0.57544859  0.27051579  0.54661832  1
  K  K3  1  0.92455141  0.77051579  0.54661832  1
  K  K4  1  0.58938279  0.80746419  0.84436821  1
  K  K5  1  0.42455141  0.72948421  0.45338168  1
  K  K6  1  0.91061721  0.30746419  0.84436821  1
  K  K7  1  0.41061721  0.19253581  0.15563179  1
  Ge  Ge0  1  0.63295501  0.54840281  0.24203055  1
  Ge  Ge1  1  0.13295501  0.95159719  0.75796945  1
  Ge  Ge2  1  0.36704499  0.45159719  0.75796945  1
  Ge  Ge3  1  0.86704499  0.04840281  0.24203055  1
  Se  Se0  1  0.55120437  0.80984552  0.13780280  1
  Se  Se1  1  0.28613257  0.54556180  0.92233133  1
  Se  Se2  1  0.78613257  0.95443820  0.07766867  1
  Se  Se3  1  0.71386743  0.45443820  0.07766867  1
  Se  Se4  1  0.12331261  0.96395640  0.30073457  1
  Se  Se5  1  0.62331261  0.53604360  0.69926543  1
  Se  Se6  1  0.87668739  0.03604360  0.69926543  1
  Se  Se7  1  0.37668739  0.46395640  0.30073457  1
  Se  Se8  1  0.05120437  0.69015448  0.86219720  1
  Se  Se9  1  0.44879563  0.19015448  0.86219720  1
  Se  Se10  1  0.94879563  0.30984552  0.13780280  1
  Se  Se11  1  0.83061768  0.53674573  0.37455022  1
  Se  Se12  1  0.33061768  0.96325427  0.62544978  1
  Se  Se13  1  0.16938232  0.46325427  0.62544978  1
  Se  Se14  1  0.66938232  0.03674573  0.37455022  1
  Se  Se15  1  0.21386743  0.04556180  0.92233133  1
loop_
_geom_bond_atom_site_label_1
_geom_bond_atom_site_label_2
_geom_bond_distance
_geom_bond_site_symmetry_2
K0 Se7 3.319637 1_555
K0 Se4 3.389611 1_555
K0 Se11 3.390036 1_455
K0 Se2 3.406981 1_455
K0 Se8 3.548643 1_554
K0 Se10 3.705287 1_455
K0 Se15 3.753901 1_564
K0 Se1 3.793037 1_554
K1 Se11 3.356997 1_455
K1 Se6 3.413377 1_455
K1 Se4 3.421375 1_545
K1 Se13 3.429989 1_555
K1 Se12 3.434273 1_545
K1 Se7 3.460886 1_555
K2 Se12 3.356997 1_545
K2 Se7 3.413377 1_555
K2 Se5 3.421375 1_555
K2 Se14 3.429989 1_555
K2 Se11 3.434273 1_555
K2 Se6 3.460886 1_555
K3 Se13 3.356997 1_655
K3 Se4 3.413377 1_655
K3 Se6 3.421375 1_565
K3 Se11 3.429989 1_555
K3 Se14 3.434273 1_565
K3 Se5 3.460886 1_555
K4 Se6 3.319637 1_565
K4 Se5 3.389611 1_555
K4 Se12 3.390036 1_555
K4 Se1 3.406981 1_555
K4 Se0 3.548643 1_556
K4 Se9 3.705287 1_565
K4 Se3 3.753901 1_556
K4 Se2 3.793037 1_556
K5 Se14 3.356997 1_565
K5 Se5 3.413377 1_555
K5 Se7 3.421375 1_555
K5 Se12 3.429989 1_555
K5 Se13 3.434273 1_555
K5 Se4 3.460886 1_555
K6 Se5 3.319637 1_555
K6 Se6 3.389611 1_555
K6 Se13 3.390036 1_655
K6 Se15 3.406981 1_655
K6 Se10 3.548643 1_556
K6 Se8 3.705287 1_655
K6 Se2 3.753901 1_546
K6 Se3 3.793037 1_556
K7 Se4 3.319637 1_545
K7 Se7 3.389611 1_555
K7 Se14 3.390036 1_555
K7 Se3 3.406981 1_555
K7 Se9 3.548643 1_554
K7 Se0 3.705287 1_545
K7 Se1 3.753901 1_554
K7 Se15 3.793037 1_554
Ge0 Se11 2.274181 1_555
Ge0 Se7 2.311243 1_555
Ge0 Se0 2.437317 1_555
Ge0 Se3 2.451863 1_555
Ge1 Se12 2.274181 1_555
Ge1 Se6 2.311243 1_465
Ge1 Se8 2.437317 1_555
Ge1 Se15 2.451863 1_565
Ge2 Se13 2.274181 1_555
Ge2 Se5 2.311243 1_555
Ge2 Se9 2.437317 1_555
Ge2 Se1 2.451863 1_555
Ge3 Se14 2.274181 1_555
Ge3 Se4 2.311243 1_645
Ge3 Se10 2.437317 1_555
Ge3 Se2 2.451863 1_545
Se0 Se2 2.351837 1_555
Se1 Se8 2.351837 1_555
Se10 Se3 2.351837 1_555
Se15 Se9 2.351837 1_555
