# generated using pymatgen
data_UGe3
_symmetry_space_group_name_H-M   'P 1'
_cell_length_a   4.21717601
_cell_length_b   4.21717601
_cell_length_c   4.21717601
_cell_angle_alpha   90.00000000
_cell_angle_beta   90.00000000
_cell_angle_gamma   90.00000000
_symmetry_Int_Tables_number   1
_chemical_formula_structural   UGe3
_chemical_formula_sum   'U1 Ge3'
_cell_volume   75.00067671
_cell_formula_units_Z   1
loop_
 _symmetry_equiv_pos_site_id
 _symmetry_equiv_pos_as_xyz
  1  'x, y, z'
loop_
 _atom_site_type_symbol
 _atom_site_label
 _atom_site_symmetry_multiplicity
 _atom_site_fract_x
 _atom_site_fract_y
 _atom_site_fract_z
 _atom_site_occupancy
  U  U0  1  0.00000000  -0.00000000  -0.00000000  1
  Ge  Ge0  1  0.00000000  0.50000000  0.50000000  1
  Ge  Ge1  1  0.50000000  0.50000000  0.00000000  1
  Ge  Ge2  1  0.50000000  -0.00000000  0.50000000  1
loop_
_geom_bond_atom_site_label_1
_geom_bond_atom_site_label_2
_geom_bond_distance
_geom_bond_site_symmetry_2
Ge0 Ge2 2.981994 1_465
Ge0 Ge2 2.981994 1_455
Ge0 U0 2.981994 1_566
Ge0 U0 2.981994 1_555
Ge0 Ge1 2.981994 1_456
Ge0 Ge2 2.981994 1_565
Ge0 Ge2 2.981994 1_555
Ge0 U0 2.981994 1_565
Ge0 Ge1 2.981994 1_555
Ge0 Ge1 2.981994 1_556
Ge0 U0 2.981994 1_556
Ge0 Ge1 2.981994 1_455
Ge1 U0 2.981994 1_555
Ge1 Ge2 2.981994 1_554
Ge1 Ge2 2.981994 1_565
Ge1 Ge2 2.981994 1_555
Ge1 U0 2.981994 1_565
Ge1 U0 2.981994 1_655
Ge1 U0 2.981994 1_665
Ge1 Ge2 2.981994 1_564
Ge2 U0 2.981994 1_555
Ge2 U0 2.981994 1_655
Ge2 U0 2.981994 1_656
Ge2 U0 2.981994 1_556
