# generated using pymatgen
data_Sn2BF7
_symmetry_space_group_name_H-M   'P 1'
_cell_length_a   5.31562462
_cell_length_b   8.59346052
_cell_length_c   13.76636050
_cell_angle_alpha   90.00000000
_cell_angle_beta   90.00000000
_cell_angle_gamma   90.00000000
_symmetry_Int_Tables_number   1
_chemical_formula_structural   Sn2BF7
_chemical_formula_sum   'Sn8 B4 F28'
_cell_volume   628.84198304
_cell_formula_units_Z   4
loop_
 _symmetry_equiv_pos_site_id
 _symmetry_equiv_pos_as_xyz
  1  'x, y, z'
loop_
 _atom_site_type_symbol
 _atom_site_label
 _atom_site_symmetry_multiplicity
 _atom_site_fract_x
 _atom_site_fract_y
 _atom_site_fract_z
 _atom_site_occupancy
  Sn  Sn0  1  0.25000000  0.28249958  0.05611957  1
  Sn  Sn1  1  0.25000000  0.78249958  0.44388043  1
  Sn  Sn2  1  0.75000000  0.71750042  0.94388043  1
  Sn  Sn3  1  0.75000000  0.21750042  0.55611957  1
  Sn  Sn4  1  0.75000000  0.97714597  0.19315949  1
  Sn  Sn5  1  0.75000000  0.47714597  0.30684051  1
  Sn  Sn6  1  0.25000000  0.02285403  0.80684051  1
  Sn  Sn7  1  0.25000000  0.52285403  0.69315949  1
  B  B0  1  0.75000000  0.29995262  0.87465891  1
  B  B1  1  0.75000000  0.79995262  0.62534109  1
  B  B2  1  0.25000000  0.70004738  0.12534109  1
  B  B3  1  0.25000000  0.20004738  0.37465891  1
  F  F0  1  0.75000000  0.27654163  0.97644249  1
  F  F1  1  0.75000000  0.77654163  0.52355751  1
  F  F2  1  0.25000000  0.72345837  0.02355751  1
  F  F3  1  0.25000000  0.22345837  0.47644249  1
  F  F4  1  0.49960403  0.84846651  0.85713993  1
  F  F5  1  0.00039597  0.34846651  0.64286007  1
  F  F6  1  0.50039597  0.15153349  0.14286007  1
  F  F7  1  0.99960403  0.65153349  0.35713993  1
  F  F8  1  0.75000000  0.90331879  0.04331327  1
  F  F9  1  0.75000000  0.40331879  0.45668673  1
  F  F10  1  0.25000000  0.09668121  0.95668673  1
  F  F11  1  0.25000000  0.59668121  0.54331327  1
  F  F12  1  0.99960403  0.15153349  0.14286007  1
  F  F13  1  0.50039597  0.65153349  0.35713993  1
  F  F14  1  0.00039597  0.84846651  0.85713993  1
  F  F15  1  0.49960403  0.34846651  0.64286007  1
  F  F16  1  0.53194623  0.88298244  0.65033102  1
  F  F17  1  0.96805377  0.38298244  0.84966898  1
  F  F18  1  0.46805377  0.11701756  0.34966898  1
  F  F19  1  0.03194623  0.61701756  0.15033102  1
  F  F20  1  0.75000000  0.15447504  0.82716468  1
  F  F21  1  0.75000000  0.65447504  0.67283532  1
  F  F22  1  0.25000000  0.84552496  0.17283532  1
  F  F23  1  0.25000000  0.34552496  0.32716468  1
  F  F24  1  0.03194623  0.11701756  0.34966898  1
  F  F25  1  0.46805377  0.61701756  0.15033102  1
  F  F26  1  0.96805377  0.88298244  0.65033102  1
  F  F27  1  0.53194623  0.38298244  0.84966898  1
loop_
_geom_bond_atom_site_label_1
_geom_bond_atom_site_label_2
_geom_bond_distance
_geom_bond_site_symmetry_2
B0 F27 1.403904 1_555
B0 F17 1.403904 1_555
B0 F20 1.410806 1_555
B0 F0 1.415558 1_555
B1 F16 1.403904 1_555
B1 F26 1.403904 1_555
B1 F21 1.410806 1_555
B1 F1 1.415558 1_555
B2 F19 1.403904 1_555
B2 F25 1.403904 1_555
B2 F22 1.410806 1_555
B2 F2 1.415558 1_555
B3 F18 1.403904 1_555
B3 F24 1.403904 1_555
B3 F23 1.410806 1_555
B3 F3 1.415558 1_555
F4 Sn2 2.112844 1_555
F4 Sn6 2.117936 1_565
F5 Sn3 2.112844 1_455
F5 Sn7 2.117936 1_555
F6 Sn0 2.112844 1_555
F6 Sn4 2.117936 1_545
F7 Sn1 2.112844 1_655
F7 Sn5 2.117936 1_555
F8 Sn2 2.103220 1_554
F8 Sn4 2.158194 1_555
F9 Sn3 2.103220 1_555
F9 Sn5 2.158194 1_555
F10 Sn0 2.103220 1_556
F10 Sn6 2.158194 1_555
F11 Sn1 2.103220 1_555
F11 Sn7 2.158194 1_555
F12 Sn0 2.112844 1_655
F12 Sn4 2.117936 1_545
F13 Sn1 2.112844 1_555
F13 Sn5 2.117936 1_555
F14 Sn2 2.112844 1_455
F14 Sn6 2.117936 1_565
F15 Sn3 2.112844 1_555
F15 Sn7 2.117936 1_555
