# generated using pymatgen
data_Np(CoSi)2
_symmetry_space_group_name_H-M   'P 1'
_cell_length_a   5.60637320
_cell_length_b   5.60637320
_cell_length_c   5.60637320
_cell_angle_alpha   139.82183996
_cell_angle_beta   139.82183996
_cell_angle_gamma   58.12390929
_symmetry_Int_Tables_number   1
_chemical_formula_structural   Np(CoSi)2
_chemical_formula_sum   'Np1 Co2 Si2'
_cell_volume   72.68910453
_cell_formula_units_Z   1
loop_
 _symmetry_equiv_pos_site_id
 _symmetry_equiv_pos_as_xyz
  1  'x, y, z'
loop_
 _atom_site_type_symbol
 _atom_site_label
 _atom_site_symmetry_multiplicity
 _atom_site_fract_x
 _atom_site_fract_y
 _atom_site_fract_z
 _atom_site_occupancy
  Np  Np0  1  -0.00000000  -0.00000000  0.00000000  1
  Co  Co0  1  0.75000000  0.25000000  0.50000000  1
  Co  Co1  1  0.25000000  0.75000000  0.50000000  1
  Si  Si0  1  0.62911992  0.62911992  0.00000000  1
  Si  Si1  1  0.37088008  0.37088008  -0.00000000  1
loop_
_geom_bond_atom_site_label_1
_geom_bond_atom_site_label_2
_geom_bond_distance
_geom_bond_site_symmetry_2
Np0 Si1 3.002998 1_545
Np0 Si1 3.002998 1_444
Np0 Si1 3.002998 1_455
Np0 Si1 3.002998 1_556
Np0 Si0 3.002998 1_444
Np0 Si0 3.002998 1_455
Np0 Si0 3.002998 1_545
Np0 Si0 3.002998 1_556
Co0 Si0 2.260945 1_545
Co0 Si0 2.260945 1_556
Co0 Si1 2.260945 1_555
Co0 Si1 2.260945 1_656
Co0 Np0 3.116405 1_666
Co0 Np0 3.116405 1_656
Co0 Np0 3.116405 1_655
Co0 Np0 3.116405 1_555
Co1 Si0 2.260945 1_455
Co1 Si0 2.260945 1_556
Co1 Si1 2.260945 1_555
Co1 Si1 2.260945 1_566
Co1 Np0 3.116405 1_555
Co1 Np0 3.116405 1_566
Co1 Np0 3.116405 1_565
Co1 Np0 3.116405 1_666
Si0 Si1 2.531010 1_555
