# generated using pymatgen
data_Li3Ni3(PO4)4
_symmetry_space_group_name_H-M   'P 1'
_cell_length_a   9.85573364
_cell_length_b   9.85573364
_cell_length_c   10.37816041
_cell_angle_alpha   89.05148633
_cell_angle_beta   89.05148633
_cell_angle_gamma   38.28347702
_symmetry_Int_Tables_number   1
_chemical_formula_structural   Li3Ni3(PO4)4
_chemical_formula_sum   'Li6 Ni6 P8 O32'
_cell_volume   624.46752531
_cell_formula_units_Z   2
loop_
 _symmetry_equiv_pos_site_id
 _symmetry_equiv_pos_as_xyz
  1  'x, y, z'
loop_
 _atom_site_type_symbol
 _atom_site_label
 _atom_site_symmetry_multiplicity
 _atom_site_fract_x
 _atom_site_fract_y
 _atom_site_fract_z
 _atom_site_occupancy
  Li  Li0  1  0.76432100  0.07619700  0.46092500  1
  Li  Li1  1  0.43560300  0.56439700  0.25000000  1
  Li  Li2  1  0.07619700  0.76432100  0.96092500  1
  Li  Li3  1  0.56439700  0.43560300  0.75000000  1
  Li  Li4  1  0.23567900  0.92380300  0.53907500  1
  Li  Li5  1  0.92380300  0.23567900  0.03907500  1
  Ni  Ni0  1  0.67697300  0.63603500  0.24828700  1
  Ni  Ni1  1  0.36396500  0.32302700  0.25171300  1
  Ni  Ni2  1  0.63603500  0.67697300  0.74828700  1
  Ni  Ni3  1  0.32302700  0.36396500  0.75171300  1
  Ni  Ni4  1  0.00000000  0.50000000  0.50000000  1
  Ni  Ni5  1  0.50000000  0.00000000  0.00000000  1
  P  P0  1  0.17928500  0.21621000  0.75339900  1
  P  P1  1  0.74654800  0.41330800  0.50596700  1
  P  P2  1  0.21621000  0.17928500  0.25339900  1
  P  P3  1  0.41330800  0.74654800  0.00596700  1
  P  P4  1  0.25345200  0.58669200  0.49403300  1
  P  P5  1  0.78379000  0.82071500  0.74660100  1
  P  P6  1  0.82071500  0.78379000  0.24660100  1
  P  P7  1  0.58669200  0.25345200  0.99403300  1
  O  O0  1  0.59244700  0.57873000  0.11107200  1
  O  O1  1  0.96019300  0.32979400  0.50710400  1
  O  O2  1  0.71936700  0.77102800  0.13744900  1
  O  O3  1  0.42127000  0.40755300  0.38892800  1
  O  O4  1  0.20381500  0.31200100  0.64342800  1
  O  O5  1  0.05396300  0.64162300  0.21020200  1
  O  O6  1  0.78315600  0.19079200  0.96115000  1
  O  O7  1  0.48127700  0.36917500  0.12667100  1
  O  O8  1  0.77102800  0.71936700  0.63744900  1
  O  O9  1  0.01188800  0.68765300  0.78600000  1
  O  O10  1  0.94603700  0.35837700  0.78979800  1
  O  O11  1  0.79618500  0.68799900  0.35657200  1
  O  O12  1  0.28063300  0.22897200  0.86255100  1
  O  O13  1  0.51872300  0.63082500  0.87332900  1
  O  O14  1  0.21684400  0.80920800  0.03885000  1
  O  O15  1  0.68799900  0.79618500  0.85657200  1
  O  O16  1  0.03980700  0.67020600  0.49289600  1
  O  O17  1  0.80920800  0.21684400  0.53885000  1
  O  O18  1  0.63082500  0.51872300  0.37332900  1
  O  O19  1  0.57873000  0.59244700  0.61107200  1
  O  O20  1  0.19079200  0.78315600  0.46115000  1
  O  O21  1  0.36917500  0.48127700  0.62667100  1
  O  O22  1  0.35837700  0.94603700  0.28979800  1
  O  O23  1  0.31200100  0.20381500  0.14342800  1
  O  O24  1  0.98811200  0.31234700  0.21400000  1
  O  O25  1  0.67020600  0.03980700  0.99289600  1
  O  O26  1  0.22897200  0.28063300  0.36255100  1
  O  O27  1  0.32979400  0.96019300  0.00710400  1
  O  O28  1  0.64162300  0.05396300  0.71020200  1
  O  O29  1  0.68765300  0.01188800  0.28600000  1
  O  O30  1  0.31234700  0.98811200  0.71400000  1
  O  O31  1  0.40755300  0.42127000  0.88892800  1
loop_
_geom_bond_atom_site_label_1
_geom_bond_atom_site_label_2
_geom_bond_distance
_geom_bond_site_symmetry_2
Li0 O17 1.944973 1_555
Li0 O29 2.259143 1_555
Li0 O3 2.307231 1_555
Li0 O16 2.534338 1_645
Li0 O20 2.636376 1_645
Li1 O7 2.060480 1_555
Li1 O18 2.060480 1_555
Li1 O3 2.179589 1_555
Li1 O0 2.179589 1_555
Li2 O14 1.944973 1_556
Li2 O9 2.259143 1_555
Li2 O31 2.307231 1_555
Li2 O25 2.534338 1_465
Li2 O6 2.636376 1_465
Li3 O21 2.060480 1_555
Li3 O13 2.060480 1_555
Li3 O31 2.179589 1_555
Li3 O19 2.179589 1_555
Li4 O20 1.944973 1_555
Li4 O30 2.259143 1_555
Li4 O19 2.307231 1_555
Li4 O1 2.534338 1_465
Li4 O17 2.636376 1_465
Li5 O6 1.944973 1_554
Li5 O24 2.259143 1_555
Li5 O0 2.307231 1_555
Li5 O27 2.534338 1_645
Li5 O14 2.636376 1_645
Ni0 O0 1.960973 1_555
Ni0 O11 1.978152 1_555
Ni0 O18 1.996005 1_555
Ni0 O2 2.018413 1_555
Ni0 O22 2.077903 1_555
Ni0 O24 2.085861 1_555
Ni1 O3 1.960973 1_555
Ni1 O23 1.978152 1_555
Ni1 O7 1.996005 1_555
Ni1 O26 2.018413 1_555
Ni1 O5 2.077903 1_555
Ni1 O29 2.085861 1_555
Ni2 O19 1.960973 1_555
Ni2 O15 1.978152 1_555
Ni2 O13 1.996005 1_555
Ni2 O8 2.018413 1_555
Ni2 O10 2.077903 1_555
Ni2 O30 2.085861 1_555
Ni3 O31 1.960973 1_555
Ni3 O4 1.978152 1_555
Ni3 O21 1.996005 1_555
Ni3 O12 2.018413 1_555
Ni3 O28 2.077903 1_555
Ni3 O9 2.085861 1_555
Ni4 O4 1.961744 1_555
Ni4 O11 1.961744 1_455
Ni4 O16 2.000383 1_555
Ni4 O1 2.000383 1_455
Ni4 O8 2.034137 1_455
Ni4 O26 2.034137 1_555
Ni5 O23 1.961744 1_555
Ni5 O15 1.961744 1_544
Ni5 O25 2.000383 1_554
Ni5 O27 2.000383 1_545
Ni5 O12 2.034137 1_554
Ni5 O2 2.034137 1_545
O0 P3 1.569155 1_555
O1 P1 1.546266 1_555
O2 P6 1.592540 1_555
O3 P4 1.569155 1_555
O4 P0 1.601820 1_555
O5 P6 1.524013 1_455
O6 P7 1.534575 1_555
O7 P7 1.555456 1_554
O8 P5 1.592540 1_555
O9 P5 1.524849 1_455
O10 P0 1.524013 1_655
O11 P6 1.601820 1_555
O12 P0 1.592540 1_555
O13 P3 1.555456 1_556
O14 P3 1.534575 1_555
O15 P5 1.601820 1_555
O16 P4 1.546266 1_555
O17 P1 1.534575 1_555
O18 P1 1.555456 1_555
O19 P1 1.569155 1_555
O20 P4 1.534575 1_555
O21 P4 1.555456 1_555
O22 P2 1.524013 1_565
O23 P2 1.601820 1_555
O24 P2 1.524849 1_655
O25 P7 1.546266 1_555
O26 P2 1.592540 1_555
O27 P3 1.546266 1_555
O28 P5 1.524013 1_545
O29 P6 1.524849 1_545
O30 P0 1.524849 1_565
O31 P7 1.569155 1_555
