# generated using pymatgen
data_CaIn2Pd
_symmetry_space_group_name_H-M   'P 1'
_cell_length_a   4.47532147
_cell_length_b   5.68610817
_cell_length_c   7.80954273
_cell_angle_alpha   89.99974757
_cell_angle_beta   90.00029285
_cell_angle_gamma   112.95174695
_symmetry_Int_Tables_number   1
_chemical_formula_structural   CaIn2Pd
_chemical_formula_sum   'Ca2 In4 Pd2'
_cell_volume   182.99790323
_cell_formula_units_Z   2
loop_
 _symmetry_equiv_pos_site_id
 _symmetry_equiv_pos_as_xyz
  1  'x, y, z'
loop_
 _atom_site_type_symbol
 _atom_site_label
 _atom_site_symmetry_multiplicity
 _atom_site_fract_x
 _atom_site_fract_y
 _atom_site_fract_z
 _atom_site_occupancy
  Ca  Ca0  1  0.06610937  0.13103554  0.74999987  1
  Ca  Ca1  1  0.93389054  0.86896460  0.25000002  1
  In  In0  1  0.35453081  0.70909464  0.94669401  1
  In  In1  1  0.64546927  0.29090537  0.05331025  1
  In  In2  1  0.64546930  0.29090542  0.44668997  1
  In  In3  1  0.35453071  0.70909455  0.55330583  1
  Pd  Pd0  1  0.78389873  0.56630009  0.75000114  1
  Pd  Pd1  1  0.21610128  0.43369979  0.24999892  1
loop_
_geom_bond_atom_site_label_1
_geom_bond_atom_site_label_2
_geom_bond_distance
_geom_bond_site_symmetry_2
Ca0 Pd0 2.956952 1_445
Ca0 Pd0 3.187230 1_455
Ca0 Pd0 3.200614 1_555
Ca0 In2 3.363855 1_455
Ca0 In1 3.363876 1_456
Ca0 In1 3.364760 1_556
Ca0 In2 3.364771 1_555
Ca0 In3 3.394187 1_555
Ca0 In0 3.394195 1_555
Ca0 In0 3.492429 1_545
Ca0 In3 3.492444 1_545
Ca0 In3 3.506884 1_445
Ca0 In0 3.506889 1_445
Ca1 Pd1 2.956950 1_665
Ca1 Pd1 3.187232 1_655
Ca1 Pd1 3.200614 1_555
Ca1 In3 3.363833 1_655
Ca1 In0 3.363853 1_654
Ca1 In0 3.364736 1_554
Ca1 In3 3.364748 1_555
Ca1 In2 3.394173 1_555
Ca1 In1 3.394180 1_555
Ca1 In1 3.492413 1_565
Ca1 In2 3.492429 1_565
Ca1 In2 3.506870 1_665
Ca1 In1 3.506874 1_665
In0 Pd1 2.773069 1_556
In0 Pd0 2.814838 1_455
In0 Pd0 2.815680 1_555
In1 Pd0 2.773096 1_554
In1 Pd1 2.814820 1_655
In1 Pd1 2.815662 1_555
In2 Pd0 2.773116 1_555
In2 Pd1 2.814841 1_655
In2 Pd1 2.815657 1_555
In3 Pd1 2.773088 1_555
In3 Pd0 2.814859 1_455
In3 Pd0 2.815675 1_555
