# generated using pymatgen
data_Na3Ca3HfPS5O24
_symmetry_space_group_name_H-M   'P 1'
_cell_length_a   9.18319685
_cell_length_b   9.17476467
_cell_length_c   23.77188424
_cell_angle_alpha   89.90394898
_cell_angle_beta   90.18287359
_cell_angle_gamma   120.30942623
_symmetry_Int_Tables_number   1
_chemical_formula_structural   Na3Ca3HfPS5O24
_chemical_formula_sum   'Na9 Ca9 Hf3 P3 S15 O72'
_cell_volume   1729.09266033
_cell_formula_units_Z   3
loop_
 _symmetry_equiv_pos_site_id
 _symmetry_equiv_pos_as_xyz
  1  'x, y, z'
loop_
 _atom_site_type_symbol
 _atom_site_label
 _atom_site_symmetry_multiplicity
 _atom_site_fract_x
 _atom_site_fract_y
 _atom_site_fract_z
 _atom_site_occupancy
  Na  Na0  1  0.35971873  0.35846463  0.25249354  1
  Na  Na1  1  0.03100148  0.69913211  0.58487475  1
  Na  Na2  1  0.29664761  0.96091494  0.07509324  1
  Na  Na3  1  0.98504147  0.00084949  0.50149897  1
  Na  Na4  1  0.00104794  0.01561314  0.98766701  1
  Na  Na5  1  0.66460410  0.32522781  0.82709983  1
  Na  Na6  1  0.68430002  0.33005945  0.33242767  1
  Na  Na7  1  0.33164396  0.66532067  0.17010645  1
  Na  Na8  1  0.37040746  0.66281925  0.66590476  1
  Ca  Ca0  1  0.99367219  0.99153206  0.35164507  1
  Ca  Ca1  1  0.00483396  0.00330474  0.85098274  1
  Ca  Ca2  1  0.99076589  0.00413503  0.65194726  1
  Ca  Ca3  1  0.98492265  0.99495104  0.14681415  1
  Ca  Ca4  1  0.65984457  0.33242260  0.68666591  1
  Ca  Ca5  1  0.68069502  0.33837986  0.18434135  1
  Ca  Ca6  1  0.33048666  0.65707946  0.01433021  1
  Ca  Ca7  1  0.34644762  0.66443616  0.51618113  1
  Ca  Ca8  1  0.33409744  0.67820723  0.32267796  1
  Hf  Hf0  1  0.67137639  0.33222796  0.97468231  1
  Hf  Hf1  1  0.66108417  0.33647654  0.48494414  1
  Hf  Hf2  1  0.32462011  0.66760429  0.82277132  1
  P  P0  1  0.67299601  0.63064577  0.58330912  1
  P  P1  1  0.03136153  0.37048000  0.91811054  1
  P  P2  1  0.33852500  0.96584443  0.92148147  1
  S  S0  1  0.29873706  0.00045532  0.24690138  1
  S  S1  1  0.68964492  0.69271772  0.25040497  1
  S  S2  1  0.00728449  0.30311557  0.25116742  1
  S  S3  1  0.30257099  0.31703301  0.75379392  1
  S  S4  1  0.01172752  0.69794391  0.75158348  1
  S  S5  1  0.68424098  0.98738685  0.75427580  1
  S  S6  1  0.95418294  0.33331442  0.58062860  1
  S  S7  1  0.36880089  0.03817320  0.58093888  1
  S  S8  1  0.96062493  0.62888476  0.07904905  1
  S  S9  1  0.66614178  0.04627595  0.07881881  1
  S  S10  1  0.38055919  0.33076973  0.08199411  1
  S  S11  1  0.62448619  0.65670012  0.91727952  1
  S  S12  1  0.64017769  0.98497918  0.41947443  1
  S  S13  1  0.34084610  0.35922127  0.41664668  1
  S  S14  1  0.02047648  0.65742470  0.42222415  1
  O  O0  1  0.20579329  0.01387171  0.29557315  1
  O  O1  1  0.78671791  0.77803492  0.30120037  1
  O  O2  1  0.99384093  0.20410002  0.30174215  1
  O  O3  1  0.21574927  0.20932162  0.80211318  1
  O  O4  1  0.99139902  0.78971070  0.79832927  1
  O  O5  1  0.79238162  0.00824897  0.80249240  1
  O  O6  1  0.75215229  0.96017670  0.70118615  1
  O  O7  1  0.20589336  0.24769019  0.70086959  1
  O  O8  1  0.03935722  0.78935428  0.69732303  1
  O  O9  1  0.77303076  0.78704457  0.19868762  1
  O  O10  1  0.02073703  0.21872019  0.19963880  1
  O  O11  1  0.20756074  0.98729731  0.19340600  1
  O  O12  1  0.87387864  0.34550133  0.63209204  1
  O  O13  1  0.46467454  0.11500159  0.63239550  1
  O  O14  1  0.66664758  0.53474087  0.63619566  1
  O  O15  1  0.88058068  0.53955016  0.13151516  1
  O  O16  1  0.65250030  0.12663548  0.13055595  1
  O  O17  1  0.46597372  0.34105077  0.13594049  1
  O  O18  1  0.48474135  0.32543593  0.03359008  1
  O  O19  1  0.85733661  0.52911051  0.02925332  1
  O  O20  1  0.67447763  0.15283742  0.02874212  1
  O  O21  1  0.46861894  0.14161549  0.53029988  1
  O  O22  1  0.67340438  0.51936224  0.53073808  1
  O  O23  1  0.84575648  0.32093154  0.53021318  1
  O  O24  1  0.55373169  0.67980210  0.96894144  1
  O  O25  1  0.13057690  0.44644237  0.97137271  1
  O  O26  1  0.32285065  0.87745332  0.97728229  1
  O  O27  1  0.55377840  0.87919624  0.46830483  1
  O  O28  1  0.32190353  0.44987885  0.46413378  1
  O  O29  1  0.11966261  0.67589253  0.47312918  1
  O  O30  1  0.09731590  0.63193459  0.37136703  1
  O  O31  1  0.54219743  0.91424878  0.36709316  1
  O  O32  1  0.37040133  0.45408829  0.36320397  1
  O  O33  1  0.12847441  0.48946361  0.86629030  1
  O  O34  1  0.36145184  0.86410416  0.87144253  1
  O  O35  1  0.51217156  0.63223827  0.86768088  1
  O  O36  1  0.99539207  0.80342643  0.41692227  1
  O  O37  1  0.81202744  0.01013394  0.41589611  1
  O  O38  1  0.19528769  0.18672760  0.41408534  1
  O  O39  1  0.99289739  0.19065860  0.90969027  1
  O  O40  1  0.19072992  0.99327569  0.91170478  1
  O  O41  1  0.79571426  0.79738219  0.90902188  1
  O  O42  1  0.97306085  0.18321733  0.57943302  1
  O  O43  1  0.20359591  0.03095158  0.58012530  1
  O  O44  1  0.84448814  0.79938832  0.57899596  1
  O  O45  1  0.97581405  0.79867958  0.07720457  1
  O  O46  1  0.81889619  0.03236655  0.07776683  1
  O  O47  1  0.21565127  0.16786831  0.07943266  1
  O  O48  1  0.65906764  0.13425162  0.75017435  1
  O  O49  1  0.47481823  0.34228062  0.75050385  1
  O  O50  1  0.86727131  0.52388218  0.74937334  1
  O  O51  1  0.66617226  0.51835480  0.24917553  1
  O  O52  1  0.85936193  0.32710251  0.24904457  1
  O  O53  1  0.46693384  0.16101746  0.24683963  1
  O  O54  1  0.63096385  0.49423886  0.92192949  1
  O  O55  1  0.85692210  0.36946731  0.92240227  1
  O  O56  1  0.50860979  0.14534075  0.92353907  1
  O  O57  1  0.65652706  0.15708930  0.42659599  1
  O  O58  1  0.49742071  0.34424033  0.42582057  1
  O  O59  1  0.84668944  0.49915113  0.42728306  1
  O  O60  1  0.35664553  0.47712052  0.07798044  1
  O  O61  1  0.13390560  0.65418604  0.07774772  1
  O  O62  1  0.51021723  0.87862609  0.07578501  1
  O  O63  1  0.33899035  0.86412898  0.57560362  1
  O  O64  1  0.51992507  0.65403181  0.57885377  1
  O  O65  1  0.11868162  0.49253425  0.57502078  1
  O  O66  1  0.32186986  0.85224219  0.25149077  1
  O  O67  1  0.51567008  0.66960307  0.25249031  1
  O  O68  1  0.16735230  0.47163513  0.25366102  1
  O  O69  1  0.32001947  0.48989043  0.76244231  1
  O  O70  1  0.17054049  0.68676711  0.76213173  1
  O  O71  1  0.51213838  0.83009539  0.76293042  1
loop_
_geom_bond_atom_site_label_1
_geom_bond_atom_site_label_2
_geom_bond_distance
_geom_bond_site_symmetry_2
Na0 O51 2.431494 1_555
Na0 O68 2.459935 1_555
Na0 O53 2.463943 1_555
Na0 O67 2.464446 1_555
Na0 O32 2.761321 1_555
Na0 O0 2.920609 1_555
Na0 O17 2.971603 1_555
Na0 O10 2.977396 1_555
Na1 O44 2.321095 1_455
Na1 O65 2.416449 1_555
Na1 O63 2.453759 1_555
Na1 O43 2.631109 1_565
Na1 O8 2.789012 1_555
Na1 O29 2.820598 1_555
Na2 O47 2.365538 1_565
Na2 O62 2.431268 1_555
Na2 O61 2.431460 1_555
Na2 O26 2.499221 1_554
Na2 O45 2.544190 1_455
Na3 O44 2.464152 1_545
Na3 O42 2.537994 1_555
Na3 O37 2.605375 1_555
Na3 O43 2.648823 1_655
Na3 O36 2.742150 1_545
Na3 O38 2.764857 1_655
Na4 O39 2.476154 1_455
Na4 O40 2.592026 1_545
Na4 O41 2.690538 1_445
Na4 O46 2.773562 1_456
Na4 O47 2.792488 1_556
Na4 O45 2.840579 1_446
Na5 O48 2.517320 1_555
Na5 O49 2.575152 1_555
Na5 O50 2.605109 1_555
Na5 O56 2.766532 1_555
Na5 O55 2.769552 1_555
Na5 O54 2.842772 1_555
Na6 O52 2.564909 1_555
Na6 O57 2.679150 1_555
Na6 O51 2.684322 1_555
Na6 O59 2.714830 1_555
Na6 O53 2.718329 1_555
Na6 O58 2.853368 1_555
Na7 O67 2.570017 1_555
Na7 O68 2.584658 1_555
Na7 O66 2.619094 1_555
Na7 O61 2.813590 1_555
Na7 O60 2.871645 1_555
Na7 O62 2.883765 1_555
Na8 O64 2.510871 1_555
Na8 O69 2.692841 1_555
Na8 O71 2.710311 1_555
Na8 O63 2.936519 1_555
Na8 O65 2.964191 1_555
Na8 O70 3.014166 1_555
Ca0 O1 2.263323 1_555
Ca0 O2 2.280351 1_565
Ca0 O0 2.286025 1_665
Ca0 O36 2.324879 1_555
Ca0 O37 2.334300 1_565
Ca0 O38 2.341591 1_665
Ca1 O3 2.232843 1_555
Ca1 O39 2.261326 1_455
Ca1 O40 2.269079 1_545
Ca1 O4 2.277155 1_445
Ca1 O5 2.282971 1_455
Ca1 O41 2.346699 1_445
Ca2 O6 2.336030 1_545
Ca2 O7 2.405602 1_655
Ca2 O44 2.406186 1_545
Ca2 O42 2.440460 1_555
Ca2 O8 2.474486 1_645
Ca2 O43 2.515950 1_655
Ca3 O9 2.281783 1_555
Ca3 O10 2.285709 1_665
Ca3 O11 2.354135 1_655
Ca3 O46 2.376333 1_565
Ca3 O45 2.417634 1_555
Ca3 O47 2.488439 1_665
Ca4 O14 2.182861 1_555
Ca4 O13 2.289344 1_555
Ca4 O12 2.310499 1_555
Ca4 O49 2.317374 1_555
Ca4 O50 2.355743 1_555
Ca4 O48 2.358562 1_555
Ca5 O15 2.222681 1_555
Ca5 O16 2.230342 1_555
Ca5 O52 2.285437 1_555
Ca5 O17 2.290575 1_555
Ca5 O51 2.313406 1_555
Ca5 O53 2.344151 1_555
Ca6 O25 2.135760 1_554
Ca6 O24 2.234402 1_554
Ca6 O26 2.237248 1_554
Ca6 O60 2.337271 1_555
Ca6 O61 2.345462 1_555
Ca6 O62 2.366083 1_555
Ca7 O64 2.214614 1_555
Ca7 O28 2.239468 1_555
Ca7 O27 2.241092 1_555
Ca7 O63 2.343659 1_555
Ca7 O65 2.345294 1_555
Ca7 O29 2.367002 1_555
Ca8 O31 2.296585 1_555
Ca8 O30 2.308813 1_555
Ca8 O66 2.365708 1_555
Ca8 O68 2.386139 1_555
Ca8 O67 2.391953 1_555
Ca8 O32 2.439384 1_555
Hf0 O55 1.997262 1_555
Hf0 O56 2.015151 1_555
Hf0 O20 2.097895 1_556
Hf0 O54 2.113602 1_555
Hf0 O19 2.177666 1_556
Hf0 O18 2.193072 1_556
Hf1 O22 1.956286 1_555
Hf1 O23 2.070357 1_555
Hf1 O21 2.073391 1_555
Hf1 O58 2.081718 1_555
Hf1 O59 2.109968 1_555
Hf1 O57 2.138267 1_555
Hf2 O33 2.005186 1_555
Hf2 O34 2.022948 1_555
Hf2 O70 2.085226 1_555
Hf2 O71 2.151467 1_555
Hf2 O69 2.157527 1_555
Hf2 O35 2.182335 1_555
O0 S0 1.481610 1_555
O1 S1 1.468823 1_555
O2 S2 1.473099 1_655
O3 S3 1.462334 1_555
O4 S4 1.463440 1_655
O5 S5 1.462267 1_545
O6 S5 1.485674 1_555
O7 S3 1.483663 1_555
O8 S4 1.488354 1_555
O9 S1 1.476604 1_555
O10 S2 1.488613 1_555
O11 S0 1.491479 1_565
O12 S6 1.463709 1_555
O13 S7 1.462157 1_555
O14 P0 1.517629 1_555
O15 S8 1.470366 1_555
O16 S9 1.472803 1_555
O17 S10 1.479196 1_555
O18 S10 1.515321 1_555
O19 S8 1.502986 1_555
O20 S9 1.516557 1_555
O21 S7 1.521575 1_555
O22 P0 1.616295 1_555
O23 S6 1.522931 1_555
O24 S11 1.456127 1_555
O25 P1 1.507860 1_555
O26 P2 1.522418 1_555
O27 S12 1.464157 1_555
O28 S13 1.465213 1_555
O29 S14 1.469895 1_555
O30 S14 1.478910 1_555
O31 S12 1.479001 1_555
O32 S13 1.485021 1_555
O33 P1 1.588829 1_555
O34 P2 1.591944 1_555
O35 S11 1.504599 1_555
O36 S14 1.474446 1_655
O37 S12 1.477893 1_545
O38 S13 1.469576 1_555
O39 P1 1.516309 1_655
O40 P2 1.517232 1_555
O41 S11 1.459320 1_555
O42 S6 1.472551 1_555
O43 S7 1.484839 1_555
O44 P0 1.557911 1_555
O45 S8 1.492881 1_555
O46 S9 1.471600 1_555
O47 S10 1.498681 1_555
O48 S5 1.480670 1_545
O49 S3 1.480779 1_555
O50 S4 1.474595 1_655
O51 S1 1.502847 1_555
O52 S2 1.482397 1_655
O53 S0 1.503071 1_555
O54 S11 1.525247 1_555
O55 P1 1.600823 1_655
O56 P2 1.599248 1_545
O57 S12 1.518586 1_545
O58 S13 1.526843 1_555
O59 S14 1.526961 1_655
O60 S10 1.468783 1_555
O61 S8 1.488099 1_455
O62 S9 1.482595 1_565
O63 S7 1.483268 1_565
O64 P0 1.528590 1_555
O65 S6 1.485598 1_455
O66 S0 1.482250 1_565
O67 S1 1.502795 1_555
O68 S2 1.503513 1_555
O69 S3 1.525613 1_555
O70 S4 1.532606 1_555
O71 S5 1.523725 1_555
