# generated using pymatgen
data_Ba2Mg(BiO3)2
_symmetry_space_group_name_H-M   'P 1'
_cell_length_a   6.19601964
_cell_length_b   6.19601946
_cell_length_c   7.51072299
_cell_angle_alpha   64.56155273
_cell_angle_beta   64.56155424
_cell_angle_gamma   61.34173851
_symmetry_Int_Tables_number   1
_chemical_formula_structural   Ba2Mg(BiO3)2
_chemical_formula_sum   'Ba2 Mg1 Bi2 O6'
_cell_volume   219.20781846
_cell_formula_units_Z   1
loop_
 _symmetry_equiv_pos_site_id
 _symmetry_equiv_pos_as_xyz
  1  'x, y, z'
loop_
 _atom_site_type_symbol
 _atom_site_label
 _atom_site_symmetry_multiplicity
 _atom_site_fract_x
 _atom_site_fract_y
 _atom_site_fract_z
 _atom_site_occupancy
  Ba  Ba0  1  0.27686623  0.27686623  0.19934396  1
  Ba  Ba1  1  0.70279415  0.70279415  0.95702171  1
  Mg  Mg0  1  0.90918958  0.90918958  0.32727189  1
  Bi  Bi0  1  0.06214477  0.06214477  0.84825009  1
  Bi  Bi1  1  0.50336357  0.50336357  0.49741042  1
  O  O0  1  0.18208440  0.68752996  0.83199381  1
  O  O1  1  0.27681557  0.78048523  0.27067782  1
  O  O2  1  0.68752996  0.18208440  0.83199381  1
  O  O3  1  0.24872481  0.24872481  0.55781857  1
  O  O4  1  0.78048523  0.27681557  0.27067782  1
  O  O5  1  0.74500173  0.74500173  0.29295709  1
loop_
_geom_bond_atom_site_label_1
_geom_bond_atom_site_label_2
_geom_bond_distance
_geom_bond_site_symmetry_2
Ba0 O3 2.555855 1_555
Ba0 O1 2.886427 1_545
Ba0 O4 2.886427 1_455
Ba0 O0 2.891249 1_554
Ba0 O2 2.891249 1_554
Ba0 O5 3.218811 1_545
Ba0 O5 3.218811 1_455
Ba0 O1 3.385160 1_555
Ba0 O4 3.385160 1_555
Ba1 O2 2.668523 1_565
Ba1 O0 2.668523 1_655
Ba1 O4 2.676134 1_556
Ba1 O1 2.676134 1_556
Ba1 O5 2.775288 1_556
Mg0 O5 1.891935 1_555
Mg0 O4 1.929301 1_565
Mg0 O1 1.929301 1_655
Bi0 O3 2.092918 1_555
Bi0 O0 2.113241 1_545
Bi0 O2 2.113241 1_455
Bi1 O5 2.245238 1_555
Bi1 O1 2.246854 1_555
Bi1 O4 2.246854 1_555
Bi1 O3 2.518360 1_555
Bi1 O2 2.750809 1_555
Bi1 O0 2.750809 1_555
