# generated using pymatgen
data_K2Mg(CoO2)2
_symmetry_space_group_name_H-M   'P 1'
_cell_length_a   6.68468770
_cell_length_b   6.68468760
_cell_length_c   9.98762970
_cell_angle_alpha   44.92240611
_cell_angle_beta   135.07759514
_cell_angle_gamma   152.65436360
_symmetry_Int_Tables_number   1
_chemical_formula_structural   K2Mg(CoO2)2
_chemical_formula_sum   'K2 Mg1 Co2 O4'
_cell_volume   140.39450421
_cell_formula_units_Z   1
loop_
 _symmetry_equiv_pos_site_id
 _symmetry_equiv_pos_as_xyz
  1  'x, y, z'
loop_
 _atom_site_type_symbol
 _atom_site_label
 _atom_site_symmetry_multiplicity
 _atom_site_fract_x
 _atom_site_fract_y
 _atom_site_fract_z
 _atom_site_occupancy
  K  K0  1  0.24233923  0.75766077  0.90545300  1
  K  K1  1  0.87815701  0.12184299  0.39556980  1
  Mg  Mg0  1  0.20618643  0.79381357  0.53637355  1
  Co  Co0  1  0.07398983  0.92601017  0.16686711  1
  Co  Co1  1  0.95200142  0.04799858  0.80575148  1
  O  O0  1  0.15389160  0.84610840  0.07708544  1
  O  O1  1  0.41668483  0.58331517  0.65419454  1
  O  O2  1  0.56814892  0.43185108  0.28128098  1
  O  O3  1  0.73776773  0.26223227  0.68635310  1
loop_
_geom_bond_atom_site_label_1
_geom_bond_atom_site_label_2
_geom_bond_distance
_geom_bond_site_symmetry_2
K0 O3 2.664484 1_455
K0 O3 2.664484 1_565
K0 O0 2.670050 1_556
K0 O2 2.974739 1_556
K1 O1 2.745032 1_655
K1 O1 2.745032 1_545
K1 O0 2.756146 1_545
K1 O0 2.756146 1_655
Mg0 O3 2.003304 1_565
Mg0 O3 2.003304 1_455
Mg0 O1 2.042647 1_555
Mg0 O2 2.354770 1_455
Mg0 O2 2.354770 1_565
Co0 O0 1.799431 1_555
Co0 O2 1.983603 1_565
Co0 O2 1.983603 1_455
Co1 O0 1.965673 1_646
Co1 O1 1.996591 1_545
Co1 O1 1.996591 1_655
Co1 O3 2.080947 1_555
