# generated using pymatgen
data_TbB3H18C2S
_symmetry_space_group_name_H-M   'P 1'
_cell_length_a   5.53208640
_cell_length_b   22.73152400
_cell_length_c   8.18546859
_cell_angle_alpha   90.00000000
_cell_angle_beta   100.15300686
_cell_angle_gamma   90.00000000
_symmetry_Int_Tables_number   1
_chemical_formula_structural   TbB3H18C2S
_chemical_formula_sum   'Tb4 B12 H72 C8 S4'
_cell_volume   1013.22621242
_cell_formula_units_Z   4
loop_
 _symmetry_equiv_pos_site_id
 _symmetry_equiv_pos_as_xyz
  1  'x, y, z'
loop_
 _atom_site_type_symbol
 _atom_site_label
 _atom_site_symmetry_multiplicity
 _atom_site_fract_x
 _atom_site_fract_y
 _atom_site_fract_z
 _atom_site_occupancy
  Tb  Tb0  1  0.68121800  0.33406900  0.11771800  1
  Tb  Tb1  1  0.31878200  0.83406900  0.38228200  1
  Tb  Tb2  1  0.31878200  0.66593100  0.88228200  1
  Tb  Tb3  1  0.68121800  0.16593100  0.61771800  1
  B  B0  1  0.16551600  0.16816200  0.56528800  1
  B  B1  1  0.83448400  0.66816200  0.93471200  1
  B  B2  1  0.83448400  0.83183800  0.43471200  1
  B  B3  1  0.16551600  0.33183800  0.06528800  1
  B  B4  1  0.80085100  0.08347400  0.81325600  1
  B  B5  1  0.19914900  0.58347400  0.68674400  1
  B  B6  1  0.19914900  0.91652600  0.18674400  1
  B  B7  1  0.80085100  0.41652600  0.31325600  1
  B  B8  1  0.32192400  0.75494000  0.12292800  1
  B  B9  1  0.67807600  0.25494000  0.37707200  1
  B  B10  1  0.67807600  0.24506000  0.87707200  1
  B  B11  1  0.32192400  0.74506000  0.62292800  1
  H  H0  1  0.27943200  0.19555500  0.47374700  1
  H  H1  1  0.72056800  0.69555500  0.02625300  1
  H  H2  1  0.72056800  0.80444500  0.52625300  1
  H  H3  1  0.27943200  0.30444500  0.97374700  1
  H  H4  1  0.29492800  0.13491000  0.66147200  1
  H  H5  1  0.70507200  0.63491000  0.83852800  1
  H  H6  1  0.70507200  0.86509000  0.33852800  1
  H  H7  1  0.29492800  0.36509000  0.16147200  1
  H  H8  1  0.07505300  0.20483900  0.64721200  1
  H  H9  1  0.92494700  0.70483900  0.85278800  1
  H  H10  1  0.92494700  0.79516100  0.35278800  1
  H  H11  1  0.07505300  0.29516100  0.14721200  1
  H  H12  1  0.00796000  0.13789300  0.47809200  1
  H  H13  1  0.99204000  0.63789300  0.02190800  1
  H  H14  1  0.99204000  0.86210700  0.52190800  1
  H  H15  1  0.00796000  0.36210700  0.97809200  1
  H  H16  1  0.86119000  0.04241600  0.90402900  1
  H  H17  1  0.13881000  0.54241600  0.59597100  1
  H  H18  1  0.13881000  0.95758400  0.09597100  1
  H  H19  1  0.86119000  0.45758400  0.40402900  1
  H  H20  1  0.96090600  0.12202400  0.82328800  1
  H  H21  1  0.03909400  0.62202400  0.67671200  1
  H  H22  1  0.03909400  0.87797600  0.17671200  1
  H  H23  1  0.96090600  0.37797600  0.32328800  1
  H  H24  1  0.75767300  0.06823200  0.66483500  1
  H  H25  1  0.24232700  0.56823200  0.83516500  1
  H  H26  1  0.24232700  0.93176800  0.33516500  1
  H  H27  1  0.75767300  0.43176800  0.16483500  1
  H  H28  1  0.61218800  0.10823400  0.83997200  1
  H  H29  1  0.38781200  0.60823400  0.66002800  1
  H  H30  1  0.38781200  0.89176600  0.16002800  1
  H  H31  1  0.61218800  0.39176600  0.33997200  1
  H  H32  1  0.13114200  0.77271100  0.16328000  1
  H  H33  1  0.86885800  0.27271100  0.33672000  1
  H  H34  1  0.86885800  0.22728900  0.83672000  1
  H  H35  1  0.13114200  0.72728900  0.66328000  1
  H  H36  1  0.33788900  0.70193100  0.15284100  1
  H  H37  1  0.66211100  0.20193100  0.34715900  1
  H  H38  1  0.66211100  0.29806900  0.84715900  1
  H  H39  1  0.33788900  0.79806900  0.65284100  1
  H  H40  1  0.31283200  0.76619200  0.97485700  1
  H  H41  1  0.68716800  0.26619200  0.52514300  1
  H  H42  1  0.68716800  0.23380800  0.02514300  1
  H  H43  1  0.31283200  0.73380800  0.47485700  1
  H  H44  1  0.50774700  0.77845500  0.20050500  1
  H  H45  1  0.49225300  0.27845500  0.29949500  1
  H  H46  1  0.49225300  0.22154500  0.79949500  1
  H  H47  1  0.50774700  0.72154500  0.70050500  1
  H  H48  1  0.80487900  0.00999400  0.41295800  1
  H  H49  1  0.19512100  0.50999400  0.08704200  1
  H  H50  1  0.19512100  0.99000600  0.58704200  1
  H  H51  1  0.80487900  0.49000600  0.91295800  1
  H  H52  1  0.85647900  0.06003300  0.25288200  1
  H  H53  1  0.14352100  0.56003300  0.24711800  1
  H  H54  1  0.14352100  0.93996700  0.74711800  1
  H  H55  1  0.85647900  0.43996700  0.75288200  1
  H  H56  1  0.63398700  0.00189000  0.20793300  1
  H  H57  1  0.36601300  0.50189000  0.29206700  1
  H  H58  1  0.36601300  0.99811000  0.79206700  1
  H  H59  1  0.63398700  0.49811000  0.70793300  1
  H  H60  1  0.21733000  0.14483600  0.18622900  1
  H  H61  1  0.78267000  0.64483600  0.31377100  1
  H  H62  1  0.78267000  0.85516400  0.81377100  1
  H  H63  1  0.21733000  0.35516400  0.68622900  1
  H  H64  1  0.27417100  0.07969000  0.07645800  1
  H  H65  1  0.72582900  0.57969000  0.42354200  1
  H  H66  1  0.72582900  0.92031000  0.92354200  1
  H  H67  1  0.27417100  0.42031000  0.57645800  1
  H  H68  1  0.50193700  0.13699600  0.11317400  1
  H  H69  1  0.49806300  0.63699600  0.38682600  1
  H  H70  1  0.49806300  0.86300400  0.88682600  1
  H  H71  1  0.50193700  0.36300400  0.61317400  1
  C  C0  1  0.71886100  0.03374200  0.30126600  1
  C  C1  1  0.28113900  0.53374200  0.19873400  1
  C  C2  1  0.28113900  0.96625800  0.69873400  1
  C  C3  1  0.71886100  0.46625800  0.80126600  1
  C  C4  1  0.35849800  0.11353700  0.16366300  1
  C  C5  1  0.64150100  0.61353700  0.33633700  1
  C  C6  1  0.64150100  0.88646300  0.83633700  1
  C  C7  1  0.35849800  0.38646300  0.66366300  1
  S  S0  1  0.48114400  0.07942500  0.36007000  1
  S  S1  1  0.51885600  0.57942500  0.13993000  1
  S  S2  1  0.51885600  0.92057500  0.63993000  1
  S  S3  1  0.48114400  0.42057500  0.86007000  1
loop_
_geom_bond_atom_site_label_1
_geom_bond_atom_site_label_2
_geom_bond_distance
_geom_bond_site_symmetry_2
B0 H4 1.226792 1_555
B0 H0 1.229967 1_555
B0 H8 1.230263 1_555
B0 H12 1.234194 1_555
B1 H5 1.226792 1_555
B1 H1 1.229967 1_556
B1 H9 1.230263 1_555
B1 H13 1.234194 1_556
B2 H6 1.226792 1_555
B2 H2 1.229967 1_555
B2 H10 1.230263 1_555
B2 H14 1.234194 1_555
B3 H7 1.226792 1_555
B3 H3 1.229967 1_554
B3 H11 1.230263 1_555
B3 H15 1.234194 1_554
B4 H16 1.202967 1_555
B4 H20 1.238149 1_555
B4 H28 1.238701 1_555
B4 H24 1.245296 1_555
B5 H17 1.202967 1_555
B5 H21 1.238149 1_555
B5 H29 1.238701 1_555
B5 H25 1.245296 1_555
B6 H18 1.202967 1_555
B6 H22 1.238149 1_555
B6 H30 1.238701 1_555
B6 H26 1.245296 1_555
B7 H19 1.202967 1_555
B7 H23 1.238149 1_555
B7 H31 1.238701 1_555
B7 H27 1.245296 1_555
B8 H32 1.228455 1_555
B8 H36 1.229672 1_555
B8 H40 1.231047 1_554
B8 H44 1.231087 1_555
B9 H33 1.228455 1_555
B9 H37 1.229672 1_555
B9 H41 1.231047 1_555
B9 H45 1.231087 1_555
B10 H34 1.228455 1_555
B10 H38 1.229672 1_555
B10 H42 1.231047 1_556
B10 H46 1.231087 1_555
B11 H35 1.228455 1_555
B11 H39 1.229672 1_555
B11 H43 1.231047 1_555
B11 H47 1.231087 1_555
H0 Tb3 2.420586 1_555
H1 Tb2 2.420586 1_554
H2 Tb1 2.420586 1_555
H3 Tb0 2.420586 1_556
H4 Tb3 2.337107 1_555
H5 Tb2 2.337107 1_555
H6 Tb1 2.337107 1_555
H7 Tb0 2.337107 1_555
H8 Tb3 2.324206 1_455
H9 Tb2 2.324206 1_655
H10 Tb1 2.324206 1_655
H11 Tb0 2.324206 1_455
H12 Tb3 2.389156 1_455
H13 Tb2 2.389156 1_654
H14 Tb1 2.389156 1_655
H15 Tb0 2.389156 1_456
H20 Tb3 2.302976 1_555
H21 Tb2 2.302976 1_555
H22 Tb1 2.302976 1_555
H23 Tb0 2.302976 1_555
H24 Tb3 2.280853 1_555
H25 Tb2 2.280853 1_555
H26 Tb1 2.280853 1_555
H27 Tb0 2.280853 1_555
H28 Tb3 2.328215 1_555
H29 Tb2 2.328215 1_555
H30 Tb1 2.328215 1_555
H31 Tb0 2.328215 1_555
H32 Tb1 2.362283 1_555
H33 Tb0 2.362283 1_555
H34 Tb3 2.362283 1_555
H35 Tb2 2.362283 1_555
H36 Tb2 2.345847 1_554
H37 Tb3 2.345847 1_555
H38 Tb0 2.345847 1_556
H39 Tb1 2.345847 1_555
H40 Tb2 2.403814 1_555
H41 Tb3 2.403814 1_555
H42 Tb0 2.403814 1_555
H43 Tb1 2.403814 1_555
H44 Tb1 2.335228 1_555
H45 Tb0 2.335228 1_555
H46 Tb3 2.335228 1_555
H47 Tb2 2.335228 1_555
C0 H52 1.095409 1_555
C0 H48 1.095596 1_555
C0 H56 1.096308 1_555
C0 S0 1.806275 1_555
C1 H53 1.095409 1_555
C1 H49 1.095596 1_555
C1 H57 1.096308 1_555
C1 S1 1.806275 1_555
C2 H54 1.095409 1_555
C2 H50 1.095596 1_555
C2 H58 1.096308 1_555
C2 S2 1.806275 1_555
C3 H55 1.095409 1_555
C3 H51 1.095596 1_555
C3 H59 1.096308 1_555
C3 S3 1.806275 1_555
C4 H68 1.095650 1_555
C4 H60 1.095929 1_555
C4 H64 1.096232 1_555
C4 S0 1.806018 1_555
C5 H69 1.095646 1_555
C5 H61 1.095933 1_555
C5 H65 1.096233 1_555
C5 S1 1.806016 1_555
C6 H70 1.095646 1_555
C6 H62 1.095933 1_555
C6 H66 1.096233 1_555
C6 S2 1.806016 1_555
C7 H71 1.095650 1_555
C7 H63 1.095929 1_555
C7 H67 1.096232 1_555
C7 S3 1.806018 1_555
S0 Tb3 2.952396 1_555
S1 Tb2 2.952396 1_554
S2 Tb1 2.952396 1_555
S3 Tb0 2.952396 1_556
