# generated using pymatgen
data_TbGePt
_symmetry_space_group_name_H-M   'P 1'
_cell_length_a   4.36941854
_cell_length_b   7.04948755
_cell_length_c   7.57526411
_cell_angle_alpha   90.00000000
_cell_angle_beta   90.00000000
_cell_angle_gamma   90.00000000
_symmetry_Int_Tables_number   1
_chemical_formula_structural   TbGePt
_chemical_formula_sum   'Tb4 Ge4 Pt4'
_cell_volume   233.33450927
_cell_formula_units_Z   4
loop_
 _symmetry_equiv_pos_site_id
 _symmetry_equiv_pos_as_xyz
  1  'x, y, z'
loop_
 _atom_site_type_symbol
 _atom_site_label
 _atom_site_symmetry_multiplicity
 _atom_site_fract_x
 _atom_site_fract_y
 _atom_site_fract_z
 _atom_site_occupancy
  Tb  Tb0  1  0.75000000  0.50334037  0.20524343  1
  Tb  Tb1  1  0.25000000  0.99665963  0.70524343  1
  Tb  Tb2  1  0.75000000  0.00334037  0.29475657  1
  Tb  Tb3  1  0.25000000  0.49665963  0.79475657  1
  Ge  Ge0  1  0.25000000  0.80997025  0.08780852  1
  Ge  Ge1  1  0.25000000  0.30997025  0.41219148  1
  Ge  Ge2  1  0.75000000  0.19002975  0.91219148  1
  Ge  Ge3  1  0.75000000  0.69002975  0.58780852  1
  Pt  Pt0  1  0.25000000  0.70531168  0.41667410  1
  Pt  Pt1  1  0.25000000  0.20531168  0.08332590  1
  Pt  Pt2  1  0.75000000  0.79468832  0.91667410  1
  Pt  Pt3  1  0.75000000  0.29468832  0.58332590  1
loop_
_geom_bond_atom_site_label_1
_geom_bond_atom_site_label_2
_geom_bond_distance
_geom_bond_site_symmetry_2
Ge0 Pt2 2.542672 1_454
Ge0 Pt2 2.542672 1_554
Ge0 Pt0 2.598197 1_555
Ge0 Pt1 2.787161 1_565
Ge0 Tb2 3.014764 1_565
Ge0 Tb2 3.014764 1_465
Ge0 Tb3 3.131521 1_554
Ge0 Tb1 3.182862 1_554
Ge0 Tb0 3.199498 1_555
Ge0 Tb0 3.199498 1_455
Ge1 Pt3 2.542672 1_455
Ge1 Pt3 2.542672 1_555
Ge1 Pt1 2.598197 1_555
Ge1 Pt0 2.787161 1_555
Ge1 Tb0 3.014764 1_555
Ge1 Tb0 3.014764 1_455
Ge1 Tb1 3.131521 1_545
Ge1 Tb3 3.182862 1_555
Ge1 Tb2 3.199498 1_555
Ge1 Tb2 3.199498 1_455
Ge2 Pt1 2.542672 1_656
Ge2 Pt1 2.542672 1_556
Ge2 Pt3 2.598197 1_555
Ge2 Pt2 2.787161 1_545
Ge2 Tb1 3.014764 1_545
Ge2 Tb1 3.014764 1_645
Ge2 Tb0 3.131521 1_556
Ge2 Tb2 3.182862 1_556
Ge2 Tb3 3.199498 1_555
Ge2 Tb3 3.199498 1_655
Ge3 Pt0 2.542672 1_655
Ge3 Pt0 2.542672 1_555
Ge3 Pt2 2.598197 1_555
Ge3 Pt3 2.787161 1_555
Ge3 Tb3 3.014764 1_555
Ge3 Tb3 3.014764 1_655
Ge3 Tb2 3.131521 1_565
Ge3 Tb0 3.182862 1_555
Ge3 Tb1 3.199498 1_555
Ge3 Tb1 3.199498 1_655
Pt0 Tb1 2.999477 1_555
Pt0 Tb0 3.060295 1_555
Pt0 Tb0 3.060295 1_455
Pt0 Tb2 3.168580 1_565
Pt0 Tb2 3.168580 1_465
Pt0 Tb3 3.219696 1_555
Pt1 Tb3 2.999477 1_554
Pt1 Tb2 3.060295 1_555
Pt1 Tb2 3.060295 1_455
Pt1 Tb0 3.168580 1_555
Pt1 Tb0 3.168580 1_455
Pt1 Tb1 3.219696 1_544
Pt2 Tb0 2.999477 1_556
Pt2 Tb1 3.060295 1_555
Pt2 Tb1 3.060295 1_655
Pt2 Tb3 3.168580 1_655
Pt2 Tb3 3.168580 1_555
Pt2 Tb2 3.219696 1_566
Pt3 Tb2 2.999477 1_555
Pt3 Tb3 3.060295 1_655
Pt3 Tb3 3.060295 1_555
Pt3 Tb1 3.168580 1_545
Pt3 Tb1 3.168580 1_645
Pt3 Tb0 3.219696 1_555
