# generated using pymatgen
data_Na6Si7Sn4Ge4S5O48
_symmetry_space_group_name_H-M   'P 1'
_cell_length_a   17.46964382
_cell_length_b   8.75565026
_cell_length_c   22.39535485
_cell_angle_alpha   89.84978121
_cell_angle_beta   89.25594709
_cell_angle_gamma   119.97038522
_symmetry_Int_Tables_number   1
_chemical_formula_structural   Na6Si7Sn4Ge4S5O48
_chemical_formula_sum   'Na18 Si21 Sn12 Ge12 S15 O144'
_cell_volume   2967.08456796
_cell_formula_units_Z   3
loop_
 _symmetry_equiv_pos_site_id
 _symmetry_equiv_pos_as_xyz
  1  'x, y, z'
loop_
 _atom_site_type_symbol
 _atom_site_label
 _atom_site_symmetry_multiplicity
 _atom_site_fract_x
 _atom_site_fract_y
 _atom_site_fract_z
 _atom_site_occupancy
  Na  Na0  1  0.99930318  0.63032162  0.25184713  1
  Na  Na1  1  0.49870234  0.63750132  0.24530791  1
  Na  Na2  1  0.99887988  0.35856163  0.75341188  1
  Na  Na3  1  0.49866426  0.36873525  0.75480758  1
  Na  Na4  1  0.66668950  0.31424914  0.91687646  1
  Na  Na5  1  0.16779345  0.02300428  0.41249146  1
  Na  Na6  1  0.99794583  0.98929071  0.50516185  1
  Na  Na7  1  0.49714443  0.99371322  0.49704451  1
  Na  Na8  1  0.99825728  0.00076439  0.99859749  1
  Na  Na9  1  0.49753425  0.00153632  0.00701631  1
  Na  Na10  1  0.33049838  0.33285668  0.83465011  1
  Na  Na11  1  0.83218048  0.33435957  0.83445901  1
  Na  Na12  1  0.33367981  0.33435841  0.32991643  1
  Na  Na13  1  0.83087887  0.32716164  0.33030304  1
  Na  Na14  1  0.17684825  0.67500256  0.16768785  1
  Na  Na15  1  0.66991461  0.66724817  0.16168831  1
  Na  Na16  1  0.17525538  0.67770080  0.66521961  1
  Na  Na17  1  0.67447682  0.67669427  0.66936482  1
  Si  Si0  1  0.14775684  0.01033851  0.24840839  1
  Si  Si1  1  0.63428133  0.00240723  0.25099802  1
  Si  Si2  1  0.35866099  0.71687395  0.24611945  1
  Si  Si3  1  0.85359018  0.71133976  0.24848544  1
  Si  Si4  1  0.99953275  0.28543840  0.24906072  1
  Si  Si5  1  0.13380880  0.26725382  0.75148966  1
  Si  Si6  1  0.64613637  0.28667313  0.74990418  1
  Si  Si7  1  0.49952115  0.71314361  0.74909689  1
  Si  Si8  1  0.35229053  0.99456764  0.74917088  1
  Si  Si9  1  0.85891450  0.99919274  0.74650668  1
  Si  Si10  1  0.18283169  0.03801548  0.58388187  1
  Si  Si11  1  0.83166969  0.63430656  0.58222570  1
  Si  Si12  1  0.48531450  0.62655390  0.08056344  1
  Si  Si13  1  0.33056598  0.02883017  0.08270700  1
  Si  Si14  1  0.68343522  0.32534045  0.08449548  1
  Si  Si15  1  0.81359277  0.68059215  0.91704843  1
  Si  Si16  1  0.02558432  0.38551887  0.92050374  1
  Si  Si17  1  0.51688618  0.37257638  0.91640118  1
  Si  Si18  1  0.31827893  0.95601419  0.41376654  1
  Si  Si19  1  0.01754934  0.65942928  0.41749970  1
  Si  Si20  1  0.52608528  0.66931339  0.42022934  1
  Sn  Sn0  1  0.99782717  0.99335336  0.35036038  1
  Sn  Sn1  1  0.49705482  0.99921516  0.85233969  1
  Sn  Sn2  1  0.32302911  0.32461937  0.69012726  1
  Sn  Sn3  1  0.82803864  0.33274014  0.68444819  1
  Sn  Sn4  1  0.33394080  0.32902325  0.18254089  1
  Sn  Sn5  1  0.82341935  0.32077348  0.19016242  1
  Sn  Sn6  1  0.83430721  0.34032150  0.98230795  1
  Sn  Sn7  1  0.33445627  0.32895041  0.48134811  1
  Sn  Sn8  1  0.16760059  0.67333497  0.30834392  1
  Sn  Sn9  1  0.66672600  0.67300661  0.31101396  1
  Sn  Sn10  1  0.16862583  0.66250875  0.81351493  1
  Sn  Sn11  1  0.66738073  0.66350156  0.80995923  1
  Ge  Ge0  1  0.49199008  0.95507725  0.35406800  1
  Ge  Ge1  1  0.99183465  0.03105260  0.85764998  1
  Ge  Ge2  1  0.99813861  0.99155933  0.64691869  1
  Ge  Ge3  1  0.49806697  0.99695202  0.66210169  1
  Ge  Ge4  1  0.99921401  0.00396992  0.15838155  1
  Ge  Ge5  1  0.49642747  0.97755306  0.13905174  1
  Ge  Ge6  1  0.35256806  0.33544359  0.98794626  1
  Ge  Ge7  1  0.83964226  0.36274560  0.48323714  1
  Ge  Ge8  1  0.16821883  0.66959164  0.01860350  1
  Ge  Ge9  1  0.66185509  0.62827770  0.01992227  1
  Ge  Ge10  1  0.17389351  0.70989092  0.51440057  1
  Ge  Ge11  1  0.66804182  0.66544201  0.51788882  1
  S  S0  1  0.49988151  0.27837956  0.25125821  1
  S  S1  1  0.00020349  0.71777459  0.75031437  1
  S  S2  1  0.48468748  0.33132312  0.58403132  1
  S  S3  1  0.98124733  0.33808322  0.57982400  1
  S  S4  1  0.68618109  0.03975151  0.57922415  1
  S  S5  1  0.33363288  0.63490678  0.58243705  1
  S  S6  1  0.98468927  0.63821298  0.08421989  1
  S  S7  1  0.83665123  0.03652032  0.08360914  1
  S  S8  1  0.18460369  0.33032190  0.07967113  1
  S  S9  1  0.31175232  0.65807252  0.92059187  1
  S  S10  1  0.16762149  0.96047761  0.91847163  1
  S  S11  1  0.66560917  0.95259547  0.91818775  1
  S  S12  1  0.81222390  0.96492236  0.42125527  1
  S  S13  1  0.16486798  0.38194391  0.42021386  1
  S  S14  1  0.66880307  0.37702534  0.41969967  1
  O  O0  1  0.11173550  0.04170827  0.31306164  1
  O  O1  1  0.59350227  0.03644910  0.31335776  1
  O  O2  1  0.41631001  0.78489564  0.30827734  1
  O  O3  1  0.91142051  0.78077895  0.30894235  1
  O  O4  1  0.48757617  0.17839012  0.30683878  1
  O  O5  1  0.97750395  0.17059600  0.31062503  1
  O  O6  1  0.09046404  0.14636035  0.81225581  1
  O  O7  1  0.60857860  0.17868830  0.81230197  1
  O  O8  1  0.47743201  0.78630738  0.80915999  1
  O  O9  1  0.98505758  0.79132742  0.80389748  1
  O  O10  1  0.41231403  0.04021323  0.80772756  1
  O  O11  1  0.91856413  0.04997949  0.80718181  1
  O  O12  1  0.39474160  0.95687872  0.68832108  1
  O  O13  1  0.90281028  0.96308122  0.68760664  1
  O  O14  1  0.07479527  0.18628594  0.69127010  1
  O  O15  1  0.58090692  0.19709727  0.69118701  1
  O  O16  1  0.01413675  0.81754117  0.69370332  1
  O  O17  1  0.51948558  0.83407591  0.68738953  1
  O  O18  1  0.40355197  0.84365386  0.18867628  1
  O  O19  1  0.89743896  0.83623624  0.18889767  1
  O  O20  1  0.01913237  0.20420861  0.18866672  1
  O  O21  1  0.51257347  0.20639281  0.19628565  1
  O  O22  1  0.07936218  0.96494924  0.19186999  1
  O  O23  1  0.57533615  0.96326155  0.19187808  1
  O  O24  1  0.44604095  0.36513024  0.63799930  1
  O  O25  1  0.94389679  0.37083642  0.63606687  1
  O  O26  1  0.25048611  0.12344942  0.63832722  1
  O  O27  1  0.73954567  0.11031044  0.63410073  1
  O  O28  1  0.31942910  0.52541341  0.63674718  1
  O  O29  1  0.80919649  0.50455756  0.63969426  1
  O  O30  1  0.44780636  0.50813432  0.14192343  1
  O  O31  1  0.94636691  0.52807273  0.13851387  1
  O  O32  1  0.30406138  0.10729377  0.13971974  1
  O  O33  1  0.82330069  0.11925993  0.13754013  1
  O  O34  1  0.23647257  0.36513159  0.13512811  1
  O  O35  1  0.75236962  0.37657362  0.13840324  1
  O  O36  1  0.22835818  0.30457030  0.02650827  1
  O  O37  1  0.72151420  0.28425111  0.02211675  1
  O  O38  1  0.41533781  0.53447976  0.02517638  1
  O  O39  1  0.92962358  0.55779354  0.03055752  1
  O  O40  1  0.34804698  0.15325193  0.02269374  1
  O  O41  1  0.85381358  0.15054263  0.02922105  1
  O  O42  1  0.22160646  0.15338286  0.52162320  1
  O  O43  1  0.73212745  0.15691000  0.52568761  1
  O  O44  1  0.35015244  0.55423376  0.52856215  1
  O  O45  1  0.85077386  0.54288491  0.52384416  1
  O  O46  1  0.42955339  0.30200159  0.53038252  1
  O  O47  1  0.92026259  0.30635468  0.52830702  1
  O  O48  1  0.26983289  0.69397810  0.97294271  1
  O  O49  1  0.76581823  0.71071836  0.97646960  1
  O  O50  1  0.09070070  0.48601115  0.97643634  1
  O  O51  1  0.58421234  0.46114735  0.97206127  1
  O  O52  1  0.15358205  0.84323914  0.97176779  1
  O  O53  1  0.65513343  0.84758182  0.97206846  1
  O  O54  1  0.27654376  0.83446430  0.47584943  1
  O  O55  1  0.77080305  0.84694882  0.47438956  1
  O  O56  1  0.15408161  0.46674810  0.47423956  1
  O  O57  1  0.65601413  0.46422120  0.47357845  1
  O  O58  1  0.08482494  0.70243346  0.47455675  1
  O  O59  1  0.59037911  0.69760089  0.47753635  1
  O  O60  1  0.05610159  0.62581693  0.35616181  1
  O  O61  1  0.56230992  0.62297661  0.35957044  1
  O  O62  1  0.24790808  0.87239147  0.36075993  1
  O  O63  1  0.76168942  0.88963766  0.36603409  1
  O  O64  1  0.17823522  0.48043234  0.36430501  1
  O  O65  1  0.68963306  0.48902624  0.36525007  1
  O  O66  1  0.05995645  0.49663443  0.85751013  1
  O  O67  1  0.55449437  0.48286175  0.85419478  1
  O  O68  1  0.18682912  0.88612787  0.86314867  1
  O  O69  1  0.67886460  0.88098255  0.86213289  1
  O  O70  1  0.26212561  0.63674353  0.86430561  1
  O  O71  1  0.74985252  0.62546114  0.85954647  1
  O  O72  1  0.01155285  0.84247700  0.41678062  1
  O  O73  1  0.52002687  0.84956159  0.41482750  1
  O  O74  1  0.41777634  0.98413350  0.40582079  1
  O  O75  1  0.90125822  0.98437287  0.41777017  1
  O  O76  1  0.08573956  0.20067828  0.41843568  1
  O  O77  1  0.58910765  0.20598586  0.41568481  1
  O  O78  1  0.02043571  0.19339694  0.91573930  1
  O  O79  1  0.51089596  0.17792037  0.91578348  1
  O  O80  1  0.08555040  0.96592717  0.91350025  1
  O  O81  1  0.58588461  0.97448155  0.91599757  1
  O  O82  1  0.40045311  0.81774281  0.91696016  1
  O  O83  1  0.91445543  0.85203191  0.90710743  1
  O  O84  1  0.49382591  0.17214952  0.58895847  1
  O  O85  1  0.98648477  0.17599960  0.58431232  1
  O  O86  1  0.08564401  0.01875663  0.59365203  1
  O  O87  1  0.59875030  0.02595755  0.58443983  1
  O  O88  1  0.41354993  0.81186012  0.58715256  1
  O  O89  1  0.91978972  0.82604414  0.59011351  1
  O  O90  1  0.49043046  0.81549099  0.08523068  1
  O  O91  1  0.99358065  0.81531255  0.08888184  1
  O  O92  1  0.41892758  0.01626683  0.08955840  1
  O  O93  1  0.91837340  0.02199405  0.08812683  1
  O  O94  1  0.09539209  0.16901802  0.08570752  1
  O  O95  1  0.58621432  0.15690919  0.09418981  1
  O  O96  1  0.35061567  0.17655618  0.74324354  1
  O  O97  1  0.85686140  0.18531736  0.73843334  1
  O  O98  1  0.23348655  0.30073558  0.75001302  1
  O  O99  1  0.74273390  0.30446325  0.74703738  1
  O  O100  1  0.41474963  0.51657034  0.73983334  1
  O  O101  1  0.92313705  0.53283109  0.74420211  1
  O  O102  1  0.35385316  0.52501450  0.24111986  1
  O  O103  1  0.85097198  0.52483147  0.24349599  1
  O  O104  1  0.42187403  0.30816675  0.24878047  1
  O  O105  1  0.91483649  0.31353537  0.24093638  1
  O  O106  1  0.24399270  0.18361932  0.24476316  1
  O  O107  1  0.73446328  0.16687981  0.25098162  1
  O  O108  1  0.31583147  0.49541525  0.92672584  1
  O  O109  1  0.82088109  0.50044876  0.92359896  1
  O  O110  1  0.41882512  0.35662842  0.92347043  1
  O  O111  1  0.92552367  0.35216996  0.92631553  1
  O  O112  1  0.24568699  0.13799392  0.92519411  1
  O  O113  1  0.74515502  0.13543811  0.92047268  1
  O  O114  1  0.32095356  0.14515196  0.42226852  1
  O  O115  1  0.81761492  0.13888357  0.42923245  1
  O  O116  1  0.24465222  0.35853614  0.42292155  1
  O  O117  1  0.74918343  0.35520897  0.42692720  1
  O  O118  1  0.42630076  0.50161293  0.42699110  1
  O  O119  1  0.92012037  0.47703776  0.42562727  1
  O  O120  1  0.17462698  0.49153911  0.07393805  1
  O  O121  1  0.68021153  0.50896094  0.07737907  1
  O  O122  1  0.07302258  0.65143206  0.07583590  1
  O  O123  1  0.58457101  0.65410088  0.06847245  1
  O  O124  1  0.24101641  0.83133655  0.07004144  1
  O  O125  1  0.75609050  0.86493317  0.07782730  1
  O  O126  1  0.17504753  0.84034410  0.57659121  1
  O  O127  1  0.67773188  0.86191479  0.57347741  1
  O  O128  1  0.25038944  0.64190657  0.57648064  1
  O  O129  1  0.74181936  0.65051567  0.57017289  1
  O  O130  1  0.06996447  0.49521505  0.57242329  1
  O  O131  1  0.57330215  0.49472743  0.57577386  1
  O  O132  1  0.14837453  0.82557503  0.24904683  1
  O  O133  1  0.64231813  0.82134050  0.25471544  1
  O  O134  1  0.26142294  0.69240050  0.25250822  1
  O  O135  1  0.75580909  0.68988113  0.25325680  1
  O  O136  1  0.08583999  0.48040864  0.25253913  1
  O  O137  1  0.58032366  0.46321056  0.25477586  1
  O  O138  1  0.14246046  0.46477643  0.75463601  1
  O  O139  1  0.64906991  0.47418806  0.74885570  1
  O  O140  1  0.08043972  0.69685825  0.75294869  1
  O  O141  1  0.58635927  0.69234520  0.75196201  1
  O  O142  1  0.25460936  0.82089785  0.75287746  1
  O  O143  1  0.76142103  0.83265219  0.75237971  1
loop_
_geom_bond_atom_site_label_1
_geom_bond_atom_site_label_2
_geom_bond_distance
_geom_bond_site_symmetry_2
Na0 O103 2.285850 1_555
Na0 O132 2.292515 1_655
Na0 O105 2.419525 1_555
Na0 O136 2.447777 1_655
Na0 O60 2.557850 1_655
Na0 O31 2.710083 1_555
Na0 O3 2.775973 1_555
Na0 O22 2.860247 1_655
Na1 O102 2.213301 1_555
Na1 O133 2.216000 1_555
Na1 O104 2.500329 1_555
Na1 O30 2.548592 1_555
Na1 O137 2.566528 1_555
Na1 O23 2.735840 1_555
Na1 O2 2.745666 1_555
Na1 O61 2.830636 1_555
Na2 O138 2.197392 1_655
Na2 O97 2.198436 1_555
Na2 O101 2.478754 1_555
Na2 O140 2.566439 1_655
Na2 O66 2.612589 1_655
Na2 O11 2.621108 1_555
Na2 O14 2.816486 1_655
Na2 O25 2.829787 1_555
Na3 O96 2.293309 1_555
Na3 O139 2.310975 1_555
Na3 O100 2.417285 1_555
Na3 O67 2.449149 1_555
Na3 O141 2.457426 1_555
Na3 O10 2.748543 1_555
Na3 O24 2.779081 1_555
Na3 O15 2.909985 1_555
Na4 O109 2.358108 1_555
Na4 O79 2.364087 1_555
Na4 O113 2.546168 1_555
Na4 O81 2.578446 1_545
Na4 O7 2.607052 1_555
Na4 O37 2.616862 1_556
Na4 O51 2.659203 1_555
Na4 O71 2.676201 1_555
Na5 O114 2.346976 1_555
Na5 O72 2.374783 1_545
Na5 O0 2.481797 1_555
Na5 O116 2.561009 1_555
Na5 O76 2.591649 1_555
Na5 O62 2.617236 1_545
Na5 O42 2.676259 1_555
Na5 O58 2.788123 1_545
Na6 O89 2.344196 1_555
Na6 O72 2.435784 1_655
Na6 O86 2.455157 1_665
Na6 O85 2.487496 1_565
Na6 O76 2.572537 1_665
Na6 O75 2.588252 1_555
Na7 O73 2.374924 1_555
Na7 O74 2.462027 1_555
Na7 O77 2.505656 1_565
Na7 O88 2.514692 1_555
Na7 O87 2.579471 1_565
Na7 O84 2.604933 1_565
Na8 O78 2.397964 1_655
Na8 O93 2.488119 1_556
Na8 O83 2.494884 1_545
Na8 O80 2.538290 1_645
Na8 O94 2.541464 1_656
Na8 O91 2.564660 1_546
Na9 O92 2.330632 1_555
Na9 O90 2.348304 1_545
Na9 O95 2.459461 1_555
Na9 O79 2.495006 1_554
Na9 O81 2.622884 1_544
Na9 O82 2.629197 1_544
Na10 O110 2.478318 1_555
Na10 O98 2.480759 1_555
Na10 O112 2.568309 1_555
Na10 O96 2.581359 1_555
Na10 O108 2.590291 1_555
Na10 O100 2.607352 1_555
Na11 O99 2.452927 1_555
Na11 O113 2.513221 1_555
Na11 O109 2.535903 1_555
Na11 O111 2.598087 1_555
Na11 O101 2.601886 1_555
Na11 O97 2.658268 1_555
Na12 O106 2.420401 1_555
Na12 O104 2.451660 1_555
Na12 O102 2.498418 1_555
Na12 O114 2.583339 1_555
Na12 O116 2.655039 1_555
Na12 O118 2.688804 1_555
Na13 O107 2.385648 1_555
Na13 O103 2.501143 1_555
Na13 O105 2.504179 1_555
Na13 O119 2.601374 1_555
Na13 O117 2.655659 1_555
Na13 O115 2.695517 1_555
Na14 O134 2.379945 1_555
Na14 O132 2.439196 1_555
Na14 O136 2.497967 1_555
Na14 O124 2.509991 1_555
Na14 O120 2.635814 1_555
Na14 O122 2.699829 1_555
Na15 O121 2.402526 1_555
Na15 O125 2.468938 1_555
Na15 O135 2.506247 1_555
Na15 O123 2.550453 1_555
Na15 O133 2.651729 1_555
Na15 O137 2.662591 1_555
Na16 O142 2.386352 1_555
Na16 O126 2.440931 1_555
Na16 O128 2.473274 1_555
Na16 O138 2.587928 1_555
Na16 O140 2.612799 1_555
Na16 O130 2.726828 1_555
Na17 O143 2.375399 1_555
Na17 O139 2.384670 1_555
Na17 O141 2.438923 1_555
Na17 O129 2.564287 1_555
Na17 O127 2.670417 1_555
Na17 O131 2.712169 1_555
Ge0 O2 1.759217 1_555
Ge0 O1 1.782129 1_565
Ge0 O74 1.838748 1_555
Ge0 O73 1.846025 1_555
Ge0 O4 2.256017 1_565
Ge0 O77 2.441666 1_565
Ge1 O11 1.786583 1_555
Ge1 O6 1.797978 1_655
Ge1 O78 1.810948 1_655
Ge1 O83 1.829229 1_545
Ge1 O80 2.356295 1_645
Ge1 O9 2.374327 1_545
Ge2 O13 1.791763 1_555
Ge2 O86 1.845024 1_665
Ge2 O14 1.857168 1_665
Ge2 O89 1.914449 1_555
Ge2 O16 1.980423 1_655
Ge2 O85 2.222434 1_565
Ge3 O17 1.740361 1_555
Ge3 O12 1.750645 1_555
Ge3 O15 1.756769 1_565
Ge3 O84 2.268334 1_565
Ge3 O88 2.304720 1_555
Ge3 O87 2.378069 1_565
Ge4 O20 1.748636 1_655
Ge4 O19 1.771848 1_545
Ge4 O22 1.772997 1_645
Ge4 O93 2.184943 1_555
Ge4 O91 2.239606 1_545
Ge4 O94 2.247465 1_655
Ge5 O18 1.813271 1_555
Ge5 O90 1.827838 1_555
Ge5 O95 1.850847 1_565
Ge5 O23 1.878696 1_555
Ge5 O92 1.916258 1_565
Ge5 O21 2.279317 1_565
Ge6 O40 1.738535 1_556
Ge6 O38 1.748348 1_556
Ge6 O110 1.788821 1_555
Ge6 O36 2.211660 1_556
Ge6 O108 2.272528 1_555
Ge6 O112 2.303460 1_555
Ge7 O45 1.748768 1_555
Ge7 O119 1.784123 1_555
Ge7 O47 1.993806 1_555
Ge7 O117 2.009971 1_555
Ge7 O43 2.059681 1_555
Ge7 O115 2.173391 1_555
Ge8 O50 1.782055 1_554
Ge8 O124 1.788055 1_555
Ge8 O48 1.953329 1_554
Ge8 O52 1.965758 1_554
Ge8 O122 2.028112 1_555
Ge8 O120 2.036284 1_555
Ge9 O121 1.785601 1_555
Ge9 O51 1.786881 1_554
Ge9 O123 1.823274 1_555
Ge9 O49 1.845865 1_554
Ge9 O53 2.251014 1_554
Ge9 O125 2.312310 1_555
Ge10 O54 1.775252 1_555
Ge10 O58 1.776647 1_555
Ge10 O126 1.797481 1_555
Ge10 O56 2.177801 1_555
Ge10 O128 2.216254 1_555
Ge10 O130 2.243719 1_555
Ge11 O59 1.774514 1_555
Ge11 O129 1.804438 1_555
Ge11 O57 1.943613 1_555
Ge11 O55 1.947673 1_555
Ge11 O131 2.028902 1_555
Ge11 O127 2.064825 1_555
O0 Si0 1.648953 1_555
O0 Sn0 1.987484 1_445
O1 Si1 1.653856 1_555
O2 Si2 1.657788 1_555
O3 Si3 1.627776 1_555
O3 Sn0 1.959987 1_555
O4 S0 1.470157 1_555
O5 Si4 1.628640 1_555
O5 Sn0 1.969191 1_545
O6 Si5 1.646415 1_555
O7 Si6 1.620702 1_555
O7 Sn1 1.989360 1_545
O8 Si7 1.614520 1_555
O8 Sn1 1.976687 1_555
O9 S1 1.445971 1_655
O10 Si8 1.612076 1_545
O10 Sn1 1.971317 1_545
O11 Si9 1.645312 1_545
O12 Si8 1.654262 1_555
O13 Si9 1.626705 1_555
O14 Si5 1.641696 1_555
O15 Si6 1.671603 1_555
O16 S1 1.484389 1_555
O17 Si7 1.662360 1_555
O18 Si2 1.612063 1_555
O19 Si3 1.640844 1_555
O20 Si4 1.639746 1_455
O21 S0 1.448694 1_555
O22 Si0 1.660219 1_565
O23 Si1 1.617415 1_565
O24 S2 1.478030 1_555
O24 Sn2 2.297366 1_555
O25 S3 1.504008 1_555
O25 Sn3 2.156033 1_555
O26 Si10 1.613099 1_555
O26 Sn2 1.967989 1_555
O27 S4 1.489792 1_555
O27 Sn3 2.121994 1_555
O28 S5 1.486068 1_555
O28 Sn2 2.150662 1_555
O29 Si11 1.623194 1_555
O29 Sn3 1.967603 1_555
O30 Si12 1.638023 1_555
O30 Sn4 2.018041 1_555
O31 S6 1.477951 1_555
O31 Sn5 2.296754 1_555
O32 Si13 1.619781 1_555
O32 Sn4 1.992841 1_555
O33 S7 1.484614 1_555
O33 Sn5 2.123490 1_555
O34 S8 1.487200 1_555
O34 Sn4 2.170201 1_555
O35 Si14 1.615511 1_555
O35 Sn5 1.939908 1_555
O36 S8 1.484116 1_555
O37 Si14 1.655644 1_555
O37 Sn6 1.975884 1_554
O38 Si12 1.656186 1_555
O39 S6 1.491041 1_555
O39 Sn6 2.110853 1_554
O40 Si13 1.653995 1_555
O41 S7 1.501759 1_555
O41 Sn6 2.132339 1_554
O42 Si10 1.645518 1_555
O42 Sn7 1.995471 1_555
O43 S4 1.509962 1_555
O44 S5 1.495678 1_555
O44 Sn7 2.135901 1_555
O45 Si11 1.650051 1_555
O46 S2 1.490569 1_555
O46 Sn7 2.111686 1_555
O47 S3 1.510375 1_555
O48 S9 1.489742 1_555
O49 Si15 1.652272 1_555
O50 Si16 1.637095 1_555
O51 Si17 1.634148 1_555
O52 S10 1.507627 1_555
O53 S11 1.468095 1_555
O54 Si18 1.669730 1_555
O55 S12 1.493650 1_555
O56 S13 1.479640 1_555
O57 S14 1.502330 1_555
O58 Si19 1.659898 1_555
O59 Si20 1.652637 1_555
O60 Si19 1.613485 1_555
O60 Sn8 2.061030 1_555
O61 Si20 1.627149 1_555
O61 Sn9 1.962001 1_555
O62 Si18 1.612378 1_555
O62 Sn8 1.998592 1_555
O63 S12 1.481391 1_555
O63 Sn9 2.188529 1_555
O64 S13 1.466782 1_555
O64 Sn8 2.183193 1_555
O65 S14 1.485507 1_555
O65 Sn9 2.208348 1_555
O66 Si16 1.638434 1_555
O66 Sn10 1.968071 1_555
O67 Si17 1.624877 1_555
O67 Sn11 2.048613 1_555
O68 S10 1.510995 1_555
O68 Sn10 2.137455 1_555
O69 S11 1.471180 1_555
O69 Sn11 2.160446 1_555
O70 S9 1.497779 1_555
O70 Sn10 2.104240 1_555
O71 Si15 1.623201 1_555
O71 Sn11 1.984697 1_555
O72 Si19 1.657570 1_555
O72 Sn0 2.081032 1_455
O73 Si20 1.637906 1_555
O74 Si18 1.636380 1_555
O75 S12 1.478677 1_555
O75 Sn0 2.220817 1_555
O76 S13 1.497048 1_555
O76 Sn0 2.295238 1_445
O77 S14 1.452577 1_555
O78 Si16 1.642905 1_555
O79 Si17 1.654655 1_555
O79 Sn1 2.041586 1_545
O80 S10 1.463826 1_555
O81 S11 1.499094 1_555
O81 Sn1 2.208871 1_555
O82 S9 1.481209 1_555
O82 Sn1 2.170823 1_555
O83 Si15 1.659225 1_555
O84 S2 1.483886 1_555
O85 S3 1.470264 1_555
O86 Si10 1.631892 1_555
O87 S4 1.473812 1_555
O88 S5 1.484696 1_555
O89 Si11 1.626630 1_555
O90 Si12 1.615223 1_555
O91 S6 1.483268 1_555
O92 Si13 1.610651 1_555
O93 S7 1.499906 1_555
O94 S8 1.495404 1_555
O95 Si14 1.610234 1_555
O96 Si8 1.613401 1_545
O96 Sn2 1.989708 1_555
O97 Si9 1.657327 1_545
O97 Sn3 2.009567 1_555
O98 Si5 1.614841 1_555
O98 Sn2 1.976519 1_555
O99 Si6 1.615746 1_555
O99 Sn3 1.955046 1_555
O100 Si7 1.631482 1_555
O100 Sn2 1.999205 1_555
O101 S1 1.510383 1_655
O101 Sn3 2.186822 1_555
O102 Si2 1.643705 1_555
O102 Sn4 2.052826 1_555
O103 Si3 1.614849 1_555
O103 Sn5 2.004345 1_555
O104 S0 1.511691 1_555
O104 Sn4 2.220772 1_555
O105 Si4 1.628898 1_555
O105 Sn5 1.998852 1_555
O106 Si0 1.606966 1_555
O106 Sn4 1.991708 1_555
O107 Si1 1.618241 1_555
O107 Sn5 1.982208 1_555
O108 S9 1.467254 1_555
O109 Si15 1.650890 1_555
O109 Sn6 2.018980 1_555
O110 Si17 1.653207 1_555
O111 Si16 1.625339 1_655
O111 Sn6 1.976047 1_555
O112 S10 1.478881 1_545
O113 S11 1.508708 1_545
O113 Sn6 2.199791 1_555
O114 Si18 1.644819 1_545
O114 Sn7 2.008987 1_555
O115 S12 1.489730 1_545
O116 S13 1.508609 1_555
O116 Sn7 2.167505 1_555
O117 S14 1.519289 1_555
O118 Si20 1.628602 1_555
O118 Sn7 1.964165 1_555
O119 Si19 1.659861 1_655
O120 S8 1.511555 1_555
O121 Si14 1.643981 1_555
O122 S6 1.497959 1_455
O123 Si12 1.645535 1_555
O124 Si13 1.682042 1_565
O125 S7 1.465539 1_565
O126 Si10 1.675568 1_565
O127 S4 1.494910 1_565
O128 S5 1.493448 1_555
O129 Si11 1.670385 1_555
O130 S3 1.477867 1_455
O131 S2 1.501988 1_555
O132 Si0 1.623169 1_565
O132 Sn8 2.025520 1_555
O133 Si1 1.661925 1_565
O133 Sn9 2.004230 1_555
O134 Si2 1.606819 1_555
O134 Sn8 1.987534 1_555
O135 Si3 1.624551 1_555
O135 Sn9 1.958023 1_555
O136 Si4 1.620411 1_455
O136 Sn8 2.025411 1_555
O137 S0 1.526884 1_555
O137 Sn9 2.128416 1_555
O138 Si5 1.660882 1_555
O138 Sn10 2.044985 1_555
O139 Si6 1.616922 1_555
O139 Sn11 2.053282 1_555
O140 S1 1.503443 1_555
O140 Sn10 2.195157 1_555
O141 Si7 1.617757 1_555
O141 Sn11 2.038971 1_555
O142 Si8 1.623034 1_555
O142 Sn10 1.969664 1_555
O143 Si9 1.598827 1_555
O143 Sn11 2.014765 1_555
