# generated using pymatgen
data_Na3CaSn(PO4)3
_symmetry_space_group_name_H-M   'P 1'
_cell_length_a   9.21492745
_cell_length_b   9.23158931
_cell_length_c   22.47440138
_cell_angle_alpha   90.00000000
_cell_angle_beta   89.94021485
_cell_angle_gamma   120.05983316
_symmetry_Int_Tables_number   1
_chemical_formula_structural   Na3CaSn(PO4)3
_chemical_formula_sum   'Na18 Ca6 Sn6 P18 O72'
_cell_volume   1654.72064127
_cell_formula_units_Z   6
loop_
 _symmetry_equiv_pos_site_id
 _symmetry_equiv_pos_as_xyz
  1  'x, y, z'
loop_
 _atom_site_type_symbol
 _atom_site_label
 _atom_site_symmetry_multiplicity
 _atom_site_fract_x
 _atom_site_fract_y
 _atom_site_fract_z
 _atom_site_occupancy
  Na  Na0  1  0.98123705  0.96464929  0.49702260  1
  Na  Na1  1  0.98123705  0.01658775  0.99702260  1
  Na  Na2  1  0.66728394  0.33707320  0.83054085  1
  Na  Na3  1  0.66728394  0.33020974  0.33054085  1
  Na  Na4  1  0.33034908  0.66461050  0.16383930  1
  Na  Na5  1  0.33034908  0.66573958  0.66383930  1
  Na  Na6  1  0.36791695  0.35559083  0.24607519  1
  Na  Na7  1  0.98815101  0.64114209  0.24686748  1
  Na  Na8  1  0.98815101  0.34700891  0.74686748  1
  Na  Na9  1  0.36791695  0.01232612  0.74607519  1
  Na  Na10  1  0.31711253  0.34384430  0.57977097  1
  Na  Na11  1  0.65604194  0.96655453  0.57981775  1
  Na  Na12  1  0.31711253  0.97326723  0.07977097  1
  Na  Na13  1  0.65604194  0.68948642  0.07981775  1
  Na  Na14  1  0.98569146  0.68057437  0.91261339  1
  Na  Na15  1  0.32069460  0.29758260  0.91297130  1
  Na  Na16  1  0.98569146  0.30511809  0.41261339  1
  Na  Na17  1  0.32069460  0.02311300  0.41297130  1
  Ca  Ca0  1  0.98799095  0.99495977  0.35185202  1
  Ca  Ca1  1  0.98799095  0.99303118  0.85185202  1
  Ca  Ca2  1  0.67223598  0.34617149  0.68545299  1
  Ca  Ca3  1  0.67223598  0.32606349  0.18545299  1
  Ca  Ca4  1  0.32902757  0.66204814  0.01886631  1
  Ca  Ca5  1  0.32902757  0.66698043  0.51886631  1
  Sn  Sn0  1  0.99534822  0.99232490  0.65076425  1
  Sn  Sn1  1  0.99534822  0.00302332  0.15076425  1
  Sn  Sn2  1  0.67062961  0.32755675  0.98388310  1
  Sn  Sn3  1  0.67062961  0.34307186  0.48388310  1
  Sn  Sn4  1  0.34109551  0.67236030  0.31735259  1
  Sn  Sn5  1  0.34109551  0.66873621  0.81735259  1
  P  P0  1  0.28996443  0.98736987  0.25254355  1
  P  P1  1  0.69283988  0.70577917  0.24765614  1
  P  P2  1  0.01727278  0.31073369  0.25462166  1
  P  P3  1  0.28996443  0.30259456  0.75254355  1
  P  P4  1  0.01727278  0.70653908  0.75462166  1
  P  P5  1  0.69283988  0.98706071  0.74765614  1
  P  P6  1  0.96104505  0.31752108  0.58591417  1
  P  P7  1  0.36277015  0.04390096  0.58636201  1
  P  P8  1  0.67895684  0.63913626  0.58302282  1
  P  P9  1  0.96104505  0.64352297  0.08591417  1
  P  P10  1  0.67895684  0.03981957  0.08302282  1
  P  P11  1  0.36277015  0.31886819  0.08636201  1
  P  P12  1  0.62664400  0.65008472  0.92169905  1
  P  P13  1  0.02975207  0.37594137  0.91501505  1
  P  P14  1  0.34802232  0.97418425  0.91782373  1
  P  P15  1  0.62664400  0.97656028  0.42169905  1
  P  P16  1  0.34802232  0.37383907  0.41782373  1
  P  P17  1  0.02975207  0.65381170  0.41501505  1
  O  O0  1  0.20912932  0.00305847  0.30896831  1
  O  O1  1  0.80819542  0.79141320  0.29971613  1
  O  O2  1  0.00184476  0.22261421  0.31292864  1
  O  O3  1  0.20912932  0.20607085  0.80896831  1
  O  O4  1  0.00184476  0.77923055  0.81292864  1
  O  O5  1  0.80819542  0.01678222  0.79971613  1
  O  O6  1  0.77178575  0.96470476  0.68789592  1
  O  O7  1  0.17259866  0.21583236  0.69571965  1
  O  O8  1  0.04051191  0.82702534  0.70026602  1
  O  O9  1  0.77178575  0.80708098  0.18789592  1
  O  O10  1  0.04051191  0.21348657  0.20026602  1
  O  O11  1  0.17259866  0.95676630  0.19571965  1
  O  O12  1  0.88208033  0.33181355  0.64282781  1
  O  O13  1  0.45966754  0.12477086  0.64259930  1
  O  O14  1  0.64913827  0.53101047  0.63677626  1
  O  O15  1  0.88208033  0.55026578  0.14282781  1
  O  O16  1  0.64913827  0.11812680  0.13677626  1
  O  O17  1  0.45966754  0.33489568  0.14259930  1
  O  O18  1  0.44936364  0.28809930  0.02954786  1
  O  O19  1  0.84834376  0.55057912  0.02890971  1
  O  O20  1  0.70338525  0.14608649  0.02488040  1
  O  O21  1  0.44936364  0.16126334  0.52954786  1
  O  O22  1  0.70338525  0.55729776  0.52488040  1
  O  O23  1  0.84834376  0.29776363  0.52890971  1
  O  O24  1  0.55274396  0.66605551  0.97997560  1
  O  O25  1  0.13813337  0.46395354  0.96778195  1
  O  O26  1  0.32699408  0.87473753  0.97428200  1
  O  O27  1  0.55274396  0.88668944  0.47997560  1
  O  O28  1  0.32699408  0.45225755  0.47428200  1
  O  O29  1  0.13813337  0.67418083  0.46778195  1
  O  O30  1  0.11047331  0.62559981  0.35608305  1
  O  O31  1  0.50547956  0.88281407  0.36707807  1
  O  O32  1  0.36625961  0.48150257  0.36030521  1
  O  O33  1  0.11047331  0.48487449  0.85608305  1
  O  O34  1  0.36625961  0.88475804  0.86030521  1
  O  O35  1  0.50547956  0.62266649  0.86707807  1
  O  O36  1  0.00648511  0.80608161  0.41110731  1
  O  O37  1  0.80579796  0.01254371  0.41456881  1
  O  O38  1  0.19594087  0.19574360  0.41250476  1
  O  O39  1  0.00648511  0.20040350  0.91110731  1
  O  O40  1  0.19594087  0.00019728  0.91250476  1
  O  O41  1  0.80579796  0.79325425  0.91456881  1
  O  O42  1  0.96253471  0.14537471  0.58503878  1
  O  O43  1  0.18680238  0.03667118  0.58756891  1
  O  O44  1  0.84446197  0.81542793  0.58638146  1
  O  O45  1  0.96253471  0.81716001  0.08503878  1
  O  O46  1  0.84446197  0.02903404  0.08638146  1
  O  O47  1  0.18680238  0.15013120  0.08756891  1
  O  O48  1  0.66196680  0.13579084  0.74409941  1
  O  O49  1  0.46242190  0.31921075  0.74638839  1
  O  O50  1  0.87485606  0.52620433  0.74784224  1
  O  O51  1  0.66196680  0.52617497  0.24409941  1
  O  O52  1  0.87485606  0.34865073  0.24784224  1
  O  O53  1  0.46242190  0.14321015  0.24638839  1
  O  O54  1  0.62963774  0.47865543  0.92096111  1
  O  O55  1  0.85687408  0.37462836  0.91857418  1
  O  O56  1  0.51085183  0.15288361  0.91883514  1
  O  O57  1  0.62963774  0.15098131  0.42096111  1
  O  O58  1  0.51085183  0.35796723  0.41883514  1
  O  O59  1  0.85687408  0.48224472  0.41857418  1
  O  O60  1  0.34487266  0.47363559  0.07996173  1
  O  O61  1  0.14260074  0.68249215  0.08073434  1
  O  O62  1  0.52962680  0.86031302  0.07781491  1
  O  O63  1  0.34487266  0.87123807  0.57996173  1
  O  O64  1  0.52962680  0.66931478  0.57781491  1
  O  O65  1  0.14260074  0.46010959  0.58073434  1
  O  O66  1  0.29755438  0.81909560  0.25331529  1
  O  O67  1  0.51703380  0.69501650  0.25293881  1
  O  O68  1  0.19017778  0.48413840  0.25247426  1
  O  O69  1  0.29755438  0.47845978  0.75331529  1
  O  O70  1  0.19017778  0.70604038  0.75247426  1
  O  O71  1  0.51703380  0.82201830  0.75293881  1
loop_
_geom_bond_atom_site_label_1
_geom_bond_atom_site_label_2
_geom_bond_distance
_geom_bond_site_symmetry_2
Na0 O44 2.403071 1_555
Na0 O36 2.503106 1_655
Na0 O43 2.630162 1_665
Na0 O37 2.639202 1_565
Na0 O42 2.648295 1_565
Na0 O38 2.799535 1_665
Na1 O46 2.403071 1_556
Na1 O39 2.503106 1_655
Na1 O47 2.630162 1_656
Na1 O41 2.639202 1_545
Na1 O45 2.648294 1_546
Na1 O40 2.799535 1_655
Na2 O54 2.532002 1_555
Na2 O56 2.538776 1_555
Na2 O55 2.547015 1_555
Na2 O50 2.609292 1_555
Na2 O49 2.619820 1_555
Na2 O48 2.671759 1_555
Na3 O57 2.532002 1_555
Na3 O58 2.538776 1_555
Na3 O59 2.547015 1_555
Na3 O52 2.609292 1_555
Na3 O53 2.619820 1_555
Na3 O51 2.671759 1_555
Na4 O68 2.500202 1_555
Na4 O67 2.563484 1_555
Na4 O66 2.568949 1_555
Na4 O61 2.608014 1_555
Na4 O60 2.629740 1_555
Na4 O62 2.653846 1_555
Na5 O70 2.500202 1_555
Na5 O71 2.563484 1_555
Na5 O69 2.568949 1_555
Na5 O65 2.608014 1_555
Na5 O63 2.629740 1_555
Na5 O64 2.653846 1_555
Na6 O51 2.355636 1_555
Na6 O68 2.461333 1_555
Na6 O53 2.512558 1_555
Na6 O17 2.513417 1_555
Na6 O67 2.723487 1_555
Na6 O10 2.815088 1_555
Na6 O32 2.821313 1_555
Na7 O52 2.357364 1_555
Na7 O66 2.481388 1_655
Na7 O15 2.511929 1_555
Na7 O51 2.639966 1_555
Na7 O30 2.735650 1_655
Na7 O11 2.781116 1_655
Na7 O68 2.878551 1_655
Na7 O1 2.895779 1_555
Na8 O50 2.357356 1_555
Na8 O69 2.481387 1_655
Na8 O12 2.511928 1_555
Na8 O48 2.639968 1_555
Na8 O33 2.735652 1_655
Na8 O7 2.781117 1_655
Na8 O70 2.878558 1_655
Na8 O5 2.895778 1_555
Na9 O48 2.355637 1_555
Na9 O70 2.461326 1_545
Na9 O49 2.512549 1_555
Na9 O13 2.513415 1_555
Na9 O71 2.723479 1_545
Na9 O8 2.815088 1_545
Na9 O34 2.821309 1_545
Na10 O65 2.338281 1_555
Na10 O43 2.470244 1_555
Na10 O28 2.557127 1_555
Na10 O64 2.640039 1_555
Na10 O21 2.766792 1_555
Na10 O42 2.837032 1_455
Na10 O7 2.894255 1_555
Na10 O14 2.949584 1_555
Na11 O64 2.384612 1_555
Na11 O27 2.405432 1_555
Na11 O42 2.458764 1_565
Na11 O63 2.543344 1_555
Na11 O6 2.657352 1_555
Na11 O44 2.722148 1_555
Na11 O23 2.892369 1_565
Na12 O61 2.338266 1_555
Na12 O47 2.470253 1_565
Na12 O26 2.557120 1_554
Na12 O62 2.640025 1_555
Na12 O18 2.766792 1_565
Na12 O45 2.837033 1_455
Na12 O11 2.894256 1_555
Na12 O16 2.949584 1_565
Na13 O62 2.384629 1_555
Na13 O24 2.405434 1_554
Na13 O45 2.458763 1_555
Na13 O60 2.543340 1_555
Na13 O9 2.657354 1_555
Na13 O46 2.722156 1_565
Na13 O19 2.892369 1_555
Na14 O41 2.357817 1_555
Na14 O4 2.394642 1_655
Na14 O55 2.458665 1_555
Na14 O40 2.594777 1_665
Na14 O54 2.854222 1_555
Na14 O33 2.877193 1_655
Na14 O19 2.888752 1_556
Na15 O40 2.386809 1_555
Na15 O54 2.482914 1_555
Na15 O3 2.523688 1_555
Na15 O39 2.566719 1_555
Na15 O56 2.686570 1_555
Na15 O35 2.801164 1_555
Na15 O18 2.896257 1_556
Na16 O37 2.357824 1_555
Na16 O2 2.394645 1_655
Na16 O59 2.458648 1_555
Na16 O38 2.594784 1_655
Na16 O57 2.854221 1_555
Na16 O30 2.877193 1_655
Na16 O23 2.888748 1_555
Na17 O38 2.386800 1_555
Na17 O57 2.482916 1_555
Na17 O0 2.523687 1_555
Na17 O36 2.566721 1_545
Na17 O58 2.686554 1_555
Na17 O31 2.801164 1_545
Na17 O21 2.896252 1_555
Ca0 O1 2.129315 1_555
Ca0 O2 2.220202 1_665
Ca0 O0 2.220421 1_665
Ca0 O37 2.258291 1_565
Ca0 O36 2.267379 1_655
Ca0 O38 2.326575 1_665
Ca1 O5 2.129315 1_565
Ca1 O4 2.220202 1_655
Ca1 O3 2.220421 1_665
Ca1 O41 2.258291 1_555
Ca1 O39 2.267379 1_665
Ca1 O40 2.326575 1_665
Ca2 O14 2.125578 1_555
Ca2 O12 2.219772 1_555
Ca2 O13 2.221503 1_555
Ca2 O50 2.260783 1_555
Ca2 O49 2.277708 1_555
Ca2 O48 2.309492 1_555
Ca3 O16 2.125578 1_555
Ca3 O15 2.219772 1_555
Ca3 O17 2.221503 1_555
Ca3 O52 2.260783 1_555
Ca3 O53 2.277708 1_555
Ca3 O51 2.309492 1_555
Ca4 O25 2.130313 1_554
Ca4 O26 2.212791 1_554
Ca4 O24 2.221501 1_554
Ca4 O62 2.266679 1_555
Ca4 O60 2.277465 1_555
Ca4 O61 2.289105 1_555
Ca5 O29 2.130313 1_555
Ca5 O28 2.212791 1_555
Ca5 O27 2.221501 1_555
Ca5 O64 2.266679 1_555
Ca5 O63 2.277465 1_555
Ca5 O65 2.289104 1_555
O0 P0 1.513292 1_545
O1 P1 1.511484 1_555
O2 P2 1.510928 1_555
O3 P3 1.513292 1_555
O4 P4 1.510928 1_555
O5 P5 1.511484 1_545
O6 P5 1.588724 1_555
O6 Sn0 2.115577 1_555
O7 P3 1.605372 1_555
O7 Sn0 2.138497 1_445
O8 P4 1.592542 1_555
O8 Sn0 2.092060 1_455
O9 P1 1.588723 1_555
O9 Sn1 2.115577 1_565
O10 P2 1.592542 1_555
O10 Sn1 2.092060 1_455
O11 P0 1.605372 1_555
O11 Sn1 2.138497 1_465
O12 P6 1.509048 1_555
O13 P7 1.512155 1_555
O14 P8 1.501944 1_555
O15 P9 1.509048 1_555
O16 P10 1.501944 1_555
O17 P11 1.512155 1_555
O18 P11 1.603973 1_555
O18 Sn2 2.143562 1_554
O19 P9 1.601923 1_555
O19 Sn2 2.137861 1_554
O20 P10 1.580734 1_555
O20 Sn2 2.062454 1_554
O21 P7 1.603973 1_555
O21 Sn3 2.143562 1_555
O22 P8 1.580734 1_555
O22 Sn3 2.062454 1_555
O23 P6 1.601923 1_555
O23 Sn3 2.137862 1_555
O24 P12 1.516440 1_555
O25 P13 1.501171 1_555
O26 P14 1.520414 1_555
O27 P15 1.516440 1_555
O28 P16 1.520414 1_555
O29 P17 1.501171 1_555
O30 P17 1.602294 1_555
O30 Sn4 2.130129 1_555
O31 P15 1.592911 1_555
O31 Sn4 2.091245 1_555
O32 P16 1.587250 1_555
O32 Sn4 2.121267 1_555
O33 P13 1.602294 1_555
O33 Sn5 2.130129 1_555
O34 P14 1.587250 1_555
O34 Sn5 2.121267 1_555
O35 P12 1.592911 1_555
O35 Sn5 2.091246 1_555
O36 P17 1.526966 1_555
O37 P15 1.520369 1_545
O38 P16 1.540600 1_555
O39 P13 1.526975 1_555
O40 P14 1.540595 1_545
O41 P12 1.520366 1_555
O42 P6 1.596226 1_555
O42 Sn0 2.167618 1_545
O43 P7 1.589352 1_555
O43 Sn0 2.137411 1_445
O44 P8 1.579234 1_555
O44 Sn0 2.103155 1_555
O45 P9 1.596235 1_555
O45 Sn1 2.167618 1_565
O46 P10 1.579229 1_555
O46 Sn1 2.103155 1_555
O47 P11 1.589347 1_555
O47 Sn1 2.137411 1_455
O48 P5 1.537487 1_545
O49 P3 1.524303 1_555
O50 P4 1.525996 1_655
O51 P1 1.537496 1_555
O52 P2 1.525990 1_655
O53 P0 1.524299 1_545
O54 P12 1.596648 1_555
O54 Sn2 2.148748 1_555
O55 P13 1.588952 1_655
O55 Sn2 2.129850 1_555
O56 P14 1.579132 1_545
O56 Sn2 2.128662 1_555
O57 P15 1.596629 1_545
O57 Sn3 2.148748 1_555
O58 P16 1.579143 1_555
O58 Sn3 2.128663 1_555
O59 P17 1.588961 1_655
O59 Sn3 2.129850 1_555
O60 P11 1.524902 1_555
O61 P9 1.529253 1_455
O62 P10 1.539230 1_565
O63 P7 1.524883 1_565
O64 P8 1.539242 1_555
O65 P6 1.529259 1_455
O66 P0 1.589721 1_555
O66 Sn4 2.147769 1_555
O67 P1 1.576973 1_555
O67 Sn4 2.103175 1_555
O68 P2 1.596302 1_555
O68 Sn4 2.159331 1_555
O69 P3 1.589730 1_555
O69 Sn5 2.147769 1_555
O70 P4 1.596298 1_555
O70 Sn5 2.159331 1_555
O71 P5 1.576969 1_555
O71 Sn5 2.103175 1_555
