# generated using pymatgen
data_YbCo2
_symmetry_space_group_name_H-M   'P 1'
_cell_length_a   4.99513947
_cell_length_b   4.99513947
_cell_length_c   4.99513947
_cell_angle_alpha   60.00000000
_cell_angle_beta   60.00000000
_cell_angle_gamma   60.00000000
_symmetry_Int_Tables_number   1
_chemical_formula_structural   YbCo2
_chemical_formula_sum   'Yb2 Co4'
_cell_volume   88.13082936
_cell_formula_units_Z   2
loop_
 _symmetry_equiv_pos_site_id
 _symmetry_equiv_pos_as_xyz
  1  'x, y, z'
loop_
 _atom_site_type_symbol
 _atom_site_label
 _atom_site_symmetry_multiplicity
 _atom_site_fract_x
 _atom_site_fract_y
 _atom_site_fract_z
 _atom_site_occupancy
  Yb  Yb0  1  0.75000000  0.75000000  0.75000000  1
  Yb  Yb1  1  0.50000000  0.50000000  0.50000000  1
  Co  Co0  1  0.12500000  0.62500000  0.12500000  1
  Co  Co1  1  0.12500000  0.12500000  0.62500000  1
  Co  Co2  1  0.62500000  0.12500000  0.12500000  1
  Co  Co3  1  0.12500000  0.12500000  0.12500000  1
loop_
_geom_bond_atom_site_label_1
_geom_bond_atom_site_label_2
_geom_bond_distance
_geom_bond_site_symmetry_2
Co0 Co1 2.497570 1_564
Co0 Co3 2.497570 1_565
Co0 Co1 2.497570 1_555
Co0 Co2 2.497570 1_465
Co0 Co2 2.497570 1_555
Co0 Co3 2.497570 1_555
Co0 Yb1 2.928660 1_555
Co0 Yb0 2.928660 1_455
Co0 Yb0 2.928660 1_454
Co0 Yb1 2.928660 1_554
Co0 Yb1 2.928660 1_455
Co0 Yb0 2.928660 1_554
Co1 Co2 2.497570 1_456
Co1 Co2 2.497570 1_555
Co1 Co3 2.497570 1_555
Co1 Co3 2.497570 1_556
Co1 Yb0 2.928660 1_445
Co1 Yb1 2.928660 1_555
Co1 Yb1 2.928660 1_455
Co1 Yb1 2.928660 1_545
Co1 Yb0 2.928660 1_455
Co1 Yb0 2.928660 1_545
Co2 Co3 2.497570 1_655
Co2 Co3 2.497570 1_555
Co2 Yb1 2.928660 1_545
Co2 Yb1 2.928660 1_555
Co2 Yb0 2.928660 1_545
Co2 Yb0 2.928660 1_554
Co2 Yb1 2.928660 1_554
Co2 Yb0 2.928660 1_544
Co3 Yb0 2.928660 1_445
Co3 Yb1 2.928660 1_545
Co3 Yb0 2.928660 1_454
Co3 Yb1 2.928660 1_455
Co3 Yb1 2.928660 1_554
Co3 Yb0 2.928660 1_544
