# generated using pymatgen
data_Mn2H2SO6
_symmetry_space_group_name_H-M   'P 1'
_cell_length_a   5.80256913
_cell_length_b   6.61103665
_cell_length_c   6.61103624
_cell_angle_alpha   66.82918153
_cell_angle_beta   70.03217475
_cell_angle_gamma   70.03216990
_symmetry_Int_Tables_number   1
_chemical_formula_structural   Mn2H2SO6
_chemical_formula_sum   'Mn4 H4 S2 O12'
_cell_volume   212.74436608
_cell_formula_units_Z   2
loop_
 _symmetry_equiv_pos_site_id
 _symmetry_equiv_pos_as_xyz
  1  'x, y, z'
loop_
 _atom_site_type_symbol
 _atom_site_label
 _atom_site_symmetry_multiplicity
 _atom_site_fract_x
 _atom_site_fract_y
 _atom_site_fract_z
 _atom_site_occupancy
  Mn  Mn0  1  0.19130068  0.64173221  0.84667660  1
  Mn  Mn1  1  0.80869932  0.35826779  0.15332340  1
  Mn  Mn2  1  0.30869932  0.15332340  0.35826779  1
  Mn  Mn3  1  0.69130068  0.84667660  0.64173221  1
  H  H0  1  0.19601548  0.03959677  0.78020790  1
  H  H1  1  0.30398452  0.21979210  0.96040323  1
  H  H2  1  0.80398452  0.96040323  0.21979210  1
  H  H3  1  0.69601548  0.78020790  0.03959677  1
  S  S0  1  0.25000000  0.68531411  0.31468589  1
  S  S1  1  0.75000000  0.31468589  0.68531411  1
  O  O0  1  0.07874521  0.67379592  0.54412731  1
  O  O1  1  0.42125479  0.45587269  0.32620408  1
  O  O2  1  0.57874521  0.54412731  0.67379592  1
  O  O3  1  0.92125479  0.32620408  0.45587269  1
  O  O4  1  0.79765053  0.68416033  0.94494627  1
  O  O5  1  0.70234947  0.05505373  0.31583967  1
  O  O6  1  0.20234947  0.31583967  0.05505373  1
  O  O7  1  0.29765053  0.94494627  0.68416033  1
  O  O8  1  0.89818786  0.25345509  0.85044992  1
  O  O9  1  0.60181214  0.14955008  0.74654491  1
  O  O10  1  0.10181214  0.74654491  0.14955008  1
  O  O11  1  0.39818786  0.85044992  0.25345509  1
loop_
_geom_bond_atom_site_label_1
_geom_bond_atom_site_label_2
_geom_bond_distance
_geom_bond_site_symmetry_2
Mn0 O6 2.043037 1_556
Mn0 O7 2.061698 1_555
Mn0 O4 2.100126 1_455
Mn0 O2 2.147460 1_555
Mn0 O10 2.212463 1_556
Mn0 O0 2.221743 1_555
Mn1 O4 2.043037 1_554
Mn1 O5 2.061698 1_555
Mn1 O6 2.100126 1_655
Mn1 O1 2.147460 1_555
Mn1 O8 2.212463 1_554
Mn1 O3 2.221743 1_555
Mn2 O7 2.043037 1_545
Mn2 O6 2.061697 1_555
Mn2 O5 2.100126 1_555
Mn2 O3 2.147460 1_455
Mn2 O11 2.212463 1_545
Mn2 O1 2.221743 1_555
Mn3 O5 2.043037 1_565
Mn3 O4 2.061697 1_555
Mn3 O7 2.100126 1_555
Mn3 O0 2.147460 1_655
Mn3 O9 2.212463 1_565
Mn3 O2 2.221743 1_555
H0 O7 0.973353 1_545
H1 O6 0.973353 1_556
H2 O5 0.973353 1_565
H3 O4 0.973353 1_554
O0 S0 1.491779 1_555
O1 S0 1.491779 1_555
O2 S1 1.491779 1_555
O3 S1 1.491779 1_555
O8 S1 1.466536 1_555
O9 S1 1.466537 1_555
O10 S0 1.466536 1_555
O11 S0 1.466537 1_555
