# generated using pymatgen
data_MgMn6O7F5
_symmetry_space_group_name_H-M   'P 1'
_cell_length_a   4.90584283
_cell_length_b   5.03021443
_cell_length_c   9.19276402
_cell_angle_alpha   89.95125054
_cell_angle_beta   89.90754781
_cell_angle_gamma   96.73729025
_symmetry_Int_Tables_number   1
_chemical_formula_structural   MgMn6O7F5
_chemical_formula_sum   'Mg1 Mn6 O7 F5'
_cell_volume   225.28693972
_cell_formula_units_Z   1
loop_
 _symmetry_equiv_pos_site_id
 _symmetry_equiv_pos_as_xyz
  1  'x, y, z'
loop_
 _atom_site_type_symbol
 _atom_site_label
 _atom_site_symmetry_multiplicity
 _atom_site_fract_x
 _atom_site_fract_y
 _atom_site_fract_z
 _atom_site_occupancy
  Mg  Mg0  1  0.49574500  0.99133700  0.83506800  1
  Mn  Mn0  1  0.99935800  0.98793600  0.02097900  1
  Mn  Mn1  1  0.02582400  0.02259700  0.33772200  1
  Mn  Mn2  1  0.99437800  0.00062500  0.65109500  1
  Mn  Mn3  1  0.49883600  0.49288300  0.83722100  1
  Mn  Mn4  1  0.52586600  0.46322900  0.16631900  1
  Mn  Mn5  1  0.46180200  0.51669200  0.51202300  1
  O  O0  1  0.15358700  0.82364600  0.50367300  1
  O  O1  1  0.35271200  0.24076600  0.98468400  1
  O  O2  1  0.33009900  0.30647500  0.34500900  1
  O  O3  1  0.34002800  0.25606800  0.68416300  1
  O  O4  1  0.65238100  0.73490700  0.98702000  1
  O  O5  1  0.63933100  0.74058800  0.68242600  1
  O  O6  1  0.86138800  0.18433400  0.16953300  1
  F  F0  1  0.18488700  0.76670600  0.17392300  1
  F  F1  1  0.14239600  0.77500700  0.84764900  1
  F  F2  1  0.68904700  0.72865500  0.34130600  1
  F  F3  1  0.81918600  0.24383500  0.50617100  1
  F  F4  1  0.84704100  0.20982300  0.82115800  1
loop_
_geom_bond_atom_site_label_1
_geom_bond_atom_site_label_2
_geom_bond_distance
_geom_bond_site_symmetry_2
Mg0 O1 2.040755 1_565
Mg0 O5 2.065041 1_555
Mg0 O4 2.106776 1_555
Mg0 O3 2.126091 1_565
Mn0 O6 1.858834 1_565
Mn0 O4 2.027073 1_554
Mn0 O1 2.052783 1_664
Mn1 O2 1.942204 1_555
Mn1 O6 1.964441 1_455
Mn1 O0 1.967068 1_545
Mn2 O0 1.844172 1_645
Mn2 O3 2.027305 1_655
Mn2 O5 2.071466 1_545
Mn3 O4 1.933105 1_555
Mn3 O1 1.934034 1_555
Mn3 O3 1.947912 1_555
Mn3 O5 1.960822 1_555
Mn4 O2 2.014311 1_555
Mn4 O1 2.132263 1_554
Mn4 O4 2.182522 1_554
Mn4 O6 2.284795 1_555
Mn5 O2 1.933520 1_555
Mn5 O5 2.063503 1_555
Mn5 O3 2.095084 1_555
Mn5 O0 2.285660 1_555
F0 Mn0 2.069473 1_455
F0 Mn1 2.183641 1_565
F0 Mn4 2.394253 1_555
F1 Mg0 1.938814 1_555
F1 Mn0 2.086656 1_456
F1 Mn2 2.296567 1_465
F1 Mn3 2.379674 1_555
F2 Mn1 2.084120 1_665
F2 Mn5 2.134284 1_555
F2 Mn4 2.183610 1_555
F3 Mn2 2.063471 1_555
F3 Mn1 2.219596 1_655
F3 Mn5 2.350560 1_555
F4 Mg0 1.936227 1_545
F4 Mn2 2.061916 1_555
F4 Mn0 2.318405 1_546
F4 Mn3 2.353185 1_555
