# generated using pymatgen
data_Ba2Mg(BiO3)2
_symmetry_space_group_name_H-M   'P 1'
_cell_length_a   6.74067525
_cell_length_b   6.74052954
_cell_length_c   6.40623000
_cell_angle_alpha   61.62749671
_cell_angle_beta   61.62814807
_cell_angle_gamma   56.75431583
_symmetry_Int_Tables_number   1
_chemical_formula_structural   Ba2Mg(BiO3)2
_chemical_formula_sum   'Ba2 Mg1 Bi2 O6'
_cell_volume   204.87256646
_cell_formula_units_Z   1
loop_
 _symmetry_equiv_pos_site_id
 _symmetry_equiv_pos_as_xyz
  1  'x, y, z'
loop_
 _atom_site_type_symbol
 _atom_site_label
 _atom_site_symmetry_multiplicity
 _atom_site_fract_x
 _atom_site_fract_y
 _atom_site_fract_z
 _atom_site_occupancy
  Ba  Ba0  1  0.80892800  0.80888100  0.69109600  1
  Ba  Ba1  1  0.19107000  0.19111900  0.30890500  1
  Mg  Mg0  1  0.50000000  0.50000000  0.00000000  1
  Bi  Bi0  1  0.50000000  0.50000000  0.50000000  1
  Bi  Bi1  1  0.00000000  0.00000000  0.00000000  1
  O  O0  1  0.27155300  0.72844000  0.22847300  1
  O  O1  1  0.24986400  0.24989400  0.75012100  1
  O  O2  1  0.72844800  0.27156000  0.22846600  1
  O  O3  1  0.75013600  0.75010600  0.24987900  1
  O  O4  1  0.72844800  0.27156000  0.77152700  1
  O  O5  1  0.27155300  0.72844000  0.77153300  1
loop_
_geom_bond_atom_site_label_1
_geom_bond_atom_site_label_2
_geom_bond_distance
_geom_bond_site_symmetry_2
Ba0 Mg0 3.083637 1_556
Ba0 O5 3.113144 1_655
Ba0 O0 3.113151 1_655
Ba0 O4 3.113296 1_565
Ba0 O2 3.113297 1_565
Ba0 O3 3.256419 1_556
Ba0 O3 3.256425 1_555
Ba0 O1 3.257104 1_655
Ba0 O1 3.257625 1_565
Ba1 Mg0 3.083647 1_555
Ba1 O2 3.113131 1_455
Ba1 O4 3.113138 1_455
Ba1 O0 3.113291 1_545
Ba1 O5 3.113292 1_545
Ba1 O1 3.256421 1_554
Ba1 O1 3.256427 1_555
Ba1 O3 3.257100 1_455
Ba1 O3 3.257633 1_545
Mg0 O0 2.069931 1_555
Mg0 O4 2.069931 1_554
Mg0 O5 2.069936 1_554
Mg0 O2 2.069936 1_555
Bi0 O5 2.273367 1_555
Bi0 O2 2.273372 1_555
Bi0 O0 2.273373 1_555
Bi0 O4 2.273377 1_555
Bi0 O3 2.496831 1_555
Bi0 O1 2.496831 1_555
Bi1 O4 2.273665 1_454
Bi1 O2 2.273669 1_455
Bi1 O0 2.273670 1_545
Bi1 O5 2.273673 1_544
Bi1 O1 2.494415 1_554
Bi1 O3 2.494415 1_445
