# generated using pymatgen
data_CeNiSb2
_symmetry_space_group_name_H-M   'P 1'
_cell_length_a   4.38896974
_cell_length_b   4.38896974
_cell_length_c   9.69116384
_cell_angle_alpha   90.00000000
_cell_angle_beta   90.00000000
_cell_angle_gamma   90.00000000
_symmetry_Int_Tables_number   1
_chemical_formula_structural   CeNiSb2
_chemical_formula_sum   'Ce2 Ni2 Sb4'
_cell_volume   186.68142573
_cell_formula_units_Z   2
loop_
 _symmetry_equiv_pos_site_id
 _symmetry_equiv_pos_as_xyz
  1  'x, y, z'
loop_
 _atom_site_type_symbol
 _atom_site_label
 _atom_site_symmetry_multiplicity
 _atom_site_fract_x
 _atom_site_fract_y
 _atom_site_fract_z
 _atom_site_occupancy
  Ce  Ce0  1  0.75000000  0.75000000  0.23824729  1
  Ce  Ce1  1  0.25000000  0.25000000  0.76175271  1
  Ni  Ni0  1  0.25000000  0.75000000  0.00000000  1
  Ni  Ni1  1  0.75000000  0.25000000  0.00000000  1
  Sb  Sb0  1  0.25000000  0.25000000  0.13396242  1
  Sb  Sb1  1  0.75000000  0.75000000  0.86603758  1
  Sb  Sb2  1  0.75000000  0.25000000  0.50000000  1
  Sb  Sb3  1  0.25000000  0.75000000  0.50000000  1
loop_
_geom_bond_atom_site_label_1
_geom_bond_atom_site_label_2
_geom_bond_distance
_geom_bond_site_symmetry_2
Ce0 Ni0 3.185397 1_555
Ce0 Ni1 3.185397 1_555
Ce0 Ni1 3.185397 1_565
Ce0 Ni0 3.185397 1_655
Ce0 Sb0 3.263882 1_565
Ce0 Sb0 3.263882 1_655
Ce0 Sb0 3.263882 1_665
Ce0 Sb0 3.263882 1_555
Ce0 Sb3 3.354184 1_655
Ce0 Sb2 3.354184 1_555
Ce0 Sb2 3.354184 1_565
Ce0 Sb3 3.354184 1_555
Ce1 Ni1 3.185397 1_556
Ce1 Ni0 3.185397 1_546
Ce1 Ni0 3.185397 1_556
Ce1 Ni1 3.185397 1_456
Ce1 Sb1 3.263882 1_555
Ce1 Sb1 3.263882 1_545
Ce1 Sb1 3.263882 1_445
Ce1 Sb1 3.263882 1_455
Ce1 Sb2 3.354184 1_455
Ce1 Sb2 3.354184 1_555
Ce1 Sb3 3.354184 1_545
Ce1 Sb3 3.354184 1_555
Ni0 Sb1 2.549749 1_554
Ni0 Sb1 2.549749 1_454
Ni0 Sb0 2.549749 1_565
Ni0 Sb0 2.549749 1_555
Ni1 Sb1 2.549749 1_554
Ni1 Sb0 2.549749 1_655
Ni1 Sb1 2.549749 1_544
Ni1 Sb0 2.549749 1_555
Sb2 Sb3 3.103470 1_655
Sb2 Sb3 3.103470 1_645
Sb2 Sb3 3.103470 1_545
Sb2 Sb3 3.103470 1_555
