# generated using pymatgen
data_Na4GaSi2GePO12
_symmetry_space_group_name_H-M   'P 1'
_cell_length_a   8.84682736
_cell_length_b   8.84682707
_cell_length_c   21.66188685
_cell_angle_alpha   90.73212946
_cell_angle_beta   89.26787055
_cell_angle_gamma   120.00804154
_symmetry_Int_Tables_number   1
_chemical_formula_structural   Na4GaSi2GePO12
_chemical_formula_sum   'Na24 Ga6 Si12 Ge6 P6 O72'
_cell_volume   1467.97795844
_cell_formula_units_Z   6
loop_
 _symmetry_equiv_pos_site_id
 _symmetry_equiv_pos_as_xyz
  1  'x, y, z'
loop_
 _atom_site_type_symbol
 _atom_site_label
 _atom_site_symmetry_multiplicity
 _atom_site_fract_x
 _atom_site_fract_y
 _atom_site_fract_z
 _atom_site_occupancy
  Na  Na0  1  0.63605558  0.00481688  0.25035548  1
  Na  Na1  1  0.37133769  0.36771019  0.24656272  1
  Na  Na2  1  0.99156737  0.62490034  0.25022894  1
  Na  Na3  1  0.63228981  0.62866231  0.74656272  1
  Na  Na4  1  0.99518312  0.36394442  0.75035548  1
  Na  Na5  1  0.37509966  0.00843263  0.75022894  1
  Na  Na6  1  0.30272258  0.33814988  0.58368848  1
  Na  Na7  1  0.03800469  0.70104319  0.57989572  1
  Na  Na8  1  0.65823437  0.95823334  0.58356194  1
  Na  Na9  1  0.29895681  0.96199531  0.07989572  1
  Na  Na10  1  0.66185012  0.69727742  0.08368848  1
  Na  Na11  1  0.04176666  0.34176563  0.08356194  1
  Na  Na12  1  0.96938858  0.67148388  0.91702248  1
  Na  Na13  1  0.70467069  0.03437719  0.91322972  1
  Na  Na14  1  0.32490037  0.29156734  0.91689594  1
  Na  Na15  1  0.96562281  0.29532931  0.41322972  1
  Na  Na16  1  0.32851612  0.03061142  0.41702248  1
  Na  Na17  1  0.70843266  0.67509963  0.41689594  1
  Na  Na18  1  0.99651958  0.99497019  0.49796615  1
  Na  Na19  1  0.00502981  0.00348042  0.99796615  1
  Na  Na20  1  0.66318658  0.32830319  0.83129915  1
  Na  Na21  1  0.67169681  0.33681342  0.33129915  1
  Na  Na22  1  0.32985258  0.66163719  0.16463315  1
  Na  Na23  1  0.33836281  0.67014742  0.66463315  1
  Ga  Ga0  1  0.98964122  0.99287940  0.35159105  1
  Ga  Ga1  1  0.00712060  0.01035878  0.85159105  1
  Ga  Ga2  1  0.65630822  0.32621240  0.68492405  1
  Ga  Ga3  1  0.67378760  0.34369178  0.18492405  1
  Ga  Ga4  1  0.32297422  0.65954640  0.01825805  1
  Ga  Ga5  1  0.34045360  0.67702578  0.51825805  1
  Si  Si0  1  0.70811752  0.71087046  0.25061639  1
  Si  Si1  1  0.00123805  0.28947240  0.25125161  1
  Si  Si2  1  0.28912954  0.29188248  0.75061639  1
  Si  Si3  1  0.71052760  0.99876195  0.75125161  1
  Si  Si4  1  0.37478452  0.04420346  0.58394939  1
  Si  Si5  1  0.66790505  0.62280540  0.58458461  1
  Si  Si6  1  0.95579654  0.62521548  0.08394939  1
  Si  Si7  1  0.37719460  0.33209495  0.08458461  1
  Si  Si8  1  0.04145052  0.37753746  0.91728339  1
  Si  Si9  1  0.33457105  0.95613940  0.91791861  1
  Si  Si10  1  0.62246254  0.95854948  0.41728339  1
  Si  Si11  1  0.04386060  0.66542895  0.41791861  1
  Ge  Ge0  1  0.99843532  0.99757337  0.64802875  1
  Ge  Ge1  1  0.00242663  0.00156468  0.14802875  1
  Ge  Ge2  1  0.66510232  0.33090637  0.98136175  1
  Ge  Ge3  1  0.66909363  0.33489768  0.48136175  1
  Ge  Ge4  1  0.33176832  0.66424037  0.31469575  1
  Ge  Ge5  1  0.33575963  0.66823168  0.81469575  1
  P  P0  1  0.28663372  0.99747999  0.25053749  1
  P  P1  1  0.00252001  0.71336628  0.75053749  1
  P  P2  1  0.95330072  0.33081299  0.58387049  1
  P  P3  1  0.66918701  0.04669928  0.08387049  1
  P  P4  1  0.61996672  0.66414699  0.91720449  1
  P  P5  1  0.33585301  0.38003328  0.41720449  1
  O  O0  1  0.20813171  0.03408049  0.30824567  1
  O  O1  1  0.83035905  0.78718538  0.31056881  1
  O  O2  1  0.96774530  0.17153687  0.31152362  1
  O  O3  1  0.21281462  0.16964095  0.81056881  1
  O  O4  1  0.96591951  0.79186829  0.80824567  1
  O  O5  1  0.82846313  0.03225470  0.81152362  1
  O  O6  1  0.79561300  0.95520797  0.68930178  1
  O  O7  1  0.15942807  0.20460825  0.68982166  1
  O  O8  1  0.03957618  0.83063404  0.69203253  1
  O  O9  1  0.79539175  0.84057193  0.18982166  1
  O  O10  1  0.04479203  0.20438700  0.18930178  1
  O  O11  1  0.16936596  0.96042382  0.19203253  1
  O  O12  1  0.87479871  0.36741349  0.64157867  1
  O  O13  1  0.49702605  0.12051838  0.64390181  1
  O  O14  1  0.63441230  0.50486987  0.64485662  1
  O  O15  1  0.87948162  0.50297395  0.14390181  1
  O  O16  1  0.63258651  0.12520129  0.14157867  1
  O  O17  1  0.49513013  0.36558770  0.14485662  1
  O  O18  1  0.46228000  0.28854097  0.02263478  1
  O  O19  1  0.82609507  0.53794125  0.02315466  1
  O  O20  1  0.70624318  0.16396704  0.02536553  1
  O  O21  1  0.46205875  0.17390493  0.52315466  1
  O  O22  1  0.71145903  0.53772000  0.52263478  1
  O  O23  1  0.83603296  0.29375682  0.52536553  1
  O  O24  1  0.54146471  0.70074749  0.97491267  1
  O  O25  1  0.16369205  0.45385238  0.97723581  1
  O  O26  1  0.30107830  0.83820387  0.97819062  1
  O  O27  1  0.54614762  0.83630795  0.47723581  1
  O  O28  1  0.29925251  0.45853529  0.47491267  1
  O  O29  1  0.16179613  0.69892170  0.47819062  1
  O  O30  1  0.12894600  0.62187497  0.35596878  1
  O  O31  1  0.49276107  0.87127525  0.35648866  1
  O  O32  1  0.37290918  0.49730104  0.35869953  1
  O  O33  1  0.12872475  0.50723893  0.85648866  1
  O  O34  1  0.37812503  0.87105400  0.85596878  1
  O  O35  1  0.50269896  0.62709082  0.85869953  1
  O  O36  1  0.02624569  0.83988458  0.41187423  1
  O  O37  1  0.81876725  0.98593037  0.41233439  1
  O  O38  1  0.17568780  0.19511226  0.41084435  1
  O  O39  1  0.01406963  0.18123275  0.91233439  1
  O  O40  1  0.16011542  0.97375431  0.91187423  1
  O  O41  1  0.80488774  0.82431220  0.91084435  1
  O  O42  1  0.96705391  0.16119296  0.58722428  1
  O  O43  1  0.17990778  0.03037307  0.59015105  1
  O  O44  1  0.84777887  0.81942121  0.58893907  1
  O  O45  1  0.96962693  0.82009222  0.09015105  1
  O  O46  1  0.83880704  0.03294609  0.08722428  1
  O  O47  1  0.18057879  0.15222113  0.08893907  1
  O  O48  1  0.69291269  0.17321758  0.74520723  1
  O  O49  1  0.48543425  0.31926337  0.74566739  1
  O  O50  1  0.84235480  0.52844526  0.74417735  1
  O  O51  1  0.68073663  0.51456575  0.24566739  1
  O  O52  1  0.82678242  0.30708731  0.24520723  1
  O  O53  1  0.47155474  0.15764520  0.24417735  1
  O  O54  1  0.63372091  0.49452596  0.92055728  1
  O  O55  1  0.84657478  0.36370607  0.92348405  1
  O  O56  1  0.51444587  0.15275421  0.92227207  1
  O  O57  1  0.63629393  0.15342522  0.42348405  1
  O  O58  1  0.50547404  0.36627909  0.42055728  1
  O  O59  1  0.84724579  0.48555413  0.42227207  1
  O  O60  1  0.35957869  0.50655158  0.07854123  1
  O  O61  1  0.15210025  0.65259737  0.07900139  1
  O  O62  1  0.50902080  0.86177926  0.07751135  1
  O  O63  1  0.34740263  0.84789975  0.57900139  1
  O  O64  1  0.49344842  0.64042131  0.57854123  1
  O  O65  1  0.13822074  0.49097920  0.57751135  1
  O  O66  1  0.30038691  0.82785996  0.25389128  1
  O  O67  1  0.51324078  0.69704007  0.25681805  1
  O  O68  1  0.18111187  0.48608821  0.25560607  1
  O  O69  1  0.30295993  0.48675922  0.75681805  1
  O  O70  1  0.17214004  0.69961309  0.75389128  1
  O  O71  1  0.51391179  0.81888813  0.75560607  1
loop_
_geom_bond_atom_site_label_1
_geom_bond_atom_site_label_2
_geom_bond_distance
_geom_bond_site_symmetry_2
Na0 O52 2.345225 1_555
Na0 O67 2.379229 1_545
Na0 O53 2.437538 1_555
Na0 O66 2.573404 1_545
Na0 O31 2.604862 1_545
Na0 O16 2.605011 1_555
Na0 O9 2.787585 1_545
Na0 O2 2.874393 1_555
Na1 O51 2.371246 1_555
Na1 O68 2.390918 1_555
Na1 O53 2.426286 1_555
Na1 O17 2.451827 1_555
Na1 O67 2.538911 1_555
Na1 O32 2.669988 1_555
Na1 O10 2.800460 1_555
Na1 O0 2.893201 1_555
Na2 O66 2.406169 1_655
Na2 O51 2.417431 1_555
Na2 O52 2.436956 1_555
Na2 O15 2.525221 1_555
Na2 O68 2.530212 1_655
Na2 O30 2.613346 1_655
Na2 O1 2.784992 1_555
Na2 O11 2.872127 1_655
Na3 O49 2.371246 1_555
Na3 O71 2.390918 1_555
Na3 O50 2.426286 1_555
Na3 O14 2.451827 1_555
Na3 O69 2.538911 1_555
Na3 O35 2.669988 1_555
Na3 O6 2.800460 1_555
Na3 O4 2.893201 1_555
Na4 O48 2.345225 1_555
Na4 O69 2.379229 1_655
Na4 O50 2.437538 1_555
Na4 O70 2.573404 1_655
Na4 O33 2.604862 1_655
Na4 O12 2.605011 1_555
Na4 O7 2.787585 1_655
Na4 O5 2.874393 1_555
Na5 O70 2.406169 1_545
Na5 O49 2.417431 1_555
Na5 O48 2.436956 1_555
Na5 O13 2.525221 1_555
Na5 O71 2.530212 1_545
Na5 O34 2.613346 1_545
Na5 O3 2.784992 1_555
Na5 O8 2.872127 1_545
Na6 O64 2.345229 1_555
Na6 O43 2.379229 1_555
Na6 O65 2.437552 1_555
Na6 O42 2.573404 1_455
Na6 O7 2.604862 1_555
Na6 O28 2.604998 1_555
Na6 O21 2.787585 1_555
Na6 O14 2.874393 1_555
Na7 O63 2.371238 1_555
Na7 O44 2.390918 1_455
Na7 O65 2.426271 1_555
Na7 O29 2.451802 1_555
Na7 O43 2.538911 1_565
Na7 O8 2.669988 1_555
Na7 O22 2.800460 1_455
Na7 O12 2.893201 1_455
Na8 O42 2.406169 1_565
Na8 O63 2.417439 1_555
Na8 O64 2.436948 1_555
Na8 O27 2.525201 1_555
Na8 O44 2.530212 1_555
Na8 O6 2.613346 1_555
Na8 O13 2.784992 1_565
Na8 O23 2.872127 1_565
Na9 O61 2.371238 1_555
Na9 O47 2.390918 1_565
Na9 O62 2.426271 1_555
Na9 O26 2.451802 1_554
Na9 O45 2.538911 1_455
Na9 O11 2.669988 1_555
Na9 O18 2.800460 1_565
Na9 O16 2.893201 1_565
Na10 O60 2.345229 1_555
Na10 O45 2.379229 1_555
Na10 O62 2.437552 1_555
Na10 O46 2.573404 1_565
Na10 O9 2.604862 1_555
Na10 O24 2.604998 1_554
Na10 O19 2.787585 1_555
Na10 O17 2.874393 1_555
Na11 O46 2.406169 1_455
Na11 O61 2.417439 1_555
Na11 O60 2.436948 1_555
Na11 O25 2.525201 1_554
Na11 O47 2.530212 1_555
Na11 O10 2.613346 1_555
Na11 O15 2.784992 1_455
Na11 O20 2.872127 1_455
Na12 O40 2.345225 1_655
Na12 O55 2.379237 1_555
Na12 O41 2.437538 1_555
Na12 O54 2.573396 1_555
Na12 O19 2.604843 1_556
Na12 O4 2.605011 1_555
Na12 O33 2.787585 1_655
Na12 O26 2.874393 1_655
Na13 O39 2.371246 1_655
Na13 O56 2.390902 1_555
Na13 O41 2.426286 1_545
Na13 O5 2.451827 1_555
Na13 O55 2.538900 1_555
Na13 O20 2.669963 1_556
Na13 O34 2.800460 1_545
Na13 O24 2.893201 1_545
Na14 O54 2.406173 1_555
Na14 O39 2.417431 1_555
Na14 O40 2.436956 1_545
Na14 O3 2.525221 1_555
Na14 O56 2.530225 1_555
Na14 O18 2.613333 1_556
Na14 O25 2.784992 1_555
Na14 O35 2.872127 1_555
Na15 O37 2.371246 1_545
Na15 O59 2.390902 1_555
Na15 O38 2.426286 1_655
Na15 O2 2.451827 1_555
Na15 O57 2.538900 1_555
Na15 O23 2.669963 1_555
Na15 O30 2.800460 1_655
Na15 O28 2.893201 1_655
Na16 O36 2.345225 1_545
Na16 O57 2.379237 1_555
Na16 O38 2.437538 1_555
Na16 O58 2.573396 1_555
Na16 O21 2.604843 1_555
Na16 O0 2.605011 1_555
Na16 O31 2.787585 1_545
Na16 O29 2.874393 1_545
Na17 O58 2.406173 1_555
Na17 O37 2.417431 1_555
Na17 O36 2.436956 1_655
Na17 O1 2.525221 1_555
Na17 O59 2.530225 1_555
Na17 O22 2.613333 1_555
Na17 O27 2.784992 1_555
Na17 O32 2.872127 1_555
Na18 O36 2.390077 1_655
Na18 O37 2.421792 1_555
Na18 O44 2.448422 1_555
Na18 O42 2.503350 1_565
Na18 O43 2.505282 1_665
Na18 O38 2.531969 1_665
Na19 O40 2.390077 1_545
Na19 O39 2.421792 1_555
Na19 O47 2.448422 1_556
Na19 O46 2.503350 1_456
Na19 O45 2.505282 1_446
Na19 O41 2.531969 1_445
Na20 O48 2.390077 1_555
Na20 O49 2.421792 1_555
Na20 O56 2.448422 1_555
Na20 O54 2.503350 1_555
Na20 O55 2.505282 1_555
Na20 O50 2.531969 1_555
Na21 O52 2.390077 1_555
Na21 O51 2.421792 1_555
Na21 O59 2.448422 1_555
Na21 O58 2.503350 1_555
Na21 O57 2.505282 1_555
Na21 O53 2.531969 1_555
Na22 O60 2.390077 1_555
Na22 O61 2.421792 1_555
Na22 O68 2.448422 1_555
Na22 O66 2.503350 1_555
Na22 O67 2.505282 1_555
Na22 O62 2.531969 1_555
Na23 O64 2.390077 1_555
Na23 O63 2.421792 1_555
Na23 O71 2.448422 1_555
Na23 O70 2.503350 1_555
Na23 O69 2.505282 1_555
Na23 O65 2.531969 1_555
Ga0 O1 1.874182 1_555
Ga0 O2 1.906457 1_565
Ga0 O37 1.969427 1_555
Ga0 O0 2.002098 1_665
Ga0 O36 2.033843 1_655
Ga0 O38 2.146465 1_665
Ga1 O3 1.874182 1_555
Ga1 O5 1.906457 1_455
Ga1 O39 1.969427 1_555
Ga1 O4 2.002098 1_445
Ga1 O40 2.033843 1_545
Ga1 O41 2.146465 1_445
Ga2 O13 1.874182 1_555
Ga2 O14 1.906457 1_555
Ga2 O49 1.969427 1_555
Ga2 O12 2.002098 1_555
Ga2 O48 2.033843 1_555
Ga2 O50 2.146465 1_555
Ga3 O15 1.874182 1_555
Ga3 O17 1.906457 1_555
Ga3 O51 1.969427 1_555
Ga3 O16 2.002098 1_555
Ga3 O52 2.033843 1_555
Ga3 O53 2.146465 1_555
Ga4 O25 1.874182 1_554
Ga4 O26 1.906457 1_554
Ga4 O61 1.969427 1_555
Ga4 O24 2.002098 1_554
Ga4 O60 2.033843 1_555
Ga4 O62 2.146465 1_555
Ga5 O27 1.874182 1_555
Ga5 O29 1.906457 1_555
Ga5 O63 1.969427 1_555
Ga5 O28 2.002098 1_555
Ga5 O64 2.033843 1_555
Ga5 O65 2.146465 1_555
Ge0 O6 1.858582 1_555
Ge0 O7 1.893186 1_665
Ge0 O43 1.930139 1_665
Ge0 O44 1.946725 1_555
Ge0 O8 1.950580 1_655
Ge0 O42 2.089800 1_565
Ge1 O10 1.858582 1_555
Ge1 O9 1.893186 1_445
Ge1 O45 1.930139 1_445
Ge1 O47 1.946725 1_555
Ge1 O11 1.950580 1_545
Ge1 O46 2.089800 1_455
Ge2 O18 1.858582 1_556
Ge2 O19 1.893186 1_556
Ge2 O55 1.930139 1_555
Ge2 O56 1.946725 1_555
Ge2 O20 1.950580 1_556
Ge2 O54 2.089800 1_555
Ge3 O22 1.858582 1_555
Ge3 O21 1.893186 1_555
Ge3 O57 1.930139 1_555
Ge3 O59 1.946725 1_555
Ge3 O23 1.950580 1_555
Ge3 O58 2.089800 1_555
Ge4 O30 1.858582 1_555
Ge4 O31 1.893186 1_555
Ge4 O67 1.930139 1_555
Ge4 O68 1.946725 1_555
Ge4 O32 1.950580 1_555
Ge4 O66 2.089800 1_555
Ge5 O34 1.858582 1_555
Ge5 O33 1.893186 1_555
Ge5 O69 1.930139 1_555
Ge5 O71 1.946725 1_555
Ge5 O35 1.950580 1_555
Ge5 O70 2.089800 1_555
O0 P0 1.530437 1_545
O1 Si0 1.610932 1_555
O2 Si1 1.611425 1_655
O3 Si2 1.610932 1_555
O4 P1 1.530437 1_655
O5 Si3 1.611425 1_545
O6 Si3 1.663427 1_555
O7 Si2 1.665397 1_555
O8 P1 1.572477 1_555
O9 Si0 1.665397 1_555
O10 Si1 1.663427 1_555
O11 P0 1.572477 1_555
O12 P2 1.530437 1_555
O13 Si4 1.610932 1_555
O14 Si5 1.611425 1_555
O15 Si6 1.610932 1_555
O16 P3 1.530437 1_555
O17 Si7 1.611425 1_555
O18 Si7 1.663427 1_555
O19 Si6 1.665397 1_555
O20 P3 1.572477 1_555
O21 Si4 1.665397 1_555
O22 Si5 1.663427 1_555
O23 P2 1.572477 1_555
O24 P4 1.530437 1_555
O25 Si8 1.610932 1_555
O26 Si9 1.611425 1_555
O27 Si10 1.610932 1_555
O28 P5 1.530437 1_555
O29 Si11 1.611425 1_555
O30 Si11 1.663427 1_555
O31 Si10 1.665397 1_555
O32 P5 1.572477 1_555
O33 Si8 1.665397 1_555
O34 Si9 1.663427 1_555
O35 P4 1.572477 1_555
O36 Si11 1.633923 1_555
O37 Si10 1.631358 1_555
O38 P5 1.543923 1_555
O39 Si8 1.631358 1_555
O40 Si9 1.633923 1_555
O41 P4 1.543923 1_555
O42 P2 1.567647 1_555
O43 Si4 1.669982 1_555
O44 Si5 1.672655 1_555
O45 Si6 1.669982 1_555
O46 P3 1.567647 1_555
O47 Si7 1.672655 1_555
O48 Si3 1.633923 1_545
O49 Si2 1.631358 1_555
O50 P1 1.543923 1_655
O51 Si0 1.631358 1_555
O52 Si1 1.633923 1_655
O53 P0 1.543923 1_545
O54 P4 1.567659 1_555
O55 Si8 1.669968 1_655
O56 Si9 1.672653 1_545
O57 Si10 1.669968 1_545
O58 P5 1.567659 1_555
O59 Si11 1.672653 1_655
O60 Si7 1.633935 1_555
O61 Si6 1.631345 1_455
O62 P3 1.543919 1_565
O63 Si4 1.631344 1_565
O64 Si5 1.633935 1_555
O65 P2 1.543919 1_455
O66 P0 1.567647 1_555
O67 Si0 1.669982 1_555
O68 Si1 1.672655 1_555
O69 Si2 1.669982 1_555
O70 P1 1.567647 1_555
O71 Si3 1.672655 1_555
