# generated using pymatgen
data_Sm(GeRu)2
_symmetry_space_group_name_H-M   'P 1'
_cell_length_a   4.25760636
_cell_length_b   4.25760710
_cell_length_c   5.81263754
_cell_angle_alpha   111.48373346
_cell_angle_beta   111.48373592
_cell_angle_gamma   90.00000110
_symmetry_Int_Tables_number   1
_chemical_formula_structural   Sm(GeRu)2
_chemical_formula_sum   'Sm1 Ge2 Ru2'
_cell_volume   90.13282089
_cell_formula_units_Z   1
loop_
 _symmetry_equiv_pos_site_id
 _symmetry_equiv_pos_as_xyz
  1  'x, y, z'
loop_
 _atom_site_type_symbol
 _atom_site_label
 _atom_site_symmetry_multiplicity
 _atom_site_fract_x
 _atom_site_fract_y
 _atom_site_fract_z
 _atom_site_occupancy
  Sm  Sm0  1  -0.00000000  -0.00000000  -0.00000000  1
  Ge  Ge0  1  0.63250302  0.63250302  0.26500405  1
  Ge  Ge1  1  0.36749698  0.36749698  0.73499595  1
  Ru  Ru0  1  0.75000000  0.25000000  0.50000000  1
  Ru  Ru1  1  0.25000000  0.75000000  0.50000000  1
loop_
_geom_bond_atom_site_label_1
_geom_bond_atom_site_label_2
_geom_bond_distance
_geom_bond_site_symmetry_2
Ge0 Ru1 2.428389 1_655
Ge0 Ru0 2.428389 1_565
Ge0 Ru1 2.428397 1_555
Ge0 Ru0 2.428397 1_555
Ge0 Ge1 2.635326 1_554
Ge0 Sm0 3.286306 1_665
Ge0 Sm0 3.286311 1_565
Ge0 Sm0 3.286312 1_655
Ge0 Sm0 3.286317 1_555
Ge1 Ru0 2.428389 1_455
Ge1 Ru1 2.428389 1_545
Ge1 Ru0 2.428397 1_555
Ge1 Ru1 2.428397 1_555
Ge1 Sm0 3.286306 1_556
Ge1 Sm0 3.286311 1_656
Ge1 Sm0 3.286312 1_566
Ge1 Sm0 3.286317 1_666
Ru0 Sm0 3.273009 1_555
Ru0 Sm0 3.273009 1_655
Ru0 Sm0 3.273009 1_656
Ru0 Sm0 3.273010 1_666
Ru1 Sm0 3.273009 1_666
Ru1 Sm0 3.273009 1_566
Ru1 Sm0 3.273009 1_565
Ru1 Sm0 3.273010 1_555
