# generated using pymatgen
data_Hg7(PO5)2
_symmetry_space_group_name_H-M   'P 1'
_cell_length_a   10.08830552
_cell_length_b   6.32005485
_cell_length_c   9.67180193
_cell_angle_alpha   84.76212008
_cell_angle_beta   90.00000000
_cell_angle_gamma   90.00000000
_symmetry_Int_Tables_number   1
_chemical_formula_structural   Hg7(PO5)2
_chemical_formula_sum   'Hg14 P4 O20'
_cell_volume   614.08596352
_cell_formula_units_Z   2
loop_
 _symmetry_equiv_pos_site_id
 _symmetry_equiv_pos_as_xyz
  1  'x, y, z'
loop_
 _atom_site_type_symbol
 _atom_site_label
 _atom_site_symmetry_multiplicity
 _atom_site_fract_x
 _atom_site_fract_y
 _atom_site_fract_z
 _atom_site_occupancy
  Hg  Hg0  1  -0.00000000  0.50000000  0.00000000  1
  Hg  Hg1  1  0.50000000  0.50000000  0.50000000  1
  Hg  Hg2  1  0.61694299  0.81058514  0.18948906  1
  Hg  Hg3  1  0.11694299  0.18941486  0.31051094  1
  Hg  Hg4  1  0.38305701  0.18941486  0.81051094  1
  Hg  Hg5  1  0.88305701  0.81058514  0.68948906  1
  Hg  Hg6  1  0.84870479  0.98774870  0.08876992  1
  Hg  Hg7  1  0.34870479  0.01225130  0.41123008  1
  Hg  Hg8  1  0.15129521  0.01225130  0.91123008  1
  Hg  Hg9  1  0.65129521  0.98774870  0.58876992  1
  Hg  Hg10  1  0.63849447  0.23688559  0.15087144  1
  Hg  Hg11  1  0.13849447  0.76311441  0.34912856  1
  Hg  Hg12  1  0.36150553  0.76311441  0.84912856  1
  Hg  Hg13  1  0.86150553  0.23688559  0.65087144  1
  P  P0  1  0.85080649  0.50109077  0.35253475  1
  P  P1  1  0.35080649  0.49890923  0.14746525  1
  P  P2  1  0.14919351  0.49890923  0.64746525  1
  P  P3  1  0.64919351  0.50109077  0.85253475  1
  O  O0  1  0.43213344  0.32183557  0.23025309  1
  O  O1  1  0.93213344  0.67816443  0.26974691  1
  O  O2  1  0.56786656  0.67816443  0.76974691  1
  O  O3  1  0.06786656  0.32183557  0.73025309  1
  O  O4  1  0.90532319  0.27771903  0.33592495  1
  O  O5  1  0.40532319  0.72228097  0.16407505  1
  O  O6  1  0.09467681  0.72228097  0.66407505  1
  O  O7  1  0.59467681  0.27771903  0.83592495  1
  O  O8  1  0.65390843  0.54159845  0.00702891  1
  O  O9  1  0.15390843  0.45840155  0.49297109  1
  O  O10  1  0.34609157  0.45840155  0.99297109  1
  O  O11  1  0.84609157  0.54159845  0.50702891  1
  O  O12  1  0.03294084  0.18719901  0.06301888  1
  O  O13  1  0.53294084  0.81280099  0.43698112  1
  O  O14  1  0.96705916  0.81280099  0.93698112  1
  O  O15  1  0.46705916  0.18719901  0.56301888  1
  O  O16  1  0.70699334  0.50301316  0.29511386  1
  O  O17  1  0.20699334  0.49698684  0.20488614  1
  O  O18  1  0.79300666  0.50301316  0.79511386  1
  O  O19  1  0.29300666  0.49698684  0.70488614  1
loop_
_geom_bond_atom_site_label_1
_geom_bond_atom_site_label_2
_geom_bond_distance
_geom_bond_site_symmetry_2
Hg0 O14 2.042092 1_454
Hg0 O12 2.042092 1_555
Hg1 O13 2.042092 1_555
Hg1 O15 2.042092 1_555
Hg2 O5 2.225906 1_555
Hg2 O16 2.298909 1_555
Hg2 O13 2.540520 1_555
Hg2 O8 2.586714 1_555
Hg3 O4 2.225906 1_455
Hg3 O17 2.298909 1_555
Hg3 O12 2.540520 1_555
Hg3 O9 2.586714 1_555
Hg4 O7 2.225906 1_555
Hg4 O19 2.298909 1_555
Hg4 O15 2.540520 1_555
Hg4 O10 2.586714 1_555
Hg5 O6 2.225906 1_655
Hg5 O18 2.298909 1_555
Hg5 O14 2.540520 1_555
Hg5 O11 2.586714 1_555
Hg6 O12 2.246812 1_665
Hg6 O14 2.258263 1_554
Hg6 O1 2.641047 1_555
Hg7 O13 2.246812 1_545
Hg7 O15 2.258263 1_555
Hg7 O0 2.641047 1_555
Hg8 O14 2.246812 1_445
Hg8 O12 2.258263 1_556
Hg8 O3 2.641047 1_555
Hg9 O15 2.246812 1_565
Hg9 O13 2.258263 1_555
Hg9 O2 2.641047 1_555
Hg10 O8 2.275786 1_555
Hg10 O0 2.299348 1_555
Hg10 O16 2.383514 1_555
Hg11 O9 2.275786 1_555
Hg11 O1 2.299348 1_455
Hg11 O17 2.383514 1_555
Hg12 O10 2.275786 1_555
Hg12 O2 2.299348 1_555
Hg12 O19 2.383514 1_555
Hg13 O11 2.275786 1_555
Hg13 O3 2.299348 1_655
Hg13 O18 2.383514 1_555
O0 P1 1.550188 1_555
O1 P0 1.550188 1_555
O2 P3 1.550188 1_555
O3 P2 1.550188 1_555
O4 P0 1.537092 1_555
O5 P1 1.537092 1_555
O6 P2 1.537092 1_555
O7 P3 1.537092 1_555
O8 P3 1.539608 1_554
O9 P2 1.539608 1_555
O10 P1 1.539608 1_556
O11 P0 1.539608 1_555
O16 P0 1.553144 1_555
O17 P1 1.553144 1_555
O18 P3 1.553144 1_555
O19 P2 1.553144 1_555
