# generated using pymatgen
data_Na4Ga2Si(PO6)2
_symmetry_space_group_name_H-M   'P 1'
_cell_length_a   8.84446901
_cell_length_b   8.84446872
_cell_length_c   21.88975076
_cell_angle_alpha   90.00387306
_cell_angle_beta   89.99612694
_cell_angle_gamma   120.00230308
_symmetry_Int_Tables_number   1
_chemical_formula_structural   Na4Ga2Si(PO6)2
_chemical_formula_sum   'Na24 Ga12 Si6 P12 O72'
_cell_volume   1482.87615760
_cell_formula_units_Z   6
loop_
 _symmetry_equiv_pos_site_id
 _symmetry_equiv_pos_as_xyz
  1  'x, y, z'
loop_
 _atom_site_type_symbol
 _atom_site_label
 _atom_site_symmetry_multiplicity
 _atom_site_fract_x
 _atom_site_fract_y
 _atom_site_fract_z
 _atom_site_occupancy
  Na  Na0  1  0.63625631  0.00215484  0.25066752  1
  Na  Na1  1  0.36370394  0.36590898  0.24937876  1
  Na  Na2  1  0.00001254  0.62945445  0.24993241  1
  Na  Na3  1  0.63409102  0.63629606  0.74937876  1
  Na  Na4  1  0.99784516  0.36374369  0.75066752  1
  Na  Na5  1  0.37054555  0.99998746  0.74993241  1
  Na  Na6  1  0.30061672  0.33077575  0.58277239  1
  Na  Na7  1  0.03661103  0.70283193  0.58230919  1
  Na  Na8  1  0.66468719  0.96680102  0.58502218  1
  Na  Na9  1  0.29716807  0.96338897  0.08230919  1
  Na  Na10  1  0.66922425  0.69938328  0.08277239  1
  Na  Na11  1  0.03319898  0.33531281  0.08502218  1
  Na  Na12  1  0.96899663  0.66899944  0.91823581  1
  Na  Na13  1  0.69769070  0.03339945  0.91503456  1
  Na  Na14  1  0.33331703  0.29772312  0.91671259  1
  Na  Na15  1  0.96660055  0.30230930  0.41503456  1
  Na  Na16  1  0.33100056  0.03100337  0.41823581  1
  Na  Na17  1  0.70227688  0.66668297  0.41671259  1
  Na  Na18  1  0.00240337  0.99850636  0.49998964  1
  Na  Na19  1  0.00149364  0.99759663  0.99998964  1
  Na  Na20  1  0.66533254  0.32916335  0.83337823  1
  Na  Na21  1  0.67083665  0.33466746  0.33337823  1
  Na  Na22  1  0.32882384  0.66368166  0.16664494  1
  Na  Na23  1  0.33631834  0.67117616  0.66664494  1
  Ga  Ga0  1  0.99930549  0.99854671  0.35003747  1
  Ga  Ga1  1  0.00145329  0.00069451  0.85003747  1
  Ga  Ga2  1  0.00092047  0.99917976  0.64991703  1
  Ga  Ga3  1  0.00082024  0.99907953  0.14991703  1
  Ga  Ga4  1  0.66462582  0.32355238  0.68355454  1
  Ga  Ga5  1  0.67644762  0.33537418  0.18355454  1
  Ga  Ga6  1  0.66546199  0.33329911  0.98335797  1
  Ga  Ga7  1  0.66670089  0.33453801  0.48335797  1
  Ga  Ga8  1  0.32539901  0.66902702  0.01670138  1
  Ga  Ga9  1  0.33097298  0.67460099  0.51670138  1
  Ga  Ga10  1  0.32277987  0.65851543  0.31655241  1
  Ga  Ga11  1  0.34148457  0.67722013  0.81655241  1
  Si  Si0  1  -0.00001147  0.28961947  0.25001005  1
  Si  Si1  1  0.71038053  0.00001147  0.75001005  1
  Si  Si2  1  0.37366273  0.04127489  0.58282597  1
  Si  Si3  1  0.95872511  0.62633727  0.08282597  1
  Si  Si4  1  0.33338083  0.96215758  0.91663861  1
  Si  Si5  1  0.03784242  0.66661917  0.41663861  1
  P  P0  1  0.29305718  0.00135290  0.24980568  1
  P  P1  1  0.70681603  0.70818386  0.25022175  1
  P  P2  1  0.29181614  0.29318397  0.75022175  1
  P  P3  1  0.99864710  0.70694282  0.74980568  1
  P  P4  1  0.95862287  0.33341221  0.58318997  1
  P  P5  1  0.66604272  0.62354978  0.58355500  1
  P  P6  1  0.66658779  0.04137713  0.08318997  1
  P  P7  1  0.37645022  0.33395728  0.08355500  1
  P  P8  1  0.62290100  0.66578787  0.91721142  1
  P  P9  1  0.04378288  0.37628670  0.91621471  1
  P  P10  1  0.62371330  0.95621712  0.41621471  1
  P  P11  1  0.33421213  0.37709900  0.41721142  1
  O  O0  1  0.21275156  0.03717481  0.30715946  1
  O  O1  1  0.82502784  0.78691163  0.30710625  1
  O  O2  1  0.96093981  0.16566616  0.31033597  1
  O  O3  1  0.21308837  0.17497216  0.80710625  1
  O  O4  1  0.96282519  0.78724844  0.80715946  1
  O  O5  1  0.83433384  0.03906019  0.81033597  1
  O  O6  1  0.79533949  0.96096530  0.68968996  1
  O  O7  1  0.17561205  0.21269674  0.69282188  1
  O  O8  1  0.03818249  0.82514939  0.69284135  1
  O  O9  1  0.78730326  0.82438795  0.19282188  1
  O  O10  1  0.03903470  0.20466051  0.18968996  1
  O  O11  1  0.17485061  0.96181751  0.19284135  1
  O  O12  1  0.88033439  0.37385105  0.64036703  1
  O  O13  1  0.49713658  0.12491593  0.64313229  1
  O  O14  1  0.63204641  0.50734343  0.64111905  1
  O  O15  1  0.87508407  0.50286342  0.14313229  1
  O  O16  1  0.62614895  0.11966561  0.14036703  1
  O  O17  1  0.49265657  0.36795359  0.14111905  1
  O  O18  1  0.45547666  0.29651468  0.02623963  1
  O  O19  1  0.83352889  0.54099687  0.02288945  1
  O  O20  1  0.70294652  0.15840139  0.02618973  1
  O  O21  1  0.45900313  0.16647111  0.52288945  1
  O  O22  1  0.70348532  0.54452334  0.52623963  1
  O  O23  1  0.84159861  0.29705348  0.52618973  1
  O  O24  1  0.54059440  0.70050378  0.97444296  1
  O  O25  1  0.16092728  0.45496780  0.97368019  1
  O  O26  1  0.29264154  0.83748712  0.97651960  1
  O  O27  1  0.54503220  0.83907272  0.47368019  1
  O  O28  1  0.29949622  0.45940560  0.47444296  1
  O  O29  1  0.16251288  0.70735846  0.47651960  1
  O  O30  1  0.12203934  0.62598570  0.35672011  1
  O  O31  1  0.50672631  0.87395759  0.35891183  1
  O  O32  1  0.37261817  0.49420822  0.35967118  1
  O  O33  1  0.12604241  0.49327369  0.85891183  1
  O  O34  1  0.37401430  0.87796066  0.85672011  1
  O  O35  1  0.50579178  0.62738183  0.85967118  1
  O  O36  1  0.02040601  0.84283118  0.40946219  1
  O  O37  1  0.80728220  0.97573384  0.41134185  1
  O  O38  1  0.16878680  0.19427450  0.41129994  1
  O  O39  1  0.02426616  0.19271780  0.91134185  1
  O  O40  1  0.15716882  0.97959399  0.90946219  1
  O  O41  1  0.80572550  0.83121320  0.91129994  1
  O  O42  1  0.97531461  0.16783501  0.58915266  1
  O  O43  1  0.17896114  0.02179804  0.59011853  1
  O  O44  1  0.83056738  0.80715788  0.58864840  1
  O  O45  1  0.97820196  0.82103886  0.09011853  1
  O  O46  1  0.83216499  0.02468539  0.08915266  1
  O  O47  1  0.19284212  0.16943262  0.08864840  1
  O  O48  1  0.69239517  0.17642683  0.74497995  1
  O  O49  1  0.47666554  0.31495197  0.74421569  1
  O  O50  1  0.83211351  0.52515790  0.74308954  1
  O  O51  1  0.68504803  0.52333446  0.24421569  1
  O  O52  1  0.82357317  0.30760483  0.24497995  1
  O  O53  1  0.47484210  0.16788649  0.24308954  1
  O  O54  1  0.64241911  0.50171894  0.92196504  1
  O  O55  1  0.86089544  0.35887511  0.92213416  1
  O  O56  1  0.50936318  0.15571782  0.92379456  1
  O  O57  1  0.64112489  0.13910456  0.42213416  1
  O  O58  1  0.49828106  0.35758089  0.42196504  1
  O  O59  1  0.84428218  0.49063682  0.42379456  1
  O  O60  1  0.36030607  0.50010482  0.07696026  1
  O  O61  1  0.15213693  0.64247094  0.07796110  1
  O  O62  1  0.50369960  0.85647963  0.07745922  1
  O  O63  1  0.35752906  0.84786307  0.57796110  1
  O  O64  1  0.49989518  0.63969393  0.57696026  1
  O  O65  1  0.14352037  0.49630040  0.57745922  1
  O  O66  1  0.31486646  0.83830550  0.25585102  1
  O  O67  1  0.52512868  0.69300821  0.25685398  1
  O  O68  1  0.17637929  0.48406433  0.25500180  1
  O  O69  1  0.30699179  0.47487132  0.75685398  1
  O  O70  1  0.16169450  0.68513354  0.75585102  1
  O  O71  1  0.51593567  0.82362071  0.75500180  1
loop_
_geom_bond_atom_site_label_1
_geom_bond_atom_site_label_2
_geom_bond_distance
_geom_bond_site_symmetry_2
Na0 O52 2.362744 1_555
Na0 O67 2.402681 1_545
Na0 O66 2.464406 1_545
Na0 O53 2.511384 1_555
Na0 O31 2.629305 1_545
Na0 O16 2.647835 1_555
Na0 O2 2.809063 1_555
Na0 O9 2.821363 1_545
Na1 O68 2.362968 1_555
Na1 O53 2.402956 1_555
Na1 O51 2.464047 1_555
Na1 O67 2.510772 1_555
Na1 O17 2.626018 1_555
Na1 O32 2.651933 1_555
Na1 O10 2.809172 1_555
Na1 O0 2.820263 1_555
Na2 O66 2.457496 1_555
Na2 O51 2.458036 1_455
Na2 O68 2.470842 1_555
Na2 O52 2.471347 1_455
Na2 O30 2.581353 1_555
Na2 O15 2.588952 1_455
Na2 O11 2.836966 1_555
Na2 O1 2.838285 1_455
Na3 O71 2.362968 1_555
Na3 O50 2.402956 1_555
Na3 O49 2.464046 1_555
Na3 O69 2.510772 1_555
Na3 O14 2.626018 1_555
Na3 O35 2.651933 1_555
Na3 O6 2.809172 1_555
Na3 O4 2.820263 1_555
Na4 O48 2.362744 1_555
Na4 O69 2.402681 1_655
Na4 O70 2.464406 1_655
Na4 O50 2.511384 1_555
Na4 O33 2.629305 1_655
Na4 O12 2.647835 1_555
Na4 O5 2.809062 1_555
Na4 O7 2.821363 1_655
Na5 O70 2.457496 1_555
Na5 O49 2.458036 1_565
Na5 O71 2.470842 1_555
Na5 O48 2.471347 1_565
Na5 O34 2.581353 1_555
Na5 O13 2.588952 1_565
Na5 O8 2.836966 1_555
Na5 O3 2.838285 1_565
Na6 O43 2.389756 1_555
Na6 O64 2.402449 1_555
Na6 O65 2.474181 1_555
Na6 O42 2.495512 1_455
Na6 O28 2.632319 1_555
Na6 O7 2.638437 1_555
Na6 O21 2.797802 1_555
Na6 O14 2.843384 1_555
Na7 O44 2.423458 1_455
Na7 O65 2.443222 1_555
Na7 O43 2.453731 1_565
Na7 O63 2.463651 1_555
Na7 O29 2.561083 1_555
Na7 O8 2.647499 1_555
Na7 O12 2.823114 1_455
Na7 O22 2.832364 1_455
Na8 O63 2.377549 1_555
Na8 O42 2.415005 1_565
Na8 O44 2.494808 1_555
Na8 O64 2.511654 1_555
Na8 O6 2.578247 1_555
Na8 O27 2.672210 1_555
Na8 O13 2.800299 1_565
Na8 O23 2.840433 1_565
Na9 O47 2.423458 1_565
Na9 O62 2.443222 1_555
Na9 O45 2.453731 1_455
Na9 O61 2.463651 1_555
Na9 O26 2.561083 1_554
Na9 O11 2.647499 1_555
Na9 O16 2.823114 1_565
Na9 O18 2.832364 1_565
Na10 O45 2.389756 1_555
Na10 O60 2.402449 1_555
Na10 O62 2.474181 1_555
Na10 O46 2.495512 1_565
Na10 O24 2.632319 1_554
Na10 O9 2.638437 1_555
Na10 O19 2.797802 1_555
Na10 O17 2.843384 1_555
Na11 O61 2.377549 1_555
Na11 O46 2.415005 1_455
Na11 O47 2.494808 1_555
Na11 O60 2.511654 1_555
Na11 O10 2.578247 1_555
Na11 O25 2.672210 1_554
Na11 O15 2.800299 1_455
Na11 O20 2.840433 1_455
Na12 O40 2.404334 1_655
Na12 O55 2.412922 1_555
Na12 O41 2.497727 1_555
Na12 O54 2.502950 1_555
Na12 O19 2.570726 1_556
Na12 O4 2.658214 1_555
Na12 O26 2.788622 1_655
Na12 O33 2.861739 1_655
Na13 O56 2.404910 1_555
Na13 O41 2.413754 1_545
Na13 O55 2.497771 1_555
Na13 O39 2.502908 1_655
Na13 O5 2.579663 1_555
Na13 O20 2.663264 1_556
Na13 O34 2.789103 1_545
Na13 O24 2.863490 1_545
Na14 O39 2.410201 1_555
Na14 O54 2.410303 1_555
Na14 O56 2.445731 1_555
Na14 O40 2.446486 1_545
Na14 O3 2.628933 1_555
Na14 O18 2.632007 1_556
Na14 O25 2.816739 1_555
Na14 O35 2.817684 1_555
Na15 O59 2.404910 1_555
Na15 O38 2.413755 1_655
Na15 O57 2.497771 1_555
Na15 O37 2.502908 1_545
Na15 O2 2.579663 1_555
Na15 O23 2.663264 1_555
Na15 O30 2.789103 1_655
Na15 O28 2.863490 1_655
Na16 O36 2.404334 1_545
Na16 O57 2.412923 1_555
Na16 O38 2.497727 1_555
Na16 O58 2.502950 1_555
Na16 O21 2.570726 1_555
Na16 O0 2.658214 1_555
Na16 O29 2.788622 1_545
Na16 O31 2.861739 1_545
Na17 O37 2.410201 1_555
Na17 O58 2.410303 1_555
Na17 O59 2.445731 1_555
Na17 O36 2.446487 1_655
Na17 O1 2.628933 1_555
Na17 O22 2.632007 1_555
Na17 O27 2.816739 1_555
Na17 O32 2.817684 1_555
Na18 O43 2.460059 1_565
Na18 O36 2.463082 1_555
Na18 O44 2.523511 1_455
Na18 O38 2.526743 1_565
Na18 O37 2.537125 1_455
Na18 O42 2.543226 1_465
Na19 O45 2.460059 1_456
Na19 O40 2.463082 1_555
Na19 O47 2.523511 1_566
Na19 O41 2.526743 1_455
Na19 O39 2.537125 1_565
Na19 O46 2.543226 1_466
Na20 O48 2.439135 1_555
Na20 O56 2.461124 1_555
Na20 O55 2.526108 1_555
Na20 O49 2.529860 1_555
Na20 O54 2.537592 1_555
Na20 O50 2.555350 1_555
Na21 O52 2.439136 1_555
Na21 O59 2.461124 1_555
Na21 O57 2.526108 1_555
Na21 O51 2.529860 1_555
Na21 O58 2.537592 1_555
Na21 O53 2.555350 1_555
Na22 O68 2.437288 1_555
Na22 O61 2.439863 1_555
Na22 O66 2.530581 1_555
Na22 O60 2.535169 1_555
Na22 O62 2.544342 1_555
Na22 O67 2.555581 1_555
Na23 O71 2.437288 1_555
Na23 O63 2.439863 1_555
Na23 O70 2.530581 1_555
Na23 O64 2.535169 1_555
Na23 O65 2.544342 1_555
Na23 O69 2.555581 1_555
Ga0 O2 1.885981 1_565
Ga0 O1 1.969071 1_555
Ga0 O36 1.970010 1_655
Ga0 O0 1.978969 1_665
Ga0 O37 2.093541 1_555
Ga0 O38 2.108763 1_665
Ga1 O5 1.885981 1_455
Ga1 O3 1.969071 1_555
Ga1 O40 1.970010 1_545
Ga1 O4 1.978969 1_445
Ga1 O39 2.093541 1_555
Ga1 O41 2.108763 1_445
Ga2 O6 1.887724 1_455
Ga2 O8 1.966763 1_555
Ga2 O7 1.979260 1_565
Ga2 O43 1.979333 1_565
Ga2 O42 2.093733 1_465
Ga2 O44 2.096201 1_455
Ga3 O10 1.887724 1_565
Ga3 O11 1.966763 1_555
Ga3 O9 1.979260 1_455
Ga3 O45 1.979333 1_455
Ga3 O46 2.093733 1_465
Ga3 O47 2.096201 1_565
Ga4 O13 1.860402 1_555
Ga4 O48 1.970121 1_555
Ga4 O12 1.970394 1_555
Ga4 O14 2.014179 1_555
Ga4 O49 2.099011 1_555
Ga4 O50 2.104883 1_555
Ga5 O15 1.860402 1_555
Ga5 O52 1.970121 1_555
Ga5 O16 1.970394 1_555
Ga5 O17 2.014179 1_555
Ga5 O51 2.099011 1_555
Ga5 O53 2.104883 1_555
Ga6 O19 1.897901 1_556
Ga6 O18 1.957476 1_556
Ga6 O20 1.973551 1_556
Ga6 O56 1.975927 1_555
Ga6 O54 2.090528 1_555
Ga6 O55 2.108001 1_555
Ga7 O21 1.897901 1_555
Ga7 O22 1.957475 1_555
Ga7 O23 1.973551 1_555
Ga7 O59 1.975927 1_555
Ga7 O58 2.090528 1_555
Ga7 O57 2.108001 1_555
Ga8 O26 1.873343 1_554
Ga8 O25 1.957798 1_554
Ga8 O61 1.959959 1_555
Ga8 O24 2.006385 1_554
Ga8 O62 2.095157 1_555
Ga8 O60 2.128131 1_555
Ga9 O29 1.873343 1_555
Ga9 O27 1.957798 1_555
Ga9 O63 1.959959 1_555
Ga9 O28 2.006385 1_555
Ga9 O65 2.095157 1_555
Ga9 O64 2.128131 1_555
Ga10 O30 1.870041 1_555
Ga10 O32 1.959040 1_555
Ga10 O68 1.968373 1_555
Ga10 O31 2.009264 1_555
Ga10 O66 2.100146 1_555
Ga10 O67 2.111253 1_555
Ga11 O34 1.870041 1_555
Ga11 O35 1.959040 1_555
Ga11 O71 1.968373 1_555
Ga11 O33 2.009264 1_555
Ga11 O70 2.100146 1_555
Ga11 O69 2.111253 1_555
O0 P0 1.551096 1_555
O1 P1 1.549340 1_555
O2 Si0 1.639027 1_655
O3 P2 1.549340 1_555
O4 P3 1.551096 1_555
O5 Si1 1.639027 1_555
O6 Si1 1.639098 1_565
O7 P2 1.552462 1_555
O8 P3 1.550695 1_455
O9 P1 1.552462 1_555
O10 Si0 1.639098 1_555
O11 P0 1.550695 1_565
O12 P4 1.556065 1_555
O13 Si2 1.635428 1_555
O14 P5 1.557425 1_555
O15 Si3 1.635428 1_555
O16 P6 1.556065 1_555
O17 P7 1.557425 1_555
O18 P7 1.550344 1_555
O19 Si3 1.637489 1_555
O20 P6 1.548787 1_555
O21 Si2 1.637489 1_555
O22 P5 1.550344 1_555
O23 P4 1.548787 1_555
O24 P8 1.554678 1_555
O25 P9 1.555333 1_555
O26 Si4 1.632972 1_555
O27 P10 1.555333 1_555
O28 P11 1.554678 1_555
O29 Si5 1.632972 1_555
O30 Si5 1.634455 1_555
O31 P10 1.555796 1_555
O32 P11 1.556569 1_555
O33 P9 1.555796 1_555
O34 Si4 1.634455 1_555
O35 P8 1.556569 1_555
O36 Si5 1.648571 1_555
O37 P10 1.548179 1_555
O38 P11 1.551151 1_555
O39 P9 1.548179 1_555
O40 Si4 1.648571 1_555
O41 P8 1.551151 1_555
O42 P4 1.549084 1_555
O43 Si2 1.650411 1_555
O44 P5 1.550408 1_555
O45 Si3 1.650411 1_555
O46 P6 1.549084 1_555
O47 P7 1.550408 1_555
O48 Si1 1.649304 1_555
O49 P2 1.553198 1_555
O50 P3 1.551695 1_555
O51 P1 1.553198 1_555
O52 Si0 1.649304 1_655
O53 P0 1.551695 1_555
O54 P8 1.548182 1_555
O55 P9 1.551712 1_655
O56 Si4 1.647148 1_545
O57 P10 1.551712 1_545
O58 P11 1.548182 1_555
O59 Si5 1.647148 1_655
O60 P7 1.552574 1_555
O61 Si3 1.647363 1_455
O62 P6 1.552225 1_565
O63 Si2 1.647363 1_565
O64 P5 1.552574 1_555
O65 P4 1.552225 1_455
O66 P0 1.553219 1_565
O67 P1 1.550994 1_555
O68 Si0 1.649308 1_555
O69 P2 1.550994 1_555
O70 P3 1.553219 1_455
O71 Si1 1.649308 1_565
