# generated using pymatgen
data_ScH3Br3N
_symmetry_space_group_name_H-M   'P 1'
_cell_length_a   7.66619200
_cell_length_b   9.78478739
_cell_length_c   9.90309806
_cell_angle_alpha   72.79502691
_cell_angle_beta   76.73290451
_cell_angle_gamma   80.80650386
_symmetry_Int_Tables_number   1
_chemical_formula_structural   ScH3Br3N
_chemical_formula_sum   'Sc4 H12 Br12 N4'
_cell_volume   687.29093122
_cell_formula_units_Z   4
loop_
 _symmetry_equiv_pos_site_id
 _symmetry_equiv_pos_as_xyz
  1  'x, y, z'
loop_
 _atom_site_type_symbol
 _atom_site_label
 _atom_site_symmetry_multiplicity
 _atom_site_fract_x
 _atom_site_fract_y
 _atom_site_fract_z
 _atom_site_occupancy
  Sc  Sc0  1  0.39766500  0.80788600  0.55239100  1
  Sc  Sc1  1  0.07861700  0.69522000  0.94035300  1
  Sc  Sc2  1  0.60233500  0.19211400  0.44760900  1
  Sc  Sc3  1  0.92138300  0.30478000  0.05964700  1
  H  H0  1  0.70177700  0.73911100  0.34960900  1
  H  H1  1  0.29822300  0.26088900  0.65039100  1
  H  H2  1  0.68796600  0.59808900  0.49101100  1
  H  H3  1  0.31203400  0.40191100  0.50898900  1
  H  H4  1  0.77778200  0.73947600  0.49178500  1
  H  H5  1  0.22221800  0.26052400  0.50821500  1
  H  H6  1  0.60432400  0.24052400  0.99889700  1
  H  H7  1  0.39567600  0.75947600  0.00110300  1
  H  H8  1  0.23987800  0.76023200  0.14580300  1
  H  H9  1  0.75377900  0.09968200  0.99644500  1
  H  H10  1  0.24622100  0.90031800  0.00355500  1
  H  H11  1  0.76012200  0.23976800  0.85419700  1
  Br  Br0  1  0.09221200  0.91440500  0.70229400  1
  Br  Br1  1  0.41550700  0.04729200  0.33565200  1
  Br  Br2  1  0.39536700  0.59090200  0.79098500  1
  Br  Br3  1  0.60463300  0.40909800  0.20901500  1
  Br  Br4  1  0.58449300  0.95270800  0.66434800  1
  Br  Br5  1  0.90778800  0.08559500  0.29770600  1
  Br  Br6  1  0.09818800  0.46020800  0.16057600  1
  Br  Br7  1  0.90181200  0.53979200  0.83942400  1
  Br  Br8  1  0.79455500  0.81871500  0.06391900  1
  Br  Br9  1  0.20544500  0.18128500  0.93608100  1
  Br  Br10  1  0.76209100  0.31439700  0.57307100  1
  Br  Br11  1  0.23790900  0.68560300  0.42692900  1
  N  N0  1  0.32518100  0.29118800  0.53939300  1
  N  N1  1  0.67481900  0.70881200  0.46060700  1
  N  N2  1  0.26212300  0.78952500  0.03490900  1
  N  N3  1  0.73787700  0.21047500  0.96509100  1
loop_
_geom_bond_atom_site_label_1
_geom_bond_atom_site_label_2
_geom_bond_distance
_geom_bond_site_symmetry_2
H0 N1 1.030253 1_555
H1 N0 1.030253 1_555
H2 N1 1.029870 1_555
H3 N0 1.029870 1_555
H4 N1 1.025059 1_555
H5 N0 1.025059 1_555
H6 N3 1.025427 1_555
H7 N2 1.025427 1_555
H8 N2 1.029910 1_555
H9 N3 1.030789 1_555
H10 N2 1.030789 1_555
H11 N3 1.029910 1_555
Br0 Sc1 2.671321 1_555
Br0 Sc0 2.704326 1_555
Br1 Sc0 2.665771 1_545
Br1 Sc2 2.755992 1_555
Br2 Sc0 2.667597 1_555
Br2 Sc1 2.752998 1_555
Br3 Sc2 2.667597 1_555
Br3 Sc3 2.752998 1_555
Br4 Sc2 2.665771 1_565
Br4 Sc0 2.755992 1_555
Br5 Sc3 2.671321 1_555
Br5 Sc2 2.704326 1_555
Br6 Sc1 2.672043 1_554
Br6 Sc3 2.707186 1_455
Br7 Sc3 2.672043 1_556
Br7 Sc1 2.707186 1_655
Br8 Sc1 2.551598 1_654
Br9 Sc3 2.551598 1_456
Br10 Sc2 2.553708 1_555
Br11 Sc0 2.553708 1_555
N0 Sc2 2.292830 1_555
N1 Sc0 2.292830 1_555
N2 Sc1 2.288661 1_554
N3 Sc3 2.288661 1_556
