# generated using pymatgen
data_LaAlO3
_symmetry_space_group_name_H-M   'P 1'
_cell_length_a   5.35090685
_cell_length_b   5.35090733
_cell_length_c   5.35090587
_cell_angle_alpha   60.14702703
_cell_angle_beta   60.14701797
_cell_angle_gamma   60.14701406
_symmetry_Int_Tables_number   1
_chemical_formula_structural   LaAlO3
_chemical_formula_sum   'La2 Al2 O6'
_cell_volume   108.69536345
_cell_formula_units_Z   2
loop_
 _symmetry_equiv_pos_site_id
 _symmetry_equiv_pos_as_xyz
  1  'x, y, z'
loop_
 _atom_site_type_symbol
 _atom_site_label
 _atom_site_symmetry_multiplicity
 _atom_site_fract_x
 _atom_site_fract_y
 _atom_site_fract_z
 _atom_site_occupancy
  La  La0  1  0.75000000  0.75000000  0.75000000  1
  La  La1  1  0.25000000  0.25000000  0.25000000  1
  Al  Al0  1  0.50000000  0.50000000  0.50000000  1
  Al  Al1  1  0.00000000  0.00000000  -0.00000000  1
  O  O0  1  0.28172810  0.75000000  0.21827190  1
  O  O1  1  0.75000000  0.21827190  0.28172810  1
  O  O2  1  0.21827190  0.28172810  0.75000000  1
  O  O3  1  0.71827190  0.25000000  0.78172810  1
  O  O4  1  0.78172810  0.71827190  0.25000000  1
  O  O5  1  0.25000000  0.78172810  0.71827190  1
loop_
_geom_bond_atom_site_label_1
_geom_bond_atom_site_label_2
_geom_bond_distance
_geom_bond_site_symmetry_2
La0 O0 2.511245 1_556
La0 O2 2.511245 1_655
La0 O1 2.511246 1_565
La0 O4 2.680858 1_555
La0 O4 2.680858 1_556
La0 O5 2.680859 1_555
La0 O5 2.680859 1_655
La0 O3 2.680859 1_565
La0 O3 2.680859 1_555
La0 O0 2.851548 1_655
La0 O2 2.851548 1_565
La0 O1 2.851548 1_556
La1 O3 2.511245 1_554
La1 O4 2.511245 1_455
La1 O5 2.511246 1_545
La1 O2 2.680858 1_555
La1 O2 2.680858 1_554
La1 O1 2.680859 1_555
La1 O1 2.680859 1_455
La1 O0 2.680859 1_545
La1 O0 2.680859 1_555
La1 O3 2.851548 1_455
La1 O4 2.851548 1_545
La1 O5 2.851548 1_554
Al0 O5 1.901561 1_555
Al0 O1 1.901561 1_555
Al0 O3 1.901561 1_555
Al0 O0 1.901561 1_555
Al0 O4 1.901562 1_555
Al0 O2 1.901562 1_555
Al1 O1 1.901561 1_455
Al1 O5 1.901561 1_544
Al1 O0 1.901561 1_545
Al1 O3 1.901561 1_454
Al1 O2 1.901562 1_554
Al1 O4 1.901562 1_445
