# generated using pymatgen
data_Nd3(BN2)2
_symmetry_space_group_name_H-M   'P 1'
_cell_length_a   3.54078884
_cell_length_b   6.29744916
_cell_length_c   6.51104294
_cell_angle_alpha   118.92057961
_cell_angle_beta   105.77774963
_cell_angle_gamma   89.99998683
_symmetry_Int_Tables_number   1
_chemical_formula_structural   Nd3(BN2)2
_chemical_formula_sum   'Nd3 B2 N4'
_cell_volume   120.79010914
_cell_formula_units_Z   1
loop_
 _symmetry_equiv_pos_site_id
 _symmetry_equiv_pos_as_xyz
  1  'x, y, z'
loop_
 _atom_site_type_symbol
 _atom_site_label
 _atom_site_symmetry_multiplicity
 _atom_site_fract_x
 _atom_site_fract_y
 _atom_site_fract_z
 _atom_site_occupancy
  Nd  Nd0  1  0.20149385  0.70149385  0.40298670  1
  Nd  Nd1  1  0.79850615  0.29850615  0.59701330  1
  Nd  Nd2  1  -0.00000000  0.00000000  0.00000000  1
  B  B0  1  0.50000000  0.35732283  0.00000000  1
  B  B1  1  0.50000000  0.64267717  -0.00000000  1
  N  N0  1  0.61882910  0.36254751  0.23765921  1
  N  N1  1  0.61882910  0.87511270  0.23765821  1
  N  N2  1  0.38117090  0.12488730  0.76234179  1
  N  N3  1  0.38117090  0.63745249  0.76234079  1
loop_
_geom_bond_atom_site_label_1
_geom_bond_atom_site_label_2
_geom_bond_distance
_geom_bond_site_symmetry_2
B0 N0 1.472849 1_555
B0 N2 1.472850 1_554
B1 N3 1.472849 1_554
B1 N1 1.472850 1_555
N0 Nd1 2.478929 1_555
N0 Nd0 2.557564 1_555
N0 Nd0 2.557570 1_655
N0 Nd2 2.673456 1_555
N0 Nd2 2.673458 1_655
N1 Nd1 2.478926 1_565
N1 Nd0 2.557569 1_555
N1 Nd0 2.557571 1_655
N1 Nd2 2.673447 1_565
N1 Nd2 2.673448 1_665
N2 Nd0 2.478926 1_545
N2 Nd1 2.557569 1_555
N2 Nd1 2.557571 1_455
N2 Nd2 2.673447 1_656
N2 Nd2 2.673448 1_556
N3 Nd0 2.478929 1_555
N3 Nd1 2.557564 1_555
N3 Nd1 2.557570 1_455
N3 Nd2 2.673456 1_666
N3 Nd2 2.673458 1_566
