# generated using pymatgen
data_Hg2WO4
_symmetry_space_group_name_H-M   'P 1'
_cell_length_a   4.94823840
_cell_length_b   7.28536875
_cell_length_c   7.28536945
_cell_angle_alpha   105.81248166
_cell_angle_beta   104.49225679
_cell_angle_gamma   104.49224860
_symmetry_Int_Tables_number   1
_chemical_formula_structural   Hg2WO4
_chemical_formula_sum   'Hg4 W2 O8'
_cell_volume   229.91814275
_cell_formula_units_Z   2
loop_
 _symmetry_equiv_pos_site_id
 _symmetry_equiv_pos_as_xyz
  1  'x, y, z'
loop_
 _atom_site_type_symbol
 _atom_site_label
 _atom_site_symmetry_multiplicity
 _atom_site_fract_x
 _atom_site_fract_y
 _atom_site_fract_z
 _atom_site_occupancy
  Hg  Hg0  1  0.47938176  0.75178431  0.52976786  1
  Hg  Hg1  1  0.02061824  0.47023214  0.24821569  1
  Hg  Hg2  1  0.52061824  0.24821569  0.47023214  1
  Hg  Hg3  1  0.97938176  0.52976786  0.75178431  1
  W  W0  1  0.25000000  0.09775747  0.90224253  1
  W  W1  1  0.75000000  0.90224253  0.09775747  1
  O  O0  1  0.29779627  0.04956623  0.66272765  1
  O  O1  1  0.20220373  0.33727235  0.95043377  1
  O  O2  1  0.70220373  0.95043377  0.33727235  1
  O  O3  1  0.79779627  0.66272765  0.04956623  1
  O  O4  1  0.85053987  0.91635704  0.81900590  1
  O  O5  1  0.64946013  0.18099410  0.08364296  1
  O  O6  1  0.35053987  0.81900590  0.91635704  1
  O  O7  1  0.14946013  0.08364296  0.18099410  1
loop_
_geom_bond_atom_site_label_1
_geom_bond_atom_site_label_2
_geom_bond_distance
_geom_bond_site_symmetry_2
Hg0 O4 2.198849 1_555
Hg0 O2 2.521556 1_555
Hg0 O0 2.591943 1_565
Hg1 O5 2.198849 1_455
Hg1 O3 2.521555 1_455
Hg1 O1 2.591943 1_554
Hg2 O7 2.198849 1_555
Hg2 O0 2.521556 1_555
Hg2 O2 2.591943 1_545
Hg3 O6 2.198849 1_655
Hg3 O1 2.521555 1_655
Hg3 O3 2.591943 1_556
O0 W0 1.771526 1_555
O1 W0 1.771526 1_555
O2 W1 1.771526 1_555
O3 W1 1.771526 1_555
O4 W0 1.917609 1_665
O4 W1 2.230722 1_556
O5 W0 1.917609 1_554
O5 W1 2.230722 1_545
O6 W1 1.917609 1_556
O6 W0 2.230722 1_565
O7 W1 1.917609 1_445
O7 W0 2.230722 1_554
