# generated using pymatgen
data_Sr2MgCrO4
_symmetry_space_group_name_H-M   'P 1'
_cell_length_a   3.92011844
_cell_length_b   3.92011870
_cell_length_c   9.83943858
_cell_angle_alpha   101.49043902
_cell_angle_beta   101.49043166
_cell_angle_gamma   90.00000897
_symmetry_Int_Tables_number   1
_chemical_formula_structural   Sr2MgCrO4
_chemical_formula_sum   'Sr2 Mg1 Cr1 O4'
_cell_volume   145.08166226
_cell_formula_units_Z   1
loop_
 _symmetry_equiv_pos_site_id
 _symmetry_equiv_pos_as_xyz
  1  'x, y, z'
loop_
 _atom_site_type_symbol
 _atom_site_label
 _atom_site_symmetry_multiplicity
 _atom_site_fract_x
 _atom_site_fract_y
 _atom_site_fract_z
 _atom_site_occupancy
  Sr  Sr0  1  0.68616008  0.68616108  0.37232216  1
  Sr  Sr1  1  0.31383892  0.31383892  0.62767784  1
  Mg  Mg0  1  0.50000000  0.50000000  0.00000000  1
  Cr  Cr0  1  -0.00000000  0.00000000  0.00000000  1
  O  O0  1  0.80923338  0.80923338  0.61846876  1
  O  O1  1  0.19076562  0.19076462  0.38153124  1
  O  O2  1  0.99999900  0.50000100  0.00000100  1
  O  O3  1  0.50000100  0.00000000  0.00000100  1
loop_
_geom_bond_atom_site_label_1
_geom_bond_atom_site_label_2
_geom_bond_distance
_geom_bond_site_symmetry_2
Mg0 O2 1.960053 1_555
Mg0 O3 1.960057 1_565
Mg0 O3 1.960061 1_555
Mg0 O2 1.960065 1_455
Cr0 O3 1.960057 1_455
Cr0 O2 1.960057 1_445
Cr0 O3 1.960061 1_555
Cr0 O2 1.960061 1_455
O0 Sr0 2.323849 1_555
O0 Sr1 2.773300 1_555
O0 Sr1 2.773306 1_565
O0 Sr1 2.773306 1_655
O0 Sr1 2.773311 1_665
O1 Sr1 2.323849 1_555
O1 Sr0 2.773300 1_545
O1 Sr0 2.773305 1_555
O1 Sr0 2.773305 1_445
O1 Sr0 2.773311 1_455
