# generated using pymatgen
data_MgV4(O2F)4
_symmetry_space_group_name_H-M   'P 1'
_cell_length_a   5.63028947
_cell_length_b   5.07327688
_cell_length_c   8.69670269
_cell_angle_alpha   91.27506318
_cell_angle_beta   90.97585138
_cell_angle_gamma   91.58615644
_symmetry_Int_Tables_number   1
_chemical_formula_structural   MgV4(O2F)4
_chemical_formula_sum   'Mg1 V4 O8 F4'
_cell_volume   248.21738975
_cell_formula_units_Z   1
loop_
 _symmetry_equiv_pos_site_id
 _symmetry_equiv_pos_as_xyz
  1  'x, y, z'
loop_
 _atom_site_type_symbol
 _atom_site_label
 _atom_site_symmetry_multiplicity
 _atom_site_fract_x
 _atom_site_fract_y
 _atom_site_fract_z
 _atom_site_occupancy
  Mg  Mg0  1  0.88307200  0.37750700  0.68355400  1
  V  V0  1  0.11137800  0.65225600  0.12261600  1
  V  V1  1  0.39196900  0.34756400  0.63080400  1
  V  V2  1  0.60158800  0.85816700  0.88541700  1
  V  V3  1  0.87333600  0.15205700  0.36936800  1
  O  O0  1  0.09370100  0.87327700  0.26848300  1
  O  O1  1  0.88443900  0.69075400  0.99308900  1
  O  O2  1  0.65629300  0.29636700  0.50068900  1
  O  O3  1  0.40765300  0.09683900  0.75418400  1
  O  O4  1  0.61219600  0.60397200  0.73340800  1
  O  O5  1  0.37678000  0.81478700  0.01377600  1
  O  O6  1  0.10711000  0.21308200  0.50777700  1
  O  O7  1  0.89407200  0.37171300  0.22966900  1
  F  F0  1  0.15865300  0.59890800  0.69822400  1
  F  F1  1  0.30893400  0.37734200  0.13511300  1
  F  F2  1  0.66367400  0.88065100  0.33134200  1
  F  F3  1  0.85015200  0.11975600  0.84248700  1
loop_
_geom_bond_atom_site_label_1
_geom_bond_atom_site_label_2
_geom_bond_distance
_geom_bond_site_symmetry_2
Mg0 O4 1.982754 1_555
Mg0 O2 2.049751 1_555
Mg0 O6 2.165876 1_655
O0 V0 1.680370 1_555
O0 V3 2.094870 1_465
O1 V0 1.707113 1_656
O1 V2 2.047886 1_555
O2 V3 1.842141 1_555
O2 V1 1.904835 1_555
O3 V1 1.685478 1_555
O3 V2 2.013262 1_545
O4 V2 1.829028 1_555
O4 V1 1.961428 1_555
O5 V2 1.714725 1_554
O5 V0 1.955369 1_555
O6 V3 1.784394 1_455
O6 V1 2.007739 1_555
O7 V3 1.670143 1_555
O7 V0 2.095421 1_655
F0 Mg0 1.890974 1_455
F0 V1 1.944504 1_555
F1 V0 1.811838 1_555
F2 V3 1.809752 1_565
F3 Mg0 1.931447 1_555
F3 V2 1.948387 1_545
