# generated using pymatgen
data_Na2SiSnGe(PO6)2
_symmetry_space_group_name_H-M   'P 1'
_cell_length_a   8.70276706
_cell_length_b   8.72172615
_cell_length_c   22.12667657
_cell_angle_alpha   90.02814501
_cell_angle_beta   90.06829664
_cell_angle_gamma   119.84330582
_symmetry_Int_Tables_number   1
_chemical_formula_structural   Na2SiSnGe(PO6)2
_chemical_formula_sum   'Na12 Si6 Sn6 Ge6 P12 O72'
_cell_volume   1456.76515508
_cell_formula_units_Z   6
loop_
 _symmetry_equiv_pos_site_id
 _symmetry_equiv_pos_as_xyz
  1  'x, y, z'
loop_
 _atom_site_type_symbol
 _atom_site_label
 _atom_site_symmetry_multiplicity
 _atom_site_fract_x
 _atom_site_fract_y
 _atom_site_fract_z
 _atom_site_occupancy
  Na  Na0  1  0.00056248  0.63774697  0.25015452  1
  Na  Na1  1  0.36708222  0.99740725  0.75182394  1
  Na  Na2  1  0.66451873  0.97038997  0.58665688  1
  Na  Na3  1  0.03598869  0.33440705  0.08389843  1
  Na  Na4  1  0.96812933  0.66821679  0.91842756  1
  Na  Na5  1  0.32791723  0.02682265  0.41912692  1
  Na  Na6  1  0.00312699  0.99574286  0.49988268  1
  Na  Na7  1  0.00153401  0.99838937  0.99833171  1
  Na  Na8  1  0.66618433  0.32803737  0.83669677  1
  Na  Na9  1  0.67080552  0.33317148  0.33046465  1
  Na  Na10  1  0.35040717  0.67478226  0.16612409  1
  Na  Na11  1  0.32642310  0.65240079  0.66932163  1
  Si  Si0  1  0.99953101  0.29690305  0.24711129  1
  Si  Si1  1  0.71009693  0.99218773  0.75485022  1
  Si  Si2  1  0.37094379  0.04220314  0.58290785  1
  Si  Si3  1  0.95129130  0.61743702  0.07958142  1
  Si  Si4  1  0.33798685  0.96166172  0.91652637  1
  Si  Si5  1  0.04121244  0.66452233  0.41220167  1
  Sn  Sn0  1  0.99441338  0.00065196  0.34935815  1
  Sn  Sn1  1  0.00422754  0.00075552  0.65044255  1
  Sn  Sn2  1  0.99863293  0.99449056  0.14607036  1
  Sn  Sn3  1  0.67073027  0.33423335  0.69019788  1
  Sn  Sn4  1  0.67074332  0.33887896  0.47754249  1
  Sn  Sn5  1  0.32671431  0.66559216  0.51946619  1
  Ge  Ge0  1  0.00459089  0.00857373  0.85547018  1
  Ge  Ge1  1  0.66953180  0.33037799  0.18335691  1
  Ge  Ge2  1  0.65845560  0.32959301  0.97981694  1
  Ge  Ge3  1  0.32979637  0.67445394  0.01838392  1
  Ge  Ge4  1  0.32701433  0.65741649  0.31263952  1
  Ge  Ge5  1  0.34335388  0.67383597  0.81729927  1
  P  P0  1  0.30674593  0.00495958  0.24981873  1
  P  P1  1  0.69502175  0.69848728  0.24884613  1
  P  P2  1  0.28607784  0.29824541  0.75551964  1
  P  P3  1  0.00342058  0.70923299  0.75642310  1
  P  P4  1  0.96110305  0.33533033  0.58435967  1
  P  P5  1  0.66705224  0.62370134  0.58404842  1
  P  P6  1  0.65634802  0.04459220  0.08087561  1
  P  P7  1  0.38939526  0.34087260  0.08168508  1
  P  P8  1  0.61642377  0.66676033  0.91837911  1
  P  P9  1  0.05047597  0.37933888  0.91720792  1
  P  P10  1  0.61994454  0.94840505  0.41478561  1
  P  P11  1  0.33257346  0.38150483  0.41381842  1
  O  O0  1  0.23114538  0.04120373  0.30809293  1
  O  O1  1  0.82318056  0.77104931  0.30374496  1
  O  O2  1  0.95434506  0.17344559  0.30619513  1
  O  O3  1  0.20354782  0.16539184  0.80857707  1
  O  O4  1  0.97429661  0.79666333  0.81259848  1
  O  O5  1  0.84422516  0.02832649  0.81095414  1
  O  O6  1  0.78022039  0.96002919  0.69004891  1
  O  O7  1  0.18104862  0.22651568  0.69611403  1
  O  O8  1  0.05066243  0.82662347  0.69901360  1
  O  O9  1  0.77393000  0.81773132  0.19280196  1
  O  O10  1  0.03962349  0.21838864  0.18584485  1
  O  O11  1  0.17244783  0.95001750  0.19650207  1
  O  O12  1  0.88407200  0.37149945  0.64135789  1
  O  O13  1  0.49304302  0.12283921  0.64388575  1
  O  O14  1  0.63911251  0.51532760  0.64158567  1
  O  O15  1  0.86871647  0.49393443  0.14044393  1
  O  O16  1  0.62376274  0.12260432  0.13925092  1
  O  O17  1  0.50009392  0.36638634  0.13935219  1
  O  O18  1  0.46744331  0.30281827  0.02507311  1
  O  O19  1  0.83240813  0.52573499  0.01892736  1
  O  O20  1  0.69798784  0.16809400  0.02577451  1
  O  O21  1  0.45430385  0.15267867  0.52019100  1
  O  O22  1  0.70217025  0.54826682  0.52644806  1
  O  O23  1  0.84432928  0.29734733  0.52736888  1
  O  O24  1  0.53069829  0.69935496  0.97466656  1
  O  O25  1  0.16187559  0.45585133  0.97620933  1
  O  O26  1  0.28398890  0.82296160  0.97340676  1
  O  O27  1  0.55107895  0.85041700  0.47552957  1
  O  O28  1  0.30532397  0.45591363  0.47276429  1
  O  O29  1  0.16403314  0.71488357  0.47229660  1
  O  O30  1  0.13459148  0.63988614  0.35168193  1
  O  O31  1  0.49563497  0.85518576  0.36074755  1
  O  O32  1  0.36292338  0.49763443  0.35803575  1
  O  O33  1  0.13658151  0.50613430  0.86294407  1
  O  O34  1  0.37017760  0.87521422  0.85545393  1
  O  O35  1  0.50136718  0.62975640  0.86124985  1
  O  O36  1  0.02886594  0.84558404  0.40819222  1
  O  O37  1  0.80541377  0.97180665  0.41088441  1
  O  O38  1  0.16876009  0.19422952  0.40984717  1
  O  O39  1  0.03190604  0.19380661  0.91053629  1
  O  O40  1  0.15278640  0.97356296  0.90875554  1
  O  O41  1  0.80621777  0.83111238  0.91254667  1
  O  O42  1  0.96829655  0.16235462  0.58891399  1
  O  O43  1  0.17688114  0.02253241  0.58721798  1
  O  O44  1  0.82789384  0.81306291  0.58794939  1
  O  O45  1  0.97343968  0.81372819  0.08461946  1
  O  O46  1  0.82900499  0.03282996  0.08574677  1
  O  O47  1  0.19865592  0.17721985  0.08592003  1
  O  O48  1  0.68118638  0.16567140  0.75273476  1
  O  O49  1  0.47172988  0.31385465  0.75033382  1
  O  O50  1  0.83343935  0.52884611  0.75036318  1
  O  O51  1  0.67780369  0.51437868  0.23968556  1
  O  O52  1  0.82470905  0.32345555  0.24044106  1
  O  O53  1  0.48483163  0.17349068  0.23880301  1
  O  O54  1  0.64260445  0.50187971  0.92344513  1
  O  O55  1  0.86448958  0.36455994  0.92206573  1
  O  O56  1  0.51407577  0.15692142  0.92541161  1
  O  O57  1  0.62794508  0.13083237  0.41661274  1
  O  O58  1  0.49695914  0.35587259  0.41549951  1
  O  O59  1  0.84959364  0.48624982  0.41536066  1
  O  O60  1  0.36896872  0.50821268  0.07572562  1
  O  O61  1  0.14801820  0.62865427  0.07420538  1
  O  O62  1  0.49249806  0.85788735  0.07393696  1
  O  O63  1  0.36451104  0.85133702  0.58157981  1
  O  O64  1  0.50021224  0.64273736  0.57941258  1
  O  O65  1  0.14675757  0.49420626  0.57995168  1
  O  O66  1  0.32659965  0.83876044  0.25695485  1
  O  O67  1  0.51522780  0.68697121  0.25965853  1
  O  O68  1  0.17507162  0.49606141  0.25462191  1
  O  O69  1  0.29993914  0.47893769  0.76454685  1
  O  O70  1  0.16905903  0.68727139  0.76219542  1
  O  O71  1  0.51002637  0.81699479  0.76028974  1
loop_
_geom_bond_atom_site_label_1
_geom_bond_atom_site_label_2
_geom_bond_distance
_geom_bond_site_symmetry_2
Na0 O68 2.389753 1_555
Na0 O52 2.392853 1_455
Na0 O51 2.468095 1_455
Na0 O66 2.488987 1_555
Na0 O30 2.525776 1_555
Na0 O1 2.632506 1_455
Na0 O11 2.649015 1_555
Na0 O15 2.709377 1_455
Na1 O48 2.373551 1_565
Na1 O70 2.387743 1_555
Na1 O49 2.438531 1_565
Na1 O71 2.450814 1_555
Na1 O34 2.534784 1_555
Na1 O13 2.630166 1_565
Na1 O8 2.659972 1_555
Na1 O3 2.797627 1_565
Na2 O63 2.282233 1_555
Na2 O42 2.321458 1_565
Na2 O44 2.418029 1_555
Na2 O64 2.483725 1_555
Na2 O6 2.518135 1_555
Na2 O27 2.660673 1_555
Na2 O13 2.752457 1_565
Na2 O23 2.805147 1_565
Na3 O61 2.256874 1_555
Na3 O46 2.334427 1_455
Na3 O47 2.411858 1_555
Na3 O10 2.479350 1_555
Na3 O60 2.521442 1_555
Na3 O25 2.617957 1_554
Na3 O15 2.763856 1_455
Na3 O20 2.855401 1_455
Na4 O55 2.336033 1_555
Na4 O40 2.337221 1_655
Na4 O41 2.452159 1_555
Na4 O54 2.460319 1_555
Na4 O19 2.536234 1_556
Na4 O4 2.585389 1_555
Na4 O26 2.675004 1_655
Na4 O33 2.778462 1_655
Na5 O36 2.287856 1_545
Na5 O57 2.299285 1_555
Na5 O38 2.470810 1_555
Na5 O58 2.491074 1_555
Na5 O21 2.491075 1_555
Na5 O0 2.619435 1_555
Na5 O29 2.639205 1_545
Na5 O31 2.866566 1_545
Na6 O43 2.390908 1_565
Na6 O36 2.484318 1_555
Na6 O44 2.500646 1_455
Na6 O37 2.552670 1_455
Na6 O42 2.553679 1_465
Na6 O38 2.563235 1_565
Na7 O45 2.431295 1_456
Na7 O40 2.448969 1_555
Na7 O41 2.478342 1_455
Na7 O39 2.510906 1_565
Na7 O47 2.541210 1_566
Na7 O46 2.557548 1_466
Na8 O48 2.378202 1_555
Na8 O56 2.423992 1_555
Na8 O55 2.468286 1_555
Na8 O50 2.511566 1_555
Na8 O49 2.512868 1_555
Na8 O54 2.516552 1_555
Na9 O59 2.378064 1_555
Na9 O52 2.426530 1_555
Na9 O58 2.484541 1_555
Na9 O57 2.497361 1_555
Na9 O53 2.533493 1_555
Na9 O51 2.538453 1_555
Na10 O67 2.488575 1_555
Na10 O68 2.497076 1_555
Na10 O62 2.506800 1_555
Na10 O60 2.523687 1_555
Na10 O66 2.533897 1_555
Na10 O61 2.585761 1_555
Na11 O65 2.470153 1_555
Na11 O63 2.514348 1_555
Na11 O71 2.524274 1_555
Na11 O64 2.527081 1_555
Na11 O69 2.537469 1_555
Na11 O70 2.571311 1_555
Ge0 O5 1.784333 1_455
Ge0 O40 1.880261 1_545
Ge0 O3 1.895782 1_555
Ge0 O39 1.940679 1_555
Ge0 O4 1.974340 1_445
Ge0 O41 2.078149 1_445
Ge1 O15 1.866966 1_555
Ge1 O52 1.870816 1_555
Ge1 O16 1.916740 1_555
Ge1 O17 1.918031 1_555
Ge1 O53 1.943841 1_555
Ge1 O51 2.004207 1_555
Ge2 O19 1.839864 1_556
Ge2 O56 1.845880 1_555
Ge2 O18 1.854313 1_556
Ge2 O20 1.902449 1_556
Ge2 O54 2.010098 1_555
Ge2 O55 2.098232 1_555
Ge3 O26 1.827899 1_554
Ge3 O61 1.887855 1_555
Ge3 O24 1.914708 1_554
Ge3 O62 1.953137 1_555
Ge3 O25 1.965580 1_554
Ge3 O60 2.078698 1_555
Ge4 O30 1.822838 1_555
Ge4 O32 1.866209 1_555
Ge4 O68 1.875926 1_555
Ge4 O67 1.925706 1_555
Ge4 O31 1.933146 1_555
Ge4 O66 2.006806 1_555
Ge5 O34 1.855279 1_555
Ge5 O71 1.859455 1_555
Ge5 O35 1.872943 1_555
Ge5 O69 1.937130 1_555
Ge5 O33 1.945195 1_555
Ge5 O70 1.993439 1_555
O0 P0 1.550487 1_555
O0 Sn0 2.117283 1_455
O1 P1 1.553565 1_555
O1 Sn0 2.067330 1_565
O2 Si0 1.613801 1_555
O2 Sn0 1.956680 1_555
O3 P2 1.552991 1_555
O4 P3 1.543657 1_655
O5 Si1 1.622636 1_545
O6 Si1 1.636775 1_555
O6 Sn1 2.002461 1_665
O7 P2 1.543322 1_555
O7 Sn1 2.060335 1_555
O8 P3 1.553863 1_555
O8 Sn1 2.058219 1_565
O9 P1 1.543851 1_555
O9 Sn2 2.067829 1_555
O10 Si0 1.632910 1_455
O10 Sn2 2.004840 1_445
O11 P0 1.557603 1_565
O11 Sn2 2.064990 1_455
O12 P4 1.533494 1_555
O12 Sn3 2.031061 1_555
O13 Si2 1.641967 1_555
O13 Sn3 1.999364 1_555
O14 P5 1.531836 1_555
O14 Sn3 2.039822 1_555
O15 Si3 1.650327 1_555
O16 P6 1.550410 1_555
O17 P7 1.545699 1_555
O18 P7 1.538375 1_555
O19 Si3 1.638090 1_555
O20 P6 1.546572 1_555
O21 Si2 1.639656 1_555
O21 Sn4 2.009265 1_555
O22 P5 1.533249 1_555
O22 Sn4 2.020178 1_555
O23 P4 1.547304 1_555
O23 Sn4 2.042029 1_555
O24 P8 1.549681 1_555
O25 P9 1.562625 1_555
O26 Si4 1.644795 1_555
O27 P10 1.545754 1_555
O27 Sn5 2.056618 1_555
O28 P11 1.526964 1_555
O28 Sn5 2.026254 1_555
O29 Si5 1.622440 1_555
O29 Sn5 1.970088 1_555
O30 Si5 1.635808 1_555
O31 P10 1.543248 1_555
O32 P11 1.534549 1_555
O33 P9 1.550744 1_555
O34 Si4 1.638040 1_555
O35 P8 1.542607 1_555
O36 Si5 1.637738 1_555
O36 Sn0 2.004526 1_465
O37 P10 1.525413 1_555
O37 Sn0 2.053263 1_565
O38 P11 1.545977 1_555
O38 Sn0 2.094614 1_455
O39 P9 1.551062 1_555
O40 Si4 1.674503 1_555
O41 P8 1.563289 1_555
O42 P4 1.544093 1_555
O42 Sn1 2.092183 1_655
O43 Si2 1.613343 1_555
O43 Sn1 1.993006 1_555
O44 P5 1.546991 1_555
O44 Sn1 2.106962 1_665
O45 Si3 1.628450 1_555
O45 Sn2 2.008872 1_555
O46 P6 1.559798 1_555
O46 Sn2 2.135344 1_545
O47 P7 1.563313 1_555
O47 Sn2 2.141964 1_445
O48 Si1 1.653429 1_545
O48 Sn3 2.054066 1_555
O49 P2 1.556819 1_555
O49 Sn3 2.121508 1_555
O50 P3 1.537705 1_655
O50 Sn3 2.063873 1_555
O51 P1 1.549868 1_555
O52 Si0 1.655399 1_555
O53 P0 1.534905 1_555
O54 P8 1.568006 1_555
O55 P9 1.562308 1_655
O56 Si4 1.639770 1_545
O57 P10 1.558106 1_545
O57 Sn4 2.138355 1_555
O58 P11 1.554412 1_555
O58 Sn4 2.100541 1_555
O59 Si5 1.619617 1_655
O59 Sn4 1.995871 1_555
O60 P7 1.561239 1_555
O61 Si3 1.669938 1_455
O62 P6 1.548157 1_565
O63 Si2 1.637791 1_565
O63 Sn5 2.021860 1_555
O64 P5 1.544632 1_555
O64 Sn5 2.091406 1_555
O65 P4 1.520656 1_455
O65 Sn5 2.038460 1_555
O66 P0 1.550932 1_565
O67 P1 1.536271 1_555
O68 Si0 1.654305 1_455
O69 P2 1.532478 1_555
O70 P3 1.550919 1_555
O71 Si1 1.653391 1_555
