# generated using pymatgen
data_In6Ge2PtO9
_symmetry_space_group_name_H-M   'P 1'
_cell_length_a   7.24135185
_cell_length_b   7.24135185
_cell_length_c   7.24135185
_cell_angle_alpha   60.00000000
_cell_angle_beta   60.00000000
_cell_angle_gamma   60.00000000
_symmetry_Int_Tables_number   1
_chemical_formula_structural   In6Ge2PtO9
_chemical_formula_sum   'In6 Ge2 Pt1 O9'
_cell_volume   268.49979128
_cell_formula_units_Z   1
loop_
 _symmetry_equiv_pos_site_id
 _symmetry_equiv_pos_as_xyz
  1  'x, y, z'
loop_
 _atom_site_type_symbol
 _atom_site_label
 _atom_site_symmetry_multiplicity
 _atom_site_fract_x
 _atom_site_fract_y
 _atom_site_fract_z
 _atom_site_occupancy
  In  In0  1  0.26088000  0.26088000  0.73912000  1
  In  In1  1  0.73912000  0.26088000  0.73912000  1
  In  In2  1  0.26088000  0.73912000  0.26088000  1
  In  In3  1  0.73912000  0.73912000  0.26088000  1
  In  In4  1  0.26088000  0.73912000  0.73912000  1
  In  In5  1  0.73912000  0.26088000  0.26088000  1
  Ge  Ge0  1  0.25000000  0.25000000  0.25000000  1
  Ge  Ge1  1  0.75000000  0.75000000  0.75000000  1
  Pt  Pt0  1  0.00000000  0.00000000  0.00000000  1
  O  O0  1  0.50000000  0.50000000  0.50000000  1
  O  O1  1  0.64963500  0.05109500  0.64963500  1
  O  O2  1  0.35036500  0.35036500  0.35036500  1
  O  O3  1  0.94890500  0.35036500  0.35036500  1
  O  O4  1  0.35036500  0.35036500  0.94890500  1
  O  O5  1  0.35036500  0.94890500  0.35036500  1
  O  O6  1  0.64963500  0.64963500  0.05109500  1
  O  O7  1  0.64963500  0.64963500  0.64963500  1
  O  O8  1  0.05109500  0.64963500  0.64963500  1
loop_
_geom_bond_atom_site_label_1
_geom_bond_atom_site_label_2
_geom_bond_distance
_geom_bond_site_symmetry_2
In0 O4 2.352912 1_555
In0 O1 2.352912 1_555
In0 O8 2.352912 1_555
In0 O2 2.352912 1_555
In0 O0 2.448784 1_555
In0 Pt0 2.671625 1_556
In1 O7 2.352912 1_555
In1 O4 2.352912 1_555
In1 O1 2.352912 1_555
In1 O3 2.352912 1_555
In1 O0 2.448784 1_555
In1 Pt0 2.671625 1_656
In2 O6 2.352912 1_555
In2 O5 2.352912 1_555
In2 O8 2.352912 1_555
In2 O2 2.352912 1_555
In2 O0 2.448784 1_555
In2 Pt0 2.671625 1_565
In3 O7 2.352912 1_555
In3 O5 2.352912 1_555
In3 O3 2.352912 1_555
In3 O6 2.352912 1_555
In3 O0 2.448784 1_555
In3 Pt0 2.671625 1_665
In4 O7 2.352912 1_555
In4 O4 2.352912 1_555
In4 O8 2.352912 1_555
In4 O5 2.352912 1_555
In4 O0 2.448784 1_555
In4 Pt0 2.671625 1_566
In5 O6 2.352912 1_555
In5 O3 2.352912 1_555
In5 O1 2.352912 1_555
In5 O2 2.352912 1_555
In5 O0 2.448784 1_555
In5 Pt0 2.671625 1_655
Ge0 O2 1.780236 1_555
Ge0 O4 1.780236 1_554
Ge0 O3 1.780236 1_455
Ge0 O5 1.780236 1_545
Ge1 O8 1.780236 1_655
Ge1 O1 1.780236 1_565
Ge1 O6 1.780236 1_556
Ge1 O7 1.780236 1_555
