# generated using pymatgen
data_Na3HfZn3PS5O24
_symmetry_space_group_name_H-M   'P 1'
_cell_length_a   8.82245730
_cell_length_b   8.79752969
_cell_length_c   22.80582328
_cell_angle_alpha   90.08372646
_cell_angle_beta   90.28165528
_cell_angle_gamma   120.13297971
_symmetry_Int_Tables_number   1
_chemical_formula_structural   Na3HfZn3PS5O24
_chemical_formula_sum   'Na9 Hf3 Zn9 P3 S15 O72'
_cell_volume   1530.85286516
_cell_formula_units_Z   3
loop_
 _symmetry_equiv_pos_site_id
 _symmetry_equiv_pos_as_xyz
  1  'x, y, z'
loop_
 _atom_site_type_symbol
 _atom_site_label
 _atom_site_symmetry_multiplicity
 _atom_site_fract_x
 _atom_site_fract_y
 _atom_site_fract_z
 _atom_site_occupancy
  Na  Na0  1  0.36343624  0.36332979  0.25077193  1
  Na  Na1  1  0.02958847  0.70011300  0.58584470  1
  Na  Na2  1  0.29823335  0.96372800  0.07964359  1
  Na  Na3  1  0.99004434  0.00398349  0.50082040  1
  Na  Na4  1  0.99801831  0.01006673  0.99108209  1
  Na  Na5  1  0.66617167  0.32660772  0.82543522  1
  Na  Na6  1  0.68133504  0.33069283  0.32912403  1
  Na  Na7  1  0.33272211  0.66563097  0.16704001  1
  Na  Na8  1  0.35747923  0.66356841  0.66217850  1
  Hf  Hf0  1  0.67083789  0.33154485  0.97756424  1
  Hf  Hf1  1  0.66580236  0.33732897  0.48224736  1
  Hf  Hf2  1  0.32827198  0.66792572  0.81576913  1
  Zn  Zn0  1  0.99433907  0.99556589  0.34857084  1
  Zn  Zn1  1  0.01305993  0.01339824  0.85150674  1
  Zn  Zn2  1  0.98457481  0.99652669  0.65205619  1
  Zn  Zn3  1  0.98755548  0.99644404  0.15351195  1
  Zn  Zn4  1  0.65864825  0.33848859  0.68316630  1
  Zn  Zn5  1  0.67853598  0.33656630  0.18283927  1
  Zn  Zn6  1  0.32488965  0.66011753  0.00798852  1
  Zn  Zn7  1  0.35489913  0.66634436  0.51625030  1
  Zn  Zn8  1  0.33253855  0.67713499  0.31949990  1
  P  P0  1  0.66616992  0.63156882  0.58601318  1
  P  P1  1  0.04179466  0.36717854  0.91810357  1
  P  P2  1  0.32491475  0.95778532  0.92033158  1
  S  S0  1  0.29513554  0.99844358  0.24858409  1
  S  S1  1  0.70209018  0.70253045  0.25027943  1
  S  S2  1  0.00033934  0.29580869  0.25070754  1
  S  S3  1  0.29430628  0.29182244  0.74919005  1
  S  S4  1  0.99681421  0.70536716  0.74937285  1
  S  S5  1  0.70695597  0.00345546  0.75045388  1
  S  S6  1  0.96156333  0.33298365  0.58417083  1
  S  S7  1  0.37163413  0.03767999  0.58427015  1
  S  S8  1  0.96166106  0.62968751  0.08536325  1
  S  S9  1  0.66784087  0.03800864  0.08467197  1
  S  S10  1  0.37339319  0.33701060  0.08567828  1
  S  S11  1  0.62859345  0.67090549  0.91810124  1
  S  S12  1  0.63079821  0.96162907  0.41612729  1
  S  S13  1  0.32786295  0.36752765  0.41460484  1
  S  S14  1  0.04220334  0.67011616  0.41802504  1
  O  O0  1  0.20900976  0.02760870  0.29960454  1
  O  O1  1  0.80800448  0.78450677  0.30327771  1
  O  O2  1  0.97609709  0.18985153  0.30363968  1
  O  O3  1  0.21384175  0.18994578  0.80242494  1
  O  O4  1  0.97834655  0.79407296  0.80085439  1
  O  O5  1  0.81121086  0.02388147  0.80332270  1
  O  O6  1  0.77684993  0.97018810  0.69641466  1
  O  O7  1  0.18899249  0.21629151  0.69552922  1
  O  O8  1  0.02671617  0.80410323  0.69386676  1
  O  O9  1  0.78081031  0.80472417  0.19638103  1
  O  O10  1  0.03114223  0.21670089  0.19727677  1
  O  O11  1  0.19547213  0.97539295  0.19278598  1
  O  O12  1  0.87919715  0.35891952  0.63640095  1
  O  O13  1  0.47890612  0.11703997  0.63690149  1
  O  O14  1  0.64326153  0.52182542  0.64023128  1
  O  O15  1  0.87864445  0.52641130  0.13811716  1
  O  O16  1  0.63834626  0.12017521  0.13685985  1
  O  O17  1  0.47214205  0.35573600  0.14095565  1
  O  O18  1  0.47018089  0.31425321  0.03458542  1
  O  O19  1  0.85322471  0.53760718  0.03205387  1
  O  O20  1  0.68657479  0.14947195  0.03148075  1
  O  O21  1  0.46576248  0.14675695  0.53086387  1
  O  O22  1  0.68913625  0.53376254  0.53071592  1
  O  O23  1  0.84860800  0.31088193  0.53037585  1
  O  O24  1  0.55114571  0.69456582  0.97165125  1
  O  O25  1  0.14652817  0.44368216  0.97434095  1
  O  O26  1  0.30927677  0.86397837  0.97871114  1
  O  O27  1  0.54886779  0.85886502  0.46913880  1
  O  O28  1  0.30627202  0.45346776  0.46654867  1
  O  O29  1  0.14110074  0.68886597  0.47264614  1
  O  O30  1  0.11906315  0.63838011  0.36545609  1
  O  O31  1  0.52491159  0.88791632  0.36233290  1
  O  O32  1  0.36060245  0.47029466  0.35987769  1
  O  O33  1  0.13363837  0.48629296  0.86383891  1
  O  O34  1  0.35669627  0.86430322  0.86735203  1
  O  O35  1  0.51483052  0.63993846  0.86538663  1
  O  O36  1  0.01775010  0.82390853  0.41181767  1
  O  O37  1  0.80853120  0.98494600  0.41111839  1
  O  O38  1  0.17430311  0.18833377  0.40987861  1
  O  O39  1  0.00844935  0.18182128  0.90993572  1
  O  O40  1  0.16468147  0.97612095  0.91112175  1
  O  O41  1  0.80379374  0.82043083  0.90982367  1
  O  O42  1  0.97886298  0.17575572  0.58623941  1
  O  O43  1  0.19877480  0.02686558  0.58572802  1
  O  O44  1  0.84132650  0.81018993  0.58678700  1
  O  O45  1  0.97810463  0.80707111  0.08727187  1
  O  O46  1  0.82905826  0.02754393  0.08804420  1
  O  O47  1  0.20052429  0.16964675  0.08678184  1
  O  O48  1  0.68252390  0.15796704  0.74462371  1
  O  O49  1  0.47280441  0.31460821  0.74531837  1
  O  O50  1  0.84451716  0.52427454  0.74569489  1
  O  O51  1  0.67854135  0.52084779  0.24580893  1
  O  O52  1  0.84336940  0.31539764  0.24457147  1
  O  O53  1  0.47216899  0.16300690  0.24490791  1
  O  O54  1  0.63860134  0.50432597  0.92319719  1
  O  O55  1  0.86021426  0.36239110  0.92266125  1
  O  O56  1  0.49713664  0.14411086  0.92349835  1
  O  O57  1  0.64902064  0.14222879  0.42306401  1
  O  O58  1  0.49063261  0.34998716  0.42292750  1
  O  O59  1  0.86017689  0.50540756  0.42296274  1
  O  O60  1  0.35583604  0.49297673  0.07833467  1
  O  O61  1  0.13966267  0.65172726  0.08069686  1
  O  O62  1  0.50756149  0.86343712  0.07777900  1
  O  O63  1  0.34380279  0.85717471  0.57678556  1
  O  O64  1  0.50410819  0.65070864  0.57831488  1
  O  O65  1  0.13278520  0.49760142  0.57600938  1
  O  O66  1  0.31468737  0.84137391  0.25516706  1
  O  O67  1  0.52140886  0.67888529  0.25494784  1
  O  O68  1  0.16404700  0.47288505  0.25603435  1
  O  O69  1  0.31580961  0.47458383  0.75607762  1
  O  O70  1  0.16085796  0.68840737  0.75637688  1
  O  O71  1  0.52573361  0.83974031  0.75719548  1
loop_
_geom_bond_atom_site_label_1
_geom_bond_atom_site_label_2
_geom_bond_distance
_geom_bond_site_symmetry_2
Na0 O68 2.396203 1_555
Na0 O53 2.396237 1_555
Na0 O67 2.402408 1_555
Na0 O51 2.407740 1_555
Na0 O32 2.663629 1_555
Na0 O17 2.698883 1_555
Na0 O0 2.793589 1_555
Na0 O10 2.812525 1_555
Na1 O44 2.304816 1_455
Na1 O65 2.383851 1_555
Na1 O63 2.407771 1_555
Na1 O43 2.486655 1_565
Na1 O8 2.631330 1_555
Na1 O29 2.786436 1_555
Na1 O12 2.850660 1_455
Na1 O22 2.878945 1_455
Na2 O47 2.370621 1_565
Na2 O61 2.374231 1_555
Na2 O62 2.414035 1_555
Na2 O45 2.450288 1_455
Na2 O26 2.481982 1_554
Na2 O11 2.757912 1_555
Na2 O18 2.862606 1_565
Na2 O16 2.900094 1_565
Na3 O42 2.496243 1_555
Na3 O44 2.502208 1_545
Na3 O37 2.544606 1_545
Na3 O43 2.602481 1_655
Na3 O38 2.640143 1_655
Na3 O36 2.659655 1_645
Na4 O39 2.363605 1_655
Na4 O40 2.458093 1_645
Na4 O41 2.498653 1_545
Na4 O47 2.713055 1_656
Na4 O46 2.719750 1_556
Na4 O45 2.780764 1_546
Na5 O48 2.414128 1_555
Na5 O49 2.459243 1_555
Na5 O50 2.469226 1_555
Na5 O55 2.714014 1_555
Na5 O56 2.728106 1_555
Na5 O54 2.802047 1_555
Na6 O52 2.449382 1_555
Na6 O51 2.541589 1_555
Na6 O53 2.548338 1_555
Na6 O59 2.637084 1_555
Na6 O57 2.638539 1_555
Na6 O58 2.785141 1_555
Na7 O61 2.559425 1_555
Na7 O67 2.564301 1_555
Na7 O66 2.587690 1_555
Na7 O68 2.591396 1_555
Na7 O60 2.597560 1_555
Na7 O62 2.626360 1_555
Na8 O64 2.348375 1_555
Na8 O69 2.624814 1_555
Na8 O63 2.630961 1_555
Na8 O71 2.636266 1_555
Na8 O65 2.640211 1_555
Na8 O70 2.843906 1_555
Hf0 O55 1.999803 1_555
Hf0 O56 2.006541 1_555
Hf0 O20 2.079499 1_556
Hf0 O54 2.089218 1_555
Hf0 O19 2.113018 1_556
Hf0 O18 2.144986 1_556
Hf1 O22 1.971203 1_555
Hf1 O21 2.051524 1_555
Hf1 O23 2.054285 1_555
Hf1 O58 2.093704 1_555
Hf1 O59 2.106646 1_555
Hf1 O57 2.127399 1_555
Hf2 O33 1.993111 1_555
Hf2 O34 1.996919 1_555
Hf2 O70 2.072896 1_555
Hf2 O35 2.107002 1_555
Hf2 O71 2.118733 1_555
Hf2 O69 2.135984 1_555
O0 S0 1.483454 1_545
O0 Zn0 2.097414 1_445
O1 S1 1.471016 1_555
O1 Zn0 2.032283 1_555
O2 S2 1.475657 1_655
O2 Zn0 2.068105 1_545
O3 S3 1.467664 1_555
O3 Zn1 2.016277 1_555
O4 S4 1.463175 1_555
O4 Zn1 2.132595 1_665
O5 S5 1.467843 1_555
O5 Zn1 2.129144 1_655
O6 S5 1.473887 1_565
O6 Zn2 2.007045 1_555
O7 S3 1.472761 1_555
O7 Zn2 2.109370 1_445
O8 S4 1.484234 1_455
O8 Zn2 2.132212 1_455
O9 S1 1.478606 1_555
O9 Zn3 2.015230 1_555
O10 S2 1.494554 1_555
O10 Zn3 2.035007 1_445
O11 S0 1.497593 1_555
O11 Zn3 2.127612 1_455
O12 S6 1.474158 1_555
O12 Zn4 2.150737 1_555
O13 S7 1.465203 1_555
O13 Zn4 2.073435 1_555
O14 P0 1.520499 1_555
O14 Zn4 1.949826 1_555
O15 S8 1.467348 1_555
O15 Zn5 2.002187 1_555
O16 S9 1.481950 1_555
O16 Zn5 2.040142 1_555
O17 S10 1.489922 1_555
O17 Zn5 2.132652 1_555
O18 S10 1.519115 1_555
O19 S8 1.502375 1_555
O20 S9 1.517616 1_555
O21 S7 1.518948 1_555
O22 P0 1.595679 1_555
O23 S6 1.526033 1_555
O24 S11 1.466940 1_555
O24 Zn6 2.042734 1_556
O25 P1 1.520893 1_555
O25 Zn6 1.914722 1_556
O26 P2 1.537340 1_555
O26 Zn6 1.982917 1_556
O27 S12 1.468709 1_555
O27 Zn7 2.016144 1_555
O28 S13 1.468141 1_555
O28 Zn7 2.039245 1_555
O29 S14 1.477980 1_555
O29 Zn7 2.223367 1_555
O30 S14 1.473828 1_555
O30 Zn8 2.034095 1_555
O31 S12 1.475296 1_555
O31 Zn8 2.022844 1_555
O32 S13 1.484324 1_555
O32 Zn8 2.162295 1_555
O33 P1 1.564399 1_555
O34 P2 1.564218 1_555
O35 S11 1.496497 1_555
O36 S14 1.480033 1_555
O36 Zn0 2.172638 1_455
O37 S12 1.480799 1_555
O37 Zn0 2.144840 1_555
O38 S13 1.478514 1_555
O38 Zn0 2.149328 1_445
O39 P1 1.515685 1_555
O39 Zn1 2.006987 1_555
O40 P2 1.514819 1_555
O40 Zn1 2.041868 1_565
O41 S11 1.455118 1_555
O41 Zn1 2.223351 1_665
O42 S6 1.466592 1_555
O42 Zn2 2.197207 1_545
O43 S7 1.480118 1_555
O43 Zn2 2.335273 1_445
O44 P0 1.555387 1_555
O44 Zn2 2.096304 1_555
O45 S8 1.493538 1_555
O45 Zn3 2.217337 1_555
O46 S9 1.472358 1_555
O46 Zn3 2.150390 1_545
O47 S10 1.496817 1_555
O47 Zn3 2.308355 1_445
O48 S5 1.485368 1_555
O48 Zn4 2.206919 1_555
O49 S3 1.487421 1_555
O49 Zn4 2.102238 1_555
O50 S4 1.483185 1_555
O50 Zn4 2.161758 1_555
O51 S1 1.508051 1_555
O51 Zn5 2.164206 1_555
O52 S2 1.484892 1_655
O52 Zn5 2.093821 1_555
O53 S0 1.507915 1_545
O53 Zn5 2.211439 1_555
O54 S11 1.516334 1_555
O55 P1 1.585195 1_655
O56 P2 1.580751 1_545
O57 S12 1.522437 1_545
O58 S13 1.530330 1_555
O59 S14 1.535326 1_655
O60 S10 1.465794 1_555
O60 Zn6 2.283887 1_555
O61 S8 1.486976 1_455
O61 Zn6 2.308971 1_555
O62 S9 1.483113 1_565
O62 Zn6 2.324271 1_555
O63 S7 1.489457 1_565
O63 Zn7 2.212143 1_555
O64 P0 1.530618 1_555
O64 Zn7 1.979726 1_555
O65 S6 1.490298 1_455
O65 Zn7 2.238884 1_555
O66 S0 1.483712 1_555
O66 Zn8 2.120730 1_555
O67 S1 1.504799 1_555
O67 Zn8 2.223169 1_555
O68 S2 1.505429 1_555
O68 Zn8 2.196105 1_555
O69 S3 1.529234 1_555
O70 S4 1.535242 1_455
O71 S5 1.531456 1_565
