# generated using pymatgen
data_Na2Al2Ga2SiS5O24
_symmetry_space_group_name_H-M   'P 1'
_cell_length_a   8.44741173
_cell_length_b   8.44099970
_cell_length_c   22.00009074
_cell_angle_alpha   89.39113847
_cell_angle_beta   90.26481369
_cell_angle_gamma   119.66645787
_symmetry_Int_Tables_number   1
_chemical_formula_structural   Na2Al2Ga2SiS5O24
_chemical_formula_sum   'Na6 Al6 Ga6 Si3 S15 O72'
_cell_volume   1363.00635964
_cell_formula_units_Z   3
loop_
 _symmetry_equiv_pos_site_id
 _symmetry_equiv_pos_as_xyz
  1  'x, y, z'
loop_
 _atom_site_type_symbol
 _atom_site_label
 _atom_site_symmetry_multiplicity
 _atom_site_fract_x
 _atom_site_fract_y
 _atom_site_fract_z
 _atom_site_occupancy
  Na  Na0  1  0.98830841  0.98415916  0.50510234  1
  Na  Na1  1  0.00011844  0.99955277  0.99772925  1
  Na  Na2  1  0.67013744  0.31904361  0.82474441  1
  Na  Na3  1  0.65275242  0.32221322  0.33482890  1
  Na  Na4  1  0.33000111  0.67803582  0.17187017  1
  Na  Na5  1  0.36424974  0.67732882  0.66491490  1
  Al  Al0  1  0.01225000  0.00391943  0.35349898  1
  Al  Al1  1  0.97357613  0.98246858  0.64536684  1
  Al  Al2  1  0.66278679  0.33082671  0.68312655  1
  Al  Al3  1  0.66913095  0.34107214  0.48600947  1
  Al  Al4  1  0.34202434  0.66615280  0.52396488  1
  Al  Al5  1  0.34100113  0.67171846  0.80766255  1
  Ga  Ga0  1  0.98796739  0.00447853  0.84117374  1
  Ga  Ga1  1  0.00725094  0.99494501  0.15329744  1
  Ga  Ga2  1  0.65568432  0.32438146  0.19069321  1
  Ga  Ga3  1  0.66699574  0.33086613  0.97905130  1
  Ga  Ga4  1  0.33263571  0.66881937  0.01673244  1
  Ga  Ga5  1  0.33329865  0.67785981  0.31665122  1
  Si  Si0  1  0.28913698  0.99827709  0.25156117  1
  Si  Si1  1  0.70520767  0.00621990  0.74833208  1
  Si  Si2  1  0.66771208  0.62004840  0.58317832  1
  S  S0  1  0.71371805  0.71376607  0.25180870  1
  S  S1  1  0.00186738  0.28728887  0.25130928  1
  S  S2  1  0.28847807  0.28889132  0.74940068  1
  S  S3  1  0.00143004  0.71005679  0.74998034  1
  S  S4  1  0.95672690  0.33508298  0.58215121  1
  S  S5  1  0.37671577  0.04523050  0.58234290  1
  S  S6  1  0.95348392  0.62065932  0.08297020  1
  S  S7  1  0.66939457  0.04042018  0.08313285  1
  S  S8  1  0.37468117  0.33556301  0.08186044  1
  S  S9  1  0.62210115  0.66525105  0.91634401  1
  S  S10  1  0.04775582  0.37967072  0.91609787  1
  S  S11  1  0.32951971  0.95583522  0.91549147  1
  S  S12  1  0.62957591  0.96296129  0.41812497  1
  S  S13  1  0.33115864  0.37744548  0.41729192  1
  S  S14  1  0.04013541  0.66253830  0.41882106  1
  O  O0  1  0.19232315  0.02761511  0.30941292  1
  O  O1  1  0.82411810  0.80569315  0.30546660  1
  O  O2  1  0.96515552  0.16775364  0.30495120  1
  O  O3  1  0.21945514  0.17600912  0.80732301  1
  O  O4  1  0.97093723  0.78645651  0.80769778  1
  O  O5  1  0.81857620  0.05339701  0.81356465  1
  O  O6  1  0.80847799  0.97093944  0.69411536  1
  O  O7  1  0.17550554  0.20084292  0.69677229  1
  O  O8  1  0.04252214  0.83308959  0.69767674  1
  O  O9  1  0.78065653  0.82456964  0.19427053  1
  O  O10  1  0.02385928  0.20860936  0.19355436  1
  O  O11  1  0.17851724  0.95952276  0.18731152  1
  O  O12  1  0.87383935  0.36173166  0.63650371  1
  O  O13  1  0.49474338  0.11775363  0.63609579  1
  O  O14  1  0.63445970  0.49236743  0.64221394  1
  O  O15  1  0.86983349  0.50859994  0.13771412  1
  O  O16  1  0.63984524  0.12424879  0.13672282  1
  O  O17  1  0.48697448  0.36488975  0.13627661  1
  O  O18  1  0.45671321  0.30563806  0.02634977  1
  O  O19  1  0.84669964  0.53759197  0.02656899  1
  O  O20  1  0.69888072  0.14988970  0.02620942  1
  O  O21  1  0.46172699  0.15542954  0.52615442  1
  O  O22  1  0.69791181  0.53225058  0.52208458  1
  O  O23  1  0.83781943  0.29272308  0.52724590  1
  O  O24  1  0.54592895  0.69466922  0.97393314  1
  O  O25  1  0.14947302  0.45884248  0.97423368  1
  O  O26  1  0.30131670  0.85255332  0.97452792  1
  O  O27  1  0.54021847  0.84289417  0.47084605  1
  O  O28  1  0.30540232  0.46763469  0.46997606  1
  O  O29  1  0.16047711  0.69346066  0.47115898  1
  O  O30  1  0.11631025  0.63138485  0.36212088  1
  O  O31  1  0.52090824  0.89106145  0.36141395  1
  O  O32  1  0.36514693  0.48932565  0.36063679  1
  O  O33  1  0.13825102  0.49466953  0.86325217  1
  O  O34  1  0.35481868  0.86331837  0.86415279  1
  O  O35  1  0.50591138  0.64096633  0.86402759  1
  O  O36  1  0.01660151  0.82650454  0.41193844  1
  O  O37  1  0.81269552  0.97872363  0.41027087  1
  O  O38  1  0.16096454  0.19637450  0.41121812  1
  O  O39  1  0.03162567  0.19759198  0.91339664  1
  O  O40  1  0.16839861  0.97933846  0.90963285  1
  O  O41  1  0.80757269  0.82352419  0.91128110  1
  O  O42  1  0.99207872  0.18075528  0.58962187  1
  O  O43  1  0.20111573  0.03922783  0.59110466  1
  O  O44  1  0.85092007  0.81960047  0.58950486  1
  O  O45  1  0.96699056  0.80265241  0.08598839  1
  O  O46  1  0.83357062  0.02008492  0.08927895  1
  O  O47  1  0.18944390  0.17496987  0.08675544  1
  O  O48  1  0.68242149  0.18393571  0.73748572  1
  O  O49  1  0.47530460  0.32025268  0.74373612  1
  O  O50  1  0.83757010  0.53185085  0.74229806  1
  O  O51  1  0.71565517  0.53986637  0.24527869  1
  O  O52  1  0.84322166  0.31690543  0.24550590  1
  O  O53  1  0.48940963  0.18267477  0.24679203  1
  O  O54  1  0.63413302  0.49392542  0.92175162  1
  O  O55  1  0.86223452  0.36307996  0.92051820  1
  O  O56  1  0.49959003  0.13863613  0.92094298  1
  O  O57  1  0.65146011  0.14742424  0.42638317  1
  O  O58  1  0.48953872  0.34780150  0.42350253  1
  O  O59  1  0.85861826  0.49643602  0.42499510  1
  O  O60  1  0.35860152  0.50348821  0.07588155  1
  O  O61  1  0.13967050  0.64204357  0.07801586  1
  O  O62  1  0.50344771  0.85712496  0.07707410  1
  O  O63  1  0.34534362  0.85693575  0.57304056  1
  O  O64  1  0.48621687  0.64251016  0.57563219  1
  O  O65  1  0.13265729  0.50522890  0.57181755  1
  O  O66  1  0.31231754  0.81843999  0.25738935  1
  O  O67  1  0.52498234  0.67686058  0.25815352  1
  O  O68  1  0.17065887  0.46270941  0.25810107  1
  O  O69  1  0.29386884  0.46653825  0.75907536  1
  O  O70  1  0.16053758  0.68251715  0.75958933  1
  O  O71  1  0.50787841  0.82202450  0.75789215  1
loop_
_geom_bond_atom_site_label_1
_geom_bond_atom_site_label_2
_geom_bond_distance
_geom_bond_site_symmetry_2
Na0 O44 2.256902 1_555
Na0 O43 2.487499 1_665
Na0 O42 2.495009 1_565
Na0 O36 2.531069 1_655
Na0 O37 2.541948 1_555
Na0 O38 2.639151 1_665
Na1 O39 2.409503 1_565
Na1 O40 2.465524 1_555
Na1 O45 2.467171 1_456
Na1 O41 2.471745 1_455
Na1 O47 2.504957 1_566
Na1 O46 2.518131 1_466
Na2 O48 2.272036 1_555
Na2 O49 2.423675 1_555
Na2 O50 2.440618 1_555
Na2 O55 2.568839 1_555
Na2 O56 2.580998 1_555
Na2 O54 2.709920 1_555
Na3 O53 2.336124 1_555
Na3 O58 2.466149 1_555
Na3 O57 2.480931 1_555
Na3 O51 2.550572 1_555
Na3 O52 2.560260 1_555
Na3 O59 2.573007 1_555
Na4 O66 2.278577 1_555
Na4 O68 2.498565 1_555
Na4 O67 2.510615 1_555
Na4 O61 2.537686 1_555
Na4 O62 2.559311 1_555
Na4 O60 2.666811 1_555
Na5 O64 2.310158 1_555
Na5 O71 2.389806 1_555
Na5 O63 2.565336 1_555
Na5 O69 2.587756 1_555
Na5 O65 2.710255 1_555
Na5 O70 2.722339 1_555
Al0 O0 1.732901 1_555
Al0 O2 1.928932 1_455
Al0 O1 1.957488 1_445
Al0 O38 1.959230 1_555
Al0 O36 1.977404 1_545
Al0 O37 2.026270 1_445
Al1 O6 1.726840 1_555
Al1 O44 1.757271 1_555
Al1 O8 1.985802 1_655
Al1 O42 2.007251 1_565
Al1 O43 2.108706 1_665
Al1 O7 2.121413 1_665
Al2 O14 1.738285 1_555
Al2 O48 1.779129 1_555
Al2 O13 1.954246 1_555
Al2 O12 1.962014 1_555
Al2 O49 2.042365 1_555
Al2 O50 2.074370 1_555
Al3 O22 1.711785 1_555
Al3 O21 1.890058 1_555
Al3 O23 1.891035 1_555
Al3 O59 1.997076 1_555
Al3 O57 2.053569 1_555
Al3 O58 2.064027 1_555
Al4 O64 1.743142 1_555
Al4 O65 1.920965 1_555
Al4 O63 1.936964 1_555
Al4 O28 1.959633 1_555
Al4 O27 1.975581 1_555
Al4 O29 2.020514 1_555
Al5 O71 1.734966 1_555
Al5 O70 1.889817 1_555
Al5 O69 1.911413 1_555
Al5 O35 1.969987 1_555
Al5 O34 2.007063 1_555
Al5 O33 2.027134 1_555
Ga0 O5 1.777214 1_555
Ga0 O3 1.913817 1_655
Ga0 O4 1.927597 1_545
Ga0 O41 2.168338 1_545
Ga0 O39 2.184562 1_655
Ga0 O40 2.220060 1_645
Ga1 O11 1.776493 1_555
Ga1 O9 1.951438 1_455
Ga1 O10 1.959375 1_565
Ga1 O45 2.107847 1_455
Ga1 O46 2.112800 1_465
Ga1 O47 2.116454 1_565
Ga2 O53 1.802321 1_555
Ga2 O17 2.009759 1_555
Ga2 O52 2.011848 1_555
Ga2 O16 2.024580 1_555
Ga2 O51 2.033678 1_555
Ga2 O15 2.060433 1_555
Ga3 O19 1.960645 1_556
Ga3 O20 1.963054 1_556
Ga3 O54 1.974519 1_555
Ga3 O18 1.980266 1_556
Ga3 O55 2.005123 1_555
Ga3 O56 2.005716 1_555
Ga4 O26 1.926316 1_554
Ga4 O25 1.927899 1_554
Ga4 O24 1.950061 1_554
Ga4 O60 1.987669 1_555
Ga4 O62 2.031650 1_555
Ga4 O61 2.043297 1_555
Ga5 O66 1.820028 1_555
Ga5 O30 1.952235 1_555
Ga5 O31 1.979919 1_555
Ga5 O32 1.982446 1_555
Ga5 O67 2.076354 1_555
Ga5 O68 2.099622 1_555
O0 Si0 1.602138 1_545
O1 S0 1.469122 1_555
O2 S1 1.474882 1_655
O3 S2 1.517500 1_555
O4 S3 1.509788 1_655
O5 Si1 1.660487 1_555
O6 Si1 1.595855 1_565
O7 S2 1.452462 1_555
O8 S3 1.464423 1_555
O9 S0 1.501601 1_555
O10 S1 1.494086 1_555
O11 Si0 1.634995 1_555
O12 S4 1.462896 1_555
O13 S5 1.472272 1_555
O14 Si2 1.612841 1_555
O15 S6 1.471924 1_555
O16 S7 1.465708 1_555
O17 S8 1.468892 1_555
O18 S8 1.490997 1_555
O19 S6 1.492327 1_555
O20 S7 1.494871 1_555
O21 S5 1.493837 1_555
O22 Si2 1.622443 1_555
O23 S4 1.496095 1_555
O24 S9 1.501098 1_555
O25 S10 1.503436 1_555
O26 S11 1.508937 1_555
O27 S12 1.472430 1_555
O28 S13 1.468113 1_555
O29 S14 1.469787 1_555
O30 S14 1.490350 1_555
O31 S12 1.490513 1_555
O32 S13 1.495905 1_555
O33 S10 1.458761 1_555
O34 S11 1.455124 1_555
O35 S9 1.457909 1_555
O36 S14 1.498549 1_555
O37 S12 1.496217 1_555
O38 S13 1.499418 1_555
O39 S10 1.476077 1_555
O40 S11 1.474305 1_555
O41 S9 1.475944 1_555
O42 S4 1.480965 1_555
O43 S5 1.472458 1_555
O44 Si2 1.635318 1_555
O45 S6 1.485241 1_555
O46 S7 1.484776 1_555
O47 S8 1.482026 1_555
O48 Si1 1.619285 1_555
O49 S2 1.471013 1_555
O50 S3 1.466082 1_655
O51 S0 1.484547 1_555
O52 S1 1.484645 1_655
O53 Si0 1.639311 1_545
O54 S9 1.502529 1_555
O55 S10 1.506310 1_655
O56 S11 1.505728 1_545
O57 S12 1.487400 1_545
O58 S13 1.483321 1_555
O59 S14 1.484971 1_655
O60 S8 1.493786 1_555
O61 S6 1.496089 1_455
O62 S7 1.494106 1_565
O63 S5 1.492564 1_565
O64 Si2 1.642813 1_555
O65 S4 1.485376 1_455
O66 Si0 1.627575 1_555
O67 S0 1.472378 1_555
O68 S1 1.469928 1_555
O69 S2 1.495001 1_555
O70 S3 1.486877 1_555
O71 Si1 1.634317 1_565
