# generated using pymatgen
data_MgIn2(FeO3)2
_symmetry_space_group_name_H-M   'P 1'
_cell_length_a   3.33443926
_cell_length_b   3.33443803
_cell_length_c   14.44145332
_cell_angle_alpha   89.46727312
_cell_angle_beta   90.53272697
_cell_angle_gamma   120.04841960
_symmetry_Int_Tables_number   1
_chemical_formula_structural   MgIn2(FeO3)2
_chemical_formula_sum   'Mg1 In2 Fe2 O6'
_cell_volume   138.97922084
_cell_formula_units_Z   1
loop_
 _symmetry_equiv_pos_site_id
 _symmetry_equiv_pos_as_xyz
  1  'x, y, z'
loop_
 _atom_site_type_symbol
 _atom_site_label
 _atom_site_symmetry_multiplicity
 _atom_site_fract_x
 _atom_site_fract_y
 _atom_site_fract_z
 _atom_site_occupancy
  Mg  Mg0  1  0.32639723  0.67360277  0.35733065  1
  In  In0  1  0.99572094  0.00427906  0.54142809  1
  In  In1  1  0.01087666  0.98912334  0.97774325  1
  Fe  Fe0  1  0.33579679  0.66420421  0.76234790  1
  Fe  Fe1  1  0.64376183  0.35624017  0.19216323  1
  O  O0  1  0.99814243  0.00185757  0.74822311  1
  O  O1  1  0.00678887  0.99321113  0.27339110  1
  O  O2  1  0.66733729  0.33266471  0.43430148  1
  O  O3  1  0.34223545  0.65776555  0.90754628  1
  O  O4  1  0.68152677  0.31847523  0.06001318  1
  O  O5  1  0.33070773  0.66929327  0.59967975  1
loop_
_geom_bond_atom_site_label_1
_geom_bond_atom_site_label_2
_geom_bond_distance
_geom_bond_site_symmetry_2
Mg0 O1 2.197796 1_555
Mg0 O2 2.208478 1_455
Mg0 O2 2.208482 1_565
Mg0 O2 2.251156 1_555
Mg0 O1 2.314751 1_545
Mg0 O1 2.314752 1_655
In0 O5 2.099796 1_545
In0 O5 2.099798 1_655
In0 O5 2.101802 1_645
In0 O2 2.434973 1_555
In0 O2 2.486912 1_545
In0 O2 2.486917 1_655
In1 O3 2.175114 1_455
In1 O3 2.175116 1_565
In1 O3 2.175660 1_555
In1 O4 2.253885 1_466
In1 O4 2.265788 1_456
In1 O4 2.265793 1_566
Fe0 O0 1.923751 1_565
Fe0 O0 1.923753 1_455
Fe0 O0 1.959026 1_465
Fe0 O3 2.096806 1_555
Fe0 O5 2.349033 1_555
Fe1 O4 1.923193 1_555
Fe1 O1 2.190344 1_655
Fe1 O1 2.190349 1_545
Fe1 O1 2.391918 1_645
