# generated using pymatgen
data_Li3CoPCO7
_symmetry_space_group_name_H-M   'P 1'
_cell_length_a   5.00068793
_cell_length_b   6.43114800
_cell_length_c   16.97016538
_cell_angle_alpha   89.99845536
_cell_angle_beta   83.75538750
_cell_angle_gamma   89.99987531
_symmetry_Int_Tables_number   1
_chemical_formula_structural   Li3CoPCO7
_chemical_formula_sum   'Li12 Co4 P4 C4 O28'
_cell_volume   542.52505679
_cell_formula_units_Z   4
loop_
 _symmetry_equiv_pos_site_id
 _symmetry_equiv_pos_as_xyz
  1  'x, y, z'
loop_
 _atom_site_type_symbol
 _atom_site_label
 _atom_site_symmetry_multiplicity
 _atom_site_fract_x
 _atom_site_fract_y
 _atom_site_fract_z
 _atom_site_occupancy
  Li  Li0  1  0.79409700  0.25000200  0.05222400  1
  Li  Li1  1  0.79409800  0.25000300  0.55222800  1
  Li  Li2  1  0.20589900  0.74999700  0.44778400  1
  Li  Li3  1  0.20589100  0.74999900  0.94777200  1
  Li  Li4  1  0.73192300  0.98441800  0.36295000  1
  Li  Li5  1  0.73189100  0.98442200  0.86294100  1
  Li  Li6  1  0.26803300  0.01558100  0.13705500  1
  Li  Li7  1  0.26823600  0.01560600  0.63706000  1
  Li  Li8  1  0.26809600  0.48441200  0.13705600  1
  Li  Li9  1  0.26789600  0.48443500  0.63705100  1
  Li  Li10  1  0.73193100  0.51558100  0.36295200  1
  Li  Li11  1  0.73198400  0.51557400  0.86294000  1
  Co  Co0  1  0.78756200  0.74991900  0.66612400  1
  Co  Co1  1  0.21243700  0.24999600  0.33389000  1
  Co  Co2  1  0.78755700  0.75001300  0.16611800  1
  Co  Co3  1  0.21244000  0.25004300  0.83387800  1
  P  P0  1  0.73300200  0.25000300  0.20562800  1
  P  P1  1  0.73301400  0.24998600  0.70563300  1
  P  P2  1  0.26698400  0.74999800  0.29436500  1
  P  P3  1  0.26702800  0.75001900  0.79436700  1
  C  C0  1  0.67780000  0.74999400  0.02046300  1
  C  C1  1  0.67777100  0.75002500  0.52045500  1
  C  C2  1  0.32217700  0.25000000  0.47954600  1
  C  C3  1  0.32218500  0.24999300  0.97954100  1
  O  O0  1  0.50376600  0.24999700  0.41767800  1
  O  O1  1  0.50383200  0.24992000  0.91766200  1
  O  O2  1  0.49616300  0.74995200  0.08232000  1
  O  O3  1  0.49614200  0.75025500  0.58232400  1
  O  O4  1  0.92710000  0.75004200  0.03400600  1
  O  O5  1  0.92710200  0.74978700  0.53402400  1
  O  O6  1  0.07286000  0.24999000  0.46600500  1
  O  O7  1  0.07285100  0.25007300  0.96598700  1
  O  O8  1  0.16386800  0.75001000  0.21222100  1
  O  O9  1  0.16391000  0.74995100  0.71221700  1
  O  O10  1  0.83614400  0.24999900  0.28778200  1
  O  O11  1  0.83613300  0.25000800  0.78777400  1
  O  O12  1  0.41845300  0.24999500  0.21650100  1
  O  O13  1  0.41843200  0.25003300  0.71649700  1
  O  O14  1  0.58160200  0.75000800  0.28349500  1
  O  O15  1  0.58157600  0.74997000  0.78350000  1
  O  O16  1  0.60631800  0.74998800  0.44928100  1
  O  O17  1  0.60629300  0.74999500  0.94927600  1
  O  O18  1  0.39371300  0.24999800  0.05071400  1
  O  O19  1  0.39371200  0.25002400  0.55072200  1
  O  O20  1  0.16148100  0.56232900  0.34721200  1
  O  O21  1  0.16147700  0.56236100  0.84719900  1
  O  O22  1  0.16148800  0.93767000  0.34721100  1
  O  O23  1  0.16151500  0.93767300  0.84720000  1
  O  O24  1  0.83851300  0.43766900  0.15279200  1
  O  O25  1  0.83862500  0.43763300  0.65279300  1
  O  O26  1  0.83854400  0.06234800  0.15279500  1
  O  O27  1  0.83845600  0.06230200  0.65279000  1
loop_
_geom_bond_atom_site_label_1
_geom_bond_atom_site_label_2
_geom_bond_distance
_geom_bond_site_symmetry_2
Li0 O7 1.908150 1_654
Li0 O18 2.005145 1_555
Li0 O26 2.121580 1_555
Li0 O24 2.121609 1_555
Li1 O6 1.908013 1_655
Li1 O19 2.005146 1_555
Li1 O25 2.121539 1_555
Li1 O27 2.121542 1_555
Li2 O5 1.908325 1_455
Li2 O16 2.005293 1_555
Li2 O22 2.121643 1_555
Li2 O20 2.121670 1_555
Li3 O4 1.908235 1_456
Li3 O17 2.005222 1_555
Li3 O21 2.121570 1_555
Li3 O23 2.121599 1_555
Li4 O16 2.147933 1_555
Li4 O22 2.156695 1_655
Li4 O10 2.161320 1_565
Li4 O0 2.202511 1_565
Li4 O14 2.208257 1_555
Li5 O17 2.147956 1_555
Li5 O23 2.156986 1_655
Li5 O11 2.161354 1_565
Li5 O1 2.201833 1_565
Li5 O15 2.208276 1_555
Li6 O18 2.148066 1_555
Li6 O26 2.156338 1_455
Li6 O8 2.161200 1_545
Li6 O2 2.202740 1_545
Li6 O12 2.208377 1_555
Li7 O19 2.147815 1_555
Li7 O27 2.157702 1_455
Li7 O9 2.161684 1_545
Li7 O3 2.200831 1_545
Li7 O13 2.207880 1_555
Li8 O18 2.148049 1_555
Li8 O24 2.156777 1_455
Li8 O8 2.161436 1_555
Li8 O2 2.202119 1_555
Li8 O12 2.208199 1_555
Li9 O19 2.148109 1_555
Li9 O25 2.155299 1_455
Li9 O9 2.160815 1_555
Li9 O3 2.203882 1_555
Li9 O13 2.208509 1_555
Li10 O16 2.147869 1_555
Li10 O20 2.156620 1_655
Li10 O10 2.161390 1_555
Li10 O0 2.202508 1_555
Li10 O14 2.208318 1_555
Li11 O17 2.148095 1_555
Li11 O21 2.156376 1_655
Li11 O11 2.161213 1_555
Li11 O1 2.202801 1_555
Li11 O15 2.208156 1_555
Co0 O25 2.034045 1_555
Co0 O27 2.034559 1_565
Co0 O9 2.115188 1_655
Co0 O15 2.140634 1_555
Co0 O3 2.144049 1_555
Co0 O5 2.274224 1_555
Co1 O22 2.034207 1_545
Co1 O20 2.034268 1_555
Co1 O10 2.115051 1_455
Co1 O12 2.140885 1_555
Co1 O0 2.143556 1_555
Co1 O6 2.274504 1_555
Co2 O26 2.034289 1_565
Co2 O24 2.034344 1_555
Co2 O8 2.115095 1_655
Co2 O14 2.140590 1_555
Co2 O2 2.143925 1_555
Co2 O4 2.274421 1_555
Co3 O21 2.034175 1_555
Co3 O23 2.034474 1_545
Co3 O11 2.115084 1_455
Co3 O13 2.140720 1_555
Co3 O1 2.143743 1_555
Co3 O7 2.274419 1_555
C0 O4 1.292030 1_555
C0 O17 1.296626 1_554
C0 O2 1.311305 1_555
C1 O5 1.292308 1_555
C1 O16 1.296312 1_555
C1 O3 1.311429 1_555
C2 O6 1.292104 1_555
C2 O19 1.296500 1_555
C2 O0 1.311295 1_555
C3 O7 1.292250 1_555
C3 O18 1.296437 1_556
C3 O1 1.311606 1_555
O8 P2 1.538018 1_555
O9 P3 1.538119 1_555
O10 P0 1.538235 1_555
O11 P1 1.537977 1_555
O12 P0 1.563686 1_555
O13 P1 1.563849 1_555
O14 P2 1.564028 1_555
O15 P3 1.563680 1_555
O20 P2 1.560873 1_555
O21 P3 1.560747 1_555
O22 P2 1.560904 1_555
O23 P3 1.560720 1_555
O24 P0 1.560768 1_555
O25 P1 1.560848 1_555
O26 P0 1.560765 1_555
O27 P1 1.560862 1_555
