# generated using pymatgen
data_Rb2CuH12(SO7)2
_symmetry_space_group_name_H-M   'P 1'
_cell_length_a   12.50697400
_cell_length_b   6.27631700
_cell_length_c   9.31561541
_cell_angle_alpha   75.32910422
_cell_angle_beta   90.00000000
_cell_angle_gamma   90.00000000
_symmetry_Int_Tables_number   1
_chemical_formula_structural   Rb2CuH12(SO7)2
_chemical_formula_sum   'Rb4 Cu2 H24 S4 O28'
_cell_volume   707.41325386
_cell_formula_units_Z   2
loop_
 _symmetry_equiv_pos_site_id
 _symmetry_equiv_pos_as_xyz
  1  'x, y, z'
loop_
 _atom_site_type_symbol
 _atom_site_label
 _atom_site_symmetry_multiplicity
 _atom_site_fract_x
 _atom_site_fract_y
 _atom_site_fract_z
 _atom_site_occupancy
  Rb  Rb0  1  0.35048900  0.65294300  0.11912500  1
  Rb  Rb1  1  0.85048900  0.34705700  0.38087500  1
  Rb  Rb2  1  0.64951100  0.34705700  0.88087500  1
  Rb  Rb3  1  0.14951100  0.65294300  0.61912500  1
  Cu  Cu0  1  0.50000000  0.00000000  0.50000000  1
  Cu  Cu1  1  0.00000000  0.00000000  0.00000000  1
  H  H0  1  0.64044300  0.69213000  0.53267000  1
  H  H1  1  0.14044300  0.30787000  0.96733000  1
  H  H2  1  0.35955700  0.30787000  0.46733000  1
  H  H3  1  0.85955700  0.69213000  0.03267000  1
  H  H4  1  0.56228200  0.67632500  0.39969400  1
  H  H5  1  0.06228200  0.32367500  0.10030600  1
  H  H6  1  0.39608600  0.07825100  0.20514400  1
  H  H7  1  0.89608600  0.92174900  0.29485600  1
  H  H8  1  0.60391400  0.92174900  0.79485600  1
  H  H9  1  0.10391400  0.07825100  0.70514400  1
  H  H10  1  0.37656300  0.91799200  0.73082200  1
  H  H11  1  0.87656300  0.08200800  0.76917800  1
  H  H12  1  0.62343700  0.08200800  0.26917800  1
  H  H13  1  0.12343700  0.91799200  0.23082200  1
  H  H14  1  0.40931200  0.68446000  0.69820000  1
  H  H15  1  0.69303700  0.99182300  0.67240100  1
  H  H16  1  0.90931200  0.31554000  0.80180000  1
  H  H17  1  0.59068800  0.31554000  0.30180000  1
  H  H18  1  0.09068800  0.68446000  0.19820000  1
  H  H19  1  0.80696300  0.99182300  0.17240100  1
  H  H20  1  0.30696300  0.00817700  0.32759900  1
  H  H21  1  0.93771800  0.67632500  0.89969400  1
  H  H22  1  0.43771800  0.32367500  0.60030600  1
  H  H23  1  0.19303700  0.00817700  0.82759900  1
  S  S0  1  0.85935800  0.72735700  0.61163100  1
  S  S1  1  0.35935800  0.27264300  0.88836900  1
  S  S2  1  0.14064200  0.27264300  0.38836900  1
  S  S3  1  0.64064200  0.72735700  0.11163100  1
  O  O0  1  0.61069800  0.15912100  0.34891700  1
  O  O1  1  0.88930200  0.15912100  0.84891700  1
  O  O2  1  0.11941400  0.97308500  0.80182000  1
  O  O3  1  0.61941400  0.02691500  0.69818000  1
  O  O4  1  0.88058600  0.02691500  0.19818000  1
  O  O5  1  0.38058600  0.97308500  0.30182000  1
  O  O6  1  0.11069800  0.84087900  0.15108300  1
  O  O7  1  0.32997200  0.05389300  0.86211900  1
  O  O8  1  0.82997200  0.94610700  0.63788100  1
  O  O9  1  0.67002800  0.94610700  0.13788100  1
  O  O10  1  0.93551300  0.71414900  0.99791900  1
  O  O11  1  0.43551300  0.28585100  0.50208100  1
  O  O12  1  0.06448700  0.28585100  0.00208100  1
  O  O13  1  0.56448700  0.71414900  0.49791900  1
  O  O14  1  0.17002800  0.05389300  0.36211900  1
  O  O15  1  0.42502600  0.40095200  0.75975700  1
  O  O16  1  0.92502600  0.59904800  0.74024300  1
  O  O17  1  0.07497400  0.40095200  0.25975700  1
  O  O18  1  0.42377000  0.24247400  0.02584500  1
  O  O19  1  0.92377000  0.75752600  0.47415500  1
  O  O20  1  0.57623000  0.75752600  0.97415500  1
  O  O21  1  0.07623000  0.24247400  0.52584500  1
  O  O22  1  0.57497400  0.59904800  0.24024300  1
  O  O23  1  0.76029200  0.59899700  0.60124900  1
  O  O24  1  0.73970800  0.59899700  0.10124900  1
  O  O25  1  0.23970800  0.40100300  0.39875100  1
  O  O26  1  0.38930200  0.84087900  0.65108300  1
  O  O27  1  0.26029200  0.40100300  0.89875100  1
loop_
_geom_bond_atom_site_label_1
_geom_bond_atom_site_label_2
_geom_bond_distance
_geom_bond_site_symmetry_2
Cu0 O11 1.971613 1_555
Cu0 O13 1.971613 1_545
Cu0 O0 2.045264 1_555
Cu0 O26 2.045264 1_545
Cu0 O3 2.413589 1_555
Cu0 O5 2.413589 1_545
Cu1 O12 1.971613 1_555
Cu1 O10 1.971613 1_444
Cu1 O6 2.045264 1_545
Cu1 O1 2.045264 1_454
Cu1 O2 2.413589 1_544
Cu1 O4 2.413589 1_455
H0 O13 1.001847 1_555
H0 O23 1.675561 1_555
H1 O12 1.001847 1_556
H1 O27 1.675561 1_555
H2 O11 1.001847 1_555
H2 O25 1.675561 1_555
H3 O10 1.001847 1_554
H3 O24 1.675561 1_555
H4 O13 1.002208 1_555
H4 O22 1.682774 1_555
H5 O12 1.002208 1_555
H5 O17 1.682774 1_555
H6 O5 0.991576 1_545
H6 Rb0 3.029248 1_545
H7 O4 0.991576 1_565
H7 Rb1 3.029248 1_565
H8 O3 0.991576 1_565
H8 Rb2 3.029248 1_565
H9 O2 0.991576 1_545
H9 Rb3 3.029248 1_545
H10 O26 0.996750 1_555
H11 O1 0.996750 1_555
H12 O0 0.996750 1_555
H13 O6 0.996750 1_555
H14 O26 1.000411 1_555
H14 O15 1.736900 1_555
H15 O3 0.990377 1_565
H16 O1 1.000411 1_555
H16 O16 1.736900 1_555
H17 O0 1.000411 1_555
H17 O22 1.736900 1_555
H18 O6 1.000411 1_555
H18 O17 1.736900 1_555
H19 O4 0.990377 1_565
H20 O5 0.990377 1_545
H21 O10 1.002208 1_555
H21 O16 1.682774 1_555
H22 O11 1.002208 1_555
H22 O15 1.682774 1_555
H23 O2 0.990377 1_545
O0 Rb1 3.263770 1_555
O1 Rb2 3.263770 1_555
O2 Rb3 2.967782 1_555
O3 Rb2 2.967782 1_555
O4 Rb1 2.967782 1_555
O5 Rb0 2.967782 1_555
O6 Rb0 3.263770 1_555
O7 S1 1.499971 1_555
O7 Rb0 3.013104 1_546
O8 S0 1.499971 1_555
O8 Rb1 3.013104 1_565
O9 S3 1.499971 1_555
O9 Rb2 3.013104 1_564
O14 S2 1.499971 1_555
O14 Rb3 3.013104 1_545
O15 S1 1.506582 1_555
O15 Rb2 3.012791 1_555
O16 S0 1.506582 1_555
O16 Rb3 3.012791 1_655
O17 S2 1.506582 1_555
O17 Rb1 3.012791 1_455
O18 S1 1.483960 1_554
O18 Rb0 3.060398 1_555
O18 Rb2 3.126800 1_554
O19 S0 1.483960 1_555
O19 Rb1 3.060398 1_555
O19 Rb3 3.126800 1_655
O20 S3 1.483960 1_556
O20 Rb2 3.060398 1_555
O20 Rb0 3.126800 1_556
O21 S2 1.483960 1_555
O21 Rb3 3.060398 1_555
O21 Rb1 3.126800 1_455
O22 S3 1.506582 1_555
O22 Rb0 3.012791 1_555
O23 S0 1.494329 1_555
O23 Rb2 3.019787 1_555
O23 Rb1 3.103504 1_555
O24 S3 1.494329 1_555
O24 Rb1 3.019787 1_555
O24 Rb2 3.103504 1_554
O25 S2 1.494329 1_555
O25 Rb0 3.019787 1_555
O25 Rb3 3.103504 1_555
O26 Rb3 3.263770 1_555
O27 S1 1.494329 1_555
O27 Rb3 3.019787 1_555
O27 Rb0 3.103504 1_556
