# generated using pymatgen
data_Na3CaZnP(SO6)2
_symmetry_space_group_name_H-M   'P 1'
_cell_length_a   9.19953258
_cell_length_b   9.19478711
_cell_length_c   22.64831820
_cell_angle_alpha   89.52251040
_cell_angle_beta   89.86763635
_cell_angle_gamma   119.93218399
_symmetry_Int_Tables_number   1
_chemical_formula_structural   Na3CaZnP(SO6)2
_chemical_formula_sum   'Na18 Ca6 Zn6 P6 S12 O72'
_cell_volume   1660.13430267
_cell_formula_units_Z   6
loop_
 _symmetry_equiv_pos_site_id
 _symmetry_equiv_pos_as_xyz
  1  'x, y, z'
loop_
 _atom_site_type_symbol
 _atom_site_label
 _atom_site_symmetry_multiplicity
 _atom_site_fract_x
 _atom_site_fract_y
 _atom_site_fract_z
 _atom_site_occupancy
  Na  Na0  1  0.62831234  0.00013867  0.25316540  1
  Na  Na1  1  0.00695942  0.63905973  0.24539018  1
  Na  Na2  1  0.63798141  0.64354120  0.74112521  1
  Na  Na3  1  0.37270690  0.00353159  0.75113032  1
  Na  Na4  1  0.31060703  0.33685569  0.58800949  1
  Na  Na5  1  0.66976265  0.96039869  0.58651348  1
  Na  Na6  1  0.29090377  0.95920109  0.08626805  1
  Na  Na7  1  0.02587466  0.33666092  0.08983360  1
  Na  Na8  1  0.98239419  0.67573497  0.92353096  1
  Na  Na9  1  0.68432927  0.02682249  0.90943841  1
  Na  Na10  1  0.33693440  0.03015746  0.40686883  1
  Na  Na11  1  0.69745221  0.67677417  0.41927891  1
  Na  Na12  1  0.98316010  0.99040800  0.49937550  1
  Na  Na13  1  0.00713397  0.98990683  0.00259450  1
  Na  Na14  1  0.66041948  0.31692821  0.83086738  1
  Na  Na15  1  0.65872206  0.31990527  0.32973517  1
  Na  Na16  1  0.33705825  0.65832942  0.17100724  1
  Na  Na17  1  0.32428492  0.66214364  0.66624118  1
  Ca  Ca0  1  0.00439333  0.01196602  0.84566973  1
  Ca  Ca1  1  0.65838523  0.33694203  0.98789246  1
  Ca  Ca2  1  0.67790827  0.33630414  0.48335810  1
  Ca  Ca3  1  0.33549513  0.66766154  0.01885115  1
  Ca  Ca4  1  0.33626039  0.66906867  0.51505987  1
  Ca  Ca5  1  0.33141635  0.66488480  0.81569607  1
  Zn  Zn0  1  0.00621637  0.01256032  0.34382996  1
  Zn  Zn1  1  0.97933138  0.98231595  0.65231390  1
  Zn  Zn2  1  0.00238900  0.98006263  0.15618727  1
  Zn  Zn3  1  0.67988989  0.33781561  0.67903600  1
  Zn  Zn4  1  0.65581933  0.33704886  0.18190408  1
  Zn  Zn5  1  0.33866845  0.67984320  0.31968769  1
  P  P0  1  0.30134333  0.00131764  0.25108307  1
  P  P1  1  0.69708797  0.00910991  0.74620106  1
  P  P2  1  0.67180387  0.63519610  0.58622072  1
  P  P3  1  0.96304634  0.63556154  0.08839582  1
  P  P4  1  0.33316478  0.97325923  0.91651668  1
  P  P5  1  0.64273177  0.96753699  0.41155940  1
  S  S0  1  0.70340496  0.70393070  0.25167101  1
  S  S1  1  0.00093464  0.29840815  0.24790312  1
  S  S2  1  0.30785847  0.30054695  0.74260861  1
  S  S3  1  0.99406901  0.69776139  0.74793691  1
  S  S4  1  0.96859102  0.32644968  0.58742261  1
  S  S5  1  0.36120318  0.03589818  0.58648668  1
  S  S6  1  0.67576809  0.03671954  0.08856278  1
  S  S7  1  0.35611384  0.32407676  0.08958064  1
  S  S8  1  0.63991859  0.66709120  0.91393823  1
  S  S9  1  0.02654961  0.36005307  0.91970734  1
  S  S10  1  0.32592478  0.36432763  0.41372200  1
  S  S11  1  0.03549966  0.67341898  0.41048207  1
  O  O0  1  0.21713737  0.02091774  0.30743314  1
  O  O1  1  0.80442910  0.77919529  0.30591910  1
  O  O2  1  0.97565988  0.18872612  0.29973141  1
  O  O3  1  0.22717113  0.20044276  0.79600288  1
  O  O4  1  0.97406400  0.76940790  0.80407011  1
  O  O5  1  0.78625807  0.02428184  0.80524389  1
  O  O6  1  0.79140673  0.98812154  0.69304537  1
  O  O7  1  0.20969323  0.21725154  0.68927009  1
  O  O8  1  0.02129467  0.81471003  0.69789097  1
  O  O9  1  0.78475901  0.81709389  0.19985574  1
  O  O10  1  0.01876094  0.22194338  0.19289060  1
  O  O11  1  0.19292183  0.97375412  0.19546090  1
  O  O12  1  0.88408585  0.34346430  0.64009254  1
  O  O13  1  0.46981322  0.12135195  0.63800001  1
  O  O14  1  0.65333234  0.52303257  0.64079052  1
  O  O15  1  0.86638202  0.52051227  0.14219265  1
  O  O16  1  0.65129123  0.12375961  0.13972523  1
  O  O17  1  0.46000281  0.34104111  0.14137685  1
  O  O18  1  0.43052539  0.30202432  0.03510909  1
  O  O19  1  0.87598709  0.56186319  0.02928655  1
  O  O20  1  0.69614761  0.13264689  0.03278058  1
  O  O21  1  0.43853437  0.13352687  0.53106711  1
  O  O22  1  0.68454782  0.55756680  0.52783168  1
  O  O23  1  0.86894724  0.30394913  0.53387280  1
  O  O24  1  0.54654763  0.67443386  0.96526688  1
  O  O25  1  0.11757126  0.43715768  0.97513868  1
  O  O26  1  0.31830594  0.86928000  0.97310279  1
  O  O27  1  0.56715938  0.86402538  0.46943979  1
  O  O28  1  0.30867227  0.43247594  0.47100249  1
  O  O29  1  0.13461693  0.68671047  0.46312700  1
  O  O30  1  0.11468211  0.65352313  0.35627362  1
  O  O31  1  0.52720073  0.87669793  0.35782138  1
  O  O32  1  0.34200369  0.47680672  0.36400315  1
  O  O33  1  0.11857012  0.46074424  0.86808307  1
  O  O34  1  0.34818129  0.88465391  0.86051796  1
  O  O35  1  0.55014098  0.65393147  0.85827560  1
  O  O36  1  0.02536567  0.83176609  0.40843082  1
  O  O37  1  0.81724730  0.97904981  0.40476243  1
  O  O38  1  0.18230643  0.19137745  0.40875156  1
  O  O39  1  0.99564276  0.18614065  0.91765412  1
  O  O40  1  0.16930721  0.98202508  0.91513692  1
  O  O41  1  0.80651491  0.82623397  0.91418841  1
  O  O42  1  0.98783666  0.17315270  0.59084531  1
  O  O43  1  0.19485674  0.02425290  0.59203613  1
  O  O44  1  0.82555903  0.81740381  0.58945952  1
  O  O45  1  0.99119479  0.81778060  0.09216456  1
  O  O46  1  0.83077603  0.02624657  0.09449633  1
  O  O47  1  0.18463260  0.17066220  0.09382722  1
  O  O48  1  0.66864826  0.16270282  0.74034497  1
  O  O49  1  0.47917175  0.31757413  0.74098820  1
  O  O50  1  0.83904901  0.53322655  0.74190831  1
  O  O51  1  0.69348835  0.53784576  0.24515879  1
  O  O52  1  0.84540317  0.31522421  0.24600862  1
  O  O53  1  0.48409830  0.15448629  0.24520216  1
  O  O54  1  0.67166406  0.52445313  0.91655199  1
  O  O55  1  0.85943626  0.35215804  0.91963503  1
  O  O56  1  0.49755537  0.14556715  0.91763780  1
  O  O57  1  0.64832780  0.13887876  0.41439456  1
  O  O58  1  0.48493518  0.35387980  0.41430419  1
  O  O59  1  0.86128969  0.52936790  0.41381986  1
  O  O60  1  0.33392404  0.47285260  0.08647153  1
  O  O61  1  0.14107944  0.64964906  0.08961347  1
  O  O62  1  0.52266417  0.86830816  0.08598465  1
  O  O63  1  0.34694185  0.86766765  0.58332560  1
  O  O64  1  0.50806605  0.64989447  0.58716091  1
  O  O65  1  0.13946738  0.47509858  0.58349579  1
  O  O66  1  0.31674974  0.83658261  0.25487222  1
  O  O67  1  0.53310568  0.68521407  0.25595438  1
  O  O68  1  0.14897547  0.47027358  0.25366645  1
  O  O69  1  0.33075296  0.47238800  0.74584608  1
  O  O70  1  0.14584440  0.68016191  0.74928318  1
  O  O71  1  0.51983218  0.84519164  0.74576686  1
loop_
_geom_bond_atom_site_label_1
_geom_bond_atom_site_label_2
_geom_bond_distance
_geom_bond_site_symmetry_2
Na0 O53 2.383820 1_555
Na0 O66 2.485018 1_545
Na0 O67 2.573266 1_545
Na0 O52 2.573873 1_555
Na0 O31 2.581297 1_545
Na0 O16 2.765260 1_555
Na0 O9 2.967327 1_545
Na0 O2 2.974284 1_555
Na1 O68 2.484010 1_555
Na1 O66 2.512105 1_555
Na1 O51 2.550340 1_455
Na1 O52 2.580321 1_455
Na1 O15 2.640648 1_455
Na1 O30 2.681800 1_555
Na1 O11 2.890535 1_555
Na2 O69 2.456288 1_555
Na2 O50 2.514532 1_555
Na2 O14 2.570646 1_555
Na2 O71 2.577621 1_555
Na2 O49 2.597687 1_555
Na2 O35 2.788061 1_555
Na3 O48 2.372418 1_555
Na3 O71 2.436188 1_545
Na3 O49 2.552561 1_555
Na3 O70 2.647235 1_545
Na3 O34 2.662627 1_545
Na3 O13 2.741158 1_555
Na3 O3 2.923525 1_555
Na4 O65 2.469950 1_555
Na4 O7 2.502027 1_555
Na4 O43 2.518861 1_555
Na4 O64 2.523090 1_555
Na4 O42 2.573702 1_455
Na4 O28 2.787990 1_555
Na5 O44 2.380537 1_555
Na5 O64 2.474891 1_555
Na5 O42 2.586655 1_565
Na5 O6 2.622365 1_555
Na5 O63 2.650841 1_555
Na5 O27 2.814742 1_555
Na6 O45 2.393378 1_455
Na6 O61 2.467314 1_555
Na6 O47 2.582113 1_565
Na6 O62 2.650009 1_555
Na6 O11 2.657422 1_555
Na6 O26 2.748904 1_554
Na7 O60 2.461890 1_555
Na7 O46 2.502158 1_455
Na7 O61 2.522159 1_555
Na7 O10 2.540499 1_555
Na7 O47 2.587244 1_555
Na7 O25 2.735911 1_554
Na8 O40 2.465996 1_655
Na8 O54 2.483733 1_555
Na8 O19 2.591517 1_556
Na8 O55 2.604907 1_555
Na8 O41 2.609359 1_555
Na8 O4 2.845330 1_555
Na8 O26 2.922026 1_655
Na9 O56 2.460281 1_555
Na9 O39 2.490567 1_555
Na9 O5 2.541885 1_555
Na9 O41 2.596714 1_545
Na9 O55 2.607879 1_555
Na9 O34 2.916366 1_545
Na9 O20 2.950144 1_556
Na10 O0 2.492939 1_555
Na10 O36 2.514961 1_545
Na10 O38 2.515541 1_555
Na10 O57 2.526260 1_555
Na10 O58 2.589801 1_555
Na11 O37 2.444141 1_555
Na11 O59 2.482870 1_555
Na11 O58 2.619851 1_555
Na11 O36 2.625258 1_655
Na11 O22 2.661539 1_555
Na11 O1 2.733151 1_555
Na11 O27 2.788822 1_555
Na12 O44 2.534913 1_555
Na12 O37 2.606153 1_555
Na12 O42 2.665187 1_565
Na12 O36 2.670698 1_655
Na12 O38 2.743114 1_665
Na12 O43 2.778263 1_665
Na13 O40 2.500229 1_554
Na13 O45 2.520934 1_455
Na13 O41 2.641129 1_454
Na13 O47 2.657555 1_565
Na13 O39 2.664780 1_464
Na13 O46 2.759196 1_465
Na14 O56 2.483619 1_555
Na14 O48 2.524829 1_555
Na14 O55 2.633410 1_555
Na14 O49 2.636156 1_555
Na14 O54 2.698771 1_555
Na14 O50 2.715059 1_555
Na15 O53 2.486744 1_555
Na15 O57 2.498644 1_555
Na15 O52 2.570437 1_555
Na15 O58 2.610823 1_555
Na15 O51 2.660968 1_555
Na15 O59 2.702689 1_555
Na16 O68 2.536497 1_555
Na16 O61 2.555252 1_555
Na16 O60 2.565259 1_555
Na16 O67 2.567946 1_555
Na16 O66 2.585495 1_555
Na16 O62 2.642745 1_555
Na17 O64 2.501672 1_555
Na17 O69 2.519905 1_555
Na17 O71 2.521300 1_555
Na17 O65 2.551665 1_555
Na17 O70 2.553781 1_555
Na17 O63 2.585936 1_555
Ca0 O3 2.209371 1_555
Ca0 O5 2.260898 1_455
Ca0 O40 2.296392 1_545
Ca0 O4 2.314056 1_445
Ca0 O39 2.323964 1_455
Ca0 O41 2.340688 1_445
Ca1 O18 2.225536 1_556
Ca1 O19 2.252285 1_556
Ca1 O56 2.297085 1_555
Ca1 O20 2.303008 1_556
Ca1 O54 2.310978 1_555
Ca1 O55 2.356969 1_555
Ca2 O23 2.238636 1_555
Ca2 O22 2.251167 1_555
Ca2 O21 2.313275 1_555
Ca2 O57 2.316272 1_555
Ca2 O59 2.330278 1_555
Ca2 O58 2.432806 1_555
Ca3 O26 2.190107 1_554
Ca3 O24 2.261335 1_554
Ca3 O25 2.301122 1_554
Ca3 O61 2.341257 1_555
Ca3 O60 2.341473 1_555
Ca3 O62 2.359869 1_555
Ca4 O27 2.225315 1_555
Ca4 O29 2.271135 1_555
Ca4 O28 2.297583 1_555
Ca4 O64 2.341143 1_555
Ca4 O65 2.362108 1_555
Ca4 O63 2.367136 1_555
Ca5 O34 2.204891 1_555
Ca5 O33 2.247080 1_555
Ca5 O35 2.280025 1_555
Ca5 O71 2.310231 1_555
Ca5 O70 2.333297 1_555
Ca5 O69 2.381477 1_555
O0 P0 1.549171 1_555
O0 Zn0 2.072010 1_555
O1 S0 1.493247 1_555
O1 Zn0 2.202375 1_665
O2 S1 1.481216 1_655
O2 Zn0 2.032006 1_655
O3 S2 1.468349 1_555
O4 S3 1.489289 1_555
O5 P1 1.540950 1_555
O6 P1 1.551007 1_565
O6 Zn1 1.981973 1_555
O7 S2 1.480433 1_555
O7 Zn1 2.308217 1_445
O8 S3 1.487737 1_455
O8 Zn1 2.039261 1_455
O9 S0 1.489434 1_555
O9 Zn2 2.050406 1_655
O10 S1 1.484015 1_555
O10 Zn2 2.314554 1_545
O11 P0 1.550779 1_565
O11 Zn2 1.993666 1_555
O12 S4 1.473775 1_555
O12 Zn3 2.050276 1_555
O13 S5 1.487973 1_555
O13 Zn3 2.181896 1_555
O14 P2 1.556558 1_555
O14 Zn3 2.025319 1_555
O15 P3 1.558555 1_555
O15 Zn4 2.027939 1_555
O16 S6 1.492644 1_555
O16 Zn4 2.170319 1_555
O17 S7 1.474234 1_555
O17 Zn4 2.040104 1_555
O18 S7 1.473262 1_555
O19 P3 1.539900 1_555
O20 S6 1.491492 1_555
O21 S5 1.492361 1_555
O22 P2 1.539655 1_555
O23 S4 1.474474 1_555
O24 S8 1.465735 1_555
O25 S9 1.485646 1_555
O26 P4 1.556774 1_555
O27 P5 1.556374 1_555
O28 S10 1.487508 1_555
O29 S11 1.471136 1_555
O30 S11 1.484592 1_555
O30 Zn5 2.117127 1_555
O31 P5 1.563821 1_555
O31 Zn5 1.982522 1_555
O32 S10 1.478726 1_555
O32 Zn5 2.125936 1_555
O33 S9 1.461532 1_555
O34 P4 1.555663 1_555
O35 S8 1.481104 1_555
O36 S11 1.505006 1_555
O36 Zn0 2.277730 1_565
O37 P5 1.562496 1_555
O37 Zn0 2.113953 1_665
O38 S10 1.481244 1_555
O38 Zn0 2.209709 1_555
O39 S9 1.479072 1_655
O40 P4 1.549578 1_555
O41 S8 1.500752 1_555
O42 S4 1.507126 1_555
O42 Zn1 2.201132 1_545
O43 S5 1.484747 1_555
O43 Zn1 2.271432 1_445
O44 P2 1.565435 1_555
O44 Zn1 2.057076 1_555
O45 P3 1.565578 1_555
O45 Zn2 2.055003 1_655
O46 S6 1.482740 1_555
O46 Zn2 2.300938 1_645
O47 S7 1.504669 1_555
O47 Zn2 2.211908 1_545
O48 P1 1.564057 1_555
O48 Zn3 2.080181 1_555
O49 S2 1.504341 1_555
O49 Zn3 2.248042 1_555
O50 S3 1.480691 1_555
O50 Zn3 2.196979 1_555
O51 S0 1.492295 1_555
O51 Zn4 2.233634 1_555
O52 S1 1.514575 1_655
O52 Zn4 2.355018 1_555
O53 P0 1.568669 1_555
O53 Zn4 2.161399 1_555
O54 S8 1.479838 1_555
O55 S9 1.502466 1_655
O56 P4 1.551647 1_545
O57 P5 1.552283 1_545
O58 S10 1.513128 1_555
O59 S11 1.485913 1_655
O60 S7 1.481583 1_555
O61 P3 1.577514 1_455
O62 S6 1.486749 1_565
O63 S5 1.488095 1_565
O64 P2 1.578211 1_555
O65 S4 1.483349 1_455
O66 P0 1.591826 1_565
O66 Zn5 2.128074 1_555
O67 S0 1.491124 1_555
O67 Zn5 2.276902 1_555
O68 S1 1.491833 1_555
O68 Zn5 2.387169 1_555
O69 S2 1.488680 1_555
O70 S3 1.484003 1_455
O71 P1 1.574306 1_565
