# generated using pymatgen
data_Li3Mo2(PO4)3
_symmetry_space_group_name_H-M   'P 1'
_cell_length_a   9.19919250
_cell_length_b   9.19919250
_cell_length_c   9.19919318
_cell_angle_alpha   55.76262004
_cell_angle_beta   55.76262004
_cell_angle_gamma   55.76261703
_symmetry_Int_Tables_number   1
_chemical_formula_structural   Li3Mo2(PO4)3
_chemical_formula_sum   'Li6 Mo4 P6 O24'
_cell_volume   496.37489294
_cell_formula_units_Z   2
loop_
 _symmetry_equiv_pos_site_id
 _symmetry_equiv_pos_as_xyz
  1  'x, y, z'
loop_
 _atom_site_type_symbol
 _atom_site_label
 _atom_site_symmetry_multiplicity
 _atom_site_fract_x
 _atom_site_fract_y
 _atom_site_fract_z
 _atom_site_occupancy
  Li  Li0  1  0.73327900  0.07584100  0.33482100  1
  Li  Li1  1  0.07584100  0.33482100  0.73327900  1
  Li  Li2  1  0.33482100  0.73327900  0.07584100  1
  Li  Li3  1  0.66517900  0.26672100  0.92415900  1
  Li  Li4  1  0.92415900  0.66517900  0.26672100  1
  Li  Li5  1  0.26672100  0.92415900  0.66517900  1
  Mo  Mo0  1  0.34778400  0.34778400  0.34778400  1
  Mo  Mo1  1  0.85475400  0.85475400  0.85475400  1
  Mo  Mo2  1  0.14524600  0.14524600  0.14524600  1
  Mo  Mo3  1  0.65221600  0.65221600  0.65221600  1
  P  P0  1  0.54492700  0.95911500  0.24930700  1
  P  P1  1  0.75069300  0.45507300  0.04088500  1
  P  P2  1  0.95911500  0.24930700  0.54492700  1
  P  P3  1  0.04088500  0.75069300  0.45507300  1
  P  P4  1  0.45507300  0.04088500  0.75069300  1
  P  P5  1  0.24930700  0.54492700  0.95911500  1
  O  O0  1  0.55296000  0.14833700  0.20700600  1
  O  O1  1  0.74652200  0.85547100  0.13336500  1
  O  O2  1  0.50309700  0.84084600  0.46356100  1
  O  O3  1  0.20700600  0.55296000  0.14833700  1
  O  O4  1  0.44704000  0.85166300  0.79299400  1
  O  O5  1  0.25347800  0.14452900  0.86663500  1
  O  O6  1  0.49690300  0.15915400  0.53643900  1
  O  O7  1  0.79299400  0.44704000  0.85166300  1
  O  O8  1  0.19020400  0.39739000  0.00200500  1
  O  O9  1  0.85166300  0.79299400  0.44704000  1
  O  O10  1  0.60261000  0.99799500  0.80979600  1
  O  O11  1  0.86663500  0.25347800  0.14452900  1
  O  O12  1  0.15915400  0.53643900  0.49690300  1
  O  O13  1  0.14452900  0.86663500  0.25347800  1
  O  O14  1  0.46356100  0.50309700  0.84084600  1
  O  O15  1  0.99799500  0.80979600  0.60261000  1
  O  O16  1  0.00200500  0.19020400  0.39739000  1
  O  O17  1  0.53643900  0.49690300  0.15915400  1
  O  O18  1  0.85547100  0.13336500  0.74652200  1
  O  O19  1  0.84084600  0.46356100  0.50309700  1
  O  O20  1  0.13336500  0.74652200  0.85547100  1
  O  O21  1  0.39739000  0.00200500  0.19020400  1
  O  O22  1  0.14833700  0.20700600  0.55296000  1
  O  O23  1  0.80979600  0.60261000  0.99799500  1
loop_
_geom_bond_atom_site_label_1
_geom_bond_atom_site_label_2
_geom_bond_distance
_geom_bond_site_symmetry_2
Li0 O11 1.964716 1_555
Li0 O6 1.985395 1_555
Li0 O9 2.018894 1_545
Li0 O0 2.155539 1_555
Li1 O5 1.964716 1_555
Li1 O12 1.985395 1_555
Li1 O7 2.018894 1_455
Li1 O22 2.155539 1_555
Li2 O13 1.964716 1_555
Li2 O17 1.985394 1_555
Li2 O4 2.018894 1_554
Li2 O3 2.155539 1_555
Li3 O18 1.964716 1_555
Li3 O14 1.985394 1_555
Li3 O0 2.018894 1_556
Li3 O7 2.155539 1_555
Li4 O1 1.964716 1_555
Li4 O19 1.985395 1_555
Li4 O3 2.018894 1_655
Li4 O9 2.155539 1_555
Li5 O20 1.964716 1_555
Li5 O2 1.985395 1_555
Li5 O22 2.018894 1_565
Li5 O4 2.155539 1_555
Mo0 O12 2.125186 1_555
Mo0 O6 2.125186 1_555
Mo0 O17 2.125186 1_555
Mo0 O0 2.152300 1_555
Mo0 O3 2.152301 1_555
Mo0 O22 2.152301 1_555
Mo1 O10 2.077148 1_555
Mo1 O23 2.077148 1_555
Mo1 O15 2.077148 1_555
Mo1 O20 2.168062 1_655
Mo1 O18 2.168062 1_565
Mo1 O1 2.168062 1_556
Mo2 O21 2.077148 1_555
Mo2 O8 2.077148 1_555
Mo2 O16 2.077148 1_555
Mo2 O11 2.168062 1_455
Mo2 O13 2.168062 1_545
Mo2 O5 2.168062 1_554
Mo3 O19 2.125186 1_555
Mo3 O2 2.125186 1_555
Mo3 O14 2.125186 1_555
Mo3 O4 2.152300 1_555
Mo3 O7 2.152301 1_555
Mo3 O9 2.152301 1_555
O0 P0 1.592819 1_545
O1 P0 1.553960 1_555
O2 P0 1.556021 1_555
O3 P5 1.592819 1_554
O4 P4 1.592819 1_565
O5 P4 1.553960 1_555
O6 P4 1.556021 1_555
O7 P1 1.592819 1_556
O8 P5 1.509875 1_554
O9 P3 1.592819 1_655
O10 P4 1.509875 1_565
O11 P1 1.553960 1_555
O12 P3 1.556020 1_555
O13 P3 1.553960 1_555
O14 P5 1.556020 1_555
O15 P3 1.509875 1_655
O16 P2 1.509875 1_455
O17 P1 1.556020 1_555
O18 P2 1.553960 1_555
O19 P2 1.556020 1_555
O20 P5 1.553960 1_555
O21 P0 1.509875 1_545
O22 P2 1.592819 1_455
O23 P1 1.509875 1_556
