# generated using pymatgen
data_Na5Ti4Si3(PO8)3
_symmetry_space_group_name_H-M   'P 1'
_cell_length_a   8.81580793
_cell_length_b   8.81744430
_cell_length_c   22.13278358
_cell_angle_alpha   89.98989600
_cell_angle_beta   90.05719398
_cell_angle_gamma   119.96076766
_symmetry_Int_Tables_number   1
_chemical_formula_structural   Na5Ti4Si3(PO8)3
_chemical_formula_sum   'Na15 Ti12 Si9 P9 O72'
_cell_volume   1490.53720864
_cell_formula_units_Z   3
loop_
 _symmetry_equiv_pos_site_id
 _symmetry_equiv_pos_as_xyz
  1  'x, y, z'
loop_
 _atom_site_type_symbol
 _atom_site_label
 _atom_site_symmetry_multiplicity
 _atom_site_fract_x
 _atom_site_fract_y
 _atom_site_fract_z
 _atom_site_occupancy
  Na  Na0  1  0.00071188  0.63235026  0.24970855  1
  Na  Na1  1  0.36610165  -0.00009087  0.74999306  1
  Na  Na2  1  0.03282964  0.70070732  0.58275818  1
  Na  Na3  1  0.66371575  0.96585098  0.58445773  1
  Na  Na4  1  0.29828654  0.96721781  0.08285328  1
  Na  Na5  1  0.03349776  0.33620548  0.08400837  1
  Na  Na6  1  0.96711421  0.66661976  0.91714734  1
  Na  Na7  1  0.96624563  0.30011517  0.41578276  1
  Na  Na8  1  0.33609306  0.03423448  0.41641030  1
  Na  Na9  1  0.00054651  0.99784888  0.50004883  1
  Na  Na10  1  0.99345486  0.99950069  0.99883114  1
  Na  Na11  1  0.66807323  0.33188071  0.83333950  1
  Na  Na12  1  0.66049931  0.33228463  0.33201331  1
  Na  Na13  1  0.34957687  0.66628148  0.16810229  1
  Na  Na14  1  0.33170842  0.64796984  0.66768191  1
  Ti  Ti0  1  0.98970617  0.99532433  0.35278900  1
  Ti  Ti1  1  -0.00055329  0.00745845  0.85329012  1
  Ti  Ti2  1  0.99816837  0.00003783  0.64724629  1
  Ti  Ti3  1  0.00042879  0.00238502  0.14681995  1
  Ti  Ti4  1  0.66566760  0.33407793  0.68651079  1
  Ti  Ti5  1  0.66696306  0.33365463  0.18596503  1
  Ti  Ti6  1  0.65608335  0.32865824  0.98017549  1
  Ti  Ti7  1  0.66520491  0.33960117  0.48008809  1
  Ti  Ti8  1  0.33135953  0.66516363  0.01956891  1
  Ti  Ti9  1  0.34133591  0.67506218  0.51998730  1
  Ti  Ti10  1  0.33144234  0.66460469  0.31416163  1
  Ti  Ti11  1  0.34271278  0.67328868  0.81358594  1
  Si  Si0  1  0.00007312  0.28931761  0.24990405  1
  Si  Si1  1  0.71268485  0.00170559  0.74994170  1
  Si  Si2  1  0.37603897  0.04813230  0.58315937  1
  Si  Si3  1  0.66176166  0.61872981  0.58423275  1
  Si  Si4  1  0.95136092  0.62327986  0.08233527  1
  Si  Si5  1  0.38089716  0.33811784  0.08440468  1
  Si  Si6  1  0.33647761  0.96056565  0.91650843  1
  Si  Si7  1  0.62318256  0.95418709  0.41613576  1
  Si  Si8  1  0.04191662  0.66742490  0.41689921  1
  P  P0  1  0.29189422  0.00356734  0.25074957  1
  P  P1  1  0.70912798  0.71248678  0.24921544  1
  P  P2  1  0.28624332  0.29005063  0.75009562  1
  P  P3  1  0.99687092  0.70817343  0.75105753  1
  P  P4  1  0.95602672  0.33322663  0.58319566  1
  P  P5  1  0.66655742  0.04450438  0.08299831  1
  P  P6  1  0.61982684  0.66688459  0.91669824  1
  P  P7  1  0.04648976  0.37749997  0.91606038  1
  P  P8  1  0.33620830  0.38272719  0.41649943  1
  O  O0  1  0.20321782  0.02586912  0.30742073  1
  O  O1  1  0.82883110  0.79882877  0.30559013  1
  O  O2  1  0.97402370  0.16754970  0.30956037  1
  O  O3  1  0.20104172  0.16977498  0.80598785  1
  O  O4  1  0.97415078  0.79722613  0.80768374  1
  O  O5  1  0.83894870  0.02642999  0.80766952  1
  O  O6  1  0.80217984  0.97264725  0.68946640  1
  O  O7  1  0.17120321  0.19787796  0.69404862  1
  O  O8  1  0.03074402  0.82659571  0.69413316  1
  O  O9  1  0.80161562  0.82708475  0.19357431  1
  O  O10  1  0.02562882  0.19451483  0.19001891  1
  O  O11  1  0.17369204  0.97112058  0.19391016  1
  O  O12  1  0.86700913  0.36434752  0.63826529  1
  O  O13  1  0.50182381  0.13372704  0.64245258  1
  O  O14  1  0.63843527  0.49601276  0.64245451  1
  O  O15  1  0.86624499  0.49675365  0.14189108  1
  O  O16  1  0.63274080  0.12887172  0.13895497  1
  O  O17  1  0.50437839  0.36303631  0.14246853  1
  O  O18  1  0.46922878  0.29552341  0.02621807  1
  O  O19  1  0.83473375  0.53038308  0.02247727  1
  O  O20  1  0.70132208  0.16421002  0.02767289  1
  O  O21  1  0.46942522  0.16520809  0.52317516  1
  O  O22  1  0.70324822  0.52960512  0.52616315  1
  O  O23  1  0.84112578  0.29866402  0.52579370  1
  O  O24  1  0.53051981  0.69173544  0.97249904  1
  O  O25  1  0.15680273  0.46099625  0.97467658  1
  O  O26  1  0.30132868  0.83261330  0.97568506  1
  O  O27  1  0.53513151  0.83606433  0.47710227  1
  O  O28  1  0.30202636  0.46643658  0.47189484  1
  O  O29  1  0.16715971  0.69988876  0.47614770  1
  O  O30  1  0.13145988  0.63057061  0.35714688  1
  O  O31  1  0.49207292  0.85747781  0.35954674  1
  O  O32  1  0.36148358  0.49454007  0.35986468  1
  O  O33  1  0.13807948  0.49850658  0.86182119  1
  O  O34  1  0.36123382  0.86226222  0.85675013  1
  O  O35  1  0.50650409  0.64065823  0.86007002  1
  O  O36  1  0.03313317  0.84565044  0.40935167  1
  O  O37  1  0.81882584  0.98019192  0.41027348  1
  O  O38  1  0.17208866  0.19731788  0.41069171  1
  O  O39  1  0.02867823  0.19548277  0.90988292  1
  O  O40  1  0.15691229  0.97045741  0.90967614  1
  O  O41  1  0.80549503  0.82904484  0.91093801  1
  O  O42  1  0.97080687  0.16715493  0.59019446  1
  O  O43  1  0.18117509  0.02014778  0.59009163  1
  O  O44  1  0.83731794  0.81426341  0.59052862  1
  O  O45  1  0.98023445  0.81849527  0.09016020  1
  O  O46  1  0.83197593  0.02894461  0.08988591  1
  O  O47  1  0.18554453  0.16276356  0.09057442  1
  O  O48  1  0.68522010  0.17075342  0.74501060  1
  O  O49  1  0.46829745  0.30324250  0.74434850  1
  O  O50  1  0.83444751  0.52710930  0.74427388  1
  O  O51  1  0.69709740  0.53103660  0.24415974  1
  O  O52  1  0.82835452  0.31394712  0.24463731  1
  O  O53  1  0.47305779  0.16553725  0.24411677  1
  O  O54  1  0.64441813  0.50504448  0.92183287  1
  O  O55  1  0.86584293  0.36429937  0.92159785  1
  O  O56  1  0.51184414  0.15102445  0.92265844  1
  O  O57  1  0.64207741  0.14726217  0.42185787  1
  O  O58  1  0.49736903  0.35883503  0.42217283  1
  O  O59  1  0.85276506  0.49008457  0.42311248  1
  O  O60  1  0.35376736  0.50532456  0.07681356  1
  O  O61  1  0.14842927  0.64372375  0.07607155  1
  O  O62  1  0.50062306  0.86418548  0.07606846  1
  O  O63  1  0.35495296  0.85165069  0.57753142  1
  O  O64  1  0.49252651  0.64314379  0.57807887  1
  O  O65  1  0.13554111  0.49861254  0.57707243  1
  O  O66  1  0.30367386  0.83366539  0.25547866  1
  O  O67  1  0.52870049  0.69463277  0.25589527  1
  O  O68  1  0.17204254  0.48548823  0.25507349  1
  O  O69  1  0.30320025  0.46995448  0.75705843  1
  O  O70  1  0.16504439  0.69394605  0.75628862  1
  O  O71  1  0.51577580  0.82782651  0.75620123  1
loop_
_geom_bond_atom_site_label_1
_geom_bond_atom_site_label_2
_geom_bond_distance
_geom_bond_site_symmetry_2
Na0 O66 2.358968 1_555
Na0 O51 2.363995 1_455
Na0 O68 2.434242 1_555
Na0 O52 2.437698 1_455
Na0 O30 2.644973 1_555
Na0 O15 2.666252 1_455
Na0 O1 2.864708 1_455
Na0 O11 2.868106 1_555
Na1 O49 2.360976 1_555
Na1 O70 2.379813 1_545
Na1 O48 2.442056 1_555
Na1 O71 2.462021 1_545
Na1 O34 2.646702 1_545
Na1 O13 2.661512 1_555
Na1 O3 2.842154 1_555
Na1 O8 2.843447 1_545
Na2 O65 2.371297 1_555
Na2 O44 2.393178 1_455
Na2 O43 2.447589 1_565
Na2 O63 2.464677 1_555
Na2 O29 2.642767 1_555
Na2 O8 2.707457 1_555
Na2 O22 2.811105 1_455
Na2 O12 2.848560 1_455
Na3 O42 2.386563 1_565
Na3 O63 2.389196 1_555
Na3 O64 2.470762 1_555
Na3 O44 2.487884 1_555
Na3 O6 2.610853 1_555
Na3 O27 2.634429 1_555
Na3 O13 2.826668 1_565
Na3 O23 2.856936 1_565
Na4 O62 2.376734 1_555
Na4 O47 2.387908 1_565
Na4 O45 2.436367 1_455
Na4 O61 2.477882 1_555
Na4 O26 2.658636 1_554
Na4 O11 2.700481 1_555
Na4 O18 2.804895 1_565
Na4 O16 2.839480 1_565
Na5 O61 2.380319 1_555
Na5 O46 2.388736 1_455
Na5 O60 2.452819 1_555
Na5 O47 2.490713 1_555
Na5 O10 2.642645 1_555
Na5 O25 2.656600 1_554
Na5 O15 2.812207 1_455
Na5 O20 2.826249 1_455
Na6 O40 2.351058 1_655
Na6 O55 2.352807 1_555
Na6 O54 2.466958 1_555
Na6 O41 2.477450 1_555
Na6 O19 2.616084 1_556
Na6 O4 2.669769 1_555
Na6 O26 2.861410 1_655
Na6 O33 2.864303 1_655
Na7 O59 2.346726 1_555
Na7 O38 2.402216 1_655
Na7 O37 2.449375 1_545
Na7 O57 2.480971 1_555
Na7 O2 2.641881 1_555
Na7 O23 2.671439 1_555
Na7 O30 2.838881 1_655
Na7 O28 2.848330 1_655
Na8 O36 2.342255 1_545
Na8 O57 2.366114 1_555
Na8 O58 2.482914 1_555
Na8 O38 2.500082 1_555
Na8 O21 2.634139 1_555
Na8 O0 2.665457 1_555
Na8 O31 2.837006 1_545
Na8 O29 2.876534 1_545
Na9 O43 2.495411 1_565
Na9 O37 2.506672 1_455
Na9 O36 2.510029 1_555
Na9 O44 2.525737 1_455
Na9 O38 2.576795 1_565
Na9 O42 2.582842 1_465
Na10 O41 2.509187 1_555
Na10 O40 2.531845 1_655
Na10 O39 2.534234 1_665
Na10 O45 2.541708 1_556
Na10 O46 2.555469 1_566
Na10 O47 2.573395 1_666
Na11 O48 2.465622 1_555
Na11 O56 2.481649 1_555
Na11 O55 2.536315 1_555
Na11 O50 2.546211 1_555
Na11 O54 2.555549 1_555
Na11 O49 2.567875 1_555
Na12 O52 2.490093 1_555
Na12 O53 2.498958 1_555
Na12 O57 2.525265 1_555
Na12 O51 2.528133 1_555
Na12 O58 2.539119 1_555
Na12 O59 2.552036 1_555
Na13 O67 2.435471 1_555
Na13 O60 2.480205 1_555
Na13 O68 2.491791 1_555
Na13 O62 2.578894 1_555
Na13 O66 2.584773 1_555
Na13 O61 2.640770 1_555
Na14 O64 2.451662 1_555
Na14 O69 2.458840 1_555
Na14 O71 2.531984 1_555
Na14 O65 2.542851 1_555
Na14 O70 2.601931 1_555
Na14 O63 2.623075 1_555
O0 P0 1.542285 1_555
O0 Ti0 2.030051 1_445
O1 P1 1.563746 1_555
O1 Ti0 1.909953 1_555
O2 Si0 1.643993 1_655
O2 Ti0 1.857298 1_545
O3 P2 1.557223 1_555
O3 Ti1 1.940510 1_555
O4 P3 1.544465 1_555
O4 Ti1 2.022912 1_665
O5 Si1 1.635206 1_555
O5 Ti1 1.811903 1_655
O6 Si1 1.638234 1_565
O6 Ti2 1.871672 1_565
O7 P2 1.549977 1_555
O7 Ti2 1.944908 1_455
O8 P3 1.567057 1_455
O8 Ti2 1.983858 1_465
O9 P1 1.543071 1_555
O9 Ti3 1.956805 1_665
O10 Si0 1.641755 1_555
O10 Ti3 1.859488 1_555
O11 P0 1.565264 1_565
O11 Ti3 1.978048 1_565
O12 P4 1.547206 1_555
O12 Ti4 1.972950 1_555
O13 Si2 1.637980 1_555
O13 Ti4 1.899256 1_555
O14 Si3 1.628319 1_555
O14 Ti4 1.840820 1_555
O15 Si4 1.646357 1_555
O15 Ti5 1.893566 1_555
O16 P5 1.548763 1_555
O16 Ti5 1.972288 1_555
O17 Si5 1.625800 1_555
O17 Ti5 1.848336 1_555
O18 Si5 1.643245 1_555
O18 Ti6 1.832997 1_554
O19 Si4 1.624717 1_555
O19 Ti6 1.928837 1_554
O20 P5 1.544218 1_555
O20 Ti6 1.985685 1_554
O21 Si2 1.630597 1_555
O21 Ti7 1.898627 1_555
O22 Si3 1.640592 1_555
O22 Ti7 1.843342 1_555
O23 P4 1.556357 1_555
O23 Ti7 2.028482 1_555
O24 P6 1.538674 1_555
O24 Ti8 1.953354 1_556
O25 P7 1.566384 1_555
O25 Ti8 1.956199 1_556
O26 Si6 1.653910 1_555
O26 Ti8 1.892843 1_556
O27 Si7 1.643835 1_555
O27 Ti9 1.848070 1_555
O28 P8 1.536889 1_555
O28 Ti9 2.000058 1_555
O29 Si8 1.643830 1_555
O29 Ti9 1.918292 1_555
O30 Si8 1.654136 1_555
O30 Ti10 1.891610 1_555
O31 Si7 1.626294 1_555
O31 Ti10 1.870529 1_555
O32 P8 1.540643 1_555
O32 Ti10 1.933272 1_555
O33 P7 1.540288 1_555
O33 Ti11 1.998902 1_555
O34 Si6 1.654749 1_555
O34 Ti11 1.855878 1_555
O35 P6 1.545721 1_555
O35 Ti11 1.907392 1_555
O36 Si8 1.620159 1_555
O36 Ti0 1.989630 1_455
O37 Si7 1.627763 1_555
O37 Ti0 1.925855 1_555
O38 P8 1.555548 1_555
O38 Ti0 2.129823 1_445
O39 P7 1.538656 1_555
O39 Ti1 1.989290 1_555
O40 Si6 1.635185 1_555
O40 Ti1 2.009905 1_565
O41 P6 1.550033 1_555
O41 Ti1 2.084059 1_665
O42 P4 1.541325 1_555
O42 Ti2 2.043949 1_555
O43 Si2 1.616376 1_555
O43 Ti2 1.988167 1_455
O44 Si3 1.649762 1_555
O44 Ti2 1.986699 1_565
O45 Si4 1.618658 1_555
O45 Ti3 1.986282 1_665
O46 P5 1.538857 1_555
O46 Ti3 2.047343 1_655
O47 Si5 1.648027 1_555
O47 Ti3 1.977650 1_555
O48 Si1 1.628711 1_555
O48 Ti4 2.006704 1_555
O49 P2 1.555482 1_555
O49 Ti4 2.066864 1_555
O50 P3 1.529073 1_555
O50 Ti4 2.052510 1_555
O51 P1 1.553734 1_555
O51 Ti5 2.072886 1_555
O52 Si0 1.637212 1_655
O52 Ti5 1.996005 1_555
O53 P0 1.527780 1_555
O53 Ti5 2.061264 1_555
O54 P6 1.550865 1_555
O54 Ti6 2.062924 1_555
O55 P7 1.542730 1_655
O55 Ti6 2.150203 1_555
O56 Si6 1.623373 1_545
O56 Ti6 1.923250 1_555
O57 Si7 1.630595 1_545
O57 Ti7 2.057584 1_555
O58 P8 1.541850 1_555
O58 Ti7 2.026784 1_555
O59 Si8 1.625009 1_655
O59 Ti7 1.974091 1_555
O60 Si5 1.615899 1_555
O60 Ti8 1.976753 1_555
O61 Si4 1.660618 1_455
O61 Ti8 1.974793 1_555
O62 P5 1.538808 1_565
O62 Ti8 2.061912 1_555
O63 Si2 1.652232 1_565
O63 Ti9 1.968408 1_555
O64 Si3 1.615909 1_555
O64 Ti9 1.969763 1_555
O65 P4 1.531252 1_455
O65 Ti9 2.119668 1_555
O66 P0 1.556071 1_565
O66 Ti10 2.081385 1_555
O67 P1 1.525466 1_555
O67 Ti10 2.074058 1_555
O68 Si0 1.638270 1_555
O68 Ti10 1.989892 1_555
O69 P2 1.524994 1_555
O69 Ti11 2.068139 1_555
O70 P3 1.553261 1_455
O70 Ti11 2.091782 1_555
O71 Si1 1.650851 1_565
O71 Ti11 1.929864 1_555
