# generated using pymatgen
data_Mg(FeO2)4
_symmetry_space_group_name_H-M   'P 1'
_cell_length_a   6.03627674
_cell_length_b   6.03803911
_cell_length_c   5.90485925
_cell_angle_alpha   60.75635507
_cell_angle_beta   60.74677443
_cell_angle_gamma   64.76184492
_symmetry_Int_Tables_number   1
_chemical_formula_structural   Mg(FeO2)4
_chemical_formula_sum   'Mg1 Fe4 O8'
_cell_volume   158.78243744
_cell_formula_units_Z   1
loop_
 _symmetry_equiv_pos_site_id
 _symmetry_equiv_pos_as_xyz
  1  'x, y, z'
loop_
 _atom_site_type_symbol
 _atom_site_label
 _atom_site_symmetry_multiplicity
 _atom_site_fract_x
 _atom_site_fract_y
 _atom_site_fract_z
 _atom_site_occupancy
  Mg  Mg0  1  0.41927380  0.41987666  0.58109634  1
  Fe  Fe0  1  0.08974352  0.08945908  0.91060767  1
  Fe  Fe1  1  0.11155429  0.11167505  0.38863955  1
  Fe  Fe2  1  0.70763692  0.70764854  0.04288367  1
  Fe  Fe3  1  0.70802981  0.70803546  0.54121135  1
  O  O0  1  0.24998720  0.24976188  0.52298964  1
  O  O1  1  0.43055622  0.80110807  0.38413367  1
  O  O2  1  0.24996229  0.24973465  0.97802988  1
  O  O3  1  0.80092970  0.43061265  0.38419387  1
  O  O4  1  0.46040158  0.82317457  0.85803538  1
  O  O5  1  0.82381732  0.46067474  0.85757973  1
  O  O6  1  0.93844740  0.93851388  0.30266016  1
  O  O7  1  0.93823095  0.93829577  0.82085608  1
loop_
_geom_bond_atom_site_label_1
_geom_bond_atom_site_label_2
_geom_bond_distance
_geom_bond_site_symmetry_2
Mg0 O2 1.948090 1_555
Mg0 O0 1.949119 1_555
Mg0 O1 2.023988 1_555
Mg0 O3 2.024668 1_555
Fe0 O2 1.892417 1_555
Fe0 O0 1.892434 1_555
Fe0 O6 1.898948 1_446
Fe0 O7 1.899623 1_445
Fe0 O4 2.104421 1_545
Fe0 O5 2.106179 1_455
Fe1 O2 1.977606 1_554
Fe1 O0 1.977646 1_555
Fe1 O3 2.035792 1_455
Fe1 O1 2.035795 1_545
Fe1 O6 2.100377 1_445
Fe1 O7 2.101906 1_445
Fe2 O7 1.918698 1_554
Fe2 O5 1.966045 1_554
Fe2 O4 1.966099 1_554
Fe2 O1 2.046577 1_555
Fe2 O3 2.046724 1_555
Fe3 O6 1.917252 1_555
Fe3 O5 1.966942 1_555
Fe3 O4 1.966996 1_555
Fe3 O1 2.046408 1_555
Fe3 O3 2.046531 1_555
