# generated using pymatgen
data_Na2La4SiS5O24
_symmetry_space_group_name_H-M   'P 1'
_cell_length_a   9.55846957
_cell_length_b   9.54858319
_cell_length_c   25.49468189
_cell_angle_alpha   89.91570068
_cell_angle_beta   90.01073407
_cell_angle_gamma   119.86929822
_symmetry_Int_Tables_number   1
_chemical_formula_structural   Na2La4SiS5O24
_chemical_formula_sum   'Na6 La12 Si3 S15 O72'
_cell_volume   2017.79688933
_cell_formula_units_Z   3
loop_
 _symmetry_equiv_pos_site_id
 _symmetry_equiv_pos_as_xyz
  1  'x, y, z'
loop_
 _atom_site_type_symbol
 _atom_site_label
 _atom_site_symmetry_multiplicity
 _atom_site_fract_x
 _atom_site_fract_y
 _atom_site_fract_z
 _atom_site_occupancy
  Na  Na0  1  0.98593024  0.98290363  0.50851835  1
  Na  Na1  1  0.00009457  0.00006067  0.99772862  1
  Na  Na2  1  0.66890081  0.31667812  0.81943041  1
  Na  Na3  1  0.65287845  0.32109874  0.33580329  1
  Na  Na4  1  0.33060769  0.68070534  0.17482702  1
  Na  Na5  1  0.36072418  0.67562272  0.66400923  1
  La  La0  1  0.01354315  0.00172032  0.35009209  1
  La  La1  1  0.98839425  0.00282067  0.84414818  1
  La  La2  1  0.97439232  0.98493535  0.64896749  1
  La  La3  1  0.01091655  0.99752919  0.15364350  1
  La  La4  1  0.66489449  0.33264674  0.68195786  1
  La  La5  1  0.65411423  0.32136948  0.18829023  1
  La  La6  1  0.66754461  0.33263497  0.98158481  1
  La  La7  1  0.66732486  0.34493353  0.48723865  1
  La  La8  1  0.33245956  0.66730008  0.01636567  1
  La  La9  1  0.34754565  0.66702399  0.52119591  1
  La  La10  1  0.33302198  0.67904586  0.31583295  1
  La  La11  1  0.34692602  0.67862387  0.81023076  1
  Si  Si0  1  0.29889449  0.99729363  0.24991636  1
  Si  Si1  1  0.70010687  0.00816321  0.75030085  1
  Si  Si2  1  0.66765503  0.63155436  0.58415614  1
  S  S0  1  0.70222105  0.70277370  0.24998500  1
  S  S1  1  0.00144304  0.29829432  0.24979910  1
  S  S2  1  0.29719139  0.29630007  0.75011743  1
  S  S3  1  0.99938313  0.70085061  0.75099103  1
  S  S4  1  0.96634347  0.33456953  0.58249379  1
  S  S5  1  0.36603205  0.03451574  0.58297164  1
  S  S6  1  0.96178474  0.62863948  0.08299580  1
  S  S7  1  0.66799418  0.03531648  0.08266147  1
  S  S8  1  0.36930060  0.33384939  0.08247059  1
  S  S9  1  0.63127806  0.66693344  0.91796567  1
  S  S10  1  0.03820005  0.36993209  0.91748123  1
  S  S11  1  0.33126996  0.96413873  0.91760275  1
  S  S12  1  0.63395074  0.96792966  0.41603458  1
  S  S13  1  0.33360683  0.37091305  0.41549914  1
  S  S14  1  0.03495872  0.66404676  0.41708240  1
  O  O0  1  0.20771312  0.01699154  0.30131206  1
  O  O1  1  0.79853565  0.78286237  0.29690047  1
  O  O2  1  0.98021010  0.19940274  0.29682919  1
  O  O3  1  0.21785079  0.19998203  0.79878224  1
  O  O4  1  0.98489686  0.78285240  0.79911309  1
  O  O5  1  0.80454952  0.01988157  0.80420974  1
  O  O6  1  0.78902156  0.98447368  0.69936227  1
  O  O7  1  0.20286968  0.21703796  0.70338132  1
  O  O8  1  0.02092101  0.79881882  0.70395421  1
  O  O9  1  0.77944938  0.80032604  0.20176332  1
  O  O10  1  0.01688153  0.21793047  0.20165079  1
  O  O11  1  0.19304402  0.98065732  0.19648262  1
  O  O12  1  0.88769267  0.35055430  0.63007000  1
  O  O13  1  0.46441860  0.11049175  0.63010803  1
  O  O14  1  0.64899413  0.52284237  0.63606226  1
  O  O15  1  0.88511163  0.53406974  0.13033567  1
  O  O16  1  0.64797245  0.11297915  0.13004058  1
  O  O17  1  0.46510508  0.35288789  0.12989392  1
  O  O18  1  0.45150791  0.31714159  0.03501691  1
  O  O19  1  0.86484828  0.54656974  0.03523195  1
  O  O20  1  0.68326686  0.13403567  0.03511633  1
  O  O21  1  0.44890901  0.13086100  0.53497561  1
  O  O22  1  0.68180178  0.54055000  0.53074170  1
  O  O23  1  0.86704119  0.31489570  0.53499058  1
  O  O24  1  0.54813045  0.68307498  0.96572886  1
  O  O25  1  0.13551577  0.45368796  0.96559701  1
  O  O26  1  0.31674920  0.86539310  0.96564783  1
  O  O27  1  0.55348814  0.86961379  0.46326836  1
  O  O28  1  0.31791573  0.45045347  0.46304039  1
  O  O29  1  0.13212290  0.68122257  0.46385651  1
  O  O30  1  0.11640268  0.65002720  0.36864688  1
  O  O31  1  0.53479025  0.88522538  0.36829069  1
  O  O32  1  0.34871015  0.46759295  0.36784992  1
  O  O33  1  0.11436869  0.46550298  0.87044767  1
  O  O34  1  0.35175492  0.88749116  0.87078916  1
  O  O35  1  0.53542373  0.64714362  0.87090641  1
  O  O36  1  0.01705021  0.81038904  0.41232321  1
  O  O37  1  0.79499250  0.98185449  0.41078506  1
  O  O38  1  0.18616992  0.20847185  0.41182650  1
  O  O39  1  0.02179686  0.20740542  0.91579906  1
  O  O40  1  0.18641663  0.98149364  0.91505853  1
  O  O41  1  0.79411638  0.81199054  0.91534804  1
  O  O42  1  0.98705180  0.19075502  0.58575185  1
  O  O43  1  0.20624111  0.02205577  0.58677422  1
  O  O44  1  0.82979151  0.81191024  0.58477847  1
  O  O45  1  0.97825189  0.79231384  0.08531200  1
  O  O46  1  0.81284096  0.01834693  0.08618498  1
  O  O47  1  0.20648447  0.18885791  0.08570383  1
  O  O48  1  0.68114684  0.16862305  0.74842554  1
  O  O49  1  0.46148617  0.31586056  0.74827374  1
  O  O50  1  0.85213163  0.53989535  0.74794081  1
  O  O51  1  0.68900241  0.54137356  0.24481711  1
  O  O52  1  0.85716836  0.31820209  0.24471697  1
  O  O53  1  0.47949143  0.16114437  0.24537305  1
  O  O54  1  0.64702546  0.51962893  0.92434945  1
  O  O55  1  0.87392048  0.35292299  0.92387322  1
  O  O56  1  0.47928238  0.12705874  0.92395658  1
  O  O57  1  0.64847984  0.12910271  0.41936791  1
  O  O58  1  0.47898694  0.35186305  0.41860887  1
  O  O59  1  0.87312930  0.51737549  0.41938033  1
  O  O60  1  0.35340577  0.48141663  0.07695460  1
  O  O61  1  0.12640932  0.64668749  0.07744126  1
  O  O62  1  0.51994641  0.87239713  0.07730447  1
  O  O63  1  0.34776590  0.87059487  0.57791221  1
  O  O64  1  0.50363424  0.64973944  0.57967354  1
  O  O65  1  0.12664984  0.48276917  0.57730861  1
  O  O66  1  0.31784404  0.83501747  0.25285546  1
  O  O67  1  0.53785862  0.68251348  0.25388769  1
  O  O68  1  0.14890440  0.45944676  0.25384361  1
  O  O69  1  0.31136517  0.45872069  0.75561819  1
  O  O70  1  0.14358170  0.68140896  0.75639924  1
  O  O71  1  0.52036569  0.84119984  0.75528728  1
loop_
_geom_bond_atom_site_label_1
_geom_bond_atom_site_label_2
_geom_bond_distance
_geom_bond_site_symmetry_2
Na0 O44 2.497573 1_555
Na0 O43 2.787693 1_665
Na0 O42 2.794016 1_565
Na1 O39 2.811530 1_555
Na1 O40 2.821774 1_545
Na1 O41 2.828468 1_445
Na1 O45 2.922176 1_446
Na1 O46 2.938335 1_456
Na1 O47 2.939425 1_556
Na2 O48 2.337033 1_555
Na2 O50 2.683985 1_555
Na2 O49 2.684200 1_555
Na3 O58 2.791991 1_555
Na3 O57 2.795231 1_555
Na3 O53 2.807560 1_555
Na3 O59 2.926579 1_555
Na3 O51 3.030932 1_555
Na3 O52 3.043382 1_555
Na4 O66 2.516168 1_555
Na4 O68 2.805740 1_555
Na4 O67 2.819921 1_555
Na5 O64 2.624682 1_555
Na5 O71 2.801789 1_555
Na5 O63 2.918381 1_555
Na5 O69 2.996620 1_555
Na5 O65 3.031363 1_555
La0 O0 2.177904 1_555
La0 O38 2.420903 1_555
La0 O36 2.430736 1_545
La0 O2 2.469772 1_455
La0 O1 2.481793 1_445
La0 O37 2.529798 1_445
La1 O5 2.106016 1_555
La1 O3 2.360956 1_655
La1 O4 2.380786 1_545
La1 O39 2.577598 1_655
La1 O41 2.585514 1_545
La1 O40 2.697029 1_645
La2 O6 2.187070 1_555
La2 O44 2.247359 1_555
La2 O8 2.470016 1_655
La2 O42 2.495663 1_565
La2 O43 2.601578 1_665
La2 O7 2.606272 1_665
La3 O11 2.127792 1_555
La3 O9 2.406321 1_455
La3 O10 2.412115 1_565
La3 O45 2.524384 1_455
La3 O47 2.534263 1_565
La3 O46 2.637150 1_465
La4 O14 2.226890 1_555
La4 O48 2.362860 1_555
La4 O13 2.424391 1_555
La4 O12 2.439699 1_555
La4 O49 2.520792 1_555
La4 O50 2.535748 1_555
La5 O53 2.166885 1_555
La5 O52 2.427914 1_555
La5 O51 2.431478 1_555
La5 O16 2.461825 1_555
La5 O17 2.471896 1_555
La5 O15 2.590161 1_555
La6 O54 2.386812 1_555
La6 O55 2.390247 1_555
La6 O56 2.395645 1_555
La6 O20 2.399470 1_556
La6 O19 2.402134 1_556
La6 O18 2.416172 1_556
La7 O22 2.118192 1_555
La7 O23 2.398345 1_555
La7 O21 2.400225 1_555
La7 O59 2.518051 1_555
La7 O58 2.534508 1_555
La7 O57 2.629520 1_555
La8 O26 2.355407 1_554
La8 O25 2.358332 1_554
La8 O24 2.372792 1_554
La8 O60 2.433577 1_555
La8 O61 2.440588 1_555
La8 O62 2.443923 1_555
La9 O64 2.172465 1_555
La9 O63 2.423514 1_555
La9 O65 2.427691 1_555
La9 O28 2.445479 1_555
La9 O27 2.449064 1_555
La9 O29 2.582959 1_555
La10 O66 2.241673 1_555
La10 O30 2.367580 1_555
La10 O31 2.368310 1_555
La10 O32 2.480214 1_555
La10 O67 2.503020 1_555
La10 O68 2.514904 1_555
La11 O71 2.133415 1_555
La11 O70 2.390069 1_555
La11 O69 2.400136 1_555
La11 O35 2.503321 1_555
La11 O34 2.506139 1_555
La11 O33 2.631679 1_555
O0 Si0 1.635955 1_545
O1 S0 1.471066 1_555
O2 S1 1.475249 1_655
O3 S2 1.504187 1_555
O4 S3 1.499440 1_555
O5 Si1 1.669362 1_555
O6 Si1 1.628732 1_565
O7 S2 1.458755 1_555
O8 S3 1.469860 1_455
O9 S0 1.495353 1_555
O10 S1 1.494346 1_555
O11 Si0 1.656726 1_555
O12 S4 1.474746 1_555
O13 S5 1.475615 1_555
O14 Si2 1.634680 1_555
O15 S6 1.465306 1_555
O16 S7 1.479760 1_555
O17 S8 1.472357 1_555
O18 S8 1.494102 1_555
O19 S6 1.494869 1_555
O20 S7 1.496263 1_555
O21 S5 1.497443 1_555
O22 Si2 1.657838 1_555
O23 S4 1.491836 1_555
O24 S9 1.503710 1_555
O25 S10 1.507023 1_555
O26 S11 1.508300 1_555
O27 S12 1.483510 1_555
O28 S13 1.478051 1_555
O29 S14 1.469672 1_555
O30 S14 1.501149 1_555
O31 S12 1.503487 1_555
O32 S13 1.487556 1_555
O33 S10 1.461517 1_555
O34 S11 1.464177 1_555
O35 S9 1.463694 1_555
O36 S14 1.494787 1_555
O37 S12 1.483657 1_555
O38 S13 1.491239 1_555
O39 S10 1.480759 1_555
O40 S11 1.475531 1_555
O41 S9 1.482563 1_555
O42 S4 1.483990 1_555
O43 S5 1.474922 1_555
O44 Si2 1.646063 1_555
O45 S6 1.491990 1_555
O46 S7 1.474641 1_555
O47 S8 1.482952 1_555
O48 Si1 1.630648 1_555
O49 S2 1.486984 1_555
O50 S3 1.481496 1_555
O51 S0 1.488315 1_555
O52 S1 1.488508 1_655
O53 Si0 1.658475 1_545
O54 S9 1.495902 1_555
O55 S10 1.504876 1_655
O56 S11 1.502113 1_545
O57 S12 1.477311 1_545
O58 S13 1.490665 1_555
O59 S14 1.483092 1_655
O60 S8 1.496979 1_555
O61 S6 1.501915 1_455
O62 S7 1.499692 1_565
O63 S5 1.491776 1_565
O64 Si2 1.664993 1_555
O65 S4 1.485811 1_455
O66 Si0 1.648818 1_555
O67 S0 1.487551 1_555
O68 S1 1.485007 1_555
O69 S2 1.494865 1_555
O70 S3 1.485916 1_455
O71 Si1 1.667581 1_565
