# generated using pymatgen
data_MgV28O70
_symmetry_space_group_name_H-M   'P 1'
_cell_length_a   15.41839033
_cell_length_b   4.85762000
_cell_length_c   21.00296571
_cell_angle_alpha   90.00000000
_cell_angle_beta   108.90924028
_cell_angle_gamma   90.00000000
_symmetry_Int_Tables_number   1
_chemical_formula_structural   MgV28O70
_chemical_formula_sum   'Mg1 V28 O70'
_cell_volume   1488.15967574
_cell_formula_units_Z   1
loop_
 _symmetry_equiv_pos_site_id
 _symmetry_equiv_pos_as_xyz
  1  'x, y, z'
loop_
 _atom_site_type_symbol
 _atom_site_label
 _atom_site_symmetry_multiplicity
 _atom_site_fract_x
 _atom_site_fract_y
 _atom_site_fract_z
 _atom_site_occupancy
  Mg  Mg0  1  0.00000000  0.61405600  0.25000000  1
  V  V0  1  0.06595400  0.89836700  0.65322800  1
  V  V1  1  0.14308400  0.88063100  0.81828800  1
  V  V2  1  0.09422300  0.12255100  0.52005100  1
  V  V3  1  0.30042400  0.88995500  0.97290700  1
  V  V4  1  0.06480100  0.10039200  0.15371000  1
  V  V5  1  0.14050400  0.09033900  0.31693000  1
  V  V6  1  0.27790900  0.90136900  0.60961900  1
  V  V7  1  0.40416200  0.79983600  0.76862200  1
  V  V8  1  0.09406300  0.89846500  0.02071600  1
  V  V9  1  0.30096900  0.11845800  0.47449800  1
  V  V10  1  0.51160900  0.89425200  0.93227800  1
  V  V11  1  0.27897900  0.10801700  0.10889200  1
  V  V12  1  0.48839100  0.89425200  0.56772200  1
  V  V13  1  0.59583800  0.79983600  0.73137800  1
  V  V14  1  0.40407800  0.20114800  0.26843700  1
  V  V15  1  0.51110500  0.10756100  0.43241900  1
  V  V16  1  0.72209100  0.90136900  0.89038100  1
  V  V17  1  0.48889500  0.10756100  0.06758100  1
  V  V18  1  0.69957600  0.88995500  0.52709300  1
  V  V19  1  0.90577700  0.12255100  0.97994900  1
  V  V20  1  0.59592200  0.20114800  0.23156300  1
  V  V21  1  0.72102100  0.10801700  0.39110800  1
  V  V22  1  0.85691600  0.88063100  0.68171200  1
  V  V23  1  0.93404600  0.89836700  0.84677200  1
  V  V24  1  0.69903100  0.11845800  0.02550200  1
  V  V25  1  0.90593700  0.89846500  0.47928300  1
  V  V26  1  0.85949600  0.09033900  0.18307000  1
  V  V27  1  0.93519900  0.10039200  0.34629000  1
  O  O0  1  0.00400400  0.02124900  0.94328300  1
  O  O1  1  0.03966200  0.99259200  0.83042300  1
  O  O2  1  0.06429400  0.56760300  0.64996000  1
  O  O3  1  0.14182200  0.54867300  0.82017400  1
  O  O4  1  0.00604700  0.00025200  0.44236500  1
  O  O5  1  0.14386900  0.98411300  0.73604700  1
  O  O6  1  0.24046100  0.99685100  0.88860800  1
  O  O7  1  0.29708100  0.55924200  0.97164600  1
  O  O8  1  0.09627600  0.45241500  0.51489700  1
  O  O9  1  0.16031000  0.00958300  0.61237600  1
  O  O10  1  0.03725400  0.93894100  0.32101600  1
  O  O11  1  0.20620000  0.00962000  0.51162500  1
  O  O12  1  0.41971000  0.98745000  0.97157900  1
  O  O13  1  0.33852200  0.55960000  0.77957400  1
  O  O14  1  0.05382700  0.43162200  0.16640100  1
  O  O15  1  0.11793700  0.42617000  0.30931000  1
  O  O16  1  0.27942700  0.57061300  0.61168000  1
  O  O17  1  0.34240500  0.00049600  0.69524600  1
  O  O18  1  0.14845500  0.97784800  0.24085400  1
  O  O19  1  0.23877800  0.01413300  0.39031000  1
  O  O20  1  0.44867300  0.99277700  0.84637200  1
  O  O21  1  0.29860700  0.44941200  0.47379500  1
  O  O22  1  0.51244100  0.56324100  0.93079100  1
  O  O23  1  0.09442400  0.56776200  0.01758900  1
  O  O24  1  0.16118500  0.01278200  0.11195000  1
  O  O25  1  0.36967700  0.99988800  0.57015300  1
  O  O26  1  0.50000000  0.64463600  0.75000000  1
  O  O27  1  0.20567500  0.00094500  0.01024700  1
  O  O28  1  0.41909900  0.01585800  0.47205700  1
  O  O29  1  0.33793500  0.44047900  0.27920600  1
  O  O30  1  0.63032300  0.99988800  0.92984700  1
  O  O31  1  0.28297900  0.43873700  0.11117600  1
  O  O32  1  0.48755900  0.56324100  0.56920900  1
  O  O33  1  0.55132700  0.99277700  0.65362800  1
  O  O34  1  0.34308500  0.00425400  0.19433200  1
  O  O35  1  0.65759500  0.00049600  0.80475400  1
  O  O36  1  0.44853400  0.00820900  0.34645500  1
  O  O37  1  0.51135700  0.43854900  0.43055300  1
  O  O38  1  0.72057300  0.57061300  0.88832000  1
  O  O39  1  0.36971100  0.00434100  0.06912600  1
  O  O40  1  0.66147800  0.55960000  0.72042600  1
  O  O41  1  0.58029000  0.98745000  0.52842100  1
  O  O42  1  0.79380000  0.00962000  0.98837500  1
  O  O43  1  0.50000000  0.35714600  0.25000000  1
  O  O44  1  0.63028900  0.00434100  0.43087400  1
  O  O45  1  0.83969000  0.00958300  0.88762400  1
  O  O46  1  0.90372400  0.45241500  0.98510300  1
  O  O47  1  0.48864300  0.43854900  0.06944700  1
  O  O48  1  0.70291900  0.55924200  0.52835400  1
  O  O49  1  0.55146600  0.00820900  0.15354500  1
  O  O50  1  0.75953900  0.99685100  0.61139200  1
  O  O51  1  0.85613100  0.98411300  0.76395300  1
  O  O52  1  0.65691500  0.00425400  0.30566800  1
  O  O53  1  0.71702100  0.43873700  0.38882400  1
  O  O54  1  0.85817800  0.54867300  0.67982600  1
  O  O55  1  0.93570600  0.56760300  0.85004000  1
  O  O56  1  0.66206500  0.44047900  0.22079400  1
  O  O57  1  0.58090100  0.01585800  0.02794300  1
  O  O58  1  0.79432500  0.00094500  0.48975300  1
  O  O59  1  0.96033800  0.99259200  0.66957700  1
  O  O60  1  0.83881500  0.01278200  0.38805000  1
  O  O61  1  0.90557600  0.56776200  0.48241100  1
  O  O62  1  0.70139300  0.44941200  0.02620500  1
  O  O63  1  0.76122200  0.01413300  0.10969000  1
  O  O64  1  0.85154500  0.97784800  0.25914600  1
  O  O65  1  0.99599600  0.02124900  0.55671700  1
  O  O66  1  0.88206300  0.42617000  0.19069000  1
  O  O67  1  0.94617300  0.43162200  0.33359900  1
  O  O68  1  0.96274600  0.93894100  0.17898400  1
  O  O69  1  0.99395300  0.00025200  0.05763500  1
loop_
_geom_bond_atom_site_label_1
_geom_bond_atom_site_label_2
_geom_bond_distance
_geom_bond_site_symmetry_2
Mg0 O15 2.055031 1_555
Mg0 O66 2.055031 1_455
Mg0 O10 2.118955 1_555
Mg0 O68 2.118955 1_455
Mg0 O14 2.345532 1_555
Mg0 O67 2.345532 1_455
O0 V8 1.861481 1_546
O0 V19 1.971001 1_455
O0 V23 2.052185 1_445
O1 V1 1.779583 1_555
O1 V23 1.828005 1_455
O2 V0 1.608041 1_555
O3 V1 1.613284 1_555
O4 V2 1.850879 1_555
O4 V25 2.000979 1_445
O4 V27 2.018164 1_455
O5 V1 1.802765 1_555
O5 V0 1.813273 1_555
O6 V3 1.788356 1_555
O6 V1 1.821265 1_555
O7 V3 1.607248 1_555
O8 V2 1.607009 1_555
O9 V6 1.906665 1_545
O9 V2 1.954194 1_555
O9 V0 1.988363 1_545
O10 V5 1.780752 1_565
O10 V27 1.978435 1_465
O11 V2 1.873795 1_555
O11 V9 1.939361 1_555
O11 V6 2.063998 1_545
O12 V3 1.908132 1_555
O12 V10 1.911038 1_555
O12 V17 2.037113 1_566
O13 V7 1.609317 1_555
O14 V4 1.648562 1_555
O15 V5 1.664889 1_555
O16 V6 1.607236 1_555
O17 V7 1.811269 1_545
O17 V6 1.815470 1_545
O18 V5 1.730207 1_565
O18 V4 1.959035 1_565
O19 V9 1.789939 1_555
O19 V5 1.815119 1_555
O20 V7 1.813741 1_555
O20 V10 1.814202 1_555
O21 V9 1.608021 1_555
O22 V10 1.608361 1_555
O23 V8 1.607855 1_555
O24 V11 1.895337 1_555
O24 V8 1.940582 1_545
O24 V4 2.000911 1_555
O25 V12 1.917493 1_555
O25 V6 1.917876 1_555
O25 V9 2.027509 1_565
O26 V13 1.810920 1_555
O26 V7 1.810920 1_555
O27 V8 1.871584 1_545
O27 V3 1.944855 1_544
O27 V11 2.079118 1_555
O28 V9 1.904980 1_555
O28 V15 1.915554 1_555
O28 V12 2.033748 1_545
O29 V14 1.610056 1_555
O30 V10 1.917493 1_555
O30 V16 1.917876 1_555
O30 V24 2.027509 1_566
O31 V11 1.607815 1_555
O32 V12 1.608361 1_555
O33 V13 1.813741 1_555
O33 V12 1.814202 1_555
O34 V14 1.809125 1_555
O34 V11 1.817035 1_555
O35 V13 1.811269 1_545
O35 V16 1.815470 1_545
O36 V15 1.815080 1_555
O36 V14 1.818045 1_555
O37 V15 1.608327 1_555
O38 V16 1.607236 1_555
O39 V11 1.914555 1_555
O39 V17 1.915196 1_555
O39 V3 2.033395 1_544
O40 V13 1.609317 1_555
O41 V18 1.908132 1_555
O41 V12 1.911038 1_555
O41 V15 2.037113 1_565
O42 V19 1.873795 1_555
O42 V24 1.939361 1_556
O42 V16 2.063998 1_545
O43 V20 1.811822 1_555
O43 V14 1.811822 1_555
O44 V21 1.914555 1_555
O44 V15 1.915196 1_555
O44 V18 2.033395 1_545
O45 V16 1.906665 1_545
O45 V19 1.954194 1_555
O45 V23 1.988363 1_545
O46 V19 1.607009 1_555
O47 V17 1.608327 1_555
O48 V18 1.607248 1_555
O49 V17 1.815080 1_555
O49 V20 1.818045 1_555
O50 V18 1.788356 1_555
O50 V22 1.821265 1_555
O51 V22 1.802765 1_555
O51 V23 1.813273 1_555
O52 V20 1.809125 1_555
O52 V21 1.817035 1_555
O53 V21 1.607815 1_555
O54 V22 1.613284 1_555
O55 V23 1.608041 1_555
O56 V20 1.610056 1_555
O57 V24 1.904980 1_555
O57 V17 1.915554 1_555
O57 V10 2.033748 1_544
O58 V25 1.871593 1_545
O58 V18 1.944855 1_545
O58 V21 2.079118 1_555
O59 V22 1.779583 1_555
O59 V0 1.828005 1_655
O60 V21 1.895337 1_555
O60 V25 1.940565 1_545
O60 V27 2.000911 1_555
O61 V25 1.607856 1_555
O62 V24 1.608021 1_555
O63 V24 1.789939 1_555
O63 V26 1.815119 1_555
O64 V26 1.730207 1_565
O64 V27 1.959035 1_565
O65 V25 1.861494 1_545
O65 V2 1.971001 1_655
O65 V0 2.052185 1_645
O66 V26 1.664889 1_555
O67 V27 1.648562 1_555
O68 V26 1.780752 1_565
O68 V4 1.978435 1_665
O69 V19 1.850879 1_554
O69 V8 2.000993 1_645
O69 V4 2.018164 1_655
