# generated using pymatgen
data_HfCuSi2
_symmetry_space_group_name_H-M   'P 1'
_cell_length_a   3.66137595
_cell_length_b   3.66137595
_cell_length_c   8.96352592
_cell_angle_alpha   90.00000000
_cell_angle_beta   90.00000000
_cell_angle_gamma   90.00000000
_symmetry_Int_Tables_number   1
_chemical_formula_structural   HfCuSi2
_chemical_formula_sum   'Hf2 Cu2 Si4'
_cell_volume   120.16210500
_cell_formula_units_Z   2
loop_
 _symmetry_equiv_pos_site_id
 _symmetry_equiv_pos_as_xyz
  1  'x, y, z'
loop_
 _atom_site_type_symbol
 _atom_site_label
 _atom_site_symmetry_multiplicity
 _atom_site_fract_x
 _atom_site_fract_y
 _atom_site_fract_z
 _atom_site_occupancy
  Hf  Hf0  1  0.75000000  0.75000000  0.26585498  1
  Hf  Hf1  1  0.25000000  0.25000000  0.73414502  1
  Cu  Cu0  1  0.75000000  0.25000000  -0.00000000  1
  Cu  Cu1  1  0.25000000  0.75000000  -0.00000000  1
  Si  Si0  1  0.25000000  0.75000000  0.50000000  1
  Si  Si1  1  0.75000000  0.25000000  0.50000000  1
  Si  Si2  1  0.25000000  0.25000000  0.17017979  1
  Si  Si3  1  0.75000000  0.75000000  0.82982021  1
loop_
_geom_bond_atom_site_label_1
_geom_bond_atom_site_label_2
_geom_bond_distance
_geom_bond_site_symmetry_2
Hf0 Si2 2.727323 1_565
Hf0 Si2 2.727323 1_555
Hf0 Si2 2.727323 1_655
Hf0 Si2 2.727323 1_665
Hf0 Si1 2.785001 1_555
Hf0 Si1 2.785001 1_565
Hf0 Si0 2.785001 1_655
Hf0 Si0 2.785001 1_555
Hf1 Si3 2.727323 1_545
Hf1 Si3 2.727323 1_555
Hf1 Si3 2.727323 1_455
Hf1 Si3 2.727323 1_445
Hf1 Si1 2.785001 1_455
Hf1 Si0 2.785001 1_545
Hf1 Si0 2.785001 1_555
Hf1 Si1 2.785001 1_555
Cu0 Si2 2.382918 1_555
Cu0 Si2 2.382918 1_655
Cu0 Si3 2.382918 1_554
Cu0 Si3 2.382918 1_544
Cu0 Cu1 2.588984 1_655
Cu0 Cu1 2.588984 1_555
Cu0 Cu1 2.588984 1_545
Cu0 Cu1 2.588984 1_645
Cu0 Hf0 3.005012 1_545
Cu0 Hf1 3.005012 1_654
Cu0 Hf0 3.005012 1_555
Cu0 Hf1 3.005012 1_554
Cu1 Si2 2.382918 1_555
Cu1 Si2 2.382918 1_565
Cu1 Si3 2.382918 1_554
Cu1 Si3 2.382918 1_454
Cu1 Hf1 3.005012 1_564
Cu1 Hf0 3.005012 1_455
Cu1 Hf0 3.005012 1_555
Cu1 Hf1 3.005012 1_554
Si0 Si1 2.588984 1_465
Si0 Si1 2.588984 1_555
Si0 Si1 2.588984 1_455
Si0 Si1 2.588984 1_565
