# generated using pymatgen
data_NaLa2Hf2P3(SO8)3
_symmetry_space_group_name_H-M   'P 1'
_cell_length_a   9.16796762
_cell_length_b   9.17675425
_cell_length_c   23.96741224
_cell_angle_alpha   90.12992524
_cell_angle_beta   89.95818860
_cell_angle_gamma   119.97659341
_symmetry_Int_Tables_number   1
_chemical_formula_structural   NaLa2Hf2P3(SO8)3
_chemical_formula_sum   'Na3 La6 Hf6 P9 S9 O72'
_cell_volume   1746.68733322
_cell_formula_units_Z   3
loop_
 _symmetry_equiv_pos_site_id
 _symmetry_equiv_pos_as_xyz
  1  'x, y, z'
loop_
 _atom_site_type_symbol
 _atom_site_label
 _atom_site_symmetry_multiplicity
 _atom_site_fract_x
 _atom_site_fract_y
 _atom_site_fract_z
 _atom_site_occupancy
  Na  Na0  1  0.69204620  0.33736142  0.83598181  1
  Na  Na1  1  0.65933914  0.34818162  0.32909678  1
  Na  Na2  1  0.35681646  0.68437015  0.16606404  1
  La  La0  1  0.67600213  0.33545315  0.68720336  1
  La  La1  1  0.65002143  0.32699154  0.18447671  1
  La  La2  1  0.66622359  0.32288105  0.98925791  1
  La  La3  1  0.66423314  0.33892625  0.48384557  1
  La  La4  1  0.33550733  0.66732168  0.30740998  1
  La  La5  1  0.32740069  0.66792823  0.80245784  1
  Hf  Hf0  1  0.00680380  0.99294220  0.35619202  1
  Hf  Hf1  1  0.99304021  0.00118493  0.85830129  1
  Hf  Hf2  1  0.99361811  0.99325628  0.64889513  1
  Hf  Hf3  1  0.99884006  0.99816308  0.14612319  1
  Hf  Hf4  1  0.33194419  0.65785059  0.01603769  1
  Hf  Hf5  1  0.32595561  0.66015924  0.51161754  1
  P  P0  1  0.27732592  0.00300791  0.24997198  1
  P  P1  1  0.72969436  0.72289408  0.25067825  1
  P  P2  1  0.98688774  0.72412926  0.75221829  1
  P  P3  1  0.73251078  0.01021935  0.75183855  1
  P  P4  1  0.65982417  0.01288680  0.08440527  1
  P  P5  1  0.35236292  0.33595245  0.08333843  1
  P  P6  1  0.04639766  0.37305487  0.91438406  1
  P  P7  1  0.31973057  0.36698945  0.41497249  1
  P  P8  1  0.04542363  0.67442987  0.41558208  1
  S  S0  1  0.99352049  0.26917715  0.25029956  1
  S  S1  1  0.27515704  0.26367655  0.75086712  1
  S  S2  1  0.98574111  0.33524794  0.58292037  1
  S  S3  1  0.35188829  0.01459773  0.58376944  1
  S  S4  1  0.66043037  0.64814732  0.58371723  1
  S  S5  1  0.98652753  0.64755732  0.08373764  1
  S  S6  1  0.62891126  0.67488669  0.91579168  1
  S  S7  1  0.32073988  0.95346809  0.91582261  1
  S  S8  1  0.63381880  0.95320620  0.41778330  1
  O  O0  1  0.18205241  0.00320237  0.30446546  1
  O  O1  1  0.82224201  0.82135229  0.30494673  1
  O  O2  1  0.99511950  0.18006449  0.30189795  1
  O  O3  1  0.18823840  0.16970904  0.80212981  1
  O  O4  1  0.98280282  0.81921601  0.80513543  1
  O  O5  1  0.83552332  0.02242798  0.80513750  1
  O  O6  1  0.83003888  0.01395625  0.69791015  1
  O  O7  1  0.18386133  0.17390857  0.69905660  1
  O  O8  1  0.98752380  0.81897863  0.69792702  1
  O  O9  1  0.82936904  0.81933020  0.19828246  1
  O  O10  1  0.99151438  0.17723486  0.19910941  1
  O  O11  1  0.18351993  0.01102902  0.19778861  1
  O  O12  1  0.91508498  0.37892157  0.63164050  1
  O  O13  1  0.46590636  0.08883303  0.63229488  1
  O  O14  1  0.62045514  0.53504931  0.63209855  1
  O  O15  1  0.91625931  0.53486856  0.13205901  1
  O  O16  1  0.61307515  0.08763597  0.13422747  1
  O  O17  1  0.47299531  0.38734286  0.13360605  1
  O  O18  1  0.42717659  0.29608462  0.03241951  1
  O  O19  1  0.87816875  0.57941611  0.03390301  1
  O  O20  1  0.70567771  0.12797784  0.03323008  1
  O  O21  1  0.41936605  0.12837224  0.53525824  1
  O  O22  1  0.70992918  0.58257475  0.53534659  1
  O  O23  1  0.87058104  0.28819849  0.53486536  1
  O  O24  1  0.54161870  0.69415403  0.96608921  1
  O  O25  1  0.15876642  0.46861389  0.96634914  1
  O  O26  1  0.30491032  0.85042750  0.96610554  1
  O  O27  1  0.53946384  0.84365698  0.46736787  1
  O  O28  1  0.30530242  0.46634092  0.46728104  1
  O  O29  1  0.15970703  0.69250435  0.46778220  1
  O  O30  1  0.12165700  0.64394523  0.36377943  1
  O  O31  1  0.53177443  0.88585141  0.36716970  1
  O  O32  1  0.35856306  0.47733329  0.36358128  1
  O  O33  1  0.12660297  0.47858340  0.86242817  1
  O  O34  1  0.35110072  0.88085836  0.86560138  1
  O  O35  1  0.52870646  0.64931834  0.86557437  1
  O  O36  1  0.03651056  0.83831237  0.40981042  1
  O  O37  1  0.79707020  0.95896277  0.41259783  1
  O  O38  1  0.15418243  0.19782557  0.40761777  1
  O  O39  1  0.03870173  0.19942480  0.90734295  1
  O  O40  1  0.16210295  0.96071086  0.90931656  1
  O  O41  1  0.79581458  0.83449040  0.91068540  1
  O  O42  1  0.01377626  0.19322877  0.59687960  1
  O  O43  1  0.18210418  0.99046525  0.59753252  1
  O  O44  1  0.80638027  0.81886847  0.59680068  1
  O  O45  1  0.01205970  0.81699225  0.09560562  1
  O  O46  1  0.80819203  0.98544902  0.09911810  1
  O  O47  1  0.17794309  0.18718619  0.09800885  1
  O  O48  1  0.71419179  0.16923212  0.75123690  1
  O  O49  1  0.44407094  0.27907916  0.75012450  1
  O  O50  1  0.82561833  0.54872264  0.75169727  1
  O  O51  1  0.71683541  0.54852012  0.25233728  1
  O  O52  1  0.84116166  0.28619894  0.25146146  1
  O  O53  1  0.45384932  0.16239714  0.25322142  1
  O  O54  1  0.65919135  0.53234597  0.92313909  1
  O  O55  1  0.86645127  0.34339577  0.92161285  1
  O  O56  1  0.46413022  0.12822970  0.92154403  1
  O  O57  1  0.66106356  0.12436884  0.42706405  1
  O  O58  1  0.46794967  0.33539083  0.42527944  1
  O  O59  1  0.86698162  0.52465762  0.42498145  1
  O  O60  1  0.32809293  0.49068613  0.06951411  1
  O  O61  1  0.15798120  0.67027840  0.07127686  1
  O  O62  1  0.50431998  0.83685415  0.06920827  1
  O  O63  1  0.33286187  0.84777918  0.56975876  1
  O  O64  1  0.51432476  0.66890684  0.56934279  1
  O  O65  1  0.15285435  0.48468648  0.56915828  1
  O  O66  1  0.28769119  0.84116642  0.24592652  1
  O  O67  1  0.55524526  0.70928810  0.24661121  1
  O  O68  1  0.14854000  0.43642995  0.24685474  1
  O  O69  1  0.28664799  0.42837882  0.74966165  1
  O  O70  1  0.14689491  0.71341791  0.75031875  1
  O  O71  1  0.56554013  0.84723183  0.75178011  1
loop_
_geom_bond_atom_site_label_1
_geom_bond_atom_site_label_2
_geom_bond_distance
_geom_bond_site_symmetry_2
Na0 O55 2.586045 1_555
Na0 O48 2.616362 1_555
Na0 O50 2.642546 1_555
Na0 O54 2.859506 1_555
Na0 O56 2.873842 1_555
Na0 O49 2.911315 1_555
Na1 O51 2.467366 1_555
Na1 O53 2.558170 1_555
Na1 O52 2.739099 1_555
Na1 O58 2.862913 1_555
Na1 O59 2.904596 1_555
Na2 O67 2.583801 1_555
Na2 O66 2.651931 1_555
Na2 O62 2.700890 1_555
Na2 O60 2.845666 1_555
Na2 O68 2.871498 1_555
Na2 O61 2.875757 1_555
La0 O48 2.312960 1_555
La0 O50 2.325491 1_555
La0 O12 2.421033 1_555
La0 O49 2.441884 1_555
La0 O13 2.489571 1_555
La0 O14 2.510503 1_555
La1 O17 2.308996 1_555
La1 O53 2.350124 1_555
La1 O16 2.373803 1_555
La1 O51 2.428034 1_555
La1 O52 2.539833 1_555
La1 O15 2.555117 1_555
La2 O20 2.257467 1_556
La2 O18 2.322264 1_556
La2 O55 2.384409 1_555
La2 O19 2.425521 1_556
La2 O56 2.437513 1_555
La2 O54 2.519545 1_555
La3 O58 2.270414 1_555
La3 O59 2.278533 1_555
La3 O57 2.379153 1_555
La3 O22 2.398035 1_555
La3 O21 2.442066 1_555
La3 O23 2.485325 1_555
La4 O32 2.296995 1_555
La4 O30 2.300502 1_555
La4 O67 2.356502 1_555
La4 O66 2.370488 1_555
La4 O31 2.386550 1_555
La4 O68 2.427839 1_555
La5 O70 2.273802 1_555
La5 O33 2.298922 1_555
La5 O71 2.316175 1_555
La5 O34 2.391338 1_555
La5 O69 2.395954 1_555
La5 O35 2.458427 1_555
Hf0 O0 1.993415 1_565
Hf0 O36 2.033267 1_555
Hf0 O1 2.045196 1_455
Hf0 O38 2.081617 1_565
Hf0 O2 2.201743 1_465
Hf0 O37 2.240784 1_455
Hf1 O5 2.008026 1_555
Hf1 O39 2.023931 1_655
Hf1 O4 2.062750 1_545
Hf1 O41 2.104082 1_545
Hf1 O40 2.148359 1_645
Hf1 O3 2.155697 1_655
Hf2 O8 1.964954 1_555
Hf2 O6 1.986533 1_565
Hf2 O44 2.077388 1_555
Hf2 O7 2.083350 1_665
Hf2 O43 2.131471 1_655
Hf2 O42 2.151065 1_665
Hf3 O9 2.031874 1_555
Hf3 O46 2.033792 1_555
Hf3 O47 2.048165 1_665
Hf3 O11 2.053448 1_665
Hf3 O10 2.101997 1_565
Hf3 O45 2.106367 1_655
Hf4 O60 1.987950 1_555
Hf4 O25 2.047658 1_554
Hf4 O62 2.054054 1_555
Hf4 O61 2.118369 1_555
Hf4 O24 2.144251 1_554
Hf4 O26 2.250432 1_554
Hf5 O29 1.992690 1_555
Hf5 O28 1.995926 1_555
Hf5 O65 2.113440 1_555
Hf5 O27 2.122060 1_555
Hf5 O64 2.183445 1_555
Hf5 O63 2.188731 1_555
O0 P0 1.571190 1_555
O1 P1 1.567874 1_555
O2 S0 1.488262 1_555
O3 S1 1.484870 1_555
O4 P2 1.548848 1_555
O5 P3 1.559391 1_555
O6 P3 1.561776 1_555
O7 S1 1.492990 1_555
O8 P2 1.565528 1_555
O9 P1 1.546118 1_555
O10 S0 1.482338 1_555
O11 P0 1.540952 1_555
O12 S2 1.483224 1_555
O13 S3 1.481884 1_555
O14 S4 1.476769 1_555
O15 S5 1.471161 1_555
O16 P4 1.539301 1_555
O17 P5 1.541174 1_555
O18 P5 1.530089 1_555
O19 S5 1.477196 1_555
O20 P4 1.535590 1_555
O21 S3 1.477723 1_555
O22 S4 1.476821 1_555
O23 S2 1.473645 1_555
O24 S6 1.504658 1_555
O25 P6 1.573417 1_555
O26 S7 1.495110 1_555
O27 S8 1.518607 1_555
O28 P7 1.592354 1_555
O29 P8 1.586774 1_555
O30 P8 1.516831 1_555
O31 S8 1.466030 1_555
O32 P7 1.521182 1_555
O33 P6 1.523713 1_555
O34 S7 1.466800 1_555
O35 S6 1.460326 1_555
O36 P8 1.552843 1_555
O37 S8 1.476160 1_555
O38 P7 1.545701 1_555
O39 P6 1.568028 1_555
O40 S7 1.496972 1_555
O41 S6 1.504175 1_555
O42 S2 1.487738 1_455
O43 S3 1.495290 1_565
O44 S4 1.498918 1_555
O45 S5 1.479084 1_455
O46 P4 1.543155 1_565
O47 P5 1.537621 1_555
O48 P3 1.550077 1_555
O49 S1 1.483134 1_555
O50 P2 1.548833 1_555
O51 P1 1.545266 1_555
O52 S0 1.481298 1_555
O53 P0 1.548800 1_555
O54 S6 1.477527 1_555
O55 P6 1.541702 1_655
O56 S7 1.487093 1_545
O57 S8 1.478331 1_545
O58 P7 1.544733 1_555
O59 P8 1.539511 1_655
O60 P5 1.579090 1_555
O61 S5 1.508497 1_455
O62 P4 1.572072 1_565
O63 S3 1.489164 1_565
O64 S4 1.484989 1_555
O65 S2 1.496154 1_455
O66 P0 1.537712 1_565
O67 P1 1.543895 1_555
O68 S0 1.484253 1_455
O69 S1 1.461998 1_555
O70 P2 1.519086 1_455
O71 P3 1.514078 1_565
