# generated using pymatgen
data_Sr2MgNiRuO6
_symmetry_space_group_name_H-M   'P 1'
_cell_length_a   6.22437789
_cell_length_b   6.22437789
_cell_length_c   5.69002746
_cell_angle_alpha   62.80141270
_cell_angle_beta   62.80141270
_cell_angle_gamma   53.50035910
_symmetry_Int_Tables_number   1
_chemical_formula_structural   Sr2MgNiRuO6
_chemical_formula_sum   'Sr2 Mg1 Ni1 Ru1 O6'
_cell_volume   152.23557872
_cell_formula_units_Z   1
loop_
 _symmetry_equiv_pos_site_id
 _symmetry_equiv_pos_as_xyz
  1  'x, y, z'
loop_
 _atom_site_type_symbol
 _atom_site_label
 _atom_site_symmetry_multiplicity
 _atom_site_fract_x
 _atom_site_fract_y
 _atom_site_fract_z
 _atom_site_occupancy
  Sr  Sr0  1  0.17709900  0.17709900  0.32290100  1
  Sr  Sr1  1  0.82290100  0.82290100  0.67709900  1
  Mg  Mg0  1  0.50000000  0.50000000  0.00000000  1
  Ni  Ni0  1  0.00000000  0.00000000  0.00000000  1
  Ru  Ru0  1  0.50000000  0.50000000  0.50000000  1
  O  O0  1  0.75387100  0.24612900  0.24340300  1
  O  O1  1  0.75387100  0.24612900  0.75659700  1
  O  O2  1  0.71002700  0.71002700  0.28997300  1
  O  O3  1  0.24612900  0.75387100  0.75659700  1
  O  O4  1  0.24612900  0.75387100  0.24340300  1
  O  O5  1  0.28997300  0.28997300  0.71002700  1
loop_
_geom_bond_atom_site_label_1
_geom_bond_atom_site_label_2
_geom_bond_distance
_geom_bond_site_symmetry_2
Mg0 O4 1.985351 1_555
Mg0 O0 1.985351 1_555
Mg0 O1 1.985351 1_554
Mg0 O3 1.985351 1_554
Mg0 Sr0 3.083650 1_555
Mg0 Sr1 3.083650 1_554
Ni0 O4 1.954504 1_545
Ni0 O0 1.954504 1_455
Ni0 O3 1.954504 1_544
Ni0 O1 1.954504 1_454
O0 Ru0 2.038432 1_555
O0 Sr1 2.625653 1_545
O0 Sr0 2.625653 1_655
O1 Ru0 2.038432 1_555
O1 Sr1 2.625653 1_545
O1 Sr0 2.625653 1_655
O2 Ru0 2.005722 1_555
O2 Sr0 2.819193 1_565
O2 Sr0 2.819193 1_655
O2 Sr1 3.042373 1_554
O2 Sr1 3.042373 1_555
O3 Ru0 2.038432 1_555
O3 Sr1 2.625653 1_455
O3 Sr0 2.625653 1_565
O4 Ru0 2.038432 1_555
O4 Sr1 2.625653 1_455
O4 Sr0 2.625653 1_565
O5 Ru0 2.005722 1_555
O5 Sr1 2.819193 1_455
O5 Sr1 2.819193 1_545
O5 Sr0 3.042373 1_556
O5 Sr0 3.042373 1_555
