# generated using pymatgen
data_Ce(BC)2
_symmetry_space_group_name_H-M   'P 1'
_cell_length_a   3.80378545
_cell_length_b   5.37531589
_cell_length_c   5.37531691
_cell_angle_alpha   90.00030197
_cell_angle_beta   90.00000000
_cell_angle_gamma   90.00000000
_symmetry_Int_Tables_number   1
_chemical_formula_structural   Ce(BC)2
_chemical_formula_sum   'Ce2 B4 C4'
_cell_volume   109.90667721
_cell_formula_units_Z   2
loop_
 _symmetry_equiv_pos_site_id
 _symmetry_equiv_pos_as_xyz
  1  'x, y, z'
loop_
 _atom_site_type_symbol
 _atom_site_label
 _atom_site_symmetry_multiplicity
 _atom_site_fract_x
 _atom_site_fract_y
 _atom_site_fract_z
 _atom_site_occupancy
  Ce  Ce0  1  -0.00000000  0.50000000  0.50000000  1
  Ce  Ce1  1  -0.00000000  -0.00000000  -0.00000000  1
  B  B0  1  0.50000000  0.63699675  0.13699856  1
  B  B1  1  0.50000000  0.86300144  0.63699675  1
  B  B2  1  0.50000000  0.36300325  0.86300144  1
  B  B3  1  0.50000000  0.13699856  0.36300325  1
  C  C0  1  0.50000000  0.66161122  0.83838809  1
  C  C1  1  0.50000000  0.83838909  0.33838878  1
  C  C2  1  0.50000000  0.16161091  0.66161122  1
  C  C3  1  0.50000000  0.33838878  0.16161191  1
loop_
_geom_bond_atom_site_label_1
_geom_bond_atom_site_label_2
_geom_bond_distance
_geom_bond_site_symmetry_2
B0 C1 1.530941 1_555
B0 C3 1.610556 1_555
B0 C0 1.610571 1_554
B0 Ce0 2.822564 1_555
B0 Ce0 2.822564 1_655
B0 Ce1 2.822573 1_665
B0 Ce1 2.822573 1_565
B1 C0 1.530946 1_555
B1 C1 1.610555 1_555
B1 C2 1.610564 1_565
B1 Ce0 2.822558 1_555
B1 Ce0 2.822558 1_655
B1 Ce1 2.822567 1_666
B1 Ce1 2.822567 1_566
B2 C2 1.530941 1_555
B2 C0 1.610556 1_555
B2 C3 1.610571 1_556
B2 Ce0 2.822564 1_555
B2 Ce0 2.822564 1_655
B2 Ce1 2.822573 1_556
B2 Ce1 2.822573 1_656
B3 C3 1.530946 1_555
B3 C2 1.610555 1_555
B3 C1 1.610564 1_545
B3 Ce0 2.822558 1_555
B3 Ce0 2.822558 1_655
B3 Ce1 2.822567 1_555
B3 Ce1 2.822567 1_655
C0 Ce0 2.771352 1_555
C0 Ce0 2.771352 1_655
C0 Ce1 2.771356 1_666
C0 Ce1 2.771356 1_566
C1 Ce1 2.771360 1_565
C1 Ce1 2.771360 1_665
C1 Ce0 2.771362 1_555
C1 Ce0 2.771362 1_655
C2 Ce1 2.771360 1_556
C2 Ce1 2.771360 1_656
C2 Ce0 2.771362 1_555
C2 Ce0 2.771362 1_655
C3 Ce0 2.771352 1_555
C3 Ce0 2.771352 1_655
C3 Ce1 2.771356 1_655
C3 Ce1 2.771356 1_555
