# generated using pymatgen
data_NaYZrP2SO12
_symmetry_space_group_name_H-M   'P 1'
_cell_length_a   9.02967728
_cell_length_b   9.04617058
_cell_length_c   23.87603626
_cell_angle_alpha   89.62668517
_cell_angle_beta   90.00000000
_cell_angle_gamma   119.93970615
_symmetry_Int_Tables_number   1
_chemical_formula_structural   NaYZrP2SO12
_chemical_formula_sum   'Na6 Y6 Zr6 P12 S6 O72'
_cell_volume   1689.97829351
_cell_formula_units_Z   6
loop_
 _symmetry_equiv_pos_site_id
 _symmetry_equiv_pos_as_xyz
  1  'x, y, z'
loop_
 _atom_site_type_symbol
 _atom_site_label
 _atom_site_symmetry_multiplicity
 _atom_site_fract_x
 _atom_site_fract_y
 _atom_site_fract_z
 _atom_site_occupancy
  Na  Na0  1  0.98814860  0.99326287  0.50106139  1
  Na  Na1  1  0.00511428  0.99326287  0.00106139  1
  Na  Na2  1  0.65481560  0.32659587  0.83439439  1
  Na  Na3  1  0.67178128  0.32659587  0.33439439  1
  Na  Na4  1  0.32148160  0.65992987  0.16772839  1
  Na  Na5  1  0.33844728  0.65992987  0.66772839  1
  Y  Y0  1  0.99369881  0.00497871  0.64765180  1
  Y  Y1  1  0.01127990  0.00497871  0.14765180  1
  Y  Y2  1  0.66036581  0.33831171  0.98098480  1
  Y  Y3  1  0.67794690  0.33831171  0.48098480  1
  Y  Y4  1  0.32703181  0.67164571  0.31431880  1
  Y  Y5  1  0.34461290  0.67164571  0.81431880  1
  Zr  Zr0  1  0.00136316  0.00343042  0.35210082  1
  Zr  Zr1  1  0.00206726  0.00343042  0.85210082  1
  Zr  Zr2  1  0.66803016  0.33676342  0.68543382  1
  Zr  Zr3  1  0.66873426  0.33676342  0.18543382  1
  Zr  Zr4  1  0.33469616  0.67009742  0.01876782  1
  Zr  Zr5  1  0.33540026  0.67009742  0.51876782  1
  P  P0  1  0.29618986  0.00626703  0.25002288  1
  P  P1  1  0.99639933  0.29021817  0.24934543  1
  P  P2  1  0.29381884  0.29021817  0.74934543  1
  P  P3  1  0.71007717  0.00626703  0.75002288  1
  P  P4  1  0.96285686  0.33960003  0.58335588  1
  P  P5  1  0.66306633  0.62355117  0.58267843  1
  P  P6  1  0.96048584  0.62355117  0.08267843  1
  P  P7  1  0.37674417  0.33960003  0.08335588  1
  P  P8  1  0.62952286  0.67293403  0.91668988  1
  P  P9  1  0.32973233  0.95688517  0.91601243  1
  P  P10  1  0.62715184  0.95688517  0.41601243  1
  P  P11  1  0.04341017  0.67293403  0.41668988  1
  S  S0  1  0.70988894  0.70639852  0.25004157  1
  S  S1  1  0.99650958  0.70639852  0.75004157  1
  S  S2  1  0.37655594  0.03973152  0.58337457  1
  S  S3  1  0.66317658  0.03973152  0.08337457  1
  S  S4  1  0.04322194  0.37306552  0.91670857  1
  S  S5  1  0.32984258  0.37306552  0.41670857  1
  O  O0  1  0.20326862  0.02660313  0.30260011  1
  O  O1  1  0.81630691  0.78846196  0.30057784  1
  O  O2  1  0.97235523  0.17579720  0.30255891  1
  O  O3  1  0.20344196  0.17579720  0.80255891  1
  O  O4  1  0.97215506  0.78846196  0.80057784  1
  O  O5  1  0.82333452  0.02660313  0.80260011  1
  O  O6  1  0.78960605  0.97809661  0.69828863  1
  O  O7  1  0.18958722  0.20609239  0.69756962  1
  O  O8  1  0.02113077  0.80714731  0.69944108  1
  O  O9  1  0.78601655  0.80714731  0.19944108  1
  O  O10  1  0.01650517  0.20609239  0.19756962  1
  O  O11  1  0.18849056  0.97809661  0.19828863  1
  O  O12  1  0.86993562  0.35993613  0.63593311  1
  O  O13  1  0.48297391  0.12179496  0.63391084  1
  O  O14  1  0.63902223  0.50913020  0.63589191  1
  O  O15  1  0.87010896  0.50913020  0.13589191  1
  O  O16  1  0.63882206  0.12179496  0.13391084  1
  O  O17  1  0.49000152  0.35993613  0.13593311  1
  O  O18  1  0.45627305  0.31142961  0.03162163  1
  O  O19  1  0.85625422  0.53942539  0.03090262  1
  O  O20  1  0.68779777  0.14048031  0.03277408  1
  O  O21  1  0.45268355  0.14048031  0.53277408  1
  O  O22  1  0.68317217  0.53942539  0.53090262  1
  O  O23  1  0.85515756  0.31142961  0.53162163  1
  O  O24  1  0.53660162  0.69327013  0.96926711  1
  O  O25  1  0.14963991  0.45512896  0.96724484  1
  O  O26  1  0.30568823  0.84246420  0.96922591  1
  O  O27  1  0.53677496  0.84246420  0.46922591  1
  O  O28  1  0.30548806  0.45512896  0.46724484  1
  O  O29  1  0.15666752  0.69327013  0.46926711  1
  O  O30  1  0.12293905  0.64476361  0.36495563  1
  O  O31  1  0.52292022  0.87275939  0.36423662  1
  O  O32  1  0.35446377  0.47381431  0.36610808  1
  O  O33  1  0.11934955  0.47381431  0.86610808  1
  O  O34  1  0.34983817  0.87275939  0.86423662  1
  O  O35  1  0.52182356  0.64476361  0.86495563  1
  O  O36  1  0.02962707  0.83774801  0.40929031  1
  O  O37  1  0.80788536  0.97287577  0.40941691  1
  O  O38  1  0.17183538  0.20130830  0.41116772  1
  O  O39  1  0.02947292  0.20130830  0.91116772  1
  O  O40  1  0.16499042  0.97287577  0.90941691  1
  O  O41  1  0.80812094  0.83774801  0.90929031  1
  O  O42  1  0.98893042  0.18587388  0.58900338  1
  O  O43  1  0.20449887  0.01531449  0.59023059  1
  O  O44  1  0.81979350  0.80012521  0.58963101  1
  O  O45  1  0.98033171  0.80012521  0.08963101  1
  O  O46  1  0.81081562  0.01531449  0.09023059  1
  O  O47  1  0.19694347  0.18587388  0.08900338  1
  O  O48  1  0.69629407  0.17108101  0.74262331  1
  O  O49  1  0.47455236  0.30620877  0.74274991  1
  O  O50  1  0.83850238  0.53464130  0.74450072  1
  O  O51  1  0.69613992  0.53464130  0.24450072  1
  O  O52  1  0.83165742  0.30620877  0.24274991  1
  O  O53  1  0.47478794  0.17108101  0.24262331  1
  O  O54  1  0.65559742  0.51920688  0.92233638  1
  O  O55  1  0.87116587  0.34864749  0.92356359  1
  O  O56  1  0.48646050  0.13345821  0.92296401  1
  O  O57  1  0.64699871  0.13345821  0.42296401  1
  O  O58  1  0.47748262  0.34864749  0.42356359  1
  O  O59  1  0.86361047  0.51920688  0.42233638  1
  O  O60  1  0.36296007  0.50441501  0.07595731  1
  O  O61  1  0.14121836  0.63954277  0.07608391  1
  O  O62  1  0.50516838  0.86797530  0.07783472  1
  O  O63  1  0.36280592  0.86797530  0.57783472  1
  O  O64  1  0.49832342  0.63954277  0.57608391  1
  O  O65  1  0.14145394  0.50441501  0.57595731  1
  O  O66  1  0.32226342  0.85254088  0.25567038  1
  O  O67  1  0.53783187  0.68198149  0.25689759  1
  O  O68  1  0.15312650  0.46679221  0.25629801  1
  O  O69  1  0.31366471  0.46679221  0.75629801  1
  O  O70  1  0.14414862  0.68198149  0.75689759  1
  O  O71  1  0.53027647  0.85254088  0.75567038  1
loop_
_geom_bond_atom_site_label_1
_geom_bond_atom_site_label_2
_geom_bond_distance
_geom_bond_site_symmetry_2
Na0 O44 2.671356 1_555
Na0 O37 2.678975 1_555
Na0 O42 2.734985 1_565
Na0 O36 2.736159 1_655
Na0 O38 2.780494 1_665
Na0 O43 2.829391 1_665
Na1 O45 2.671356 1_455
Na1 O40 2.678975 1_554
Na1 O47 2.734985 1_565
Na1 O41 2.736159 1_454
Na1 O39 2.780494 1_564
Na1 O46 2.829391 1_465
Na2 O56 2.671356 1_555
Na2 O49 2.678975 1_555
Na2 O54 2.734985 1_555
Na2 O48 2.736159 1_555
Na2 O50 2.780494 1_555
Na2 O55 2.829391 1_555
Na3 O57 2.671356 1_555
Na3 O52 2.678975 1_555
Na3 O59 2.734985 1_555
Na3 O53 2.736159 1_555
Na3 O51 2.780494 1_555
Na3 O58 2.829391 1_555
Na4 O68 2.671356 1_555
Na4 O61 2.678975 1_555
Na4 O66 2.734985 1_555
Na4 O60 2.736159 1_555
Na4 O62 2.780494 1_555
Na4 O67 2.829391 1_555
Na5 O69 2.671356 1_555
Na5 O64 2.678975 1_555
Na5 O71 2.734985 1_555
Na5 O65 2.736159 1_555
Na5 O63 2.780494 1_555
Na5 O70 2.829391 1_555
O0 P0 1.571877 1_555
O0 Zr0 2.092826 1_555
O1 S0 1.493314 1_555
O1 Zr0 2.207889 1_665
O2 P1 1.578384 1_555
O2 Zr0 2.069470 1_655
O3 P2 1.578384 1_555
O3 Zr1 2.069470 1_555
O4 S1 1.493314 1_555
O4 Zr1 2.207889 1_665
O5 P3 1.571877 1_555
O5 Zr1 2.092826 1_655
O6 P3 1.514314 1_565
O6 Y0 2.113271 1_565
O7 P2 1.513429 1_555
O7 Y0 2.162213 1_455
O8 S1 1.457072 1_455
O8 Y0 2.281824 1_465
O9 S0 1.457072 1_555
O9 Y1 2.281823 1_665
O10 P1 1.513429 1_455
O10 Y1 2.162213 1_555
O11 P0 1.514314 1_565
O11 Y1 2.113271 1_565
O12 P4 1.571877 1_555
O12 Zr2 2.092826 1_555
O13 S2 1.493314 1_555
O13 Zr2 2.207889 1_555
O14 P5 1.578384 1_555
O14 Zr2 2.069470 1_555
O15 P6 1.578384 1_555
O15 Zr3 2.069470 1_555
O16 S3 1.493314 1_555
O16 Zr3 2.207889 1_555
O17 P7 1.571877 1_555
O17 Zr3 2.092826 1_555
O18 P7 1.514314 1_555
O18 Y2 2.113271 1_554
O19 P6 1.513429 1_555
O19 Y2 2.162213 1_554
O20 S3 1.457072 1_555
O20 Y2 2.281824 1_554
O21 S2 1.457072 1_555
O21 Y3 2.281823 1_555
O22 P5 1.513429 1_555
O22 Y3 2.162213 1_555
O23 P4 1.514314 1_555
O23 Y3 2.113271 1_555
O24 P8 1.571877 1_555
O24 Zr4 2.092826 1_556
O25 S4 1.493314 1_555
O25 Zr4 2.207889 1_556
O26 P9 1.578384 1_555
O26 Zr4 2.069470 1_556
O27 P10 1.578384 1_555
O27 Zr5 2.069470 1_555
O28 S5 1.493314 1_555
O28 Zr5 2.207889 1_555
O29 P11 1.571877 1_555
O29 Zr5 2.092826 1_555
O30 P11 1.514314 1_555
O30 Y4 2.113271 1_555
O31 P10 1.513429 1_555
O31 Y4 2.162213 1_555
O32 S5 1.457072 1_555
O32 Y4 2.281824 1_555
O33 S4 1.457072 1_555
O33 Y5 2.281823 1_555
O34 P9 1.513429 1_555
O34 Y5 2.162213 1_555
O35 P8 1.514314 1_555
O35 Y5 2.113271 1_555
O36 P11 1.565688 1_555
O36 Zr0 2.128646 1_565
O37 P10 1.572609 1_555
O37 Zr0 2.124702 1_665
O38 S5 1.502385 1_555
O38 Zr0 2.201160 1_555
O39 S4 1.502389 1_555
O39 Zr1 2.201160 1_555
O40 P9 1.572600 1_555
O40 Zr1 2.124702 1_565
O41 P8 1.565693 1_555
O41 Zr1 2.128646 1_665
O42 P4 1.527035 1_555
O42 Y0 2.163556 1_555
O43 S2 1.465029 1_555
O43 Y0 2.309153 1_455
O44 P5 1.526047 1_555
O44 Y0 2.224371 1_565
O45 P6 1.526051 1_555
O45 Y1 2.224371 1_665
O46 S3 1.465020 1_555
O46 Y1 2.309153 1_655
O47 P7 1.527041 1_555
O47 Y1 2.163556 1_555
O48 P3 1.565688 1_555
O48 Zr2 2.128646 1_555
O49 P2 1.572609 1_555
O49 Zr2 2.124702 1_555
O50 S1 1.502385 1_555
O50 Zr2 2.201160 1_555
O51 S0 1.502389 1_555
O51 Zr3 2.201160 1_555
O52 P1 1.572600 1_555
O52 Zr3 2.124702 1_555
O53 P0 1.565693 1_555
O53 Zr3 2.128646 1_555
O54 P8 1.527048 1_555
O54 Y2 2.163556 1_555
O55 S4 1.465014 1_655
O55 Y2 2.309153 1_555
O56 P9 1.526043 1_545
O56 Y2 2.224371 1_555
O57 P10 1.526036 1_545
O57 Y3 2.224371 1_555
O58 S5 1.465031 1_555
O58 Y3 2.309153 1_555
O59 P11 1.527037 1_655
O59 Y3 2.163556 1_555
O60 P7 1.565699 1_555
O60 Zr4 2.128646 1_555
O61 P6 1.572593 1_455
O61 Zr4 2.124702 1_555
O62 S3 1.502382 1_565
O62 Zr4 2.201160 1_555
O63 S2 1.502374 1_565
O63 Zr5 2.201160 1_555
O64 P5 1.572611 1_555
O64 Zr5 2.124702 1_555
O65 P4 1.565689 1_455
O65 Zr5 2.128646 1_555
O66 P0 1.527035 1_565
O66 Y4 2.163556 1_555
O67 S0 1.465029 1_555
O67 Y4 2.309153 1_555
O68 P1 1.526047 1_455
O68 Y4 2.224371 1_555
O69 P2 1.526051 1_555
O69 Y5 2.224371 1_555
O70 S1 1.465020 1_455
O70 Y5 2.309153 1_555
O71 P3 1.527041 1_565
O71 Y5 2.163556 1_555
