# generated using pymatgen
data_MgTi6(N2O3)2
_symmetry_space_group_name_H-M   'P 1'
_cell_length_a   3.93548201
_cell_length_b   5.28327105
_cell_length_c   9.92583737
_cell_angle_alpha   92.76483810
_cell_angle_beta   90.00873700
_cell_angle_gamma   111.86663155
_symmetry_Int_Tables_number   1
_chemical_formula_structural   MgTi6(N2O3)2
_chemical_formula_sum   'Mg1 Ti6 N4 O6'
_cell_volume   191.27230519
_cell_formula_units_Z   1
loop_
 _symmetry_equiv_pos_site_id
 _symmetry_equiv_pos_as_xyz
  1  'x, y, z'
loop_
 _atom_site_type_symbol
 _atom_site_label
 _atom_site_symmetry_multiplicity
 _atom_site_fract_x
 _atom_site_fract_y
 _atom_site_fract_z
 _atom_site_occupancy
  Mg  Mg0  1  0.48854800  0.97677300  0.71918000  1
  Ti  Ti0  1  0.16467700  0.32987400  0.55928700  1
  Ti  Ti1  1  0.14447000  0.28980200  0.95714400  1
  Ti  Ti2  1  0.21071100  0.42230300  0.25089200  1
  Ti  Ti3  1  0.78555900  0.57147700  0.76408800  1
  Ti  Ti4  1  0.85299300  0.70698200  0.05476400  1
  Ti  Ti5  1  0.87426300  0.74912700  0.43333700  1
  N  N0  1  0.31480400  0.63025200  0.43442500  1
  N  N1  1  0.31351100  0.62812400  0.08250600  1
  N  N2  1  0.27071100  0.54196800  0.73847500  1
  N  N3  1  0.66432400  0.32973800  0.90977600  1
  O  O0  1  0.04827300  0.09763200  0.11975400  1
  O  O1  1  0.04778500  0.09673000  0.37925500  1
  O  O2  1  0.96196800  0.92334300  0.62397800  1
  O  O3  1  0.94686400  0.89603800  0.87970200  1
  O  O4  1  0.65952900  0.31936500  0.58564800  1
  O  O5  1  0.75101100  0.50296900  0.25154000  1
loop_
_geom_bond_atom_site_label_1
_geom_bond_atom_site_label_2
_geom_bond_distance
_geom_bond_site_symmetry_2
Mg0 N2 2.150406 1_555
Mg0 O2 2.192068 1_455
Mg0 O4 2.193197 1_565
Mg0 O2 2.193280 1_555
Mg0 N3 2.496675 1_565
Mg0 O3 2.571320 1_555
Mg0 O3 2.579608 1_455
N0 Ti0 1.973607 1_555
N0 Ti2 2.040819 1_555
N0 Ti5 2.052356 1_455
N0 Ti5 2.052522 1_555
N1 Ti2 1.996862 1_555
N1 Ti1 2.021209 1_554
N1 Ti4 2.026678 1_455
N1 Ti4 2.027165 1_555
N2 Ti3 1.988077 1_455
N2 Ti3 1.988728 1_555
N2 Ti0 2.013043 1_555
N2 Ti1 2.553225 1_555
N3 Ti3 1.916878 1_555
N3 Ti1 2.034577 1_555
N3 Ti1 2.035306 1_655
N3 Ti4 2.283722 1_556
O0 Ti1 1.910817 1_554
O0 Ti4 1.989060 1_445
O0 Ti2 2.003206 1_555
O1 Ti5 1.813340 1_445
O1 Ti0 2.070611 1_555
O1 Ti2 2.093639 1_555
O2 Ti5 2.035225 1_555
O2 Ti0 2.125725 1_665
O2 Ti3 2.271627 1_555
O3 Ti3 1.912938 1_555
O3 Ti4 2.011542 1_556
O3 Ti1 2.040580 1_665
O4 Ti0 1.985707 1_655
O4 Ti0 1.986459 1_555
O4 Ti3 2.106471 1_555
O4 Ti5 2.656574 1_555
O5 Ti2 2.006913 1_555
O5 Ti2 2.007170 1_655
O5 Ti5 2.118074 1_555
O5 Ti4 2.240271 1_555
