# generated using pymatgen
data_EuIn4Pd
_symmetry_space_group_name_H-M   'P 1'
_cell_length_a   8.85045494
_cell_length_b   8.85045494
_cell_length_c   7.39152159
_cell_angle_alpha   89.99994657
_cell_angle_beta   90.00005343
_cell_angle_gamma   150.02944570
_symmetry_Int_Tables_number   1
_chemical_formula_structural   EuIn4Pd
_chemical_formula_sum   'Eu2 In8 Pd2'
_cell_volume   289.23325864
_cell_formula_units_Z   2
loop_
 _symmetry_equiv_pos_site_id
 _symmetry_equiv_pos_as_xyz
  1  'x, y, z'
loop_
 _atom_site_type_symbol
 _atom_site_label
 _atom_site_symmetry_multiplicity
 _atom_site_fract_x
 _atom_site_fract_y
 _atom_site_fract_z
 _atom_site_occupancy
  Eu  Eu0  1  0.12306411  0.87693589  0.75000068  1
  Eu  Eu1  1  0.87693841  0.12306159  0.24999926  1
  In  In0  1  0.49999933  0.50000067  0.50000448  1
  In  In1  1  0.49999956  0.50000044  0.99999482  1
  In  In2  1  0.68362052  0.31637948  0.04817986  1
  In  In3  1  0.31637373  0.68362627  0.95183444  1
  In  In4  1  0.31637407  0.68362593  0.54816595  1
  In  In5  1  0.68362032  0.31637968  0.45182045  1
  In  In6  1  0.06781745  0.93218255  0.24999960  1
  In  In7  1  0.93217608  0.06782392  0.75000055  1
  Pd  Pd0  1  0.22371934  0.77628066  0.25000013  1
  Pd  Pd1  1  0.77629508  0.22370492  0.74999978  1
loop_
_geom_bond_atom_site_label_1
_geom_bond_atom_site_label_2
_geom_bond_distance
_geom_bond_site_symmetry_2
Eu0 In7 3.263983 1_465
Eu0 In2 3.341684 1_456
Eu0 In2 3.341684 1_566
Eu0 In5 3.341689 1_565
Eu0 In5 3.341689 1_455
Eu0 Pd1 3.478786 1_455
Eu0 Pd1 3.478786 1_565
Eu0 In1 3.616569 1_455
Eu0 In1 3.616569 1_565
Eu0 In0 3.616577 1_565
Eu0 In0 3.616577 1_455
Eu0 In3 3.626463 1_555
Eu0 In4 3.626474 1_555
Eu0 In6 3.814574 1_556
Eu0 In6 3.814588 1_555
Eu1 In6 3.263830 1_645
Eu1 In3 3.341658 1_654
Eu1 In3 3.341658 1_544
Eu1 In4 3.341667 1_655
Eu1 In4 3.341667 1_545
Eu1 Pd0 3.478633 1_655
Eu1 Pd0 3.478633 1_545
Eu1 In0 3.616572 1_655
Eu1 In0 3.616572 1_545
Eu1 In1 3.616574 1_654
Eu1 In1 3.616574 1_544
Eu1 In2 3.626549 1_555
Eu1 In5 3.626560 1_555
Eu1 In7 3.814535 1_554
Eu1 In7 3.814551 1_555
In0 In5 3.159861 1_555
In0 In4 3.159914 1_555
In0 In7 3.161735 1_455
In0 In7 3.161735 1_565
In0 In6 3.161741 1_655
In0 In6 3.161741 1_545
In1 In2 3.159860 1_556
In1 In3 3.159922 1_555
In1 In7 3.161727 1_565
In1 In7 3.161727 1_455
In1 In6 3.161738 1_656
In1 In6 3.161738 1_546
In2 Pd1 2.714538 1_554
In2 Pd0 2.816478 1_655
In2 Pd0 2.816478 1_545
In2 In5 2.983518 1_555
In2 In3 3.301040 1_544
In2 In3 3.301040 1_654
In2 In6 3.373910 1_655
In2 In6 3.373910 1_545
In3 Pd0 2.714250 1_556
In3 Pd1 2.816450 1_455
In3 Pd1 2.816450 1_565
In3 In4 2.983724 1_555
In3 In7 3.373949 1_455
In3 In7 3.373949 1_565
In4 Pd0 2.714252 1_555
In4 Pd1 2.816449 1_455
In4 Pd1 2.816449 1_565
In4 In5 3.301045 1_455
In4 In5 3.301045 1_565
In4 In7 3.373946 1_455
In4 In7 3.373946 1_565
In5 Pd1 2.714533 1_555
In5 Pd0 2.816480 1_655
In5 Pd0 2.816480 1_545
In5 In6 3.373910 1_655
In5 In6 3.373910 1_545
In6 Pd0 2.665757 1_555
In7 Pd1 2.665400 1_555
