# generated using pymatgen
data_PH9C3Br3N
_symmetry_space_group_name_H-M   'P 1'
_cell_length_a   11.44464400
_cell_length_b   6.41332500
_cell_length_c   15.03209993
_cell_angle_alpha   74.35302739
_cell_angle_beta   90.00000000
_cell_angle_gamma   90.00000000
_symmetry_Int_Tables_number   1
_chemical_formula_structural   PH9C3Br3N
_chemical_formula_sum   'P4 H36 C12 Br12 N4'
_cell_volume   1062.44197168
_cell_formula_units_Z   4
loop_
 _symmetry_equiv_pos_site_id
 _symmetry_equiv_pos_as_xyz
  1  'x, y, z'
loop_
 _atom_site_type_symbol
 _atom_site_label
 _atom_site_symmetry_multiplicity
 _atom_site_fract_x
 _atom_site_fract_y
 _atom_site_fract_z
 _atom_site_occupancy
  P  P0  1  0.17285100  0.78725100  0.47633200  1
  P  P1  1  0.67285100  0.21274900  0.02366800  1
  P  P2  1  0.82714900  0.21274900  0.52366800  1
  P  P3  1  0.32714900  0.78725100  0.97633200  1
  H  H0  1  0.08233400  0.39404000  0.17190700  1
  H  H1  1  0.58233400  0.60596000  0.32809300  1
  H  H2  1  0.91766600  0.60596000  0.82809300  1
  H  H3  1  0.41766600  0.39404000  0.67190700  1
  H  H4  1  0.05369200  0.58072400  0.06163700  1
  H  H5  1  0.55369200  0.41927600  0.43836300  1
  H  H6  1  0.94630800  0.41927600  0.93836300  1
  H  H7  1  0.44630800  0.58072400  0.56163700  1
  H  H8  1  0.14579400  0.35152100  0.06933000  1
  H  H9  1  0.64579400  0.64847900  0.43067000  1
  H  H10  1  0.85420600  0.64847900  0.93067000  1
  H  H11  1  0.35420600  0.35152100  0.56933000  1
  H  H12  1  0.27935200  0.39723700  0.24216600  1
  H  H13  1  0.62563100  0.11129100  0.39313700  1
  H  H14  1  0.87436900  0.11129100  0.89313700  1
  H  H15  1  0.37436900  0.88870900  0.60686300  1
  H  H16  1  0.15262100  0.72551700  0.22187700  1
  H  H17  1  0.12563100  0.88870900  0.10686300  1
  H  H18  1  0.84737900  0.27448300  0.77812300  1
  H  H19  1  0.34737900  0.72551700  0.72187700  1
  H  H20  1  0.26836100  0.88153300  0.15650800  1
  H  H21  1  0.76836100  0.11846700  0.34349200  1
  H  H22  1  0.73163900  0.11846700  0.84349200  1
  H  H23  1  0.23163900  0.88153300  0.65650800  1
  H  H24  1  0.11011200  0.56789700  0.67532300  1
  H  H25  1  0.61011200  0.43210300  0.82467700  1
  H  H26  1  0.88988800  0.43210300  0.32467700  1
  H  H27  1  0.38988800  0.56789700  0.17532300  1
  H  H28  1  0.16137300  0.33762000  0.64150700  1
  H  H29  1  0.66137300  0.66238000  0.85849300  1
  H  H30  1  0.83862700  0.66238000  0.35849300  1
  H  H31  1  0.33862700  0.33762000  0.14150700  1
  H  H32  1  0.22064800  0.39723700  0.74216600  1
  H  H33  1  0.72064800  0.60276300  0.75783400  1
  H  H34  1  0.77935200  0.60276300  0.25783400  1
  H  H35  1  0.65262100  0.27448300  0.27812300  1
  C  C0  1  0.30984600  0.78527600  0.65205800  1
  C  C1  1  0.80984600  0.21472400  0.84794200  1
  C  C2  1  0.69015400  0.21472400  0.34794200  1
  C  C3  1  0.19015400  0.78527600  0.15205800  1
  C  C4  1  0.31273400  0.46856200  0.17164000  1
  C  C5  1  0.81273400  0.53143800  0.32836000  1
  C  C6  1  0.68726600  0.53143800  0.82836000  1
  C  C7  1  0.18726600  0.46856200  0.67164000  1
  C  C8  1  0.11999900  0.47528400  0.10371100  1
  C  C9  1  0.61999900  0.52471600  0.39628900  1
  C  C10  1  0.88000100  0.52471600  0.89628900  1
  C  C11  1  0.38000100  0.47528400  0.60371100  1
  Br  Br0  1  0.54731900  0.99905200  0.14880300  1
  Br  Br1  1  0.95268100  0.99905200  0.64880300  1
  Br  Br2  1  0.45268100  0.00094800  0.85119700  1
  Br  Br3  1  0.04731900  0.00094800  0.35119700  1
  Br  Br4  1  0.15632800  0.91805100  0.90547600  1
  Br  Br5  1  0.65632800  0.08194900  0.59452400  1
  Br  Br6  1  0.84367200  0.08194900  0.09452400  1
  Br  Br7  1  0.34367200  0.91805100  0.40547600  1
  Br  Br8  1  0.34450200  0.47317000  0.93629900  1
  Br  Br9  1  0.84450200  0.52683000  0.56370100  1
  Br  Br10  1  0.65549800  0.52683000  0.06370100  1
  Br  Br11  1  0.15549800  0.47317000  0.43629900  1
  N  N0  1  0.22263500  0.60470000  0.11376600  1
  N  N1  1  0.72263500  0.39530000  0.38623400  1
  N  N2  1  0.77736500  0.39530000  0.88623400  1
  N  N3  1  0.27736500  0.60470000  0.61376600  1
loop_
_geom_bond_atom_site_label_1
_geom_bond_atom_site_label_2
_geom_bond_distance
_geom_bond_site_symmetry_2
C0 H15 1.097171 1_555
C0 H23 1.099527 1_555
C0 H19 1.102692 1_555
C0 N3 1.473184 1_555
C1 H14 1.097171 1_555
C1 H22 1.099527 1_555
C1 H18 1.102692 1_555
C1 N2 1.473184 1_555
C2 H13 1.097171 1_555
C2 H21 1.099527 1_555
C2 H35 1.102692 1_555
C2 N1 1.473184 1_555
C3 H17 1.097171 1_555
C3 H20 1.099527 1_555
C3 H16 1.102692 1_555
C3 N0 1.473184 1_555
C4 H31 1.096994 1_555
C4 H27 1.098924 1_555
C4 H12 1.103421 1_555
C4 N0 1.474005 1_555
C5 H30 1.096994 1_555
C5 H26 1.098924 1_555
C5 H34 1.103421 1_555
C5 N1 1.474005 1_555
C6 H29 1.096994 1_555
C6 H25 1.098924 1_555
C6 H33 1.103421 1_555
C6 N2 1.474005 1_555
C7 H28 1.096994 1_555
C7 H24 1.098924 1_555
C7 H32 1.103421 1_555
C7 N3 1.474005 1_555
C8 H4 1.096563 1_555
C8 H8 1.097972 1_555
C8 H0 1.104567 1_555
C8 N0 1.469407 1_555
C9 H5 1.096563 1_555
C9 H9 1.097972 1_555
C9 H1 1.104567 1_555
C9 N1 1.469407 1_555
C10 H6 1.096563 1_555
C10 H10 1.097972 1_555
C10 H2 1.104567 1_555
C10 N2 1.469407 1_555
C11 H7 1.096563 1_555
C11 H11 1.097972 1_555
C11 H3 1.104567 1_555
C11 N3 1.469407 1_555
Br0 P1 2.467796 1_565
Br1 P2 2.467796 1_565
Br2 P3 2.467796 1_545
Br3 P0 2.467796 1_545
Br4 P3 2.275558 1_555
Br5 P2 2.275558 1_555
Br6 P1 2.275558 1_555
Br7 P0 2.275558 1_555
Br8 P3 2.261165 1_555
Br9 P2 2.261165 1_555
Br10 P1 2.261165 1_555
Br11 P0 2.261165 1_555
N0 P3 2.400986 1_554
N1 P2 2.400986 1_555
N2 P1 2.400986 1_556
N3 P0 2.400986 1_555
