# generated using pymatgen
data_Na5La3HfSi3(SO8)3
_symmetry_space_group_name_H-M   'P 1'
_cell_length_a   9.55478481
_cell_length_b   9.53572076
_cell_length_c   23.96581972
_cell_angle_alpha   90.66628157
_cell_angle_beta   89.89648242
_cell_angle_gamma   119.79883665
_symmetry_Int_Tables_number   1
_chemical_formula_structural   Na5La3HfSi3(SO8)3
_chemical_formula_sum   'Na15 La9 Hf3 Si9 S9 O72'
_cell_volume   1894.69894942
_cell_formula_units_Z   3
loop_
 _symmetry_equiv_pos_site_id
 _symmetry_equiv_pos_as_xyz
  1  'x, y, z'
loop_
 _atom_site_type_symbol
 _atom_site_label
 _atom_site_symmetry_multiplicity
 _atom_site_fract_x
 _atom_site_fract_y
 _atom_site_fract_z
 _atom_site_occupancy
  Na  Na0  1  0.65466291  0.01472895  0.25984917  1
  Na  Na1  1  0.99811131  0.61830037  0.24736526  1
  Na  Na2  1  0.62759367  0.64317788  0.74572118  1
  Na  Na3  1  0.36175715  0.01095730  0.76341079  1
  Na  Na4  1  0.66657676  0.94486107  0.58291945  1
  Na  Na5  1  0.98352467  0.69330116  0.92238685  1
  Na  Na6  1  0.68065343  0.00414485  0.91050636  1
  Na  Na7  1  0.95266502  0.30513328  0.40950573  1
  Na  Na8  1  0.70063350  0.68981571  0.43042599  1
  Na  Na9  1  0.99423727  0.96155433  0.50173369  1
  Na  Na10  1  0.00856374  0.97219650  0.99692158  1
  Na  Na11  1  0.63683253  0.31064043  0.83286345  1
  Na  Na12  1  0.67230012  0.31456853  0.33601571  1
  Na  Na13  1  0.27982891  0.62081107  0.16045041  1
  Na  Na14  1  0.33920504  0.62722673  0.67152957  1
  La  La0  1  0.00120558  0.00461780  0.35061785  1
  La  La1  1  0.01099697  0.01829642  0.84872939  1
  La  La2  1  0.99762824  0.00494131  0.65351149  1
  La  La3  1  0.00218916  0.00283942  0.14124177  1
  La  La4  1  0.66522480  0.34163384  0.68490663  1
  La  La5  1  0.68019087  0.34266714  0.17798966  1
  La  La6  1  0.33221047  0.67371906  0.01726584  1
  La  La7  1  0.33425333  0.67199629  0.51550754  1
  La  La8  1  0.31885141  0.66225291  0.32460896  1
  Hf  Hf0  1  0.66255783  0.34613109  0.97851999  1
  Hf  Hf1  1  0.67184334  0.34364769  0.48391340  1
  Hf  Hf2  1  0.35914077  0.67471330  0.81905676  1
  Si  Si0  1  0.00025260  0.30592897  0.25239851  1
  Si  Si1  1  0.30551760  0.31560664  0.75098459  1
  Si  Si2  1  0.68212922  0.99267914  0.75355413  1
  Si  Si3  1  0.67181516  0.63943407  0.58318791  1
  Si  Si4  1  0.96035787  0.63145906  0.08060404  1
  Si  Si5  1  0.63417045  0.66325217  0.91717460  1
  Si  Si6  1  0.34549281  0.97076632  0.91555428  1
  Si  Si7  1  0.64109648  0.98362142  0.41737498  1
  Si  Si8  1  0.01190004  0.65724833  0.41743875  1
  S  S0  1  0.30652586  0.99623570  0.24943051  1
  S  S1  1  0.69465267  0.69967227  0.25076243  1
  S  S2  1  0.01844268  0.69911451  0.75493835  1
  S  S3  1  0.95247060  0.32573198  0.57818233  1
  S  S4  1  0.37581070  0.04949285  0.57979873  1
  S  S5  1  0.67223356  0.04488837  0.07830742  1
  S  S6  1  0.37453629  0.32794826  0.07773268  1
  S  S7  1  0.02214975  0.37832988  0.91653181  1
  S  S8  1  0.34981353  0.36160434  0.41976995  1
  O  O0  1  0.22858203  0.00699903  0.30122077  1
  O  O1  1  0.78610041  0.77294984  0.30346838  1
  O  O2  1  0.99038579  0.21839594  0.31259718  1
  O  O3  1  0.23093676  0.18333586  0.80046822  1
  O  O4  1  0.98757198  0.77063344  0.80536396  1
  O  O5  1  0.78559000  0.01124716  0.80950674  1
  O  O6  1  0.76517748  0.96097961  0.69724898  1
  O  O7  1  0.20080653  0.23237869  0.69361825  1
  O  O8  1  0.04490769  0.80450936  0.70599891  1
  O  O9  1  0.78806691  0.79963724  0.20297111  1
  O  O10  1  0.00013298  0.19156322  0.20039402  1
  O  O11  1  0.20815179  0.98484871  0.20016566  1
  O  O12  1  0.87639592  0.33522434  0.62997954  1
  O  O13  1  0.45256416  0.11936969  0.63417847  1
  O  O14  1  0.67322134  0.55596307  0.64211208  1
  O  O15  1  0.88114927  0.55568147  0.14228719  1
  O  O16  1  0.66714592  0.11690960  0.13325304  1
  O  O17  1  0.45179519  0.32674743  0.13073948  1
  O  O18  1  0.47574495  0.32737394  0.02947954  1
  O  O19  1  0.83674588  0.50844373  0.02877369  1
  O  O20  1  0.66617502  0.14386533  0.03161432  1
  O  O21  1  0.48138212  0.15294625  0.53356029  1
  O  O22  1  0.66878219  0.52121213  0.52905648  1
  O  O23  1  0.85381619  0.32700038  0.52895271  1
  O  O24  1  0.54614434  0.69451791  0.96880425  1
  O  O25  1  0.11292212  0.44388618  0.96864150  1
  O  O26  1  0.30668297  0.85151323  0.96777058  1
  O  O27  1  0.55570700  0.85240149  0.46757075  1
  O  O28  1  0.32258989  0.44037716  0.46829439  1
  O  O29  1  0.13327386  0.67129696  0.46692848  1
  O  O30  1  0.07556363  0.61752243  0.35822793  1
  O  O31  1  0.54420878  0.90764767  0.35760642  1
  O  O32  1  0.38219039  0.46267741  0.36943885  1
  O  O33  1  0.11251174  0.47874440  0.86823527  1
  O  O34  1  0.37143889  0.87457816  0.85980372  1
  O  O35  1  0.52248750  0.64542586  0.86015530  1
  O  O36  1  0.97738330  0.80875649  0.41610669  1
  O  O37  1  0.82913012  0.01672810  0.41542781  1
  O  O38  1  0.20871566  0.19963964  0.41327940  1
  O  O39  1  0.98041610  0.20720424  0.91118268  1
  O  O40  1  0.18554171  0.98936156  0.90971610  1
  O  O41  1  0.81903709  0.81481028  0.91220282  1
  O  O42  1  0.95029426  0.16853275  0.57499027  1
  O  O43  1  0.21482493  0.03275028  0.57562627  1
  O  O44  1  0.83292455  0.82224444  0.57770854  1
  O  O45  1  0.97194995  0.80932871  0.07499283  1
  O  O46  1  0.82491891  0.03947484  0.07415424  1
  O  O47  1  0.21466131  0.17974344  0.07242982  1
  O  O48  1  0.63852905  0.13820569  0.74869770  1
  O  O49  1  0.49721330  0.35988350  0.74837360  1
  O  O50  1  0.87658696  0.53683793  0.74697426  1
  O  O51  1  0.67380650  0.53471223  0.24729374  1
  O  O52  1  0.82964460  0.31733553  0.25124168  1
  O  O53  1  0.47288389  0.13721863  0.24725322  1
  O  O54  1  0.64844047  0.49486422  0.92442047  1
  O  O55  1  0.86329001  0.37874136  0.91973620  1
  O  O56  1  0.52166758  0.14479254  0.92491235  1
  O  O57  1  0.65744509  0.16330136  0.43025188  1
  O  O58  1  0.49717187  0.34665622  0.42795422  1
  O  O59  1  0.83007410  0.49123217  0.42786897  1
  O  O60  1  0.35903439  0.47388936  0.07737536  1
  O  O61  1  0.13527802  0.64060925  0.08138583  1
  O  O62  1  0.53242423  0.88033989  0.07822407  1
  O  O63  1  0.36774027  0.88950783  0.57659372  1
  O  O64  1  0.51089293  0.66297944  0.58241443  1
  O  O65  1  0.11749210  0.46306929  0.57541492  1
  O  O66  1  0.31885745  0.84488214  0.24991104  1
  O  O67  1  0.53710148  0.69499449  0.25235632  1
  O  O68  1  0.15570059  0.49299937  0.24971247  1
  O  O69  1  0.31331977  0.49157907  0.76304870  1
  O  O70  1  0.16777892  0.68862967  0.76211107  1
  O  O71  1  0.50267123  0.81757209  0.75897041  1
loop_
_geom_bond_atom_site_label_1
_geom_bond_atom_site_label_2
_geom_bond_distance
_geom_bond_site_symmetry_2
Na0 O52 2.526245 1_555
Na0 O53 2.549223 1_555
Na0 O31 2.573117 1_545
Na0 O67 2.678408 1_545
Na0 O66 2.793470 1_545
Na1 O68 2.342657 1_655
Na1 O52 2.500050 1_555
Na1 O15 2.694282 1_555
Na1 O66 2.735050 1_655
Na1 O30 2.760422 1_655
Na1 O51 2.789660 1_555
Na2 O49 2.347868 1_555
Na2 O71 2.500042 1_555
Na2 O69 2.640859 1_555
Na2 O14 2.712160 1_555
Na2 O6 2.894506 1_555
Na2 O35 2.922402 1_555
Na2 O50 3.014614 1_555
Na3 O48 2.325363 1_555
Na3 O3 2.656544 1_555
Na3 O70 2.686867 1_545
Na3 O34 2.688257 1_545
Na3 O71 2.772612 1_545
Na3 O49 2.936279 1_555
Na3 O8 2.993733 1_545
Na4 O64 2.337346 1_555
Na4 O44 2.398321 1_555
Na4 O42 2.488947 1_565
Na4 O63 2.637457 1_555
Na4 O6 2.876527 1_555
Na4 O27 2.926975 1_555
Na5 O41 2.385387 1_555
Na5 O40 2.527812 1_655
Na5 O55 2.625264 1_555
Na5 O54 2.795302 1_555
Na5 O26 2.887390 1_655
Na5 O4 2.903471 1_555
Na6 O56 2.497564 1_555
Na6 O39 2.537776 1_555
Na6 O5 2.606999 1_555
Na6 O41 2.717375 1_545
Na6 O34 2.842878 1_545
Na6 O24 2.939236 1_545
Na7 O37 2.399749 1_555
Na7 O57 2.500376 1_555
Na7 O2 2.540975 1_555
Na7 O59 2.600154 1_555
Na7 O30 2.892397 1_655
Na8 O36 2.328370 1_555
Na8 O27 2.685307 1_555
Na8 O59 2.728372 1_555
Na8 O37 2.752244 1_565
Na8 O22 2.804342 1_555
Na8 O58 2.857231 1_555
Na9 O44 2.338101 1_555
Na9 O36 2.461410 1_555
Na9 O43 2.569548 1_665
Na9 O42 2.809705 1_565
Na9 O37 2.811724 1_565
Na10 O45 2.358048 1_456
Na10 O41 2.625876 1_455
Na10 O40 2.640873 1_555
Na10 O47 2.669348 1_566
Na10 O46 2.827722 1_466
Na11 O48 2.592660 1_555
Na11 O49 2.598982 1_555
Na11 O56 2.630817 1_555
Na11 O54 2.762351 1_555
Na11 O55 2.833095 1_555
Na12 O52 2.517814 1_555
Na12 O57 2.659414 1_555
Na12 O59 2.712567 1_555
Na12 O53 2.782812 1_555
Na12 O58 2.868514 1_555
Na12 O51 3.000294 1_555
Na13 O61 2.410520 1_555
Na13 O68 2.466409 1_555
Na13 O60 2.735502 1_555
Na13 O66 2.899240 1_555
Na14 O69 2.508199 1_555
Na14 O64 2.610933 1_555
Na14 O71 2.689085 1_555
Na14 O70 2.940938 1_555
Na14 O65 2.980248 1_555
La0 O2 2.291194 1_455
La0 O37 2.303120 1_455
La0 O36 2.376489 1_445
La0 O1 2.412231 1_445
La0 O38 2.434297 1_555
La0 O0 2.462559 1_555
La1 O3 2.230956 1_555
La1 O5 2.321329 1_455
La1 O40 2.338649 1_545
La1 O41 2.442228 1_445
La1 O39 2.455488 1_455
La1 O4 2.475070 1_445
La2 O7 2.273724 1_655
La2 O6 2.298650 1_545
La2 O44 2.454331 1_545
La2 O8 2.520999 1_645
La2 O42 2.636639 1_555
La2 O43 2.704022 1_655
La3 O10 2.285694 1_555
La3 O45 2.326568 1_445
La3 O46 2.487366 1_455
La3 O9 2.498892 1_445
La3 O11 2.499519 1_545
La3 O47 2.517047 1_555
La4 O14 2.264513 1_555
La4 O49 2.276742 1_555
La4 O48 2.396047 1_555
La4 O13 2.401555 1_555
La4 O12 2.432851 1_555
La4 O50 2.442572 1_555
La5 O15 2.168621 1_555
La5 O16 2.340840 1_555
La5 O52 2.353981 1_555
La5 O17 2.396524 1_555
La5 O51 2.481118 1_555
La5 O53 2.593036 1_555
La6 O26 2.190831 1_554
La6 O24 2.271648 1_554
La6 O61 2.326383 1_555
La6 O62 2.423384 1_555
La6 O25 2.436523 1_554
La6 O60 2.514464 1_555
La7 O29 2.244610 1_555
La7 O27 2.275030 1_555
La7 O64 2.363105 1_555
La7 O63 2.412281 1_555
La7 O28 2.422513 1_555
La7 O65 2.504922 1_555
La8 O30 2.291383 1_555
La8 O31 2.385932 1_555
La8 O68 2.387237 1_555
La8 O66 2.511979 1_555
La8 O32 2.517332 1_555
La8 O67 2.607091 1_555
Hf0 O54 1.986017 1_555
Hf0 O19 2.004910 1_556
Hf0 O18 2.095111 1_556
Hf0 O56 2.128122 1_555
Hf0 O55 2.273237 1_555
Hf0 O20 2.337496 1_556
Hf1 O59 1.998058 1_555
Hf1 O22 2.011166 1_555
Hf1 O57 2.084314 1_555
Hf1 O23 2.120973 1_555
Hf1 O58 2.154380 1_555
Hf1 O21 2.188064 1_555
Hf2 O35 1.982231 1_555
Hf2 O71 1.997950 1_555
Hf2 O69 2.056872 1_555
Hf2 O34 2.081888 1_555
Hf2 O70 2.340441 1_555
Hf2 O33 2.469536 1_555
O0 S0 1.474925 1_545
O1 S1 1.491267 1_555
O2 Si0 1.654180 1_655
O3 Si1 1.625876 1_555
O4 S2 1.480553 1_655
O5 Si2 1.622351 1_545
O6 Si2 1.663415 1_555
O7 Si1 1.646635 1_555
O8 S2 1.491102 1_555
O9 S1 1.480953 1_555
O10 Si0 1.646152 1_555
O11 S0 1.479479 1_555
O12 S3 1.461864 1_555
O13 S4 1.475757 1_555
O14 Si3 1.632415 1_555
O15 Si4 1.660575 1_555
O16 S5 1.489948 1_555
O17 S6 1.473425 1_555
O18 S6 1.507836 1_555
O19 Si4 1.705382 1_555
O20 S5 1.491807 1_555
O21 S4 1.500337 1_555
O22 Si3 1.699519 1_555
O23 S3 1.515374 1_555
O24 Si5 1.601314 1_555
O25 S7 1.466124 1_555
O26 Si6 1.615231 1_555
O27 Si7 1.641738 1_555
O28 S8 1.468702 1_555
O29 Si8 1.617547 1_555
O30 Si8 1.655472 1_555
O31 Si7 1.657617 1_555
O32 S8 1.486253 1_555
O33 S7 1.484083 1_555
O34 Si6 1.698307 1_555
O35 Si5 1.689541 1_555
O36 Si8 1.634547 1_655
O37 Si7 1.663128 1_545
O38 S8 1.467221 1_555
O39 S7 1.478790 1_655
O40 Si6 1.630157 1_555
O41 Si5 1.639783 1_555
O42 S3 1.489855 1_555
O43 S4 1.468878 1_555
O44 Si3 1.662287 1_555
O45 Si4 1.650967 1_555
O46 S5 1.488320 1_555
O47 S6 1.482468 1_555
O48 Si2 1.640525 1_545
O49 Si1 1.663898 1_555
O50 S2 1.475641 1_655
O51 S1 1.485451 1_555
O52 Si0 1.687116 1_655
O53 S0 1.487972 1_545
O54 Si5 1.688547 1_555
O55 S7 1.521623 1_655
O56 Si6 1.689372 1_545
O57 Si7 1.666483 1_545
O58 S8 1.497435 1_555
O59 Si8 1.691434 1_655
O60 S6 1.471009 1_555
O61 Si4 1.629854 1_455
O62 S5 1.470770 1_565
O63 S4 1.489829 1_565
O64 Si3 1.660788 1_555
O65 S3 1.467955 1_455
O66 S0 1.505470 1_555
O67 S1 1.484140 1_555
O68 Si0 1.661701 1_555
O69 Si1 1.664145 1_555
O70 S2 1.489496 1_555
O71 Si2 1.704013 1_555
