# generated using pymatgen
data_Na6LaNb3(SiO4)6
_symmetry_space_group_name_H-M   'P 1'
_cell_length_a   16.04466508
_cell_length_b   9.18652882
_cell_length_c   9.24247699
_cell_angle_alpha   89.98530814
_cell_angle_beta   125.69025068
_cell_angle_gamma   90.10048765
_symmetry_Int_Tables_number   1
_chemical_formula_structural   Na6LaNb3(SiO4)6
_chemical_formula_sum   'Na12 La2 Nb6 Si12 O48'
_cell_volume   1106.42863584
_cell_formula_units_Z   2
loop_
 _symmetry_equiv_pos_site_id
 _symmetry_equiv_pos_as_xyz
  1  'x, y, z'
loop_
 _atom_site_type_symbol
 _atom_site_label
 _atom_site_symmetry_multiplicity
 _atom_site_fract_x
 _atom_site_fract_y
 _atom_site_fract_z
 _atom_site_occupancy
  Na  Na0  1  0.25253877  0.75054926  0.00089132  1
  Na  Na1  1  0.74935359  0.75106575  0.49779226  1
  Na  Na2  1  0.75253877  0.25054926  0.00089132  1
  Na  Na3  1  0.24935359  0.25106575  0.49779226  1
  Na  Na4  1  0.50242824  0.09359404  0.75225161  1
  Na  Na5  1  0.50376260  0.89099812  0.24878294  1
  Na  Na6  1  0.00242824  0.59359404  0.75225161  1
  Na  Na7  1  0.00376260  0.39099812  0.24878294  1
  Na  Na8  1  0.80617292  0.92750911  0.21926368  1
  Na  Na9  1  0.18559243  0.07146177  0.78715633  1
  Na  Na10  1  0.30617292  0.42750911  0.21926368  1
  Na  Na11  1  0.68559243  0.57146177  0.78715633  1
  La  La0  1  0.09893950  0.23397339  0.05965431  1
  La  La1  1  0.59893950  0.73397339  0.05965431  1
  Nb  Nb0  1  0.10555763  0.74671722  0.55696187  1
  Nb  Nb1  1  0.89640450  0.75814915  0.93284470  1
  Nb  Nb2  1  0.89225788  0.25068772  0.44107008  1
  Nb  Nb3  1  0.60555763  0.24671722  0.55696187  1
  Nb  Nb4  1  0.39640450  0.25814915  0.93284470  1
  Nb  Nb5  1  0.39225788  0.75068772  0.44107008  1
  Si  Si0  1  0.99623563  0.94444960  0.73556190  1
  Si  Si1  1  0.99422139  0.04085247  0.26200149  1
  Si  Si2  1  0.49623563  0.44444960  0.73556190  1
  Si  Si3  1  0.49422139  0.54085247  0.26200149  1
  Si  Si4  1  0.34923734  0.90359461  0.75728185  1
  Si  Si5  1  0.65076587  0.89910606  0.74708494  1
  Si  Si6  1  0.64747750  0.12224581  0.24750921  1
  Si  Si7  1  0.36173421  0.09495635  0.25041340  1
  Si  Si8  1  0.84923734  0.40359461  0.75728185  1
  Si  Si9  1  0.15076587  0.39910606  0.74708494  1
  Si  Si10  1  0.14747750  0.62224581  0.24750921  1
  Si  Si11  1  0.86173421  0.59495635  0.25041340  1
  O  O0  1  0.16180595  0.57204543  0.71850497  1
  O  O1  1  0.84972716  0.58338030  0.74997138  1
  O  O2  1  0.85551682  0.41611368  0.25904207  1
  O  O3  1  0.16020590  0.44789063  0.26666607  1
  O  O4  1  0.66180595  0.07204543  0.71850497  1
  O  O5  1  0.34972716  0.08338030  0.74997138  1
  O  O6  1  0.35551682  0.91611368  0.25904207  1
  O  O7  1  0.66020590  0.94789063  0.26666607  1
  O  O8  1  0.42878649  0.56163137  0.56684860  1
  O  O9  1  0.58821819  0.53386178  0.90341585  1
  O  O10  1  0.54200143  0.42790057  0.42758865  1
  O  O11  1  0.43543262  0.43026375  0.08232858  1
  O  O12  1  0.92878649  0.06163137  0.56684860  1
  O  O13  1  0.08821819  0.03386178  0.90341585  1
  O  O14  1  0.04200143  0.92790057  0.42758865  1
  O  O15  1  0.93543262  0.93026375  0.08232858  1
  O  O16  1  0.24083406  0.85364130  0.72499000  1
  O  O17  1  0.74252856  0.80669981  0.76001073  1
  O  O18  1  0.74444245  0.19669381  0.25870171  1
  O  O19  1  0.28335014  0.18520028  0.27071445  1
  O  O20  1  0.74083406  0.35364130  0.72499000  1
  O  O21  1  0.24252856  0.30669981  0.76001073  1
  O  O22  1  0.24444245  0.69669381  0.25870171  1
  O  O23  1  0.78335014  0.68520028  0.27071445  1
  O  O24  1  0.36513426  0.84760946  0.59973087  1
  O  O25  1  0.65577639  0.89114830  0.92666156  1
  O  O26  1  0.64769962  0.19131581  0.41013154  1
  O  O27  1  0.35513223  0.13992075  0.06824767  1
  O  O28  1  0.86513426  0.34760946  0.59973087  1
  O  O29  1  0.15577639  0.39114830  0.92666156  1
  O  O30  1  0.14769962  0.69131581  0.41013154  1
  O  O31  1  0.85513223  0.63992075  0.06824767  1
  O  O32  1  0.44158468  0.84385831  0.94817988  1
  O  O33  1  0.53851830  0.82507821  0.58014270  1
  O  O34  1  0.53649314  0.17417904  0.06194299  1
  O  O35  1  0.47993735  0.13254496  0.41418428  1
  O  O36  1  0.94158468  0.34385831  0.94817988  1
  O  O37  1  0.03851830  0.32507821  0.58014270  1
  O  O38  1  0.03649314  0.67417904  0.06194299  1
  O  O39  1  0.97993735  0.63254496  0.41418428  1
  O  O40  1  0.05564107  0.81457219  0.70673252  1
  O  O41  1  0.91508903  0.86036299  0.76198870  1
  O  O42  1  0.90433509  0.13473893  0.25482007  1
  O  O43  1  0.07912903  0.14943791  0.28193227  1
  O  O44  1  0.55564107  0.31457219  0.70673252  1
  O  O45  1  0.41508903  0.36036299  0.76198870  1
  O  O46  1  0.40433509  0.63473893  0.25482007  1
  O  O47  1  0.57912903  0.64943791  0.28193227  1
loop_
_geom_bond_atom_site_label_1
_geom_bond_atom_site_label_2
_geom_bond_distance
_geom_bond_site_symmetry_2
Na0 O46 2.431063 1_555
Na0 O6 2.475742 1_555
Na0 O22 2.509930 1_555
Na0 O16 2.622091 1_554
Na0 O0 2.679683 1_554
Na0 O40 2.775222 1_554
Na1 O47 2.438347 1_555
Na1 O1 2.454820 1_555
Na1 O7 2.514051 1_555
Na1 O23 2.531010 1_555
Na1 O17 2.541117 1_555
Na1 O41 2.541141 1_555
Na2 O42 2.431063 1_555
Na2 O2 2.475742 1_555
Na2 O18 2.509930 1_555
Na2 O20 2.622091 1_554
Na2 O4 2.679683 1_554
Na2 O44 2.775222 1_554
Na3 O43 2.438347 1_555
Na3 O5 2.454820 1_555
Na3 O3 2.514051 1_555
Na3 O19 2.531010 1_555
Na3 O21 2.541117 1_555
Na3 O45 2.541141 1_555
Na4 O44 2.332278 1_555
Na4 O5 2.439443 1_555
Na4 O34 2.685871 1_556
Na4 O25 2.738191 1_545
Na4 O4 2.758257 1_555
Na4 O45 2.852536 1_555
Na4 O24 2.882191 1_545
Na4 O35 2.950512 1_555
Na5 O32 2.380521 1_554
Na5 O6 2.446392 1_555
Na5 O47 2.461156 1_555
Na5 O7 2.472315 1_555
Na5 O46 2.860174 1_555
Na6 O40 2.332278 1_555
Na6 O1 2.439443 1_455
Na6 O38 2.685871 1_556
Na6 O29 2.738191 1_555
Na6 O0 2.758257 1_555
Na6 O41 2.852536 1_455
Na6 O28 2.882191 1_455
Na6 O39 2.950512 1_455
Na7 O36 2.380521 1_454
Na7 O2 2.446392 1_455
Na7 O43 2.461156 1_555
Na7 O3 2.472315 1_555
Na7 O42 2.860174 1_455
Na8 O23 2.348398 1_555
Na8 O42 2.366136 1_565
Na8 O25 2.373043 1_554
Na8 O7 2.628826 1_555
Na8 O18 2.767534 1_565
Na8 O12 2.885844 1_565
Na9 O13 2.381498 1_555
Na9 O16 2.391819 1_545
Na9 O21 2.414064 1_555
Na9 O27 2.508688 1_556
Na9 O5 2.849628 1_555
Na10 O19 2.348398 1_555
Na10 O46 2.366136 1_555
Na10 O29 2.373043 1_554
Na10 O3 2.628826 1_555
Na10 O22 2.767534 1_555
Na10 O8 2.885844 1_555
Na11 O9 2.381498 1_555
Na11 O20 2.391819 1_555
Na11 O17 2.414064 1_555
Na11 O31 2.508688 1_556
Na11 O1 2.849628 1_555
La0 O13 2.281379 1_554
La0 O36 2.329801 1_454
La0 O43 2.384305 1_555
La0 O29 2.393680 1_554
La0 O19 2.455652 1_555
La0 O3 2.507889 1_555
La1 O9 2.281379 1_554
La1 O32 2.329801 1_554
La1 O47 2.384305 1_555
La1 O25 2.393680 1_554
La1 O23 2.455652 1_555
La1 O7 2.507889 1_555
Nb0 O30 1.905277 1_555
Nb0 O39 1.947756 1_455
Nb0 O14 1.955051 1_555
Nb0 O0 2.012500 1_555
Nb0 O16 2.036633 1_555
Nb0 O40 2.059591 1_555
Nb1 O15 1.946565 1_556
Nb1 O38 1.986742 1_656
Nb1 O41 2.003960 1_555
Nb1 O31 2.036669 1_556
Nb1 O17 2.061036 1_555
Nb1 O1 2.124984 1_555
Nb2 O28 1.969566 1_555
Nb2 O12 1.979608 1_555
Nb2 O18 2.010915 1_555
Nb2 O37 2.025215 1_655
Nb2 O2 2.081354 1_555
Nb2 O42 2.127500 1_555
Nb3 O26 1.905277 1_555
Nb3 O35 1.947756 1_555
Nb3 O10 1.955051 1_555
Nb3 O4 2.012500 1_555
Nb3 O20 2.036633 1_555
Nb3 O44 2.059591 1_555
Nb4 O11 1.946565 1_556
Nb4 O34 1.986742 1_556
Nb4 O45 2.003960 1_555
Nb4 O27 2.036669 1_556
Nb4 O21 2.061036 1_555
Nb4 O5 2.124984 1_555
Nb5 O24 1.969566 1_555
Nb5 O8 1.979608 1_555
Nb5 O22 2.010915 1_555
Nb5 O33 2.025215 1_555
Nb5 O6 2.081354 1_555
Nb5 O46 2.127500 1_555
O0 Si9 1.636628 1_555
O1 Si8 1.653163 1_555
O2 Si11 1.650520 1_555
O3 Si10 1.611636 1_555
O4 Si5 1.636628 1_545
O5 Si4 1.653163 1_545
O6 Si7 1.650520 1_565
O7 Si6 1.611636 1_565
O8 Si2 1.672045 1_555
O9 Si2 1.607623 1_555
O10 Si3 1.624695 1_555
O11 Si3 1.687997 1_555
O12 Si0 1.672045 1_545
O13 Si0 1.607623 1_445
O14 Si1 1.624695 1_465
O15 Si1 1.687997 1_565
O16 Si4 1.648146 1_555
O17 Si5 1.643674 1_555
O18 Si6 1.645414 1_555
O19 Si7 1.607247 1_555
O20 Si8 1.648146 1_555
O21 Si9 1.643674 1_555
O22 Si10 1.645414 1_555
O23 Si11 1.607247 1_555
O24 Si4 1.698288 1_555
O25 Si5 1.615795 1_555
O26 Si6 1.629712 1_555
O27 Si7 1.675789 1_555
O28 Si8 1.698288 1_555
O29 Si9 1.615795 1_555
O30 Si10 1.629712 1_555
O31 Si11 1.675789 1_555
O32 Si4 1.600494 1_555
O33 Si5 1.685408 1_555
O34 Si6 1.667067 1_555
O35 Si7 1.629613 1_555
O36 Si8 1.600494 1_555
O37 Si9 1.685408 1_555
O38 Si10 1.667067 1_555
O39 Si11 1.629613 1_555
O40 Si0 1.644233 1_455
O41 Si0 1.648912 1_555
O42 Si1 1.649505 1_555
O43 Si1 1.608541 1_455
O44 Si2 1.644233 1_555
O45 Si2 1.648912 1_555
O46 Si3 1.649505 1_555
O47 Si3 1.608541 1_555
