# generated using pymatgen
data_Sr2MgFeOsO6
_symmetry_space_group_name_H-M   'P 1'
_cell_length_a   5.93439459
_cell_length_b   5.93514872
_cell_length_c   6.31376470
_cell_angle_alpha   61.95774629
_cell_angle_beta   61.93130058
_cell_angle_gamma   59.99406594
_symmetry_Int_Tables_number   1
_chemical_formula_structural   Sr2MgFeOsO6
_chemical_formula_sum   'Sr2 Mg1 Fe1 Os1 O6'
_cell_volume   161.70325698
_cell_formula_units_Z   1
loop_
 _symmetry_equiv_pos_site_id
 _symmetry_equiv_pos_as_xyz
  1  'x, y, z'
loop_
 _atom_site_type_symbol
 _atom_site_label
 _atom_site_symmetry_multiplicity
 _atom_site_fract_x
 _atom_site_fract_y
 _atom_site_fract_z
 _atom_site_occupancy
  Sr  Sr0  1  0.27999639  0.28017828  0.15967384  1
  Sr  Sr1  1  0.69273430  0.69230426  0.92282538  1
  Mg  Mg0  1  0.91189019  0.91184264  0.26445049  1
  Fe  Fe0  1  0.08330339  0.08325962  0.75017005  1
  Os  Os0  1  0.48753951  0.48758006  0.53728089  1
  O  O0  1  0.71895245  0.26451452  0.29769784  1
  O  O1  1  0.70754101  0.25200195  0.78831949  1
  O  O2  1  0.71897708  0.71882823  0.29770887  1
  O  O3  1  0.25177537  0.70757354  0.78847122  1
  O  O4  1  0.26453559  0.71885402  0.29777005  1
  O  O5  1  0.25180272  0.25211090  0.78848889  1
loop_
_geom_bond_atom_site_label_1
_geom_bond_atom_site_label_2
_geom_bond_distance
_geom_bond_site_symmetry_2
Mg0 O4 1.877775 1_655
Mg0 O0 1.877833 1_565
Mg0 O2 1.877856 1_555
Fe0 O5 1.876339 1_555
Fe0 O3 1.876355 1_545
Fe0 O1 1.876502 1_455
Fe0 Sr0 3.130570 1_555
O0 Os0 2.009109 1_555
O0 Sr1 2.524641 1_554
O0 Sr0 3.058809 1_655
O0 Sr0 3.061317 1_555
O1 Os0 2.051725 1_555
O1 Sr0 2.511741 1_556
O1 Sr1 3.055011 1_545
O1 Sr1 3.056932 1_555
O2 Os0 2.009083 1_555
O2 Sr1 2.524505 1_554
O2 Sr0 3.058660 1_655
O2 Sr0 3.061330 1_565
O3 Os0 2.051672 1_555
O3 Sr0 2.511997 1_556
O3 Sr1 3.051907 1_455
O3 Sr1 3.058603 1_555
O4 Os0 2.009240 1_555
O4 Sr1 2.524960 1_554
O4 Sr0 3.060562 1_565
O4 Sr0 3.060661 1_555
O5 Os0 2.051600 1_555
O5 Sr0 2.512376 1_556
O5 Sr1 3.052600 1_455
O5 Sr1 3.057601 1_545
