# generated using pymatgen
data_Er10Ru10C19
_symmetry_space_group_name_H-M   'P 1'
_cell_length_a   8.13133097
_cell_length_b   8.13133172
_cell_length_c   9.99000928
_cell_angle_alpha   70.87653899
_cell_angle_beta   70.87655380
_cell_angle_gamma   52.45800307
_symmetry_Int_Tables_number   1
_chemical_formula_structural   Er10Ru10C19
_chemical_formula_sum   'Er10 Ru10 C19'
_cell_volume   487.55820146
_cell_formula_units_Z   1
loop_
 _symmetry_equiv_pos_site_id
 _symmetry_equiv_pos_as_xyz
  1  'x, y, z'
loop_
 _atom_site_type_symbol
 _atom_site_label
 _atom_site_symmetry_multiplicity
 _atom_site_fract_x
 _atom_site_fract_y
 _atom_site_fract_z
 _atom_site_occupancy
  Er  Er0  1  -0.00033650  -0.00033556  0.01057776  1
  Er  Er1  1  0.47799821  0.47799881  0.01082388  1
  Er  Er2  1  0.32257764  0.32257800  0.38736590  1
  Er  Er3  1  0.51070165  0.51070237  0.63578447  1
  Er  Er4  1  0.01613785  0.01613712  0.61921721  1
  Er  Er5  1  0.82152897  0.82152845  0.40001526  1
  Er  Er6  1  0.62628975  0.62629074  0.26118924  1
  Er  Er7  1  0.75120761  0.75120790  0.76088220  1
  Er  Er8  1  0.14252343  0.14252262  0.23492528  1
  Er  Er9  1  0.25480258  0.25480217  0.78562222  1
  Ru  Ru0  1  0.46123862  0.89417441  0.01048922  1
  Ru  Ru1  1  0.22006179  0.72573442  0.41641608  1
  Ru  Ru2  1  0.72573453  0.22006220  0.41641651  1
  Ru  Ru3  1  0.41798112  0.93506204  0.60430553  1
  Ru  Ru4  1  0.02244308  0.59816073  0.15668490  1
  Ru  Ru5  1  0.59816138  0.02244255  0.15668505  1
  Ru  Ru6  1  0.67079916  0.09615882  0.86441503  1
  Ru  Ru7  1  0.09615898  0.67079898  0.86441551  1
  Ru  Ru8  1  0.93506214  0.41798129  0.60430597  1
  Ru  Ru9  1  0.89417462  0.46123879  0.01048924  1
  C  C0  1  0.78834528  0.78834541  0.01054051  1
  C  C1  1  0.39290814  0.18765771  0.01063068  1
  C  C2  1  0.18765765  0.39290816  0.01063068  1
  C  C3  1  0.35490658  0.86069349  0.44403682  1
  C  C4  1  0.86069317  0.35490666  0.44403721  1
  C  C5  1  0.08470372  0.56429753  0.57739685  1
  C  C6  1  0.56429750  0.08470329  0.57739718  1
  C  C7  1  0.45872448  0.95476079  0.36864494  1
  C  C8  1  0.95476058  0.45872449  0.36864514  1
  C  C9  1  0.63631460  0.13520784  0.65242780  1
  C  C10  1  0.18239033  0.68760274  0.21717981  1
  C  C11  1  0.28582480  0.79120739  0.80389140  1
  C  C12  1  0.79120738  0.28582482  0.80389116  1
  C  C13  1  0.28515270  0.78565302  0.17544388  1
  C  C14  1  0.68760313  0.18239036  0.21717954  1
  C  C15  1  0.78565344  0.28515296  0.17544384  1
  C  C16  1  0.36754089  0.86831080  0.84574438  1
  C  C17  1  0.86831067  0.36754106  0.84574417  1
  C  C18  1  0.13520836  0.63631464  0.65242756  1
loop_
_geom_bond_atom_site_label_1
_geom_bond_atom_site_label_2
_geom_bond_distance
_geom_bond_site_symmetry_2
Er6 Ru0 2.807782 1_555
Er6 Ru9 2.807787 1_555
Er6 Ru1 2.860046 1_555
Er6 Ru2 2.860048 1_555
Er6 Ru5 2.928099 1_565
Er6 Ru4 2.928104 1_655
Er7 Ru0 2.799173 1_556
Er7 Ru9 2.799174 1_556
Er7 Ru8 2.886466 1_555
Er7 Ru3 2.886469 1_555
Er7 Ru6 2.930450 1_565
Er7 Ru7 2.930454 1_655
C0 Ru5 2.213727 1_565
C0 Ru4 2.213729 1_655
C0 Ru7 2.216748 1_654
C0 Ru6 2.216748 1_564
C0 Ru9 2.241947 1_555
C0 Ru0 2.241948 1_555
C0 Er7 2.738786 1_554
C0 Er6 2.745003 1_555
C0 Er0 3.082889 1_665
C1 C2 1.475227 1_555
C1 Ru6 2.072128 1_554
C1 Ru5 2.073156 1_555
C1 Ru0 2.095106 1_545
C1 Er8 2.585215 1_555
C1 Er9 2.591248 1_554
C1 Er1 2.836711 1_555
C2 Ru7 2.072125 1_554
C2 Ru4 2.073152 1_555
C2 Ru9 2.095103 1_455
C2 Er8 2.585217 1_555
C2 Er9 2.591249 1_554
C2 Er1 2.836710 1_555
C3 C7 1.363019 1_555
C3 Ru1 2.084632 1_555
C3 Ru3 2.177747 1_555
C3 Er4 2.509158 1_565
C3 Er6 2.520592 1_555
C3 Er3 2.645332 1_555
C3 Er8 2.646147 1_565
C4 C8 1.363019 1_555
C4 Ru2 2.084626 1_555
C4 Ru8 2.177750 1_555
C4 Er4 2.509160 1_655
C4 Er6 2.520598 1_555
C4 Er3 2.645333 1_555
C4 Er8 2.646156 1_655
C5 Ru8 2.075741 1_455
C5 Ru1 2.176857 1_555
C5 Er7 2.563060 1_455
C5 Er2 2.571807 1_555
C5 Er5 2.587616 1_455
C5 Er9 2.605114 1_555
C6 C9 1.362264 1_555
C6 Ru3 2.075742 1_545
C6 Ru2 2.176861 1_555
C6 Er7 2.563055 1_545
C6 Er2 2.571810 1_555
C6 Er5 2.587620 1_545
C6 Er9 2.605111 1_555
C7 Ru5 2.120373 1_565
C7 Ru3 2.232593 1_555
C7 Er2 2.530105 1_565
C7 Er5 2.542295 1_555
C7 Er6 2.574450 1_555
C7 Er8 2.618475 1_565
C8 Ru4 2.120376 1_655
C8 Ru8 2.232596 1_555
C8 Er2 2.530103 1_655
C8 Er5 2.542292 1_555
C8 Er6 2.574454 1_555
C8 Er8 2.618481 1_655
C9 Ru6 2.122339 1_555
C9 Ru2 2.232939 1_555
C9 Er3 2.524164 1_555
C9 Er4 2.545787 1_655
C9 Er7 2.586090 1_545
C9 Er9 2.608946 1_555
C10 C13 1.368769 1_555
C10 Ru4 2.131060 1_555
C10 Ru1 2.251916 1_555
C10 Er2 2.615319 1_555
C10 Er0 2.624775 1_565
C10 Er1 2.644823 1_555
C10 Er5 2.651331 1_455
C11 C16 1.367796 1_555
C11 Ru7 2.131667 1_555
C11 Ru3 2.257971 1_555
C11 Er3 2.604094 1_555
C11 Er0 2.624770 1_566
C11 Er1 2.649245 1_556
C11 Er4 2.666403 1_565
C12 C17 1.367797 1_555
C12 Ru6 2.131667 1_555
C12 Ru8 2.257968 1_555
C12 Er3 2.604095 1_555
C12 Er0 2.624767 1_656
C12 Er1 2.649250 1_556
C12 Er4 2.666406 1_655
C13 Ru0 2.141348 1_555
C13 Ru1 2.241346 1_555
C13 Er6 2.560556 1_555
C13 Er8 2.587583 1_565
C13 Er0 2.614182 1_565
C13 Er1 2.765309 1_555
C14 C15 1.368771 1_555
C14 Ru5 2.131060 1_555
C14 Ru2 2.251924 1_555
C14 Er2 2.615324 1_555
C14 Er0 2.624769 1_655
C14 Er1 2.644824 1_555
C14 Er5 2.651335 1_545
C15 Ru9 2.141346 1_555
C15 Ru2 2.241350 1_555
C15 Er6 2.560559 1_555
C15 Er8 2.587582 1_655
C15 Er0 2.614179 1_655
C15 Er1 2.765314 1_555
C16 Ru0 2.139391 1_556
C16 Ru3 2.246287 1_555
C16 Er7 2.556139 1_555
C16 Er9 2.586628 1_565
C16 Er0 2.613756 1_566
C16 Er1 2.768812 1_556
C17 Ru9 2.139395 1_556
C17 Ru8 2.246281 1_555
C17 Er7 2.556139 1_555
C17 Er9 2.586631 1_655
C17 Er0 2.613753 1_656
C17 Er1 2.768815 1_556
C18 C5 1.362266 1_555
C18 Ru7 2.122345 1_555
C18 Ru1 2.232939 1_555
C18 Er3 2.524157 1_555
C18 Er4 2.545782 1_565
C18 Er7 2.586096 1_455
C18 Er9 2.608949 1_555
