# generated using pymatgen
data_Na10Sc4Si7Sn4S5O48
_symmetry_space_group_name_H-M   'P 1'
_cell_length_a   18.06624124
_cell_length_b   9.08059843
_cell_length_c   22.75653191
_cell_angle_alpha   90.02424019
_cell_angle_beta   88.96240139
_cell_angle_gamma   120.11691149
_symmetry_Int_Tables_number   1
_chemical_formula_structural   Na10Sc4Si7Sn4S5O48
_chemical_formula_sum   'Na30 Sc12 Si21 Sn12 S15 O144'
_cell_volume   3228.59178187
_cell_formula_units_Z   3
loop_
 _symmetry_equiv_pos_site_id
 _symmetry_equiv_pos_as_xyz
  1  'x, y, z'
loop_
 _atom_site_type_symbol
 _atom_site_label
 _atom_site_symmetry_multiplicity
 _atom_site_fract_x
 _atom_site_fract_y
 _atom_site_fract_z
 _atom_site_occupancy
  Na  Na0  1  0.18253212  0.37136308  0.24443434  1
  Na  Na1  1  0.68259011  0.37181757  0.24430376  1
  Na  Na2  1  0.99448115  0.62509961  0.25363858  1
  Na  Na3  1  0.49465324  0.62517847  0.25339781  1
  Na  Na4  1  0.49453738  0.36151211  0.75677063  1
  Na  Na5  1  0.18259835  0.99399400  0.74730762  1
  Na  Na6  1  0.68394960  0.99568844  0.74656032  1
  Na  Na7  1  0.65795794  0.34090592  0.58013530  1
  Na  Na8  1  0.01741089  0.70606474  0.58141741  1
  Na  Na9  1  0.82768990  0.95767344  0.59027917  1
  Na  Na10  1  0.49057109  0.67335624  0.91250477  1
  Na  Na11  1  0.99227103  0.67440045  0.91211155  1
  Na  Na12  1  0.84957019  0.03461036  0.90920876  1
  Na  Na13  1  0.16040318  0.29045819  0.92199796  1
  Na  Na14  1  0.49078986  0.31059947  0.41213198  1
  Na  Na15  1  0.98967609  0.30840960  0.41210580  1
  Na  Na16  1  0.34986995  0.66418751  0.40924853  1
  Na  Na17  1  0.85061243  0.66474571  0.41276043  1
  Na  Na18  1  0.01661331  0.00459040  0.49832876  1
  Na  Na19  1  0.51245364  0.99438521  0.49666188  1
  Na  Na20  1  0.00989482  0.01516599  0.00009955  1
  Na  Na21  1  0.51328799  0.03131283  0.99610050  1
  Na  Na22  1  0.33829769  0.32632710  0.83317245  1
  Na  Na23  1  0.83989441  0.33422832  0.82808926  1
  Na  Na24  1  0.33380129  0.33214203  0.33047741  1
  Na  Na25  1  0.83384541  0.33215794  0.33147325  1
  Na  Na26  1  0.17321466  0.65790094  0.16242876  1
  Na  Na27  1  0.67299524  0.65775956  0.16230083  1
  Na  Na28  1  0.17274212  0.67948452  0.66828568  1
  Na  Na29  1  0.67216102  0.68400867  0.66626475  1
  Sc  Sc0  1  0.00102277  0.00089073  0.35248249  1
  Sc  Sc1  1  0.50121614  0.00158222  0.35190482  1
  Sc  Sc2  1  0.99788532  0.99586386  0.85024840  1
  Sc  Sc3  1  0.49788236  0.00256981  0.85406755  1
  Sc  Sc4  1  0.33215070  0.32510721  0.68802736  1
  Sc  Sc5  1  0.83474327  0.33662882  0.68754829  1
  Sc  Sc6  1  0.33299261  0.34047491  0.18555147  1
  Sc  Sc7  1  0.83256861  0.34069672  0.18565699  1
  Sc  Sc8  1  0.16130229  0.65435306  0.01895592  1
  Sc  Sc9  1  0.65916662  0.64993111  0.01908353  1
  Sc  Sc10  1  0.16342569  0.66935750  0.51799030  1
  Sc  Sc11  1  0.66118777  0.66696680  0.51993268  1
  Si  Si0  1  0.35412587  0.71421529  0.25088936  1
  Si  Si1  1  0.85424885  0.71474652  0.25099252  1
  Si  Si2  1  0.99715081  0.29268888  0.25266317  1
  Si  Si3  1  0.49710496  0.29285717  0.25265683  1
  Si  Si4  1  0.99796396  0.69776124  0.75214966  1
  Si  Si5  1  0.49772845  0.70083249  0.75328838  1
  Si  Si6  1  0.35377017  0.99349856  0.75034148  1
  Si  Si7  1  0.85271876  0.99904937  0.75182014  1
  Si  Si8  1  0.18640878  0.03867440  0.58688991  1
  Si  Si9  1  0.68442932  0.03913996  0.58671175  1
  Si  Si10  1  0.83303152  0.62944657  0.58412871  1
  Si  Si11  1  0.18505425  0.33295351  0.08543702  1
  Si  Si12  1  0.68398104  0.33297314  0.08691714  1
  Si  Si13  1  0.01960366  0.37268483  0.91875325  1
  Si  Si14  1  0.51927950  0.36937108  0.91780485  1
  Si  Si15  1  0.16727571  0.96106691  0.91792542  1
  Si  Si16  1  0.66602447  0.96117677  0.91943435  1
  Si  Si17  1  0.16624900  0.37052359  0.41869806  1
  Si  Si18  1  0.66564515  0.36779124  0.41909770  1
  Si  Si19  1  0.01917717  0.66755412  0.41875600  1
  Si  Si20  1  0.51962271  0.66935298  0.41847089  1
  Sn  Sn0  1  0.99862936  0.98534724  0.65089831  1
  Sn  Sn1  1  0.49734819  0.97953390  0.65143144  1
  Sn  Sn2  1  0.00005049  0.01483729  0.14850026  1
  Sn  Sn3  1  0.49973560  0.01386216  0.14853255  1
  Sn  Sn4  1  0.32966494  0.31615963  0.98202247  1
  Sn  Sn5  1  0.82585030  0.32155563  0.98238273  1
  Sn  Sn6  1  0.32716545  0.33264440  0.48229560  1
  Sn  Sn7  1  0.82810892  0.34296200  0.48269720  1
  Sn  Sn8  1  0.16543577  0.65250789  0.31552181  1
  Sn  Sn9  1  0.66459991  0.65290759  0.31578695  1
  Sn  Sn10  1  0.16327966  0.67665467  0.81527730  1
  Sn  Sn11  1  0.66559396  0.67875509  0.81623141  1
  S  S0  1  0.14644629  0.99600083  0.24976117  1
  S  S1  1  0.64654392  0.99579292  0.24977333  1
  S  S2  1  0.14577547  0.29751254  0.74986707  1
  S  S3  1  0.64532432  0.29430181  0.74966874  1
  S  S4  1  0.47771853  0.32626554  0.58321060  1
  S  S5  1  0.97955582  0.32995020  0.58256863  1
  S  S6  1  0.33410656  0.62894951  0.58335721  1
  S  S7  1  0.47921512  0.63165850  0.08339149  1
  S  S8  1  0.97943027  0.63161941  0.08308028  1
  S  S9  1  0.33354562  0.03877940  0.08453119  1
  S  S10  1  0.83379169  0.03959459  0.08345379  1
  S  S11  1  0.31067449  0.66573908  0.91705580  1
  S  S12  1  0.81074255  0.66201007  0.91745142  1
  S  S13  1  0.31107717  0.95979706  0.41651181  1
  S  S14  1  0.81084007  0.96072116  0.41721614  1
  O  O0  1  0.10690135  0.02713476  0.30233218  1
  O  O1  1  0.60701110  0.02707952  0.30241291  1
  O  O2  1  0.41235345  0.79226668  0.30857201  1
  O  O3  1  0.91297840  0.79336197  0.30841767  1
  O  O4  1  0.48727360  0.18555809  0.31203981  1
  O  O5  1  0.98770715  0.18542308  0.31190355  1
  O  O6  1  0.10672646  0.19102343  0.80372053  1
  O  O7  1  0.60313957  0.18310643  0.80084794  1
  O  O8  1  0.48759101  0.79079410  0.81145295  1
  O  O9  1  0.99040557  0.79384430  0.81036222  1
  O  O10  1  0.41900305  0.03878020  0.80347416  1
  O  O11  1  0.90878488  0.02219853  0.80934721  1
  O  O12  1  0.39613856  0.97015346  0.68792417  1
  O  O13  1  0.89696851  0.97851037  0.68952707  1
  O  O14  1  0.09208544  0.21842858  0.69740942  1
  O  O15  1  0.59299848  0.22332035  0.69491585  1
  O  O16  1  0.02357729  0.82394284  0.69266989  1
  O  O17  1  0.52645434  0.82943031  0.69477237  1
  O  O18  1  0.40099742  0.82805724  0.19125105  1
  O  O19  1  0.90108043  0.82860047  0.19108212  1
  O  O20  1  0.02586800  0.21733608  0.19589755  1
  O  O21  1  0.52529569  0.21624903  0.19620280  1
  O  O22  1  0.09186314  0.96138414  0.19704919  1
  O  O23  1  0.59188862  0.96098423  0.19722424  1
  O  O24  1  0.43592628  0.34873143  0.63596858  1
  O  O25  1  0.93723805  0.35622961  0.63355634  1
  O  O26  1  0.24199231  0.13040841  0.64403358  1
  O  O27  1  0.74164679  0.12408574  0.64404246  1
  O  O28  1  0.32475901  0.52202311  0.63443283  1
  O  O29  1  0.81811010  0.49985029  0.63701533  1
  O  O30  1  0.43734425  0.52502387  0.13688614  1
  O  O31  1  0.93726504  0.52533074  0.13632303  1
  O  O32  1  0.32456906  0.12572432  0.13639730  1
  O  O33  1  0.82558209  0.12925874  0.13483720  1
  O  O34  1  0.23951246  0.34581770  0.14346917  1
  O  O35  1  0.73815937  0.34697590  0.14544610  1
  O  O36  1  0.22980011  0.30524026  0.02435244  1
  O  O37  1  0.72929407  0.30191037  0.02771949  1
  O  O38  1  0.42760986  0.54941883  0.02996153  1
  O  O39  1  0.92836186  0.55063106  0.02926461  1
  O  O40  1  0.35123933  0.14527918  0.02958699  1
  O  O41  1  0.85050105  0.14376641  0.02763925  1
  O  O42  1  0.23044766  0.15522182  0.52644289  1
  O  O43  1  0.72763636  0.16508243  0.52756539  1
  O  O44  1  0.35026037  0.55780645  0.52703303  1
  O  O45  1  0.85907684  0.56205150  0.52283093  1
  O  O46  1  0.42769359  0.30506892  0.52890865  1
  O  O47  1  0.92752088  0.29945806  0.52782862  1
  O  O48  1  0.27033601  0.68722811  0.97010490  1
  O  O49  1  0.77055376  0.68726426  0.96974591  1
  O  O50  1  0.08277684  0.45789068  0.97322488  1
  O  O51  1  0.57870636  0.46476059  0.97284033  1
  O  O52  1  0.15245149  0.83453854  0.97234968  1
  O  O53  1  0.65556475  0.83645729  0.97336982  1
  O  O54  1  0.27056532  0.85508720  0.46922834  1
  O  O55  1  0.77149641  0.85605929  0.47056974  1
  O  O56  1  0.15497701  0.47357050  0.47276440  1
  O  O57  1  0.65326425  0.46011470  0.47652502  1
  O  O58  1  0.07518024  0.69134944  0.47637492  1
  O  O59  1  0.57949866  0.69313212  0.47281227  1
  O  O60  1  0.06253948  0.63491370  0.35812642  1
  O  O61  1  0.55874013  0.63107302  0.35662346  1
  O  O62  1  0.25897289  0.88549876  0.36304485  1
  O  O63  1  0.75792404  0.88377932  0.36406288  1
  O  O64  1  0.19125737  0.49022040  0.35744317  1
  O  O65  1  0.68920827  0.49184577  0.35923342  1
  O  O66  1  0.06096573  0.49527042  0.85965158  1
  O  O67  1  0.55910645  0.48889571  0.85629425  1
  O  O68  1  0.18641258  0.89097671  0.85555242  1
  O  O69  1  0.69169051  0.89256181  0.85782537  1
  O  O70  1  0.25677357  0.63104976  0.86402823  1
  O  O71  1  0.75932572  0.63214647  0.86348859  1
  O  O72  1  0.00006639  0.82279985  0.41272754  1
  O  O73  1  0.49851475  0.82180153  0.41286178  1
  O  O74  1  0.39628836  0.97351461  0.41096247  1
  O  O75  1  0.89611133  0.97386259  0.41096874  1
  O  O76  1  0.07951905  0.18787175  0.41294684  1
  O  O77  1  0.57858921  0.18547641  0.41235073  1
  O  O78  1  0.00397025  0.18059068  0.91219618  1
  O  O79  1  0.50434604  0.18036979  0.91181634  1
  O  O80  1  0.08166426  0.98102100  0.91301722  1
  O  O81  1  0.57939044  0.97036476  0.91285133  1
  O  O82  1  0.39699063  0.81456653  0.91098211  1
  O  O83  1  0.89679973  0.81833006  0.91174303  1
  O  O84  1  0.48872097  0.17468196  0.58732355  1
  O  O85  1  0.98798886  0.17612689  0.58818739  1
  O  O86  1  0.09025055  0.02427503  0.58906875  1
  O  O87  1  0.59030842  0.03732763  0.58955444  1
  O  O88  1  0.41283676  0.80183279  0.58583101  1
  O  O89  1  0.91859506  0.82312274  0.58763614  1
  O  O90  1  0.48631276  0.80139960  0.08815220  1
  O  O91  1  0.98677131  0.80201319  0.08767789  1
  O  O92  1  0.41159614  0.02069367  0.08724253  1
  O  O93  1  0.91247331  0.02265065  0.08619746  1
  O  O94  1  0.08955448  0.15044709  0.08709250  1
  O  O95  1  0.58883870  0.15095310  0.08799737  1
  O  O96  1  0.33956041  0.15961459  0.74427026  1
  O  O97  1  0.83387160  0.15604988  0.74613693  1
  O  O98  1  0.23036579  0.31031102  0.74320189  1
  O  O99  1  0.72985287  0.30881233  0.74374805  1
  O  O100  1  0.41643300  0.51083546  0.74379261  1
  O  O101  1  0.91377150  0.51401771  0.74517591  1
  O  O102  1  0.33988723  0.51995085  0.24432630  1
  O  O103  1  0.84039408  0.52072476  0.24437635  1
  O  O104  1  0.41580980  0.32095587  0.24418674  1
  O  O105  1  0.91594800  0.32088182  0.24400665  1
  O  O106  1  0.23172491  0.14940813  0.24272358  1
  O  O107  1  0.73192401  0.14889671  0.24278997  1
  O  O108  1  0.32050738  0.50974919  0.92191367  1
  O  O109  1  0.82620162  0.51515178  0.92246473  1
  O  O110  1  0.42716625  0.37580435  0.92446430  1
  O  O111  1  0.92593348  0.36859693  0.92673417  1
  O  O112  1  0.25034065  0.15896917  0.92046337  1
  O  O113  1  0.75617150  0.14963828  0.92167151  1
  O  O114  1  0.32590641  0.13682836  0.42164036  1
  O  O115  1  0.82520941  0.13616805  0.42253039  1
  O  O116  1  0.25593837  0.36182795  0.42132131  1
  O  O117  1  0.75486189  0.35792344  0.41941282  1
  O  O118  1  0.42538136  0.48156883  0.42497687  1
  O  O119  1  0.92651508  0.47910074  0.42222534  1
  O  O120  1  0.17640015  0.50190156  0.08009584  1
  O  O121  1  0.67587353  0.50229980  0.08111669  1
  O  O122  1  0.06523849  0.64977162  0.07897339  1
  O  O123  1  0.56516757  0.65042067  0.07951159  1
  O  O124  1  0.25643709  0.87101526  0.07907079  1
  O  O125  1  0.75712681  0.87133933  0.07884089  1
  O  O126  1  0.17091139  0.84510021  0.58033049  1
  O  O127  1  0.67695205  0.85474699  0.57838560  1
  O  O128  1  0.25728901  0.64471501  0.57812345  1
  O  O129  1  0.74815038  0.64787966  0.57810028  1
  O  O130  1  0.06493406  0.48552272  0.57715939  1
  O  O131  1  0.56459996  0.47964542  0.57940926  1
  O  O132  1  0.15407613  0.84166996  0.25661087  1
  O  O133  1  0.65411553  0.84147875  0.25679361  1
  O  O134  1  0.25794159  0.69580440  0.25452216  1
  O  O135  1  0.75790056  0.69558907  0.25508311  1
  O  O136  1  0.08480085  0.48904577  0.25396297  1
  O  O137  1  0.58488212  0.48880203  0.25395301  1
  O  O138  1  0.15690750  0.46962540  0.75581790  1
  O  O139  1  0.65315945  0.46480781  0.75595948  1
  O  O140  1  0.08820096  0.68991157  0.75277151  1
  O  O141  1  0.58508128  0.67970890  0.75390038  1
  O  O142  1  0.25869918  0.81972874  0.75519904  1
  O  O143  1  0.75758396  0.81784645  0.75431720  1
loop_
_geom_bond_atom_site_label_1
_geom_bond_atom_site_label_2
_geom_bond_distance
_geom_bond_site_symmetry_2
Na0 O102 2.460206 1_555
Na0 O136 2.487142 1_555
Na0 O34 2.558531 1_555
Na0 O134 2.563446 1_555
Na0 O106 2.578712 1_555
Na0 O20 2.706709 1_555
Na0 O64 2.764943 1_555
Na1 O103 2.467338 1_555
Na1 O137 2.481979 1_555
Na1 O35 2.502949 1_555
Na1 O135 2.559760 1_555
Na1 O107 2.588928 1_555
Na1 O21 2.711445 1_555
Na1 O65 2.814373 1_555
Na2 O105 2.402047 1_555
Na2 O103 2.462816 1_555
Na2 O136 2.492480 1_655
Na2 O132 2.549912 1_655
Na2 O60 2.677562 1_655
Na2 O31 2.859134 1_555
Na2 O3 2.871631 1_555
Na2 O22 2.934003 1_655
Na3 O104 2.401223 1_555
Na3 O102 2.472467 1_555
Na3 O137 2.493497 1_555
Na3 O133 2.548096 1_555
Na3 O61 2.626340 1_555
Na3 O30 2.842790 1_555
Na3 O2 2.878184 1_555
Na3 O23 2.926555 1_555
Na4 O100 2.419169 1_555
Na4 O96 2.481618 1_555
Na4 O141 2.506376 1_555
Na4 O139 2.528445 1_555
Na4 O67 2.562715 1_555
Na4 O10 2.741713 1_555
Na4 O24 2.945119 1_555
Na4 O15 2.977938 1_555
Na5 O140 2.411493 1_555
Na5 O96 2.453787 1_565
Na5 O98 2.552180 1_565
Na5 O142 2.572753 1_555
Na5 O26 2.605057 1_565
Na5 O68 2.649594 1_555
Na5 O16 2.803543 1_555
Na6 O97 2.344718 1_565
Na6 O141 2.509495 1_555
Na6 O99 2.531481 1_565
Na6 O143 2.563870 1_555
Na6 O27 2.565772 1_565
Na6 O69 2.730167 1_555
Na6 O17 2.751952 1_555
Na7 O87 2.397681 1_555
Na7 O129 2.422120 1_555
Na7 O131 2.562340 1_555
Na7 O57 2.615293 1_555
Na7 O84 2.646516 1_555
Na7 O43 2.743290 1_555
Na7 O15 2.823787 1_555
Na7 O29 2.841367 1_555
Na8 O126 2.401887 1_555
Na8 O89 2.496398 1_455
Na8 O86 2.510665 1_565
Na8 O130 2.545476 1_555
Na8 O58 2.621157 1_555
Na8 O16 2.730575 1_555
Na8 O45 2.837743 1_455
Na8 O25 2.986752 1_455
Na9 O127 2.415618 1_555
Na9 O129 2.452025 1_555
Na9 O89 2.490711 1_555
Na9 O85 2.560104 1_565
Na9 O13 2.562747 1_555
Na9 O27 2.912665 1_565
Na10 O81 2.346537 1_555
Na10 O110 2.360104 1_555
Na10 O8 2.548020 1_555
Na10 O82 2.584841 1_555
Na10 O108 2.662425 1_555
Na10 O67 2.827914 1_555
Na10 O38 2.883164 1_556
Na10 O53 2.952062 1_555
Na11 O80 2.418594 1_655
Na11 O111 2.429958 1_555
Na11 O9 2.565256 1_555
Na11 O109 2.601715 1_555
Na11 O83 2.635518 1_555
Na11 O66 2.753504 1_655
Na11 O52 2.878734 1_655
Na11 O39 2.879689 1_556
Na12 O113 2.402038 1_555
Na12 O78 2.416364 1_655
Na12 O83 2.504408 1_545
Na12 O11 2.520744 1_555
Na12 O111 2.660882 1_555
Na12 O69 2.755730 1_545
Na12 O41 2.868589 1_556
Na13 O80 2.441219 1_545
Na13 O112 2.451885 1_555
Na13 O78 2.495069 1_555
Na13 O108 2.559566 1_555
Na13 O36 2.636632 1_556
Na13 O50 2.777832 1_555
Na13 O6 2.866020 1_555
Na13 O70 2.975458 1_555
Na14 O77 2.369787 1_555
Na14 O118 2.391705 1_555
Na14 O4 2.532212 1_555
Na14 O114 2.582643 1_555
Na14 O74 2.653690 1_545
Na14 O61 2.816587 1_555
Na14 O46 2.863009 1_555
Na14 O57 2.959965 1_555
Na15 O119 2.350024 1_555
Na15 O76 2.370015 1_655
Na15 O5 2.531595 1_555
Na15 O115 2.577254 1_555
Na15 O75 2.633439 1_545
Na15 O47 2.829148 1_555
Na15 O60 2.839014 1_655
Na15 O56 2.953981 1_655
Na16 O73 2.327586 1_555
Na16 O116 2.408659 1_555
Na16 O74 2.496356 1_555
Na16 O2 2.543011 1_555
Na16 O118 2.650945 1_555
Na16 O64 2.770320 1_555
Na16 O44 2.850841 1_555
Na17 O72 2.336940 1_655
Na17 O117 2.435587 1_555
Na17 O75 2.497963 1_555
Na17 O3 2.618504 1_555
Na17 O119 2.664474 1_555
Na17 O45 2.706673 1_555
Na17 O65 2.825649 1_555
Na18 O76 2.421024 1_555
Na18 O86 2.434388 1_555
Na18 O72 2.476327 1_545
Na18 O89 2.631669 1_445
Na18 O85 2.764522 1_455
Na18 O75 2.883771 1_445
Na19 O73 2.403099 1_555
Na19 O77 2.441090 1_565
Na19 O87 2.481053 1_565
Na19 O88 2.669566 1_555
Na19 O84 2.791126 1_565
Na19 O74 2.827097 1_555
Na20 O94 2.413758 1_555
Na20 O80 2.452403 1_544
Na20 O78 2.537928 1_554
Na20 O93 2.633670 1_455
Na20 O91 2.656036 1_445
Na20 O83 2.809475 1_444
Na21 O79 2.402033 1_555
Na21 O81 2.429383 1_545
Na21 O95 2.455602 1_556
Na21 O92 2.714911 1_556
Na21 O90 2.816022 1_546
Na21 O82 2.834511 1_545
Na22 O112 2.499070 1_555
Na22 O96 2.532905 1_555
Na22 O100 2.542103 1_555
Na22 O110 2.547868 1_555
Na22 O108 2.732485 1_555
Na22 O98 2.806247 1_555
Na23 O101 2.394064 1_555
Na23 O97 2.436354 1_555
Na23 O113 2.640973 1_555
Na23 O111 2.681739 1_555
Na23 O99 2.714165 1_555
Na23 O109 2.785382 1_555
Na24 O104 2.471220 1_555
Na24 O102 2.563386 1_555
Na24 O116 2.569024 1_555
Na24 O118 2.660184 1_555
Na24 O106 2.683627 1_555
Na24 O114 2.684806 1_555
Na25 O105 2.493546 1_555
Na25 O117 2.515333 1_555
Na25 O103 2.581756 1_555
Na25 O119 2.594127 1_555
Na25 O115 2.682953 1_555
Na25 O107 2.699881 1_555
Na26 O120 2.365599 1_555
Na26 O134 2.537801 1_555
Na26 O124 2.565907 1_555
Na26 O136 2.581801 1_555
Na26 O122 2.721600 1_555
Na26 O132 2.836711 1_555
Na27 O121 2.340221 1_555
Na27 O135 2.552809 1_555
Na27 O125 2.572768 1_555
Na27 O137 2.582547 1_555
Na27 O123 2.711324 1_555
Na27 O133 2.839867 1_555
Na28 O142 2.463681 1_555
Na28 O140 2.465109 1_555
Na28 O126 2.514729 1_555
Na28 O128 2.648109 1_555
Na28 O138 2.667697 1_555
Na28 O130 2.810082 1_555
Na29 O143 2.470127 1_555
Na29 O127 2.504443 1_555
Na29 O141 2.505685 1_555
Na29 O129 2.523749 1_555
Na29 O139 2.745621 1_555
Na29 O131 2.764725 1_555
O0 S0 1.480879 1_545
O0 Sc0 2.117040 1_555
O1 S1 1.482603 1_545
O1 Sc1 2.110303 1_555
O2 Si0 1.622658 1_555
O2 Sc1 2.038627 1_565
O3 Si1 1.622473 1_555
O3 Sc0 2.033466 1_665
O4 Si3 1.620428 1_555
O4 Sc1 2.027125 1_555
O5 Si2 1.619030 1_555
O5 Sc0 2.032815 1_655
O6 S2 1.489880 1_555
O6 Sc2 2.134799 1_445
O7 S3 1.467447 1_555
O7 Sc3 2.135467 1_555
O8 Si5 1.610374 1_555
O8 Sc3 2.078285 1_565
O9 Si4 1.626896 1_555
O9 Sc2 1.990385 1_555
O10 Si6 1.607736 1_545
O10 Sc3 1.998606 1_555
O11 Si7 1.618044 1_545
O11 Sc2 1.988827 1_545
O12 Si6 1.664806 1_555
O12 Sn1 1.956782 1_555
O13 Si7 1.670851 1_555
O13 Sn0 1.994229 1_555
O14 S2 1.491240 1_555
O14 Sn0 2.219751 1_445
O15 S3 1.513966 1_555
O15 Sn1 2.255457 1_545
O16 Si4 1.675007 1_455
O16 Sn0 1.983553 1_455
O17 Si5 1.665622 1_555
O17 Sn1 1.961201 1_555
O18 Si0 1.645809 1_555
O18 Sn3 1.972821 1_565
O19 Si1 1.650771 1_555
O19 Sn2 1.974873 1_665
O20 Si2 1.654482 1_455
O20 Sn2 1.979392 1_555
O21 Si3 1.650713 1_555
O21 Sn3 1.983014 1_555
O22 S0 1.497191 1_555
O22 Sn2 2.254394 1_565
O23 S1 1.494710 1_555
O23 Sn3 2.258226 1_565
O24 S4 1.474664 1_555
O24 Sc4 2.116753 1_555
O25 S5 1.462350 1_555
O25 Sc5 2.134743 1_555
O26 Si8 1.612523 1_555
O26 Sc4 1.987153 1_555
O27 Si9 1.616621 1_555
O27 Sc5 2.082084 1_555
O28 S6 1.466806 1_555
O28 Sc4 2.224869 1_555
O29 Si10 1.605334 1_555
O29 Sc5 2.017517 1_555
O30 S7 1.491430 1_555
O30 Sc6 2.084329 1_555
O31 S8 1.486469 1_555
O31 Sc7 2.095534 1_555
O32 S9 1.470880 1_555
O32 Sc6 2.187152 1_555
O33 S10 1.471838 1_555
O33 Sc7 2.190874 1_555
O34 Si11 1.630098 1_555
O34 Sc6 1.977990 1_555
O35 Si12 1.634133 1_555
O35 Sc7 1.975827 1_555
O36 Si11 1.676987 1_555
O36 Sn4 1.987570 1_554
O37 Si12 1.660109 1_555
O37 Sn5 1.939560 1_554
O38 S7 1.498950 1_555
O38 Sn4 2.261508 1_554
O39 S8 1.500367 1_555
O39 Sn5 2.258042 1_554
O40 S9 1.509005 1_555
O40 Sn4 2.086844 1_554
O41 S10 1.516499 1_555
O41 Sn5 2.145908 1_554
O42 Si8 1.661875 1_555
O42 Sn6 1.941863 1_555
O43 Si9 1.672193 1_555
O43 Sn7 1.984529 1_555
O44 S6 1.523263 1_555
O44 Sn6 2.132718 1_555
O45 Si10 1.675184 1_555
O45 Sn7 2.001271 1_555
O46 S4 1.498841 1_555
O46 Sn6 2.238912 1_555
O47 S5 1.514287 1_555
O47 Sn7 2.283774 1_555
O48 S11 1.461912 1_555
O48 Sc8 2.129795 1_556
O49 S12 1.459972 1_555
O49 Sc9 2.158454 1_556
O50 Si13 1.613085 1_555
O50 Sc8 1.946876 1_556
O51 Si14 1.608114 1_555
O51 Sc9 1.910179 1_556
O52 Si15 1.614347 1_555
O52 Sc8 2.024283 1_556
O53 Si16 1.613322 1_555
O53 Sc9 2.017382 1_556
O54 S13 1.466184 1_555
O54 Sc10 2.114263 1_555
O55 S14 1.474591 1_555
O55 Sc11 2.160622 1_555
O56 Si17 1.616177 1_555
O56 Sc10 1.993774 1_555
O57 Si18 1.624002 1_555
O57 Sc11 2.063526 1_555
O58 Si19 1.618035 1_555
O58 Sc10 1.962841 1_555
O59 Si20 1.599945 1_555
O59 Sc11 1.947748 1_555
O60 Si19 1.672932 1_555
O60 Sn8 2.014454 1_555
O61 Si20 1.676667 1_555
O61 Sn9 2.028737 1_555
O62 S13 1.491694 1_555
O62 Sn8 2.231087 1_555
O63 S14 1.495340 1_555
O63 Sn9 2.227705 1_555
O64 Si17 1.677580 1_555
O64 Sn8 2.001651 1_555
O65 Si18 1.674851 1_555
O65 Sn9 1.995954 1_555
O66 Si13 1.654239 1_555
O66 Sn10 2.006939 1_555
O67 Si14 1.684094 1_555
O67 Sn11 2.028286 1_555
O68 Si15 1.655770 1_555
O68 Sn10 1.999599 1_555
O69 Si16 1.683593 1_555
O69 Sn11 1.995903 1_555
O70 S11 1.496021 1_555
O70 Sn10 2.241758 1_555
O71 S12 1.494206 1_555
O71 Sn11 2.233548 1_555
O72 Si19 1.617302 1_555
O72 Sc0 2.113782 1_565
O73 Si20 1.615470 1_555
O73 Sc1 2.123968 1_565
O74 S13 1.483878 1_555
O74 Sc1 2.210840 1_565
O75 S14 1.488384 1_555
O75 Sc0 2.205927 1_665
O76 Si17 1.619388 1_555
O76 Sc0 2.107028 1_555
O77 Si18 1.622814 1_555
O77 Sc1 2.088006 1_555
O78 Si13 1.628381 1_555
O78 Sc2 2.152142 1_445
O79 Si14 1.604159 1_555
O79 Sc3 2.040080 1_555
O80 Si15 1.650767 1_555
O80 Sc2 2.152342 1_455
O81 Si16 1.618224 1_555
O81 Sc3 2.132421 1_565
O82 S11 1.467894 1_555
O82 Sc3 2.169783 1_565
O83 S12 1.492354 1_555
O83 Sc2 2.201643 1_555
O84 S4 1.489394 1_555
O84 Sn1 2.362287 1_545
O85 S5 1.484941 1_555
O85 Sn0 2.328290 1_545
O86 Si8 1.675236 1_555
O86 Sn0 2.042896 1_445
O87 Si9 1.692273 1_555
O87 Sn1 2.027115 1_545
O88 S6 1.500936 1_555
O88 Sn1 2.184402 1_555
O89 Si10 1.662844 1_555
O89 Sn0 2.066232 1_555
O90 S7 1.485248 1_555
O90 Sn3 2.282385 1_565
O91 S8 1.488972 1_555
O91 Sn2 2.291860 1_665
O92 S9 1.501551 1_555
O92 Sn3 2.159718 1_555
O93 S10 1.506946 1_555
O93 Sn2 2.170826 1_655
O94 Si11 1.689074 1_555
O94 Sn2 2.001316 1_555
O95 Si12 1.683585 1_555
O95 Sn3 1.987169 1_555
O96 Si6 1.658442 1_545
O96 Sc4 2.030784 1_555
O97 Si7 1.629130 1_545
O97 Sc5 2.107575 1_555
O98 S2 1.478304 1_555
O98 Sc4 2.155125 1_555
O99 S3 1.469089 1_555
O99 Sc5 2.173133 1_555
O100 Si5 1.627481 1_555
O100 Sc4 2.065038 1_555
O101 Si4 1.607589 1_555
O101 Sc5 2.027559 1_555
O102 Si0 1.657134 1_555
O102 Sc6 2.064220 1_555
O103 Si1 1.657700 1_555
O103 Sc7 2.061809 1_555
O104 Si3 1.626558 1_555
O104 Sc6 2.095018 1_555
O105 Si2 1.626017 1_555
O105 Sc7 2.099824 1_555
O106 S0 1.475570 1_545
O106 Sc6 2.186403 1_555
O107 S1 1.475349 1_545
O107 Sc7 2.183615 1_555
O108 S11 1.517748 1_555
O108 Sn4 2.300167 1_555
O109 S12 1.498148 1_555
O109 Sn5 2.222659 1_555
O110 Si14 1.698281 1_555
O110 Sn4 2.017779 1_555
O111 Si13 1.680467 1_655
O111 Sn5 2.048882 1_555
O112 Si15 1.667791 1_545
O112 Sn4 2.017879 1_555
O113 Si16 1.670223 1_545
O113 Sn5 2.004876 1_555
O114 S13 1.496125 1_545
O114 Sn6 2.241865 1_555
O115 S14 1.485299 1_545
O115 Sn7 2.303326 1_555
O116 Si17 1.663501 1_555
O116 Sn6 2.014601 1_555
O117 Si18 1.658726 1_555
O117 Sn7 2.023156 1_555
O118 Si20 1.704698 1_555
O118 Sn6 2.046530 1_555
O119 Si19 1.690440 1_655
O119 Sn7 2.071216 1_555
O120 Si11 1.623079 1_555
O120 Sc8 2.078687 1_555
O121 Si12 1.621707 1_555
O121 Sc9 2.074640 1_555
O122 S8 1.475621 1_455
O122 Sc8 2.172754 1_555
O123 S7 1.475697 1_555
O123 Sc9 2.167469 1_555
O124 S9 1.467389 1_565
O124 Sc8 2.320708 1_555
O125 S10 1.464659 1_565
O125 Sc9 2.353221 1_555
O126 Si8 1.642509 1_565
O126 Sc10 2.089505 1_555
O127 Si9 1.622169 1_565
O127 Sc11 2.069425 1_555
O128 S6 1.471755 1_555
O128 Sc10 2.294198 1_555
O129 Si10 1.632064 1_555
O129 Sc11 2.144598 1_555
O130 S5 1.482091 1_455
O130 Sc10 2.167977 1_555
O131 S4 1.487399 1_555
O131 Sc11 2.169784 1_555
O132 S0 1.483943 1_555
O132 Sn8 2.270580 1_555
O133 S1 1.483616 1_555
O133 Sn9 2.259842 1_555
O134 Si0 1.660608 1_555
O134 Sn8 2.032631 1_555
O135 Si1 1.661043 1_555
O135 Sn9 2.039669 1_555
O136 Si2 1.689917 1_455
O136 Sn8 2.046956 1_555
O137 Si3 1.688670 1_555
O137 Sn9 2.047607 1_555
O138 S2 1.478777 1_555
O138 Sn10 2.272580 1_555
O139 S3 1.489416 1_555
O139 Sn11 2.297168 1_555
O140 Si4 1.667461 1_455
O140 Sn10 2.027666 1_555
O141 Si5 1.682879 1_555
O141 Sn11 2.053087 1_555
O142 Si6 1.650951 1_555
O142 Sn10 2.048755 1_555
O143 Si7 1.680239 1_555
O143 Sn11 2.037791 1_555
