# generated using pymatgen
data_Na14Mg4Zn4Si3(S3O16)3
_symmetry_space_group_name_H-M   'P 1'
_cell_length_a   18.14667892
_cell_length_b   9.06364936
_cell_length_c   21.99978352
_cell_angle_alpha   90.29785981
_cell_angle_beta   89.46216057
_cell_angle_gamma   119.92969297
_symmetry_Int_Tables_number   1
_chemical_formula_structural   Na14Mg4Zn4Si3(S3O16)3
_chemical_formula_sum   'Na42 Mg12 Zn12 Si9 S27 O144'
_cell_volume   3135.72033982
_cell_formula_units_Z   3
loop_
 _symmetry_equiv_pos_site_id
 _symmetry_equiv_pos_as_xyz
  1  'x, y, z'
loop_
 _atom_site_type_symbol
 _atom_site_label
 _atom_site_symmetry_multiplicity
 _atom_site_fract_x
 _atom_site_fract_y
 _atom_site_fract_z
 _atom_site_occupancy
  Na  Na0  1  0.80780904  0.99693278  0.25679717  1
  Na  Na1  1  0.18290746  0.36917263  0.25684917  1
  Na  Na2  1  0.68069326  0.34581687  0.25207779  1
  Na  Na3  1  0.99920804  0.62867872  0.23988891  1
  Na  Na4  1  0.50687400  0.65398927  0.24590590  1
  Na  Na5  1  0.31040879  0.62264514  0.75691336  1
  Na  Na6  1  0.00503281  0.36046721  0.74515719  1
  Na  Na7  1  0.50683980  0.36517988  0.73813620  1
  Na  Na8  1  0.18156872  0.01646191  0.75145106  1
  Na  Na9  1  0.67834442  0.00637668  0.75994027  1
  Na  Na10  1  0.14749077  0.33104940  0.58607152  1
  Na  Na11  1  0.64301551  0.33456959  0.59241542  1
  Na  Na12  1  0.34239783  0.99121851  0.58433955  1
  Na  Na13  1  0.83095235  0.95684129  0.57875200  1
  Na  Na14  1  0.14494753  0.95261449  0.08155188  1
  Na  Na15  1  0.64804161  0.96273788  0.08007675  1
  Na  Na16  1  0.33237205  0.70813040  0.07329574  1
  Na  Na17  1  0.84095722  0.68984170  0.07848660  1
  Na  Na18  1  0.48463488  0.68401415  0.91532598  1
  Na  Na19  1  0.98182974  0.66084175  0.92500039  1
  Na  Na20  1  0.34864488  0.01283701  0.91771054  1
  Na  Na21  1  0.83838001  0.02635664  0.91144221  1
  Na  Na22  1  0.17316533  0.32338194  0.90381537  1
  Na  Na23  1  0.66484105  0.27996831  0.90680752  1
  Na  Na24  1  0.48361947  0.30412410  0.42959697  1
  Na  Na25  1  0.98368413  0.28447978  0.42166830  1
  Na  Na26  1  0.16757145  0.04775053  0.41957588  1
  Na  Na27  1  0.67272105  0.02497176  0.40887649  1
  Na  Na28  1  0.34091094  0.65126626  0.41764523  1
  Na  Na29  1  0.84455723  0.68137577  0.42395876  1
  Na  Na30  1  0.99844083  0.00177668  0.49808964  1
  Na  Na31  1  0.50173707  0.99576377  0.50982006  1
  Na  Na32  1  0.99874986  0.99982603  0.00507870  1
  Na  Na33  1  0.50075165  0.99877958  0.99321044  1
  Na  Na34  1  0.32868129  0.35096862  0.83111429  1
  Na  Na35  1  0.81957148  0.32553667  0.83096973  1
  Na  Na36  1  0.32833067  0.32623657  0.33568325  1
  Na  Na37  1  0.82406340  0.30152924  0.33380946  1
  Na  Na38  1  0.15851863  0.66080943  0.16021840  1
  Na  Na39  1  0.66104811  0.66812513  0.16521662  1
  Na  Na40  1  0.16171307  0.65552374  0.66801384  1
  Na  Na41  1  0.65690866  0.63997488  0.66732449  1
  Mg  Mg0  1  0.99930603  0.00755229  0.35476860  1
  Mg  Mg1  1  0.50387126  0.00286933  0.34377125  1
  Mg  Mg2  1  0.00391019  0.00589682  0.84307688  1
  Mg  Mg3  1  0.50565465  0.99755684  0.85263916  1
  Mg  Mg4  1  0.33783616  0.34047436  0.68085712  1
  Mg  Mg5  1  0.83533436  0.33488342  0.17976959  1
  Mg  Mg6  1  0.33428994  0.33953853  0.98308192  1
  Mg  Mg7  1  0.83377109  0.33260362  0.98568564  1
  Mg  Mg8  1  0.33398149  0.33663082  0.48735483  1
  Mg  Mg9  1  0.83434304  0.32913418  0.48454431  1
  Mg  Mg10  1  0.66849777  0.68582803  0.31737084  1
  Mg  Mg11  1  0.16851680  0.65244678  0.81701649  1
  Zn  Zn0  1  0.00470003  0.00031977  0.65911427  1
  Zn  Zn1  1  0.50619966  0.03555307  0.65359893  1
  Zn  Zn2  1  0.99898300  0.98850624  0.14804016  1
  Zn  Zn3  1  0.50598139  0.00884832  0.15710703  1
  Zn  Zn4  1  0.82403001  0.34170854  0.68598287  1
  Zn  Zn5  1  0.33588806  0.33055348  0.17990288  1
  Zn  Zn6  1  0.16245411  0.65689171  0.01534320  1
  Zn  Zn7  1  0.66324689  0.66625319  0.00611049  1
  Zn  Zn8  1  0.16155897  0.65302770  0.51235826  1
  Zn  Zn9  1  0.66285566  0.66829031  0.51769451  1
  Zn  Zn10  1  0.17111308  0.66044448  0.32608428  1
  Zn  Zn11  1  0.67128570  0.67025600  0.81733229  1
  Si  Si0  1  0.65157809  0.00063705  0.24693749  1
  Si  Si1  1  0.15168804  0.30239891  0.74696081  1
  Si  Si2  1  0.65160959  0.30866468  0.75341811  1
  Si  Si3  1  0.48365511  0.33750958  0.58072351  1
  Si  Si4  1  0.98419601  0.62909973  0.08290148  1
  Si  Si5  1  0.31475136  0.66580710  0.91918635  1
  Si  Si6  1  0.66920109  0.96592781  0.91828733  1
  Si  Si7  1  0.81432017  0.96444918  0.41915144  1
  Si  Si8  1  0.16942001  0.36580345  0.41716145  1
  S  S0  1  0.14942645  0.99816766  0.25132876  1
  S  S1  1  0.34977756  0.70370396  0.24791776  1
  S  S2  1  0.85185581  0.70366939  0.25155607  1
  S  S3  1  0.00070841  0.29111332  0.24876057  1
  S  S4  1  0.49766516  0.29691831  0.25237467  1
  S  S5  1  0.00095601  0.70192569  0.75277516  1
  S  S6  1  0.49716768  0.70759257  0.74808656  1
  S  S7  1  0.34949403  0.99846877  0.75145584  1
  S  S8  1  0.85270082  0.99949494  0.74770296  1
  S  S9  1  0.98001183  0.33615598  0.58490497  1
  S  S10  1  0.18302603  0.02800078  0.58164447  1
  S  S11  1  0.68676608  0.03953160  0.58335792  1
  S  S12  1  0.33294887  0.63275054  0.58341569  1
  S  S13  1  0.83893455  0.63314440  0.58201862  1
  S  S14  1  0.48088613  0.62705516  0.08527508  1
  S  S15  1  0.33732059  0.04370884  0.08436613  1
  S  S16  1  0.83375736  0.03496321  0.08398161  1
  S  S17  1  0.18759435  0.33132826  0.08643129  1
  S  S18  1  0.68332646  0.33797769  0.08284343  1
  S  S19  1  0.81880269  0.66987217  0.91764612  1
  S  S20  1  0.01646861  0.36373606  0.91523152  1
  S  S21  1  0.51563588  0.36751539  0.91782518  1
  S  S22  1  0.16409860  0.96229556  0.91638084  1
  S  S23  1  0.31671416  0.96477258  0.41528921  1
  S  S24  1  0.66404813  0.36691192  0.41462590  1
  S  S25  1  0.01860744  0.66692420  0.41485816  1
  S  S26  1  0.51607199  0.66937971  0.41403622  1
  O  O0  1  0.10559403  0.02006491  0.30508599  1
  O  O1  1  0.60776700  0.03358975  0.30704800  1
  O  O2  1  0.40099794  0.78931868  0.30269593  1
  O  O3  1  0.90594680  0.79043549  0.30484516  1
  O  O4  1  0.48444877  0.19257614  0.30747514  1
  O  O5  1  0.99284579  0.19523756  0.30524863  1
  O  O6  1  0.10804605  0.18242642  0.80694852  1
  O  O7  1  0.60471564  0.18358602  0.81102633  1
  O  O8  1  0.48512878  0.78238270  0.80527376  1
  O  O9  1  0.98714630  0.77981466  0.80830194  1
  O  O10  1  0.40174039  0.01719525  0.80514056  1
  O  O11  1  0.90309595  0.01070329  0.80273651  1
  O  O12  1  0.38511070  0.96360005  0.69548599  1
  O  O13  1  0.89347100  0.97865214  0.69162730  1
  O  O14  1  0.09207294  0.21701923  0.68647781  1
  O  O15  1  0.59771797  0.23319594  0.69019665  1
  O  O16  1  0.01215925  0.80627666  0.69813417  1
  O  O17  1  0.50442704  0.81236479  0.69498984  1
  O  O18  1  0.39158547  0.80035683  0.19199101  1
  O  O19  1  0.88843281  0.80909296  0.19586918  1
  O  O20  1  0.01274501  0.20529097  0.19536872  1
  O  O21  1  0.50776694  0.21440084  0.19735959  1
  O  O22  1  0.09942215  0.97568710  0.19514013  1
  O  O23  1  0.59139261  0.96442376  0.18668653  1
  O  O24  1  0.43708150  0.34862101  0.64266802  1
  O  O25  1  0.93676297  0.34508500  0.64085975  1
  O  O26  1  0.23405880  0.11056946  0.63687300  1
  O  O27  1  0.73963999  0.12323295  0.63788744  1
  O  O28  1  0.31959430  0.52177389  0.63641318  1
  O  O29  1  0.83196089  0.52816523  0.63473350  1
  O  O30  1  0.44031169  0.53601304  0.14333207  1
  O  O31  1  0.93995648  0.52676373  0.14557610  1
  O  O32  1  0.32643054  0.12888485  0.13889959  1
  O  O33  1  0.82275395  0.11918603  0.13849758  1
  O  O34  1  0.23783191  0.35113599  0.14281784  1
  O  O35  1  0.73389241  0.35866537  0.13886808  1
  O  O36  1  0.23071927  0.30788041  0.03248728  1
  O  O37  1  0.72635743  0.31427047  0.02893592  1
  O  O38  1  0.42890876  0.53225940  0.03238656  1
  O  O39  1  0.92375780  0.54395652  0.02373867  1
  O  O40  1  0.34363227  0.13956123  0.02807357  1
  O  O41  1  0.83977719  0.13088905  0.02821145  1
  O  O42  1  0.22505555  0.13558710  0.52696560  1
  O  O43  1  0.72834691  0.14654883  0.52809722  1
  O  O44  1  0.33856151  0.54976314  0.52640484  1
  O  O45  1  0.84552722  0.55219847  0.52417382  1
  O  O46  1  0.42495467  0.30637650  0.52063681  1
  O  O47  1  0.93184975  0.32850140  0.52956156  1
  O  O48  1  0.27026632  0.69835689  0.98010333  1
  O  O49  1  0.78201354  0.69554655  0.97537759  1
  O  O50  1  0.07099011  0.43924310  0.96866581  1
  O  O51  1  0.57154414  0.44356836  0.97160707  1
  O  O52  1  0.15069552  0.85962045  0.97174563  1
  O  O53  1  0.65260249  0.85308565  0.98085169  1
  O  O54  1  0.27889109  0.86362457  0.47152616  1
  O  O55  1  0.76897239  0.84062684  0.47837493  1
  O  O56  1  0.14927698  0.45139499  0.47621565  1
  O  O57  1  0.65158122  0.44597160  0.46939116  1
  O  O58  1  0.07528936  0.70161348  0.46740063  1
  O  O59  1  0.57052002  0.70161341  0.46703442  1
  O  O60  1  0.05545109  0.63480796  0.35848471  1
  O  O61  1  0.55471563  0.64155426  0.35820042  1
  O  O62  1  0.26075754  0.88384620  0.36216376  1
  O  O63  1  0.75621919  0.88441506  0.35852677  1
  O  O64  1  0.18966448  0.48437443  0.35558189  1
  O  O65  1  0.67389822  0.46913021  0.35934455  1
  O  O66  1  0.05570056  0.46966152  0.86004887  1
  O  O67  1  0.55153018  0.47474749  0.86327480  1
  O  O68  1  0.17380220  0.87730385  0.86171080  1
  O  O69  1  0.68681643  0.87427567  0.85932850  1
  O  O70  1  0.25394293  0.62820960  0.86025493  1
  O  O71  1  0.76395319  0.64415932  0.86577208  1
  O  O72  1  0.00864121  0.81913679  0.40807646  1
  O  O73  1  0.50325841  0.82018546  0.40751462  1
  O  O74  1  0.40222774  0.97917045  0.40741779  1
  O  O75  1  0.90899651  0.98046096  0.41421730  1
  O  O76  1  0.08572639  0.17605064  0.41146234  1
  O  O77  1  0.58728606  0.19173812  0.41066153  1
  O  O78  1  0.00385704  0.18764700  0.90811539  1
  O  O79  1  0.50442222  0.19422526  0.91120801  1
  O  O80  1  0.08778883  0.98512721  0.91215217  1
  O  O81  1  0.58417996  0.98396668  0.91421991  1
  O  O82  1  0.40875725  0.83771761  0.91295933  1
  O  O83  1  0.90524206  0.82676587  0.91112381  1
  O  O84  1  0.49095733  0.15876344  0.58293531  1
  O  O85  1  0.98628989  0.17668668  0.58338552  1
  O  O86  1  0.09687795  0.00932687  0.58545114  1
  O  O87  1  0.60113796  0.02077184  0.58732819  1
  O  O88  1  0.40924734  0.80260354  0.58789705  1
  O  O89  1  0.91487341  0.80816584  0.58570752  1
  O  O90  1  0.48542499  0.79723261  0.08428343  1
  O  O91  1  0.99438651  0.82640601  0.08579815  1
  O  O92  1  0.41370988  0.02300371  0.08844973  1
  O  O93  1  0.91129001  0.01790649  0.08730019  1
  O  O94  1  0.10232452  0.17653892  0.08979254  1
  O  O95  1  0.59731813  0.18366584  0.08667136  1
  O  O96  1  0.34357672  0.15660141  0.74621738  1
  O  O97  1  0.85172585  0.16389360  0.74613759  1
  O  O98  1  0.24693930  0.32178528  0.74173421  1
  O  O99  1  0.74375921  0.31173677  0.74893201  1
  O  O100  1  0.42074768  0.53183152  0.74499768  1
  O  O101  1  0.92974439  0.52484533  0.74742158  1
  O  O102  1  0.34269920  0.52973220  0.24643631  1
  O  O103  1  0.84548734  0.53326498  0.24652785  1
  O  O104  1  0.42455839  0.32932714  0.24795986  1
  O  O105  1  0.92237465  0.30519200  0.24532854  1
  O  O106  1  0.23458395  0.15724215  0.24754817  1
  O  O107  1  0.74695653  0.17248253  0.24183760  1
  O  O108  1  0.32688557  0.49633117  0.92425512  1
  O  O109  1  0.82929836  0.51716429  0.92134168  1
  O  O110  1  0.42905813  0.34657835  0.92737058  1
  O  O111  1  0.93121353  0.34836624  0.92222979  1
  O  O112  1  0.24280841  0.13347647  0.92126691  1
  O  O113  1  0.75488310  0.15830297  0.92240257  1
  O  O114  1  0.32730469  0.13824179  0.41928382  1
  O  O115  1  0.82791945  0.15929109  0.42427631  1
  O  O116  1  0.25529479  0.34812838  0.42341404  1
  O  O117  1  0.74260600  0.35192309  0.41914458  1
  O  O118  1  0.43038773  0.51437637  0.42043000  1
  O  O119  1  0.93263755  0.51496756  0.42324444  1
  O  O120  1  0.18160432  0.48750279  0.08249728  1
  O  O121  1  0.67853581  0.49733662  0.07720615  1
  O  O122  1  0.08246813  0.66149585  0.07685582  1
  O  O123  1  0.56748864  0.64969658  0.08322824  1
  O  O124  1  0.25939488  0.87189406  0.08347134  1
  O  O125  1  0.75762556  0.85874717  0.08257874  1
  O  O126  1  0.17874082  0.85907831  0.57561563  1
  O  O127  1  0.68150005  0.87130324  0.57932888  1
  O  O128  1  0.25544554  0.65494309  0.58178508  1
  O  O129  1  0.76039922  0.64686534  0.58206463  1
  O  O130  1  0.06786005  0.48755969  0.58364211  1
  O  O131  1  0.58231061  0.50067858  0.57610387  1
  O  O132  1  0.15678111  0.84238800  0.25680055  1
  O  O133  1  0.65870065  0.82586345  0.25058360  1
  O  O134  1  0.26265872  0.67956445  0.25082305  1
  O  O135  1  0.76390168  0.67545054  0.25814917  1
  O  O136  1  0.07667105  0.46757747  0.25133819  1
  O  O137  1  0.57781761  0.46580346  0.25741379  1
  O  O138  1  0.15839993  0.49073018  0.75074994  1
  O  O139  1  0.65670090  0.49585361  0.75887358  1
  O  O140  1  0.08215796  0.69647916  0.75803683  1
  O  O141  1  0.57482710  0.69131066  0.75122221  1
  O  O142  1  0.26063079  0.85158052  0.75768819  1
  O  O143  1  0.76474217  0.85659942  0.75000122  1
loop_
_geom_bond_atom_site_label_1
_geom_bond_atom_site_label_2
_geom_bond_distance
_geom_bond_site_symmetry_2
Na0 O133 2.358495 1_555
Na0 O107 2.371699 1_565
Na0 O63 2.440683 1_555
Na0 O105 2.528489 1_565
Na0 O135 2.609546 1_555
Na0 O33 2.791336 1_565
Na1 O64 2.382636 1_555
Na1 O134 2.442145 1_555
Na1 O136 2.499613 1_555
Na1 O102 2.521631 1_555
Na1 O106 2.529972 1_555
Na1 O34 2.724869 1_555
Na2 O107 2.416849 1_555
Na2 O137 2.588838 1_555
Na2 O135 2.592686 1_555
Na2 O103 2.601861 1_555
Na2 O65 2.633989 1_555
Na2 O35 2.644667 1_555
Na2 O1 2.736914 1_555
Na3 O31 2.311984 1_555
Na3 O103 2.477308 1_555
Na3 O136 2.496030 1_655
Na3 O105 2.544800 1_555
Na3 O132 2.559736 1_655
Na3 O60 2.800710 1_655
Na3 O22 2.908513 1_655
Na4 O133 2.397706 1_555
Na4 O30 2.536114 1_555
Na4 O104 2.550741 1_555
Na4 O102 2.606848 1_555
Na4 O137 2.613904 1_555
Na4 O61 2.647709 1_555
Na4 O23 2.767806 1_555
Na5 O98 2.395349 1_555
Na5 O138 2.402343 1_555
Na5 O70 2.495575 1_555
Na5 O100 2.527418 1_555
Na5 O142 2.644152 1_555
Na5 O28 2.830180 1_555
Na5 O8 2.957595 1_555
Na5 O12 3.007086 1_555
Na6 O138 2.425030 1_555
Na6 O97 2.442866 1_455
Na6 O101 2.473440 1_455
Na6 O25 2.587808 1_455
Na6 O140 2.656929 1_555
Na6 O66 2.706140 1_555
Na6 O14 2.800931 1_555
Na7 O139 2.410413 1_555
Na7 O24 2.427593 1_555
Na7 O141 2.588680 1_555
Na7 O96 2.605309 1_555
Na7 O100 2.663273 1_555
Na7 O15 2.680637 1_555
Na7 O67 2.903940 1_555
Na8 O98 2.415923 1_555
Na8 O142 2.540844 1_545
Na8 O140 2.542680 1_545
Na8 O96 2.557062 1_555
Na8 O26 2.674933 1_555
Na8 O68 2.709737 1_545
Na8 O6 2.736147 1_555
Na8 O16 2.942150 1_545
Na9 O99 2.418875 1_555
Na9 O141 2.523571 1_545
Na9 O69 2.540725 1_545
Na9 O143 2.542267 1_545
Na9 O97 2.744791 1_555
Na9 O7 2.778954 1_555
Na9 O27 2.892556 1_555
Na10 O14 2.429753 1_555
Na10 O130 2.480123 1_555
Na10 O85 2.537022 1_455
Na10 O86 2.583410 1_555
Na10 O128 2.593332 1_555
Na10 O56 2.649988 1_555
Na11 O131 2.297170 1_555
Na11 O15 2.319723 1_555
Na11 O84 2.411723 1_555
Na11 O87 2.553574 1_555
Na11 O129 2.565590 1_555
Na11 O57 2.869278 1_555
Na12 O84 2.342745 1_565
Na12 O88 2.544181 1_555
Na12 O126 2.598103 1_555
Na12 O12 2.622592 1_555
Na12 O128 2.642606 1_555
Na12 O54 2.742105 1_555
Na12 O46 2.846025 1_565
Na12 O26 2.904750 1_565
Na13 O127 2.420292 1_555
Na13 O129 2.439026 1_555
Na13 O55 2.468045 1_555
Na13 O89 2.492546 1_555
Na13 O85 2.514992 1_565
Na13 O13 2.704924 1_555
Na14 O122 2.296183 1_555
Na14 O91 2.379006 1_455
Na14 O94 2.512029 1_565
Na14 O124 2.523591 1_555
Na14 O52 2.572704 1_554
Na14 O22 2.664399 1_555
Na15 O53 2.411618 1_554
Na15 O123 2.460349 1_555
Na15 O23 2.554976 1_555
Na15 O90 2.558512 1_555
Na15 O95 2.590687 1_565
Na15 O125 2.592063 1_555
Na16 O48 2.328786 1_554
Na16 O124 2.441198 1_555
Na16 O120 2.461605 1_555
Na16 O90 2.489365 1_555
Na16 O92 2.496081 1_565
Na16 O18 2.793881 1_555
Na17 O91 2.424319 1_555
Na17 O49 2.528691 1_554
Na17 O121 2.569374 1_555
Na17 O93 2.592241 1_565
Na17 O125 2.635259 1_555
Na17 O39 2.718217 1_555
Na17 O19 2.768168 1_555
Na17 O35 2.953454 1_555
Na18 O81 2.398777 1_555
Na18 O82 2.399092 1_555
Na18 O108 2.502121 1_555
Na18 O8 2.582809 1_555
Na18 O110 2.714154 1_555
Na18 O38 2.854237 1_556
Na18 O67 2.937917 1_555
Na18 O53 3.019200 1_555
Na19 O109 2.402088 1_555
Na19 O39 2.412119 1_556
Na19 O111 2.504388 1_555
Na19 O83 2.526821 1_555
Na19 O80 2.602874 1_655
Na19 O9 2.771941 1_555
Na19 O52 2.867844 1_655
Na20 O82 2.333235 1_545
Na20 O79 2.464073 1_555
Na20 O110 2.630418 1_555
Na20 O10 2.642210 1_555
Na20 O112 2.642385 1_555
Na20 O40 2.700673 1_556
Na20 O48 2.826673 1_545
Na21 O113 2.362730 1_555
Na21 O111 2.550773 1_555
Na21 O78 2.603096 1_655
Na21 O83 2.633388 1_545
Na21 O69 2.653056 1_545
Na21 O11 2.688603 1_555
Na21 O41 2.729373 1_556
Na22 O6 2.466262 1_555
Na22 O108 2.468524 1_555
Na22 O70 2.580752 1_555
Na22 O112 2.625617 1_555
Na22 O80 2.663450 1_545
Na22 O78 2.680670 1_555
Na22 O50 2.907535 1_555
Na23 O81 2.334149 1_545
Na23 O7 2.338085 1_555
Na23 O113 2.411642 1_555
Na23 O79 2.612590 1_555
Na23 O109 2.690534 1_555
Na23 O37 2.874545 1_556
Na24 O46 2.264155 1_555
Na24 O114 2.472052 1_555
Na24 O118 2.539658 1_555
Na24 O77 2.577424 1_555
Na24 O74 2.598438 1_545
Na24 O57 2.799544 1_555
Na24 O4 2.868223 1_555
Na25 O75 2.393628 1_545
Na25 O115 2.465296 1_555
Na25 O76 2.500195 1_655
Na25 O47 2.645907 1_555
Na25 O119 2.674535 1_555
Na25 O5 2.710412 1_555
Na25 O56 2.875936 1_655
Na26 O76 2.306634 1_555
Na26 O116 2.372499 1_555
Na26 O42 2.549826 1_555
Na26 O114 2.588849 1_555
Na26 O72 2.592344 1_545
Na26 O0 2.727084 1_555
Na26 O58 2.917611 1_545
Na26 O62 3.018104 1_545
Na27 O115 2.474043 1_555
Na27 O1 2.560707 1_555
Na27 O117 2.586349 1_555
Na27 O63 2.650629 1_545
Na27 O77 2.650750 1_555
Na27 O73 2.684810 1_545
Na27 O43 2.832337 1_555
Na27 O59 2.869969 1_545
Na28 O116 2.391480 1_555
Na28 O118 2.488476 1_555
Na28 O44 2.560270 1_555
Na28 O73 2.561900 1_555
Na28 O74 2.612258 1_555
Na28 O64 2.755245 1_555
Na28 O2 2.787363 1_555
Na28 O54 2.913625 1_555
Na29 O75 2.366423 1_555
Na29 O45 2.505993 1_555
Na29 O72 2.611927 1_655
Na29 O117 2.614992 1_555
Na29 O119 2.689758 1_555
Na29 O55 2.706409 1_555
Na29 O3 2.821044 1_555
Na30 O75 2.411660 1_545
Na30 O76 2.472630 1_655
Na30 O85 2.528479 1_555
Na30 O89 2.533661 1_545
Na30 O86 2.613525 1_655
Na30 O72 2.638339 1_645
Na31 O84 2.250777 1_565
Na31 O87 2.420408 1_565
Na31 O88 2.424344 1_555
Na31 O77 2.747535 1_565
Na31 O73 2.757594 1_555
Na31 O74 2.856656 1_555
Na32 O91 2.352142 1_555
Na32 O93 2.453624 1_565
Na32 O94 2.569446 1_665
Na32 O80 2.637767 1_654
Na32 O83 2.643541 1_554
Na32 O78 2.708061 1_664
Na33 O81 2.341139 1_555
Na33 O82 2.373110 1_555
Na33 O79 2.512021 1_565
Na33 O90 2.636159 1_556
Na33 O95 2.684785 1_566
Na33 O92 2.685569 1_566
Na34 O98 2.407200 1_555
Na34 O108 2.439088 1_555
Na34 O100 2.511519 1_555
Na34 O96 2.663908 1_555
Na34 O112 2.676785 1_555
Na34 O110 2.819466 1_555
Na35 O99 2.244596 1_555
Na35 O113 2.435873 1_555
Na35 O109 2.581733 1_555
Na35 O97 2.602714 1_555
Na35 O101 2.645826 1_555
Na35 O111 2.798538 1_555
Na36 O116 2.394052 1_555
Na36 O114 2.507311 1_555
Na36 O106 2.535858 1_555
Na36 O104 2.581284 1_555
Na36 O118 2.587302 1_555
Na36 O102 2.621638 1_555
Na37 O115 2.397360 1_555
Na37 O107 2.411498 1_555
Na37 O117 2.555546 1_555
Na37 O105 2.617120 1_555
Na37 O103 2.731825 1_555
Na37 O119 2.779454 1_555
Na38 O122 2.307428 1_555
Na38 O120 2.486311 1_555
Na38 O124 2.518498 1_555
Na38 O136 2.583933 1_555
Na38 O132 2.690431 1_555
Na38 O134 2.705557 1_555
Na39 O133 2.367332 1_555
Na39 O123 2.436229 1_555
Na39 O125 2.512574 1_555
Na39 O121 2.587145 1_555
Na39 O137 2.641093 1_555
Na39 O135 2.759453 1_555
Na40 O138 2.341835 1_555
Na40 O130 2.471084 1_555
Na40 O128 2.537738 1_555
Na40 O140 2.572491 1_555
Na40 O126 2.662644 1_555
Na40 O142 2.668125 1_555
Na41 O131 2.402725 1_555
Na41 O139 2.405219 1_555
Na41 O141 2.544187 1_555
Na41 O129 2.620518 1_555
Na41 O143 2.681087 1_555
Na41 O127 2.726752 1_555
Mg0 O76 1.993580 1_655
Mg0 O75 2.004510 1_545
Mg0 O5 2.077270 1_555
Mg0 O72 2.152591 1_645
Mg0 O3 2.152819 1_545
Mg0 O0 2.161279 1_655
Mg1 O1 1.932545 1_555
Mg1 O4 2.083888 1_555
Mg1 O2 2.110870 1_545
Mg1 O73 2.171122 1_545
Mg1 O77 2.194797 1_555
Mg1 O74 2.228939 1_545
Mg2 O6 1.931496 1_555
Mg2 O9 2.059804 1_445
Mg2 O11 2.060775 1_455
Mg2 O78 2.176695 1_555
Mg2 O80 2.234708 1_545
Mg2 O83 2.270919 1_445
Mg3 O7 1.968023 1_565
Mg3 O81 2.023421 1_555
Mg3 O8 2.071078 1_555
Mg3 O82 2.094248 1_555
Mg3 O79 2.203071 1_565
Mg3 O10 2.247964 1_565
Mg4 O24 1.947910 1_555
Mg4 O98 2.055533 1_555
Mg4 O28 2.081200 1_555
Mg4 O100 2.161814 1_555
Mg4 O26 2.218636 1_555
Mg4 O96 2.248740 1_555
Mg5 O31 1.971529 1_555
Mg5 O107 2.056058 1_555
Mg5 O33 2.058799 1_555
Mg5 O35 2.161916 1_555
Mg5 O103 2.251888 1_555
Mg5 O105 2.262379 1_555
Mg6 O108 1.981272 1_555
Mg6 O38 2.048973 1_556
Mg6 O36 2.054953 1_556
Mg6 O110 2.077371 1_555
Mg6 O40 2.149915 1_556
Mg6 O112 2.239539 1_555
Mg7 O39 1.981041 1_556
Mg7 O113 2.059409 1_555
Mg7 O37 2.091881 1_556
Mg7 O41 2.109090 1_556
Mg7 O111 2.190809 1_555
Mg7 O109 2.229546 1_555
Mg8 O46 1.952730 1_555
Mg8 O116 2.053349 1_555
Mg8 O44 2.073766 1_555
Mg8 O42 2.092103 1_555
Mg8 O118 2.233300 1_555
Mg8 O114 2.290983 1_555
Mg9 O115 1.985930 1_555
Mg9 O47 2.038334 1_555
Mg9 O43 2.040097 1_555
Mg9 O45 2.112916 1_555
Mg9 O119 2.194942 1_555
Mg9 O117 2.296786 1_555
Mg10 O63 1.935071 1_555
Mg10 O133 2.012679 1_555
Mg10 O61 2.091236 1_555
Mg10 O135 2.196008 1_555
Mg10 O65 2.220924 1_555
Mg10 O137 2.272315 1_555
Mg11 O70 1.930261 1_555
Mg11 O138 2.005422 1_555
Mg11 O66 2.104178 1_555
Mg11 O142 2.174457 1_555
Mg11 O68 2.217078 1_555
Mg11 O140 2.228549 1_555
O0 S0 1.485986 1_545
O1 Si0 1.638036 1_555
O2 S1 1.486589 1_555
O3 S2 1.482589 1_555
O4 S4 1.483732 1_555
O5 S3 1.484599 1_655
O6 Si1 1.639276 1_555
O7 Si2 1.627145 1_555
O8 S6 1.491247 1_555
O9 S5 1.488372 1_655
O10 S7 1.476801 1_545
O11 S8 1.496429 1_545
O12 S7 1.489502 1_555
O12 Zn1 2.154330 1_565
O13 S8 1.491598 1_555
O13 Zn0 2.050143 1_665
O14 Si1 1.649435 1_555
O14 Zn0 1.905798 1_555
O15 Si2 1.645263 1_555
O15 Zn1 1.912266 1_555
O16 S5 1.481975 1_555
O16 Zn0 2.025789 1_565
O17 S6 1.472222 1_555
O17 Zn1 2.208168 1_565
O18 S1 1.478957 1_555
O18 Zn3 2.130722 1_565
O19 S2 1.489457 1_555
O19 Zn2 2.121059 1_555
O20 S3 1.479092 1_555
O20 Zn2 2.121589 1_445
O21 S4 1.476848 1_555
O21 Zn3 2.044351 1_555
O22 S0 1.492277 1_555
O22 Zn2 2.158059 1_455
O23 Si0 1.649992 1_565
O23 Zn3 1.905855 1_565
O24 Si3 1.625868 1_555
O25 S9 1.477176 1_555
O25 Zn4 2.251913 1_555
O26 S10 1.487963 1_555
O27 S11 1.490325 1_555
O27 Zn4 2.090096 1_555
O28 S12 1.481053 1_555
O29 S13 1.467944 1_555
O29 Zn4 1.980404 1_555
O30 S14 1.497133 1_555
O30 Zn5 2.042454 1_555
O31 Si4 1.629556 1_555
O32 S15 1.487461 1_555
O32 Zn5 1.963912 1_555
O33 S16 1.482936 1_555
O34 S17 1.502579 1_555
O34 Zn5 2.055908 1_555
O35 S18 1.497807 1_555
O36 S17 1.487240 1_555
O37 S18 1.486543 1_555
O38 S14 1.477571 1_555
O39 Si4 1.632258 1_555
O40 S15 1.486879 1_555
O41 S16 1.478856 1_555
O42 S10 1.494131 1_555
O43 S11 1.500957 1_555
O44 S12 1.487768 1_555
O45 S13 1.499013 1_555
O46 Si3 1.638394 1_555
O47 S9 1.486493 1_555
O48 Si5 1.657696 1_555
O48 Zn6 1.952117 1_556
O49 S19 1.499659 1_555
O49 Zn7 2.139184 1_556
O50 S20 1.472056 1_555
O50 Zn6 2.108207 1_556
O51 S21 1.490169 1_555
O51 Zn7 2.018740 1_556
O52 S22 1.479564 1_555
O52 Zn6 2.180631 1_556
O53 Si6 1.652481 1_555
O53 Zn7 1.884635 1_556
O54 S23 1.486667 1_555
O54 Zn8 2.215903 1_555
O55 Si7 1.645527 1_555
O55 Zn9 1.969156 1_555
O56 Si8 1.639168 1_555
O56 Zn8 1.898298 1_555
O57 S24 1.471029 1_555
O57 Zn9 2.191312 1_555
O58 S25 1.479472 1_555
O58 Zn8 2.084345 1_555
O59 S26 1.466653 1_555
O59 Zn9 2.164371 1_555
O60 S25 1.498245 1_555
O60 Zn10 2.110534 1_555
O61 S26 1.490421 1_555
O62 S23 1.484997 1_555
O62 Zn10 2.024087 1_555
O63 Si7 1.633959 1_555
O64 Si8 1.654403 1_555
O64 Zn10 1.905810 1_555
O65 S24 1.487202 1_555
O66 S20 1.488702 1_555
O67 S21 1.474738 1_555
O67 Zn11 2.240301 1_555
O68 S22 1.480787 1_555
O69 Si6 1.649443 1_555
O69 Zn11 1.954359 1_555
O70 Si5 1.631460 1_555
O71 S19 1.460984 1_555
O71 Zn11 2.110110 1_555
O72 S25 1.486570 1_555
O73 S26 1.504243 1_555
O74 S23 1.499393 1_555
O75 Si7 1.653009 1_555
O76 Si8 1.635570 1_555
O77 S24 1.504234 1_555
O78 S20 1.502572 1_555
O79 S21 1.486190 1_555
O80 S22 1.502542 1_555
O81 Si6 1.633888 1_555
O82 Si5 1.643806 1_555
O83 S19 1.508405 1_555
O84 Si3 1.691091 1_555
O84 Zn1 2.018586 1_555
O85 S9 1.505637 1_555
O85 Zn0 2.452255 1_655
O86 S10 1.487693 1_555
O86 Zn0 2.290227 1_555
O87 S11 1.478175 1_555
O87 Zn1 2.300601 1_555
O88 S12 1.473349 1_555
O88 Zn1 2.439621 1_565
O89 S13 1.497134 1_555
O89 Zn0 2.342135 1_665
O90 S14 1.503293 1_555
O90 Zn3 2.376966 1_565
O91 Si4 1.704513 1_555
O91 Zn2 1.974719 1_555
O92 S15 1.492305 1_555
O92 Zn3 2.316347 1_555
O93 S16 1.492602 1_555
O93 Zn2 2.203574 1_545
O94 S17 1.483493 1_555
O94 Zn2 2.202664 1_445
O95 S18 1.489869 1_555
O95 Zn3 2.239554 1_555
O96 S7 1.494847 1_545
O97 S8 1.499535 1_545
O97 Zn4 2.333306 1_555
O98 Si1 1.650817 1_555
O99 Si2 1.660502 1_555
O99 Zn4 1.919546 1_555
O100 S6 1.503888 1_555
O101 S5 1.480216 1_655
O101 Zn4 2.260560 1_555
O102 S1 1.517021 1_555
O102 Zn5 2.273781 1_555
O103 S2 1.493781 1_555
O104 S4 1.499094 1_555
O104 Zn5 2.212286 1_555
O105 S3 1.491897 1_655
O106 S0 1.499750 1_545
O106 Zn5 2.270031 1_555
O107 Si0 1.655993 1_555
O108 Si5 1.661383 1_555
O109 S19 1.491009 1_555
O110 S21 1.498390 1_555
O111 S20 1.489062 1_655
O112 S22 1.499556 1_545
O113 Si6 1.661823 1_545
O114 S23 1.487962 1_545
O115 Si7 1.660079 1_545
O116 Si8 1.651177 1_555
O117 S24 1.502208 1_555
O118 S26 1.493093 1_555
O119 S25 1.489265 1_655
O120 S17 1.475793 1_555
O120 Zn6 2.286069 1_555
O121 S18 1.495499 1_555
O121 Zn7 2.307427 1_555
O122 Si4 1.660587 1_455
O122 Zn6 1.990688 1_555
O123 S14 1.480153 1_555
O123 Zn7 2.368027 1_555
O124 S15 1.492614 1_565
O124 Zn6 2.395170 1_555
O125 S16 1.502985 1_565
O125 Zn7 2.418493 1_555
O126 S10 1.499014 1_565
O126 Zn8 2.218510 1_555
O127 S11 1.481636 1_565
O127 Zn9 2.168003 1_555
O128 S12 1.517598 1_555
O128 Zn8 2.292364 1_555
O129 S13 1.491095 1_555
O129 Zn9 2.359931 1_555
O130 S9 1.497274 1_455
O130 Zn8 2.242642 1_555
O131 Si3 1.660932 1_555
O131 Zn9 1.965894 1_555
O132 S0 1.488611 1_555
O132 Zn10 2.360487 1_555
O133 Si0 1.654780 1_565
O134 S1 1.484704 1_555
O134 Zn10 2.279318 1_555
O135 S2 1.490838 1_555
O136 S3 1.503988 1_555
O136 Zn10 2.393843 1_555
O137 S4 1.500174 1_555
O138 Si1 1.651294 1_555
O139 Si2 1.656235 1_555
O139 Zn11 1.946923 1_555
O140 S5 1.504335 1_555
O141 S6 1.490641 1_555
O141 Zn11 2.366354 1_555
O142 S7 1.499029 1_555
O143 S8 1.471051 1_555
O143 Zn11 2.245769 1_555
