# generated using pymatgen
data_MgMn2Co5O12
_symmetry_space_group_name_H-M   'P 1'
_cell_length_a   5.18955159
_cell_length_b   5.22694125
_cell_length_c   9.77215234
_cell_angle_alpha   81.05944831
_cell_angle_beta   91.57061711
_cell_angle_gamma   57.33471505
_symmetry_Int_Tables_number   1
_chemical_formula_structural   MgMn2Co5O12
_chemical_formula_sum   'Mg1 Mn2 Co5 O12'
_cell_volume   218.45561513
_cell_formula_units_Z   1
loop_
 _symmetry_equiv_pos_site_id
 _symmetry_equiv_pos_as_xyz
  1  'x, y, z'
loop_
 _atom_site_type_symbol
 _atom_site_label
 _atom_site_symmetry_multiplicity
 _atom_site_fract_x
 _atom_site_fract_y
 _atom_site_fract_z
 _atom_site_occupancy
  Mg  Mg0  1  0.83180100  0.27893300  0.51072400  1
  Mn  Mn0  1  0.25073500  0.24288800  0.74614700  1
  Mn  Mn1  1  0.75597700  0.76025500  0.25376600  1
  Co  Co0  1  0.09583100  0.08192600  0.23596800  1
  Co  Co1  1  0.99762300  0.56874300  0.98460000  1
  Co  Co2  1  0.50854200  0.98008500  0.50493600  1
  Co  Co3  1  0.42768900  0.43311800  0.24017200  1
  Co  Co4  1  0.57588200  0.58783000  0.77117200  1
  O  O0  1  0.95598200  0.28137100  0.87263300  1
  O  O1  1  0.24937100  0.95421600  0.63765700  1
  O  O2  1  0.09792800  0.34961400  0.36693700  1
  O  O3  1  0.39065600  0.13712700  0.14194100  1
  O  O4  1  0.30804300  0.49971900  0.84433000  1
  O  O5  1  0.51360600  0.24130800  0.60829400  1
  O  O6  1  0.48312000  0.72428300  0.37273700  1
  O  O7  1  0.74473500  0.50070500  0.14125100  1
  O  O8  1  0.59038200  0.87016800  0.86174900  1
  O  O9  1  0.83700200  0.56250500  0.63082400  1
  O  O10  1  0.76902800  0.03661400  0.37244900  1
  O  O11  1  0.03214300  0.81216800  0.14476600  1
loop_
_geom_bond_atom_site_label_1
_geom_bond_atom_site_label_2
_geom_bond_distance
_geom_bond_site_symmetry_2
Mg0 O5 2.013235 1_555
Mg0 O9 2.038934 1_555
Mg0 O1 2.084053 1_645
Mg0 O10 2.118832 1_555
Mg0 O2 2.124619 1_655
Mg0 O6 2.203410 1_555
Mn0 O4 1.904423 1_555
Mn0 O8 1.917927 1_545
Mn0 O0 1.938255 1_455
Mn0 O5 1.941091 1_555
Mn0 O1 1.977133 1_545
Mn0 O9 2.020190 1_455
Mn1 O7 1.896944 1_555
Mn1 O11 1.917248 1_655
Mn1 O6 1.923998 1_555
Mn1 O3 1.963375 1_565
Mn1 O2 2.005544 1_655
Mn1 O10 2.014532 1_565
Co0 O3 1.933819 1_555
Co0 O11 1.941436 1_545
Co0 O7 1.985079 1_455
Co0 O2 2.041601 1_555
Co0 O6 2.083470 1_545
Co0 O10 2.273890 1_455
Co1 O8 2.017103 1_555
Co1 O4 2.061941 1_655
Co1 O0 2.085276 1_555
Co1 O7 2.153353 1_556
Co1 O11 2.224955 1_656
Co1 O3 2.323087 1_656
Co2 O5 1.830598 1_565
Co2 O1 1.935670 1_555
Co2 O10 1.999772 1_565
Co2 O6 2.047441 1_555
Co2 O9 2.053604 1_555
Co2 O2 2.163335 1_565
Co3 O11 1.984712 1_555
Co3 O3 2.030876 1_555
Co3 O10 2.045206 1_555
Co3 O7 2.091610 1_555
Co3 O6 2.267611 1_555
Co3 O2 2.325528 1_555
Co4 O4 1.816138 1_555
Co4 O0 1.851556 1_555
Co4 O8 1.867948 1_555
Co4 O9 1.923409 1_555
Co4 O1 1.959674 1_555
