# generated using pymatgen
data_KHCN2
_symmetry_space_group_name_H-M   'P 1'
_cell_length_a   7.19562100
_cell_length_b   9.13555400
_cell_length_c   9.17149600
_cell_angle_alpha   90.00000000
_cell_angle_beta   90.00000000
_cell_angle_gamma   90.00000000
_symmetry_Int_Tables_number   1
_chemical_formula_structural   KHCN2
_chemical_formula_sum   'K8 H8 C8 N16'
_cell_volume   602.89731623
_cell_formula_units_Z   8
loop_
 _symmetry_equiv_pos_site_id
 _symmetry_equiv_pos_as_xyz
  1  'x, y, z'
loop_
 _atom_site_type_symbol
 _atom_site_label
 _atom_site_symmetry_multiplicity
 _atom_site_fract_x
 _atom_site_fract_y
 _atom_site_fract_z
 _atom_site_occupancy
  K  K0  1  0.74067900  0.10388800  0.51105700  1
  K  K1  1  0.24067900  0.39611200  0.48894300  1
  K  K2  1  0.25932100  0.60388800  0.98894300  1
  K  K3  1  0.75932100  0.89611200  0.01105700  1
  K  K4  1  0.51535500  0.25098000  0.14483200  1
  K  K5  1  0.01535500  0.24902000  0.85516800  1
  K  K6  1  0.48464500  0.75098000  0.35516800  1
  K  K7  1  0.98464500  0.74902000  0.64483200  1
  H  H0  1  0.07155600  0.55541200  0.25687600  1
  H  H1  1  0.57155600  0.94458800  0.74312400  1
  H  H2  1  0.92844400  0.05541200  0.24312400  1
  H  H3  1  0.42844400  0.44458800  0.75687600  1
  H  H4  1  0.82604500  0.46843100  0.67761900  1
  H  H5  1  0.32604500  0.03156900  0.32238100  1
  H  H6  1  0.17395500  0.96843100  0.82238100  1
  H  H7  1  0.67395500  0.53156900  0.17761900  1
  C  C0  1  0.77493000  0.55628900  0.98099200  1
  C  C1  1  0.27493000  0.94371100  0.01900800  1
  C  C2  1  0.22507000  0.05628900  0.51900800  1
  C  C3  1  0.72507000  0.44371100  0.48099200  1
  C  C4  1  0.52261600  0.25055500  0.80859700  1
  C  C5  1  0.02261600  0.24944500  0.19140300  1
  C  C6  1  0.47738400  0.75055500  0.69140300  1
  C  C7  1  0.97738400  0.74944500  0.30859700  1
  N  N0  1  0.64205200  0.56603300  0.07342100  1
  N  N1  1  0.14205200  0.93396700  0.92657900  1
  N  N2  1  0.35794800  0.06603300  0.42657900  1
  N  N3  1  0.85794800  0.43396700  0.57342100  1
  N  N4  1  0.88940500  0.55477800  0.88543200  1
  N  N5  1  0.38940500  0.94522200  0.11456800  1
  N  N6  1  0.11059500  0.05477800  0.61456800  1
  N  N7  1  0.61059500  0.44522200  0.38543200  1
  N  N8  1  0.38951100  0.34221400  0.79307200  1
  N  N9  1  0.88951100  0.15778600  0.20692800  1
  N  N10  1  0.61048900  0.84221400  0.70692800  1
  N  N11  1  0.11048900  0.65778600  0.29307200  1
  N  N12  1  0.63566800  0.15576900  0.82978500  1
  N  N13  1  0.13566800  0.34423100  0.17021500  1
  N  N14  1  0.36433200  0.65576900  0.67021500  1
  N  N15  1  0.86433200  0.84423100  0.32978500  1
loop_
_geom_bond_atom_site_label_1
_geom_bond_atom_site_label_2
_geom_bond_distance
_geom_bond_site_symmetry_2
K0 N6 2.861398 1_655
K0 N2 2.881725 1_555
K1 N7 2.861398 1_555
K1 N3 2.881725 1_455
K2 N4 2.861398 1_455
K2 N0 2.881725 1_556
K3 N5 2.861398 1_555
K3 N1 2.881725 1_654
K4 N13 2.871273 1_555
K4 N9 2.880554 1_555
K4 N7 2.913398 1_555
K4 N5 2.949704 1_545
K4 N12 3.139264 1_554
K5 N12 2.871273 1_455
K5 N8 2.880554 1_555
K5 N6 2.913398 1_555
K5 N4 2.949704 1_455
K5 N13 3.139264 1_556
K6 N15 2.871273 1_555
K6 N11 2.880554 1_555
K6 N5 2.913398 1_555
K6 N7 2.949704 1_555
K6 N14 3.139264 1_555
K7 N14 2.871273 1_655
K7 N10 2.880554 1_555
K7 N4 2.913398 1_555
K7 N6 2.949704 1_665
K7 N15 3.139264 1_555
H0 N11 1.031197 1_555
H1 N10 1.031197 1_555
H2 N9 1.031197 1_555
H3 N8 1.031197 1_555
H4 N3 1.032036 1_555
H4 K7 2.821969 1_555
H4 K5 2.919766 1_655
H5 N2 1.032036 1_555
H5 K6 2.821969 1_545
H5 K4 2.919766 1_555
H6 N1 1.032036 1_555
H6 K5 2.821969 1_565
H6 K7 2.919766 1_455
H7 N0 1.032036 1_555
H7 K4 2.821969 1_555
H7 K6 2.919766 1_555
C0 N4 1.202842 1_555
C0 N0 1.280915 1_556
C1 N5 1.202842 1_555
C1 N1 1.280915 1_554
C2 N6 1.202842 1_555
C2 N2 1.280915 1_555
C3 N7 1.202842 1_555
C3 N3 1.280915 1_555
C4 N12 1.203883 1_555
C4 N8 1.280144 1_555
C4 K4 3.084223 1_556
C5 N13 1.203883 1_555
C5 N9 1.280144 1_455
C5 K5 3.084223 1_554
C6 N14 1.203883 1_555
C6 N10 1.280144 1_555
C6 K6 3.084223 1_555
C7 N15 1.203883 1_555
C7 N11 1.280144 1_655
C7 K7 3.084223 1_555
