# generated using pymatgen
data_Cr2HgO4
_symmetry_space_group_name_H-M   'P 1'
_cell_length_a   6.15574344
_cell_length_b   6.15574217
_cell_length_c   6.15574100
_cell_angle_alpha   59.99998879
_cell_angle_beta   59.99999824
_cell_angle_gamma   59.99997821
_symmetry_Int_Tables_number   1
_chemical_formula_structural   Cr2HgO4
_chemical_formula_sum   'Cr4 Hg2 O8'
_cell_volume   164.94006408
_cell_formula_units_Z   2
loop_
 _symmetry_equiv_pos_site_id
 _symmetry_equiv_pos_as_xyz
  1  'x, y, z'
loop_
 _atom_site_type_symbol
 _atom_site_label
 _atom_site_symmetry_multiplicity
 _atom_site_fract_x
 _atom_site_fract_y
 _atom_site_fract_z
 _atom_site_occupancy
  Cr  Cr0  1  0.00000000  0.50000000  -0.00000000  1
  Cr  Cr1  1  0.50000000  0.00000000  -0.00000000  1
  Cr  Cr2  1  0.00000000  0.00000000  0.50000000  1
  Cr  Cr3  1  0.00000000  0.00000000  -0.00000000  1
  Hg  Hg0  1  0.62500000  0.62500000  0.62500000  1
  Hg  Hg1  1  0.37500000  0.37500000  0.37500000  1
  O  O0  1  0.77118979  0.77118779  0.77118879  1
  O  O1  1  0.22881021  0.22881221  0.81356637  1
  O  O2  1  0.22881021  0.81356637  0.22881121  1
  O  O3  1  0.81356637  0.22881121  0.22881121  1
  O  O4  1  0.77118979  0.18643363  0.77118879  1
  O  O5  1  0.18643363  0.77118879  0.77118879  1
  O  O6  1  0.22881021  0.22881221  0.22881121  1
  O  O7  1  0.77118979  0.77118779  0.18643363  1
loop_
_geom_bond_atom_site_label_1
_geom_bond_atom_site_label_2
_geom_bond_distance
_geom_bond_site_symmetry_2
Cr0 O0 2.008928 1_454
Cr0 O6 2.008928 1_555
Cr0 O7 2.008928 1_455
Cr0 O1 2.008928 1_554
Cr0 O5 2.008933 1_554
Cr0 O3 2.008933 1_455
Cr1 O6 2.008937 1_555
Cr1 O0 2.008937 1_544
Cr1 O7 2.008937 1_545
Cr1 O1 2.008937 1_554
Cr1 O2 2.008938 1_545
Cr1 O4 2.008938 1_554
Cr2 O5 2.008932 1_545
Cr2 O3 2.008932 1_455
Cr2 O4 2.008932 1_455
Cr2 O2 2.008932 1_545
Cr2 O6 2.008933 1_555
Cr2 O0 2.008933 1_445
Cr3 O2 2.008928 1_545
Cr3 O4 2.008928 1_454
Cr3 O3 2.008932 1_455
Cr3 O5 2.008932 1_544
Cr3 O1 2.008933 1_554
Cr3 O7 2.008933 1_445
Hg0 O4 2.204297 1_555
Hg0 O7 2.204297 1_555
Hg0 O5 2.204297 1_555
Hg0 O0 2.204297 1_555
Hg1 O2 2.204297 1_555
Hg1 O1 2.204297 1_555
Hg1 O3 2.204297 1_555
Hg1 O6 2.204297 1_555
