# generated using pymatgen
data_Na2TaIn3P4(SO12)2
_symmetry_space_group_name_H-M   'P 1'
_cell_length_a   8.84749557
_cell_length_b   8.83710198
_cell_length_c   23.23274630
_cell_angle_alpha   90.13962021
_cell_angle_beta   89.78704751
_cell_angle_gamma   120.02431882
_symmetry_Int_Tables_number   1
_chemical_formula_structural   Na2TaIn3P4(SO12)2
_chemical_formula_sum   'Na6 Ta3 In9 P12 S6 O72'
_cell_volume   1572.72151786
_cell_formula_units_Z   3
loop_
 _symmetry_equiv_pos_site_id
 _symmetry_equiv_pos_as_xyz
  1  'x, y, z'
loop_
 _atom_site_type_symbol
 _atom_site_label
 _atom_site_symmetry_multiplicity
 _atom_site_fract_x
 _atom_site_fract_y
 _atom_site_fract_z
 _atom_site_occupancy
  Na  Na0  1  0.99454171  0.99359736  0.49869531  1
  Na  Na1  1  0.00440533  0.00015589  0.99802554  1
  Na  Na2  1  0.66673830  0.33209152  0.82988348  1
  Na  Na3  1  0.67767726  0.33874529  0.33174779  1
  Na  Na4  1  0.32928013  0.65668885  0.16064825  1
  Na  Na5  1  0.33362759  0.66667256  0.66894282  1
  Ta  Ta0  1  0.66444516  0.34162410  0.97768153  1
  Ta  Ta1  1  0.33185329  0.66765110  0.31304173  1
  Ta  Ta2  1  0.33185274  0.66693670  0.81436119  1
  In  In0  1  0.98701246  0.99301077  0.35062337  1
  In  In1  1  0.00074593  0.00037045  0.85125129  1
  In  In2  1  0.00009920  0.99966587  0.65593286  1
  In  In3  1  0.99787389  0.00091252  0.14590861  1
  In  In4  1  0.66693770  0.33363423  0.68828623  1
  In  In5  1  0.67539579  0.34571787  0.18397650  1
  In  In6  1  0.67370795  0.33256087  0.47863499  1
  In  In7  1  0.32809188  0.66080139  0.01727099  1
  In  In8  1  0.33356352  0.67246414  0.51659745  1
  P  P0  1  0.70534634  0.70491418  0.25042886  1
  P  P1  1  0.99807712  0.29109334  0.25089315  1
  P  P2  1  0.29372462  0.29576353  0.75114845  1
  P  P3  1  0.00179689  0.70646811  0.75115358  1
  P  P4  1  0.70452855  0.99801832  0.75125896  1
  P  P5  1  0.96000720  0.62599209  0.08224256  1
  P  P6  1  0.37598326  0.33346434  0.08356115  1
  P  P7  1  0.62254549  0.67062086  0.91715498  1
  P  P8  1  0.04083195  0.37443598  0.91703560  1
  P  P9  1  0.33403003  0.95700358  0.91790616  1
  P  P10  1  0.62305222  0.95671939  0.41666511  1
  P  P11  1  0.04320567  0.66987329  0.41626505  1
  S  S0  1  0.29493459  0.00050610  0.25122248  1
  S  S1  1  0.96294717  0.33192212  0.58332528  1
  S  S2  1  0.37161077  0.04121774  0.58312511  1
  S  S3  1  0.66678339  0.62777344  0.58265275  1
  S  S4  1  0.66464565  0.04498651  0.08206691  1
  S  S5  1  0.33234566  0.37572745  0.41579974  1
  O  O0  1  0.21859981  0.02749541  0.30370651  1
  O  O1  1  0.81332417  0.77992755  0.30471574  1
  O  O2  1  0.97532619  0.18834905  0.30596975  1
  O  O3  1  0.21555510  0.18604570  0.80428300  1
  O  O4  1  0.97018997  0.78445186  0.80442339  1
  O  O5  1  0.81415101  0.02937304  0.80425050  1
  O  O6  1  0.76786535  0.95496051  0.69474303  1
  O  O7  1  0.18741764  0.23220716  0.69490131  1
  O  O8  1  0.04531159  0.81289647  0.69484027  1
  O  O9  1  0.77455358  0.81727423  0.19632522  1
  O  O10  1  0.04356210  0.22418092  0.19652354  1
  O  O11  1  0.18873749  0.96094057  0.19940162  1
  O  O12  1  0.88313386  0.36086642  0.63478484  1
  O  O13  1  0.47906160  0.12142938  0.63461133  1
  O  O14  1  0.63982094  0.52126489  0.63444695  1
  O  O15  1  0.88584377  0.51856480  0.13688941  1
  O  O16  1  0.63878299  0.11885192  0.13581492  1
  O  O17  1  0.48105254  0.35670803  0.13803239  1
  O  O18  1  0.47702045  0.31387637  0.02896490  1
  O  O19  1  0.83767187  0.52244922  0.02869697  1
  O  O20  1  0.68587157  0.15631176  0.03042919  1
  O  O21  1  0.45105398  0.14557155  0.53011208  1
  O  O22  1  0.69190368  0.54768571  0.52967700  1
  O  O23  1  0.85828157  0.30519082  0.53055596  1
  O  O24  1  0.54569841  0.69551507  0.97181104  1
  O  O25  1  0.14622635  0.45049453  0.97086379  1
  O  O26  1  0.30785835  0.85191948  0.97171210  1
  O  O27  1  0.54738649  0.84891252  0.47123219  1
  O  O28  1  0.30437359  0.44964448  0.46891546  1
  O  O29  1  0.14668155  0.69410967  0.47114902  1
  O  O30  1  0.14256638  0.64678590  0.36289727  1
  O  O31  1  0.50375220  0.85530480  0.36328195  1
  O  O32  1  0.35497145  0.48850736  0.36421360  1
  O  O33  1  0.13156979  0.49579594  0.86326625  1
  O  O34  1  0.36389668  0.86705473  0.86358861  1
  O  O35  1  0.50313292  0.63662547  0.86337236  1
  O  O36  1  0.03093098  0.83527675  0.40921489  1
  O  O37  1  0.80541907  0.97921554  0.41155111  1
  O  O38  1  0.17804519  0.20181745  0.40889255  1
  O  O39  1  0.01298456  0.19207001  0.90913714  1
  O  O40  1  0.17994562  0.98521282  0.90982751  1
  O  O41  1  0.80672733  0.82130727  0.90973378  1
  O  O42  1  0.97979569  0.17347042  0.58811863  1
  O  O43  1  0.19558019  0.02283603  0.58778303  1
  O  O44  1  0.82508021  0.80374971  0.58738369  1
  O  O45  1  0.96522186  0.80283381  0.08403892  1
  O  O46  1  0.82643172  0.03416069  0.08413961  1
  O  O47  1  0.19680564  0.16403300  0.08415460  1
  O  O48  1  0.67693782  0.15543516  0.74482916  1
  O  O49  1  0.47857799  0.32342312  0.74475089  1
  O  O50  1  0.84469040  0.52139160  0.74479005  1
  O  O51  1  0.67197532  0.51760514  0.24641652  1
  O  O52  1  0.83953157  0.31676881  0.24574621  1
  O  O53  1  0.47293280  0.14961785  0.24529016  1
  O  O54  1  0.63482525  0.49644265  0.92453612  1
  O  O55  1  0.85707714  0.36267661  0.92522191  1
  O  O56  1  0.50664824  0.14154308  0.92559982  1
  O  O57  1  0.62876568  0.13419979  0.41776371  1
  O  O58  1  0.49421126  0.36610643  0.41877883  1
  O  O59  1  0.86289524  0.50129767  0.41754094  1
  O  O60  1  0.36194155  0.49814704  0.07741330  1
  O  O61  1  0.14147163  0.64687548  0.07650730  1
  O  O62  1  0.50987193  0.87012875  0.07680803  1
  O  O63  1  0.35506823  0.86481378  0.57923423  1
  O  O64  1  0.50646837  0.64308209  0.57791735  1
  O  O65  1  0.13930111  0.49125011  0.57801441  1
  O  O66  1  0.31162877  0.83692868  0.26007152  1
  O  O67  1  0.51890046  0.68841407  0.26282762  1
  O  O68  1  0.16690560  0.48021676  0.26277535  1
  O  O69  1  0.31201000  0.48195689  0.76153297  1
  O  O70  1  0.16965738  0.68832462  0.76127407  1
  O  O71  1  0.51828486  0.83002516  0.76156480  1
loop_
_geom_bond_atom_site_label_1
_geom_bond_atom_site_label_2
_geom_bond_distance
_geom_bond_site_symmetry_2
Na0 O37 2.593467 1_555
Na0 O44 2.604767 1_555
Na0 O36 2.610454 1_655
Na0 O42 2.655061 1_565
Na0 O43 2.660677 1_665
Na0 O38 2.716350 1_665
Na1 O47 2.557969 1_556
Na1 O45 2.561454 1_446
Na1 O40 2.609318 1_545
Na1 O41 2.647472 1_445
Na1 O46 2.649449 1_456
Na1 O39 2.652143 1_555
Na2 O48 2.544533 1_555
Na2 O50 2.557907 1_555
Na2 O49 2.566187 1_555
Na2 O55 2.717426 1_555
Na2 O56 2.719335 1_555
Na2 O54 2.723075 1_555
Na3 O52 2.517086 1_555
Na3 O59 2.525149 1_555
Na3 O51 2.554777 1_555
Na3 O57 2.583906 1_555
Na3 O53 2.662772 1_555
Na3 O58 2.673508 1_555
Na4 O60 2.484701 1_555
Na4 O61 2.543424 1_555
Na4 O62 2.623649 1_555
Na4 O68 2.806460 1_555
Na4 O67 2.843284 1_555
Na4 O66 2.850480 1_555
Na5 O70 2.644875 1_555
Na5 O69 2.651434 1_555
Na5 O71 2.652240 1_555
Na5 O63 2.669870 1_555
Na5 O64 2.673395 1_555
Na5 O65 2.676883 1_555
In0 O1 2.037509 1_555
In0 O2 2.062749 1_565
In0 O37 2.094706 1_555
In0 O36 2.121830 1_655
In0 O0 2.199864 1_665
In0 O38 2.231144 1_665
In1 O3 2.089885 1_555
In1 O4 2.091261 1_445
In1 O5 2.102789 1_455
In1 O39 2.120522 1_555
In1 O41 2.138119 1_445
In1 O40 2.147818 1_545
In2 O6 2.089606 1_455
In2 O8 2.090913 1_555
In2 O7 2.093591 1_565
In2 O42 2.272353 1_465
In2 O43 2.273071 1_565
In2 O44 2.292077 1_455
In3 O10 2.152484 1_655
In3 O47 2.164820 1_655
In3 O9 2.166269 1_545
In3 O45 2.167579 1_545
In3 O46 2.216023 1_555
In3 O11 2.266179 1_645
In4 O49 2.083299 1_555
In4 O50 2.083988 1_555
In4 O48 2.088960 1_555
In4 O13 2.172395 1_555
In4 O14 2.186759 1_555
In4 O12 2.187426 1_555
In5 O15 2.035579 1_555
In5 O17 2.070403 1_555
In5 O51 2.108925 1_555
In5 O52 2.150075 1_555
In5 O16 2.172131 1_555
In5 O53 2.264413 1_555
In6 O57 2.127310 1_555
In6 O59 2.129500 1_555
In6 O23 2.142814 1_555
In6 O22 2.174951 1_555
In6 O21 2.185413 1_555
In6 O58 2.243506 1_555
In7 O25 2.053298 1_554
In7 O24 2.076457 1_554
In7 O26 2.077872 1_554
In7 O61 2.101410 1_555
In7 O60 2.133506 1_555
In7 O62 2.224544 1_555
In8 O27 2.040166 1_555
In8 O29 2.053247 1_555
In8 O28 2.157255 1_555
In8 O63 2.170161 1_555
In8 O65 2.189302 1_555
In8 O64 2.202885 1_555
O0 S0 1.467475 1_555
O1 P0 1.521162 1_555
O2 P1 1.524168 1_555
O3 P2 1.506896 1_555
O4 P3 1.506957 1_655
O5 P4 1.507127 1_545
O6 P4 1.545413 1_555
O7 P2 1.544234 1_555
O8 P3 1.544141 1_555
O9 P0 1.527340 1_555
O10 P1 1.529012 1_455
O11 S0 1.460181 1_565
O12 S1 1.471866 1_555
O13 S2 1.472071 1_555
O14 S3 1.472918 1_555
O15 P5 1.523148 1_555
O16 S4 1.476859 1_555
O17 P6 1.524556 1_555
O18 P6 1.607269 1_555
O18 Ta0 1.951735 1_554
O19 P5 1.603023 1_555
O19 Ta0 1.964840 1_554
O20 S4 1.503845 1_555
O20 Ta0 2.131130 1_554
O21 S2 1.487224 1_555
O22 S3 1.488701 1_555
O23 S1 1.484744 1_555
O24 P7 1.504988 1_555
O25 P8 1.504188 1_555
O26 P9 1.505641 1_555
O27 P10 1.524565 1_555
O28 S5 1.471845 1_555
O29 P11 1.523493 1_555
O30 P11 1.588046 1_555
O30 Ta1 1.964149 1_555
O31 P10 1.585288 1_555
O31 Ta1 1.976180 1_555
O32 S5 1.508023 1_555
O32 Ta1 2.072799 1_555
O33 P8 1.578819 1_555
O33 Ta2 2.007422 1_555
O34 P9 1.580193 1_555
O34 Ta2 2.001667 1_555
O35 P7 1.567833 1_555
O35 Ta2 2.021207 1_555
O36 P11 1.528171 1_555
O37 P10 1.527966 1_555
O38 S5 1.467035 1_555
O39 P8 1.514308 1_555
O40 P9 1.515941 1_555
O41 P7 1.511911 1_555
O42 S1 1.484959 1_555
O43 S2 1.486385 1_555
O44 S3 1.487509 1_555
O45 P5 1.540668 1_555
O46 S4 1.482551 1_555
O47 P6 1.542636 1_555
O48 P4 1.535644 1_545
O49 P2 1.534593 1_555
O50 P3 1.534348 1_655
O51 P0 1.531716 1_555
O52 P1 1.534055 1_555
O53 S0 1.469028 1_555
O54 P7 1.605995 1_555
O54 Ta0 1.958178 1_555
O55 P8 1.587081 1_655
O55 Ta0 2.023134 1_555
O56 P9 1.591246 1_545
O56 Ta0 2.017754 1_555
O57 P10 1.543890 1_545
O58 S5 1.478364 1_555
O59 P11 1.544890 1_655
O60 P6 1.528353 1_555
O61 P5 1.526918 1_455
O62 S4 1.469902 1_565
O63 S2 1.493601 1_565
O64 S3 1.495154 1_555
O65 S1 1.494357 1_455
O66 S0 1.539168 1_565
O66 Ta1 2.015631 1_555
O67 P0 1.606647 1_555
O67 Ta1 1.953500 1_555
O68 P1 1.613434 1_455
O68 Ta1 1.954831 1_555
O69 P2 1.588622 1_555
O69 Ta2 1.978389 1_555
O70 P3 1.589882 1_555
O70 Ta2 1.975326 1_555
O71 P4 1.589728 1_555
O71 Ta2 1.979140 1_555
