# generated using pymatgen
data_Dy3Mn3Ga2Si
_symmetry_space_group_name_H-M   'P 1'
_cell_length_a   7.11975055
_cell_length_b   7.11975055
_cell_length_c   3.91586900
_cell_angle_alpha   90.00000000
_cell_angle_beta   90.00000000
_cell_angle_gamma   120.00000508
_symmetry_Int_Tables_number   1
_chemical_formula_structural   Dy3Mn3Ga2Si
_chemical_formula_sum   'Dy3 Mn3 Ga2 Si1'
_cell_volume   171.90492506
_cell_formula_units_Z   1
loop_
 _symmetry_equiv_pos_site_id
 _symmetry_equiv_pos_as_xyz
  1  'x, y, z'
loop_
 _atom_site_type_symbol
 _atom_site_label
 _atom_site_symmetry_multiplicity
 _atom_site_fract_x
 _atom_site_fract_y
 _atom_site_fract_z
 _atom_site_occupancy
  Dy  Dy0  1  0.00000000  0.59548400  0.50000000  1
  Dy  Dy1  1  0.40451600  0.40451600  0.50000000  1
  Dy  Dy2  1  0.59548400  0.00000000  0.50000000  1
  Mn  Mn0  1  0.77887800  0.77887800  0.00000000  1
  Mn  Mn1  1  0.22112200  0.00000000  0.00000000  1
  Mn  Mn2  1  0.00000000  0.22112200  0.00000000  1
  Ga  Ga0  1  0.66666700  0.33333300  0.00000000  1
  Ga  Ga1  1  0.33333300  0.66666700  0.00000000  1
  Si  Si0  1  0.00000000  0.00000000  0.50000000  1
loop_
_geom_bond_atom_site_label_1
_geom_bond_atom_site_label_2
_geom_bond_distance
_geom_bond_site_symmetry_2
Dy0 Si0 2.880053 1_565
Dy0 Ga1 2.918885 1_556
Dy0 Ga1 2.918885 1_555
Dy0 Ga0 2.918887 1_456
Dy0 Ga0 2.918887 1_455
Dy0 Mn1 3.173732 1_566
Dy0 Mn1 3.173732 1_565
Dy0 Mn0 3.173732 1_456
Dy0 Mn0 3.173732 1_455
Dy0 Mn2 3.307215 1_555
Dy0 Mn2 3.307215 1_556
Dy1 Si0 2.880053 1_555
Dy1 Ga0 2.918890 1_555
Dy1 Ga1 2.918890 1_556
Dy1 Ga0 2.918890 1_556
Dy1 Ga1 2.918890 1_555
Dy1 Mn1 3.173732 1_555
Dy1 Mn1 3.173732 1_556
Dy1 Mn2 3.173732 1_555
Dy1 Mn2 3.173732 1_556
Dy1 Mn0 3.307215 1_556
Dy1 Mn0 3.307215 1_555
Dy2 Si0 2.880053 1_655
Dy2 Ga0 2.918885 1_555
Dy2 Ga0 2.918885 1_556
Dy2 Ga1 2.918887 1_546
Dy2 Ga1 2.918887 1_545
Dy2 Mn2 3.173732 1_655
Dy2 Mn2 3.173732 1_656
Dy2 Mn0 3.173732 1_545
Dy2 Mn0 3.173732 1_546
Dy2 Mn1 3.307215 1_555
Dy2 Mn1 3.307215 1_556
Mn0 Si0 2.512376 1_664
Mn0 Si0 2.512376 1_665
Mn0 Mn1 2.726825 1_665
Mn0 Mn2 2.726825 1_665
Mn1 Si0 2.512376 1_555
Mn1 Si0 2.512376 1_554
Mn1 Mn2 2.726826 1_555
Mn2 Si0 2.512376 1_555
Mn2 Si0 2.512376 1_554
Ga0 Mn2 2.857725 1_655
Ga0 Mn1 2.857730 1_555
Ga0 Mn0 2.857732 1_555
Ga1 Mn1 2.857725 1_565
Ga1 Mn2 2.857730 1_555
Ga1 Mn0 2.857732 1_555
