# generated using pymatgen
data_MgFe4(OF)4
_symmetry_space_group_name_H-M   'P 1'
_cell_length_a   5.14212072
_cell_length_b   9.72556095
_cell_length_c   3.07716979
_cell_angle_alpha   90.00000000
_cell_angle_beta   90.00000000
_cell_angle_gamma   85.98515246
_symmetry_Int_Tables_number   1
_chemical_formula_structural   MgFe4(OF)4
_chemical_formula_sum   'Mg1 Fe4 O4 F4'
_cell_volume   153.51163365
_cell_formula_units_Z   1
loop_
 _symmetry_equiv_pos_site_id
 _symmetry_equiv_pos_as_xyz
  1  'x, y, z'
loop_
 _atom_site_type_symbol
 _atom_site_label
 _atom_site_symmetry_multiplicity
 _atom_site_fract_x
 _atom_site_fract_y
 _atom_site_fract_z
 _atom_site_occupancy
  Mg  Mg0  1  0.50000000  0.00000000  0.00000000  1
  Fe  Fe0  1  -0.00000000  0.00000000  0.00000000  1
  Fe  Fe1  1  -0.00000000  0.50000000  0.00000000  1
  Fe  Fe2  1  0.57466912  0.27587468  0.50000000  1
  Fe  Fe3  1  0.42533088  0.72412532  0.50000000  1
  O  O0  1  0.26168790  0.92555096  0.50000000  1
  O  O1  1  0.25938879  0.65588553  -0.00000000  1
  O  O2  1  0.74061121  0.34411447  0.00000000  1
  O  O3  1  0.73831210  0.07444904  0.50000000  1
  F  F0  1  0.24695695  0.40341107  0.50000000  1
  F  F1  1  0.31725297  0.18068055  -0.00000000  1
  F  F2  1  0.68274703  0.81931945  0.00000000  1
  F  F3  1  0.75304305  0.59658893  0.50000000  1
loop_
_geom_bond_atom_site_label_1
_geom_bond_atom_site_label_2
_geom_bond_distance
_geom_bond_site_symmetry_2
Mg0 O0 2.125424 1_544
Mg0 O0 2.125424 1_545
Mg0 O3 2.125424 1_554
Mg0 O3 2.125424 1_555
Fe0 O3 2.136772 1_455
Fe0 O3 2.136772 1_454
Fe0 O0 2.136772 1_544
Fe0 O0 2.136772 1_545
Fe1 O2 2.088226 1_455
Fe1 O1 2.088226 1_555
Fe2 O2 1.901345 1_555
Fe2 O2 1.901345 1_556
Fe2 O3 2.077219 1_555
Fe3 O1 1.901345 1_555
Fe3 O1 1.901345 1_556
Fe3 O0 2.077219 1_555
F0 Fe2 2.021261 1_555
F0 Fe1 2.166850 1_555
F0 Fe1 2.166850 1_556
F1 Mg0 1.933816 1_555
F1 Fe2 2.268936 1_555
F1 Fe2 2.268936 1_554
F1 Fe0 2.480030 1_555
F2 Mg0 1.933816 1_565
F2 Fe3 2.268936 1_555
F2 Fe3 2.268936 1_554
F2 Fe0 2.480030 1_665
F3 Fe3 2.021261 1_555
F3 Fe1 2.166850 1_655
F3 Fe1 2.166850 1_656
