# generated using pymatgen
data_Tl3Ir(NO2)6
_symmetry_space_group_name_H-M   'P 1'
_cell_length_a   7.61103718
_cell_length_b   7.61103718
_cell_length_c   7.61103718
_cell_angle_alpha   60.00000000
_cell_angle_beta   60.00000000
_cell_angle_gamma   60.00000000
_symmetry_Int_Tables_number   1
_chemical_formula_structural   Tl3Ir(NO2)6
_chemical_formula_sum   'Tl3 Ir1 N6 O12'
_cell_volume   311.75722865
_cell_formula_units_Z   1
loop_
 _symmetry_equiv_pos_site_id
 _symmetry_equiv_pos_as_xyz
  1  'x, y, z'
loop_
 _atom_site_type_symbol
 _atom_site_label
 _atom_site_symmetry_multiplicity
 _atom_site_fract_x
 _atom_site_fract_y
 _atom_site_fract_z
 _atom_site_occupancy
  Tl  Tl0  1  0.75000000  0.75000000  0.75000000  1
  Tl  Tl1  1  0.25000000  0.25000000  0.25000000  1
  Tl  Tl2  1  0.50000000  0.50000000  0.50000000  1
  Ir  Ir0  1  0.00000000  0.00000000  0.00000000  1
  N  N0  1  0.18709700  0.18709700  0.81290300  1
  N  N1  1  0.81290300  0.18709700  0.81290300  1
  N  N2  1  0.81290300  0.81290300  0.18709700  1
  N  N3  1  0.81290300  0.18709700  0.18709700  1
  N  N4  1  0.18709700  0.81290300  0.18709700  1
  N  N5  1  0.18709700  0.81290300  0.81290300  1
  O  O0  1  0.58633200  0.41366800  0.00000000  1
  O  O1  1  0.58633200  0.00000000  0.41366800  1
  O  O2  1  0.58633200  0.00000000  0.00000000  1
  O  O3  1  0.00000000  0.00000000  0.58633200  1
  O  O4  1  0.41366800  0.00000000  0.00000000  1
  O  O5  1  0.41366800  0.00000000  0.58633200  1
  O  O6  1  0.00000000  0.41366800  0.00000000  1
  O  O7  1  0.00000000  0.00000000  0.41366800  1
  O  O8  1  0.41366800  0.58633200  0.00000000  1
  O  O9  1  0.00000000  0.58633200  0.41366800  1
  O  O10  1  0.00000000  0.41366800  0.58633200  1
  O  O11  1  0.00000000  0.58633200  0.00000000  1
loop_
_geom_bond_atom_site_label_1
_geom_bond_atom_site_label_2
_geom_bond_distance
_geom_bond_site_symmetry_2
Ir0 N4 2.013843 1_545
Ir0 N0 2.013843 1_554
Ir0 N3 2.013843 1_455
Ir0 N5 2.013843 1_544
Ir0 N2 2.013843 1_445
Ir0 N1 2.013843 1_454
O0 O8 1.314152 1_555
O0 Tl1 2.769970 1_555
O0 Tl0 2.769970 1_554
O1 O5 1.314152 1_555
O1 Tl1 2.769970 1_555
O1 Tl0 2.769970 1_545
O2 O4 1.314152 1_555
O2 Tl1 2.769970 1_555
O2 Tl0 2.769970 1_544
O3 O7 1.314152 1_555
O3 Tl1 2.769970 1_555
O3 Tl0 2.769970 1_445
O4 Tl1 2.769970 1_555
O4 Tl0 2.769970 1_544
O5 Tl1 2.769970 1_555
O5 Tl0 2.769970 1_545
O6 Tl0 2.769970 1_454
O6 Tl1 2.769970 1_555
O7 Tl1 2.769970 1_555
O7 Tl0 2.769970 1_445
O8 Tl1 2.769970 1_555
O8 Tl0 2.769970 1_554
O9 Tl1 2.769970 1_555
O9 Tl0 2.769970 1_455
O10 O9 1.314152 1_555
O10 Tl1 2.769970 1_555
O10 Tl0 2.769970 1_455
O11 O6 1.314152 1_555
O11 Tl0 2.769970 1_454
O11 Tl1 2.769970 1_555
