# generated using pymatgen
data_CrClO
_symmetry_space_group_name_H-M   'P 1'
_cell_length_a   3.19007562
_cell_length_b   3.86656054
_cell_length_c   7.95246044
_cell_angle_alpha   90.00000000
_cell_angle_beta   90.00000000
_cell_angle_gamma   90.00000000
_symmetry_Int_Tables_number   1
_chemical_formula_structural   CrClO
_chemical_formula_sum   'Cr2 Cl2 O2'
_cell_volume   98.09058166
_cell_formula_units_Z   2
loop_
 _symmetry_equiv_pos_site_id
 _symmetry_equiv_pos_as_xyz
  1  'x, y, z'
loop_
 _atom_site_type_symbol
 _atom_site_label
 _atom_site_symmetry_multiplicity
 _atom_site_fract_x
 _atom_site_fract_y
 _atom_site_fract_z
 _atom_site_occupancy
  Cr  Cr0  1  0.24999900  0.25000000  0.10604082  1
  Cr  Cr1  1  0.75000100  0.75000100  0.89396018  1
  Cl  Cl0  1  0.24999900  0.75000100  0.68142244  1
  Cl  Cl1  1  0.75000100  0.25000000  0.31857756  1
  O  O0  1  0.75000100  0.25000000  0.94781840  1
  O  O1  1  0.24999900  0.75000100  0.05218260  1
loop_
_geom_bond_atom_site_label_1
_geom_bond_atom_site_label_2
_geom_bond_distance
_geom_bond_site_symmetry_2
Cr0 O1 1.980152 1_545
Cr0 O1 1.980160 1_555
Cr0 O0 2.031585 1_454
Cr0 O0 2.031595 1_554
Cr1 O0 1.980152 1_565
Cr1 O0 1.980160 1_555
Cr1 O1 2.031585 1_656
Cr1 O1 2.031595 1_556
Cl0 Cr1 2.323982 1_455
Cl0 Cr1 2.323991 1_555
Cl1 Cr0 2.323977 1_655
Cl1 Cr0 2.323985 1_555
