# generated using pymatgen
data_Mn2Sn
_symmetry_space_group_name_H-M   'P 1'
_cell_length_a   4.50776028
_cell_length_b   4.50776028
_cell_length_c   5.49499900
_cell_angle_alpha   90.00000000
_cell_angle_beta   90.00000000
_cell_angle_gamma   120.00000414
_symmetry_Int_Tables_number   1
_chemical_formula_structural   Mn2Sn
_chemical_formula_sum   'Mn4 Sn2'
_cell_volume   96.69852657
_cell_formula_units_Z   2
loop_
 _symmetry_equiv_pos_site_id
 _symmetry_equiv_pos_as_xyz
  1  'x, y, z'
loop_
 _atom_site_type_symbol
 _atom_site_label
 _atom_site_symmetry_multiplicity
 _atom_site_fract_x
 _atom_site_fract_y
 _atom_site_fract_z
 _atom_site_occupancy
  Mn  Mn0  1  0.00000000  0.00000000  0.00000000  1
  Mn  Mn1  1  0.00000000  0.00000000  0.50000000  1
  Mn  Mn2  1  0.33333300  0.66666700  0.75000000  1
  Mn  Mn3  1  0.66666700  0.33333300  0.25000000  1
  Sn  Sn0  1  0.33333300  0.66666700  0.25000000  1
  Sn  Sn1  1  0.66666700  0.33333300  0.75000000  1
loop_
_geom_bond_atom_site_label_1
_geom_bond_atom_site_label_2
_geom_bond_distance
_geom_bond_site_symmetry_2
Mn0 Mn1 2.747499 1_555
Mn0 Mn1 2.747499 1_554
Mn0 Sn1 2.942869 1_454
Mn0 Sn0 2.942869 1_545
Mn0 Mn2 2.942869 1_544
Mn0 Mn3 2.942869 1_455
Mn0 Sn1 2.942872 1_554
Mn0 Mn3 2.942872 1_555
Mn0 Mn2 2.942872 1_554
Mn0 Mn3 2.942872 1_445
Mn0 Sn0 2.942872 1_445
Mn0 Sn0 2.942872 1_555
Mn0 Mn2 2.942872 1_444
Mn0 Sn1 2.942872 1_444
Mn1 Sn0 2.942869 1_545
Mn1 Mn3 2.942869 1_455
Mn1 Mn2 2.942869 1_545
Mn1 Sn1 2.942869 1_455
Mn1 Sn1 2.942872 1_555
Mn1 Mn2 2.942872 1_445
Mn1 Mn3 2.942872 1_555
Mn1 Mn3 2.942872 1_445
Mn1 Sn0 2.942872 1_445
Mn1 Sn0 2.942872 1_555
Mn1 Mn2 2.942872 1_555
Mn1 Sn1 2.942872 1_445
Mn2 Sn1 2.602554 1_455
Mn2 Sn1 2.602554 1_565
Mn2 Sn1 2.602562 1_555
Mn2 Sn0 2.747499 1_555
Mn2 Sn0 2.747499 1_556
Mn3 Sn0 2.602554 1_545
Mn3 Sn0 2.602554 1_655
Mn3 Sn0 2.602562 1_555
Mn3 Sn1 2.747499 1_555
Mn3 Sn1 2.747499 1_554
