# generated using pymatgen
data_Na3GaGe3(PO4)6
_symmetry_space_group_name_H-M   'P 1'
_cell_length_a   8.45339310
_cell_length_b   8.45465364
_cell_length_c   21.77959297
_cell_angle_alpha   89.99713032
_cell_angle_beta   89.98583963
_cell_angle_gamma   120.21464873
_symmetry_Int_Tables_number   1
_chemical_formula_structural   Na3GaGe3(PO4)6
_chemical_formula_sum   'Na9 Ga3 Ge9 P18 O72'
_cell_volume   1345.12867500
_cell_formula_units_Z   3
loop_
 _symmetry_equiv_pos_site_id
 _symmetry_equiv_pos_as_xyz
  1  'x, y, z'
loop_
 _atom_site_type_symbol
 _atom_site_label
 _atom_site_symmetry_multiplicity
 _atom_site_fract_x
 _atom_site_fract_y
 _atom_site_fract_z
 _atom_site_occupancy
  Na  Na0  1  0.36546626  0.36223823  0.24847798  1
  Na  Na1  1  0.63522675  0.63251448  0.74911798  1
  Na  Na2  1  0.96857513  0.29903120  0.41548407  1
  Na  Na3  1  0.00064401  0.99343866  0.49988619  1
  Na  Na4  1  0.99996366  0.00000609  0.00084359  1
  Na  Na5  1  0.66734214  0.32685820  0.83391841  1
  Na  Na6  1  0.66696100  0.33354039  0.33110087  1
  Na  Na7  1  0.33276803  0.67330041  0.16489861  1
  Na  Na8  1  0.32712481  0.66758061  0.66546115  1
  Ga  Ga0  1  0.99977067  0.99406946  0.35205028  1
  Ga  Ga1  1  0.66705101  0.32793282  0.68518090  1
  Ga  Ga2  1  0.67152941  0.33250737  0.18407952  1
  Ge  Ge0  1  0.00071423  0.00110383  0.85479589  1
  Ge  Ge1  1  0.00138564  0.00088489  0.64572020  1
  Ge  Ge2  1  0.99868961  0.99775973  0.14570347  1
  Ge  Ge3  1  0.66712422  0.33306455  0.98148411  1
  Ge  Ge4  1  0.66223440  0.33347663  0.48199075  1
  Ge  Ge5  1  0.33294911  0.66673897  0.02033887  1
  Ge  Ge6  1  0.33396437  0.66813851  0.52072180  1
  Ge  Ge7  1  0.33410397  0.67222069  0.31281274  1
  Ge  Ge8  1  0.32893209  0.66746126  0.81526126  1
  P  P0  1  0.28741660  0.99639689  0.24981999  1
  P  P1  1  0.71345756  0.71344541  0.25008028  1
  P  P2  1  0.99534952  0.28779230  0.25091121  1
  P  P3  1  0.28308436  0.28463220  0.75083536  1
  P  P4  1  0.00572262  0.71586510  0.75062378  1
  P  P5  1  0.71459109  0.00366101  0.75109579  1
  P  P6  1  0.95730184  0.33380504  0.58311657  1
  P  P7  1  0.37629259  0.04265531  0.58338026  1
  P  P8  1  0.66603012  0.62341566  0.58377534  1
  P  P9  1  0.95675022  0.62299825  0.08274283  1
  P  P10  1  0.66649258  0.04337454  0.08289299  1
  P  P11  1  0.37664809  0.33382436  0.08319431  1
  P  P12  1  0.62119523  0.66570745  0.91693600  1
  P  P13  1  0.04451008  0.37861575  0.91726773  1
  P  P14  1  0.33391182  0.95523421  0.91717371  1
  P  P15  1  0.61720886  0.95213686  0.41779220  1
  P  P16  1  0.33931161  0.38175928  0.41734148  1
  P  P17  1  0.04706594  0.67014776  0.41795676  1
  O  O0  1  0.21176472  0.04086492  0.30718900  1
  O  O1  1  0.82499061  0.79008688  0.30834525  1
  O  O2  1  0.96687701  0.17916828  0.31042735  1
  O  O3  1  0.20165898  0.16670222  0.80861260  1
  O  O4  1  0.96101608  0.79664067  0.80769863  1
  O  O5  1  0.83223010  0.03469034  0.80870510  1
  O  O6  1  0.79180219  0.95473425  0.69347283  1
  O  O7  1  0.16516176  0.20588433  0.69239738  1
  O  O8  1  0.04120476  0.83400257  0.69233940  1
  O  O9  1  0.79265927  0.83327027  0.19195050  1
  O  O10  1  0.04475713  0.20805004  0.19409731  1
  O  O11  1  0.16715120  0.95907598  0.19185012  1
  O  O12  1  0.87929713  0.37298465  0.63986282  1
  O  O13  1  0.49163702  0.11951432  0.64069613  1
  O  O14  1  0.62872879  0.51132574  0.64254743  1
  O  O15  1  0.88105503  0.50859530  0.14024367  1
  O  O16  1  0.62645955  0.11855485  0.14016655  1
  O  O17  1  0.48805642  0.37145618  0.14200858  1
  O  O18  1  0.45924378  0.29506992  0.02533258  1
  O  O19  1  0.83673944  0.54235778  0.02425266  1
  O  O20  1  0.70595314  0.16318660  0.02438043  1
  O  O21  1  0.45661234  0.16253821  0.52483893  1
  O  O22  1  0.70542117  0.54124465  0.52590297  1
  O  O23  1  0.84024354  0.29543652  0.52331590  1
  O  O24  1  0.53763992  0.70448564  0.97325756  1
  O  O25  1  0.16597192  0.46086389  0.97405543  1
  O  O26  1  0.29464917  0.83389891  0.97395225  1
  O  O27  1  0.53507082  0.83364382  0.47525334  1
  O  O28  1  0.29539942  0.46488794  0.47365684  1
  O  O29  1  0.16512100  0.70107495  0.47528984  1
  O  O30  1  0.12459276  0.62085886  0.36048006  1
  O  O31  1  0.49904890  0.87343772  0.35947325  1
  O  O32  1  0.37360826  0.49702896  0.35784382  1
  O  O33  1  0.12466569  0.49705728  0.85852172  1
  O  O34  1  0.37282645  0.87539277  0.85855962  1
  O  O35  1  0.50561314  0.62906634  0.85694927  1
  O  O36  1  0.02692368  0.83717306  0.41201455  1
  O  O37  1  0.80979972  0.97922304  0.41218636  1
  O  O38  1  0.16649079  0.19328854  0.41187003  1
  O  O39  1  0.02645465  0.18807489  0.90970717  1
  O  O40  1  0.16139220  0.97310675  0.90940742  1
  O  O41  1  0.81251181  0.83871851  0.90944970  1
  O  O42  1  0.97555498  0.16078048  0.58941510  1
  O  O43  1  0.18444810  0.02355479  0.58936055  1
  O  O44  1  0.83927103  0.81579058  0.58968468  1
  O  O45  1  0.97644038  0.81512837  0.08893037  1
  O  O46  1  0.83917452  0.02422965  0.08945351  1
  O  O47  1  0.18396662  0.16086668  0.08947696  1
  O  O48  1  0.69361609  0.17038433  0.74500243  1
  O  O49  1  0.47606429  0.31209899  0.74494085  1
  O  O50  1  0.83292423  0.52711385  0.74466731  1
  O  O51  1  0.68371825  0.52007329  0.24346704  1
  O  O52  1  0.83004533  0.30999514  0.24418017  1
  O  O53  1  0.47675517  0.16735830  0.24311108  1
  O  O54  1  0.64016650  0.49408865  0.92362291  1
  O  O55  1  0.85353126  0.35917412  0.92384818  1
  O  O56  1  0.50578390  0.14687538  0.92395108  1
  O  O57  1  0.64018045  0.14713791  0.42429977  1
  O  O58  1  0.51164658  0.36471043  0.42431146  1
  O  O59  1  0.85608106  0.49139267  0.42454389  1
  O  O60  1  0.35745606  0.50549388  0.07463898  1
  O  O61  1  0.14823781  0.64296415  0.07448364  1
  O  O62  1  0.49475033  0.85124455  0.07437905  1
  O  O63  1  0.35663188  0.85172292  0.57527802  1
  O  O64  1  0.49453523  0.64224372  0.57523636  1
  O  O65  1  0.14911986  0.50513376  0.57493142  1
  O  O66  1  0.30375318  0.82267270  0.25667601  1
  O  O67  1  0.51725969  0.69071709  0.25632404  1
  O  O68  1  0.17602861  0.47971959  0.25686176  1
  O  O69  1  0.30676692  0.48016594  0.75746327  1
  O  O70  1  0.17765193  0.69762567  0.75761625  1
  O  O71  1  0.52311005  0.82485773  0.75768329  1
loop_
_geom_bond_atom_site_label_1
_geom_bond_atom_site_label_2
_geom_bond_distance
_geom_bond_site_symmetry_2
Na0 O53 2.274532 1_555
Na0 O68 2.277094 1_555
Na0 O51 2.327427 1_555
Na0 O67 2.408713 1_555
Na0 O17 2.524800 1_555
Na0 O10 2.626171 1_555
Na0 O32 2.626501 1_555
Na0 O0 2.674231 1_555
Na1 O50 2.257278 1_555
Na1 O71 2.264677 1_555
Na1 O49 2.342827 1_555
Na1 O69 2.408685 1_555
Na1 O14 2.526624 1_555
Na1 O35 2.585243 1_555
Na1 O6 2.648007 1_555
Na1 O4 2.700662 1_555
Na2 O38 2.260524 1_655
Na2 O59 2.268219 1_555
Na2 O37 2.337728 1_545
Na2 O57 2.409167 1_555
Na2 O2 2.499632 1_555
Na2 O23 2.580495 1_555
Na2 O30 2.639152 1_655
Na2 O28 2.703176 1_655
Na3 O36 2.398532 1_555
Na3 O44 2.424467 1_455
Na3 O43 2.424846 1_565
Na3 O37 2.464116 1_455
Na3 O38 2.471706 1_565
Na3 O42 2.480099 1_465
Na4 O45 2.418687 1_545
Na4 O47 2.422418 1_655
Na4 O46 2.427507 1_555
Na4 O39 2.481813 1_654
Na4 O41 2.481863 1_544
Na4 O40 2.488134 1_644
Na5 O48 2.417747 1_555
Na5 O56 2.435665 1_555
Na5 O55 2.440679 1_555
Na5 O49 2.486769 1_555
Na5 O54 2.489143 1_555
Na5 O50 2.493484 1_555
Na6 O52 2.408109 1_555
Na6 O51 2.434091 1_555
Na6 O53 2.441295 1_555
Na6 O58 2.502296 1_555
Na6 O57 2.509087 1_555
Na6 O59 2.516597 1_555
Na7 O62 2.439275 1_555
Na7 O66 2.441787 1_555
Na7 O61 2.444531 1_555
Na7 O67 2.487833 1_555
Na7 O60 2.493776 1_555
Na7 O68 2.502334 1_555
Na8 O63 2.439779 1_555
Na8 O65 2.441281 1_555
Na8 O70 2.451814 1_555
Na8 O64 2.492766 1_555
Na8 O69 2.506090 1_555
Na8 O71 2.516326 1_555
Ga0 O1 1.870710 1_555
Ga0 O0 1.899520 1_665
Ga0 O2 1.945798 1_565
Ga0 O36 1.955597 1_655
Ga0 O37 2.026363 1_555
Ga0 O38 2.032875 1_665
Ga1 O13 1.900934 1_555
Ga1 O12 1.910412 1_555
Ga1 O48 1.955314 1_555
Ga1 O14 1.968962 1_555
Ga1 O49 2.024827 1_555
Ga1 O50 2.026101 1_555
Ga2 O15 1.900028 1_555
Ga2 O16 1.907532 1_555
Ga2 O52 1.950066 1_555
Ga2 O17 1.966785 1_555
Ga2 O53 1.999611 1_555
Ga2 O51 2.008528 1_555
Ge0 O3 1.860848 1_555
Ge0 O5 1.877388 1_455
Ge0 O4 1.889327 1_445
Ge0 O39 1.905415 1_555
Ge0 O41 1.906153 1_445
Ge0 O40 1.907883 1_545
Ge1 O7 1.881484 1_555
Ge1 O8 1.900788 1_545
Ge1 O43 1.907546 1_555
Ge1 O44 1.912845 1_445
Ge1 O6 1.917311 1_445
Ge1 O42 1.917314 1_455
Ge2 O9 1.882318 1_555
Ge2 O11 1.901192 1_655
Ge2 O45 1.912198 1_555
Ge2 O46 1.916710 1_565
Ge2 O47 1.918173 1_665
Ge2 O10 1.930579 1_665
Ge3 O19 1.871329 1_556
Ge3 O20 1.875616 1_556
Ge3 O18 1.879970 1_556
Ge3 O56 1.936087 1_555
Ge3 O55 1.938150 1_555
Ge3 O54 1.950810 1_555
Ge4 O21 1.857850 1_555
Ge4 O22 1.867758 1_555
Ge4 O58 1.899320 1_555
Ge4 O23 1.914582 1_555
Ge4 O57 1.949408 1_555
Ge4 O59 1.957043 1_555
Ge5 O62 1.882277 1_555
Ge5 O61 1.884753 1_555
Ge5 O25 1.888460 1_554
Ge5 O26 1.892988 1_554
Ge5 O60 1.893216 1_555
Ge5 O24 1.894905 1_554
Ge6 O27 1.852986 1_555
Ge6 O29 1.869363 1_555
Ge6 O28 1.883205 1_555
Ge6 O63 1.886442 1_555
Ge6 O65 1.888488 1_555
Ge6 O64 1.897351 1_555
Ge7 O31 1.866686 1_555
Ge7 O66 1.872744 1_555
Ge7 O30 1.904752 1_555
Ge7 O67 1.921103 1_555
Ge7 O68 1.931715 1_555
Ge7 O32 1.940406 1_555
Ge8 O33 1.854782 1_555
Ge8 O34 1.860455 1_555
Ge8 O70 1.898870 1_555
Ge8 O35 1.910252 1_555
Ge8 O69 1.956768 1_555
Ge8 O71 1.959116 1_555
O0 P0 1.534000 1_545
O1 P1 1.518195 1_555
O2 P2 1.535849 1_555
O3 P3 1.536259 1_555
O4 P4 1.553722 1_655
O5 P5 1.539518 1_555
O6 P5 1.563187 1_565
O7 P3 1.545834 1_555
O8 P4 1.548273 1_555
O9 P1 1.547330 1_555
O10 P2 1.563117 1_455
O11 P0 1.550808 1_555
O12 P6 1.513769 1_555
O13 P7 1.514679 1_555
O14 P8 1.528047 1_555
O15 P9 1.513247 1_555
O16 P10 1.513574 1_555
O17 P11 1.525800 1_555
O18 P11 1.553332 1_555
O19 P9 1.556089 1_555
O20 P10 1.555954 1_555
O21 P7 1.555880 1_555
O22 P8 1.554009 1_555
O23 P6 1.567914 1_555
O24 P12 1.530937 1_555
O25 P13 1.532840 1_555
O26 P14 1.532553 1_555
O27 P15 1.533390 1_555
O28 P16 1.548731 1_555
O29 P17 1.536733 1_555
O30 P17 1.563564 1_555
O31 P15 1.544518 1_555
O32 P16 1.558309 1_555
O33 P13 1.554169 1_555
O34 P14 1.554653 1_555
O35 P12 1.566382 1_555
O36 P17 1.510590 1_555
O37 P15 1.530535 1_555
O38 P16 1.531240 1_555
O39 P13 1.548599 1_555
O40 P14 1.549265 1_555
O41 P12 1.549400 1_555
O42 P6 1.552343 1_555
O43 P7 1.552217 1_555
O44 P8 1.552222 1_555
O45 P9 1.553198 1_555
O46 P10 1.554154 1_555
O47 P11 1.553284 1_555
O48 P5 1.512460 1_555
O49 P3 1.533059 1_555
O50 P4 1.533350 1_655
O51 P1 1.530750 1_555
O52 P2 1.507818 1_555
O53 P0 1.530933 1_545
O54 P12 1.544817 1_555
O55 P13 1.544896 1_655
O56 P14 1.545557 1_545
O57 P15 1.566432 1_545
O58 P16 1.541943 1_555
O59 P17 1.566921 1_655
O60 P11 1.550680 1_555
O61 P9 1.551110 1_455
O62 P10 1.551563 1_565
O63 P7 1.547460 1_565
O64 P8 1.547254 1_555
O65 P6 1.547616 1_455
O66 P0 1.550102 1_555
O67 P1 1.576477 1_555
O68 P2 1.577447 1_455
O69 P3 1.568700 1_555
O70 P4 1.544341 1_555
O71 P5 1.569392 1_565
