# generated using pymatgen
data_HoMnSi
_symmetry_space_group_name_H-M   'P 1'
_cell_length_a   4.07901700
_cell_length_b   6.94807900
_cell_length_c   7.58667700
_cell_angle_alpha   90.00000000
_cell_angle_beta   90.00000000
_cell_angle_gamma   90.00000000
_symmetry_Int_Tables_number   1
_chemical_formula_structural   HoMnSi
_chemical_formula_sum   'Ho4 Mn4 Si4'
_cell_volume   215.01653435
_cell_formula_units_Z   4
loop_
 _symmetry_equiv_pos_site_id
 _symmetry_equiv_pos_as_xyz
  1  'x, y, z'
loop_
 _atom_site_type_symbol
 _atom_site_label
 _atom_site_symmetry_multiplicity
 _atom_site_fract_x
 _atom_site_fract_y
 _atom_site_fract_z
 _atom_site_occupancy
  Ho  Ho0  1  0.25000000  0.51149200  0.18470800  1
  Ho  Ho1  1  0.75000000  0.48850800  0.81529200  1
  Ho  Ho2  1  0.25000000  0.01149200  0.31529200  1
  Ho  Ho3  1  0.75000000  0.98850800  0.68470800  1
  Mn  Mn0  1  0.75000000  0.86220200  0.05742300  1
  Mn  Mn1  1  0.25000000  0.13779800  0.94257700  1
  Mn  Mn2  1  0.75000000  0.36220200  0.44257700  1
  Mn  Mn3  1  0.25000000  0.63779800  0.55742300  1
  Si  Si0  1  0.25000000  0.78698400  0.88748700  1
  Si  Si1  1  0.75000000  0.21301600  0.11251300  1
  Si  Si2  1  0.25000000  0.28698400  0.61251300  1
  Si  Si3  1  0.75000000  0.71301600  0.38748700  1
loop_
_geom_bond_atom_site_label_1
_geom_bond_atom_site_label_2
_geom_bond_distance
_geom_bond_site_symmetry_2
Ho0 Si3 2.913229 1_455
Ho0 Si3 2.913229 1_555
Ho0 Si0 2.957802 1_554
Ho0 Si1 2.959794 1_455
Ho0 Si1 2.959794 1_555
Ho0 Mn3 2.960720 1_555
Ho0 Mn2 3.010469 1_455
Ho0 Mn2 3.010469 1_555
Ho0 Mn1 3.180572 1_554
Ho0 Mn0 3.321132 1_555
Ho0 Mn0 3.321132 1_455
Ho1 Si2 2.913229 1_555
Ho1 Si2 2.913229 1_655
Ho1 Si1 2.957802 1_556
Ho1 Si0 2.959794 1_655
Ho1 Si0 2.959794 1_555
Ho1 Mn2 2.960720 1_555
Ho1 Mn3 3.010469 1_555
Ho1 Mn3 3.010469 1_655
Ho1 Mn0 3.180572 1_556
Ho1 Mn1 3.321132 1_555
Ho1 Mn1 3.321132 1_655
Ho2 Si1 2.913229 1_555
Ho2 Si1 2.913229 1_455
Ho2 Si2 2.957802 1_555
Ho2 Si3 2.959794 1_545
Ho2 Si3 2.959794 1_445
Ho2 Mn1 2.960720 1_554
Ho2 Mn0 3.010469 1_445
Ho2 Mn0 3.010469 1_545
Ho2 Mn3 3.180572 1_545
Ho2 Mn2 3.321132 1_555
Ho2 Mn2 3.321132 1_455
Ho3 Si0 2.913229 1_555
Ho3 Si0 2.913229 1_655
Ho3 Si3 2.957802 1_555
Ho3 Si2 2.959794 1_665
Ho3 Si2 2.959794 1_565
Ho3 Mn0 2.960720 1_556
Ho3 Mn1 3.010469 1_565
Ho3 Mn1 3.010469 1_665
Ho3 Mn2 3.180572 1_565
Ho3 Mn3 3.321132 1_555
Ho3 Mn3 3.321132 1_655
Mn0 Si0 2.468783 1_654
Mn0 Si0 2.468783 1_554
Mn0 Si1 2.473056 1_565
Mn0 Si3 2.710149 1_555
Mn1 Si1 2.468783 1_456
Mn1 Si1 2.468783 1_556
Mn1 Si0 2.473056 1_545
Mn1 Si2 2.710149 1_555
Mn2 Si2 2.468783 1_655
Mn2 Si2 2.468783 1_555
Mn2 Si3 2.473056 1_555
Mn2 Si1 2.710149 1_555
Mn3 Si3 2.468783 1_455
Mn3 Si3 2.468783 1_555
Mn3 Si2 2.473056 1_555
Mn3 Si0 2.710149 1_555
