# generated using pymatgen
data_GdAl7Au3
_symmetry_space_group_name_H-M   'P 1'
_cell_length_a   8.40139769
_cell_length_b   8.40139769
_cell_length_c   8.40139870
_cell_angle_alpha   57.37136690
_cell_angle_beta   57.37136690
_cell_angle_gamma   57.37137043
_symmetry_Int_Tables_number   1
_chemical_formula_structural   GdAl7Au3
_chemical_formula_sum   'Gd2 Al14 Au6'
_cell_volume   393.94700204
_cell_formula_units_Z   2
loop_
 _symmetry_equiv_pos_site_id
 _symmetry_equiv_pos_as_xyz
  1  'x, y, z'
loop_
 _atom_site_type_symbol
 _atom_site_label
 _atom_site_symmetry_multiplicity
 _atom_site_fract_x
 _atom_site_fract_y
 _atom_site_fract_z
 _atom_site_occupancy
  Gd  Gd0  1  -0.00000000  0.00000000  0.00000000  1
  Gd  Gd1  1  0.50000000  0.50000000  0.50000000  1
  Al  Al0  1  0.93204297  0.14718324  0.33149398  1
  Al  Al1  1  0.33149398  0.93204297  0.14718324  1
  Al  Al2  1  0.14718324  0.33149398  0.93204297  1
  Al  Al3  1  0.56795703  0.16850602  0.35281676  1
  Al  Al4  1  0.35281676  0.56795703  0.16850602  1
  Al  Al5  1  0.16850602  0.35281676  0.56795703  1
  Al  Al6  1  0.06795703  0.85281676  0.66850602  1
  Al  Al7  1  0.66850602  0.06795703  0.85281676  1
  Al  Al8  1  0.75000000  0.75000000  0.75000000  1
  Al  Al9  1  0.25000000  0.25000000  0.25000000  1
  Al  Al10  1  0.83149398  0.64718324  0.43204297  1
  Al  Al11  1  0.64718324  0.43204297  0.83149398  1
  Al  Al12  1  0.43204297  0.83149398  0.64718324  1
  Al  Al13  1  0.85281676  0.66850602  0.06795703  1
  Au  Au0  1  0.25000000  0.57336200  0.92663800  1
  Au  Au1  1  0.92663800  0.25000000  0.57336200  1
  Au  Au2  1  0.57336200  0.92663800  0.25000000  1
  Au  Au3  1  0.75000000  0.42663800  0.07336200  1
  Au  Au4  1  0.07336200  0.75000000  0.42663800  1
  Au  Au5  1  0.42663800  0.07336200  0.75000000  1
loop_
_geom_bond_atom_site_label_1
_geom_bond_atom_site_label_2
_geom_bond_distance
_geom_bond_site_symmetry_2
Al0 Au1 2.574572 1_555
Al0 Au3 2.601591 1_555
Al0 Au4 2.656711 1_645
Al0 Al1 2.792876 1_645
Al0 Al2 2.792876 1_654
Al0 Al9 2.868615 1_655
Al0 Al3 2.876353 1_555
Al0 Al6 2.885617 1_645
Al0 Gd0 3.293785 1_655
Al0 Gd1 3.368514 1_555
Al1 Au2 2.574572 1_555
Al1 Au4 2.601590 1_555
Al1 Au5 2.656712 1_564
Al1 Al2 2.792876 1_564
Al1 Al9 2.868615 1_565
Al1 Al4 2.876353 1_555
Al1 Al7 2.885617 1_564
Al1 Gd0 3.293785 1_565
Al1 Gd1 3.368515 1_555
Al2 Au0 2.574572 1_555
Al2 Au5 2.601590 1_555
Al2 Au3 2.656711 1_456
Al2 Al9 2.868615 1_556
Al2 Al5 2.876354 1_555
Al2 Gd0 3.293785 1_556
Al2 Gd1 3.368514 1_555
Al3 Au2 2.574572 1_545
Al3 Au3 2.601590 1_555
Al3 Au5 2.656712 1_555
Al3 Al4 2.792876 1_555
Al3 Al5 2.792876 1_555
Al3 Al9 2.868615 1_555
Al3 Gd1 3.293785 1_555
Al3 Gd0 3.368515 1_655
Al4 Au0 2.574572 1_554
Al4 Au4 2.601591 1_555
Al4 Au3 2.656711 1_555
Al4 Al5 2.792876 1_555
Al4 Al9 2.868615 1_555
Al4 Gd1 3.293785 1_555
Al4 Gd0 3.368514 1_565
Al5 Au1 2.574572 1_455
Al5 Au5 2.601590 1_555
Al5 Au4 2.656711 1_555
Al5 Al9 2.868615 1_555
Al5 Gd1 3.293785 1_555
Al5 Gd0 3.368514 1_556
Al6 Au4 2.574572 1_555
Al6 Au0 2.601591 1_555
Al6 Au1 2.656711 1_465
Al6 Al7 2.792876 1_465
Al6 Al8 2.868615 1_455
Al6 Gd0 3.293785 1_566
Al6 Gd1 3.368514 1_555
Al7 Au5 2.574572 1_555
Al7 Au1 2.601590 1_555
Al7 Au2 2.656712 1_546
Al7 Al8 2.868615 1_545
Al7 Gd0 3.293785 1_656
Al7 Gd1 3.368515 1_555
Al8 Au5 2.608049 1_565
Al8 Au4 2.608049 1_655
Al8 Au3 2.608049 1_556
Al9 Au2 2.608049 1_545
Al9 Au0 2.608049 1_554
Al9 Au1 2.608049 1_455
Al10 Au4 2.574572 1_655
Al10 Au2 2.601590 1_555
Al10 Au1 2.656711 1_555
Al10 Al12 2.792876 1_555
Al10 Al11 2.792876 1_555
Al10 Al8 2.868615 1_555
Al10 Al13 2.876354 1_555
Al10 Al5 2.885617 1_655
Al10 Gd1 3.293785 1_555
Al10 Gd0 3.368514 1_665
Al11 Au3 2.574572 1_556
Al11 Au1 2.601591 1_555
Al11 Au0 2.656711 1_555
Al11 Al12 2.792876 1_555
Al11 Al8 2.868615 1_555
Al11 Al7 2.876353 1_555
Al11 Al4 2.885617 1_556
Al11 Gd1 3.293785 1_555
Al11 Gd0 3.368514 1_656
Al12 Au5 2.574572 1_565
Al12 Au0 2.601590 1_555
Al12 Au2 2.656712 1_555
Al12 Al8 2.868615 1_555
Al12 Al6 2.876353 1_555
Al12 Al3 2.885617 1_565
Al12 Gd1 3.293785 1_555
Al12 Gd0 3.368515 1_566
Al13 Au3 2.574572 1_555
Al13 Au2 2.601590 1_555
Al13 Au0 2.656711 1_654
Al13 Al7 2.792876 1_564
Al13 Al6 2.792876 1_654
Al13 Al8 2.868615 1_554
Al13 Al2 2.885617 1_654
Al13 Gd0 3.293785 1_665
Al13 Gd1 3.368514 1_555
Au0 Gd0 3.241420 1_566
Au0 Gd1 3.241420 1_555
Au1 Gd1 3.241420 1_555
Au1 Gd0 3.241420 1_656
Au2 Gd1 3.241420 1_555
Au2 Gd0 3.241420 1_665
Au3 Gd0 3.241420 1_655
Au3 Gd1 3.241420 1_555
Au4 Gd1 3.241420 1_555
Au4 Gd0 3.241420 1_565
Au5 Gd0 3.241420 1_556
Au5 Gd1 3.241420 1_555
