# generated using pymatgen
data_KAlF4
_symmetry_space_group_name_H-M   'P 1'
_cell_length_a   5.01874923
_cell_length_b   5.01874923
_cell_length_c   6.16972441
_cell_angle_alpha   90.00000000
_cell_angle_beta   90.00000000
_cell_angle_gamma   90.00000000
_symmetry_Int_Tables_number   1
_chemical_formula_structural   KAlF4
_chemical_formula_sum   'K2 Al2 F8'
_cell_volume   155.40205494
_cell_formula_units_Z   2
loop_
 _symmetry_equiv_pos_site_id
 _symmetry_equiv_pos_as_xyz
  1  'x, y, z'
loop_
 _atom_site_type_symbol
 _atom_site_label
 _atom_site_symmetry_multiplicity
 _atom_site_fract_x
 _atom_site_fract_y
 _atom_site_fract_z
 _atom_site_occupancy
  K  K0  1  0.50000000  0.00000000  0.50000000  1
  K  K1  1  -0.00000000  0.50000000  0.50000000  1
  Al  Al0  1  0.50000000  0.50000000  -0.00000000  1
  Al  Al1  1  -0.00000000  0.00000000  -0.00000000  1
  F  F0  1  0.69588921  0.19588921  -0.00000000  1
  F  F1  1  0.80411079  0.69588921  -0.00000000  1
  F  F2  1  0.19588921  0.30411079  -0.00000000  1
  F  F3  1  0.30411079  0.80411079  -0.00000000  1
  F  F4  1  -0.00000000  0.00000000  0.28706758  1
  F  F5  1  0.50000000  0.50000000  0.71293242  1
  F  F6  1  -0.00000000  0.00000000  0.71293242  1
  F  F7  1  0.50000000  0.50000000  0.28706758  1
loop_
_geom_bond_atom_site_label_1
_geom_bond_atom_site_label_2
_geom_bond_distance
_geom_bond_site_symmetry_2
Al0 F7 1.771128 1_555
Al0 F5 1.771128 1_554
Al0 F3 1.815483 1_555
Al0 F1 1.815483 1_555
Al0 F2 1.815483 1_555
Al0 F0 1.815483 1_555
Al1 F4 1.771128 1_555
Al1 F6 1.771128 1_554
Al1 F0 1.815483 1_455
Al1 F3 1.815483 1_545
Al1 F1 1.815483 1_445
Al1 F2 1.815483 1_555
F4 K1 2.832465 1_555
F4 K1 2.832465 1_545
F4 K0 2.832465 1_455
F4 K0 2.832465 1_555
F5 K1 2.832465 1_555
F5 K0 2.832465 1_565
F5 K1 2.832465 1_655
F5 K0 2.832465 1_555
F6 K1 2.832465 1_555
F6 K1 2.832465 1_545
F6 K0 2.832465 1_555
F6 K0 2.832465 1_455
F7 K1 2.832465 1_555
F7 K0 2.832465 1_565
F7 K1 2.832465 1_655
F7 K0 2.832465 1_555
