# generated using pymatgen
data_BaSn2S3
_symmetry_space_group_name_H-M   'P 1'
_cell_length_a   13.71842834
_cell_length_b   6.23033321
_cell_length_c   11.98821929
_cell_angle_alpha   79.20643046
_cell_angle_beta   90.00000000
_cell_angle_gamma   90.00000000
_symmetry_Int_Tables_number   1
_chemical_formula_structural   BaSn2S3
_chemical_formula_sum   'Ba6 Sn12 S18'
_cell_volume   1006.51004694
_cell_formula_units_Z   6
loop_
 _symmetry_equiv_pos_site_id
 _symmetry_equiv_pos_as_xyz
  1  'x, y, z'
loop_
 _atom_site_type_symbol
 _atom_site_label
 _atom_site_symmetry_multiplicity
 _atom_site_fract_x
 _atom_site_fract_y
 _atom_site_fract_z
 _atom_site_occupancy
  Ba  Ba0  1  0.75000000  0.88357678  0.47674671  1
  Ba  Ba1  1  0.25000000  0.11642322  0.52325329  1
  Ba  Ba2  1  0.42269809  0.20736904  0.13025303  1
  Ba  Ba3  1  0.92269809  0.79263096  0.86974697  1
  Ba  Ba4  1  0.57730191  0.79263096  0.86974697  1
  Ba  Ba5  1  0.07730191  0.20736904  0.13025303  1
  Sn  Sn0  1  0.88355385  0.54940841  0.22684639  1
  Sn  Sn1  1  0.25000000  0.62620413  0.20513956  1
  Sn  Sn2  1  0.45120958  0.77500584  0.44912908  1
  Sn  Sn3  1  0.95120958  0.22499416  0.55087092  1
  Sn  Sn4  1  0.54879042  0.22499416  0.55087092  1
  Sn  Sn5  1  0.04879042  0.77500584  0.44912908  1
  Sn  Sn6  1  0.75000000  0.15783164  0.09955259  1
  Sn  Sn7  1  0.25000000  0.84216836  0.90044741  1
  Sn  Sn8  1  0.38355385  0.45059159  0.77315361  1
  Sn  Sn9  1  0.11644615  0.45059159  0.77315361  1
  Sn  Sn10  1  0.61644615  0.54940841  0.22684639  1
  Sn  Sn11  1  0.75000000  0.37379587  0.79486044  1
  S  S0  1  0.75000000  0.75337381  0.07177947  1
  S  S1  1  0.25000000  0.24662619  0.92822053  1
  S  S2  1  0.75000000  0.43362160  0.37625753  1
  S  S3  1  0.25000000  0.56637840  0.62374247  1
  S  S4  1  0.75000000  0.03304758  0.72107422  1
  S  S5  1  0.25000000  0.96695242  0.27892578  1
  S  S6  1  0.39104977  0.74438091  0.04977256  1
  S  S7  1  0.89104977  0.25561909  0.95022744  1
  S  S8  1  0.60895023  0.25561909  0.95022744  1
  S  S9  1  0.10895023  0.74438091  0.04977256  1
  S  S10  1  0.42112753  0.09077648  0.70868190  1
  S  S11  1  0.92112753  0.90922352  0.29131810  1
  S  S12  1  0.57887247  0.90922352  0.29131810  1
  S  S13  1  0.07887247  0.09077648  0.70868190  1
  S  S14  1  0.07093088  0.40702405  0.38842028  1
  S  S15  1  0.92906912  0.59297595  0.61157972  1
  S  S16  1  0.57093088  0.59297595  0.61157972  1
  S  S17  1  0.42906912  0.40702405  0.38842028  1
loop_
_geom_bond_atom_site_label_1
_geom_bond_atom_site_label_2
_geom_bond_distance
_geom_bond_site_symmetry_2
Ba0 S11 3.216406 1_555
Ba0 S12 3.216406 1_555
Ba0 S4 3.235461 1_565
Ba0 S2 3.251931 1_555
Ba0 S15 3.290794 1_555
Ba0 S16 3.290794 1_555
Ba0 S2 3.413074 1_565
Ba0 Sn3 3.693439 1_565
Ba0 Sn4 3.693439 1_565
Ba1 S13 3.216406 1_555
Ba1 S10 3.216406 1_555
Ba1 S5 3.235461 1_545
Ba1 S3 3.251931 1_555
Ba1 S14 3.290794 1_555
Ba1 S17 3.290794 1_555
Ba1 S3 3.413074 1_545
Ba1 Sn2 3.693439 1_545
Ba1 Sn5 3.693439 1_545
Ba2 S5 3.167529 1_545
Ba2 S12 3.228867 1_545
Ba2 S6 3.237669 1_545
Ba2 S8 3.321688 1_554
Ba2 S6 3.332336 1_555
Ba2 S1 3.364065 1_554
Ba2 S17 3.546227 1_555
Ba2 Sn10 3.724372 1_555
Ba2 Sn1 3.755749 1_555
Ba3 S4 3.167529 1_565
Ba3 S13 3.228867 1_665
Ba3 S7 3.237669 1_565
Ba3 S9 3.321688 1_656
Ba3 S7 3.332336 1_555
Ba3 S0 3.364065 1_556
Ba3 S15 3.546227 1_555
Ba3 Sn9 3.724372 1_655
Ba3 Sn11 3.755749 1_555
Ba4 S4 3.167529 1_565
Ba4 S10 3.228867 1_565
Ba4 S8 3.237669 1_565
Ba4 S6 3.321688 1_556
Ba4 S8 3.332336 1_555
Ba4 S0 3.364065 1_556
Ba4 S16 3.546227 1_555
Ba4 Sn8 3.724372 1_555
Ba4 Sn11 3.755749 1_555
Ba5 S5 3.167529 1_545
Ba5 S11 3.228867 1_445
Ba5 S9 3.237669 1_545
Ba5 S7 3.321688 1_454
Ba5 S9 3.332336 1_555
Ba5 S1 3.364065 1_554
Ba5 S14 3.546227 1_555
Ba5 Sn0 3.724372 1_455
Ba5 Sn1 3.755749 1_555
S0 Sn6 2.602889 1_565
S0 Sn0 2.746385 1_555
S0 Sn10 2.746385 1_555
S1 Sn7 2.602889 1_545
S1 Sn9 2.746385 1_555
S1 Sn8 2.746385 1_555
S2 Sn0 2.569342 1_555
S2 Sn10 2.569342 1_555
S3 Sn9 2.569342 1_555
S3 Sn8 2.569342 1_555
S4 Sn11 2.448027 1_555
S5 Sn1 2.448027 1_555
S6 Sn7 2.628965 1_554
S6 Sn1 2.691060 1_555
S7 Sn6 2.628965 1_556
S7 Sn11 2.691060 1_555
S8 Sn6 2.628965 1_556
S8 Sn11 2.691060 1_555
S9 Sn7 2.628965 1_554
S9 Sn1 2.691060 1_555
S10 Sn8 2.556863 1_555
S10 Sn4 2.598670 1_555
S11 Sn0 2.556863 1_555
S11 Sn5 2.598670 1_655
S12 Sn10 2.556863 1_555
S12 Sn2 2.598670 1_555
S13 Sn9 2.556863 1_555
S13 Sn3 2.598670 1_455
S14 Sn5 2.550122 1_555
S14 Sn3 2.636120 1_455
S15 Sn3 2.550122 1_555
S15 Sn5 2.636120 1_655
S16 Sn4 2.550122 1_555
S16 Sn2 2.636120 1_555
S17 Sn2 2.550122 1_555
S17 Sn4 2.636120 1_555
