# generated using pymatgen
data_K2NaMgTiOF5
_symmetry_space_group_name_H-M   'P 1'
_cell_length_a   6.83835763
_cell_length_b   6.09146902
_cell_length_c   6.83835706
_cell_angle_alpha   63.55171839
_cell_angle_beta   51.15462063
_cell_angle_gamma   63.55171756
_symmetry_Int_Tables_number   1
_chemical_formula_structural   K2NaMgTiOF5
_chemical_formula_sum   'K2 Na1 Mg1 Ti1 O1 F5'
_cell_volume   192.92482481
_cell_formula_units_Z   1
loop_
 _symmetry_equiv_pos_site_id
 _symmetry_equiv_pos_as_xyz
  1  'x, y, z'
loop_
 _atom_site_type_symbol
 _atom_site_label
 _atom_site_symmetry_multiplicity
 _atom_site_fract_x
 _atom_site_fract_y
 _atom_site_fract_z
 _atom_site_occupancy
  K  K0  1  0.34293984  0.15706016  0.34293984  1
  K  K1  1  0.73002183  0.76997817  0.73002183  1
  Na  Na0  1  0.56767475  0.43232525  0.56767475  1
  Mg  Mg0  1  0.03324111  0.46675889  0.03324111  1
  Ti  Ti0  1  -0.00250038  0.00250038  -0.00250038  1
  O  O0  1  0.15883034  0.84116966  0.15883034  1
  F  F0  1  0.19653546  0.30240563  0.74847426  1
  F  F1  1  0.19653546  0.75258464  0.74847426  1
  F  F2  1  0.74847426  0.30240563  0.19653546  1
  F  F3  1  0.74847426  0.75258464  0.19653546  1
  F  F4  1  0.79018805  0.20981195  0.79018805  1
loop_
_geom_bond_atom_site_label_1
_geom_bond_atom_site_label_2
_geom_bond_distance
_geom_bond_site_symmetry_2
K0 Mg0 3.322331 1_555
K1 O0 3.049495 1_655
K1 O0 3.049495 1_556
O0 Ti0 1.730695 1_565
F0 Mg0 2.013543 1_556
F0 Ti0 2.150827 1_556
F0 Na0 2.361690 1_555
F0 K0 2.718725 1_555
F0 K1 3.224348 1_455
F1 Mg0 2.013543 1_556
F1 Ti0 2.150827 1_566
F1 Na0 2.361690 1_555
F1 K0 2.718725 1_565
F1 K1 3.224348 1_455
F2 Mg0 2.013543 1_655
F2 Ti0 2.150827 1_655
F2 Na0 2.361690 1_555
F2 K0 2.718725 1_555
F2 K1 3.224348 1_554
F3 Mg0 2.013543 1_655
F3 Ti0 2.150827 1_665
F3 Na0 2.361690 1_555
F3 K0 2.718725 1_565
F3 K1 3.224348 1_554
F4 Ti0 2.223960 1_656
F4 Na0 2.387039 1_555
F4 K0 3.006061 1_556
F4 K0 3.006061 1_655
F4 K1 3.113373 1_555
F4 K1 3.113373 1_545
