# generated using pymatgen
data_Ba2YMgNbO6
_symmetry_space_group_name_H-M   'P 1'
_cell_length_a   6.85708024
_cell_length_b   6.85812378
_cell_length_c   6.85708023
_cell_angle_alpha   51.52324220
_cell_angle_beta   51.52131948
_cell_angle_gamma   51.52324480
_symmetry_Int_Tables_number   1
_chemical_formula_structural   Ba2YMgNbO6
_chemical_formula_sum   'Ba2 Y1 Mg1 Nb1 O6'
_cell_volume   182.51151033
_cell_formula_units_Z   1
loop_
 _symmetry_equiv_pos_site_id
 _symmetry_equiv_pos_as_xyz
  1  'x, y, z'
loop_
 _atom_site_type_symbol
 _atom_site_label
 _atom_site_symmetry_multiplicity
 _atom_site_fract_x
 _atom_site_fract_y
 _atom_site_fract_z
 _atom_site_occupancy
  Ba  Ba0  1  0.77533148  0.77379984  0.77533148  1
  Ba  Ba1  1  0.19841752  0.19702441  0.19841752  1
  Y  Y0  1  0.99421155  0.99271458  0.99421155  1
  Mg  Mg0  1  0.36821177  0.36680802  0.36821177  1
  Nb  Nb0  1  0.51978976  0.51837158  0.51978976  1
  O  O0  1  0.24774023  0.73939871  0.73995041  1
  O  O1  1  0.27198282  0.74583838  0.27198282  1
  O  O2  1  0.74011495  0.24788669  0.74011495  1
  O  O3  1  0.27248744  0.27167105  0.74676207  1
  O  O4  1  0.74676207  0.27167105  0.27248744  1
  O  O5  1  0.73995041  0.73939870  0.24774023  1
loop_
_geom_bond_atom_site_label_1
_geom_bond_atom_site_label_2
_geom_bond_distance
_geom_bond_site_symmetry_2
Ba0 O5 2.958051 1_556
Ba0 O0 2.958051 1_655
Ba0 O2 2.967557 1_565
Ba0 O4 2.986381 1_556
Ba0 O3 2.986381 1_655
Ba0 O1 2.988459 1_556
Ba0 O1 2.988459 1_655
Ba0 O4 2.990591 1_565
Ba0 O3 2.990591 1_565
Ba1 O3 2.550445 1_554
Ba1 O4 2.550445 1_455
Ba1 O1 2.552545 1_545
Ba1 Mg0 3.021253 1_555
Ba1 O0 3.081041 1_545
Ba1 O5 3.081041 1_545
Ba1 O2 3.084895 1_554
Ba1 O2 3.084895 1_455
Ba1 O0 3.086135 1_554
Ba1 O5 3.086135 1_455
Mg0 O3 1.974728 1_555
Mg0 O4 1.974728 1_555
Mg0 O1 1.975056 1_555
Nb0 O2 1.967625 1_555
Nb0 O5 1.970023 1_555
Nb0 O0 1.970023 1_555
Nb0 O3 2.273666 1_555
Nb0 O4 2.273667 1_555
Nb0 O1 2.281294 1_555
O0 Y0 2.306312 1_455
O1 Y0 2.571203 1_454
O2 Y0 2.307253 1_545
O3 Y0 2.579574 1_445
O4 Y0 2.579574 1_544
O5 Y0 2.306312 1_554
