# generated using pymatgen
data_MgCr2(BiO4)2
_symmetry_space_group_name_H-M   'P 1'
_cell_length_a   6.47622856
_cell_length_b   6.12329296
_cell_length_c   6.12271770
_cell_angle_alpha   103.37028574
_cell_angle_beta   107.47191580
_cell_angle_gamma   115.25245295
_symmetry_Int_Tables_number   1
_chemical_formula_structural   MgCr2(BiO4)2
_chemical_formula_sum   'Mg1 Cr2 Bi2 O8'
_cell_volume   190.43326633
_cell_formula_units_Z   1
loop_
 _symmetry_equiv_pos_site_id
 _symmetry_equiv_pos_as_xyz
  1  'x, y, z'
loop_
 _atom_site_type_symbol
 _atom_site_label
 _atom_site_symmetry_multiplicity
 _atom_site_fract_x
 _atom_site_fract_y
 _atom_site_fract_z
 _atom_site_occupancy
  Mg  Mg0  1  0.50002700  0.74013000  0.24009100  1
  Cr  Cr0  1  0.36775500  0.61021200  0.71298100  1
  Cr  Cr1  1  0.63227100  0.34531400  0.24250000  1
  Bi  Bi0  1  0.06333200  0.86502400  0.26013200  1
  Bi  Bi1  1  0.93671500  0.19681800  0.80177400  1
  O  O0  1  0.19312600  0.62672500  0.90944300  1
  O  O1  1  0.34472500  0.75631000  0.49578900  1
  O  O2  1  0.19349200  0.25298600  0.59142000  1
  O  O3  1  0.67698700  0.80475400  0.98416300  1
  O  O4  1  0.32298300  0.30727800  0.12787100  1
  O  O5  1  0.80687100  0.71635800  0.43361500  1
  O  O6  1  0.65523100  0.15103600  0.41153800  1
  O  O7  1  0.80648600  0.39788800  0.05951800  1
loop_
_geom_bond_atom_site_label_1
_geom_bond_atom_site_label_2
_geom_bond_distance
_geom_bond_site_symmetry_2
Mg0 O5 2.070453 1_555
Mg0 O0 2.070539 1_554
Mg0 O6 2.104774 1_565
Mg0 O1 2.105038 1_555
Mg0 O4 2.214401 1_555
Mg0 O3 2.214401 1_554
Cr0 O1 1.770841 1_555
Cr0 O3 1.799895 1_555
Cr0 O2 1.802425 1_555
Cr0 O0 1.895880 1_555
Cr1 O6 1.770993 1_555
Cr1 O4 1.800313 1_555
Cr1 O7 1.802139 1_555
Cr1 O5 1.895737 1_555
Bi0 O5 2.220821 1_455
Bi0 O2 2.346181 1_565
Bi0 O7 2.355033 1_455
Bi0 O3 2.374163 1_454
Bi0 O1 2.397159 1_555
Bi1 O0 2.220859 1_655
Bi1 O7 2.346093 1_556
Bi1 O2 2.354873 1_655
Bi1 O4 2.373677 1_656
Bi1 O6 2.397768 1_555
