# generated using pymatgen
data_MgAl2P2(HO)18
_symmetry_space_group_name_H-M   'P 1'
_cell_length_a   5.27011600
_cell_length_b   6.97466583
_cell_length_c   10.29531750
_cell_angle_alpha   96.68302083
_cell_angle_beta   101.76536245
_cell_angle_gamma   110.27694632
_symmetry_Int_Tables_number   1
_chemical_formula_structural   MgAl2P2(HO)18
_chemical_formula_sum   'Mg1 Al2 P2 H18 O18'
_cell_volume   340.23387630
_cell_formula_units_Z   1
loop_
 _symmetry_equiv_pos_site_id
 _symmetry_equiv_pos_as_xyz
  1  'x, y, z'
loop_
 _atom_site_type_symbol
 _atom_site_label
 _atom_site_symmetry_multiplicity
 _atom_site_fract_x
 _atom_site_fract_y
 _atom_site_fract_z
 _atom_site_occupancy
  Mg  Mg0  1  0.00000000  0.00000000  0.00000000  1
  Al  Al0  1  0.50000000  0.00000000  0.50000000  1
  Al  Al1  1  0.50000000  0.50000000  0.50000000  1
  P  P0  1  0.98496400  0.07815600  0.33277800  1
  P  P1  1  0.01503600  0.92184400  0.66722200  1
  H  H0  1  0.91909400  0.42327100  0.74818200  1
  H  H1  1  0.08090600  0.57672900  0.25181800  1
  H  H2  1  0.09602300  0.65816800  0.82138400  1
  H  H3  1  0.90397700  0.34183200  0.17861600  1
  H  H4  1  0.52702100  0.98900800  0.12321900  1
  H  H5  1  0.69946500  0.05838700  0.79360000  1
  H  H6  1  0.19834300  0.39711500  0.95141000  1
  H  H7  1  0.80165700  0.60288500  0.04859000  1
  H  H8  1  0.33874000  0.40267400  0.10321800  1
  H  H9  1  0.66126000  0.59732600  0.89678200  1
  H  H10  1  0.68498400  0.50574100  0.27692100  1
  H  H11  1  0.31501600  0.49425900  0.72307900  1
  H  H12  1  0.60750000  0.69967800  0.32638100  1
  H  H13  1  0.39250000  0.30032200  0.67361900  1
  H  H14  1  0.83167500  0.32556500  0.48640500  1
  H  H15  1  0.16832500  0.67443500  0.51359500  1
  H  H16  1  0.47297900  0.01099200  0.87678100  1
  H  H17  1  0.30053500  0.94161300  0.20640000  1
  O  O0  1  0.25927000  0.31302700  0.01297000  1
  O  O1  1  0.67781700  0.06283200  0.88769200  1
  O  O2  1  0.32218300  0.93716800  0.11230800  1
  O  O3  1  0.90099700  0.48594800  0.18893400  1
  O  O4  1  0.09900300  0.51405200  0.81106600  1
  O  O5  1  0.45794900  0.45750700  0.68422900  1
  O  O6  1  0.64404700  0.28984700  0.50253200  1
  O  O7  1  0.35595300  0.71015300  0.49746800  1
  O  O8  1  0.71214000  0.95480100  0.37247900  1
  O  O9  1  0.28786000  0.04519900  0.62752100  1
  O  O10  1  0.09676200  0.90584400  0.81810400  1
  O  O11  1  0.90323800  0.09415600  0.18189600  1
  O  O12  1  0.87526300  0.70088000  0.57463300  1
  O  O13  1  0.12473700  0.29912000  0.42536700  1
  O  O14  1  0.81363400  0.04120800  0.65064800  1
  O  O15  1  0.18636600  0.95879200  0.34935200  1
  O  O16  1  0.74073000  0.68697300  0.98703000  1
  O  O17  1  0.54205100  0.54249300  0.31577100  1
loop_
_geom_bond_atom_site_label_1
_geom_bond_atom_site_label_2
_geom_bond_distance
_geom_bond_site_symmetry_2
Mg0 O2 2.060343 1_545
Mg0 O1 2.060343 1_454
Mg0 O0 2.107489 1_555
Mg0 O16 2.107489 1_444
Mg0 O11 2.129213 1_455
Mg0 O10 2.129213 1_544
Al0 O6 1.892021 1_555
Al0 O7 1.892021 1_545
Al0 O15 1.934341 1_545
Al0 O14 1.934341 1_555
Al0 O9 1.954346 1_555
Al0 O8 1.954346 1_545
Al1 O7 1.870149 1_555
Al1 O6 1.870149 1_555
Al1 O12 1.916717 1_555
Al1 O13 1.916717 1_555
Al1 O5 1.997783 1_555
Al1 O17 1.997783 1_555
H0 O4 0.978353 1_655
H1 O3 0.978353 1_455
H2 O4 1.004315 1_555
H3 O3 1.004315 1_555
H4 O2 0.989581 1_555
H5 O1 0.996445 1_555
H5 O14 1.706586 1_555
H6 O0 0.991359 1_556
H7 O16 0.991359 1_554
H8 O0 0.976845 1_555
H9 O16 0.976845 1_555
H10 O17 1.012889 1_555
H10 O3 1.623571 1_555
H11 O5 1.012889 1_555
H11 O4 1.623571 1_555
H12 O17 1.013642 1_555
H12 O8 1.646870 1_555
H13 O5 1.013642 1_555
H13 O9 1.646870 1_555
H14 O6 0.986527 1_555
H15 O7 0.986527 1_555
H16 O1 0.989581 1_555
H17 O2 0.996445 1_555
H17 O15 1.706586 1_555
O8 P0 1.561632 1_565
O9 P1 1.561632 1_545
O10 P1 1.552985 1_555
O11 P0 1.552985 1_555
O12 P1 1.552826 1_655
O13 P0 1.552826 1_455
O14 P1 1.555791 1_645
O15 P0 1.555791 1_465
