# generated using pymatgen
data_Na2ZnGeP2SO12
_symmetry_space_group_name_H-M   'P 1'
_cell_length_a   8.72190616
_cell_length_b   8.68654370
_cell_length_c   21.92884732
_cell_angle_alpha   90.61121928
_cell_angle_beta   90.00000000
_cell_angle_gamma   120.13475747
_symmetry_Int_Tables_number   1
_chemical_formula_structural   Na2ZnGeP2SO12
_chemical_formula_sum   'Na12 Zn6 Ge6 P12 S6 O72'
_cell_volume   1436.74759856
_cell_formula_units_Z   6
loop_
 _symmetry_equiv_pos_site_id
 _symmetry_equiv_pos_as_xyz
  1  'x, y, z'
loop_
 _atom_site_type_symbol
 _atom_site_label
 _atom_site_symmetry_multiplicity
 _atom_site_fract_x
 _atom_site_fract_y
 _atom_site_fract_z
 _atom_site_occupancy
  Na  Na0  1  0.99221382  0.63220965  0.24552441  1
  Na  Na1  1  0.63999583  0.63220965  0.74552441  1
  Na  Na2  1  0.65888082  0.96554265  0.57885741  1
  Na  Na3  1  0.30666283  0.96554265  0.07885741  1
  Na  Na4  1  0.32554682  0.29887665  0.91219141  1
  Na  Na5  1  0.97332883  0.29887665  0.41219141  1
  Na  Na6  1  0.00358000  0.98187373  0.49619212  1
  Na  Na7  1  0.97829373  0.98187373  0.99619212  1
  Na  Na8  1  0.67024700  0.31520673  0.82952512  1
  Na  Na9  1  0.64496073  0.31520673  0.32952512  1
  Na  Na10  1  0.33691300  0.64854073  0.16285912  1
  Na  Na11  1  0.31162673  0.64854073  0.66285912  1
  Zn  Zn0  1  0.99942009  0.99637728  0.35131630  1
  Zn  Zn1  1  0.99695719  0.99637728  0.85131630  1
  Zn  Zn2  1  0.66608709  0.32971028  0.68464930  1
  Zn  Zn3  1  0.66362419  0.32971028  0.18464930  1
  Zn  Zn4  1  0.33275309  0.66304428  0.01798330  1
  Zn  Zn5  1  0.33029019  0.66304428  0.51798330  1
  Ge  Ge0  1  0.99293129  0.00812448  0.64934145  1
  Ge  Ge1  1  0.01519319  0.00812448  0.14934145  1
  Ge  Ge2  1  0.65959829  0.34145748  0.98267445  1
  Ge  Ge3  1  0.68186019  0.34145748  0.48267445  1
  Ge  Ge4  1  0.32626429  0.67479148  0.31600845  1
  Ge  Ge5  1  0.34852619  0.67479148  0.81600845  1
  P  P0  1  0.29571139  0.00084536  0.25200127  1
  P  P1  1  0.00742074  0.29345310  0.25326842  1
  P  P2  1  0.28603237  0.29345310  0.75326842  1
  P  P3  1  0.70513398  0.00084536  0.75200127  1
  P  P4  1  0.96237839  0.33417836  0.58533427  1
  P  P5  1  0.67408774  0.62678610  0.58660142  1
  P  P6  1  0.95269937  0.62678610  0.08660142  1
  P  P7  1  0.37180098  0.33417836  0.08533427  1
  P  P8  1  0.62904439  0.66751236  0.91866827  1
  P  P9  1  0.34075374  0.96012010  0.91993542  1
  P  P10  1  0.61936537  0.96012010  0.41993542  1
  P  P11  1  0.03846698  0.66751236  0.41866827  1
  S  S0  1  0.70072396  0.71334201  0.25013635  1
  S  S1  1  0.01261805  0.71334201  0.75013635  1
  S  S2  1  0.36739096  0.04667501  0.58346935  1
  S  S3  1  0.67928505  0.04667501  0.08346935  1
  S  S4  1  0.03405696  0.38000901  0.91680335  1
  S  S5  1  0.34595105  0.38000901  0.41680335  1
  O  O0  1  0.20544128  0.02118826  0.30690681  1
  O  O1  1  0.80853538  0.79104266  0.30476356  1
  O  O2  1  0.98157558  0.19201482  0.31137036  1
  O  O3  1  0.21043923  0.19201482  0.81137036  1
  O  O4  1  0.98250727  0.79104266  0.80476356  1
  O  O5  1  0.81574698  0.02118826  0.80690681  1
  O  O6  1  0.78088970  0.95316193  0.69140746  1
  O  O7  1  0.16353088  0.20336944  0.69456600  1
  O  O8  1  0.04070584  0.82489965  0.69386198  1
  O  O9  1  0.78419381  0.82489965  0.19386198  1
  O  O10  1  0.03983856  0.20336944  0.19456600  1
  O  O11  1  0.17227223  0.95316193  0.19140746  1
  O  O12  1  0.87210828  0.35452126  0.64023981  1
  O  O13  1  0.47520238  0.12437566  0.63809656  1
  O  O14  1  0.64824258  0.52534782  0.64470336  1
  O  O15  1  0.87710623  0.52534782  0.14470336  1
  O  O16  1  0.64917427  0.12437566  0.13809656  1
  O  O17  1  0.48241398  0.35452126  0.14023981  1
  O  O18  1  0.44755670  0.28649493  0.02474046  1
  O  O19  1  0.83019788  0.53670244  0.02789900  1
  O  O20  1  0.70737284  0.15823265  0.02719498  1
  O  O21  1  0.45086081  0.15823265  0.52719498  1
  O  O22  1  0.70650556  0.53670244  0.52789900  1
  O  O23  1  0.83893923  0.28649493  0.52474046  1
  O  O24  1  0.53877428  0.68785526  0.97357381  1
  O  O25  1  0.14186838  0.45770966  0.97143056  1
  O  O26  1  0.31490858  0.85868182  0.97803736  1
  O  O27  1  0.54377223  0.85868182  0.47803736  1
  O  O28  1  0.31584027  0.45770966  0.47143056  1
  O  O29  1  0.14907998  0.68785526  0.47357381  1
  O  O30  1  0.11422270  0.61982893  0.35807446  1
  O  O31  1  0.49686388  0.87003644  0.36123300  1
  O  O32  1  0.37403884  0.49156665  0.36052898  1
  O  O33  1  0.11752681  0.49156665  0.86052898  1
  O  O34  1  0.37317156  0.87003644  0.86123300  1
  O  O35  1  0.50560523  0.61982893  0.85807446  1
  O  O36  1  0.00931391  0.82285584  0.41059851  1
  O  O37  1  0.80798751  0.99514567  0.41138421  1
  O  O38  1  0.18807120  0.20170579  0.41035548  1
  O  O39  1  0.01363459  0.20170579  0.91035548  1
  O  O40  1  0.18715816  0.99514567  0.91138421  1
  O  O41  1  0.81354193  0.82285584  0.91059851  1
  O  O42  1  0.96768158  0.15133610  0.58909170  1
  O  O43  1  0.18873073  0.03244221  0.58787744  1
  O  O44  1  0.85196772  0.81931202  0.59003616  1
  O  O45  1  0.96734430  0.81931202  0.09003616  1
  O  O46  1  0.84371148  0.03244221  0.08787744  1
  O  O47  1  0.18365452  0.15133610  0.08909170  1
  O  O48  1  0.67598091  0.15618884  0.74393151  1
  O  O49  1  0.47465451  0.32847867  0.74471721  1
  O  O50  1  0.85473820  0.53503879  0.74368848  1
  O  O51  1  0.68030159  0.53503879  0.24368848  1
  O  O52  1  0.85382516  0.32847867  0.24471721  1
  O  O53  1  0.48020893  0.15618884  0.24393151  1
  O  O54  1  0.63434858  0.48466910  0.92242470  1
  O  O55  1  0.85539773  0.36577521  0.92121044  1
  O  O56  1  0.51863472  0.15264502  0.92336916  1
  O  O57  1  0.63401130  0.15264502  0.42336916  1
  O  O58  1  0.51037848  0.36577521  0.42121044  1
  O  O59  1  0.85032152  0.48466910  0.42242470  1
  O  O60  1  0.34264691  0.48952284  0.07726551  1
  O  O61  1  0.14132051  0.66181267  0.07805121  1
  O  O62  1  0.52140420  0.86837279  0.07702248  1
  O  O63  1  0.34696759  0.86837279  0.57702248  1
  O  O64  1  0.52049116  0.66181267  0.57805121  1
  O  O65  1  0.14687493  0.48952284  0.57726551  1
  O  O66  1  0.30101458  0.81800310  0.25575870  1
  O  O67  1  0.52206373  0.69910921  0.25454444  1
  O  O68  1  0.18530072  0.48597902  0.25670316  1
  O  O69  1  0.30067730  0.48597902  0.75670316  1
  O  O70  1  0.17704448  0.69910921  0.75454444  1
  O  O71  1  0.51698752  0.81800310  0.75575870  1
loop_
_geom_bond_atom_site_label_1
_geom_bond_atom_site_label_2
_geom_bond_distance
_geom_bond_site_symmetry_2
Na0 O52 2.284665 1_555
Na0 O66 2.353059 1_655
Na0 O15 2.403771 1_555
Na0 O51 2.410120 1_555
Na0 O68 2.581528 1_655
Na0 O11 2.705879 1_655
Na0 O30 2.712202 1_655
Na0 O1 2.887680 1_555
Na1 O49 2.284664 1_555
Na1 O71 2.353066 1_555
Na1 O14 2.403773 1_555
Na1 O50 2.410128 1_555
Na1 O69 2.581536 1_555
Na1 O6 2.705879 1_555
Na1 O35 2.712205 1_555
Na1 O4 2.887680 1_555
Na2 O64 2.284657 1_555
Na2 O42 2.353059 1_565
Na2 O27 2.403752 1_555
Na2 O63 2.410130 1_555
Na2 O44 2.581528 1_555
Na2 O23 2.705879 1_565
Na2 O6 2.712202 1_555
Na2 O13 2.887680 1_565
Na3 O61 2.284657 1_555
Na3 O47 2.353066 1_565
Na3 O26 2.403748 1_554
Na3 O62 2.410113 1_555
Na3 O45 2.581536 1_455
Na3 O18 2.705879 1_565
Na3 O11 2.712205 1_555
Na3 O16 2.887680 1_565
Na4 O40 2.284665 1_545
Na4 O54 2.353063 1_555
Na4 O3 2.403771 1_555
Na4 O39 2.410120 1_555
Na4 O56 2.581541 1_555
Na4 O35 2.705879 1_555
Na4 O18 2.712187 1_556
Na4 O25 2.887680 1_555
Na5 O37 2.284664 1_545
Na5 O59 2.353049 1_555
Na5 O2 2.403773 1_555
Na5 O38 2.410128 1_655
Na5 O57 2.581525 1_555
Na5 O30 2.705879 1_655
Na5 O23 2.712180 1_555
Na5 O28 2.887680 1_655
Na6 O36 2.334008 1_555
Na6 O43 2.472244 1_565
Na6 O44 2.482873 1_455
Na6 O37 2.565970 1_455
Na6 O38 2.601969 1_565
Na6 O42 2.610334 1_465
Na7 O41 2.334008 1_555
Na7 O46 2.472244 1_566
Na7 O45 2.482873 1_556
Na7 O40 2.565970 1_655
Na7 O39 2.601969 1_665
Na7 O47 2.610334 1_666
Na8 O48 2.334008 1_555
Na8 O55 2.472244 1_555
Na8 O56 2.482873 1_555
Na8 O49 2.565970 1_555
Na8 O50 2.601969 1_555
Na8 O54 2.610334 1_555
Na9 O53 2.334008 1_555
Na9 O58 2.472244 1_555
Na9 O57 2.482873 1_555
Na9 O52 2.565970 1_555
Na9 O51 2.601969 1_555
Na9 O59 2.610334 1_555
Na10 O60 2.334008 1_555
Na10 O67 2.472244 1_555
Na10 O68 2.482873 1_555
Na10 O61 2.565970 1_555
Na10 O62 2.601969 1_555
Na10 O66 2.610334 1_555
Na11 O65 2.334008 1_555
Na11 O70 2.472244 1_555
Na11 O69 2.482873 1_555
Na11 O64 2.565970 1_555
Na11 O63 2.601969 1_555
Na11 O71 2.610334 1_555
Ge0 O7 1.871955 1_655
Ge0 O6 1.903158 1_545
Ge0 O42 1.910970 1_555
Ge0 O44 1.955173 1_545
Ge0 O8 2.087812 1_645
Ge0 O43 2.102745 1_655
Ge1 O10 1.871955 1_555
Ge1 O11 1.903158 1_545
Ge1 O47 1.910970 1_555
Ge1 O45 1.955173 1_445
Ge1 O9 2.087812 1_445
Ge1 O46 2.102745 1_455
Ge2 O19 1.871955 1_556
Ge2 O18 1.903158 1_556
Ge2 O54 1.910970 1_555
Ge2 O56 1.955173 1_555
Ge2 O20 2.087812 1_556
Ge2 O55 2.102745 1_555
Ge3 O22 1.871955 1_555
Ge3 O23 1.903158 1_555
Ge3 O59 1.910970 1_555
Ge3 O57 1.955173 1_555
Ge3 O21 2.087812 1_555
Ge3 O58 2.102745 1_555
Ge4 O31 1.871955 1_555
Ge4 O30 1.903158 1_555
Ge4 O66 1.910970 1_555
Ge4 O68 1.955173 1_555
Ge4 O32 2.087812 1_555
Ge4 O67 2.102745 1_555
Ge5 O34 1.871955 1_555
Ge5 O35 1.903158 1_555
Ge5 O71 1.910970 1_555
Ge5 O69 1.955173 1_555
Ge5 O33 2.087812 1_555
Ge5 O70 2.102745 1_555
O0 P0 1.495299 1_555
O0 Zn0 1.959414 1_445
O1 S0 1.456108 1_555
O1 Zn0 1.993704 1_555
O2 P1 1.508345 1_655
O2 Zn0 1.994212 1_545
O3 P2 1.508345 1_555
O3 Zn1 1.994212 1_445
O4 S1 1.456108 1_655
O4 Zn1 1.993704 1_555
O5 P3 1.495299 1_555
O5 Zn1 1.959414 1_545
O6 P3 1.623813 1_565
O7 P2 1.596878 1_555
O8 S1 1.519559 1_555
O9 S0 1.519559 1_555
O10 P1 1.596878 1_555
O11 P0 1.623813 1_565
O12 P4 1.495299 1_555
O12 Zn2 1.959414 1_555
O13 S2 1.456108 1_555
O13 Zn2 1.993704 1_555
O14 P5 1.508345 1_555
O14 Zn2 1.994212 1_555
O15 P6 1.508345 1_555
O15 Zn3 1.994212 1_555
O16 S3 1.456108 1_555
O16 Zn3 1.993704 1_555
O17 P7 1.495299 1_555
O17 Zn3 1.959414 1_555
O18 P7 1.623813 1_555
O19 P6 1.596878 1_555
O20 S3 1.519559 1_555
O21 S2 1.519559 1_555
O22 P5 1.596878 1_555
O23 P4 1.623813 1_555
O24 P8 1.495299 1_555
O24 Zn4 1.959414 1_556
O25 S4 1.456108 1_555
O25 Zn4 1.993704 1_556
O26 P9 1.508345 1_555
O26 Zn4 1.994212 1_556
O27 P10 1.508345 1_555
O27 Zn5 1.994212 1_555
O28 S5 1.456108 1_555
O28 Zn5 1.993704 1_555
O29 P11 1.495299 1_555
O29 Zn5 1.959414 1_555
O30 P11 1.623813 1_555
O31 P10 1.596878 1_555
O32 S5 1.519559 1_555
O33 S4 1.519559 1_555
O34 P9 1.596878 1_555
O35 P8 1.623813 1_555
O36 P11 1.505472 1_555
O36 Zn0 2.035138 1_455
O37 P10 1.527375 1_555
O37 Zn0 2.122570 1_555
O38 S5 1.472730 1_555
O38 Zn0 2.137465 1_445
O39 S4 1.472733 1_555
O39 Zn1 2.137465 1_445
O40 P9 1.527367 1_555
O40 Zn1 2.122570 1_455
O41 P8 1.505478 1_555
O41 Zn1 2.035138 1_555
O42 P4 1.614954 1_555
O43 S2 1.503201 1_555
O44 P5 1.612970 1_555
O45 P6 1.612974 1_555
O46 S3 1.503193 1_555
O47 P7 1.614959 1_555
O48 P3 1.505472 1_555
O48 Zn2 2.035138 1_555
O49 P2 1.527375 1_555
O49 Zn2 2.122570 1_555
O50 S1 1.472730 1_655
O50 Zn2 2.137465 1_555
O51 S0 1.472733 1_555
O51 Zn3 2.137465 1_555
O52 P1 1.527367 1_655
O52 Zn3 2.122570 1_555
O53 P0 1.505478 1_555
O53 Zn3 2.035138 1_555
O54 P8 1.614966 1_555
O55 S4 1.503187 1_655
O56 P9 1.612969 1_545
O57 P10 1.612961 1_545
O58 S5 1.503205 1_555
O59 P11 1.614957 1_655
O60 P7 1.505483 1_555
O60 Zn4 2.035138 1_555
O61 P6 1.527361 1_455
O61 Zn4 2.122570 1_555
O62 S3 1.472726 1_565
O62 Zn4 2.137465 1_555
O63 S2 1.472719 1_565
O63 Zn5 2.137465 1_555
O64 P5 1.527378 1_555
O64 Zn5 2.122570 1_555
O65 P4 1.505472 1_455
O65 Zn5 2.035138 1_555
O66 P0 1.614954 1_565
O67 S0 1.503201 1_555
O68 P1 1.612970 1_555
O69 P2 1.612974 1_555
O70 S1 1.503193 1_555
O71 P3 1.614959 1_565
