# generated using pymatgen
data_MgV4O5F7
_symmetry_space_group_name_H-M   'P 1'
_cell_length_a   5.15613143
_cell_length_b   5.56592874
_cell_length_c   8.97323018
_cell_angle_alpha   71.18435003
_cell_angle_beta   89.97739471
_cell_angle_gamma   61.27864386
_symmetry_Int_Tables_number   1
_chemical_formula_structural   MgV4O5F7
_chemical_formula_sum   'Mg1 V4 O5 F7'
_cell_volume   210.02803229
_cell_formula_units_Z   1
loop_
 _symmetry_equiv_pos_site_id
 _symmetry_equiv_pos_as_xyz
  1  'x, y, z'
loop_
 _atom_site_type_symbol
 _atom_site_label
 _atom_site_symmetry_multiplicity
 _atom_site_fract_x
 _atom_site_fract_y
 _atom_site_fract_z
 _atom_site_occupancy
  Mg  Mg0  1  0.45345700  0.09533500  0.15194600  1
  V  V0  1  0.73579400  0.46430700  0.26653000  1
  V  V1  1  0.47597700  0.01771500  0.50932800  1
  V  V2  1  0.28234000  0.50722600  0.75335700  1
  V  V3  1  0.01697500  0.99938100  0.98991700  1
  O  O0  1  0.42600400  0.77058600  0.08992900  1
  O  O1  1  0.42444900  0.76656000  0.66614300  1
  O  O2  1  0.55142900  0.23102800  0.31562100  1
  O  O3  1  0.55511000  0.25785700  0.92845800  1
  O  O4  1  0.05301900  0.26017300  0.41629400  1
  F  F0  1  0.92902000  0.76281400  0.58095000  1
  F  F1  1  0.89677900  0.78147400  0.17600200  1
  F  F2  1  0.99926500  0.26480200  0.11831800  1
  F  F3  1  0.50508200  0.77033000  0.37155300  1
  F  F4  1  0.47724500  0.27608700  0.61720100  1
  F  F5  1  0.02903900  0.74438900  0.87214800  1
  F  F6  1  0.07026500  0.26743300  0.80844700  1
loop_
_geom_bond_atom_site_label_1
_geom_bond_atom_site_label_2
_geom_bond_distance
_geom_bond_site_symmetry_2
Mg0 O2 2.016294 1_555
Mg0 O3 2.097464 1_554
Mg0 O0 2.119361 1_545
O0 V3 1.886276 1_554
O0 V0 1.900289 1_555
O1 V1 1.758578 1_565
O1 V2 1.876232 1_555
O2 V0 1.897521 1_555
O2 V1 1.922099 1_555
O3 V2 1.758443 1_555
O3 V3 2.059507 1_645
O4 V0 1.732906 1_455
O4 V1 1.928799 1_555
F0 V2 1.956457 1_655
F0 V1 2.027404 1_565
F1 V3 2.014580 1_654
F1 Mg0 2.059772 1_565
F1 V0 2.224420 1_555
F2 Mg0 2.039379 1_655
F2 V0 2.085342 1_555
F2 V3 2.118138 1_644
F3 V0 2.071615 1_555
F3 V1 2.084745 1_565
F3 Mg0 2.112960 1_565
F4 V1 1.977888 1_555
F4 V2 1.981931 1_555
F5 V2 1.958073 1_555
F5 V3 2.004374 1_555
F6 V3 1.944109 1_545
F6 V2 2.048923 1_555
