# generated using pymatgen
data_Na6Ta8Zn4Si9(SO8)9
_symmetry_space_group_name_H-M   'P 1'
_cell_length_a   8.85764447
_cell_length_b   8.85224356
_cell_length_c   22.84669479
_cell_angle_alpha   89.87321257
_cell_angle_beta   90.20474918
_cell_angle_gamma   120.00374768
_symmetry_Int_Tables_number   1
_chemical_formula_structural   Na6Ta8Zn4Si9(SO8)9
_chemical_formula_sum   'Na6 Ta8 Zn4 Si9 S9 O72'
_cell_volume   1551.33783149
_cell_formula_units_Z   1
loop_
 _symmetry_equiv_pos_site_id
 _symmetry_equiv_pos_as_xyz
  1  'x, y, z'
loop_
 _atom_site_type_symbol
 _atom_site_label
 _atom_site_symmetry_multiplicity
 _atom_site_fract_x
 _atom_site_fract_y
 _atom_site_fract_z
 _atom_site_occupancy
  Na  Na0  1  0.99901104  0.00012090  0.49235381  1
  Na  Na1  1  0.99061320  0.00542318  0.99858742  1
  Na  Na2  1  0.68032732  0.33833436  0.81978022  1
  Na  Na3  1  0.66463641  0.32101552  0.32191024  1
  Na  Na4  1  0.32835698  0.66621598  0.16935239  1
  Na  Na5  1  0.33185701  0.67339266  0.65666520  1
  Ta  Ta0  1  0.01158430  0.01408789  0.35605727  1
  Ta  Ta1  1  0.98102466  0.99060039  0.85357312  1
  Ta  Ta2  1  0.99009133  0.98678485  0.64472984  1
  Ta  Ta3  1  0.00811793  0.00603592  0.14930961  1
  Ta  Ta4  1  0.67544477  0.33789913  0.97706692  1
  Ta  Ta5  1  0.66485208  0.32628505  0.47327573  1
  Ta  Ta6  1  0.32088581  0.66441550  0.31580463  1
  Ta  Ta7  1  0.33002924  0.65886206  0.81040097  1
  Zn  Zn0  1  0.68657968  0.33755119  0.68969334  1
  Zn  Zn1  1  0.66349576  0.31420907  0.19295927  1
  Zn  Zn2  1  0.33960938  0.65187376  0.01175901  1
  Zn  Zn3  1  0.33209120  0.67002782  0.50227027  1
  Si  Si0  1  0.29490486  0.00028369  0.25130891  1
  Si  Si1  1  0.00404829  0.29889999  0.25091528  1
  Si  Si2  1  0.99860179  0.70901960  0.75025543  1
  Si  Si3  1  0.70334069  -0.00001236  0.74842622  1
  Si  Si4  1  0.61618603  0.66626760  0.91993432  1
  Si  Si5  1  0.05295607  0.37791015  0.91889829  1
  Si  Si6  1  0.62090549  0.94449272  0.41856692  1
  Si  Si7  1  0.33419276  0.38596604  0.42012361  1
  Si  Si8  1  0.04549808  0.67294305  0.42061287  1
  S  S0  1  0.71259958  0.71564506  0.24918041  1
  S  S1  1  0.28189343  0.28395928  0.75003199  1
  S  S2  1  0.96030245  0.33477926  0.58501443  1
  S  S3  1  0.37943345  0.04852085  0.58691704  1
  S  S4  1  0.66181897  0.61555858  0.58576522  1
  S  S5  1  0.95582246  0.62419323  0.08430667  1
  S  S6  1  0.66274157  0.03888041  0.08356703  1
  S  S7  1  0.37939512  0.33084478  0.08534230  1
  S  S8  1  0.33335261  0.95656093  0.91729659  1
  O  O0  1  0.17983205  0.00542956  0.30518017  1
  O  O1  1  0.81642667  0.80056988  0.30131674  1
  O  O2  1  0.98200430  0.17190705  0.30526010  1
  O  O3  1  0.19673089  0.18340758  0.80345490  1
  O  O4  1  0.99543863  0.82288634  0.80609584  1
  O  O5  1  0.82638601  0.01896738  0.80611682  1
  O  O6  1  0.80956483  0.97615831  0.69214687  1
  O  O7  1  0.17273369  0.20365436  0.69697654  1
  O  O8  1  0.03207496  0.83676626  0.69187883  1
  O  O9  1  0.80413961  0.82958264  0.19429574  1
  O  O10  1  0.02503924  0.19088696  0.19140423  1
  O  O11  1  0.16453801  0.96824566  0.19093113  1
  O  O12  1  0.87587532  0.34890408  0.63784824  1
  O  O13  1  0.47897445  0.13694038  0.63924957  1
  O  O14  1  0.65214161  0.51945796  0.63867322  1
  O  O15  1  0.87014980  0.52191208  0.13522877  1
  O  O16  1  0.65030075  0.12504062  0.13553372  1
  O  O17  1  0.48000277  0.34422030  0.13678947  1
  O  O18  1  0.46170940  0.30680883  0.03053334  1
  O  O19  1  0.84268725  0.52969736  0.02907135  1
  O  O20  1  0.68633606  0.15216922  0.02959031  1
  O  O21  1  0.46311342  0.15472329  0.53287616  1
  O  O22  1  0.69010787  0.53750614  0.53258356  1
  O  O23  1  0.84884882  0.30593952  0.53203802  1
  O  O24  1  0.56136532  0.72104105  0.97810119  1
  O  O25  1  0.14896702  0.44912506  0.97911584  1
  O  O26  1  0.29881745  0.85544422  0.97047971  1
  O  O27  1  0.56169600  0.84656799  0.47926381  1
  O  O28  1  0.28962319  0.44358753  0.47982075  1
  O  O29  1  0.15208170  0.71915647  0.47965639  1
  O  O30  1  0.13104899  0.63078372  0.36185115  1
  O  O31  1  0.49468736  0.86025282  0.36053076  1
  O  O32  1  0.36780398  0.50474017  0.36096229  1
  O  O33  1  0.13673607  0.50207286  0.86040318  1
  O  O34  1  0.36638312  0.87768599  0.86468711  1
  O  O35  1  0.49471897  0.63639064  0.86164020  1
  O  O36  1  0.00522966  0.82716462  0.40387597  1
  O  O37  1  0.81565765  0.98219056  0.40349133  1
  O  O38  1  0.17382830  0.18623551  0.40741750  1
  O  O39  1  0.02667525  0.18421916  0.90586387  1
  O  O40  1  0.18785723  0.99122753  0.90634465  1
  O  O41  1  0.81925302  0.82298303  0.90667996  1
  O  O42  1  0.97263935  0.16651917  0.58992721  1
  O  O43  1  0.19961190  0.04012967  0.59041906  1
  O  O44  1  0.83675002  0.80168881  0.58965743  1
  O  O45  1  0.95983520  0.79819950  0.08436743  1
  O  O46  1  0.82821674  0.02612015  0.08529855  1
  O  O47  1  0.19822671  0.16131345  0.08756500  1
  O  O48  1  0.67764809  0.16377560  0.74675162  1
  O  O49  1  0.45501694  0.30780943  0.74528972  1
  O  O50  1  0.82344355  0.52804898  0.74736357  1
  O  O51  1  0.69769029  0.54673818  0.24103174  1
  O  O52  1  0.84046381  0.32556393  0.24599214  1
  O  O53  1  0.47256715  0.17957379  0.24702349  1
  O  O54  1  0.63447899  0.48752091  0.92847785  1
  O  O55  1  0.84848473  0.34695862  0.92712435  1
  O  O56  1  0.49555018  0.13481397  0.92416257  1
  O  O57  1  0.64023785  0.14293448  0.42636563  1
  O  O58  1  0.50781067  0.36032091  0.42787845  1
  O  O59  1  0.85256894  0.49200465  0.42882219  1
  O  O60  1  0.34932667  0.47866031  0.08026840  1
  O  O61  1  0.13203832  0.65352198  0.07606651  1
  O  O62  1  0.50845947  0.86648041  0.07674724  1
  O  O63  1  0.34865665  0.87147791  0.58259572  1
  O  O64  1  0.51920044  0.65127382  0.58205455  1
  O  O65  1  0.13534023  0.48352003  0.58037557  1
  O  O66  1  0.30774244  0.82238250  0.25438631  1
  O  O67  1  0.54304952  0.70994737  0.25065014  1
  O  O68  1  0.19182670  0.47973830  0.25460305  1
  O  O69  1  0.29074589  0.45979935  0.75494526  1
  O  O70  1  0.17810179  0.69799708  0.75861498  1
  O  O71  1  0.52008231  0.81466796  0.75790214  1
loop_
_geom_bond_atom_site_label_1
_geom_bond_atom_site_label_2
_geom_bond_distance
_geom_bond_site_symmetry_2
Na0 O38 2.516664 1_655
Na0 O37 2.550421 1_545
Na0 O36 2.555807 1_645
Na0 O42 2.748841 1_555
Na0 O44 2.752069 1_545
Na0 O43 2.765504 1_655
Na1 O46 2.512541 1_556
Na1 O39 2.564999 1_655
Na1 O45 2.601511 1_546
Na1 O41 2.619505 1_545
Na1 O47 2.620356 1_656
Na1 O40 2.785065 1_645
Na2 O50 2.244595 1_555
Na2 O48 2.268598 1_555
Na2 O49 2.527978 1_555
Na2 O55 2.846036 1_555
Na2 O54 2.938416 1_555
Na2 O56 2.944768 1_555
Na3 O53 2.290761 1_555
Na3 O52 2.322039 1_555
Na3 O51 2.625864 1_555
Na3 O57 2.805940 1_555
Na3 O58 2.902272 1_555
Na3 O59 2.914738 1_555
Na4 O66 2.446542 1_555
Na4 O68 2.446844 1_555
Na4 O67 2.541214 1_555
Na4 O60 2.694342 1_555
Na4 O62 2.709814 1_555
Na4 O61 2.712554 1_555
Na5 O63 2.385015 1_555
Na5 O65 2.440941 1_555
Na5 O64 2.458526 1_555
Na5 O71 2.755590 1_555
Na5 O70 2.765693 1_555
Na5 O69 2.836867 1_555
O0 Si0 1.616003 1_555
O0 Ta0 1.924819 1_555
O1 S0 1.460973 1_555
O1 Ta0 2.202756 1_665
O2 Si1 1.618483 1_655
O2 Ta0 1.929770 1_655
O3 S1 1.476917 1_555
O3 Ta1 2.149497 1_445
O4 Si2 1.636636 1_555
O4 Ta1 1.895978 1_555
O5 Si3 1.661595 1_555
O5 Ta1 1.856593 1_545
O6 Si3 1.670749 1_565
O6 Ta2 1.897592 1_555
O7 S1 1.489141 1_555
O7 Ta2 2.148910 1_445
O8 Si2 1.675211 1_455
O8 Ta2 1.883335 1_455
O9 S0 1.559117 1_555
O9 Ta3 1.986021 1_665
O10 Si1 1.727068 1_555
O10 Ta3 1.840014 1_555
O11 Si0 1.726127 1_565
O11 Ta3 1.840792 1_565
O12 S2 1.460325 1_555
O12 Zn0 2.017331 1_555
O13 S3 1.458068 1_555
O13 Zn0 2.142736 1_555
O14 S4 1.454455 1_555
O14 Zn0 2.127249 1_555
O15 S5 1.436536 1_555
O15 Zn1 2.260842 1_555
O16 S6 1.446539 1_555
O16 Zn1 2.086149 1_555
O17 S7 1.441293 1_555
O17 Zn1 2.185063 1_555
O18 S7 1.519126 1_555
O18 Ta4 2.155458 1_554
O19 S5 1.566441 1_555
O19 Ta4 1.992415 1_554
O20 S6 1.535226 1_555
O20 Ta4 2.074004 1_554
O21 S3 1.504028 1_555
O21 Ta5 2.155887 1_555
O22 S4 1.481726 1_555
O22 Ta5 2.229985 1_555
O23 S2 1.498483 1_555
O23 Ta5 2.183538 1_555
O24 Si4 1.574754 1_555
O24 Zn2 1.905343 1_556
O25 Si5 1.572480 1_555
O25 Zn2 1.895993 1_556
O26 S8 1.447467 1_555
O26 Zn2 2.215541 1_556
O27 Si6 1.579459 1_555
O27 Zn3 1.918347 1_555
O28 Si7 1.576239 1_555
O28 Zn3 1.916158 1_555
O29 Si8 1.576511 1_555
O29 Zn3 1.919634 1_555
O30 Si8 1.675761 1_555
O30 Ta6 1.879738 1_555
O31 Si6 1.650481 1_555
O31 Ta6 1.935710 1_555
O32 Si7 1.644559 1_555
O32 Ta6 1.952699 1_555
O33 Si5 1.652159 1_555
O33 Ta7 1.947601 1_555
O34 S8 1.492760 1_555
O34 Ta7 2.185903 1_555
O35 Si4 1.645610 1_555
O35 Ta7 1.953190 1_555
O36 Si8 1.618934 1_555
O36 Ta0 1.958064 1_565
O37 Si6 1.622893 1_555
O37 Ta0 1.946265 1_665
O38 Si7 1.647905 1_555
O38 Ta0 1.889451 1_555
O39 Si5 1.638691 1_555
O39 Ta1 1.959817 1_445
O40 S8 1.486787 1_555
O40 Ta1 2.187261 1_455
O41 Si4 1.660726 1_555
O41 Ta1 1.898706 1_555
O42 S2 1.550820 1_555
O42 Ta2 2.087767 1_545
O43 S3 1.559318 1_555
O43 Ta2 2.084282 1_445
O44 S4 1.603107 1_555
O44 Ta2 1.970745 1_555
O45 S5 1.522887 1_555
O45 Ta3 2.233800 1_665
O46 S6 1.525716 1_555
O46 Ta3 2.230498 1_655
O47 S7 1.556158 1_555
O47 Ta3 2.099627 1_555
O48 Si3 1.576429 1_555
O48 Zn0 1.985483 1_555
O49 S1 1.443996 1_555
O49 Zn0 2.316632 1_555
O50 Si2 1.578560 1_555
O50 Zn0 2.000807 1_555
O51 S0 1.446137 1_555
O51 Zn1 2.217910 1_555
O52 Si1 1.583873 1_655
O52 Zn1 1.940270 1_555
O53 Si0 1.583508 1_555
O53 Zn1 1.949056 1_555
O54 Si4 1.680142 1_555
O54 Ta4 1.894606 1_555
O55 Si5 1.701915 1_655
O55 Ta4 1.883288 1_555
O56 S8 1.520129 1_545
O56 Ta4 2.088739 1_555
O57 Si6 1.687374 1_545
O57 Ta5 1.866178 1_555
O58 Si7 1.671804 1_555
O58 Ta5 1.873206 1_555
O59 Si8 1.668675 1_655
O59 Ta5 1.874619 1_555
O60 S7 1.464305 1_555
O60 Zn2 2.220090 1_555
O61 S5 1.461411 1_455
O61 Zn2 2.363355 1_555
O62 S6 1.461026 1_565
O62 Zn2 2.281544 1_555
O63 S3 1.453777 1_565
O63 Zn3 2.514032 1_555
O64 S4 1.449667 1_555
O64 Zn3 2.519768 1_555
O65 S2 1.451762 1_455
O65 Zn3 2.465529 1_555
O66 Si0 1.635999 1_565
O66 Ta6 2.022602 1_555
O67 S0 1.477739 1_555
O67 Ta6 2.340029 1_555
O68 Si1 1.634902 1_555
O68 Ta6 2.015976 1_555
O69 S1 1.523263 1_555
O69 Ta7 2.055480 1_555
O70 Si2 1.651312 1_455
O70 Ta7 1.945213 1_555
O71 Si3 1.646426 1_565
O71 Ta7 1.964645 1_555
