# generated using pymatgen
data_MgTi2Si2(Ag2O5)2
_symmetry_space_group_name_H-M   'P 1'
_cell_length_a   6.31132000
_cell_length_b   6.46075700
_cell_length_c   6.46075700
_cell_angle_alpha   90.00000000
_cell_angle_beta   90.00000000
_cell_angle_gamma   90.00000000
_symmetry_Int_Tables_number   1
_chemical_formula_structural   MgTi2Si2(Ag2O5)2
_chemical_formula_sum   'Mg1 Ti2 Si2 Ag4 O10'
_cell_volume   263.44321282
_cell_formula_units_Z   1
loop_
 _symmetry_equiv_pos_site_id
 _symmetry_equiv_pos_as_xyz
  1  'x, y, z'
loop_
 _atom_site_type_symbol
 _atom_site_label
 _atom_site_symmetry_multiplicity
 _atom_site_fract_x
 _atom_site_fract_y
 _atom_site_fract_z
 _atom_site_occupancy
  Mg  Mg0  1  0.60248900  0.50000000  0.00000000  1
  Ti  Ti0  1  0.00384000  0.50000000  0.00000000  1
  Ti  Ti1  1  0.04304300  0.00000000  0.50000000  1
  Si  Si0  1  0.99483100  0.50000000  0.50000000  1
  Si  Si1  1  0.99483100  0.00000000  0.00000000  1
  Ag  Ag0  1  0.47094300  0.21747200  0.28252800  1
  Ag  Ag1  1  0.47094300  0.78252800  0.71747200  1
  Ag  Ag2  1  0.47094300  0.78252800  0.28252800  1
  Ag  Ag3  1  0.47094300  0.21747200  0.71747200  1
  O  O0  1  0.86045000  0.50000000  0.27800800  1
  O  O1  1  0.86045000  0.50000000  0.72199200  1
  O  O2  1  0.14426000  0.00000000  0.79140900  1
  O  O3  1  0.14426000  0.00000000  0.20859100  1
  O  O4  1  0.14426000  0.70859100  0.50000000  1
  O  O5  1  0.14426000  0.29140900  0.50000000  1
  O  O6  1  0.86045000  0.22199200  0.00000000  1
  O  O7  1  0.86045000  0.77800800  0.00000000  1
  O  O8  1  0.28415700  0.50000000  0.00000000  1
  O  O9  1  0.76943700  0.00000000  0.50000000  1
loop_
_geom_bond_atom_site_label_1
_geom_bond_atom_site_label_2
_geom_bond_distance
_geom_bond_site_symmetry_2
Mg0 O8 2.009095 1_555
Mg0 O7 2.424201 1_555
Mg0 O0 2.424201 1_555
Mg0 O6 2.424201 1_555
Mg0 O1 2.424201 1_554
Ag0 O5 2.540340 1_555
Ag0 O3 2.540340 1_555
Ag0 Mg0 2.711650 1_555
Ag0 O9 2.738117 1_555
Ag0 Ag3 2.810067 1_555
Ag0 Ag2 2.810067 1_545
Ag0 O8 2.837868 1_555
Ag1 O2 2.540340 1_565
Ag1 O4 2.540340 1_555
Ag1 Mg0 2.711650 1_556
Ag1 O9 2.738117 1_565
Ag1 Ag3 2.810067 1_565
Ag1 Ag2 2.810067 1_555
Ag1 O8 2.837868 1_556
Ag2 O3 2.540340 1_565
Ag2 O4 2.540340 1_555
Ag2 Mg0 2.711650 1_555
Ag2 O9 2.738117 1_565
Ag2 O8 2.837868 1_555
Ag3 O2 2.540340 1_555
Ag3 O5 2.540340 1_555
Ag3 Mg0 2.711650 1_556
Ag3 O9 2.738117 1_555
Ag3 O8 2.837868 1_556
O0 Si0 1.666236 1_555
O0 Ti0 2.011247 1_655
O1 Si0 1.666236 1_555
O1 Ti0 2.011247 1_656
O2 Si1 1.644872 1_456
O2 Ti1 1.988147 1_555
O3 Si1 1.644872 1_455
O3 Ti1 1.988147 1_555
O4 Si0 1.644872 1_455
O4 Ti1 1.988147 1_565
O5 Si0 1.644872 1_455
O5 Ti1 1.988147 1_555
O6 Si1 1.666236 1_555
O6 Ti0 2.011247 1_655
O7 Si1 1.666236 1_565
O7 Ti0 2.011247 1_655
O8 Ti0 1.769170 1_555
O9 Ti1 1.726815 1_655
