# generated using pymatgen
data_Bi2Se2O
_symmetry_space_group_name_H-M   'P 1'
_cell_length_a   4.07160300
_cell_length_b   4.07160300
_cell_length_c   14.99153900
_cell_angle_alpha   90.00000000
_cell_angle_beta   90.00000000
_cell_angle_gamma   90.00000000
_symmetry_Int_Tables_number   1
_chemical_formula_structural   Bi2Se2O
_chemical_formula_sum   'Bi4 Se4 O2'
_cell_volume   248.52899880
_cell_formula_units_Z   2
loop_
 _symmetry_equiv_pos_site_id
 _symmetry_equiv_pos_as_xyz
  1  'x, y, z'
loop_
 _atom_site_type_symbol
 _atom_site_label
 _atom_site_symmetry_multiplicity
 _atom_site_fract_x
 _atom_site_fract_y
 _atom_site_fract_z
 _atom_site_occupancy
  Bi  Bi0  1  0.25000000  0.25000000  0.13834300  1
  Bi  Bi1  1  0.75000000  0.75000000  0.86165700  1
  Bi  Bi2  1  0.75000000  0.75000000  0.41723200  1
  Bi  Bi3  1  0.25000000  0.25000000  0.58276800  1
  Se  Se0  1  0.75000000  0.75000000  0.09779000  1
  Se  Se1  1  0.25000000  0.25000000  0.90221000  1
  Se  Se2  1  0.25000000  0.25000000  0.31704500  1
  Se  Se3  1  0.75000000  0.75000000  0.68295500  1
  O  O0  1  0.75000000  0.25000000  0.50000000  1
  O  O1  1  0.25000000  0.75000000  0.50000000  1
loop_
_geom_bond_atom_site_label_1
_geom_bond_atom_site_label_2
_geom_bond_distance
_geom_bond_site_symmetry_2
Bi0 Se2 2.679018 1_555
Bi0 Se0 2.942547 1_455
Bi0 Se0 2.942547 1_545
Bi0 Se0 2.942547 1_445
Bi0 Se0 2.942547 1_555
Bi1 Se3 2.679018 1_555
Bi1 Se1 2.942547 1_555
Bi1 Se1 2.942547 1_665
Bi1 Se1 2.942547 1_655
Bi1 Se1 2.942547 1_565
Bi2 O0 2.384140 1_555
Bi2 O1 2.384140 1_555
Bi2 O1 2.384140 1_655
Bi2 O0 2.384140 1_565
Bi2 Se2 3.247284 1_665
Bi2 Se2 3.247284 1_655
Bi2 Se2 3.247284 1_555
Bi2 Se2 3.247284 1_565
Bi3 O1 2.384140 1_545
Bi3 O0 2.384140 1_555
Bi3 O0 2.384140 1_455
Bi3 O1 2.384140 1_555
Bi3 Se3 3.247284 1_455
Bi3 Se3 3.247284 1_445
Bi3 Se3 3.247284 1_545
Bi3 Se3 3.247284 1_555
