# generated using pymatgen
data_MgCu2(SeO4)2
_symmetry_space_group_name_H-M   'P 1'
_cell_length_a   5.29653040
_cell_length_b   5.29653109
_cell_length_c   6.64104850
_cell_angle_alpha   94.66280399
_cell_angle_beta   85.33701552
_cell_angle_gamma   110.29424128
_symmetry_Int_Tables_number   1
_chemical_formula_structural   MgCu2(SeO4)2
_chemical_formula_sum   'Mg1 Cu2 Se2 O8'
_cell_volume   173.87843460
_cell_formula_units_Z   1
loop_
 _symmetry_equiv_pos_site_id
 _symmetry_equiv_pos_as_xyz
  1  'x, y, z'
loop_
 _atom_site_type_symbol
 _atom_site_label
 _atom_site_symmetry_multiplicity
 _atom_site_fract_x
 _atom_site_fract_y
 _atom_site_fract_z
 _atom_site_occupancy
  Mg  Mg0  1  0.50000000  0.50000000  0.00000000  1
  Cu  Cu0  1  0.00000000  0.00000000  0.00000000  1
  Cu  Cu1  1  0.00000000  0.00000000  0.50000000  1
  Se  Se0  1  0.66961400  0.33038500  0.29761300  1
  Se  Se1  1  0.33038600  0.66961500  0.70238700  1
  O  O0  1  0.77822200  0.22177800  0.49395900  1
  O  O1  1  0.22177800  0.77822200  0.50604100  1
  O  O2  1  0.23971600  0.32717900  0.75513800  1
  O  O3  1  0.76028400  0.67282100  0.24486200  1
  O  O4  1  0.78085000  0.21914900  0.06901900  1
  O  O5  1  0.21915000  0.78085100  0.93098100  1
  O  O6  1  0.67282200  0.76028500  0.75513700  1
  O  O7  1  0.32717800  0.23971500  0.24486300  1
loop_
_geom_bond_atom_site_label_1
_geom_bond_atom_site_label_2
_geom_bond_distance
_geom_bond_site_symmetry_2
Mg0 O3 2.151714 1_555
Mg0 O2 2.151714 1_554
Mg0 O6 2.151717 1_554
Mg0 O7 2.151717 1_555
Mg0 O5 2.528293 1_554
Mg0 O4 2.528293 1_555
Cu0 O4 1.914755 1_455
Cu0 O5 1.914755 1_544
Cu0 O2 2.419830 1_554
Cu0 O3 2.419830 1_445
Cu0 O7 2.419837 1_555
Cu0 O6 2.419837 1_444
Cu1 O1 1.932281 1_545
Cu1 O0 1.932281 1_455
Cu1 O7 2.414962 1_555
Cu1 O6 2.414962 1_445
Cu1 O2 2.414978 1_555
Cu1 O3 2.414978 1_445
O0 Se0 1.683902 1_555
O1 Se1 1.683902 1_555
O2 Se1 1.764847 1_555
O3 Se0 1.764847 1_555
O4 Se0 1.717213 1_555
O5 Se1 1.717213 1_555
O6 Se1 1.764846 1_555
O7 Se0 1.764846 1_555
