# generated using pymatgen
data_Na4MgGe3(PO4)6
_symmetry_space_group_name_H-M   'P 1'
_cell_length_a   8.55195835
_cell_length_b   8.55764066
_cell_length_c   21.69649660
_cell_angle_alpha   89.99932210
_cell_angle_beta   89.98761634
_cell_angle_gamma   119.91617281
_symmetry_Int_Tables_number   1
_chemical_formula_structural   Na4MgGe3(PO4)6
_chemical_formula_sum   'Na12 Mg3 Ge9 P18 O72'
_cell_volume   1376.27772978
_cell_formula_units_Z   3
loop_
 _symmetry_equiv_pos_site_id
 _symmetry_equiv_pos_as_xyz
  1  'x, y, z'
loop_
 _atom_site_type_symbol
 _atom_site_label
 _atom_site_symmetry_multiplicity
 _atom_site_fract_x
 _atom_site_fract_y
 _atom_site_fract_z
 _atom_site_occupancy
  Na  Na0  1  0.64070469  0.00852237  0.24676505  1
  Na  Na1  1  0.36797590  0.35915704  0.24677529  1
  Na  Na2  1  0.99188425  0.63148305  0.24640827  1
  Na  Na3  1  0.99039224  0.36583041  0.74495208  1
  Na  Na4  1  0.37401010  0.00541751  0.74517327  1
  Na  Na5  1  0.70763536  0.67445616  0.41615589  1
  Na  Na6  1  0.01094823  0.01189149  0.49795523  1
  Na  Na7  1  0.99977404  0.99989274  0.00065356  1
  Na  Na8  1  0.66508148  0.34423504  0.83411011  1
  Na  Na9  1  0.66527246  0.32223134  0.33406236  1
  Na  Na10  1  0.33303173  0.66660068  0.16078055  1
  Na  Na11  1  0.34413537  0.66481111  0.66231769  1
  Mg  Mg0  1  0.00480464  0.00565281  0.35708901  1
  Mg  Mg1  1  0.66545054  0.33882623  0.68428547  1
  Mg  Mg2  1  0.66689990  0.33345628  0.18014685  1
  Ge  Ge0  1  0.99982031  0.99896651  0.85647446  1
  Ge  Ge1  1  0.99799555  0.99822034  0.64335294  1
  Ge  Ge2  1  0.00132541  0.00098677  0.14421524  1
  Ge  Ge3  1  0.66712825  0.33354518  0.98261796  1
  Ge  Ge4  1  0.66610162  0.32921947  0.48378852  1
  Ge  Ge5  1  0.33382361  0.66680880  0.01878502  1
  Ge  Ge6  1  0.33210201  0.66633152  0.52135458  1
  Ge  Ge7  1  0.33226715  0.66718929  0.31689291  1
  Ge  Ge8  1  0.33727798  0.66554291  0.81625581  1
  P  P0  1  0.28675923  0.99671632  0.25074077  1
  P  P1  1  0.70945017  0.71275090  0.25194000  1
  P  P2  1  0.00282005  0.28956414  0.25083881  1
  P  P3  1  0.28330006  0.28745117  0.75217799  1
  P  P4  1  0.99961918  0.71695268  0.75242201  1
  P  P5  1  0.71325493  0.99002132  0.75178007  1
  P  P6  1  0.96066022  0.33365434  0.58444980  1
  P  P7  1  0.37346489  0.03949716  0.58442501  1
  P  P8  1  0.66622027  0.62660409  0.58252918  1
  P  P9  1  0.96177443  0.62806763  0.08248936  1
  P  P10  1  0.66610171  0.03824024  0.08252254  1
  P  P11  1  0.37232194  0.33394014  0.08249509  1
  P  P12  1  0.62246787  0.66536527  0.91754885  1
  P  P13  1  0.04313758  0.37780814  0.91680462  1
  P  P14  1  0.33520521  0.95721928  0.91681030  1
  P  P15  1  0.61586597  0.95954163  0.41893539  1
  P  P16  1  0.33479234  0.37895696  0.41969264  1
  P  P17  1  0.04389980  0.65972753  0.41928254  1
  O  O0  1  0.20636946  0.03228900  0.30671778  1
  O  O1  1  0.81865440  0.78825281  0.31013955  1
  O  O2  1  0.96474716  0.17242904  0.30662126  1
  O  O3  1  0.19832350  0.16528335  0.80963338  1
  O  O4  1  0.97111956  0.80237292  0.81068322  1
  O  O5  1  0.83571876  0.03131521  0.80907553  1
  O  O6  1  0.79488064  0.95611839  0.69314312  1
  O  O7  1  0.15816843  0.20769302  0.69467096  1
  O  O8  1  0.04628817  0.84206503  0.69491616  1
  O  O9  1  0.79242140  0.83910741  0.19428024  1
  O  O10  1  0.04888302  0.21164266  0.19198400  1
  O  O11  1  0.16328008  0.95170525  0.19186192  1
  O  O12  1  0.88866176  0.36591156  0.64376933  1
  O  O13  1  0.47831598  0.10987243  0.64367818  1
  O  O14  1  0.63080740  0.51415118  0.63896151  1
  O  O15  1  0.89227139  0.52453837  0.14189062  1
  O  O16  1  0.63213195  0.10805093  0.14187836  1
  O  O17  1  0.47576608  0.36797255  0.14194664  1
  O  O18  1  0.46063775  0.29745616  0.02536463  1
  O  O19  1  0.83722643  0.53984135  0.02537580  1
  O  O20  1  0.70294864  0.16277654  0.02529172  1
  O  O21  1  0.45976050  0.16372925  0.52717871  1
  O  O22  1  0.70245061  0.54626994  0.52229930  1
  O  O23  1  0.83728645  0.29716614  0.52703292  1
  O  O24  1  0.53725592  0.70322719  0.97347887  1
  O  O25  1  0.16787660  0.46503631  0.97206381  1
  O  O26  1  0.29798344  0.83257503  0.97208522  1
  O  O27  1  0.52487039  0.83024489  0.47322724  1
  O  O28  1  0.30967724  0.47440061  0.47505389  1
  O  O29  1  0.16585920  0.69090720  0.47450471  1
  O  O30  1  0.12198077  0.62456638  0.35797823  1
  O  O31  1  0.50216868  0.88038963  0.35746370  1
  O  O32  1  0.38064020  0.50204683  0.35921255  1
  O  O33  1  0.12230941  0.49297147  0.85667766  1
  O  O34  1  0.37032966  0.87752078  0.85653787  1
  O  O35  1  0.50351088  0.62688282  0.85880993  1
  O  O36  1  0.01790275  0.82182027  0.41477134  1
  O  O37  1  0.79932452  0.97460370  0.41402694  1
  O  O38  1  0.17119025  0.19666194  0.41478238  1
  O  O39  1  0.02567722  0.18874309  0.91037771  1
  O  O40  1  0.16324796  0.97457740  0.91079322  1
  O  O41  1  0.81081005  0.83719737  0.91055326  1
  O  O42  1  0.98011149  0.16137214  0.58794950  1
  O  O43  1  0.18196420  0.02075319  0.58848442  1
  O  O44  1  0.83887738  0.81755067  0.58735600  1
  O  O45  1  0.98008866  0.81874175  0.08698254  1
  O  O46  1  0.83812431  0.01899691  0.08715682  1
  O  O47  1  0.18169017  0.16180796  0.08676084  1
  O  O48  1  0.68861066  0.15481841  0.74742881  1
  O  O49  1  0.46789430  0.30616377  0.74710481  1
  O  O50  1  0.84031870  0.52854127  0.74767263  1
  O  O51  1  0.68093373  0.52313606  0.24349428  1
  O  O52  1  0.84275834  0.32042254  0.24273991  1
  O  O53  1  0.47721948  0.15702121  0.24288005  1
  O  O54  1  0.64106762  0.49518512  0.92431439  1
  O  O55  1  0.85473791  0.36003169  0.92375889  1
  O  O56  1  0.50523067  0.14544723  0.92369642  1
  O  O57  1  0.62669883  0.14457645  0.42535754  1
  O  O58  1  0.51413362  0.37144353  0.42466498  1
  O  O59  1  0.85400626  0.48496349  0.42440229  1
  O  O60  1  0.35215742  0.50339647  0.07232460  1
  O  O61  1  0.15124092  0.64777038  0.07214898  1
  O  O62  1  0.49637957  0.84923337  0.07236000  1
  O  O63  1  0.35156119  0.84961684  0.57441342  1
  O  O64  1  0.49889673  0.65120224  0.57399406  1
  O  O65  1  0.15054930  0.50206281  0.57494940  1
  O  O66  1  0.30237527  0.81972803  0.25603256  1
  O  O67  1  0.51663473  0.69681193  0.25633866  1
  O  O68  1  0.17983996  0.48171746  0.25669278  1
  O  O69  1  0.29355828  0.47514666  0.75893601  1
  O  O70  1  0.17817952  0.70211742  0.75801286  1
  O  O71  1  0.52140047  0.81845264  0.75821208  1
loop_
_geom_bond_atom_site_label_1
_geom_bond_atom_site_label_2
_geom_bond_distance
_geom_bond_site_symmetry_2
Na0 O53 2.312800 1_555
Na0 O67 2.336937 1_545
Na0 O52 2.348871 1_555
Na0 O16 2.443731 1_555
Na0 O66 2.521765 1_545
Na0 O9 2.637757 1_545
Na0 O31 2.660338 1_545
Na0 O2 2.730923 1_555
Na1 O51 2.321871 1_555
Na1 O68 2.327674 1_555
Na1 O53 2.341821 1_555
Na1 O17 2.440927 1_555
Na1 O67 2.518851 1_555
Na1 O10 2.649307 1_555
Na1 O32 2.706693 1_555
Na1 O0 2.751172 1_555
Na2 O52 2.309231 1_555
Na2 O66 2.328719 1_655
Na2 O51 2.340068 1_555
Na2 O15 2.434917 1_555
Na2 O68 2.516170 1_655
Na2 O11 2.655411 1_655
Na2 O30 2.677287 1_655
Na2 O1 2.808583 1_555
Na3 O69 2.295688 1_655
Na3 O48 2.296893 1_555
Na3 O50 2.317757 1_555
Na3 O12 2.361718 1_555
Na3 O70 2.516254 1_655
Na3 O7 2.648836 1_655
Na3 O33 2.666357 1_655
Na3 O5 2.846437 1_555
Na4 O49 2.282341 1_555
Na4 O70 2.298500 1_545
Na4 O48 2.333349 1_555
Na4 O13 2.376486 1_555
Na4 O71 2.498105 1_545
Na4 O34 2.646238 1_545
Na4 O8 2.662983 1_545
Na4 O3 2.852087 1_555
Na5 O37 2.281553 1_555
Na5 O58 2.283902 1_555
Na5 O36 2.300876 1_655
Na5 O1 2.493465 1_555
Na5 O59 2.500667 1_555
Na5 O22 2.541697 1_555
Na5 O32 2.722028 1_555
Na5 O27 2.798444 1_555
Na6 O38 2.339249 1_555
Na6 O42 2.419653 1_455
Na6 O43 2.427609 1_555
Na6 O36 2.450113 1_545
Na6 O37 2.473550 1_445
Na6 O44 2.500256 1_445
Na7 O45 2.383125 1_555
Na7 O47 2.383620 1_665
Na7 O46 2.384236 1_565
Na7 O40 2.470523 1_654
Na7 O41 2.475605 1_554
Na7 O39 2.477886 1_664
Na8 O54 2.409495 1_555
Na8 O50 2.427270 1_555
Na8 O49 2.442683 1_555
Na8 O55 2.492968 1_555
Na8 O56 2.493963 1_555
Na8 O48 2.555428 1_555
Na9 O57 2.417243 1_555
Na9 O59 2.479057 1_555
Na9 O53 2.496505 1_555
Na9 O52 2.500421 1_555
Na9 O58 2.500818 1_555
Na9 O51 2.570061 1_555
Na10 O60 2.426606 1_555
Na10 O61 2.427401 1_555
Na10 O62 2.428057 1_555
Na10 O66 2.529703 1_555
Na10 O67 2.535200 1_555
Na10 O68 2.545818 1_555
Na11 O64 2.364352 1_555
Na11 O65 2.444445 1_555
Na11 O63 2.458118 1_555
Na11 O71 2.523674 1_555
Na11 O69 2.552476 1_555
Na11 O70 2.622536 1_555
Mg0 O0 1.955759 1_555
Mg0 O2 1.959862 1_455
Mg0 O38 1.986019 1_555
Mg0 O1 2.019820 1_445
Mg0 O37 2.053771 1_445
Mg0 O36 2.056567 1_545
Mg1 O14 1.936329 1_555
Mg1 O12 2.007057 1_555
Mg1 O13 2.012279 1_555
Mg1 O49 2.078011 1_555
Mg1 O50 2.083937 1_555
Mg1 O48 2.169529 1_555
Mg2 O16 1.981579 1_555
Mg2 O17 1.981959 1_555
Mg2 O15 1.983234 1_555
Mg2 O52 2.070449 1_555
Mg2 O53 2.078363 1_555
Mg2 O51 2.084238 1_555
Ge0 O4 1.861708 1_555
Ge0 O5 1.868650 1_565
Ge0 O3 1.878717 1_665
Ge0 O41 1.916516 1_555
Ge0 O40 1.917685 1_655
Ge0 O39 1.922526 1_665
Ge1 O44 1.902738 1_555
Ge1 O43 1.904256 1_665
Ge1 O42 1.905450 1_565
Ge1 O6 1.920677 1_555
Ge1 O8 1.938701 1_655
Ge1 O7 1.969994 1_665
Ge2 O47 1.925844 1_555
Ge2 O46 1.928619 1_455
Ge2 O45 1.929988 1_445
Ge2 O11 1.935996 1_545
Ge2 O10 1.938623 1_555
Ge2 O9 1.954788 1_445
Ge3 O18 1.878627 1_556
Ge3 O19 1.879468 1_556
Ge3 O20 1.879714 1_556
Ge3 O54 1.967444 1_555
Ge3 O55 1.973007 1_555
Ge3 O56 1.979923 1_555
Ge4 O23 1.870799 1_555
Ge4 O21 1.874115 1_555
Ge4 O22 1.915483 1_555
Ge4 O57 1.920054 1_555
Ge4 O59 1.970169 1_555
Ge4 O58 1.983487 1_555
Ge5 O60 1.883688 1_555
Ge5 O24 1.883753 1_554
Ge5 O61 1.884311 1_555
Ge5 O62 1.885961 1_555
Ge5 O26 1.888569 1_554
Ge5 O25 1.891953 1_554
Ge6 O29 1.843245 1_555
Ge6 O28 1.851914 1_555
Ge6 O27 1.862337 1_555
Ge6 O64 1.881682 1_555
Ge6 O63 1.884904 1_555
Ge6 O65 1.887075 1_555
Ge7 O30 1.872634 1_555
Ge7 O31 1.889742 1_555
Ge7 O32 1.895971 1_555
Ge7 O66 1.961098 1_555
Ge7 O68 1.965061 1_555
Ge7 O67 1.968955 1_555
Ge8 O35 1.858112 1_555
Ge8 O33 1.902898 1_555
Ge8 O34 1.903454 1_555
Ge8 O71 1.929123 1_555
Ge8 O69 1.932301 1_555
Ge8 O70 1.992881 1_555
O0 P0 1.499579 1_545
O1 P1 1.510886 1_555
O2 P2 1.499952 1_655
O3 P3 1.554615 1_555
O4 P4 1.539226 1_555
O5 P5 1.548698 1_545
O6 P5 1.546491 1_555
O7 P3 1.561994 1_555
O8 P4 1.560715 1_455
O9 P1 1.572268 1_555
O10 P2 1.578682 1_555
O11 P0 1.578059 1_555
O12 P6 1.510285 1_555
O13 P7 1.510408 1_555
O14 P8 1.491987 1_555
O15 P9 1.507848 1_555
O16 P10 1.507559 1_555
O17 P11 1.508229 1_555
O18 P11 1.561784 1_555
O19 P9 1.561575 1_555
O20 P10 1.562611 1_555
O21 P7 1.560301 1_555
O22 P8 1.577529 1_555
O23 P6 1.560305 1_555
O24 P12 1.530921 1_555
O25 P13 1.529353 1_555
O26 P14 1.529207 1_555
O27 P15 1.535619 1_555
O28 P16 1.526727 1_555
O29 P17 1.522332 1_555
O30 P17 1.582908 1_555
O31 P15 1.589556 1_555
O32 P16 1.604046 1_555
O33 P13 1.570201 1_555
O34 P14 1.571521 1_555
O35 P12 1.560112 1_555
O36 P17 1.513526 1_555
O37 P15 1.512517 1_555
O38 P16 1.491806 1_555
O39 P13 1.555165 1_555
O40 P14 1.555526 1_555
O41 P12 1.554697 1_555
O42 P6 1.565795 1_555
O43 P7 1.566358 1_555
O44 P8 1.566758 1_555
O45 P9 1.562575 1_555
O46 P10 1.563062 1_555
O47 P11 1.562298 1_555
O48 P5 1.529275 1_545
O49 P3 1.509185 1_555
O50 P4 1.508419 1_555
O51 P1 1.526883 1_555
O52 P2 1.528071 1_655
O53 P0 1.528108 1_545
O54 P12 1.548821 1_555
O55 P13 1.548303 1_655
O56 P14 1.547608 1_545
O57 P15 1.545650 1_545
O58 P16 1.570510 1_555
O59 P17 1.569600 1_655
O60 P11 1.559103 1_555
O61 P9 1.559327 1_455
O62 P10 1.558824 1_565
O63 P7 1.555339 1_565
O64 P8 1.557810 1_555
O65 P6 1.556287 1_455
O66 P0 1.589591 1_555
O67 P1 1.588185 1_555
O68 P2 1.590263 1_555
O69 P3 1.571187 1_555
O70 P4 1.598793 1_455
O71 P5 1.569776 1_555
