# generated using pymatgen
data_UNi5Ge3
_symmetry_space_group_name_H-M   'P 1'
_cell_length_a   3.89347200
_cell_length_b   6.77256000
_cell_length_c   19.01832300
_cell_angle_alpha   90.00000000
_cell_angle_beta   90.00000000
_cell_angle_gamma   90.00000000
_symmetry_Int_Tables_number   1
_chemical_formula_structural   UNi5Ge3
_chemical_formula_sum   'U4 Ni20 Ge12'
_cell_volume   501.48983686
_cell_formula_units_Z   4
loop_
 _symmetry_equiv_pos_site_id
 _symmetry_equiv_pos_as_xyz
  1  'x, y, z'
loop_
 _atom_site_type_symbol
 _atom_site_label
 _atom_site_symmetry_multiplicity
 _atom_site_fract_x
 _atom_site_fract_y
 _atom_site_fract_z
 _atom_site_occupancy
  U  U0  1  0.25000000  0.62182500  0.64550400  1
  U  U1  1  0.75000000  0.37817500  0.35449600  1
  U  U2  1  0.75000000  0.12182500  0.85449600  1
  U  U3  1  0.25000000  0.87817500  0.14550400  1
  Ni  Ni0  1  0.75000000  0.85558100  0.39098800  1
  Ni  Ni1  1  0.25000000  0.41086800  0.78877800  1
  Ni  Ni2  1  0.75000000  0.58913200  0.21122200  1
  Ni  Ni3  1  0.75000000  0.91086800  0.71122200  1
  Ni  Ni4  1  0.25000000  0.69314700  0.29922600  1
  Ni  Ni5  1  0.75000000  0.30685300  0.70077400  1
  Ni  Ni6  1  0.75000000  0.19314700  0.20077400  1
  Ni  Ni7  1  0.25000000  0.80685300  0.79922600  1
  Ni  Ni8  1  0.25000000  0.36897500  0.49622300  1
  Ni  Ni9  1  0.75000000  0.63102500  0.50377700  1
  Ni  Ni10  1  0.75000000  0.86897500  0.00377700  1
  Ni  Ni11  1  0.25000000  0.13102500  0.99622300  1
  Ni  Ni12  1  0.25000000  0.62047600  0.01490400  1
  Ni  Ni13  1  0.75000000  0.37952400  0.98509600  1
  Ni  Ni14  1  0.75000000  0.12047600  0.48509600  1
  Ni  Ni15  1  0.25000000  0.14441900  0.60901200  1
  Ni  Ni16  1  0.25000000  0.35558100  0.10901200  1
  Ni  Ni17  1  0.75000000  0.64441900  0.89098800  1
  Ni  Ni18  1  0.25000000  0.87952400  0.51490400  1
  Ni  Ni19  1  0.25000000  0.08913200  0.28877800  1
  Ge  Ge0  1  0.25000000  0.10543800  0.73203900  1
  Ge  Ge1  1  0.25000000  0.64642600  0.42378400  1
  Ge  Ge2  1  0.75000000  0.35357400  0.57621600  1
  Ge  Ge3  1  0.75000000  0.14642600  0.07621600  1
  Ge  Ge4  1  0.25000000  0.09293200  0.41258800  1
  Ge  Ge5  1  0.75000000  0.90706800  0.58741200  1
  Ge  Ge6  1  0.75000000  0.59293200  0.08741200  1
  Ge  Ge7  1  0.25000000  0.40706800  0.91258800  1
  Ge  Ge8  1  0.25000000  0.85357400  0.92378400  1
  Ge  Ge9  1  0.75000000  0.60543800  0.76796100  1
  Ge  Ge10  1  0.75000000  0.89456200  0.26796100  1
  Ge  Ge11  1  0.25000000  0.39456200  0.23203900  1
loop_
_geom_bond_atom_site_label_1
_geom_bond_atom_site_label_2
_geom_bond_distance
_geom_bond_site_symmetry_2
Ni0 Ni14 2.534127 1_565
Ni0 Ni4 2.836471 1_555
Ni0 Ni4 2.836471 1_655
Ni0 U1 3.306907 1_555
Ni1 Ni5 2.662191 1_555
Ni1 Ni5 2.662191 1_455
Ni1 Ni7 2.689183 1_555
Ni1 U2 3.030502 1_455
Ni1 U2 3.030502 1_555
Ni1 U0 3.076677 1_555
Ni2 Ni4 2.662191 1_555
Ni2 Ni4 2.662191 1_655
Ni2 Ni6 2.689183 1_555
Ni2 U3 3.030502 1_655
Ni2 U3 3.030502 1_555
Ni2 U1 3.076677 1_555
Ni3 Ni7 2.662191 1_555
Ni3 Ni7 2.662191 1_655
Ni3 Ni5 2.689183 1_565
Ni3 U0 3.030502 1_655
Ni3 U0 3.030502 1_555
Ni3 U2 3.076677 1_565
Ni4 U1 3.073285 1_455
Ni4 U1 3.073285 1_555
Ni4 U3 3.180778 1_555
Ni5 U0 3.073285 1_655
Ni5 U0 3.073285 1_555
Ni5 U2 3.180778 1_555
Ni6 U3 3.073285 1_645
Ni6 U3 3.073285 1_545
Ni6 U1 3.180778 1_555
Ni7 U2 3.073285 1_465
Ni7 U2 3.073285 1_565
Ni7 U0 3.180778 1_555
Ni8 U0 3.315539 1_555
Ni8 U1 3.325492 1_555
Ni8 U1 3.325492 1_455
Ni9 U1 3.315539 1_555
Ni9 U0 3.325492 1_655
Ni9 U0 3.325492 1_555
Ni10 Ni12 2.582047 1_655
Ni10 Ni12 2.582047 1_555
Ni10 U2 3.315539 1_564
Ni10 U3 3.325492 1_555
Ni10 U3 3.325492 1_655
Ni11 Ni13 2.582047 1_455
Ni11 Ni13 2.582047 1_555
Ni11 U3 3.315539 1_546
Ni11 U2 3.325492 1_555
Ni11 U2 3.325492 1_455
Ni12 Ni16 2.534127 1_555
Ni12 Ni13 2.602715 1_454
Ni12 Ni13 2.602715 1_554
Ni12 U3 3.035661 1_555
Ni13 Ni17 2.534127 1_555
Ni13 U2 3.035661 1_555
Ni14 Ni8 2.582047 1_555
Ni14 Ni8 2.582047 1_655
Ni14 Ni18 2.602715 1_645
Ni14 Ni18 2.602715 1_545
Ni14 U1 3.035661 1_555
Ni15 Ni18 2.534127 1_545
Ni15 Ni5 2.836471 1_455
Ni15 Ni5 2.836471 1_555
Ni15 U0 3.306907 1_555
Ni16 Ni6 2.836471 1_555
Ni16 Ni6 2.836471 1_455
Ni16 U3 3.306907 1_545
Ni17 Ni7 2.836471 1_655
Ni17 Ni7 2.836471 1_555
Ni17 U2 3.306907 1_565
Ni18 Ni9 2.582047 1_555
Ni18 Ni9 2.582047 1_455
Ni18 U0 3.035661 1_555
Ni19 Ni6 2.662191 1_555
Ni19 Ni6 2.662191 1_455
Ni19 Ni4 2.689183 1_545
Ni19 U1 3.030502 1_455
Ni19 U1 3.030502 1_555
Ni19 U3 3.076677 1_545
Ge0 Ni1 2.333085 1_555
Ge0 Ni15 2.354614 1_555
Ge0 Ni3 2.383894 1_445
Ge0 Ni3 2.383894 1_545
Ge0 Ni7 2.392063 1_545
Ge0 Ni5 2.450326 1_455
Ge0 Ni5 2.450326 1_555
Ge0 U2 3.037433 1_455
Ge0 U2 3.037433 1_555
Ge1 Ni8 2.329981 1_555
Ge1 Ni18 2.344209 1_555
Ge1 Ni4 2.389924 1_555
Ge1 Ni9 2.472876 1_455
Ge1 Ni9 2.472876 1_555
Ge1 Ni0 2.487032 1_555
Ge1 Ni0 2.487032 1_455
Ge1 U1 2.970991 1_455
Ge1 U1 2.970991 1_555
Ge2 Ni9 2.329981 1_555
Ge2 Ni14 2.344209 1_555
Ge2 Ni5 2.389924 1_555
Ge2 Ni8 2.472876 1_555
Ge2 Ni8 2.472876 1_655
Ge2 Ni15 2.487032 1_555
Ge2 Ni15 2.487032 1_655
Ge2 U0 2.970991 1_655
Ge2 U0 2.970991 1_555
Ge3 Ni10 2.329981 1_545
Ge3 Ni13 2.344209 1_554
Ge3 Ni6 2.389924 1_555
Ge3 Ni11 2.472876 1_654
Ge3 Ni11 2.472876 1_554
Ge3 Ni16 2.487032 1_655
Ge3 Ni16 2.487032 1_555
Ge3 U3 2.970991 1_545
Ge3 U3 2.970991 1_645
Ge4 Ni19 2.354799 1_555
Ge4 Ni14 2.392941 1_555
Ge4 Ni14 2.392941 1_455
Ge4 Ni18 2.423920 1_545
Ge4 Ni8 2.454607 1_555
Ge4 Ni0 2.557832 1_545
Ge4 Ni0 2.557832 1_445
Ge4 U1 2.956745 1_555
Ge4 U1 2.956745 1_455
Ge5 Ni3 2.354799 1_555
Ge5 Ni18 2.392941 1_555
Ge5 Ni18 2.392941 1_655
Ge5 Ni14 2.423920 1_565
Ge5 Ni9 2.454607 1_555
Ge5 Ni15 2.557832 1_565
Ge5 Ni15 2.557832 1_665
Ge5 U0 2.956745 1_555
Ge5 U0 2.956745 1_655
Ge6 Ni2 2.354799 1_555
Ge6 Ni12 2.392941 1_555
Ge6 Ni12 2.392941 1_655
Ge6 Ni13 2.423920 1_554
Ge6 Ni10 2.454607 1_555
Ge6 Ni16 2.557832 1_555
Ge6 Ni16 2.557832 1_655
Ge6 U3 2.956745 1_555
Ge6 U3 2.956745 1_655
Ge7 Ni1 2.354799 1_555
Ge7 Ni13 2.392941 1_455
Ge7 Ni13 2.392941 1_555
Ge7 Ni12 2.423920 1_556
Ge7 Ni11 2.454607 1_555
Ge7 Ni17 2.557832 1_455
Ge7 Ni17 2.557832 1_555
Ge7 U2 2.956745 1_555
Ge7 U2 2.956745 1_455
Ge8 Ni11 2.329981 1_565
Ge8 Ni12 2.344209 1_556
Ge8 Ni7 2.389924 1_555
Ge8 Ni10 2.472876 1_456
Ge8 Ni10 2.472876 1_556
Ge8 Ni17 2.487032 1_555
Ge8 Ni17 2.487032 1_455
Ge8 U2 2.970991 1_565
Ge8 U2 2.970991 1_465
Ge9 Ni3 2.333085 1_555
Ge9 Ni17 2.354614 1_555
Ge9 Ni1 2.383894 1_555
Ge9 Ni1 2.383894 1_655
Ge9 Ni5 2.392063 1_555
Ge9 Ni7 2.450326 1_555
Ge9 Ni7 2.450326 1_655
Ge9 U0 3.037433 1_655
Ge9 U0 3.037433 1_555
Ge10 Ni2 2.333085 1_555
Ge10 Ni0 2.354614 1_555
Ge10 Ni19 2.383894 1_665
Ge10 Ni19 2.383894 1_565
Ge10 Ni6 2.392063 1_565
Ge10 Ni4 2.450326 1_555
Ge10 Ni4 2.450326 1_655
Ge10 U3 3.037433 1_555
Ge10 U3 3.037433 1_655
Ge11 Ni19 2.333085 1_555
Ge11 Ni16 2.354614 1_555
Ge11 Ni2 2.383894 1_455
Ge11 Ni2 2.383894 1_555
Ge11 Ni4 2.392063 1_555
Ge11 Ni6 2.450326 1_455
Ge11 Ni6 2.450326 1_555
Ge11 U1 3.037433 1_555
Ge11 U1 3.037433 1_455
