# generated using pymatgen
data_Mn(FeO2)2
_symmetry_space_group_name_H-M   'P 1'
_cell_length_a   6.05363147
_cell_length_b   6.07038277
_cell_length_c   6.08953505
_cell_angle_alpha   59.33925994
_cell_angle_beta   59.57319689
_cell_angle_gamma   60.31516040
_symmetry_Int_Tables_number   1
_chemical_formula_structural   Mn(FeO2)2
_chemical_formula_sum   'Mn2 Fe4 O8'
_cell_volume   157.28416976
_cell_formula_units_Z   2
loop_
 _symmetry_equiv_pos_site_id
 _symmetry_equiv_pos_as_xyz
  1  'x, y, z'
loop_
 _atom_site_type_symbol
 _atom_site_label
 _atom_site_symmetry_multiplicity
 _atom_site_fract_x
 _atom_site_fract_y
 _atom_site_fract_z
 _atom_site_occupancy
  Mn  Mn0  1  0.12320300  0.12786600  0.12574400  1
  Mn  Mn1  1  0.87679500  0.87213100  0.87425600  1
  Fe  Fe0  1  0.49999900  0.49999800  0.49999400  1
  Fe  Fe1  1  0.49999900  0.50000200  0.00000900  1
  Fe  Fe2  1  0.99999900  0.50001500  0.49999400  1
  Fe  Fe3  1  0.50000300  0.99999500  0.50000200  1
  O  O0  1  0.73004800  0.74208300  0.73497300  1
  O  O1  1  0.25937300  0.27697300  0.71267100  1
  O  O2  1  0.26333300  0.71381700  0.24469500  1
  O  O3  1  0.70813500  0.26701100  0.25970700  1
  O  O4  1  0.73667000  0.28618100  0.75530200  1
  O  O5  1  0.29186700  0.73298500  0.74029000  1
  O  O6  1  0.26994700  0.25791600  0.26503000  1
  O  O7  1  0.74062600  0.72302900  0.28732800  1
loop_
_geom_bond_atom_site_label_1
_geom_bond_atom_site_label_2
_geom_bond_distance
_geom_bond_site_symmetry_2
Mn0 O1 2.035386 1_554
Mn0 O2 2.053139 1_545
Mn0 O3 2.053522 1_455
Mn0 O6 2.067005 1_555
Mn1 O7 2.035380 1_556
Mn1 O4 2.053143 1_565
Mn1 O5 2.053542 1_655
Mn1 O0 2.066995 1_555
Fe0 O1 1.971356 1_555
Fe0 O7 1.971391 1_555
Fe0 O3 2.051146 1_555
Fe0 O5 2.051189 1_555
Fe0 O2 2.123764 1_555
Fe0 O4 2.123829 1_555
Fe1 O2 1.981376 1_555
Fe1 O4 1.981494 1_554
Fe1 O0 2.008783 1_554
Fe1 O6 2.008807 1_555
Fe1 O3 2.015152 1_555
Fe1 O5 2.015231 1_554
Fe2 O2 2.030696 1_655
Fe2 O4 2.030801 1_555
Fe2 O7 2.035028 1_555
Fe2 O1 2.035072 1_655
Fe2 O0 2.067592 1_555
Fe2 O6 2.067657 1_655
Fe3 O0 2.002975 1_555
Fe3 O6 2.003027 1_565
Fe3 O5 2.022928 1_555
Fe3 O3 2.022939 1_565
Fe3 O7 2.123704 1_555
Fe3 O1 2.123738 1_565
