# generated using pymatgen
data_La2MgFe2(WO6)2
_symmetry_space_group_name_H-M   'P 1'
_cell_length_a   5.65839744
_cell_length_b   5.54123301
_cell_length_c   7.86233302
_cell_angle_alpha   89.70063758
_cell_angle_beta   91.72441699
_cell_angle_gamma   89.80852852
_symmetry_Int_Tables_number   1
_chemical_formula_structural   La2MgFe2(WO6)2
_chemical_formula_sum   'La2 Mg1 Fe2 W2 O12'
_cell_volume   246.40299531
_cell_formula_units_Z   1
loop_
 _symmetry_equiv_pos_site_id
 _symmetry_equiv_pos_as_xyz
  1  'x, y, z'
loop_
 _atom_site_type_symbol
 _atom_site_label
 _atom_site_symmetry_multiplicity
 _atom_site_fract_x
 _atom_site_fract_y
 _atom_site_fract_z
 _atom_site_occupancy
  La  La0  1  0.94111464  0.99326210  0.29388095  1
  La  La1  1  0.46335374  0.50359526  0.75708459  1
  Mg  Mg0  1  0.45199989  0.99810244  0.02083292  1
  Fe  Fe0  1  0.87345303  0.01039618  0.81120823  1
  Fe  Fe1  1  0.95934564  0.50274935  0.52400191  1
  W  W0  1  0.46011178  0.00233379  0.50907521  1
  W  W1  1  0.97637732  0.49996277  0.01953106  1
  O  O0  1  0.95587142  0.60096027  0.77226911  1
  O  O1  1  0.14250994  0.19745230  0.95857941  1
  O  O2  1  0.23454360  0.27092639  0.56232242  1
  O  O3  1  0.25901056  0.67715848  0.03474612  1
  O  O4  1  0.18675189  0.77545370  0.49008555  1
  O  O5  1  0.47896816  0.06257660  0.27351477  1
  O  O6  1  0.50261368  0.93144919  0.76263566  1
  O  O7  1  0.75092890  0.21766436  0.56867403  1
  O  O8  1  0.69011857  0.29717855  0.96790434  1
  O  O9  1  0.69840518  0.73067042  0.47738918  1
  O  O10  1  0.78210545  0.79087943  0.04741683  1
  O  O11  1  0.96622761  0.42834043  0.25755870  1
loop_
_geom_bond_atom_site_label_1
_geom_bond_atom_site_label_2
_geom_bond_distance
_geom_bond_site_symmetry_2
La0 O4 2.368231 1_655
La0 O10 2.397228 1_555
La0 O11 2.431374 1_565
La0 O9 2.489115 1_555
La0 O5 2.641756 1_565
La0 O7 2.744300 1_565
La1 O8 2.354676 1_555
La1 O2 2.365538 1_555
La1 O6 2.382467 1_555
La1 O7 2.739514 1_555
La1 O0 2.839477 1_555
La1 O9 2.889006 1_555
La1 O0 2.926091 1_455
Mg0 O5 2.021711 1_565
Mg0 O6 2.093224 1_554
Mg0 O3 2.094131 1_555
Mg0 O1 2.111019 1_564
Mg0 O8 2.185526 1_564
Mg0 O10 2.193355 1_555
Fe0 O1 2.156768 1_655
Fe0 O6 2.167941 1_545
Fe0 O8 2.281591 1_555
Fe0 O10 2.287828 1_546
Fe0 O7 2.308287 1_555
Fe0 O0 2.338238 1_545
Fe1 O9 1.964583 1_555
Fe1 O4 2.009916 1_655
Fe1 O7 2.010280 1_555
Fe1 O0 2.029787 1_555
Fe1 O2 2.029801 1_655
Fe1 O11 2.138647 1_555
O0 W1 2.020061 1_556
O1 W1 1.987015 1_456
O2 W0 2.011333 1_555
O3 W1 1.880483 1_455
O4 W0 1.999104 1_565
O5 W0 1.886424 1_555
O6 W0 2.036860 1_565
O7 W0 2.079354 1_555
O8 W1 2.007089 1_556
O9 W0 2.038819 1_565
O10 W1 1.965064 1_555
O11 W1 1.913636 1_555
