# generated using pymatgen
data_Cs2SnI6
_symmetry_space_group_name_H-M   'P 1'
_cell_length_a   8.32936197
_cell_length_b   8.32936169
_cell_length_c   8.32936069
_cell_angle_alpha   59.99999566
_cell_angle_beta   59.99999674
_cell_angle_gamma   59.99999189
_symmetry_Int_Tables_number   1
_chemical_formula_structural   Cs2SnI6
_chemical_formula_sum   'Cs2 Sn1 I6'
_cell_volume   408.62043021
_cell_formula_units_Z   1
loop_
 _symmetry_equiv_pos_site_id
 _symmetry_equiv_pos_as_xyz
  1  'x, y, z'
loop_
 _atom_site_type_symbol
 _atom_site_label
 _atom_site_symmetry_multiplicity
 _atom_site_fract_x
 _atom_site_fract_y
 _atom_site_fract_z
 _atom_site_occupancy
  Cs  Cs0  1  0.25000000  0.25000000  0.25000000  1
  Cs  Cs1  1  0.75000000  0.75000000  0.75000000  1
  Sn  Sn0  1  0.00000000  -0.00000000  -0.00000000  1
  I  I0  1  0.75504845  0.75504845  0.24495155  1
  I  I1  1  0.24495155  0.75504845  0.75504845  1
  I  I2  1  0.75504845  0.24495155  0.24495155  1
  I  I3  1  0.24495155  0.24495155  0.75504845  1
  I  I4  1  0.75504845  0.24495155  0.75504845  1
  I  I5  1  0.24495155  0.75504845  0.24495155  1
loop_
_geom_bond_atom_site_label_1
_geom_bond_atom_site_label_2
_geom_bond_distance
_geom_bond_site_symmetry_2
Cs0 I1 4.165105 1_545
Cs0 I1 4.165105 1_554
Cs0 I3 4.165105 1_555
Cs0 I3 4.165105 1_554
Cs0 I0 4.165105 1_455
Cs0 I0 4.165105 1_545
Cs0 I4 4.165105 1_455
Cs0 I4 4.165105 1_554
Cs0 I5 4.165105 1_555
Cs0 I5 4.165105 1_545
Cs0 I2 4.165106 1_555
Cs0 I2 4.165106 1_455
Cs1 I2 4.165105 1_565
Cs1 I2 4.165105 1_556
Cs1 I0 4.165105 1_555
Cs1 I0 4.165105 1_556
Cs1 I3 4.165105 1_655
Cs1 I3 4.165105 1_565
Cs1 I5 4.165105 1_655
Cs1 I5 4.165105 1_556
Cs1 I4 4.165105 1_555
Cs1 I4 4.165105 1_565
Cs1 I1 4.165106 1_555
Cs1 I1 4.165106 1_655
I0 Sn0 2.885406 1_665
I1 Sn0 2.885406 1_566
I2 Sn0 2.885406 1_655
I3 Sn0 2.885406 1_556
I4 Sn0 2.885406 1_656
I5 Sn0 2.885406 1_565
