# generated using pymatgen
data_V(SiO3)2
_symmetry_space_group_name_H-M   'P 1'
_cell_length_a   6.49936300
_cell_length_b   7.33853944
_cell_length_c   9.42679858
_cell_angle_alpha   101.46059951
_cell_angle_beta   101.65088701
_cell_angle_gamma   95.96331114
_symmetry_Int_Tables_number   1
_chemical_formula_structural   V(SiO3)2
_chemical_formula_sum   'V4 Si8 O24'
_cell_volume   426.68980669
_cell_formula_units_Z   4
loop_
 _symmetry_equiv_pos_site_id
 _symmetry_equiv_pos_as_xyz
  1  'x, y, z'
loop_
 _atom_site_type_symbol
 _atom_site_label
 _atom_site_symmetry_multiplicity
 _atom_site_fract_x
 _atom_site_fract_y
 _atom_site_fract_z
 _atom_site_occupancy
  V  V0  1  0.89856800  0.92506400  0.32270400  1
  V  V1  1  0.10157100  0.57216200  0.17291500  1
  V  V2  1  0.89825500  0.42497900  0.82249900  1
  V  V3  1  0.10183700  0.07236200  0.67309500  1
  Si  Si0  1  0.78520200  0.68156100  0.56556500  1
  Si  Si1  1  0.78506400  0.18152200  0.06554300  1
  Si  Si2  1  0.21511400  0.81551200  0.92984000  1
  Si  Si3  1  0.21526700  0.31551400  0.42988400  1
  Si  Si4  1  0.38343600  0.48066300  0.76440100  1
  Si  Si5  1  0.38345600  0.98062400  0.26434800  1
  Si  Si6  1  0.61680900  0.01640700  0.73097800  1
  Si  Si7  1  0.61679600  0.51641100  0.23103100  1
  O  O0  1  0.36517700  0.69457900  0.84148500  1
  O  O1  1  0.36508000  0.19453500  0.34149400  1
  O  O2  1  0.63487700  0.80251000  0.65367000  1
  O  O3  1  0.63496800  0.30253000  0.15366400  1
  O  O4  1  0.35260900  0.44986500  0.58552400  1
  O  O5  1  0.35249000  0.94972700  0.08545300  1
  O  O6  1  0.64803800  0.04699600  0.90987800  1
  O  O7  1  0.64816000  0.54712700  0.40994700  1
  O  O8  1  0.89477700  0.54891800  0.66872300  1
  O  O9  1  0.89468900  0.04896300  0.16885600  1
  O  O10  1  0.10559200  0.94839200  0.82681300  1
  O  O11  1  0.10567000  0.44831200  0.32673500  1
  O  O12  1  0.62093400  0.43998700  0.83371800  1
  O  O13  1  0.62106700  0.94000000  0.33380600  1
  O  O14  1  0.37935800  0.05737600  0.66197500  1
  O  O15  1  0.37923500  0.55734400  0.16188900  1
  O  O16  1  0.18429100  0.83974300  0.29302500  1
  O  O17  1  0.18433000  0.33983500  0.79316000  1
  O  O18  1  0.81589500  0.65744000  0.20238500  1
  O  O19  1  0.81583700  0.15738900  0.70223700  1
  O  O20  1  0.95412600  0.33868700  0.02281500  1
  O  O21  1  0.95420500  0.83872300  0.52281300  1
  O  O22  1  0.04616700  0.15848900  0.47269500  1
  O  O23  1  0.04607900  0.65845800  0.97266300  1
loop_
_geom_bond_atom_site_label_1
_geom_bond_atom_site_label_2
_geom_bond_distance
_geom_bond_site_symmetry_2
O0 Si4 1.620712 1_555
O0 Si2 1.626894 1_555
O1 Si5 1.621039 1_545
O1 Si3 1.626004 1_555
O2 Si6 1.620833 1_565
O2 Si0 1.627013 1_555
O3 Si7 1.621059 1_555
O3 Si1 1.626180 1_555
O4 Si3 1.623217 1_555
O4 Si4 1.623979 1_555
O5 Si2 1.622744 1_554
O5 Si5 1.623997 1_555
O6 Si1 1.623229 1_556
O6 Si6 1.624055 1_555
O7 Si0 1.622712 1_555
O7 Si7 1.624042 1_555
O8 Si0 1.625068 1_555
O8 V2 1.855835 1_555
O9 Si1 1.625641 1_555
O9 V0 1.855995 1_545
O10 Si2 1.625490 1_555
O10 V3 1.855334 1_565
O11 Si3 1.625938 1_555
O11 V1 1.855398 1_555
O12 Si4 1.632363 1_555
O12 V2 1.840002 1_555
O13 Si5 1.633201 1_555
O13 V0 1.840821 1_555
O14 Si6 1.632144 1_555
O14 V3 1.841047 1_555
O15 Si7 1.633001 1_555
O15 V1 1.841574 1_555
O16 Si5 1.670888 1_555
O16 V1 2.019460 1_555
O16 V0 2.073803 1_455
O17 Si4 1.670722 1_555
O17 V3 2.018590 1_555
O17 V2 2.074691 1_455
O18 Si7 1.671060 1_555
O18 V0 2.020326 1_555
O18 V1 2.072892 1_655
O19 Si6 1.670915 1_555
O19 V2 2.019864 1_555
O19 V3 2.073438 1_655
O20 Si1 1.673283 1_555
O20 V1 2.000960 1_655
O20 V2 2.084400 1_554
O21 Si0 1.673140 1_555
O21 V3 2.002818 1_665
O21 V0 2.082729 1_555
O22 Si3 1.673152 1_555
O22 V0 2.000511 1_445
O22 V3 2.084501 1_555
O23 Si2 1.673084 1_555
O23 V2 2.001855 1_455
O23 V1 2.083798 1_556
