# generated using pymatgen
data_SrNiN
_symmetry_space_group_name_H-M   'P 1'
_cell_length_a   5.20801615
_cell_length_b   9.08770686
_cell_length_c   13.20354408
_cell_angle_alpha   90.00000000
_cell_angle_beta   90.00000000
_cell_angle_gamma   90.00000000
_symmetry_Int_Tables_number   1
_chemical_formula_structural   SrNiN
_chemical_formula_sum   'Sr12 Ni12 N12'
_cell_volume   624.90953553
_cell_formula_units_Z   12
loop_
 _symmetry_equiv_pos_site_id
 _symmetry_equiv_pos_as_xyz
  1  'x, y, z'
loop_
 _atom_site_type_symbol
 _atom_site_label
 _atom_site_symmetry_multiplicity
 _atom_site_fract_x
 _atom_site_fract_y
 _atom_site_fract_z
 _atom_site_occupancy
  Sr  Sr0  1  0.49294551  0.49184778  0.75000000  1
  Sr  Sr1  1  0.99294551  0.00815222  0.25000000  1
  Sr  Sr2  1  0.00705449  0.99184778  0.75000000  1
  Sr  Sr3  1  0.50705449  0.50815222  0.25000000  1
  Sr  Sr4  1  0.97735307  0.33234612  0.41234518  1
  Sr  Sr5  1  0.47735307  0.16765388  0.58765482  1
  Sr  Sr6  1  0.52264693  0.83234612  0.08765482  1
  Sr  Sr7  1  0.02264693  0.66765388  0.91234518  1
  Sr  Sr8  1  0.02264693  0.66765388  0.58765482  1
  Sr  Sr9  1  0.52264693  0.83234612  0.41234518  1
  Sr  Sr10  1  0.47735307  0.16765388  0.91234518  1
  Sr  Sr11  1  0.97735307  0.33234612  0.08765482  1
  Ni  Ni0  1  0.46097470  0.15946888  0.16155903  1
  Ni  Ni1  1  0.96097470  0.34053112  0.83844097  1
  Ni  Ni2  1  0.03902530  0.65946888  0.33844097  1
  Ni  Ni3  1  0.53902530  0.84053112  0.66155903  1
  Ni  Ni4  1  0.53902530  0.84053112  0.83844097  1
  Ni  Ni5  1  0.03902530  0.65946888  0.16155903  1
  Ni  Ni6  1  0.96097470  0.34053112  0.66155903  1
  Ni  Ni7  1  0.46097470  0.15946888  0.33844097  1
  Ni  Ni8  1  -0.00000000  0.00000000  0.00000000  1
  Ni  Ni9  1  0.50000000  0.50000000  0.00000000  1
  Ni  Ni10  1  0.50000000  0.50000000  0.50000000  1
  Ni  Ni11  1  -0.00000000  0.00000000  0.50000000  1
  N  N0  1  0.30874660  0.75938956  0.75000000  1
  N  N1  1  0.80874660  0.74061044  0.25000000  1
  N  N2  1  0.19125340  0.25938956  0.75000000  1
  N  N3  1  0.69125340  0.24061044  0.25000000  1
  N  N4  1  0.23441062  0.07978128  0.42270596  1
  N  N5  1  0.73441062  0.42021872  0.57729404  1
  N  N6  1  0.26558938  0.57978128  0.07729404  1
  N  N7  1  0.76558938  0.92021872  0.92270596  1
  N  N8  1  0.76558938  0.92021872  0.57729404  1
  N  N9  1  0.26558938  0.57978128  0.42270596  1
  N  N10  1  0.73441062  0.42021872  0.92270596  1
  N  N11  1  0.23441062  0.07978128  0.07729404  1
loop_
_geom_bond_atom_site_label_1
_geom_bond_atom_site_label_2
_geom_bond_distance
_geom_bond_site_symmetry_2
N0 Ni3 1.829114 1_555
N0 Ni4 1.829114 1_555
N0 Sr0 2.613752 1_555
N0 Sr2 2.632761 1_555
N0 Sr7 2.740413 1_555
N0 Sr8 2.740413 1_555
N1 Ni2 1.829114 1_655
N1 Ni5 1.829114 1_655
N1 Sr1 2.613752 1_565
N1 Sr3 2.632761 1_555
N1 Sr6 2.740413 1_555
N1 Sr9 2.740413 1_555
N2 Ni6 1.829114 1_455
N2 Ni1 1.829114 1_455
N2 Sr2 2.613752 1_545
N2 Sr0 2.632761 1_555
N2 Sr10 2.740413 1_555
N2 Sr5 2.740413 1_555
N3 Ni0 1.829114 1_555
N3 Ni7 1.829114 1_555
N3 Sr3 2.613752 1_555
N3 Sr1 2.632761 1_555
N3 Sr11 2.740413 1_555
N3 Sr4 2.740413 1_555
N4 Ni11 1.748596 1_555
N4 Ni7 1.776115 1_555
N4 Sr5 2.642317 1_555
N4 Sr4 2.660657 1_455
N4 Sr1 2.684228 1_455
N4 Sr9 2.707105 1_545
N5 Ni10 1.748596 1_555
N5 Ni6 1.776115 1_555
N5 Sr4 2.642317 1_555
N5 Sr5 2.660657 1_555
N5 Sr0 2.684228 1_555
N5 Sr8 2.707105 1_655
N6 Ni9 1.748596 1_555
N6 Ni5 1.776115 1_555
N6 Sr7 2.642317 1_554
N6 Sr6 2.660657 1_555
N6 Sr3 2.684228 1_555
N6 Sr11 2.707105 1_455
N7 Ni8 1.748596 1_666
N7 Ni4 1.776115 1_555
N7 Sr6 2.642317 1_556
N7 Sr7 2.660657 1_655
N7 Sr2 2.684228 1_655
N7 Sr10 2.707105 1_565
N8 Ni11 1.748596 1_665
N8 Ni3 1.776115 1_555
N8 Sr9 2.642317 1_555
N8 Sr8 2.660657 1_655
N8 Sr2 2.684228 1_655
N8 Sr5 2.707105 1_565
N9 Ni10 1.748596 1_555
N9 Ni2 1.776115 1_555
N9 Sr8 2.642317 1_555
N9 Sr9 2.660657 1_555
N9 Sr3 2.684228 1_555
N9 Sr4 2.707105 1_455
N10 Ni9 1.748596 1_556
N10 Ni1 1.776115 1_555
N10 Sr11 2.642317 1_556
N10 Sr10 2.660657 1_555
N10 Sr0 2.684228 1_555
N10 Sr7 2.707105 1_655
N11 Ni8 1.748596 1_555
N11 Ni0 1.776115 1_555
N11 Sr10 2.642317 1_554
N11 Sr11 2.660657 1_455
N11 Sr1 2.684228 1_455
N11 Sr6 2.707105 1_545
