# generated using pymatgen
data_NaLi5N2
_symmetry_space_group_name_H-M   'P 1'
_cell_length_a   3.70381400
_cell_length_b   3.70381400
_cell_length_c   5.23181400
_cell_angle_alpha   90.00000000
_cell_angle_beta   90.00000000
_cell_angle_gamma   90.00000000
_symmetry_Int_Tables_number   1
_chemical_formula_structural   NaLi5N2
_chemical_formula_sum   'Na1 Li5 N2'
_cell_volume   71.77127039
_cell_formula_units_Z   1
loop_
 _symmetry_equiv_pos_site_id
 _symmetry_equiv_pos_as_xyz
  1  'x, y, z'
loop_
 _atom_site_type_symbol
 _atom_site_label
 _atom_site_symmetry_multiplicity
 _atom_site_fract_x
 _atom_site_fract_y
 _atom_site_fract_z
 _atom_site_occupancy
  Na  Na0  1  0.50000000  0.50000000  0.50000000  1
  Li  Li0  1  0.50000000  0.00000000  0.24336600  1
  Li  Li1  1  0.00000000  0.50000000  0.24336600  1
  Li  Li2  1  0.50000000  0.00000000  0.75663400  1
  Li  Li3  1  0.00000000  0.50000000  0.75663400  1
  Li  Li4  1  0.00000000  0.00000000  0.00000000  1
  N  N0  1  0.50000000  0.50000000  0.00000000  1
  N  N1  1  0.00000000  0.00000000  0.50000000  1
loop_
_geom_bond_atom_site_label_1
_geom_bond_atom_site_label_2
_geom_bond_distance
_geom_bond_site_symmetry_2
Li0 Li4 2.247379 1_555
Li0 N0 2.247379 1_545
Li0 N0 2.247379 1_555
Li0 Li4 2.247379 1_655
Li0 N1 2.287422 1_555
Li0 Na0 2.287422 1_545
Li0 Na0 2.287422 1_555
Li0 N1 2.287422 1_655
Li1 Li4 2.247379 1_555
Li1 N0 2.247379 1_555
Li1 N0 2.247379 1_455
Li1 Li4 2.247379 1_565
Li1 N1 2.287422 1_555
Li1 Na0 2.287422 1_455
Li1 N1 2.287422 1_565
Li1 Na0 2.287422 1_555
Li2 Li4 2.247379 1_556
Li2 Li4 2.247379 1_656
Li2 N0 2.247379 1_556
Li2 N0 2.247379 1_546
Li2 N1 2.287422 1_555
Li2 Na0 2.287422 1_545
Li2 Na0 2.287422 1_555
Li2 N1 2.287422 1_655
Li3 Li4 2.247379 1_556
Li3 Li4 2.247379 1_566
Li3 N0 2.247379 1_556
Li3 N0 2.247379 1_456
Li3 N1 2.287422 1_555
Li3 Na0 2.287422 1_455
Li3 N1 2.287422 1_565
Li3 Na0 2.287422 1_555
Li4 N1 2.615907 1_554
Li4 N1 2.615907 1_555
Li4 N0 2.618992 1_445
Li4 N0 2.618992 1_545
Li4 N0 2.618992 1_555
Li4 N0 2.618992 1_455
N0 Na0 2.615907 1_555
N0 Na0 2.615907 1_554
N1 Na0 2.618992 1_555
N1 Na0 2.618992 1_445
N1 Na0 2.618992 1_545
N1 Na0 2.618992 1_455
