# generated using pymatgen
data_Na4MgTi2(SiO5)2
_symmetry_space_group_name_H-M   'P 1'
_cell_length_a   5.13691400
_cell_length_b   6.80214300
_cell_length_c   6.80214300
_cell_angle_alpha   90.00000000
_cell_angle_beta   90.00000000
_cell_angle_gamma   90.00000000
_symmetry_Int_Tables_number   1
_chemical_formula_structural   Na4MgTi2(SiO5)2
_chemical_formula_sum   'Na4 Mg1 Ti2 Si2 O10'
_cell_volume   237.68064128
_cell_formula_units_Z   1
loop_
 _symmetry_equiv_pos_site_id
 _symmetry_equiv_pos_as_xyz
  1  'x, y, z'
loop_
 _atom_site_type_symbol
 _atom_site_label
 _atom_site_symmetry_multiplicity
 _atom_site_fract_x
 _atom_site_fract_y
 _atom_site_fract_z
 _atom_site_occupancy
  Na  Na0  1  0.50000000  0.96647400  0.46647400  1
  Na  Na1  1  0.50000000  0.96647400  0.03352600  1
  Na  Na2  1  0.50000000  0.53352600  0.46647400  1
  Na  Na3  1  0.50000000  0.53352600  0.03352600  1
  Mg  Mg0  1  0.50000000  0.25000000  0.75000000  1
  Ti  Ti0  1  0.05295800  0.25000000  0.25000000  1
  Ti  Ti1  1  0.94704200  0.75000000  0.75000000  1
  Si  Si0  1  0.00000000  0.75000000  0.25000000  1
  Si  Si1  1  0.00000000  0.25000000  0.75000000  1
  O  O0  1  0.70885000  0.25000000  0.25000000  1
  O  O1  1  0.29115000  0.75000000  0.75000000  1
  O  O2  1  0.20645000  0.25000000  0.56200400  1
  O  O3  1  0.20645000  0.25000000  0.93799600  1
  O  O4  1  0.17872600  0.54765100  0.25000000  1
  O  O5  1  0.17872600  0.95234900  0.25000000  1
  O  O6  1  0.79355000  0.06200400  0.75000000  1
  O  O7  1  0.82127400  0.75000000  0.04765100  1
  O  O8  1  0.79355000  0.43799600  0.75000000  1
  O  O9  1  0.82127400  0.75000000  0.45234900  1
loop_
_geom_bond_atom_site_label_1
_geom_bond_atom_site_label_2
_geom_bond_distance
_geom_bond_site_symmetry_2
Na0 O9 2.213849 1_555
Na0 O5 2.213849 1_555
Na0 O6 2.532899 1_565
Na0 O2 2.532899 1_565
Na0 O1 2.653046 1_555
Na0 O0 2.653046 1_565
Na1 O7 2.213849 1_555
Na1 O5 2.213849 1_555
Na1 O6 2.532899 1_564
Na1 O3 2.532899 1_564
Na1 O1 2.653046 1_554
Na1 O0 2.653046 1_565
Na2 O4 2.213849 1_555
Na2 O9 2.213849 1_555
Na2 O2 2.532899 1_555
Na2 O8 2.532899 1_555
Na2 O0 2.653046 1_555
Na2 O1 2.653046 1_555
Na3 O4 2.213849 1_555
Na3 O7 2.213849 1_555
Na3 O8 2.532899 1_554
Na3 O3 2.532899 1_554
Na3 O0 2.653046 1_555
Na3 O1 2.653046 1_554
Mg0 O3 1.977158 1_555
Mg0 O6 1.977158 1_555
Mg0 O2 1.977158 1_555
Mg0 O8 1.977158 1_555
O0 Ti0 1.767653 1_655
O1 Ti1 1.767653 1_455
O2 Si1 1.661313 1_555
O2 Ti0 2.264030 1_555
O3 Si1 1.661313 1_555
O3 Ti0 2.264030 1_556
O4 Si0 1.654510 1_555
O4 Ti0 2.125243 1_555
O5 Si0 1.654510 1_555
O5 Ti0 2.125243 1_565
O6 Si1 1.661313 1_655
O6 Ti1 2.264030 1_545
O7 Si0 1.654510 1_655
O7 Ti1 2.125243 1_554
O8 Si1 1.661313 1_655
O8 Ti1 2.264030 1_555
O9 Si0 1.654510 1_655
O9 Ti1 2.125243 1_555
