# generated using pymatgen
data_Nb3Ga
_symmetry_space_group_name_H-M   'P 1'
_cell_length_a   5.18540562
_cell_length_b   5.18540452
_cell_length_c   5.18541202
_cell_angle_alpha   90.00000000
_cell_angle_beta   90.00000000
_cell_angle_gamma   90.00000000
_symmetry_Int_Tables_number   1
_chemical_formula_structural   Nb3Ga
_chemical_formula_sum   'Nb6 Ga2'
_cell_volume   139.42756603
_cell_formula_units_Z   2
loop_
 _symmetry_equiv_pos_site_id
 _symmetry_equiv_pos_as_xyz
  1  'x, y, z'
loop_
 _atom_site_type_symbol
 _atom_site_label
 _atom_site_symmetry_multiplicity
 _atom_site_fract_x
 _atom_site_fract_y
 _atom_site_fract_z
 _atom_site_occupancy
  Nb  Nb0  1  0.25000798  -0.00000000  0.50000000  1
  Nb  Nb1  1  0.74999202  -0.00000000  0.50000000  1
  Nb  Nb2  1  0.00000000  0.50000000  0.25000641  1
  Nb  Nb3  1  -0.00000000  0.50000000  0.74999359  1
  Nb  Nb4  1  0.50000000  0.75001309  -0.00000000  1
  Nb  Nb5  1  0.50000000  0.24998691  0.00000000  1
  Ga  Ga0  1  -0.00000000  -0.00000000  -0.00000000  1
  Ga  Ga1  1  0.50000000  0.50000000  0.50000000  1
loop_
_geom_bond_atom_site_label_1
_geom_bond_atom_site_label_2
_geom_bond_distance
_geom_bond_site_symmetry_2
Nb0 Nb1 2.592620 1_555
Nb0 Nb1 2.592786 1_455
Nb0 Nb4 3.175357 1_545
Nb0 Nb4 3.175357 1_546
Nb0 Nb5 3.175357 1_556
Nb0 Nb5 3.175357 1_555
Nb0 Nb2 3.175403 1_555
Nb0 Nb3 3.175403 1_555
Nb0 Nb2 3.175403 1_545
Nb0 Nb3 3.175403 1_545
Nb1 Nb4 3.175357 1_545
Nb1 Nb4 3.175357 1_546
Nb1 Nb5 3.175357 1_556
Nb1 Nb5 3.175357 1_555
Nb1 Nb2 3.175403 1_645
Nb1 Nb3 3.175403 1_645
Nb1 Nb2 3.175403 1_655
Nb1 Nb3 3.175403 1_655
Nb2 Nb3 2.592640 1_555
Nb2 Nb3 2.592772 1_554
Nb2 Nb5 3.175441 1_555
Nb2 Nb4 3.175441 1_455
Nb2 Nb4 3.175441 1_555
Nb2 Nb5 3.175441 1_455
Nb3 Nb4 3.175441 1_456
Nb3 Nb4 3.175441 1_556
Nb3 Nb5 3.175441 1_456
Nb3 Nb5 3.175441 1_556
Nb4 Nb5 2.592567 1_565
Nb4 Nb5 2.592838 1_555
Ga0 Nb4 2.898699 1_545
Ga0 Nb4 2.898699 1_445
Ga0 Nb5 2.898699 1_455
Ga0 Nb5 2.898699 1_555
Ga0 Nb2 2.898745 1_555
Ga0 Nb3 2.898745 1_554
Ga0 Nb2 2.898745 1_545
Ga0 Nb3 2.898745 1_544
Ga0 Nb0 2.898751 1_555
Ga0 Nb0 2.898751 1_554
Ga0 Nb1 2.898751 1_455
Ga0 Nb1 2.898751 1_454
Ga1 Nb0 2.898711 1_555
Ga1 Nb0 2.898711 1_565
Ga1 Nb1 2.898711 1_555
Ga1 Nb1 2.898711 1_565
Ga1 Nb2 2.898716 1_555
Ga1 Nb3 2.898716 1_655
Ga1 Nb2 2.898716 1_655
Ga1 Nb3 2.898716 1_555
Ga1 Nb5 2.898763 1_556
Ga1 Nb5 2.898763 1_555
Ga1 Nb4 2.898763 1_556
Ga1 Nb4 2.898763 1_555
