# generated using pymatgen
data_FeCoH18(NCl)6
_symmetry_space_group_name_H-M   'P 1'
_cell_length_a   11.27910977
_cell_length_b   11.27910977
_cell_length_c   11.27910977
_cell_angle_alpha   90.00000000
_cell_angle_beta   90.00000000
_cell_angle_gamma   90.00000000
_symmetry_Int_Tables_number   1
_chemical_formula_structural   FeCoH18(NCl)6
_chemical_formula_sum   'Fe4 Co4 H72 N24 Cl24'
_cell_volume   1434.90936450
_cell_formula_units_Z   4
loop_
 _symmetry_equiv_pos_site_id
 _symmetry_equiv_pos_as_xyz
  1  'x, y, z'
loop_
 _atom_site_type_symbol
 _atom_site_label
 _atom_site_symmetry_multiplicity
 _atom_site_fract_x
 _atom_site_fract_y
 _atom_site_fract_z
 _atom_site_occupancy
  Fe  Fe0  1  -0.00000000  0.00000000  0.00000000  1
  Fe  Fe1  1  0.50000000  0.00000000  0.50000000  1
  Fe  Fe2  1  0.50000000  0.50000000  0.00000000  1
  Fe  Fe3  1  -0.00000000  0.50000000  0.50000000  1
  Co  Co0  1  0.50000000  0.50000000  0.50000000  1
  Co  Co1  1  -0.00000000  0.50000000  0.00000000  1
  Co  Co2  1  -0.00000000  0.00000000  0.50000000  1
  Co  Co3  1  0.50000000  0.00000000  0.00000000  1
  H  H0  1  0.09956984  0.63325731  0.14971077  1
  H  H1  1  0.59956984  0.86674269  0.85028923  1
  H  H2  1  0.90043016  0.13325731  0.35028923  1
  H  H3  1  0.86674269  0.85028923  0.59956984  1
  H  H4  1  0.35028923  0.90043016  0.13325731  1
  H  H5  1  0.85028923  0.59956984  0.86674269  1
  H  H6  1  0.63325731  0.14971077  0.09956984  1
  H  H7  1  0.14971077  0.09956984  0.63325731  1
  H  H8  1  0.13325731  0.35028923  0.90043016  1
  H  H9  1  0.36674269  0.64971077  0.40043016  1
  H  H10  1  0.64971077  0.40043016  0.36674269  1
  H  H11  1  0.40043016  0.36674269  0.64971077  1
  H  H12  1  0.90043016  0.36674269  0.85028923  1
  H  H13  1  0.40043016  0.13325731  0.14971077  1
  H  H14  1  0.09956984  0.86674269  0.64971077  1
  H  H15  1  0.13325731  0.14971077  0.40043016  1
  H  H16  1  0.64971077  0.09956984  0.86674269  1
  H  H17  1  0.14971077  0.40043016  0.13325731  1
  H  H18  1  0.36674269  0.85028923  0.90043016  1
  H  H19  1  0.85028923  0.90043016  0.36674269  1
  H  H20  1  0.86674269  0.64971077  0.09956984  1
  H  H21  1  0.63325731  0.35028923  0.59956984  1
  H  H22  1  0.35028923  0.59956984  0.63325731  1
  H  H23  1  0.59956984  0.63325731  0.35028923  1
  H  H24  1  0.18521105  0.62675987  0.03167446  1
  H  H25  1  0.68521105  0.87324013  0.96832554  1
  H  H26  1  0.81478895  0.12675987  0.46832554  1
  H  H27  1  0.87324013  0.96832554  0.68521105  1
  H  H28  1  0.46832554  0.81478895  0.12675987  1
  H  H29  1  0.96832554  0.68521105  0.87324013  1
  H  H30  1  0.62675987  0.03167446  0.18521105  1
  H  H31  1  0.21287090  0.46721279  0.93038797  1
  H  H32  1  0.03167446  0.18521105  0.62675987  1
  H  H33  1  0.37324013  0.53167446  0.31478895  1
  H  H34  1  0.53167446  0.31478895  0.37324013  1
  H  H35  1  0.31478895  0.37324013  0.53167446  1
  H  H36  1  0.81478895  0.37324013  0.96832554  1
  H  H37  1  0.31478895  0.12675987  0.03167446  1
  H  H38  1  0.18521105  0.87324013  0.53167446  1
  H  H39  1  0.12675987  0.03167446  0.31478895  1
  H  H40  1  0.53167446  0.18521105  0.87324013  1
  H  H41  1  0.03167446  0.31478895  0.12675987  1
  H  H42  1  0.37324013  0.96832554  0.81478895  1
  H  H43  1  0.96832554  0.81478895  0.37324013  1
  H  H44  1  0.87324013  0.53167446  0.18521105  1
  H  H45  1  0.62675987  0.46832554  0.68521105  1
  H  H46  1  0.46832554  0.68521105  0.62675987  1
  H  H47  1  0.68521105  0.62675987  0.46832554  1
  H  H48  1  0.06961203  0.71287090  0.03278721  1
  H  H49  1  0.56961203  0.78712910  0.96721279  1
  H  H50  1  0.93038797  0.21287090  0.46721279  1
  H  H51  1  0.78712910  0.96721279  0.56961203  1
  H  H52  1  0.46721279  0.93038797  0.21287090  1
  H  H53  1  0.96721279  0.56961203  0.78712910  1
  H  H54  1  0.71287090  0.03278721  0.06961203  1
  H  H55  1  0.03278721  0.06961203  0.71287090  1
  H  H56  1  0.56961203  0.71287090  0.46721279  1
  H  H57  1  0.46721279  0.56961203  0.71287090  1
  H  H58  1  0.71287090  0.46721279  0.56961203  1
  H  H59  1  0.78712910  0.53278721  0.06961203  1
  H  H60  1  0.96721279  0.93038797  0.28712910  1
  H  H61  1  0.28712910  0.96721279  0.93038797  1
  H  H62  1  0.03278721  0.43038797  0.21287090  1
  H  H63  1  0.53278721  0.06961203  0.78712910  1
  H  H64  1  0.21287090  0.03278721  0.43038797  1
  H  H65  1  0.06961203  0.78712910  0.53278721  1
  H  H66  1  0.43038797  0.21287090  0.03278721  1
  H  H67  1  0.93038797  0.28712910  0.96721279  1
  H  H68  1  0.43038797  0.28712910  0.53278721  1
  H  H69  1  0.53278721  0.43038797  0.28712910  1
  H  H70  1  0.28712910  0.53278721  0.43038797  1
  H  H71  1  0.12675987  0.46832554  0.81478895  1
  N  N0  1  0.09862353  0.63113452  0.05891507  1
  N  N1  1  0.59862353  0.86886548  0.94108493  1
  N  N2  1  0.90137647  0.13113452  0.44108493  1
  N  N3  1  0.86886548  0.94108493  0.59862353  1
  N  N4  1  0.44108493  0.90137647  0.13113452  1
  N  N5  1  0.94108493  0.59862353  0.86886548  1
  N  N6  1  0.63113452  0.05891507  0.09862353  1
  N  N7  1  0.05891507  0.09862353  0.63113452  1
  N  N8  1  0.13113452  0.44108493  0.90137647  1
  N  N9  1  0.36886548  0.55891507  0.40137647  1
  N  N10  1  0.55891507  0.40137647  0.36886548  1
  N  N11  1  0.40137647  0.36886548  0.55891507  1
  N  N12  1  0.90137647  0.36886548  0.94108493  1
  N  N13  1  0.40137647  0.13113452  0.05891507  1
  N  N14  1  0.09862353  0.86886548  0.55891507  1
  N  N15  1  0.13113452  0.05891507  0.40137647  1
  N  N16  1  0.55891507  0.09862353  0.86886548  1
  N  N17  1  0.05891507  0.40137647  0.13113452  1
  N  N18  1  0.36886548  0.94108493  0.90137647  1
  N  N19  1  0.94108493  0.90137647  0.36886548  1
  N  N20  1  0.86886548  0.55891507  0.09862353  1
  N  N21  1  0.63113452  0.44108493  0.59862353  1
  N  N22  1  0.44108493  0.59862353  0.63113452  1
  N  N23  1  0.59862353  0.63113452  0.44108493  1
  Cl  Cl0  1  0.42822851  0.13484635  0.35237407  1
  Cl  Cl1  1  0.92822851  0.36515365  0.64762593  1
  Cl  Cl2  1  0.57177149  0.63484635  0.14762593  1
  Cl  Cl3  1  0.36515365  0.64762593  0.92822851  1
  Cl  Cl4  1  0.92822851  0.13484635  0.14762593  1
  Cl  Cl5  1  0.64762593  0.92822851  0.36515365  1
  Cl  Cl6  1  0.13484635  0.35237407  0.42822851  1
  Cl  Cl7  1  0.35237407  0.42822851  0.13484635  1
  Cl  Cl8  1  0.63484635  0.14762593  0.57177149  1
  Cl  Cl9  1  0.86515365  0.85237407  0.07177149  1
  Cl  Cl10  1  0.85237407  0.07177149  0.86515365  1
  Cl  Cl11  1  0.07177149  0.86515365  0.85237407  1
  Cl  Cl12  1  0.57177149  0.86515365  0.64762593  1
  Cl  Cl13  1  0.07177149  0.63484635  0.35237407  1
  Cl  Cl14  1  0.42822851  0.36515365  0.85237407  1
  Cl  Cl15  1  0.63484635  0.35237407  0.07177149  1
  Cl  Cl16  1  0.85237407  0.42822851  0.36515365  1
  Cl  Cl17  1  0.35237407  0.07177149  0.63484635  1
  Cl  Cl18  1  0.86515365  0.64762593  0.57177149  1
  Cl  Cl19  1  0.64762593  0.57177149  0.86515365  1
  Cl  Cl20  1  0.36515365  0.85237407  0.42822851  1
  Cl  Cl21  1  0.13484635  0.14762593  0.92822851  1
  Cl  Cl22  1  0.14762593  0.92822851  0.13484635  1
  Cl  Cl23  1  0.14762593  0.57177149  0.63484635  1
loop_
_geom_bond_atom_site_label_1
_geom_bond_atom_site_label_2
_geom_bond_distance
_geom_bond_site_symmetry_2
Co0 N11 1.966381 1_555
Co0 N9 1.966381 1_555
Co0 N10 1.966381 1_555
Co0 N23 1.966381 1_555
Co0 N21 1.966381 1_555
Co0 N22 1.966381 1_555
Co1 N12 1.966381 1_454
Co1 N20 1.966381 1_455
Co1 N0 1.966381 1_555
Co1 N17 1.966381 1_555
Co1 N5 1.966381 1_454
Co1 N8 1.966381 1_554
Co2 N19 1.966381 1_445
Co2 N15 1.966381 1_555
Co2 N14 1.966381 1_545
Co2 N3 1.966381 1_445
Co2 N7 1.966381 1_555
Co2 N2 1.966381 1_455
Co3 N18 1.966381 1_544
Co3 N1 1.966381 1_544
Co3 N16 1.966381 1_554
Co3 N13 1.966381 1_555
Co3 N6 1.966381 1_555
Co3 N4 1.966381 1_545
H0 N0 1.024430 1_555
H1 N1 1.024430 1_555
H2 N2 1.024430 1_555
H3 N3 1.024430 1_555
H4 N4 1.024430 1_555
H5 N5 1.024430 1_555
H6 N6 1.024430 1_555
H7 N7 1.024430 1_555
H8 N8 1.024430 1_555
H9 N9 1.024430 1_555
H10 N10 1.024430 1_555
H11 N11 1.024430 1_555
H12 N12 1.024430 1_555
H13 N13 1.024430 1_555
H14 N14 1.024430 1_555
H15 N15 1.024430 1_555
H16 N16 1.024430 1_555
H17 N17 1.024430 1_555
H18 N18 1.024430 1_555
H19 N19 1.024430 1_555
H20 N20 1.024430 1_555
H21 N21 1.024430 1_555
H22 N22 1.024430 1_555
H23 N23 1.024430 1_555
H24 N0 1.025009 1_555
H25 N1 1.025009 1_555
H26 N2 1.025009 1_555
H27 N3 1.025009 1_555
H28 N4 1.025009 1_555
H29 N5 1.025009 1_555
H30 N6 1.025009 1_555
H31 N8 1.021689 1_555
H32 N7 1.025009 1_555
H33 N9 1.025009 1_555
H34 N10 1.025009 1_555
H35 N11 1.025009 1_555
H36 N12 1.025009 1_555
H37 N13 1.025009 1_555
H38 N14 1.025009 1_555
H39 N15 1.025009 1_555
H40 N16 1.025009 1_555
H41 N17 1.025009 1_555
H42 N18 1.025009 1_555
H43 N19 1.025009 1_555
H44 N20 1.025009 1_555
H45 N21 1.025009 1_555
H46 N22 1.025009 1_555
H47 N23 1.025009 1_555
H48 N0 1.021689 1_555
H49 N1 1.021689 1_555
H50 N2 1.021689 1_555
H51 N3 1.021689 1_555
H52 N4 1.021689 1_555
H53 N5 1.021689 1_555
H54 N6 1.021689 1_555
H55 N7 1.021689 1_555
H56 N23 1.021689 1_555
H57 N22 1.021689 1_555
H58 N21 1.021689 1_555
H59 N20 1.021689 1_555
H60 N19 1.021689 1_555
H61 N18 1.021689 1_555
H62 N17 1.021689 1_555
H63 N16 1.021689 1_555
H64 N15 1.021689 1_555
H65 N14 1.021689 1_555
H66 N13 1.021689 1_555
H67 N12 1.021689 1_555
H68 N11 1.021689 1_555
H69 N10 1.021689 1_555
H70 N9 1.021689 1_555
H71 N8 1.025009 1_555
Cl0 Fe1 2.396064 1_555
Cl1 Fe3 2.396064 1_655
Cl2 Fe2 2.396064 1_555
Cl3 Fe2 2.396064 1_556
Cl4 Fe0 2.396064 1_655
Cl5 Fe1 2.396064 1_565
Cl6 Fe3 2.396064 1_555
Cl7 Fe2 2.396064 1_555
Cl8 Fe1 2.396064 1_555
Cl9 Fe0 2.396064 1_665
Cl10 Fe0 2.396064 1_656
Cl11 Fe0 2.396064 1_566
Cl12 Fe1 2.396064 1_565
Cl13 Fe3 2.396064 1_555
Cl14 Fe2 2.396064 1_556
Cl15 Fe2 2.396064 1_555
Cl16 Fe3 2.396064 1_655
Cl17 Fe1 2.396064 1_555
Cl18 Fe3 2.396064 1_655
Cl19 Fe2 2.396064 1_556
Cl20 Fe1 2.396064 1_565
Cl21 Fe0 2.396064 1_556
Cl22 Fe0 2.396064 1_565
Cl23 Fe3 2.396064 1_555
