# generated using pymatgen
data_LiTiP2O7
_symmetry_space_group_name_H-M   'P 1'
_cell_length_a   4.94864600
_cell_length_b   7.04787934
_cell_length_c   8.28810600
_cell_angle_alpha   90.00000000
_cell_angle_beta   90.00000000
_cell_angle_gamma   108.85795323
_symmetry_Int_Tables_number   1
_chemical_formula_structural   LiTiP2O7
_chemical_formula_sum   'Li2 Ti2 P4 O14'
_cell_volume   273.55172295
_cell_formula_units_Z   2
loop_
 _symmetry_equiv_pos_site_id
 _symmetry_equiv_pos_as_xyz
  1  'x, y, z'
loop_
 _atom_site_type_symbol
 _atom_site_label
 _atom_site_symmetry_multiplicity
 _atom_site_fract_x
 _atom_site_fract_y
 _atom_site_fract_z
 _atom_site_occupancy
  Li  Li0  1  0.80661600  0.32115500  0.30486800  1
  Li  Li1  1  0.19338400  0.67884500  0.80486800  1
  Ti  Ti0  1  0.20893000  0.72784100  0.44114900  1
  Ti  Ti1  1  0.79107000  0.27215900  0.94114900  1
  P  P0  1  0.59608000  0.47487700  0.62276700  1
  P  P1  1  0.40392000  0.52512300  0.12276700  1
  P  P2  1  0.78410700  0.91786800  0.23060600  1
  P  P3  1  0.21589300  0.08213200  0.73060600  1
  O  O0  1  0.39876500  0.07789000  0.87842200  1
  O  O1  1  0.19856100  0.49005900  0.97925000  1
  O  O2  1  0.80143900  0.50994100  0.47925000  1
  O  O3  1  0.24835600  0.50829600  0.28505500  1
  O  O4  1  0.60123500  0.92211000  0.37842200  1
  O  O5  1  0.60077900  0.75684800  0.09884200  1
  O  O6  1  0.13222200  0.88139800  0.64167700  1
  O  O7  1  0.86777800  0.11860200  0.14167700  1
  O  O8  1  0.39751000  0.60293600  0.61910200  1
  O  O9  1  0.39922100  0.24315200  0.59884200  1
  O  O10  1  0.95707900  0.14443200  0.77491700  1
  O  O11  1  0.04292100  0.85556800  0.27491700  1
  O  O12  1  0.75164400  0.49170400  0.78505500  1
  O  O13  1  0.60249000  0.39706400  0.11910200  1
loop_
_geom_bond_atom_site_label_1
_geom_bond_atom_site_label_2
_geom_bond_distance
_geom_bond_site_symmetry_2
Li0 O2 1.970257 1_555
Li0 O13 2.006612 1_555
Li0 O7 2.058702 1_555
Li0 O3 2.163652 1_655
Li1 O1 1.970257 1_555
Li1 O8 2.006612 1_555
Li1 O6 2.058702 1_555
Li1 O12 2.163652 1_455
O0 P3 1.529137 1_555
O0 Ti1 2.048311 1_555
O1 P1 1.531782 1_556
O1 Ti1 2.126649 1_455
O2 P0 1.531782 1_555
O2 Ti0 2.126649 1_655
O3 P1 1.535211 1_555
O3 Ti0 2.073925 1_555
O4 P2 1.529137 1_555
O4 Ti0 2.048311 1_555
O5 P1 1.620833 1_555
O5 P2 1.624195 1_555
O6 P3 1.528897 1_565
O6 Ti0 2.084028 1_555
O7 P2 1.528897 1_545
O7 Ti1 2.084028 1_554
O8 P0 1.534419 1_555
O8 Ti0 2.086199 1_555
O9 P0 1.620833 1_555
O9 P3 1.624195 1_555
O10 P3 1.526959 1_655
O10 Ti1 1.965076 1_555
O11 P2 1.526959 1_455
O11 Ti0 1.965076 1_555
O12 P0 1.535211 1_555
O12 Ti1 2.073925 1_555
O13 P1 1.534419 1_555
O13 Ti1 2.086199 1_554
