# generated using pymatgen
data_YCu5
_symmetry_space_group_name_H-M   'P 1'
_cell_length_a   5.00270152
_cell_length_b   5.00270136
_cell_length_c   4.03351611
_cell_angle_alpha   90.00000000
_cell_angle_beta   90.00000000
_cell_angle_gamma   120.00000105
_symmetry_Int_Tables_number   1
_chemical_formula_structural   YCu5
_chemical_formula_sum   'Y1 Cu5'
_cell_volume   87.42257477
_cell_formula_units_Z   1
loop_
 _symmetry_equiv_pos_site_id
 _symmetry_equiv_pos_as_xyz
  1  'x, y, z'
loop_
 _atom_site_type_symbol
 _atom_site_label
 _atom_site_symmetry_multiplicity
 _atom_site_fract_x
 _atom_site_fract_y
 _atom_site_fract_z
 _atom_site_occupancy
  Y  Y0  1  0.00000000  -0.00000000  -0.00000000  1
  Cu  Cu0  1  0.33333300  0.66666700  0.00000000  1
  Cu  Cu1  1  0.66666700  0.33333300  -0.00000000  1
  Cu  Cu2  1  0.50000000  -0.00000000  0.50000000  1
  Cu  Cu3  1  0.50000000  0.50000000  0.50000000  1
  Cu  Cu4  1  0.00000000  0.50000000  0.50000000  1
loop_
_geom_bond_atom_site_label_1
_geom_bond_atom_site_label_2
_geom_bond_distance
_geom_bond_site_symmetry_2
Cu0 Cu2 2.480503 1_565
Cu0 Cu2 2.480503 1_564
Cu0 Cu4 2.480503 1_555
Cu0 Cu4 2.480503 1_554
Cu0 Cu3 2.480505 1_555
Cu0 Cu3 2.480505 1_554
Cu0 Cu1 2.888308 1_565
Cu0 Y0 2.888308 1_565
Cu0 Cu1 2.888308 1_455
Cu0 Y0 2.888312 1_555
Cu0 Y0 2.888312 1_665
Cu0 Cu1 2.888317 1_555
Cu1 Cu2 2.480503 1_554
Cu1 Cu2 2.480503 1_555
Cu1 Cu4 2.480503 1_654
Cu1 Cu4 2.480503 1_655
Cu1 Cu3 2.480505 1_555
Cu1 Cu3 2.480505 1_554
Cu1 Y0 2.888308 1_655
Cu1 Y0 2.888312 1_665
Cu1 Y0 2.888312 1_555
Cu2 Cu3 2.501351 1_555
Cu2 Cu4 2.501351 1_655
Cu2 Cu3 2.501351 1_545
Cu2 Cu4 2.501351 1_545
Cu2 Y0 3.213109 1_656
Cu2 Y0 3.213109 1_555
Cu2 Y0 3.213109 1_655
Cu2 Y0 3.213109 1_556
Cu3 Cu4 2.501351 1_655
Cu3 Cu4 2.501351 1_555
Cu3 Y0 3.213109 1_665
Cu3 Y0 3.213109 1_666
Cu3 Y0 3.213109 1_556
Cu3 Y0 3.213109 1_555
Cu4 Y0 3.213109 1_556
Cu4 Y0 3.213109 1_555
Cu4 Y0 3.213109 1_565
Cu4 Y0 3.213109 1_566
