# generated using pymatgen
data_Gd2B5
_symmetry_space_group_name_H-M   'P 1'
_cell_length_a   7.14487723
_cell_length_b   7.15653802
_cell_length_c   7.18084375
_cell_angle_alpha   89.99912947
_cell_angle_beta   102.45951681
_cell_angle_gamma   90.00003016
_symmetry_Int_Tables_number   1
_chemical_formula_structural   Gd2B5
_chemical_formula_sum   'Gd8 B20'
_cell_volume   358.52765325
_cell_formula_units_Z   4
loop_
 _symmetry_equiv_pos_site_id
 _symmetry_equiv_pos_as_xyz
  1  'x, y, z'
loop_
 _atom_site_type_symbol
 _atom_site_label
 _atom_site_symmetry_multiplicity
 _atom_site_fract_x
 _atom_site_fract_y
 _atom_site_fract_z
 _atom_site_occupancy
  Gd  Gd0  1  0.24073801  0.68460038  0.25550620  1
  Gd  Gd1  1  0.75926299  0.18460038  0.24449480  1
  Gd  Gd2  1  0.75926299  0.31540062  0.74449380  1
  Gd  Gd3  1  0.24073701  0.81539962  0.75550620  1
  Gd  Gd4  1  0.23288412  0.30849813  0.62900555  1
  Gd  Gd5  1  0.76711588  0.80849813  0.87099445  1
  Gd  Gd6  1  0.76711488  0.69150187  0.37099345  1
  Gd  Gd7  1  0.23288412  0.19150187  0.12900555  1
  B  B0  1  0.68468023  0.49843917  0.03837500  1
  B  B1  1  0.31531977  0.99843817  0.46162500  1
  B  B2  1  0.31531977  0.50156083  0.96162500  1
  B  B3  1  0.68468023  0.00156183  0.53837500  1
  B  B4  1  0.07668011  0.50754193  0.92822264  1
  B  B5  1  0.92331889  0.00754193  0.57177836  1
  B  B6  1  0.92331989  0.49245807  0.07177836  1
  B  B7  1  0.07668111  0.99245807  0.42822164  1
  B  B8  1  0.50286237  0.67294798  0.03954144  1
  B  B9  1  0.49713763  0.17294798  0.46045756  1
  B  B10  1  0.49713763  0.32705202  0.96045756  1
  B  B11  1  0.50286237  0.82705202  0.53954244  1
  B  B12  1  0.50119809  0.09035767  0.90993804  1
  B  B13  1  0.49880191  0.59035767  0.59006196  1
  B  B14  1  0.49880091  0.90964233  0.09006296  1
  B  B15  1  0.50119809  0.40964233  0.40993804  1
  B  B16  1  0.50315396  0.03860730  0.67344783  1
  B  B17  1  0.49684604  0.53860830  0.82655217  1
  B  B18  1  0.49684604  0.96139170  0.32655217  1
  B  B19  1  0.50315396  0.46139170  0.17344783  1
loop_
_geom_bond_atom_site_label_1
_geom_bond_atom_site_label_2
_geom_bond_distance
_geom_bond_site_symmetry_2
B0 B6 1.670357 1_555
B0 B19 1.798903 1_555
B0 B8 1.803341 1_555
B0 B10 1.813692 1_554
B0 B17 1.821135 1_554
B0 Gd2 2.634126 1_554
B0 Gd5 2.649656 1_554
B0 Gd1 2.679325 1_555
B0 Gd6 2.711790 1_555
B1 B7 1.670349 1_555
B1 B18 1.798906 1_555
B1 B9 1.803346 1_565
B1 B11 1.813677 1_555
B1 B16 1.821142 1_565
B1 Gd3 2.634094 1_555
B1 Gd4 2.649694 1_565
B1 Gd0 2.679352 1_555
B1 Gd7 2.711763 1_565
B2 B4 1.670357 1_555
B2 B8 1.813691 1_556
B2 Gd0 2.634127 1_556
B2 Gd7 2.649656 1_556
B2 Gd3 2.679321 1_555
B2 Gd4 2.711796 1_555
B3 B5 1.670349 1_555
B3 B9 1.813677 1_555
B3 Gd1 2.634088 1_555
B3 Gd6 2.649695 1_545
B3 Gd2 2.679358 1_555
B3 Gd5 2.711763 1_545
B4 B6 1.662031 1_456
B4 Gd0 2.704496 1_556
B4 Gd2 2.735652 1_455
B4 Gd7 2.783063 1_556
B4 Gd3 2.897151 1_555
B4 Gd4 2.987663 1_555
B4 Gd5 3.050832 1_455
B5 B7 1.662050 1_645
B5 Gd1 2.704459 1_555
B5 Gd3 2.735639 1_645
B5 Gd6 2.783104 1_545
B5 Gd2 2.897178 1_555
B5 Gd5 2.987622 1_545
B5 Gd4 3.050845 1_655
B6 Gd2 2.704496 1_554
B6 Gd0 2.735658 1_655
B6 Gd5 2.783066 1_554
B6 Gd1 2.897151 1_555
B6 Gd6 2.987655 1_555
B6 Gd7 3.050832 1_655
B7 Gd3 2.704465 1_555
B7 Gd1 2.735637 1_465
B7 Gd4 2.783099 1_565
B7 Gd0 2.897177 1_555
B7 Gd7 2.987622 1_565
B7 Gd6 3.050849 1_455
B8 Gd5 2.637546 1_554
B8 Gd3 2.656794 1_554
B8 Gd0 2.678205 1_555
B8 Gd6 2.703373 1_555
B9 Gd4 2.637565 1_555
B9 Gd2 2.656824 1_555
B9 Gd1 2.678198 1_555
B9 Gd7 2.703373 1_555
B10 B12 1.733881 1_555
B10 B17 1.793296 1_555
B10 B19 1.799179 1_556
B10 B2 1.803342 1_555
B10 Gd7 2.637550 1_556
B10 Gd1 2.656803 1_556
B10 Gd2 2.678205 1_555
B10 Gd4 2.703376 1_555
B11 B13 1.733870 1_555
B11 B16 1.793314 1_565
B11 B18 1.799154 1_555
B11 B3 1.803346 1_565
B11 Gd6 2.637563 1_555
B11 Gd0 2.656818 1_555
B11 Gd3 2.678204 1_555
B11 Gd5 2.703373 1_555
B12 B16 1.741119 1_555
B12 B14 1.831782 1_546
B12 Gd3 2.770299 1_545
B12 Gd1 2.777557 1_556
B12 Gd7 2.824011 1_556
B12 Gd5 2.825977 1_545
B12 Gd2 2.889658 1_555
B12 Gd4 2.917714 1_555
B13 B17 1.741107 1_555
B13 B15 1.831804 1_555
B13 Gd2 2.770271 1_555
B13 Gd0 2.777531 1_555
B13 Gd6 2.823997 1_555
B13 Gd4 2.825969 1_555
B13 Gd3 2.889675 1_555
B13 Gd5 2.917746 1_555
B14 B8 1.733885 1_555
B14 B18 1.741109 1_555
B14 Gd1 2.770303 1_565
B14 Gd3 2.777553 1_554
B14 Gd5 2.824021 1_554
B14 Gd7 2.825970 1_565
B14 Gd0 2.889640 1_555
B14 Gd6 2.917706 1_555
B15 B9 1.733870 1_555
B15 B19 1.741107 1_555
B15 Gd0 2.770272 1_555
B15 Gd2 2.777533 1_555
B15 Gd4 2.823998 1_555
B15 Gd6 2.825966 1_555
B15 Gd1 2.889671 1_555
B15 Gd7 2.917746 1_555
B16 B3 1.798905 1_555
B16 B9 1.799158 1_555
B16 Gd3 2.625064 1_545
B16 Gd5 2.669571 1_545
B16 Gd2 2.670166 1_555
B16 Gd4 2.701015 1_555
B17 B2 1.798903 1_555
B17 B8 1.799173 1_556
B17 Gd2 2.625076 1_555
B17 Gd4 2.669601 1_555
B17 Gd3 2.670145 1_555
B17 Gd5 2.701015 1_555
B18 B9 1.793320 1_565
B18 B3 1.821143 1_565
B18 Gd1 2.625066 1_565
B18 Gd7 2.669576 1_565
B18 Gd0 2.670151 1_555
B18 Gd6 2.701005 1_555
B19 B8 1.793299 1_555
B19 B2 1.821135 1_554
B19 Gd0 2.625075 1_555
B19 Gd6 2.669594 1_555
B19 Gd1 2.670145 1_555
B19 Gd7 2.701015 1_555
