# generated using pymatgen
data_Rb3Mo15Se17
_symmetry_space_group_name_H-M   'P 1'
_cell_length_a   9.71462025
_cell_length_b   9.71462025
_cell_length_c   21.19214900
_cell_angle_alpha   90.00000000
_cell_angle_beta   90.00000000
_cell_angle_gamma   120.00000172
_symmetry_Int_Tables_number   1
_chemical_formula_structural   Rb3Mo15Se17
_chemical_formula_sum   'Rb6 Mo30 Se34'
_cell_volume   1732.03745808
_cell_formula_units_Z   2
loop_
 _symmetry_equiv_pos_site_id
 _symmetry_equiv_pos_as_xyz
  1  'x, y, z'
loop_
 _atom_site_type_symbol
 _atom_site_label
 _atom_site_symmetry_multiplicity
 _atom_site_fract_x
 _atom_site_fract_y
 _atom_site_fract_z
 _atom_site_occupancy
  Rb  Rb0  1  0.00000000  0.00000000  0.36207600  1
  Rb  Rb1  1  0.00000000  0.00000000  0.86207600  1
  Rb  Rb2  1  0.00000000  0.00000000  0.63792400  1
  Rb  Rb3  1  0.00000000  0.00000000  0.13792400  1
  Rb  Rb4  1  0.33333300  0.66666700  0.75000000  1
  Rb  Rb5  1  0.66666700  0.33333300  0.25000000  1
  Mo  Mo0  1  0.48166900  0.83378100  0.25000000  1
  Mo  Mo1  1  0.64788800  0.48166900  0.75000000  1
  Mo  Mo2  1  0.83378100  0.35211200  0.75000000  1
  Mo  Mo3  1  0.16621900  0.64788800  0.25000000  1
  Mo  Mo4  1  0.35211200  0.51833100  0.25000000  1
  Mo  Mo5  1  0.51833100  0.16621900  0.75000000  1
  Mo  Mo6  1  0.68382000  0.18306400  0.85677800  1
  Mo  Mo7  1  0.50075600  0.68382000  0.35677800  1
  Mo  Mo8  1  0.18306400  0.49924400  0.35677800  1
  Mo  Mo9  1  0.81693600  0.50075600  0.85677800  1
  Mo  Mo10  1  0.49924400  0.31618000  0.85677800  1
  Mo  Mo11  1  0.31618000  0.81693600  0.35677800  1
  Mo  Mo12  1  0.31618000  0.81693600  0.14322200  1
  Mo  Mo13  1  0.49924400  0.31618000  0.64322200  1
  Mo  Mo14  1  0.81693600  0.50075600  0.64322200  1
  Mo  Mo15  1  0.18306400  0.49924400  0.14322200  1
  Mo  Mo16  1  0.50075600  0.68382000  0.14322200  1
  Mo  Mo17  1  0.68382000  0.18306400  0.64322200  1
  Mo  Mo18  1  0.52021900  0.16477500  0.96510300  1
  Mo  Mo19  1  0.35544400  0.52021900  0.46510300  1
  Mo  Mo20  1  0.16477500  0.64455600  0.46510300  1
  Mo  Mo21  1  0.83522500  0.35544400  0.96510300  1
  Mo  Mo22  1  0.64455600  0.47978100  0.96510300  1
  Mo  Mo23  1  0.47978100  0.83522500  0.46510300  1
  Mo  Mo24  1  0.47978100  0.83522500  0.03489700  1
  Mo  Mo25  1  0.64455600  0.47978100  0.53489700  1
  Mo  Mo26  1  0.83522500  0.35544400  0.53489700  1
  Mo  Mo27  1  0.16477500  0.64455600  0.03489700  1
  Mo  Mo28  1  0.35544400  0.52021900  0.03489700  1
  Mo  Mo29  1  0.52021900  0.16477500  0.53489700  1
  Se  Se0  1  0.63120000  0.62464500  0.85772100  1
  Se  Se1  1  0.70644900  0.04376300  0.54292600  1
  Se  Se2  1  0.95623700  0.66268600  0.54292600  1
  Se  Se3  1  0.66268600  0.70644900  0.04292600  1
  Se  Se4  1  0.66268600  0.70644900  0.45707400  1
  Se  Se5  1  0.95623700  0.66268600  0.95707400  1
  Se  Se6  1  0.33333300  0.66666700  0.93929600  1
  Se  Se7  1  0.66666700  0.33333300  0.43929600  1
  Se  Se8  1  0.66666700  0.33333300  0.06070400  1
  Se  Se9  1  0.33333300  0.66666700  0.56070400  1
  Se  Se10  1  0.29479100  0.95972300  0.25000000  1
  Se  Se11  1  0.33506800  0.29479100  0.75000000  1
  Se  Se12  1  0.95972300  0.66493200  0.75000000  1
  Se  Se13  1  0.04027700  0.33506800  0.25000000  1
  Se  Se14  1  0.66493200  0.70520900  0.25000000  1
  Se  Se15  1  0.70520900  0.04027700  0.75000000  1
  Se  Se16  1  0.62464500  0.99344500  0.35772100  1
  Se  Se17  1  0.29355100  0.95623700  0.04292600  1
  Se  Se18  1  0.99344500  0.36880000  0.85772100  1
  Se  Se19  1  0.70644900  0.04376300  0.95707400  1
  Se  Se20  1  0.36880000  0.37535500  0.35772100  1
  Se  Se21  1  0.37535500  0.00655500  0.85772100  1
  Se  Se22  1  0.37535500  0.00655500  0.64227900  1
  Se  Se23  1  0.36880000  0.37535500  0.14227900  1
  Se  Se24  1  0.00655500  0.63120000  0.14227900  1
  Se  Se25  1  0.99344500  0.36880000  0.64227900  1
  Se  Se26  1  0.63120000  0.62464500  0.64227900  1
  Se  Se27  1  0.62464500  0.99344500  0.14227900  1
  Se  Se28  1  0.33731400  0.29355100  0.54292600  1
  Se  Se29  1  0.04376300  0.33731400  0.04292600  1
  Se  Se30  1  0.33731400  0.29355100  0.95707400  1
  Se  Se31  1  0.04376300  0.33731400  0.45707400  1
  Se  Se32  1  0.29355100  0.95623700  0.45707400  1
  Se  Se33  1  0.00655500  0.63120000  0.35772100  1
loop_
_geom_bond_atom_site_label_1
_geom_bond_atom_site_label_2
_geom_bond_distance
_geom_bond_site_symmetry_2
Rb0 Se20 3.616190 1_555
Rb0 Se16 3.616190 1_445
Rb0 Se33 3.616190 1_545
Rb0 Se4 3.684909 1_445
Rb0 Se31 3.684909 1_555
Rb0 Se32 3.684909 1_545
Rb0 Se14 3.887946 1_445
Rb0 Se13 3.887946 1_555
Rb0 Se10 3.887946 1_545
Rb1 Se0 3.616190 1_445
Rb1 Se21 3.616190 1_555
Rb1 Se18 3.616190 1_455
Rb1 Se30 3.684909 1_555
Rb1 Se5 3.684909 1_445
Rb1 Se19 3.684909 1_455
Rb1 Se11 3.887946 1_555
Rb1 Se12 3.887946 1_445
Rb1 Se15 3.887946 1_455
Rb2 Se26 3.616190 1_445
Rb2 Se22 3.616190 1_555
Rb2 Se25 3.616190 1_455
Rb2 Se28 3.684909 1_555
Rb2 Se2 3.684909 1_445
Rb2 Se1 3.684909 1_455
Rb2 Se11 3.887946 1_555
Rb2 Se12 3.887946 1_445
Rb2 Se15 3.887946 1_455
Rb3 Se23 3.616190 1_555
Rb3 Se27 3.616190 1_445
Rb3 Se24 3.616190 1_545
Rb3 Se3 3.684909 1_445
Rb3 Se29 3.684909 1_555
Rb3 Se17 3.684909 1_545
Rb3 Se14 3.887946 1_445
Rb3 Se13 3.887946 1_555
Rb3 Se10 3.887946 1_545
Rb4 Se12 3.621081 1_455
Rb4 Se15 3.621086 1_565
Rb4 Se11 3.621091 1_555
Rb4 Se21 3.864261 1_565
Rb4 Se22 3.864261 1_565
Rb4 Se25 3.864264 1_455
Rb4 Se18 3.864264 1_455
Rb4 Se0 3.864269 1_555
Rb4 Se26 3.864269 1_555
Rb4 Se9 4.011589 1_555
Rb4 Se6 4.011589 1_555
Rb5 Se13 3.621081 1_655
Rb5 Se10 3.621086 1_545
Rb5 Se14 3.621091 1_555
Rb5 Se16 3.864261 1_545
Rb5 Se27 3.864261 1_545
Rb5 Se33 3.864264 1_655
Rb5 Se24 3.864264 1_655
Rb5 Se20 3.864269 1_555
Rb5 Se23 3.864269 1_555
Rb5 Se8 4.011589 1_555
Rb5 Se7 4.011589 1_555
Mo0 Se14 2.636917 1_555
Mo0 Se10 2.648380 1_555
Mo0 Se27 2.718826 1_555
Mo0 Se16 2.718826 1_555
Mo1 Se12 2.636917 1_555
Mo1 Se11 2.648380 1_555
Mo1 Se0 2.718826 1_555
Mo1 Se26 2.718826 1_555
Mo2 Se15 2.636917 1_555
Mo2 Se12 2.648380 1_555
Mo2 Se25 2.718826 1_555
Mo2 Se18 2.718826 1_555
Mo3 Se10 2.636917 1_555
Mo3 Se13 2.648380 1_555
Mo3 Se24 2.718826 1_555
Mo3 Se33 2.718826 1_555
Mo4 Se13 2.636917 1_555
Mo4 Se14 2.648380 1_555
Mo4 Se23 2.718826 1_555
Mo4 Se20 2.718826 1_555
Mo5 Se11 2.636917 1_555
Mo5 Se15 2.648380 1_555
Mo5 Se22 2.718826 1_555
Mo5 Se21 2.718826 1_555
Mo6 Se19 2.587434 1_555
Mo6 Se21 2.604233 1_555
Mo6 Se18 2.622250 1_555
Mo6 Se15 2.715883 1_555
Mo7 Se4 2.587434 1_555
Mo7 Se20 2.604233 1_555
Mo7 Se16 2.622250 1_555
Mo7 Se14 2.715883 1_555
Mo8 Se31 2.587434 1_555
Mo8 Se33 2.604233 1_555
Mo8 Se20 2.622250 1_555
Mo8 Se13 2.715883 1_555
Mo9 Se5 2.587434 1_555
Mo9 Se18 2.604233 1_555
Mo9 Se0 2.622250 1_555
Mo9 Se12 2.715883 1_555
Mo10 Se30 2.587434 1_555
Mo10 Se0 2.604233 1_555
Mo10 Se21 2.622250 1_555
Mo10 Se11 2.715883 1_555
Mo11 Se32 2.587434 1_555
Mo11 Se16 2.604233 1_555
Mo11 Se33 2.622250 1_555
Mo11 Se10 2.715883 1_555
Mo12 Se17 2.587434 1_555
Mo12 Se27 2.604233 1_555
Mo12 Se24 2.622250 1_555
Mo12 Se10 2.715883 1_555
Mo13 Se28 2.587434 1_555
Mo13 Se26 2.604233 1_555
Mo13 Se22 2.622250 1_555
Mo13 Se11 2.715883 1_555
Mo14 Se2 2.587434 1_555
Mo14 Se25 2.604233 1_555
Mo14 Se26 2.622250 1_555
Mo14 Se12 2.715883 1_555
Mo15 Se29 2.587434 1_555
Mo15 Se24 2.604233 1_555
Mo15 Se23 2.622250 1_555
Mo15 Se13 2.715883 1_555
Mo16 Se3 2.587434 1_555
Mo16 Se23 2.604233 1_555
Mo16 Se27 2.622250 1_555
Mo16 Se14 2.715883 1_555
Mo17 Se1 2.587434 1_555
Mo17 Se22 2.604233 1_555
Mo17 Se25 2.622250 1_555
Mo17 Se15 2.715883 1_555
Mo18 Se8 2.545661 1_556
Mo18 Se19 2.609752 1_555
Mo18 Se30 2.640841 1_555
Mo18 Se17 2.685507 1_546
Mo18 Se21 2.712660 1_555
Mo19 Se9 2.545664 1_555
Mo19 Se4 2.609752 1_555
Mo19 Se31 2.640841 1_555
Mo19 Se28 2.685507 1_555
Mo19 Se20 2.712660 1_555
Mo20 Se9 2.545659 1_555
Mo20 Se31 2.609752 1_555
Mo20 Se32 2.640841 1_555
Mo20 Se2 2.685507 1_455
Mo20 Se33 2.712660 1_555
Mo21 Se8 2.545659 1_556
Mo21 Se5 2.609752 1_555
Mo21 Se19 2.640841 1_555
Mo21 Se29 2.685507 1_656
Mo21 Se18 2.712660 1_555
Mo22 Se8 2.545664 1_556
Mo22 Se30 2.609752 1_555
Mo22 Se5 2.640841 1_555
Mo22 Se3 2.685507 1_556
Mo22 Se0 2.712660 1_555
Mo23 Se9 2.545661 1_555
Mo23 Se32 2.609752 1_555
Mo23 Se4 2.640841 1_555
Mo23 Se1 2.685507 1_565
Mo23 Se16 2.712660 1_555
Mo24 Se6 2.545661 1_554
Mo24 Se17 2.609752 1_555
Mo24 Se3 2.640841 1_555
Mo24 Se19 2.685507 1_564
Mo24 Se27 2.712660 1_555
Mo25 Se7 2.545664 1_555
Mo25 Se28 2.609752 1_555
Mo25 Se2 2.640841 1_555
Mo25 Se4 2.685507 1_555
Mo25 Se26 2.712660 1_555
Mo26 Se7 2.545659 1_555
Mo26 Se2 2.609752 1_555
Mo26 Se1 2.640841 1_555
Mo26 Se31 2.685507 1_655
Mo26 Se25 2.712660 1_555
Mo27 Se6 2.545659 1_554
Mo27 Se29 2.609752 1_555
Mo27 Se17 2.640841 1_555
Mo27 Se5 2.685507 1_454
Mo27 Se24 2.712660 1_555
Mo28 Se6 2.545664 1_554
Mo28 Se3 2.609752 1_555
Mo28 Se29 2.640841 1_555
Mo28 Se30 2.685507 1_554
Mo28 Se23 2.712660 1_555
Mo29 Se7 2.545661 1_555
Mo29 Se1 2.609752 1_555
Mo29 Se28 2.640841 1_555
Mo29 Se32 2.685507 1_545
Mo29 Se22 2.712660 1_555
