# generated using pymatgen
data_CeCoGe
_symmetry_space_group_name_H-M   'P 1'
_cell_length_a   4.25952809
_cell_length_b   4.25952809
_cell_length_c   6.53755746
_cell_angle_alpha   90.00000000
_cell_angle_beta   90.00000000
_cell_angle_gamma   90.00000000
_symmetry_Int_Tables_number   1
_chemical_formula_structural   CeCoGe
_chemical_formula_sum   'Ce2 Co2 Ge2'
_cell_volume   118.61469383
_cell_formula_units_Z   2
loop_
 _symmetry_equiv_pos_site_id
 _symmetry_equiv_pos_as_xyz
  1  'x, y, z'
loop_
 _atom_site_type_symbol
 _atom_site_label
 _atom_site_symmetry_multiplicity
 _atom_site_fract_x
 _atom_site_fract_y
 _atom_site_fract_z
 _atom_site_occupancy
  Ce  Ce0  1  0.75000000  0.75000000  0.69181602  1
  Ce  Ce1  1  0.25000000  0.25000000  0.30818398  1
  Co  Co0  1  0.75000000  0.25000000  -0.00000000  1
  Co  Co1  1  0.25000000  0.75000000  -0.00000000  1
  Ge  Ge0  1  0.25000000  0.25000000  0.81227757  1
  Ge  Ge1  1  0.75000000  0.75000000  0.18772243  1
loop_
_geom_bond_atom_site_label_1
_geom_bond_atom_site_label_2
_geom_bond_distance
_geom_bond_site_symmetry_2
Ce0 Co1 2.931756 1_556
Ce0 Co1 2.931756 1_656
Ce0 Co0 2.931756 1_556
Ce0 Co0 2.931756 1_566
Ce0 Ge0 3.113195 1_565
Ce0 Ge0 3.113195 1_665
Ce0 Ge0 3.113195 1_655
Ce0 Ge0 3.113195 1_555
Ce0 Ge1 3.295541 1_555
Ce1 Co1 2.931756 1_555
Ce1 Co0 2.931756 1_455
Ce1 Co0 2.931756 1_555
Ce1 Co1 2.931756 1_545
Ce1 Ge1 3.113195 1_445
Ce1 Ge1 3.113195 1_545
Ce1 Ge1 3.113195 1_555
Ce1 Ge1 3.113195 1_455
Ce1 Ge0 3.295541 1_555
Co0 Ge0 2.458054 1_554
Co0 Ge1 2.458054 1_555
Co0 Ge0 2.458054 1_654
Co0 Ge1 2.458054 1_545
Co1 Ge1 2.458054 1_455
Co1 Ge0 2.458054 1_554
Co1 Ge1 2.458054 1_555
Co1 Ge0 2.458054 1_564
