# generated using pymatgen
data_Ca3Al2H6S(OF)8
_symmetry_space_group_name_H-M   'P 1'
_cell_length_a   8.28714160
_cell_length_b   8.28714160
_cell_length_c   10.10521302
_cell_angle_alpha   87.03676349
_cell_angle_beta   87.03676349
_cell_angle_gamma   63.34904010
_symmetry_Int_Tables_number   1
_chemical_formula_structural   Ca3Al2H6S(OF)8
_chemical_formula_sum   'Ca6 Al4 H12 S2 O16 F16'
_cell_volume   619.11466167
_cell_formula_units_Z   2
loop_
 _symmetry_equiv_pos_site_id
 _symmetry_equiv_pos_as_xyz
  1  'x, y, z'
loop_
 _atom_site_type_symbol
 _atom_site_label
 _atom_site_symmetry_multiplicity
 _atom_site_fract_x
 _atom_site_fract_y
 _atom_site_fract_z
 _atom_site_occupancy
  Ca  Ca0  1  0.02982700  0.97017300  0.75000000  1
  Ca  Ca1  1  0.97017300  0.02982700  0.25000000  1
  Ca  Ca2  1  0.97199800  0.53419200  0.69309600  1
  Ca  Ca3  1  0.46580800  0.02800200  0.80690400  1
  Ca  Ca4  1  0.02800200  0.46580800  0.30690400  1
  Ca  Ca5  1  0.53419200  0.97199800  0.19309600  1
  Al  Al0  1  0.30268100  0.10072800  0.48702200  1
  Al  Al1  1  0.89927200  0.69731900  0.01297800  1
  Al  Al2  1  0.10072800  0.30268100  0.98702200  1
  Al  Al3  1  0.69731900  0.89927200  0.51297800  1
  H  H0  1  0.76849100  0.49234100  0.92596100  1
  H  H1  1  0.50765900  0.23150900  0.57403900  1
  H  H2  1  0.23150900  0.50765900  0.07403900  1
  H  H3  1  0.49234100  0.76849100  0.42596100  1
  H  H4  1  0.31455100  0.57828600  0.63146200  1
  H  H5  1  0.42171400  0.68544900  0.86853800  1
  H  H6  1  0.68544900  0.42171400  0.36853800  1
  H  H7  1  0.57828600  0.31455100  0.13146200  1
  H  H8  1  0.17703200  0.69652300  0.52311300  1
  H  H9  1  0.30347700  0.82296800  0.97688700  1
  H  H10  1  0.82296800  0.30347700  0.47688700  1
  H  H11  1  0.69652300  0.17703200  0.02311300  1
  S  S0  1  0.34493100  0.65506900  0.25000000  1
  S  S1  1  0.65506900  0.34493100  0.75000000  1
  O  O0  1  0.88201000  0.50212100  0.93618800  1
  O  O1  1  0.49787900  0.11799000  0.56381200  1
  O  O2  1  0.11799000  0.49787900  0.06381200  1
  O  O3  1  0.50212100  0.88201000  0.43618800  1
  O  O4  1  0.18604800  0.66796100  0.61875900  1
  O  O5  1  0.33203900  0.81395200  0.88124100  1
  O  O6  1  0.81395200  0.33203900  0.38124100  1
  O  O7  1  0.66796100  0.18604800  0.11875900  1
  O  O8  1  0.59476200  0.47926000  0.85570800  1
  O  O9  1  0.31930400  0.83463600  0.18968000  1
  O  O10  1  0.40523800  0.52074000  0.14429200  1
  O  O11  1  0.47926000  0.59476200  0.35570800  1
  O  O12  1  0.83463600  0.31930400  0.68968000  1
  O  O13  1  0.68069600  0.16536400  0.81032000  1
  O  O14  1  0.16536400  0.68069600  0.31032000  1
  O  O15  1  0.52074000  0.40523800  0.64429200  1
  F  F0  1  0.02185500  0.25824000  0.15203000  1
  F  F1  1  0.67711200  0.79500800  0.67856100  1
  F  F2  1  0.79500800  0.67711200  0.17856100  1
  F  F3  1  0.32288800  0.20499200  0.32143900  1
  F  F4  1  0.13599800  0.33372800  0.52362200  1
  F  F5  1  0.66627200  0.86400200  0.97637800  1
  F  F6  1  0.86400200  0.66627200  0.47637800  1
  F  F7  1  0.33372800  0.13599800  0.02362200  1
  F  F8  1  0.04446100  0.13704300  0.92243200  1
  F  F9  1  0.86295700  0.95553900  0.57756800  1
  F  F10  1  0.95553900  0.86295700  0.07756800  1
  F  F11  1  0.13704300  0.04446100  0.42243200  1
  F  F12  1  0.97814500  0.74176000  0.84797000  1
  F  F13  1  0.25824000  0.02185500  0.65203000  1
  F  F14  1  0.74176000  0.97814500  0.34797000  1
  F  F15  1  0.20499200  0.32288800  0.82143900  1
loop_
_geom_bond_atom_site_label_1
_geom_bond_atom_site_label_2
_geom_bond_distance
_geom_bond_site_symmetry_2
Ca0 F12 2.288296 1_455
Ca0 F13 2.288296 1_565
Ca0 F9 2.320486 1_455
Ca0 F8 2.320486 1_565
Ca0 O4 2.639024 1_555
Ca0 O5 2.639024 1_555
Ca0 O13 2.660882 1_465
Ca0 O12 2.660882 1_465
Ca1 F14 2.288296 1_545
Ca1 F0 2.288296 1_655
Ca1 F10 2.320486 1_545
Ca1 F11 2.320486 1_655
Ca1 O6 2.639024 1_555
Ca1 O7 2.639024 1_555
Ca1 O14 2.660882 1_645
Ca1 O9 2.660882 1_645
Ca2 F15 2.338262 1_655
Ca2 F4 2.359630 1_655
Ca2 F12 2.403335 1_555
Ca2 F6 2.423029 1_555
Ca2 F1 2.435374 1_555
Ca2 O12 2.509439 1_555
Ca2 O4 2.545590 1_655
Ca2 O0 2.565550 1_555
Ca3 F1 2.338262 1_545
Ca3 F5 2.359630 1_545
Ca3 F13 2.403335 1_555
Ca3 F7 2.423029 1_556
Ca3 F15 2.435374 1_555
Ca3 O13 2.509439 1_555
Ca3 O5 2.545590 1_545
Ca3 O1 2.565550 1_555
Ca4 F2 2.338262 1_455
Ca4 F6 2.359630 1_455
Ca4 F0 2.403335 1_555
Ca4 F4 2.423029 1_555
Ca4 F3 2.435374 1_555
Ca4 O14 2.509439 1_555
Ca4 O6 2.545590 1_455
Ca4 O2 2.565550 1_555
Ca5 F3 2.338262 1_565
Ca5 F7 2.359630 1_565
Ca5 F14 2.403335 1_555
Ca5 F5 2.423029 1_554
Ca5 F2 2.435374 1_555
Ca5 O9 2.509439 1_555
Ca5 O7 2.545590 1_565
Ca5 O3 2.565550 1_555
Al0 F11 1.796094 1_555
Al0 F13 1.839296 1_555
Al0 F4 1.844311 1_555
Al0 F3 1.877699 1_555
Al0 O1 1.894255 1_555
Al0 O3 1.897861 1_545
Al1 F10 1.796094 1_555
Al1 F12 1.839296 1_554
Al1 F5 1.844311 1_554
Al1 F2 1.877699 1_555
Al1 O0 1.894255 1_554
Al1 O2 1.897861 1_655
Al2 F8 1.796094 1_555
Al2 F0 1.839296 1_556
Al2 F7 1.844311 1_556
Al2 F15 1.877699 1_555
Al2 O2 1.894255 1_556
Al2 O0 1.897861 1_455
Al3 F9 1.796094 1_555
Al3 F14 1.839296 1_555
Al3 F6 1.844311 1_555
Al3 F1 1.877699 1_555
Al3 O3 1.894255 1_555
Al3 O1 1.897861 1_565
H0 O0 0.990745 1_555
H0 O8 1.685873 1_555
H1 O1 0.990745 1_555
H1 O15 1.685873 1_555
H2 O2 0.990745 1_555
H2 O10 1.685873 1_555
H3 O3 0.990745 1_555
H3 O11 1.685873 1_555
H4 O4 0.998555 1_555
H4 O15 1.672864 1_555
H5 O5 0.998555 1_555
H5 O8 1.672864 1_555
H6 O6 0.998555 1_555
H6 O11 1.672864 1_555
H7 O7 0.998555 1_555
H7 O10 1.672864 1_555
H8 O4 0.981694 1_555
H9 O5 0.981694 1_555
H10 O6 0.981694 1_555
H11 O7 0.981694 1_555
O8 S1 1.482799 1_555
O9 S0 1.505712 1_555
O10 S0 1.482799 1_555
O11 S0 1.482799 1_555
O12 S1 1.505712 1_555
O13 S1 1.505712 1_555
O14 S0 1.505712 1_555
O15 S1 1.482799 1_555
