# generated using pymatgen
data_MgNbTlBr4O
_symmetry_space_group_name_H-M   'P 1'
_cell_length_a   3.96821291
_cell_length_b   7.76264087
_cell_length_c   7.75539033
_cell_angle_alpha   107.20742262
_cell_angle_beta   90.02324477
_cell_angle_gamma   104.64982348
_symmetry_Int_Tables_number   1
_chemical_formula_structural   MgNbTlBr4O
_chemical_formula_sum   'Mg1 Nb1 Tl1 Br4 O1'
_cell_volume   220.05107982
_cell_formula_units_Z   1
loop_
 _symmetry_equiv_pos_site_id
 _symmetry_equiv_pos_as_xyz
  1  'x, y, z'
loop_
 _atom_site_type_symbol
 _atom_site_label
 _atom_site_symmetry_multiplicity
 _atom_site_fract_x
 _atom_site_fract_y
 _atom_site_fract_z
 _atom_site_occupancy
  Mg  Mg0  1  0.81355700  0.63342900  0.88797600  1
  Nb  Nb0  1  0.49111500  0.98741400  0.49097300  1
  Tl  Tl0  1  0.04489800  0.08632400  0.05252000  1
  Br  Br0  1  0.63495400  0.27133400  0.81564300  1
  Br  Br1  1  0.35286500  0.70648400  0.68221100  1
  Br  Br2  1  0.34309900  0.69508800  0.14800700  1
  Br  Br3  1  0.63447900  0.27124700  0.35021500  1
  O  O0  1  0.98433500  0.97368000  0.48912200  1
loop_
_geom_bond_atom_site_label_1
_geom_bond_atom_site_label_2
_geom_bond_distance
_geom_bond_site_symmetry_2
Mg0 Tl0 3.247030 1_666
Nb0 O0 1.986545 1_455
Nb0 O0 1.986674 1_555
Br0 Mg0 2.603221 1_555
Br0 Nb0 2.757246 1_545
Br0 Tl0 3.283815 1_556
Br0 Tl0 3.289991 1_656
Br1 Mg0 2.695858 1_555
Br1 Mg0 2.715224 1_455
Br1 Nb0 2.926685 1_555
Br2 Mg0 2.761932 1_454
Br2 Mg0 2.768593 1_554
Br2 Nb0 2.884873 1_555
Br3 Nb0 2.675697 1_545
Br3 Tl0 3.033238 1_555
Br3 Tl0 3.044352 1_655
