# generated using pymatgen
data_MgZn2MoWO6
_symmetry_space_group_name_H-M   'P 1'
_cell_length_a   6.06820044
_cell_length_b   6.06852987
_cell_length_c   8.09642033
_cell_angle_alpha   80.49768104
_cell_angle_beta   138.55507332
_cell_angle_gamma   127.59584409
_symmetry_Int_Tables_number   1
_chemical_formula_structural   MgZn2MoWO6
_chemical_formula_sum   'Mg1 Zn2 Mo1 W1 O6'
_cell_volume   129.83965944
_cell_formula_units_Z   1
loop_
 _symmetry_equiv_pos_site_id
 _symmetry_equiv_pos_as_xyz
  1  'x, y, z'
loop_
 _atom_site_type_symbol
 _atom_site_label
 _atom_site_symmetry_multiplicity
 _atom_site_fract_x
 _atom_site_fract_y
 _atom_site_fract_z
 _atom_site_occupancy
  Mg  Mg0  1  0.05478600  0.33889600  0.69421100  1
  Zn  Zn0  1  0.05506600  0.50736700  0.27846100  1
  Zn  Zn1  1  0.05505800  0.66538000  0.85741500  1
  Mo  Mo0  1  0.05488400  0.97501600  0.51216400  1
  W  W0  1  0.05490400  0.02607800  0.03773700  1
  O  O0  1  0.42426400  0.18085900  0.46139300  1
  O  O1  1  0.78085700  0.87043800  0.63747100  1
  O  O2  1  0.37857300  0.50410700  0.09200700  1
  O  O3  1  0.36167000  0.81093500  0.76831900  1
  O  O4  1  0.69996600  0.14460200  0.28238100  1
  O  O5  1  0.68437500  0.49952200  0.91162400  1
loop_
_geom_bond_atom_site_label_1
_geom_bond_atom_site_label_2
_geom_bond_distance
_geom_bond_site_symmetry_2
Mg0 O2 2.101015 1_556
Mg0 O3 2.101685 1_555
Mg0 O0 2.102216 1_455
Mg0 O1 2.139236 1_445
Mg0 O4 2.140426 1_455
Mg0 O5 2.141295 1_555
Mo0 O0 2.132820 1_565
Mo0 O3 2.133108 1_555
Mo0 O2 2.133291 1_455
Mo0 O4 2.285637 1_465
Mo0 O5 2.285805 1_565
Mo0 O1 2.286054 1_455
O0 Zn1 2.134981 1_655
O0 W0 2.154216 1_555
O1 Zn0 1.944902 1_555
O1 Zn1 2.200206 1_655
O1 W0 2.274754 1_666
O2 Zn1 2.135392 1_554
O2 W0 2.154297 1_555
O3 Zn1 2.135132 1_555
O3 W0 2.154307 1_666
O4 Zn0 1.944714 1_655
O4 Zn1 2.200329 1_544
O4 W0 2.274702 1_555
O5 Zn0 1.945129 1_656
O5 Zn1 2.199342 1_655
O5 W0 2.275434 1_666
