# generated using pymatgen
data_Na5TaAl3SiP5O24
_symmetry_space_group_name_H-M   'P 1'
_cell_length_a   8.62901820
_cell_length_b   8.64355722
_cell_length_c   21.80210514
_cell_angle_alpha   90.02154226
_cell_angle_beta   90.11942663
_cell_angle_gamma   119.87472602
_symmetry_Int_Tables_number   1
_chemical_formula_structural   Na5TaAl3SiP5O24
_chemical_formula_sum   'Na15 Ta3 Al9 Si3 P15 O72'
_cell_volume   1410.02977079
_cell_formula_units_Z   3
loop_
 _symmetry_equiv_pos_site_id
 _symmetry_equiv_pos_as_xyz
  1  'x, y, z'
loop_
 _atom_site_type_symbol
 _atom_site_label
 _atom_site_symmetry_multiplicity
 _atom_site_fract_x
 _atom_site_fract_y
 _atom_site_fract_z
 _atom_site_occupancy
  Na  Na0  1  0.63499465  0.99939106  0.25111770  1
  Na  Na1  1  0.36517600  0.36554819  0.25051102  1
  Na  Na2  1  0.00045950  0.63467982  0.25078368  1
  Na  Na3  1  0.30432575  0.33639716  0.58628499  1
  Na  Na4  1  0.03027040  0.70035784  0.58492079  1
  Na  Na5  1  0.66731758  0.96545499  0.58498148  1
  Na  Na6  1  0.29984612  0.96545158  0.08199716  1
  Na  Na7  1  0.97320640  0.66999596  0.91368238  1
  Na  Na8  1  0.70070608  0.02801061  0.91223183  1
  Na  Na9  1  0.99764767  0.99774940  0.49685436  1
  Na  Na10  1  0.00421411  0.01078329  0.99882694  1
  Na  Na11  1  0.65899942  0.33089054  0.82588178  1
  Na  Na12  1  0.66706573  0.33263482  0.33340564  1
  Na  Na13  1  0.33393133  0.65907210  0.16341360  1
  Na  Na14  1  0.33656692  0.66614461  0.66650581  1
  Ta  Ta0  1  0.66458039  0.33122100  0.97986439  1
  Ta  Ta1  1  0.66874476  0.33935558  0.47703066  1
  Ta  Ta2  1  0.32986088  0.66671476  0.80857228  1
  Al  Al0  1  0.99879753  0.99939633  0.35434028  1
  Al  Al1  1  0.01048212  0.00990045  0.85133209  1
  Al  Al2  1  0.99679830  0.99714930  0.64994957  1
  Al  Al3  1  0.99568033  0.00058016  0.14751536  1
  Al  Al4  1  0.66404768  0.33603815  0.68875913  1
  Al  Al5  1  0.66728165  0.33503753  0.18365208  1
  Al  Al6  1  0.32899770  0.66036594  0.01937961  1
  Al  Al7  1  0.33793500  0.66676101  0.51670306  1
  Al  Al8  1  0.33392589  0.66691009  0.31665599  1
  Si  Si0  1  0.66582435  0.62820700  0.58772251  1
  Si  Si1  1  0.05552949  0.37238874  0.91865676  1
  Si  Si2  1  0.32294151  0.95117323  0.91858828  1
  P  P0  1  0.28682279  -0.00001249  0.24997507  1
  P  P1  1  0.71378963  0.71385639  0.25014579  1
  P  P2  1  -0.00000033  0.28608527  0.25012151  1
  P  P3  1  0.28876184  0.27805410  0.74793212  1
  P  P4  1  0.98849235  0.71135061  0.74899924  1
  P  P5  1  0.72028999  0.01033127  0.74875351  1
  P  P6  1  0.95779092  0.33485626  0.58617257  1
  P  P7  1  0.37737018  0.04274550  0.58591029  1
  P  P8  1  0.96063494  0.62811611  0.08725363  1
  P  P9  1  0.66967070  0.03713741  0.08691196  1
  P  P10  1  0.37124121  0.33835406  0.08728577  1
  P  P11  1  0.61811392  0.66976252  0.91819761  1
  P  P12  1  0.62300490  0.94758730  0.41494331  1
  P  P13  1  0.32187713  0.37626312  0.41480133  1
  P  P14  1  0.05567516  0.67666481  0.41522984  1
  O  O0  1  0.20160555  0.03773110  0.30561185  1
  O  O1  1  0.83540870  0.79649187  0.30646976  1
  O  O2  1  0.96106619  0.16492626  0.30639881  1
  O  O3  1  0.20057955  0.16923744  0.80533508  1
  O  O4  1  0.96824918  0.79732848  0.80783786  1
  O  O5  1  0.82639614  0.02877064  0.80771308  1
  O  O6  1  0.80012299  0.97424266  0.69079705  1
  O  O7  1  0.17300672  0.20039961  0.68944233  1
  O  O8  1  0.02825588  0.82798902  0.69116026  1
  O  O9  1  0.79597935  0.83429764  0.19373559  1
  O  O10  1  0.03847923  0.20369799  0.19369106  1
  O  O11  1  0.17007637  0.96309718  0.19183628  1
  O  O12  1  0.86994543  0.37057364  0.64016942  1
  O  O13  1  0.50302356  0.12614817  0.63993413  1
  O  O14  1  0.62350771  0.48798280  0.64154128  1
  O  O15  1  0.86810293  0.50686039  0.14282747  1
  O  O16  1  0.63253763  0.12853380  0.14184032  1
  O  O17  1  0.49079184  0.36292898  0.14374997  1
  O  O18  1  0.46090862  0.29967494  0.03041789  1
  O  O19  1  0.84320607  0.54220888  0.02841797  1
  O  O20  1  0.69847843  0.15669489  0.02828148  1
  O  O21  1  0.46233797  0.16335420  0.52746207  1
  O  O22  1  0.70573981  0.53602332  0.52605878  1
  O  O23  1  0.83569034  0.29445205  0.52747584  1
  O  O24  1  0.53642081  0.70502604  0.97437063  1
  O  O25  1  0.17074489  0.46700651  0.97785205  1
  O  O26  1  0.29758328  0.83446200  0.97945925  1
  O  O27  1  0.53692070  0.83981273  0.47376547  1
  O  O28  1  0.30063315  0.46191392  0.47379806  1
  O  O29  1  0.16224171  0.69651910  0.47437872  1
  O  O30  1  0.13415074  0.63948512  0.35761469  1
  O  O31  1  0.50617687  0.86721972  0.35739256  1
  O  O32  1  0.36117346  0.49343848  0.35752427  1
  O  O33  1  0.13185329  0.50493740  0.85858635  1
  O  O34  1  0.37738852  0.86906864  0.85956632  1
  O  O35  1  0.50262108  0.62974282  0.85990846  1
  O  O36  1  0.02820608  0.83784321  0.40861881  1
  O  O37  1  0.81069377  0.97151945  0.40827724  1
  O  O38  1  0.16064135  0.18832297  0.40805825  1
  O  O39  1  0.00974646  0.17052957  0.90867988  1
  O  O40  1  0.14807893  0.96727975  0.90841011  1
  O  O41  1  0.80628344  0.83002480  0.90977808  1
  O  O42  1  0.98043088  0.16854431  0.59093060  1
  O  O43  1  0.19105563  0.02693130  0.59093382  1
  O  O44  1  0.84495185  0.82462652  0.59152652  1
  O  O45  1  0.97960112  0.81523313  0.09259802  1
  O  O46  1  0.83983559  0.02584868  0.09257292  1
  O  O47  1  0.18978189  0.16312218  0.09255292  1
  O  O48  1  0.69471568  0.17221214  0.74195788  1
  O  O49  1  0.47566403  0.30153392  0.74267483  1
  O  O50  1  0.82984763  0.52289683  0.74297188  1
  O  O51  1  0.69062944  0.52268937  0.24255442  1
  O  O52  1  0.83162411  0.30929672  0.24202439  1
  O  O53  1  0.47808360  0.16759180  0.24266521  1
  O  O54  1  0.64284897  0.50300671  0.92460274  1
  O  O55  1  0.85428707  0.35965125  0.92461016  1
  O  O56  1  0.50571465  0.14815197  0.92369477  1
  O  O57  1  0.64095893  0.13766791  0.42173973  1
  O  O58  1  0.49513420  0.35736063  0.42148011  1
  O  O59  1  0.86490465  0.50204031  0.42114497  1
  O  O60  1  0.36093521  0.50650781  0.07822860  1
  O  O61  1  0.14669070  0.64762485  0.08047944  1
  O  O62  1  0.49880966  0.85698872  0.07810095  1
  O  O63  1  0.35316278  0.85451662  0.57535120  1
  O  O64  1  0.48895997  0.64666938  0.57506093  1
  O  O65  1  0.14261935  0.50313769  0.57551000  1
  O  O66  1  0.31003633  0.83242909  0.25726430  1
  O  O67  1  0.52221784  0.68961630  0.25733825  1
  O  O68  1  0.16689947  0.47710029  0.25750570  1
  O  O69  1  0.30850664  0.46983613  0.75403705  1
  O  O70  1  0.16389949  0.69497240  0.75370007  1
  O  O71  1  0.53048136  0.83614937  0.75385404  1
loop_
_geom_bond_atom_site_label_1
_geom_bond_atom_site_label_2
_geom_bond_distance
_geom_bond_site_symmetry_2
Na0 O67 2.353668 1_555
Na0 O52 2.359570 1_565
Na0 O66 2.435941 1_555
Na0 O53 2.437444 1_565
Na0 O31 2.580106 1_555
Na0 O16 2.635912 1_565
Na0 O2 2.718565 1_565
Na0 O9 2.740773 1_555
Na1 O68 2.350459 1_555
Na1 O53 2.359527 1_555
Na1 O67 2.433532 1_555
Na1 O51 2.442122 1_555
Na1 O17 2.574521 1_555
Na1 O32 2.589018 1_555
Na1 O0 2.736701 1_555
Na1 O10 2.737551 1_555
Na2 O66 2.350986 1_555
Na2 O51 2.353014 1_455
Na2 O68 2.426399 1_555
Na2 O52 2.446524 1_455
Na2 O30 2.588139 1_555
Na2 O15 2.606646 1_455
Na2 O1 2.729271 1_455
Na2 O11 2.779138 1_555
Na3 O43 2.348762 1_555
Na3 O64 2.352892 1_555
Na3 O42 2.426591 1_455
Na3 O65 2.466110 1_555
Na3 O7 2.531737 1_555
Na3 O14 2.672782 1_555
Na3 O28 2.688621 1_555
Na3 O21 2.788989 1_555
Na4 O44 2.333161 1_455
Na4 O65 2.352621 1_555
Na4 O63 2.426165 1_555
Na4 O43 2.451026 1_565
Na4 O8 2.568981 1_555
Na4 O29 2.674938 1_555
Na4 O22 2.743652 1_455
Na4 O12 2.751577 1_455
Na5 O42 2.381556 1_565
Na5 O44 2.389469 1_555
Na5 O63 2.391685 1_555
Na5 O64 2.404451 1_555
Na5 O6 2.558013 1_555
Na5 O27 2.663485 1_555
Na5 O13 2.709607 1_565
Na5 O23 2.768350 1_565
Na6 O62 2.331899 1_555
Na6 O47 2.343373 1_565
Na6 O61 2.382739 1_555
Na6 O45 2.409174 1_455
Na6 O26 2.501167 1_554
Na6 O11 2.641505 1_555
Na6 O18 2.747900 1_565
Na6 O16 2.807559 1_565
Na7 O40 2.243034 1_655
Na7 O55 2.358973 1_555
Na7 O41 2.445328 1_555
Na7 O54 2.484027 1_555
Na7 O4 2.566463 1_555
Na7 O33 2.702534 1_655
Na7 O19 2.741386 1_556
Na7 O26 2.816007 1_655
Na8 O41 2.305355 1_545
Na8 O39 2.315859 1_655
Na8 O56 2.390427 1_555
Na8 O55 2.501935 1_555
Na8 O5 2.524318 1_555
Na8 O34 2.675173 1_545
Na8 O20 2.767397 1_556
Na8 O24 2.776153 1_545
Na9 O37 2.450640 1_555
Na9 O36 2.458412 1_655
Na9 O38 2.478943 1_665
Na9 O44 2.507007 1_555
Na9 O43 2.573330 1_665
Na9 O42 2.574061 1_565
Na10 O39 2.389219 1_555
Na10 O40 2.458274 1_545
Na10 O47 2.521374 1_556
Na10 O46 2.530245 1_456
Na10 O41 2.540260 1_445
Na10 O45 2.593922 1_446
Na11 O49 2.333628 1_555
Na11 O48 2.396989 1_555
Na11 O50 2.402321 1_555
Na11 O56 2.593272 1_555
Na11 O54 2.659050 1_555
Na11 O55 2.664928 1_555
Na12 O59 2.492323 1_555
Na12 O57 2.495135 1_555
Na12 O58 2.502276 1_555
Na12 O53 2.505007 1_555
Na12 O52 2.514588 1_555
Na12 O51 2.516882 1_555
Na13 O60 2.355542 1_555
Na13 O61 2.391251 1_555
Na13 O62 2.449293 1_555
Na13 O67 2.541879 1_555
Na13 O68 2.552636 1_555
Na13 O66 2.604174 1_555
Na14 O64 2.442042 1_555
Na14 O71 2.474053 1_555
Na14 O69 2.484893 1_555
Na14 O70 2.505437 1_555
Na14 O65 2.521285 1_555
Na14 O63 2.528340 1_555
Al0 O1 1.918878 1_555
Al0 O37 1.921993 1_555
Al0 O38 1.925743 1_665
Al0 O2 1.925973 1_565
Al0 O0 1.931685 1_665
Al0 O36 1.941062 1_655
Al1 O3 1.830442 1_555
Al1 O39 1.870422 1_555
Al1 O40 1.877224 1_545
Al1 O5 1.925144 1_455
Al1 O4 1.933434 1_445
Al1 O41 2.104149 1_445
Al2 O6 1.839616 1_555
Al2 O8 1.847752 1_655
Al2 O7 1.863320 1_665
Al2 O44 1.899498 1_555
Al2 O42 2.019775 1_565
Al2 O43 2.027551 1_665
Al3 O46 1.891325 1_555
Al3 O10 1.892994 1_655
Al3 O9 1.895173 1_545
Al3 O11 1.945042 1_645
Al3 O45 1.948288 1_545
Al3 O47 1.969896 1_655
Al4 O14 1.834179 1_555
Al4 O49 1.907463 1_555
Al4 O50 1.934435 1_555
Al4 O48 1.947744 1_555
Al4 O13 1.958633 1_555
Al4 O12 1.961562 1_555
Al5 O15 1.855904 1_555
Al5 O17 1.869400 1_555
Al5 O16 1.889806 1_555
Al5 O52 1.996791 1_555
Al5 O51 1.998094 1_555
Al5 O53 2.017845 1_555
Al6 O25 1.788255 1_554
Al6 O26 1.871313 1_554
Al6 O24 1.906524 1_554
Al6 O60 1.963575 1_555
Al6 O61 2.024260 1_555
Al6 O62 2.045531 1_555
Al7 O27 1.873798 1_555
Al7 O28 1.882393 1_555
Al7 O64 1.888387 1_555
Al7 O29 1.897079 1_555
Al7 O63 2.017733 1_555
Al7 O65 2.029860 1_555
Al8 O30 1.850623 1_555
Al8 O31 1.850781 1_555
Al8 O32 1.857084 1_555
Al8 O67 2.010519 1_555
Al8 O66 2.014964 1_555
Al8 O68 2.016689 1_555
O0 P0 1.536533 1_555
O1 P1 1.538403 1_555
O2 P2 1.538576 1_655
O3 P3 1.523746 1_555
O4 P4 1.535552 1_555
O5 P5 1.538063 1_555
O6 P5 1.544629 1_565
O7 P3 1.549359 1_555
O8 P4 1.543514 1_455
O9 P1 1.538956 1_555
O10 P2 1.538704 1_555
O11 P0 1.548414 1_565
O12 P6 1.514065 1_555
O13 P7 1.515906 1_555
O14 Si0 1.594084 1_555
O15 P8 1.541220 1_555
O16 P9 1.553689 1_555
O17 P10 1.549515 1_555
O18 P10 1.583995 1_555
O18 Ta0 1.977068 1_554
O19 P8 1.570944 1_555
O19 Ta0 2.003407 1_554
O20 P9 1.584326 1_555
O20 Ta0 1.978632 1_554
O21 P7 1.578487 1_555
O21 Ta1 2.001411 1_555
O22 Si0 1.683879 1_555
O22 Ta1 1.894937 1_555
O23 P6 1.580253 1_555
O23 Ta1 1.996549 1_555
O24 P11 1.518903 1_555
O25 Si1 1.583266 1_555
O26 Si2 1.615272 1_555
O27 P12 1.542648 1_555
O28 P13 1.540000 1_555
O29 P14 1.541337 1_555
O30 P14 1.536142 1_555
O31 P12 1.539355 1_555
O32 P13 1.536475 1_555
O33 Si1 1.647607 1_555
O33 Ta2 1.921573 1_555
O34 Si2 1.647492 1_555
O34 Ta2 1.935325 1_555
O35 P11 1.542339 1_555
O35 Ta2 2.011233 1_555
O36 P14 1.531932 1_555
O37 P12 1.534331 1_555
O38 P13 1.530898 1_555
O39 Si1 1.600100 1_555
O40 Si2 1.597897 1_555
O41 P11 1.532893 1_555
O42 P6 1.547647 1_555
O43 P7 1.548301 1_555
O44 Si0 1.632033 1_555
O45 P8 1.546703 1_555
O46 P9 1.524076 1_555
O47 P10 1.548322 1_555
O48 P5 1.528437 1_555
O49 P3 1.526469 1_555
O50 P4 1.523904 1_555
O51 P1 1.571089 1_555
O52 P2 1.572174 1_655
O53 P0 1.570774 1_555
O54 P11 1.564957 1_555
O54 Ta0 1.992308 1_555
O55 Si1 1.689667 1_655
O55 Ta0 1.949102 1_555
O56 Si2 1.650057 1_545
O56 Ta0 1.927014 1_555
O57 P12 1.578437 1_545
O57 Ta1 2.032370 1_555
O58 P13 1.589179 1_555
O58 Ta1 1.990009 1_555
O59 P14 1.590744 1_655
O59 Ta1 1.991414 1_555
O60 P10 1.512718 1_555
O61 P8 1.535942 1_455
O62 P9 1.531931 1_565
O63 P7 1.550680 1_565
O64 Si0 1.634550 1_555
O65 P6 1.550539 1_455
O66 P0 1.565888 1_565
O67 P1 1.567550 1_555
O68 P2 1.567175 1_555
O69 P3 1.585251 1_555
O69 Ta2 2.007164 1_555
O70 P4 1.591958 1_455
O70 Ta2 1.970599 1_555
O71 P5 1.583031 1_565
O71 Ta2 2.012243 1_555
