# generated using pymatgen
data_Sc2Ti2SiS5O24
_symmetry_space_group_name_H-M   'P 1'
_cell_length_a   8.76891306
_cell_length_b   8.78338928
_cell_length_c   22.67103635
_cell_angle_alpha   90.15005703
_cell_angle_beta   90.06336227
_cell_angle_gamma   119.96780435
_symmetry_Int_Tables_number   1
_chemical_formula_structural   Sc2Ti2SiS5O24
_chemical_formula_sum   'Sc6 Ti6 Si3 S15 O72'
_cell_volume   1512.68161735
_cell_formula_units_Z   3
loop_
 _symmetry_equiv_pos_site_id
 _symmetry_equiv_pos_as_xyz
  1  'x, y, z'
loop_
 _atom_site_type_symbol
 _atom_site_label
 _atom_site_symmetry_multiplicity
 _atom_site_fract_x
 _atom_site_fract_y
 _atom_site_fract_z
 _atom_site_occupancy
  Sc  Sc0  1  0.99503032  0.00180423  0.35987079  1
  Sc  Sc1  1  0.00124400  0.00035935  0.85735632  1
  Sc  Sc2  1  0.67814786  0.33728060  0.68671010  1
  Sc  Sc3  1  0.65908062  0.33706221  0.18662802  1
  Sc  Sc4  1  0.65429327  0.32904190  0.98015587  1
  Sc  Sc5  1  0.33189807  0.66621803  0.80869941  1
  Ti  Ti0  1  0.00039614  0.00882643  0.64133226  1
  Ti  Ti1  1  0.00812704  0.01086287  0.14419883  1
  Ti  Ti2  1  0.67897422  0.32297737  0.47645418  1
  Ti  Ti3  1  0.33212469  0.65846838  0.02329741  1
  Ti  Ti4  1  0.34000555  0.66743024  0.52317417  1
  Ti  Ti5  1  0.34324368  0.67804710  0.31301450  1
  Si  Si0  1  0.95983842  0.33843797  0.58277061  1
  Si  Si1  1  0.37658870  0.33374366  0.08334778  1
  Si  Si2  1  0.61536843  0.95090446  0.41856160  1
  S  S0  1  0.28378368  0.99303706  0.25051070  1
  S  S1  1  0.71085136  0.71497715  0.25075082  1
  S  S2  1  0.00465078  0.29071380  0.25012753  1
  S  S3  1  0.28412723  0.28284610  0.74869346  1
  S  S4  1  0.99949290  0.71773964  0.74900387  1
  S  S5  1  0.71625344  0.99919995  0.74904902  1
  S  S6  1  0.37577960  0.04376793  0.58241257  1
  S  S7  1  0.66885711  0.62356608  0.58279083  1
  S  S8  1  0.96194916  0.62986429  0.08357740  1
  S  S9  1  0.66671545  0.03768837  0.08334347  1
  S  S10  1  0.61765665  0.66752922  0.91724138  1
  S  S11  1  0.04791145  0.38307305  0.91746285  1
  S  S12  1  0.33414260  0.94975949  0.91716244  1
  S  S13  1  0.34202697  0.38952006  0.41749007  1
  S  S14  1  0.04977849  0.66216346  0.41725044  1
  O  O0  1  0.20583632  0.02308237  0.30307524  1
  O  O1  1  0.81906053  0.79666941  0.30345123  1
  O  O2  1  0.97549058  0.18026253  0.30219112  1
  O  O3  1  0.20306470  0.17664110  0.80198802  1
  O  O4  1  0.97602946  0.79971419  0.80294128  1
  O  O5  1  0.82408105  0.02727184  0.80243781  1
  O  O6  1  0.80333292  0.97411108  0.69620929  1
  O  O7  1  0.17025238  0.19505773  0.69572068  1
  O  O8  1  0.02468113  0.82708914  0.69637308  1
  O  O9  1  0.78860306  0.82399178  0.19768920  1
  O  O10  1  0.03102205  0.20186869  0.19684610  1
  O  O11  1  0.17125818  0.96566939  0.19734147  1
  O  O12  1  0.87448754  0.37170122  0.63994839  1
  O  O13  1  0.48394794  0.11903108  0.63555067  1
  O  O14  1  0.63156392  0.51491991  0.63586478  1
  O  O15  1  0.88935594  0.51650627  0.13571238  1
  O  O16  1  0.63301408  0.11497209  0.13575384  1
  O  O17  1  0.49527783  0.37299081  0.14128577  1
  O  O18  1  0.45432188  0.29217996  0.02555807  1
  O  O19  1  0.85104966  0.55249616  0.03103803  1
  O  O20  1  0.70724862  0.15019278  0.03107995  1
  O  O21  1  0.45398770  0.15822253  0.53033766  1
  O  O22  1  0.69904984  0.54390427  0.53031810  1
  O  O23  1  0.82752422  0.29983745  0.52513318  1
  O  O24  1  0.53034764  0.69248361  0.97006635  1
  O  O25  1  0.16175330  0.47130339  0.97037262  1
  O  O26  1  0.30909541  0.84061496  0.96986270  1
  O  O27  1  0.51243127  0.82689422  0.47408500  1
  O  O28  1  0.30722698  0.46777665  0.47025357  1
  O  O29  1  0.15770818  0.68758294  0.46992696  1
  O  O30  1  0.12653824  0.62741304  0.36333480  1
  O  O31  1  0.48801064  0.85412626  0.35924305  1
  O  O32  1  0.36477224  0.49855074  0.36383753  1
  O  O33  1  0.12944038  0.48967116  0.86434851  1
  O  O34  1  0.35729883  0.86712348  0.86346775  1
  O  O35  1  0.50941324  0.63936206  0.86402875  1
  O  O36  1  0.03403142  0.81917951  0.40891299  1
  O  O37  1  0.80607013  0.97498464  0.40924671  1
  O  O38  1  0.18743071  0.21405969  0.40884417  1
  O  O39  1  0.03531690  0.20956295  0.91150359  1
  O  O40  1  0.17623226  0.96873158  0.91089946  1
  O  O41  1  0.79125893  0.82842169  0.91148489  1
  O  O42  1  0.97896754  0.16156501  0.59579183  1
  O  O43  1  0.19649790  0.02134960  0.59227670  1
  O  O44  1  0.82653043  0.80141549  0.59295577  1
  O  O45  1  0.98079639  0.80574938  0.09528655  1
  O  O46  1  0.81956252  0.01029389  0.09489673  1
  O  O47  1  0.17761117  0.16424296  0.09867874  1
  O  O48  1  0.69325095  0.15257742  0.74182922  1
  O  O49  1  0.45784038  0.30202161  0.73995047  1
  O  O50  1  0.84097665  0.54328606  0.74316933  1
  O  O51  1  0.69116405  0.53933569  0.24356714  1
  O  O52  1  0.85074980  0.31043427  0.23942849  1
  O  O53  1  0.46242501  0.14204136  0.24157880  1
  O  O54  1  0.64061907  0.51413297  0.92479849  1
  O  O55  1  0.87442093  0.36404655  0.92667119  1
  O  O56  1  0.49339983  0.12376144  0.92327861  1
  O  O57  1  0.62410317  0.14175619  0.42786023  1
  O  O58  1  0.50206915  0.37814532  0.42649538  1
  O  O59  1  0.87031111  0.50604586  0.42523003  1
  O  O60  1  0.34561355  0.50166247  0.06856930  1
  O  O61  1  0.14204068  0.65736531  0.07219832  1
  O  O62  1  0.51001927  0.86143924  0.07212184  1
  O  O63  1  0.35135243  0.86562053  0.57262802  1
  O  O64  1  0.51408706  0.64873051  0.57357694  1
  O  O65  1  0.15265589  0.50038147  0.56648203  1
  O  O66  1  0.29419375  0.82787293  0.25778925  1
  O  O67  1  0.52999434  0.69329605  0.25941526  1
  O  O68  1  0.16516419  0.46434562  0.25784952  1
  O  O69  1  0.29717531  0.45658580  0.75496452  1
  O  O70  1  0.15764671  0.69901566  0.75560344  1
  O  O71  1  0.54250460  0.83834659  0.75505442  1
loop_
_geom_bond_atom_site_label_1
_geom_bond_atom_site_label_2
_geom_bond_distance
_geom_bond_site_symmetry_2
O0 S0 1.461959 1_545
O0 Sc0 2.184344 1_455
O1 S1 1.468168 1_555
O1 Sc0 2.114127 1_565
O2 S2 1.469211 1_655
O2 Sc0 2.115381 1_555
O3 S3 1.476712 1_555
O3 Sc1 2.093475 1_555
O4 S4 1.483232 1_555
O4 Sc1 2.067693 1_665
O5 S5 1.477443 1_545
O5 Sc1 2.093712 1_655
O6 S5 1.495132 1_555
O6 Ti0 2.026633 1_665
O7 S3 1.502410 1_555
O7 Ti0 1.991457 1_555
O8 S4 1.479741 1_455
O8 Ti0 2.121310 1_565
O9 S1 1.477990 1_555
O9 Ti1 2.174697 1_665
O10 S2 1.515761 1_555
O10 Ti1 1.982929 1_555
O11 S0 1.497764 1_555
O11 Ti1 2.054596 1_565
O12 Si0 1.595139 1_555
O12 Sc2 1.914471 1_555
O13 S6 1.467946 1_555
O13 Sc2 2.154682 1_555
O14 S7 1.469865 1_555
O14 Sc2 2.138970 1_555
O15 S8 1.472488 1_555
O15 Sc3 2.174673 1_555
O16 S9 1.468638 1_555
O16 Sc3 2.174842 1_555
O17 Si1 1.601106 1_555
O17 Sc3 1.915913 1_555
O18 Si1 1.600773 1_555
O18 Sc4 1.917742 1_554
O19 S8 1.469441 1_555
O19 Sc4 2.181822 1_554
O20 S9 1.470681 1_555
O20 Sc4 2.180208 1_554
O21 S6 1.481213 1_555
O21 Ti2 2.154318 1_555
O22 S7 1.468421 1_555
O22 Ti2 2.221155 1_555
O23 Si0 1.664312 1_555
O23 Ti2 1.794036 1_555
O24 S10 1.495570 1_555
O24 Ti3 2.013626 1_556
O25 S11 1.501855 1_555
O25 Ti3 1.976424 1_556
O26 S12 1.480192 1_555
O26 Ti3 2.097680 1_556
O27 Si2 1.616529 1_555
O27 Ti4 1.839195 1_555
O28 S13 1.484094 1_555
O28 Ti4 2.020382 1_555
O29 S14 1.468592 1_555
O29 Ti4 2.079299 1_555
O30 S14 1.498471 1_555
O30 Ti5 2.067227 1_555
O31 Si2 1.679467 1_555
O31 Ti5 1.768891 1_555
O32 S13 1.500746 1_555
O32 Ti5 2.038438 1_555
O33 S11 1.475410 1_555
O33 Sc5 2.100718 1_555
O34 S12 1.480900 1_555
O34 Sc5 2.073761 1_555
O35 S10 1.476081 1_555
O35 Sc5 2.101477 1_555
O36 S14 1.465730 1_555
O36 Sc0 2.117243 1_465
O37 Si2 1.591669 1_555
O37 Sc0 1.915635 1_565
O38 S13 1.470347 1_555
O38 Sc0 2.097036 1_455
O39 S11 1.477764 1_555
O39 Sc1 2.100373 1_555
O40 S12 1.481735 1_555
O40 Sc1 2.080561 1_565
O41 S10 1.477745 1_555
O41 Sc1 2.100893 1_665
O42 Si0 1.670753 1_555
O42 Ti0 1.777559 1_655
O43 S6 1.500682 1_555
O43 Ti0 2.005463 1_555
O44 S7 1.498220 1_555
O44 Ti0 2.014246 1_665
O45 S8 1.492341 1_555
O45 Ti1 2.022476 1_665
O46 S9 1.498216 1_555
O46 Ti1 1.992750 1_655
O47 Si1 1.670509 1_555
O47 Ti1 1.760436 1_555
O48 S5 1.467960 1_545
O48 Sc2 2.106153 1_555
O49 S3 1.460328 1_555
O49 Sc2 2.166629 1_555
O50 S4 1.472500 1_555
O50 Sc2 2.086596 1_555
O51 S1 1.472713 1_555
O51 Sc3 2.095185 1_555
O52 S2 1.463945 1_655
O52 Sc3 2.168454 1_555
O53 S0 1.470264 1_545
O53 Sc3 2.127165 1_555
O54 S10 1.468803 1_555
O54 Sc4 2.106541 1_555
O55 S11 1.460420 1_655
O55 Sc4 2.169106 1_555
O56 S12 1.473590 1_545
O56 Sc4 2.084869 1_555
O57 Si2 1.652336 1_545
O57 Ti2 1.789787 1_555
O58 S13 1.469943 1_555
O58 Ti2 2.161941 1_555
O59 S14 1.495235 1_655
O59 Ti2 2.016951 1_555
O60 Si1 1.662515 1_555
O60 Ti3 1.770371 1_555
O61 S8 1.496306 1_455
O61 Ti3 1.998874 1_555
O62 S9 1.490424 1_565
O62 Ti3 2.011083 1_555
O63 S6 1.485507 1_565
O63 Ti4 2.028235 1_555
O64 S7 1.494550 1_555
O64 Ti4 1.977505 1_555
O65 Si0 1.618606 1_455
O65 Ti4 1.848993 1_555
O66 S0 1.507851 1_555
O66 Ti5 2.014261 1_555
O67 S1 1.512996 1_555
O67 Ti5 1.990577 1_555
O68 S2 1.480270 1_555
O68 Ti5 2.140318 1_555
O69 S3 1.478663 1_555
O69 Sc5 2.096292 1_555
O70 S4 1.483333 1_455
O70 Sc5 2.074667 1_555
O71 S5 1.478833 1_555
O71 Sc5 2.097787 1_555
