# generated using pymatgen
data_Ca3Sc2(GeO4)3
_symmetry_space_group_name_H-M   'P 1'
_cell_length_a   10.95559721
_cell_length_b   10.95559721
_cell_length_c   10.95559721
_cell_angle_alpha   109.47122063
_cell_angle_beta   109.47122063
_cell_angle_gamma   109.47122063
_symmetry_Int_Tables_number   1
_chemical_formula_structural   Ca3Sc2(GeO4)3
_chemical_formula_sum   'Ca12 Sc8 Ge12 O48'
_cell_volume   1012.24649072
_cell_formula_units_Z   4
loop_
 _symmetry_equiv_pos_site_id
 _symmetry_equiv_pos_as_xyz
  1  'x, y, z'
loop_
 _atom_site_type_symbol
 _atom_site_label
 _atom_site_symmetry_multiplicity
 _atom_site_fract_x
 _atom_site_fract_y
 _atom_site_fract_z
 _atom_site_occupancy
  Ca  Ca0  1  0.25000000  0.37500000  0.12500000  1
  Ca  Ca1  1  0.37500000  0.75000000  0.12500000  1
  Ca  Ca2  1  0.12500000  0.25000000  0.37500000  1
  Ca  Ca3  1  0.37500000  0.12500000  0.25000000  1
  Ca  Ca4  1  0.12500000  0.37500000  0.75000000  1
  Ca  Ca5  1  0.75000000  0.12500000  0.37500000  1
  Ca  Ca6  1  0.75000000  0.62500000  0.87500000  1
  Ca  Ca7  1  0.62500000  0.25000000  0.87500000  1
  Ca  Ca8  1  0.87500000  0.75000000  0.62500000  1
  Ca  Ca9  1  0.62500000  0.87500000  0.75000000  1
  Ca  Ca10  1  0.87500000  0.62500000  0.25000000  1
  Ca  Ca11  1  0.25000000  0.87500000  0.62500000  1
  Sc  Sc0  1  0.00000000  0.00000000  0.00000000  1
  Sc  Sc1  1  0.00000000  0.50000000  0.00000000  1
  Sc  Sc2  1  0.00000000  0.00000000  0.50000000  1
  Sc  Sc3  1  0.50000000  0.00000000  0.00000000  1
  Sc  Sc4  1  0.00000000  0.50000000  0.50000000  1
  Sc  Sc5  1  0.50000000  0.00000000  0.50000000  1
  Sc  Sc6  1  0.50000000  0.50000000  0.00000000  1
  Sc  Sc7  1  0.50000000  0.50000000  0.50000000  1
  Ge  Ge0  1  0.25000000  0.62500000  0.37500000  1
  Ge  Ge1  1  0.62500000  0.75000000  0.37500000  1
  Ge  Ge2  1  0.87500000  0.25000000  0.12500000  1
  Ge  Ge3  1  0.12500000  0.87500000  0.25000000  1
  Ge  Ge4  1  0.37500000  0.62500000  0.75000000  1
  Ge  Ge5  1  0.75000000  0.37500000  0.62500000  1
  Ge  Ge6  1  0.87500000  0.12500000  0.75000000  1
  Ge  Ge7  1  0.12500000  0.75000000  0.87500000  1
  Ge  Ge8  1  0.62500000  0.37500000  0.25000000  1
  Ge  Ge9  1  0.37500000  0.25000000  0.62500000  1
  Ge  Ge10  1  0.75000000  0.87500000  0.12500000  1
  Ge  Ge11  1  0.25000000  0.12500000  0.87500000  1
  O  O0  1  0.79260000  0.41330400  0.81047500  1
  O  O1  1  0.08669600  0.87929600  0.39717100  1
  O  O2  1  0.68952500  0.10282900  0.98212500  1
  O  O3  1  0.70740000  0.51787500  0.62070400  1
  O  O4  1  0.70740000  0.68952500  0.08669600  1
  O  O5  1  0.51787500  0.62070400  0.70740000  1
  O  O6  1  0.10282900  0.62070400  0.41330400  1
  O  O7  1  0.62070400  0.70740000  0.51787500  1
  O  O8  1  0.39717100  0.81047500  0.51787500  1
  O  O9  1  0.87929600  0.98212500  0.79260000  1
  O  O10  1  0.98212500  0.79260000  0.87929600  1
  O  O11  1  0.08669600  0.70740000  0.68952500  1
  O  O12  1  0.62070400  0.41330400  0.10282900  1
  O  O13  1  0.51787500  0.39717100  0.81047500  1
  O  O14  1  0.68952500  0.08669600  0.70740000  1
  O  O15  1  0.41330400  0.10282900  0.62070400  1
  O  O16  1  0.81047500  0.51787500  0.39717100  1
  O  O17  1  0.39717100  0.08669600  0.87929600  1
  O  O18  1  0.10282900  0.98212500  0.68952500  1
  O  O19  1  0.60282900  0.18952500  0.48212500  1
  O  O20  1  0.98212500  0.68952500  0.10282900  1
  O  O21  1  0.81047500  0.79260000  0.41330400  1
  O  O22  1  0.87929600  0.39717100  0.08669600  1
  O  O23  1  0.79260000  0.87929600  0.98212500  1
  O  O24  1  0.20740000  0.58669600  0.18952500  1
  O  O25  1  0.91330400  0.12070400  0.60282900  1
  O  O26  1  0.31047500  0.89717100  0.01787500  1
  O  O27  1  0.29260000  0.48212500  0.37929600  1
  O  O28  1  0.29260000  0.31047500  0.91330400  1
  O  O29  1  0.48212500  0.37929600  0.29260000  1
  O  O30  1  0.89717100  0.37929600  0.58669600  1
  O  O31  1  0.37929600  0.29260000  0.48212500  1
  O  O32  1  0.20740000  0.12070400  0.01787500  1
  O  O33  1  0.12070400  0.60282900  0.91330400  1
  O  O34  1  0.18952500  0.20740000  0.58669600  1
  O  O35  1  0.58669600  0.18952500  0.20740000  1
  O  O36  1  0.01787500  0.31047500  0.89717100  1
  O  O37  1  0.89717100  0.01787500  0.31047500  1
  O  O38  1  0.60282900  0.91330400  0.12070400  1
  O  O39  1  0.18952500  0.48212500  0.60282900  1
  O  O40  1  0.58669600  0.89717100  0.37929600  1
  O  O41  1  0.31047500  0.91330400  0.29260000  1
  O  O42  1  0.48212500  0.60282900  0.18952500  1
  O  O43  1  0.37929600  0.58669600  0.89717100  1
  O  O44  1  0.91330400  0.29260000  0.31047500  1
  O  O45  1  0.01787500  0.20740000  0.12070400  1
  O  O46  1  0.12070400  0.01787500  0.20740000  1
  O  O47  1  0.41330400  0.81047500  0.79260000  1
loop_
_geom_bond_atom_site_label_1
_geom_bond_atom_site_label_2
_geom_bond_distance
_geom_bond_site_symmetry_2
Ca0 O32 2.438246 1_555
Ca0 O24 2.438246 1_555
Ca0 O28 2.438246 1_554
Ca0 O27 2.438246 1_555
Ca0 O36 2.567196 1_554
Ca0 O29 2.567196 1_555
Ca0 O42 2.567196 1_555
Ca0 O45 2.567196 1_555
Ca1 O33 2.438246 1_554
Ca1 O40 2.438246 1_555
Ca1 O26 2.438246 1_555
Ca1 O42 2.438246 1_555
Ca1 O43 2.567196 1_554
Ca1 O38 2.567196 1_555
Ca1 O24 2.567196 1_555
Ca1 O41 2.567196 1_555
Ca2 O45 2.438246 1_555
Ca2 O34 2.438246 1_555
Ca2 O31 2.438246 1_555
Ca2 O44 2.438246 1_455
Ca2 O39 2.567196 1_555
Ca2 O27 2.567196 1_555
Ca2 O37 2.567196 1_455
Ca2 O46 2.567196 1_555
Ca3 O46 2.438246 1_555
Ca3 O41 2.438246 1_545
Ca3 O35 2.438246 1_555
Ca3 O29 2.438246 1_555
Ca3 O19 2.567196 1_555
Ca3 O26 2.567196 1_545
Ca3 O31 2.567196 1_555
Ca3 O32 2.567196 1_555
Ca4 O43 2.438246 1_555
Ca4 O25 2.438246 1_455
Ca4 O39 2.438246 1_555
Ca4 O36 2.438246 1_555
Ca4 O30 2.567196 1_455
Ca4 O33 2.567196 1_555
Ca4 O28 2.567196 1_555
Ca4 O34 2.567196 1_555
Ca5 O38 2.438246 1_545
Ca5 O30 2.438246 1_555
Ca5 O37 2.438246 1_555
Ca5 O19 2.438246 1_555
Ca5 O25 2.567196 1_555
Ca5 O35 2.567196 1_555
Ca5 O44 2.567196 1_555
Ca5 O40 2.567196 1_545
Ca6 O4 2.438246 1_556
Ca6 O23 2.438246 1_555
Ca6 O3 2.438246 1_555
Ca6 O0 2.438246 1_555
Ca6 O5 2.567196 1_555
Ca6 O20 2.567196 1_556
Ca6 O13 2.567196 1_555
Ca6 O10 2.567196 1_555
Ca7 O22 2.438246 1_556
Ca7 O15 2.438246 1_555
Ca7 O2 2.438246 1_555
Ca7 O13 2.438246 1_555
Ca7 O17 2.567196 1_555
Ca7 O12 2.567196 1_556
Ca7 O14 2.567196 1_555
Ca7 O0 2.567196 1_555
Ca8 O11 2.438246 1_655
Ca8 O7 2.438246 1_555
Ca8 O10 2.438246 1_555
Ca8 O21 2.438246 1_555
Ca8 O3 2.567196 1_555
Ca8 O9 2.567196 1_555
Ca8 O16 2.567196 1_555
Ca8 O18 2.567196 1_655
Ca9 O14 2.438246 1_565
Ca9 O9 2.438246 1_555
Ca9 O5 2.438246 1_555
Ca9 O47 2.438246 1_555
Ca9 O7 2.567196 1_555
Ca9 O8 2.567196 1_555
Ca9 O23 2.567196 1_555
Ca9 O2 2.567196 1_565
Ca10 O1 2.438246 1_655
Ca10 O12 2.438246 1_555
Ca10 O20 2.438246 1_555
Ca10 O16 2.438246 1_555
Ca10 O22 2.567196 1_555
Ca10 O4 2.567196 1_555
Ca10 O6 2.567196 1_655
Ca10 O21 2.567196 1_555
Ca11 O17 2.438246 1_565
Ca11 O6 2.438246 1_555
Ca11 O8 2.438246 1_555
Ca11 O18 2.438246 1_555
Ca11 O1 2.567196 1_555
Ca11 O11 2.567196 1_555
Ca11 O47 2.567196 1_555
Ca11 O15 2.567196 1_565
Ge0 O8 1.786512 1_555
Ge0 O27 1.786512 1_555
Ge0 O24 1.786512 1_555
Ge0 O6 1.786512 1_555
Ge1 O7 1.786512 1_555
Ge1 O21 1.786512 1_555
Ge1 O42 1.786512 1_555
Ge1 O40 1.786512 1_555
Ge2 O2 1.786512 1_554
Ge2 O44 1.786512 1_555
Ge2 O22 1.786512 1_555
Ge2 O45 1.786512 1_655
Ge3 O20 1.786512 1_455
Ge3 O41 1.786512 1_555
Ge3 O1 1.786512 1_555
Ge3 O46 1.786512 1_565
Ge4 O5 1.786512 1_555
Ge4 O47 1.786512 1_555
Ge4 O39 1.786512 1_555
Ge4 O43 1.786512 1_555
Ge5 O3 1.786512 1_555
Ge5 O0 1.786512 1_555
Ge5 O19 1.786512 1_555
Ge5 O30 1.786512 1_555
Ge6 O9 1.786512 1_545
Ge6 O14 1.786512 1_555
Ge6 O36 1.786512 1_655
Ge6 O25 1.786512 1_555
Ge7 O11 1.786512 1_555
Ge7 O10 1.786512 1_455
Ge7 O26 1.786512 1_556
Ge7 O33 1.786512 1_555
Ge8 O16 1.786512 1_555
Ge8 O29 1.786512 1_555
Ge8 O35 1.786512 1_555
Ge8 O12 1.786512 1_555
Ge9 O13 1.786512 1_555
Ge9 O31 1.786512 1_555
Ge9 O15 1.786512 1_555
Ge9 O34 1.786512 1_555
Ge10 O4 1.786512 1_555
Ge10 O23 1.786512 1_554
Ge10 O37 1.786512 1_565
Ge10 O38 1.786512 1_555
Ge11 O18 1.786512 1_545
Ge11 O17 1.786512 1_555
Ge11 O28 1.786512 1_555
Ge11 O32 1.786512 1_556
O0 Sc1 2.116004 1_656
O1 Sc2 2.116004 1_565
O2 Sc3 2.116004 1_556
O3 Sc7 2.116004 1_555
O4 Sc6 2.116004 1_555
O5 Sc7 2.116004 1_555
O6 Sc4 2.116004 1_555
O7 Sc7 2.116004 1_555
O8 Sc5 2.116004 1_565
O9 Sc0 2.116004 1_666
O10 Sc0 2.116004 1_666
O11 Sc4 2.116004 1_555
O12 Sc6 2.116004 1_555
O13 Sc6 2.116004 1_556
O14 Sc5 2.116004 1_555
O15 Sc5 2.116004 1_555
O16 Sc4 2.116004 1_655
O17 Sc3 2.116004 1_556
O18 Sc2 2.116004 1_565
O19 Sc5 2.116004 1_555
O20 Sc1 2.116004 1_655
O21 Sc2 2.116004 1_665
O22 Sc1 2.116004 1_655
O23 Sc0 2.116004 1_666
O24 Sc1 2.116004 1_555
O25 Sc2 2.116004 1_655
O26 Sc3 2.116004 1_565
O27 Sc7 2.116004 1_555
O28 Sc6 2.116004 1_556
O29 Sc7 2.116004 1_555
O30 Sc4 2.116004 1_655
O31 Sc7 2.116004 1_555
O32 Sc0 2.116004 1_555
O33 Sc1 2.116004 1_556
O34 Sc2 2.116004 1_555
O35 Sc3 2.116004 1_555
O36 Sc1 2.116004 1_556
O37 Sc2 2.116004 1_655
O38 Sc3 2.116004 1_565
O39 Sc4 2.116004 1_555
O40 Sc5 2.116004 1_565
O41 Sc5 2.116004 1_565
O42 Sc6 2.116004 1_555
O43 Sc6 2.116004 1_556
O44 Sc4 2.116004 1_655
O45 Sc0 2.116004 1_555
O46 Sc0 2.116004 1_555
O47 Sc3 2.116004 1_566
