# generated using pymatgen
data_Na3TlO2
_symmetry_space_group_name_H-M   'P 1'
_cell_length_a   5.33419939
_cell_length_b   6.67631940
_cell_length_c   11.40102755
_cell_angle_alpha   90.00000000
_cell_angle_beta   90.00000000
_cell_angle_gamma   90.00000000
_symmetry_Int_Tables_number   1
_chemical_formula_structural   Na3TlO2
_chemical_formula_sum   'Na12 Tl4 O8'
_cell_volume   406.02272908
_cell_formula_units_Z   4
loop_
 _symmetry_equiv_pos_site_id
 _symmetry_equiv_pos_as_xyz
  1  'x, y, z'
loop_
 _atom_site_type_symbol
 _atom_site_label
 _atom_site_symmetry_multiplicity
 _atom_site_fract_x
 _atom_site_fract_y
 _atom_site_fract_z
 _atom_site_occupancy
  Na  Na0  1  0.74749257  0.00166978  0.33403177  1
  Na  Na1  1  0.24749257  0.50166978  0.16596823  1
  Na  Na2  1  0.75250743  0.00166978  0.83403177  1
  Na  Na3  1  0.25250743  0.99833022  0.66596823  1
  Na  Na4  1  0.74707665  0.25000000  0.07693902  1
  Na  Na5  1  0.24707665  0.75000000  0.42306098  1
  Na  Na6  1  0.25292335  0.75000000  0.92306098  1
  Na  Na7  1  0.75292335  0.25000000  0.57693902  1
  Na  Na8  1  0.25250743  0.50166978  0.66596823  1
  Na  Na9  1  0.75250743  0.49833022  0.83403177  1
  Na  Na10  1  0.74749257  0.49833022  0.33403177  1
  Na  Na11  1  0.24749257  0.99833022  0.16596823  1
  Tl  Tl0  1  0.74164242  0.75000000  0.59095363  1
  Tl  Tl1  1  0.24164242  0.25000000  0.90904637  1
  Tl  Tl2  1  0.25835758  0.25000000  0.40904637  1
  Tl  Tl3  1  0.75835758  0.75000000  0.09095363  1
  O  O0  1  0.49061695  0.75000000  0.75756089  1
  O  O1  1  0.99061695  0.25000000  0.74243911  1
  O  O2  1  0.50938305  0.25000000  0.24243911  1
  O  O3  1  0.00938305  0.75000000  0.25756089  1
  O  O4  1  0.50000000  0.50000000  0.50000000  1
  O  O5  1  0.00000000  0.50000000  0.00000000  1
  O  O6  1  0.50000000  0.00000000  0.50000000  1
  O  O7  1  0.00000000  0.00000000  0.00000000  1
loop_
_geom_bond_atom_site_label_1
_geom_bond_atom_site_label_2
_geom_bond_distance
_geom_bond_site_symmetry_2
Na0 O6 2.307258 1_555
Na0 O2 2.335040 1_555
Na0 O3 2.352621 1_645
Na1 O5 2.307258 1_555
Na1 O3 2.335040 1_555
Na1 O2 2.352621 1_555
Na2 O7 2.307258 1_656
Na2 O1 2.335040 1_555
Na2 O0 2.352621 1_545
Na3 O6 2.307258 1_565
Na3 O0 2.335040 1_555
Na3 O1 2.352621 1_465
Na4 O2 2.273294 1_555
Na4 O7 2.318505 1_655
Na4 O5 2.318505 1_655
Na5 O3 2.273294 1_555
Na5 O6 2.318505 1_565
Na5 O4 2.318505 1_555
Na6 O0 2.273294 1_555
Na6 O7 2.318505 1_566
Na6 O5 2.318505 1_556
Na7 O1 2.273294 1_555
Na7 O6 2.318505 1_555
Na7 O4 2.318505 1_555
Na8 O4 2.307258 1_555
Na8 O0 2.335040 1_555
Na8 O1 2.352621 1_455
Na9 O5 2.307258 1_656
Na9 O1 2.335040 1_555
Na9 O0 2.352621 1_555
Na10 O4 2.307258 1_555
Na10 O2 2.335040 1_555
Na10 O3 2.352621 1_655
Na11 O7 2.307258 1_565
Na11 O3 2.335040 1_555
Na11 O2 2.352621 1_565
O0 Tl0 2.324016 1_555
O1 Tl1 2.324016 1_655
O2 Tl2 2.324016 1_555
O3 Tl3 2.324016 1_455
O4 Tl0 2.350014 1_555
O4 Tl2 2.350014 1_555
O5 Tl3 2.350014 1_455
O5 Tl1 2.350014 1_554
O6 Tl0 2.350014 1_545
O6 Tl2 2.350014 1_555
O7 Tl1 2.350014 1_554
O7 Tl3 2.350014 1_445
