# generated using pymatgen
data_BaCN2
_symmetry_space_group_name_H-M   'P 1'
_cell_length_a   9.12135690
_cell_length_b   9.12135690
_cell_length_c   9.12135649
_cell_angle_alpha   112.73643947
_cell_angle_beta   112.73643947
_cell_angle_gamma   112.73644079
_symmetry_Int_Tables_number   1
_chemical_formula_structural   BaCN2
_chemical_formula_sum   'Ba6 C6 N12'
_cell_volume   501.32898832
_cell_formula_units_Z   6
loop_
 _symmetry_equiv_pos_site_id
 _symmetry_equiv_pos_as_xyz
  1  'x, y, z'
loop_
 _atom_site_type_symbol
 _atom_site_label
 _atom_site_symmetry_multiplicity
 _atom_site_fract_x
 _atom_site_fract_y
 _atom_site_fract_z
 _atom_site_occupancy
  Ba  Ba0  1  0.25000000  0.46014200  0.03985800  1
  Ba  Ba1  1  0.03985800  0.25000000  0.46014200  1
  Ba  Ba2  1  0.46014200  0.03985800  0.25000000  1
  Ba  Ba3  1  0.75000000  0.53985800  0.96014200  1
  Ba  Ba4  1  0.96014200  0.75000000  0.53985800  1
  Ba  Ba5  1  0.53985800  0.96014200  0.75000000  1
  C  C0  1  0.75000000  0.96628100  0.53371900  1
  C  C1  1  0.25000000  0.03371900  0.46628100  1
  C  C2  1  0.46628100  0.25000000  0.03371900  1
  C  C3  1  0.03371900  0.46628100  0.25000000  1
  C  C4  1  0.53371900  0.75000000  0.96628100  1
  C  C5  1  0.96628100  0.53371900  0.75000000  1
  N  N0  1  0.84892400  0.41769000  0.55998800  1
  N  N1  1  0.41769000  0.55998800  0.84892400  1
  N  N2  1  0.94001200  0.08231000  0.65107600  1
  N  N3  1  0.55998800  0.84892400  0.41769000  1
  N  N4  1  0.08231000  0.65107600  0.94001200  1
  N  N5  1  0.65107600  0.94001200  0.08231000  1
  N  N6  1  0.15107600  0.58231000  0.44001200  1
  N  N7  1  0.58231000  0.44001200  0.15107600  1
  N  N8  1  0.44001200  0.15107600  0.58231000  1
  N  N9  1  0.91769000  0.34892400  0.05998800  1
  N  N10  1  0.34892400  0.05998800  0.91769000  1
  N  N11  1  0.05998800  0.91769000  0.34892400  1
loop_
_geom_bond_atom_site_label_1
_geom_bond_atom_site_label_2
_geom_bond_distance
_geom_bond_site_symmetry_2
Ba0 N2 2.778060 1_454
Ba0 N3 2.778060 1_555
Ba0 N1 2.900077 1_554
Ba0 N4 2.900077 1_554
Ba0 N9 2.906513 1_455
Ba0 N7 2.906513 1_555
Ba1 N1 2.778060 1_555
Ba1 N5 2.778060 1_445
Ba1 N2 2.900077 1_455
Ba1 N0 2.900077 1_455
Ba1 N6 2.906513 1_555
Ba1 N11 2.906513 1_545
Ba2 N4 2.778060 1_544
Ba2 N0 2.778060 1_555
Ba2 N5 2.900077 1_545
Ba2 N3 2.900077 1_545
Ba2 N8 2.906513 1_555
Ba2 N10 2.906513 1_554
Ba3 N11 2.778060 1_656
Ba3 N8 2.778060 1_555
Ba3 N7 2.900077 1_556
Ba3 N9 2.900077 1_556
Ba3 N4 2.906513 1_655
Ba3 N1 2.906513 1_555
Ba4 N7 2.778060 1_555
Ba4 N10 2.778060 1_665
Ba4 N11 2.900077 1_655
Ba4 N6 2.900077 1_655
Ba4 N0 2.906513 1_555
Ba4 N2 2.906513 1_565
Ba5 N9 2.778060 1_566
Ba5 N6 2.778060 1_555
Ba5 N8 2.900077 1_565
Ba5 N10 2.900077 1_565
Ba5 N3 2.906513 1_555
Ba5 N5 2.906513 1_556
C0 N2 1.241826 1_565
C0 N3 1.241826 1_555
C1 N11 1.241826 1_545
C1 N8 1.241826 1_555
C2 N7 1.241826 1_555
C2 N10 1.241826 1_554
C3 N9 1.241826 1_455
C3 N6 1.241826 1_555
C4 N1 1.241826 1_555
C4 N5 1.241826 1_556
C5 N0 1.241826 1_555
C5 N4 1.241826 1_655
