# generated using pymatgen
data_NaTa3InSiP5O24
_symmetry_space_group_name_H-M   'P 1'
_cell_length_a   8.81427898
_cell_length_b   8.81522032
_cell_length_c   22.86160386
_cell_angle_alpha   89.77727688
_cell_angle_beta   90.10188286
_cell_angle_gamma   120.05079342
_symmetry_Int_Tables_number   1
_chemical_formula_structural   NaTa3InSiP5O24
_chemical_formula_sum   'Na3 Ta9 In3 Si3 P15 O72'
_cell_volume   1537.55793530
_cell_formula_units_Z   3
loop_
 _symmetry_equiv_pos_site_id
 _symmetry_equiv_pos_as_xyz
  1  'x, y, z'
loop_
 _atom_site_type_symbol
 _atom_site_label
 _atom_site_symmetry_multiplicity
 _atom_site_fract_x
 _atom_site_fract_y
 _atom_site_fract_z
 _atom_site_occupancy
  Na  Na0  1  0.00147299  0.00046676  0.99310760  1
  Na  Na1  1  0.66105864  0.33119299  0.83919552  1
  Na  Na2  1  0.66775859  0.33428148  0.33824512  1
  Ta  Ta0  1  0.99464546  0.99773884  0.35865270  1
  Ta  Ta1  1  0.00302948  0.00408948  0.64769356  1
  Ta  Ta2  1  0.99733259  0.00110798  0.14756104  1
  Ta  Ta3  1  0.66504018  0.33331322  0.68519060  1
  Ta  Ta4  1  0.66801366  0.33484344  0.18774153  1
  Ta  Ta5  1  0.33380459  0.66643104  0.02311752  1
  Ta  Ta6  1  0.33305817  0.66554955  0.52348778  1
  Ta  Ta7  1  0.33261739  0.66585969  0.30800128  1
  Ta  Ta8  1  0.33317824  0.66610121  0.80874858  1
  In  In0  1  0.00332169  0.00057487  0.85492183  1
  In  In1  1  0.66704503  0.33429045  0.97767429  1
  In  In2  1  0.66644900  0.33466561  0.47962588  1
  Si  Si0  1  0.71726166  0.71260129  0.25200329  1
  Si  Si1  1  0.99495310  0.28171963  0.25142122  1
  Si  Si2  1  0.29078077  0.28644823  0.75234597  1
  P  P0  1  0.28413829  0.00422473  0.25164076  1
  P  P1  1  0.99526838  0.70916892  0.75064925  1
  P  P2  1  0.71393309  0.00406299  0.75033873  1
  P  P3  1  0.95408988  0.32953750  0.58190581  1
  P  P4  1  0.37474290  0.04354656  0.58206359  1
  P  P5  1  0.67065715  0.62579335  0.58193750  1
  P  P6  1  0.95548149  0.62422590  0.08263748  1
  P  P7  1  0.66841022  0.04559986  0.08272515  1
  P  P8  1  0.37680393  0.33018988  0.08240922  1
  P  P9  1  0.61803360  0.66865059  0.91631132  1
  P  P10  1  0.04925065  0.38310797  0.91674900  1
  P  P11  1  0.33241526  0.95008894  0.91668462  1
  P  P12  1  0.61511114  0.95043096  0.41586059  1
  P  P13  1  0.33377834  0.38402594  0.41561105  1
  P  P14  1  0.05126341  0.66752406  0.41579008  1
  O  O0  1  0.20312672  0.03886935  0.30579783  1
  O  O1  1  0.84274451  0.80119107  0.30904651  1
  O  O2  1  0.96453983  0.15801934  0.30844776  1
  O  O3  1  0.22789793  0.16909160  0.80962299  1
  O  O4  1  0.94275127  0.76781614  0.80519750  1
  O  O5  1  0.82310301  0.04900763  0.80530172  1
  O  O6  1  0.80085030  0.97090265  0.69698166  1
  O  O7  1  0.16524462  0.19115123  0.69518542  1
  O  O8  1  0.02394593  0.82817416  0.69719837  1
  O  O9  1  0.80939144  0.83241159  0.19433717  1
  O  O10  1  0.02978111  0.19473635  0.19392978  1
  O  O11  1  0.17110284  0.97218407  0.19659333  1
  O  O12  1  0.86799051  0.36531134  0.63480227  1
  O  O13  1  0.49874691  0.13259264  0.63492219  1
  O  O14  1  0.63488942  0.50026316  0.63464998  1
  O  O15  1  0.86317958  0.50451211  0.13712684  1
  O  O16  1  0.64073751  0.13485115  0.13695473  1
  O  O17  1  0.49427578  0.35743514  0.13690054  1
  O  O18  1  0.44488570  0.28786263  0.02811439  1
  O  O19  1  0.84262585  0.55751809  0.02856793  1
  O  O20  1  0.71375306  0.15738508  0.02830613  1
  O  O21  1  0.44051019  0.15432110  0.52749161  1
  O  O22  1  0.71328536  0.55960135  0.52726438  1
  O  O23  1  0.84597857  0.28888519  0.52699464  1
  O  O24  1  0.51865343  0.67494662  0.97276617  1
  O  O25  1  0.15706662  0.48334636  0.97295007  1
  O  O26  1  0.32819444  0.84323036  0.97311415  1
  O  O27  1  0.52685814  0.83895035  0.47165674  1
  O  O28  1  0.31122171  0.47232324  0.47130989  1
  O  O29  1  0.16168014  0.68747811  0.47164941  1
  O  O30  1  0.14561687  0.65054408  0.36160137  1
  O  O31  1  0.50401656  0.85735615  0.36155559  1
  O  O32  1  0.35158084  0.49763910  0.36135856  1
  O  O33  1  0.14871779  0.49114149  0.86129725  1
  O  O34  1  0.34047107  0.85241843  0.86129062  1
  O  O35  1  0.51014206  0.66079949  0.86095990  1
  O  O36  1  0.04499093  0.83975112  0.40826691  1
  O  O37  1  0.79567028  0.95839105  0.40879039  1
  O  O38  1  0.16502168  0.20337199  0.40752877  1
  O  O39  1  0.03928860  0.20606335  0.91807857  1
  O  O40  1  0.16200305  0.95421743  0.91913987  1
  O  O41  1  0.79473955  0.83755138  0.91662317  1
  O  O42  1  0.98196302  0.17385297  0.59652177  1
  O  O43  1  0.19021606  0.01066843  0.59773265  1
  O  O44  1  0.82167885  0.80807362  0.59824946  1
  O  O45  1  0.98862729  0.81121911  0.09549171  1
  O  O46  1  0.82634390  0.01539045  0.09440944  1
  O  O47  1  0.19072013  0.17230914  0.09443420  1
  O  O48  1  0.68685848  0.16186233  0.73550541  1
  O  O49  1  0.48798828  0.31974915  0.73567565  1
  O  O50  1  0.84367251  0.52098419  0.73542742  1
  O  O51  1  0.68997509  0.51704145  0.24048495  1
  O  O52  1  0.82060868  0.29873477  0.24021850  1
  O  O53  1  0.46809608  0.16560160  0.24085230  1
  O  O54  1  0.62517595  0.49903734  0.91647032  1
  O  O55  1  0.87279134  0.37734522  0.91671689  1
  O  O56  1  0.50132051  0.12797860  0.91705488  1
  O  O57  1  0.63769720  0.13246874  0.41799659  1
  O  O58  1  0.49639997  0.36638084  0.41741717  1
  O  O59  1  0.86963138  0.50688298  0.41776272  1
  O  O60  1  0.35852102  0.49556159  0.07490799  1
  O  O61  1  0.13740774  0.63876932  0.07524887  1
  O  O62  1  0.50418053  0.86140251  0.07517392  1
  O  O63  1  0.35929108  0.86050617  0.57285105  1
  O  O64  1  0.50201262  0.64005758  0.57268440  1
  O  O65  1  0.13946014  0.49485096  0.57253810  1
  O  O66  1  0.30497057  0.84274707  0.26136622  1
  O  O67  1  0.52780253  0.69725980  0.26216904  1
  O  O68  1  0.16242983  0.47593147  0.26194962  1
  O  O69  1  0.31076967  0.48094064  0.76001554  1
  O  O70  1  0.16284457  0.69570110  0.75904186  1
  O  O71  1  0.52840832  0.84228865  0.75857488  1
loop_
_geom_bond_atom_site_label_1
_geom_bond_atom_site_label_2
_geom_bond_distance
_geom_bond_site_symmetry_2
Na0 O40 2.370549 1_545
Na0 O39 2.389740 1_555
Na0 O41 2.414044 1_445
Na0 O47 2.815336 1_556
Na0 O46 2.825259 1_456
Na0 O45 2.838314 1_446
Na1 O56 2.412018 1_555
Na1 O54 2.429231 1_555
Na1 O55 2.454140 1_555
Na1 O49 2.788033 1_555
Na1 O48 2.875517 1_555
Na1 O50 2.881563 1_555
Na2 O57 2.462469 1_555
Na2 O58 2.465610 1_555
Na2 O59 2.466663 1_555
Na2 O51 2.699353 1_555
Na2 O52 2.715623 1_555
Na2 O53 2.767072 1_555
In0 O3 2.061027 1_555
In0 O5 2.159057 1_455
In0 O4 2.169359 1_445
In0 O41 2.186869 1_445
In0 O40 2.199801 1_545
In0 O39 2.215869 1_555
In1 O18 2.129176 1_556
In1 O20 2.137418 1_556
In1 O19 2.140662 1_556
In1 O55 2.165745 1_555
In1 O56 2.171098 1_555
In1 O54 2.173080 1_555
In2 O23 2.114180 1_555
In2 O22 2.117458 1_555
In2 O21 2.124670 1_555
In2 O58 2.180914 1_555
In2 O59 2.186687 1_555
In2 O57 2.189106 1_555
O0 P0 1.536417 1_555
O0 Ta0 2.074989 1_445
O1 Si0 1.634497 1_555
O1 Ta0 1.940940 1_555
O2 Si1 1.630349 1_555
O2 Ta0 1.935434 1_545
O3 Si2 1.584255 1_555
O4 P1 1.511112 1_555
O5 P2 1.509817 1_555
O6 P2 1.546203 1_565
O6 Ta1 2.003363 1_665
O7 Si2 1.646262 1_555
O7 Ta1 1.894569 1_555
O8 P1 1.543757 1_455
O8 Ta1 1.997896 1_565
O9 Si0 1.626938 1_555
O9 Ta2 1.904184 1_565
O10 Si1 1.629329 1_455
O10 Ta2 1.908670 1_455
O11 P0 1.540344 1_565
O11 Ta2 2.012544 1_465
O12 P3 1.543925 1_555
O12 Ta3 2.026336 1_555
O13 P4 1.553875 1_555
O13 Ta3 2.003056 1_555
O14 P5 1.554906 1_555
O14 Ta3 1.987202 1_555
O15 P6 1.568716 1_555
O15 Ta4 1.987960 1_555
O16 P7 1.554478 1_555
O16 Ta4 2.025927 1_555
O17 P8 1.558970 1_555
O17 Ta4 2.008242 1_555
O18 P8 1.506843 1_555
O19 P6 1.509543 1_555
O20 P7 1.508763 1_555
O21 P4 1.507406 1_555
O22 P5 1.506935 1_555
O23 P3 1.506531 1_555
O24 P9 1.577795 1_555
O24 Ta5 1.966939 1_556
O25 P10 1.580569 1_555
O25 Ta5 1.958810 1_556
O26 P11 1.583862 1_555
O26 Ta5 1.949715 1_556
O27 P12 1.557609 1_555
O27 Ta6 2.009122 1_555
O28 P13 1.558983 1_555
O28 Ta6 2.011954 1_555
O29 P14 1.560394 1_555
O29 Ta6 2.001995 1_555
O30 P14 1.542260 1_555
O30 Ta7 2.004900 1_555
O31 P12 1.540230 1_555
O31 Ta7 2.021462 1_555
O32 P13 1.549082 1_555
O32 Ta7 1.987055 1_555
O33 P10 1.562386 1_555
O33 Ta8 1.986587 1_555
O34 P11 1.555675 1_555
O34 Ta8 2.013428 1_555
O35 P9 1.562351 1_555
O35 Ta8 1.981390 1_555
O36 P14 1.555517 1_555
O36 Ta0 2.006981 1_455
O37 P12 1.566173 1_555
O37 Ta0 1.976067 1_555
O38 P13 1.552948 1_555
O38 Ta0 2.018182 1_445
O39 P10 1.518805 1_555
O40 P11 1.521751 1_555
O41 P9 1.523239 1_555
O42 P3 1.545739 1_555
O42 Ta1 1.976491 1_655
O43 P4 1.544951 1_555
O43 Ta1 1.985076 1_555
O44 P5 1.534153 1_555
O44 Ta1 2.015207 1_665
O45 P6 1.552426 1_555
O45 Ta2 2.027664 1_565
O46 P7 1.565101 1_555
O46 Ta2 1.986508 1_555
O47 P8 1.554082 1_555
O47 Ta2 2.018665 1_455
O48 P2 1.560591 1_555
O48 Ta3 1.980198 1_555
O49 Si2 1.656303 1_555
O49 Ta3 1.897439 1_555
O50 P1 1.562459 1_555
O50 Ta3 1.983576 1_555
O51 Si0 1.639231 1_555
O51 Ta4 1.942647 1_555
O52 Si1 1.636689 1_555
O52 Ta4 1.941587 1_555
O53 P0 1.549896 1_555
O53 Ta4 2.041008 1_555
O54 P9 1.527666 1_555
O55 P10 1.530553 1_655
O56 P11 1.528873 1_545
O57 P12 1.515820 1_545
O58 P13 1.517746 1_555
O59 P14 1.516437 1_655
O60 P8 1.553630 1_555
O60 Ta5 2.007987 1_555
O61 P6 1.552815 1_455
O61 Ta5 2.014664 1_555
O62 P7 1.552093 1_565
O62 Ta5 2.012474 1_555
O63 P4 1.564886 1_565
O63 Ta6 1.974013 1_555
O64 P5 1.567182 1_555
O64 Ta6 1.964809 1_555
O65 P3 1.566293 1_455
O65 Ta6 1.963575 1_555
O66 P0 1.539015 1_565
O66 Ta7 1.998549 1_555
O67 Si0 1.623567 1_555
O67 Ta7 1.913517 1_555
O68 Si1 1.624461 1_455
O68 Ta7 1.911678 1_555
O69 Si2 1.643461 1_555
O69 Ta8 1.906545 1_555
O70 P1 1.551473 1_455
O70 Ta8 1.999380 1_555
O71 P2 1.551341 1_565
O71 Ta8 2.001389 1_555
