# generated using pymatgen
data_Na4MgV2O6
_symmetry_space_group_name_H-M   'P 1'
_cell_length_a   6.76958680
_cell_length_b   5.89615871
_cell_length_c   5.62741503
_cell_angle_alpha   71.36524820
_cell_angle_beta   86.38434619
_cell_angle_gamma   53.37375862
_symmetry_Int_Tables_number   1
_chemical_formula_structural   Na4MgV2O6
_chemical_formula_sum   'Na4 Mg1 V2 O6'
_cell_volume   168.39324997
_cell_formula_units_Z   1
loop_
 _symmetry_equiv_pos_site_id
 _symmetry_equiv_pos_as_xyz
  1  'x, y, z'
loop_
 _atom_site_type_symbol
 _atom_site_label
 _atom_site_symmetry_multiplicity
 _atom_site_fract_x
 _atom_site_fract_y
 _atom_site_fract_z
 _atom_site_occupancy
  Na  Na0  1  0.12090234  0.09480089  0.54749627  1
  Na  Na1  1  0.88280847  0.79563040  0.50815791  1
  Na  Na2  1  0.59257988  0.61989432  0.57101415  1
  Na  Na3  1  0.86174780  0.06296619  0.03131954  1
  Mg  Mg0  1  0.41528655  0.33529244  0.39523014  1
  V  V0  1  0.75421819  0.63771042  0.05883622  1
  V  V1  1  0.28100389  0.29256205  0.92088982  1
  O  O0  1  0.28134297  0.58483303  0.63784385  1
  O  O1  1  0.07364131  0.54204983  0.17607311  1
  O  O2  1  0.54655059  0.99931025  0.21306281  1
  O  O3  1  0.97350744  0.35262681  0.84249604  1
  O  O4  1  0.52513347  0.97529101  0.74352431  1
  O  O5  1  0.70377711  0.35703235  0.29453381  1
loop_
_geom_bond_atom_site_label_1
_geom_bond_atom_site_label_2
_geom_bond_distance
_geom_bond_site_symmetry_2
Na0 O3 2.378325 1_455
Na0 O0 2.382284 1_545
Na0 O5 2.506322 1_455
Na0 O4 2.604793 1_545
Na0 O1 2.642036 1_555
Na1 O0 2.241378 1_655
Na1 O2 2.306953 1_555
Na1 O3 2.414745 1_555
Na1 O4 2.484137 1_555
Na1 O1 2.563821 1_655
Na1 O5 2.593236 1_565
Na2 O0 2.234608 1_555
Na2 O5 2.321800 1_555
Na2 O2 2.350930 1_555
Na2 O3 2.361508 1_555
Na2 O4 2.375804 1_555
Na3 O3 2.213356 1_554
Na3 O1 2.333733 1_645
Na3 O5 2.360716 1_555
Na3 O2 2.484913 1_545
Mg0 O5 2.065016 1_555
Mg0 O0 2.094462 1_555
Mg0 O1 2.095461 1_555
Mg0 O4 2.131157 1_545
Mg0 O2 2.201684 1_545
O0 V1 1.938261 1_555
O1 V0 1.978907 1_455
O1 V1 2.197374 1_554
O2 V1 1.942107 1_564
O2 V0 2.174293 1_555
O3 V1 1.946677 1_655
O3 V0 2.147975 1_556
O4 V0 1.980452 1_556
O4 V1 2.126801 1_565
O5 V0 1.956779 1_555
