# generated using pymatgen
data_K2MgTi2(PS5)2
_symmetry_space_group_name_H-M   'P 1'
_cell_length_a   6.52132422
_cell_length_b   7.21773546
_cell_length_c   9.84716014
_cell_angle_alpha   111.27886960
_cell_angle_beta   96.71608934
_cell_angle_gamma   90.43784901
_symmetry_Int_Tables_number   1
_chemical_formula_structural   K2MgTi2(PS5)2
_chemical_formula_sum   'K2 Mg1 Ti2 P2 S10'
_cell_volume   428.30660071
_cell_formula_units_Z   1
loop_
 _symmetry_equiv_pos_site_id
 _symmetry_equiv_pos_as_xyz
  1  'x, y, z'
loop_
 _atom_site_type_symbol
 _atom_site_label
 _atom_site_symmetry_multiplicity
 _atom_site_fract_x
 _atom_site_fract_y
 _atom_site_fract_z
 _atom_site_occupancy
  K  K0  1  0.71222100  0.21291800  0.42678300  1
  K  K1  1  0.26634800  0.76822400  0.53517600  1
  Mg  Mg0  1  0.99488800  0.49084900  0.98172900  1
  Ti  Ti0  1  0.49583400  0.78421000  0.98377700  1
  Ti  Ti1  1  0.49731500  0.19747100  0.97849100  1
  P  P0  1  0.70877000  0.61950500  0.23953000  1
  P  P1  1  0.27937800  0.36231700  0.72330500  1
  S  S0  1  0.15253700  0.63834700  0.81824400  1
  S  S1  1  0.23195600  0.25216900  0.50459500  1
  S  S2  1  0.83916600  0.34488200  0.14664800  1
  S  S3  1  0.39984000  0.57485600  0.14929800  1
  S  S4  1  0.83839500  0.79960600  0.14183700  1
  S  S5  1  0.34940000  0.06229500  0.12859200  1
  S  S6  1  0.64291900  0.91892400  0.83316600  1
  S  S7  1  0.59027700  0.40375400  0.80823200  1
  S  S8  1  0.15330400  0.18260400  0.82275700  1
  S  S9  1  0.74745300  0.72966300  0.45839600  1
loop_
_geom_bond_atom_site_label_1
_geom_bond_atom_site_label_2
_geom_bond_distance
_geom_bond_site_symmetry_2
K0 S1 3.300587 1_555
K0 S1 3.372752 1_655
K0 S5 3.379488 1_555
K0 S2 3.410455 1_555
K0 S4 3.457106 1_545
K0 S9 3.619324 1_545
K0 S9 3.631533 1_555
K0 S7 3.687655 1_555
K1 S9 3.302739 1_555
K1 S9 3.366633 1_455
K1 S0 3.401337 1_555
K1 S6 3.432391 1_555
K1 S8 3.447141 1_565
K1 S1 3.619610 1_565
K1 S1 3.629333 1_555
K1 S3 3.753309 1_555
Mg0 S8 2.520556 1_655
Mg0 S4 2.520808 1_556
Mg0 S2 2.527802 1_556
Mg0 S0 2.529095 1_655
Mg0 S3 2.880012 1_656
Mg0 S7 2.901194 1_555
P0 S9 1.991670 1_555
P0 S3 2.077411 1_555
P0 S2 2.092943 1_555
P0 S4 2.100208 1_555
P1 S1 1.990906 1_555
P1 S7 2.076555 1_555
P1 S0 2.093250 1_555
P1 S8 2.100376 1_555
S0 Ti0 2.577256 1_555
S2 Ti1 2.581742 1_554
S3 Ti0 2.709910 1_554
S3 Ti1 2.757494 1_554
S4 Ti0 2.546134 1_554
S5 Ti0 2.290073 1_544
S5 Ti1 2.330850 1_554
S6 Ti1 2.291350 1_565
S6 Ti0 2.330273 1_555
S7 Ti1 2.725978 1_555
S7 Ti0 2.781667 1_555
S8 Ti1 2.543288 1_555
