# generated using pymatgen
data_KGdTe2
_symmetry_space_group_name_H-M   'P 1'
_cell_length_a   8.59464070
_cell_length_b   8.59464070
_cell_length_c   8.59464146
_cell_angle_alpha   30.53344309
_cell_angle_beta   30.53344309
_cell_angle_gamma   30.53343849
_symmetry_Int_Tables_number   1
_chemical_formula_structural   KGdTe2
_chemical_formula_sum   'K1 Gd1 Te2'
_cell_volume   145.26271939
_cell_formula_units_Z   1
loop_
 _symmetry_equiv_pos_site_id
 _symmetry_equiv_pos_as_xyz
  1  'x, y, z'
loop_
 _atom_site_type_symbol
 _atom_site_label
 _atom_site_symmetry_multiplicity
 _atom_site_fract_x
 _atom_site_fract_y
 _atom_site_fract_z
 _atom_site_occupancy
  K  K0  1  0.50000000  0.50000000  0.50000000  1
  Gd  Gd0  1  -0.00000000  0.00000000  -0.00000000  1
  Te  Te0  1  0.26279303  0.26279303  0.26279303  1
  Te  Te1  1  0.73720697  0.73720697  0.73720697  1
loop_
_geom_bond_atom_site_label_1
_geom_bond_atom_site_label_2
_geom_bond_distance
_geom_bond_site_symmetry_2
K0 Te1 3.521909 1_455
K0 Te1 3.521909 1_545
K0 Te0 3.521909 1_655
K0 Te0 3.521909 1_565
K0 Te1 3.521910 1_554
K0 Te0 3.521910 1_556
Gd0 Te1 3.135433 1_544
Gd0 Te1 3.135433 1_454
Gd0 Te0 3.135433 1_455
Gd0 Te0 3.135433 1_545
Gd0 Te1 3.135434 1_445
Gd0 Te0 3.135434 1_554
