# generated using pymatgen
data_Na6Y4Zn4SiS11O48
_symmetry_space_group_name_H-M   'P 1'
_cell_length_a   18.08227336
_cell_length_b   9.02652853
_cell_length_c   23.52165945
_cell_angle_alpha   89.87079083
_cell_angle_beta   89.89658048
_cell_angle_gamma   120.04829841
_symmetry_Int_Tables_number   1
_chemical_formula_structural   Na6Y4Zn4SiS11O48
_chemical_formula_sum   'Na18 Y12 Zn12 Si3 S33 O144'
_cell_volume   3323.20558160
_cell_formula_units_Z   3
loop_
 _symmetry_equiv_pos_site_id
 _symmetry_equiv_pos_as_xyz
  1  'x, y, z'
loop_
 _atom_site_type_symbol
 _atom_site_label
 _atom_site_symmetry_multiplicity
 _atom_site_fract_x
 _atom_site_fract_y
 _atom_site_fract_z
 _atom_site_occupancy
  Na  Na0  1  0.81958946  0.99851677  0.24590826  1
  Na  Na1  1  0.99623852  0.63574091  0.25350568  1
  Na  Na2  1  0.31702652  0.64960368  0.75049402  1
  Na  Na3  1  0.81716414  0.64375143  0.74616781  1
  Na  Na4  1  0.99348775  0.35691840  0.75119840  1
  Na  Na5  1  0.68830630  0.00334229  0.74860342  1
  Na  Na6  1  0.99771627  0.99767742  0.49906933  1
  Na  Na7  1  0.50331383  0.00239168  0.49323709  1
  Na  Na8  1  0.00166107  0.00177350  0.00045950  1
  Na  Na9  1  0.50028620  0.00041342  0.00034637  1
  Na  Na10  1  0.33476120  0.31036988  0.83772739  1
  Na  Na11  1  0.83420894  0.32384584  0.83665472  1
  Na  Na12  1  0.33446394  0.33551945  0.32743556  1
  Na  Na13  1  0.82788079  0.34594523  0.33568626  1
  Na  Na14  1  0.17488080  0.66942855  0.17151392  1
  Na  Na15  1  0.66675607  0.65575796  0.17021788  1
  Na  Na16  1  0.17177860  0.68602344  0.66493054  1
  Na  Na17  1  0.67045241  0.67156145  0.66233500  1
  Y  Y0  1  0.99721218  0.98773251  0.35244975  1
  Y  Y1  1  0.99615520  0.00201080  0.85158741  1
  Y  Y2  1  0.49695768  0.00762887  0.85266505  1
  Y  Y3  1  0.99166739  0.99386695  0.64647479  1
  Y  Y4  1  0.49572641  0.00083549  0.64783505  1
  Y  Y5  1  0.99889964  0.99819022  0.14823015  1
  Y  Y6  1  0.49718337  0.99578652  0.14918401  1
  Y  Y7  1  0.33390086  0.31672149  0.68298397  1
  Y  Y8  1  0.33243500  0.33086816  0.47836624  1
  Y  Y9  1  0.16746922  0.66735371  0.01948327  1
  Y  Y10  1  0.66690664  0.66869805  0.01996029  1
  Y  Y11  1  0.66644214  0.65514908  0.31755793  1
  Zn  Zn0  1  0.49769501  0.99896009  0.35005004  1
  Zn  Zn1  1  0.83386091  0.31587697  0.67556575  1
  Zn  Zn2  1  0.33414556  0.33691501  0.18321601  1
  Zn  Zn3  1  0.82834355  0.34791675  0.18296554  1
  Zn  Zn4  1  0.33312776  0.33311645  0.98437794  1
  Zn  Zn5  1  0.83317599  0.33310029  0.98434110  1
  Zn  Zn6  1  0.83224025  0.33328193  0.48430198  1
  Zn  Zn7  1  0.16486603  0.66444397  0.51329154  1
  Zn  Zn8  1  0.66901771  0.66825190  0.51437181  1
  Zn  Zn9  1  0.17359483  0.67211195  0.32167549  1
  Zn  Zn10  1  0.17582122  0.69492820  0.81933436  1
  Zn  Zn11  1  0.67140754  0.67474135  0.81983041  1
  Si  Si0  1  0.84930427  0.69314535  0.24789598  1
  Si  Si1  1  0.34481992  0.99129147  0.75201550  1
  Si  Si2  1  0.84600876  0.00021642  0.75049721  1
  S  S0  1  0.15319011  0.00148852  0.25008855  1
  S  S1  1  0.64748525  0.00435882  0.25178237  1
  S  S2  1  0.35023199  0.70009990  0.25296284  1
  S  S3  1  0.00266642  0.30425266  0.25026764  1
  S  S4  1  0.49430706  0.28860487  0.25101530  1
  S  S5  1  0.14791113  0.30020392  0.75052464  1
  S  S6  1  0.65084982  0.30275203  0.74994117  1
  S  S7  1  0.00025694  0.69935572  0.74974478  1
  S  S8  1  0.50230931  0.70380515  0.75127335  1
  S  S9  1  0.48803790  0.34559032  0.58006991  1
  S  S10  1  0.98171127  0.34412256  0.58144664  1
  S  S11  1  0.18296071  0.02471630  0.58057539  1
  S  S12  1  0.68874111  0.03622920  0.58191115  1
  S  S13  1  0.32872846  0.62933277  0.58239149  1
  S  S14  1  0.82880914  0.61468469  0.58232964  1
  S  S15  1  0.47441019  0.61612086  0.08307814  1
  S  S16  1  0.97583587  0.61759138  0.08263816  1
  S  S17  1  0.33370712  0.05174207  0.08312701  1
  S  S18  1  0.83396712  0.05268272  0.08388846  1
  S  S19  1  0.19267360  0.33354998  0.08283227  1
  S  S20  1  0.68978542  0.33039291  0.08185758  1
  S  S21  1  0.31294952  0.65504972  0.91614241  1
  S  S22  1  0.81256348  0.65512990  0.91634341  1
  S  S23  1  0.01763882  0.37773563  0.91532224  1
  S  S24  1  0.51864777  0.38093220  0.91627733  1
  S  S25  1  0.17050511  0.96860152  0.91715397  1
  S  S26  1  0.67102615  0.96907954  0.91604470  1
  S  S27  1  0.31330107  0.95106356  0.41560244  1
  S  S28  1  0.81245260  0.96719400  0.42016061  1
  S  S29  1  0.16581452  0.38195990  0.41711162  1
  S  S30  1  0.66624098  0.36436477  0.42066326  1
  S  S31  1  0.02079267  0.65833462  0.41800455  1
  S  S32  1  0.52152362  0.67730546  0.41802304  1
  O  O0  1  0.11332176  0.02980481  0.30100742  1
  O  O1  1  0.60588931  0.02716372  0.30204030  1
  O  O2  1  0.40492400  0.78417587  0.30261243  1
  O  O3  1  0.91061817  0.78277660  0.30333407  1
  O  O4  1  0.48527701  0.18613482  0.30208591  1
  O  O5  1  0.98930028  0.19417083  0.30060271  1
  O  O6  1  0.11141051  0.19126445  0.80140621  1
  O  O7  1  0.61248104  0.18920404  0.80034041  1
  O  O8  1  0.48871038  0.78509414  0.80168907  1
  O  O9  1  0.98697755  0.78156821  0.80051704  1
  O  O10  1  0.40507799  0.01935033  0.80657878  1
  O  O11  1  0.91098214  0.04414647  0.80421818  1
  O  O12  1  0.38988415  0.95816280  0.69625404  1
  O  O13  1  0.88887274  0.95504106  0.69684606  1
  O  O14  1  0.09601747  0.21544456  0.69951995  1
  O  O15  1  0.59803013  0.22056759  0.69906668  1
  O  O16  1  0.01632252  0.80902904  0.69891445  1
  O  O17  1  0.51859324  0.81319051  0.70001449  1
  O  O18  1  0.38933564  0.80471672  0.20010920  1
  O  O19  1  0.89450413  0.82297095  0.19412331  1
  O  O20  1  0.01813918  0.22802386  0.19890953  1
  O  O21  1  0.50820420  0.21104601  0.19905733  1
  O  O22  1  0.09771425  0.97175562  0.19944205  1
  O  O23  1  0.59676234  0.98077843  0.19934920  1
  O  O24  1  0.44793545  0.36546225  0.63286425  1
  O  O25  1  0.94515753  0.36393269  0.63609697  1
  O  O26  1  0.23369763  0.10626104  0.63289066  1
  O  O27  1  0.73545471  0.11027043  0.63649324  1
  O  O28  1  0.32006002  0.53361899  0.63646110  1
  O  O29  1  0.82056626  0.52125725  0.63680528  1
  O  O30  1  0.43562974  0.51764277  0.13558878  1
  O  O31  1  0.93852700  0.52172353  0.13590567  1
  O  O32  1  0.32343994  0.12989296  0.13521351  1
  O  O33  1  0.82440359  0.12826771  0.13736640  1
  O  O34  1  0.24142539  0.35310409  0.13532116  1
  O  O35  1  0.73834819  0.35084810  0.13426260  1
  O  O36  1  0.23222076  0.31535580  0.03091945  1
  O  O37  1  0.72922683  0.31147790  0.03033496  1
  O  O38  1  0.42572526  0.53869517  0.03128081  1
  O  O39  1  0.92528995  0.53632868  0.03168586  1
  O  O40  1  0.34407409  0.14926916  0.03092831  1
  O  O41  1  0.84203814  0.15176445  0.03240603  1
  O  O42  1  0.22603487  0.13609755  0.53092763  1
  O  O43  1  0.73146268  0.14681836  0.53242490  1
  O  O44  1  0.33952428  0.53780794  0.53376095  1
  O  O45  1  0.84101075  0.53179137  0.53224944  1
  O  O46  1  0.43178589  0.31858266  0.53102938  1
  O  O47  1  0.92633451  0.31707166  0.53219951  1
  O  O48  1  0.27123129  0.68185831  0.96649145  1
  O  O49  1  0.77069228  0.68135073  0.96650845  1
  O  O50  1  0.07078082  0.46198377  0.96617824  1
  O  O51  1  0.57026831  0.46194551  0.96791309  1
  O  O52  1  0.15785301  0.86176255  0.96837219  1
  O  O53  1  0.65908426  0.85998538  0.96647308  1
  O  O54  1  0.27354018  0.85160225  0.46768467  1
  O  O55  1  0.76943583  0.85400475  0.46883897  1
  O  O56  1  0.15690936  0.46120429  0.46884604  1
  O  O57  1  0.65321850  0.44962387  0.47001012  1
  O  O58  1  0.07457780  0.68273737  0.46778282  1
  O  O59  1  0.57240551  0.69479280  0.46869561  1
  O  O60  1  0.05918616  0.64136228  0.36355508  1
  O  O61  1  0.55923475  0.64938604  0.36581946  1
  O  O62  1  0.26080787  0.87619250  0.36405682  1
  O  O63  1  0.76513779  0.89142074  0.36566063  1
  O  O64  1  0.17649274  0.48079843  0.36447125  1
  O  O65  1  0.68004099  0.46862413  0.36773844  1
  O  O66  1  0.05854804  0.47577693  0.86260828  1
  O  O67  1  0.56124183  0.48181756  0.86456921  1
  O  O68  1  0.17977262  0.88636981  0.86545988  1
  O  O69  1  0.67972502  0.88893345  0.86311176  1
  O  O70  1  0.26376356  0.63615421  0.86363939  1
  O  O71  1  0.76404119  0.63683627  0.86339504  1
  O  O72  1  0.01333664  0.81800574  0.41487920  1
  O  O73  1  0.51176319  0.83041020  0.41178024  1
  O  O74  1  0.40015278  0.97207816  0.40962662  1
  O  O75  1  0.89942455  0.98428721  0.41537457  1
  O  O76  1  0.08947840  0.20705414  0.41299860  1
  O  O77  1  0.58786761  0.19338617  0.41310762  1
  O  O78  1  0.01037587  0.20462006  0.91358041  1
  O  O79  1  0.51151506  0.20808816  0.91416935  1
  O  O80  1  0.09272961  0.98557059  0.91280127  1
  O  O81  1  0.59315893  0.98571978  0.91301667  1
  O  O82  1  0.40012261  0.81092621  0.91334341  1
  O  O83  1  0.89943647  0.81134998  0.91306660  1
  O  O84  1  0.49525375  0.18897017  0.58497743  1
  O  O85  1  0.99110452  0.18688189  0.58601801  1
  O  O86  1  0.09806165  0.01100728  0.58589951  1
  O  O87  1  0.60175453  0.01836348  0.58697456  1
  O  O88  1  0.40842636  0.79983216  0.58465119  1
  O  O89  1  0.90802680  0.79023021  0.58526187  1
  O  O90  1  0.48551380  0.79264841  0.08727314  1
  O  O91  1  0.98771619  0.79453701  0.08552734  1
  O  O92  1  0.41061377  0.02892952  0.08717585  1
  O  O93  1  0.91179768  0.03355276  0.08582634  1
  O  O94  1  0.10492845  0.18038121  0.08627685  1
  O  O95  1  0.60177566  0.17616838  0.08665780  1
  O  O96  1  0.33608770  0.16238872  0.74781782  1
  O  O97  1  0.83842429  0.17360271  0.74177922  1
  O  O98  1  0.23736448  0.33466429  0.74393070  1
  O  O99  1  0.73775757  0.32410287  0.74312759  1
  O  O100  1  0.42125815  0.53767663  0.74402374  1
  O  O101  1  0.91969385  0.53127402  0.74320516  1
  O  O102  1  0.34208027  0.52787488  0.24567847  1
  O  O103  1  0.84684667  0.51053964  0.24295340  1
  O  O104  1  0.41717412  0.30569341  0.24461767  1
  O  O105  1  0.92232111  0.31111486  0.24358570  1
  O  O106  1  0.23879311  0.15336985  0.24243765  1
  O  O107  1  0.73566538  0.15260615  0.24561432  1
  O  O108  1  0.32111454  0.50067390  0.92283309  1
  O  O109  1  0.82094734  0.50100303  0.92281340  1
  O  O110  1  0.43232054  0.36044725  0.92141131  1
  O  O111  1  0.93152963  0.35833791  0.92133410  1
  O  O112  1  0.24823808  0.13951689  0.92267907  1
  O  O113  1  0.74870507  0.13962727  0.92196936  1
  O  O114  1  0.32287386  0.12713479  0.42048948  1
  O  O115  1  0.82152941  0.13861311  0.42563364  1
  O  O116  1  0.24350362  0.36154816  0.42050240  1
  O  O117  1  0.74402892  0.34833592  0.42607147  1
  O  O118  1  0.43418154  0.52032447  0.42256686  1
  O  O119  1  0.93390692  0.50627599  0.42333575  1
  O  O120  1  0.18222072  0.48900342  0.07931579  1
  O  O121  1  0.67944272  0.48563236  0.07839434  1
  O  O122  1  0.06349781  0.63806650  0.07836394  1
  O  O123  1  0.56249223  0.63852439  0.07928641  1
  O  O124  1  0.25663712  0.87506228  0.07949136  1
  O  O125  1  0.75697685  0.87601195  0.07977941  1
  O  O126  1  0.17598053  0.85556053  0.57513725  1
  O  O127  1  0.67956757  0.86317011  0.57639954  1
  O  O128  1  0.25246028  0.64706558  0.57633400  1
  O  O129  1  0.75267915  0.63637165  0.57728669  1
  O  O130  1  0.06826981  0.49718449  0.57573448  1
  O  O131  1  0.57278198  0.49965480  0.57441654  1
  O  O132  1  0.15614906  0.83918066  0.25690417  1
  O  O133  1  0.65665501  0.84793595  0.25650195  1
  O  O134  1  0.26388414  0.68316635  0.25831456  1
  O  O135  1  0.75783156  0.68969887  0.25314205  1
  O  O136  1  0.07625949  0.48068833  0.25696813  1
  O  O137  1  0.57170909  0.46301269  0.25505000  1
  O  O138  1  0.15044769  0.46586199  0.75699560  1
  O  O139  1  0.65863195  0.47287816  0.75745749  1
  O  O140  1  0.07295491  0.66920847  0.75700325  1
  O  O141  1  0.57720420  0.68199458  0.75797971  1
  O  O142  1  0.25271713  0.81203959  0.75639241  1
  O  O143  1  0.75146450  0.82708335  0.75874368  1
loop_
_geom_bond_atom_site_label_1
_geom_bond_atom_site_label_2
_geom_bond_distance
_geom_bond_site_symmetry_2
Na0 O135 2.434375 1_555
Na0 O105 2.482998 1_565
Na0 O107 2.520190 1_565
Na0 O133 2.564219 1_555
Na0 O33 2.789469 1_565
Na0 O19 2.825234 1_555
Na0 O5 2.964510 1_565
Na0 O63 2.977026 1_555
Na1 O103 2.362714 1_555
Na1 O136 2.467222 1_655
Na1 O132 2.534456 1_655
Na1 O105 2.551316 1_555
Na1 O3 2.755077 1_555
Na1 O60 2.819948 1_655
Na1 O22 2.929862 1_655
Na1 O31 2.957614 1_555
Na2 O142 2.286739 1_555
Na2 O98 2.466207 1_555
Na2 O100 2.550054 1_555
Na2 O138 2.615570 1_555
Na2 O12 2.724698 1_555
Na2 O70 2.810231 1_555
Na2 O28 2.891914 1_555
Na2 O8 2.966680 1_555
Na3 O143 2.491414 1_555
Na3 O139 2.496900 1_555
Na3 O99 2.498841 1_555
Na3 O101 2.521459 1_555
Na3 O13 2.693265 1_555
Na3 O29 2.814944 1_555
Na3 O71 2.908500 1_555
Na3 O9 2.967555 1_555
Na4 O140 2.444496 1_655
Na4 O97 2.450813 1_555
Na4 O138 2.499574 1_655
Na4 O101 2.528930 1_555
Na4 O11 2.740624 1_555
Na4 O25 2.856714 1_555
Na4 O66 2.856943 1_655
Na4 O14 2.985875 1_655
Na5 O97 2.361257 1_555
Na5 O143 2.389849 1_545
Na5 O99 2.569896 1_555
Na5 O141 2.580327 1_545
Na5 O27 2.787225 1_555
Na5 O69 2.858424 1_545
Na5 O17 2.901085 1_545
Na5 O7 2.912435 1_555
Na6 O75 2.616801 1_555
Na6 O72 2.665113 1_655
Na6 O89 2.678919 1_555
Na6 O76 2.693303 1_665
Na6 O86 2.697034 1_665
Na6 O85 2.707985 1_565
Na7 O77 2.489465 1_555
Na7 O73 2.520757 1_545
Na7 O74 2.631879 1_545
Na7 O88 2.781657 1_545
Na7 O84 2.788398 1_555
Na7 O87 2.794514 1_555
Na8 O91 2.659980 1_445
Na8 O94 2.678445 1_555
Na8 O93 2.685566 1_455
Na8 O80 2.686018 1_544
Na8 O78 2.691924 1_554
Na8 O83 2.728488 1_444
Na9 O95 2.668079 1_555
Na9 O90 2.692240 1_545
Na9 O79 2.695240 1_554
Na9 O81 2.696133 1_544
Na9 O92 2.697247 1_555
Na9 O82 2.705670 1_544
Na10 O96 2.510366 1_555
Na10 O112 2.525362 1_555
Na10 O110 2.531574 1_555
Na10 O108 2.730791 1_555
Na10 O100 2.875306 1_555
Na10 O98 2.901022 1_555
Na11 O113 2.565460 1_555
Na11 O111 2.574447 1_555
Na11 O97 2.634719 1_555
Na11 O109 2.668079 1_555
Na11 O101 2.792386 1_555
Na11 O99 2.810560 1_555
Na12 O102 2.544875 1_555
Na12 O104 2.549336 1_555
Na12 O106 2.621455 1_555
Na12 O116 2.815828 1_555
Na12 O114 2.820958 1_555
Na12 O118 2.839042 1_555
Na13 O103 2.560303 1_555
Na13 O117 2.615470 1_555
Na13 O119 2.696221 1_555
Na13 O107 2.725782 1_555
Na13 O115 2.785303 1_555
Na13 O105 2.869769 1_555
Na14 O134 2.566544 1_555
Na14 O132 2.651023 1_555
Na14 O136 2.655536 1_555
Na14 O124 2.745590 1_555
Na14 O120 2.757609 1_555
Na14 O122 2.895681 1_555
Na15 O135 2.473762 1_555
Na15 O137 2.634351 1_555
Na15 O121 2.727950 1_555
Na15 O133 2.737415 1_555
Na15 O125 2.803497 1_555
Na15 O123 2.806372 1_555
Na16 O142 2.533635 1_555
Na16 O126 2.583989 1_555
Na16 O128 2.664766 1_555
Na16 O140 2.760335 1_555
Na16 O130 2.765091 1_555
Na16 O138 2.827991 1_555
Na17 O129 2.603578 1_555
Na17 O127 2.608050 1_555
Na17 O131 2.662084 1_555
Na17 O143 2.688111 1_555
Na17 O139 2.804365 1_555
Na17 O141 2.838921 1_555
O0 S0 1.484020 1_555
O0 Y0 2.281800 1_445
O1 S1 1.469191 1_555
O1 Zn0 2.158586 1_545
O2 S2 1.474576 1_555
O2 Zn0 2.139471 1_555
O3 Si0 1.641906 1_555
O3 Y0 2.079477 1_555
O4 S4 1.472502 1_555
O4 Zn0 2.133081 1_545
O5 S3 1.483473 1_655
O5 Y0 2.288540 1_545
O6 S5 1.475410 1_555
O6 Y1 2.251996 1_455
O7 S6 1.488832 1_555
O7 Y2 2.262205 1_555
O8 S8 1.479425 1_555
O8 Y2 2.281751 1_565
O9 S7 1.488625 1_655
O9 Y1 2.260707 1_565
O10 Si1 1.621323 1_545
O10 Y2 2.031885 1_555
O11 Si2 1.635639 1_555
O11 Y1 2.085423 1_555
O12 Si1 1.647928 1_555
O12 Y4 2.088115 1_565
O13 Si2 1.635510 1_565
O13 Y3 2.078318 1_555
O14 S5 1.481356 1_555
O14 Y3 2.314683 1_445
O15 S6 1.480906 1_555
O15 Y4 2.269923 1_555
O16 S7 1.483011 1_555
O16 Y3 2.289437 1_455
O17 S8 1.489124 1_555
O17 Y4 2.289122 1_565
O18 S2 1.503369 1_555
O18 Y6 2.196902 1_555
O19 Si0 1.634461 1_555
O19 Y5 2.055529 1_555
O20 S3 1.485392 1_555
O20 Y5 2.266245 1_445
O21 S4 1.491919 1_555
O21 Y6 2.194233 1_545
O22 S0 1.494526 1_565
O22 Y5 2.265843 1_455
O23 S1 1.489081 1_565
O23 Y6 2.214526 1_555
O24 S9 1.492688 1_555
O24 Y7 2.217113 1_555
O25 S10 1.495868 1_555
O25 Zn1 2.053623 1_555
O26 S11 1.493185 1_555
O26 Y7 2.202487 1_555
O27 S12 1.500299 1_555
O27 Zn1 2.040027 1_555
O28 S13 1.499066 1_555
O28 Y7 2.361198 1_555
O29 S14 1.497947 1_555
O29 Zn1 2.182963 1_555
O30 S15 1.474836 1_555
O30 Zn2 2.066422 1_555
O31 S16 1.476900 1_555
O31 Zn3 2.123687 1_555
O32 S17 1.472194 1_555
O32 Zn2 2.110065 1_555
O33 S18 1.482878 1_555
O33 Zn3 2.225951 1_555
O34 S19 1.477045 1_555
O34 Zn2 2.086361 1_555
O35 S20 1.472138 1_555
O35 Zn3 2.002730 1_555
O36 S19 1.464491 1_555
O36 Zn4 2.062150 1_554
O37 S20 1.458165 1_555
O37 Zn5 2.089461 1_554
O38 S15 1.462665 1_555
O38 Zn4 2.090078 1_554
O39 S16 1.465024 1_555
O39 Zn5 2.082216 1_554
O40 S17 1.465143 1_555
O40 Zn4 2.076912 1_554
O41 S18 1.466749 1_555
O41 Zn5 2.058658 1_554
O42 S11 1.479327 1_555
O42 Y8 2.217026 1_555
O43 S12 1.472201 1_555
O43 Zn6 2.085005 1_555
O44 S13 1.481230 1_555
O44 Y8 2.230512 1_555
O45 S14 1.471230 1_555
O45 Zn6 2.057425 1_555
O46 S9 1.477099 1_555
O46 Y8 2.231824 1_555
O47 S10 1.471303 1_555
O47 Zn6 2.107390 1_555
O48 S21 1.486959 1_555
O48 Y9 2.199076 1_556
O49 S22 1.482927 1_555
O49 Y10 2.211764 1_556
O50 S23 1.486291 1_555
O50 Y9 2.199522 1_556
O51 S24 1.485159 1_555
O51 Y10 2.187993 1_556
O52 S25 1.485457 1_555
O52 Y9 2.202688 1_556
O53 S26 1.484646 1_555
O53 Y10 2.195366 1_556
O54 S27 1.472804 1_555
O54 Zn7 2.127426 1_555
O55 S28 1.468182 1_555
O55 Zn8 2.047285 1_555
O56 S29 1.461831 1_555
O56 Zn7 2.055252 1_555
O57 S30 1.476320 1_555
O57 Zn8 2.123839 1_555
O58 S31 1.468350 1_555
O58 Zn7 2.028309 1_555
O59 S32 1.466773 1_555
O59 Zn8 2.165257 1_555
O60 S31 1.499977 1_555
O60 Zn9 2.177977 1_555
O61 S32 1.485514 1_555
O61 Y11 2.222645 1_555
O62 S27 1.480927 1_555
O62 Zn9 1.994706 1_555
O63 S28 1.505000 1_555
O63 Y11 2.284752 1_555
O64 S29 1.479188 1_555
O64 Zn9 2.020196 1_555
O65 S30 1.502024 1_555
O65 Y11 2.166817 1_555
O66 S23 1.484561 1_555
O66 Zn10 2.286525 1_555
O67 S24 1.480200 1_555
O67 Zn11 2.149029 1_555
O68 S25 1.478321 1_555
O68 Zn10 2.013324 1_555
O69 S26 1.488498 1_555
O69 Zn11 2.124934 1_555
O70 S21 1.482644 1_555
O70 Zn10 2.178205 1_555
O71 S22 1.485924 1_555
O71 Zn11 2.133397 1_555
O72 S31 1.514931 1_555
O72 Y0 2.242151 1_455
O73 S32 1.485292 1_555
O73 Zn0 2.206057 1_555
O74 S27 1.490933 1_555
O74 Zn0 2.166681 1_555
O75 S28 1.505320 1_555
O75 Y0 2.292060 1_555
O76 S29 1.491976 1_555
O76 Y0 2.333386 1_445
O77 S30 1.494535 1_555
O77 Zn0 2.256831 1_545
O78 S23 1.501844 1_555
O78 Y1 2.253785 1_455
O79 S24 1.500704 1_555
O79 Y2 2.229906 1_555
O80 S25 1.492637 1_555
O80 Y1 2.326444 1_465
O81 S26 1.490723 1_555
O81 Y2 2.330761 1_565
O82 S21 1.498943 1_555
O82 Y2 2.263105 1_565
O83 S22 1.497574 1_555
O83 Y1 2.253235 1_565
O84 S9 1.487632 1_555
O84 Y4 2.252383 1_555
O85 S10 1.515169 1_555
O85 Y3 2.250422 1_545
O86 S11 1.482136 1_555
O86 Y3 2.333731 1_445
O87 S12 1.503151 1_555
O87 Y4 2.331394 1_555
O88 S13 1.492557 1_555
O88 Y4 2.268242 1_565
O89 S14 1.515001 1_555
O89 Y3 2.230461 1_555
O90 S15 1.506472 1_555
O90 Y6 2.270034 1_555
O91 S16 1.502916 1_555
O91 Y5 2.288329 1_555
O92 S17 1.507494 1_555
O92 Y6 2.267706 1_545
O93 S18 1.502034 1_555
O93 Y5 2.290586 1_545
O94 S19 1.495887 1_555
O94 Y5 2.307689 1_445
O95 S20 1.504430 1_555
O95 Y6 2.299190 1_545
O96 Si1 1.632017 1_545
O96 Y7 2.076942 1_555
O97 Si2 1.650434 1_555
O97 Zn1 2.044336 1_555
O98 S5 1.494050 1_555
O98 Y7 2.324565 1_555
O99 S6 1.492667 1_555
O99 Zn1 2.381298 1_555
O100 S8 1.492255 1_555
O100 Y7 2.323892 1_555
O101 S7 1.495374 1_655
O101 Zn1 2.391903 1_555
O102 S2 1.496548 1_555
O102 Zn2 2.216949 1_555
O103 Si0 1.630919 1_555
O103 Zn3 1.943422 1_555
O104 S4 1.485880 1_555
O104 Zn2 2.202066 1_555
O105 S3 1.493367 1_655
O105 Zn3 2.367100 1_555
O106 S0 1.476680 1_555
O106 Zn2 2.185936 1_555
O107 S1 1.488497 1_555
O107 Zn3 2.260223 1_555
O108 S21 1.481039 1_555
O108 Zn4 2.179603 1_555
O109 S22 1.480544 1_555
O109 Zn5 2.183401 1_555
O110 S24 1.481766 1_555
O110 Zn4 2.239909 1_555
O111 S23 1.483619 1_655
O111 Zn5 2.234825 1_555
O112 S25 1.484120 1_545
O112 Zn4 2.202124 1_555
O113 S26 1.482719 1_545
O113 Zn5 2.209869 1_555
O114 S27 1.514753 1_545
O114 Y8 2.226850 1_555
O115 S28 1.477955 1_545
O115 Zn6 2.168091 1_555
O116 S29 1.507748 1_555
O116 Y8 2.228737 1_555
O117 S30 1.489954 1_555
O117 Zn6 2.159355 1_555
O118 S32 1.507030 1_555
O118 Y8 2.205071 1_555
O119 S31 1.485572 1_655
O119 Zn6 2.231576 1_555
O120 S19 1.508872 1_555
O120 Y9 2.250494 1_555
O121 S20 1.505712 1_555
O121 Y10 2.244355 1_555
O122 S16 1.504276 1_455
O122 Y9 2.239150 1_555
O123 S15 1.504149 1_555
O123 Y10 2.249440 1_555
O124 S17 1.506028 1_565
O124 Y9 2.258308 1_555
O125 S18 1.506129 1_565
O125 Y10 2.258790 1_555
O126 S11 1.473642 1_565
O126 Zn7 2.190384 1_555
O127 S12 1.491992 1_565
O127 Zn8 2.221964 1_555
O128 S13 1.472929 1_555
O128 Zn7 2.233494 1_555
O129 S14 1.489224 1_555
O129 Zn8 2.236842 1_555
O130 S10 1.486428 1_455
O130 Zn7 2.197126 1_555
O131 S9 1.471085 1_555
O131 Zn8 2.160607 1_555
O132 S0 1.500829 1_565
O132 Zn9 2.272150 1_555
O133 S1 1.505740 1_565
O133 Y11 2.328123 1_555
O134 S2 1.495751 1_555
O134 Zn9 2.173479 1_555
O135 Si0 1.643088 1_555
O135 Y11 2.143958 1_555
O136 S3 1.487123 1_555
O136 Zn9 2.318588 1_555
O137 S4 1.496948 1_555
O137 Y11 2.269217 1_555
O138 S5 1.481084 1_555
O138 Zn10 2.387864 1_555
O139 S6 1.481276 1_555
O139 Zn11 2.262225 1_555
O140 S7 1.479889 1_555
O140 Zn10 2.289578 1_555
O141 S8 1.471506 1_555
O141 Zn11 2.267737 1_555
O142 Si1 1.643850 1_555
O142 Zn10 1.938097 1_555
O143 Si2 1.650580 1_565
O143 Zn11 2.010258 1_555
