# generated using pymatgen
data_C2N
_symmetry_space_group_name_H-M   'P 1'
_cell_length_a   11.12513300
_cell_length_b   11.12513300
_cell_length_c   11.12513300
_cell_angle_alpha   90.00000000
_cell_angle_beta   90.00000000
_cell_angle_gamma   90.00000000
_symmetry_Int_Tables_number   1
_chemical_formula_structural   C2N
_chemical_formula_sum   'C48 N24'
_cell_volume   1376.94196120
_cell_formula_units_Z   24
loop_
 _symmetry_equiv_pos_site_id
 _symmetry_equiv_pos_as_xyz
  1  'x, y, z'
loop_
 _atom_site_type_symbol
 _atom_site_label
 _atom_site_symmetry_multiplicity
 _atom_site_fract_x
 _atom_site_fract_y
 _atom_site_fract_z
 _atom_site_occupancy
  C  C0  1  0.09196800  0.91278900  0.99519400  1
  C  C1  1  0.99519400  0.09196800  0.91278900  1
  C  C2  1  0.91278900  0.99519400  0.09196800  1
  C  C3  1  0.58721100  0.00480600  0.59196800  1
  C  C4  1  0.49519400  0.40803200  0.08721100  1
  C  C5  1  0.08721100  0.49519400  0.40803200  1
  C  C6  1  0.50480600  0.90803200  0.41278900  1
  C  C7  1  0.00480600  0.59196800  0.58721100  1
  C  C8  1  0.41278900  0.50480600  0.90803200  1
  C  C9  1  0.59196800  0.58721100  0.00480600  1
  C  C10  1  0.90803200  0.41278900  0.50480600  1
  C  C11  1  0.40803200  0.08721100  0.49519400  1
  C  C12  1  0.90803200  0.08721100  0.00480600  1
  C  C13  1  0.00480600  0.90803200  0.08721100  1
  C  C14  1  0.08721100  0.00480600  0.90803200  1
  C  C15  1  0.41278900  0.99519400  0.40803200  1
  C  C16  1  0.50480600  0.59196800  0.91278900  1
  C  C17  1  0.91278900  0.50480600  0.59196800  1
  C  C18  1  0.49519400  0.09196800  0.58721100  1
  C  C19  1  0.99519400  0.40803200  0.41278900  1
  C  C20  1  0.58721100  0.49519400  0.09196800  1
  C  C21  1  0.40803200  0.41278900  0.99519400  1
  C  C22  1  0.09196800  0.58721100  0.49519400  1
  C  C23  1  0.59196800  0.91278900  0.50480600  1
  C  C24  1  0.18471700  0.82474300  0.98993300  1
  C  C25  1  0.98993300  0.18471700  0.82474300  1
  C  C26  1  0.82474300  0.98993300  0.18471700  1
  C  C27  1  0.67525700  0.01006700  0.68471700  1
  C  C28  1  0.48993300  0.31528300  0.17525700  1
  C  C29  1  0.17525700  0.48993300  0.31528300  1
  C  C30  1  0.51006700  0.81528300  0.32474300  1
  C  C31  1  0.01006700  0.68471700  0.67525700  1
  C  C32  1  0.32474300  0.51006700  0.81528300  1
  C  C33  1  0.68471700  0.67525700  0.01006700  1
  C  C34  1  0.81528300  0.32474300  0.51006700  1
  C  C35  1  0.31528300  0.17525700  0.48993300  1
  C  C36  1  0.81528300  0.17525700  0.01006700  1
  C  C37  1  0.01006700  0.81528300  0.17525700  1
  C  C38  1  0.17525700  0.01006700  0.81528300  1
  C  C39  1  0.32474300  0.98993300  0.31528300  1
  C  C40  1  0.51006700  0.68471700  0.82474300  1
  C  C41  1  0.82474300  0.51006700  0.68471700  1
  C  C42  1  0.48993300  0.18471700  0.67525700  1
  C  C43  1  0.98993300  0.31528300  0.32474300  1
  C  C44  1  0.67525700  0.48993300  0.18471700  1
  C  C45  1  0.31528300  0.32474300  0.98993300  1
  C  C46  1  0.18471700  0.67525700  0.48993300  1
  C  C47  1  0.68471700  0.82474300  0.51006700  1
  N  N0  1  0.26063200  0.75262200  0.98467700  1
  N  N1  1  0.98467700  0.26063200  0.75262200  1
  N  N2  1  0.75262200  0.98467700  0.26063200  1
  N  N3  1  0.74737800  0.01532300  0.76063200  1
  N  N4  1  0.48467700  0.23936800  0.24737800  1
  N  N5  1  0.24737800  0.48467700  0.23936800  1
  N  N6  1  0.51532300  0.73936800  0.25262200  1
  N  N7  1  0.01532300  0.76063200  0.74737800  1
  N  N8  1  0.25262200  0.51532300  0.73936800  1
  N  N9  1  0.76063200  0.74737800  0.01532300  1
  N  N10  1  0.73936800  0.25262200  0.51532300  1
  N  N11  1  0.23936800  0.24737800  0.48467700  1
  N  N12  1  0.73936800  0.24737800  0.01532300  1
  N  N13  1  0.01532300  0.73936800  0.24737800  1
  N  N14  1  0.24737800  0.01532300  0.73936800  1
  N  N15  1  0.25262200  0.98467700  0.23936800  1
  N  N16  1  0.51532300  0.76063200  0.75262200  1
  N  N17  1  0.75262200  0.51532300  0.76063200  1
  N  N18  1  0.48467700  0.26063200  0.74737800  1
  N  N19  1  0.98467700  0.23936800  0.25262200  1
  N  N20  1  0.74737800  0.48467700  0.26063200  1
  N  N21  1  0.23936800  0.25262200  0.98467700  1
  N  N22  1  0.26063200  0.74737800  0.48467700  1
  N  N23  1  0.76063200  0.75262200  0.51532300  1
loop_
_geom_bond_atom_site_label_1
_geom_bond_atom_site_label_2
_geom_bond_distance
_geom_bond_site_symmetry_2
C0 C13 1.411050 1_556
C0 C14 1.411050 1_565
C0 C24 1.423937 1_555
C1 C14 1.411050 1_655
C1 C12 1.411050 1_556
C1 C25 1.423937 1_555
C2 C26 1.423937 1_555
C10 C17 1.411050 1_555
C10 C19 1.411050 1_555
C10 C34 1.423937 1_555
C11 C15 1.411050 1_545
C11 C18 1.411050 1_555
C11 C35 1.423937 1_555
C12 C2 1.411050 1_545
C12 C36 1.423937 1_555
C13 C2 1.411050 1_455
C13 C37 1.423937 1_555
C14 C38 1.423937 1_555
C15 C6 1.411050 1_555
C15 C39 1.423937 1_555
C16 C8 1.411050 1_555
C16 C9 1.411050 1_556
C16 C40 1.423937 1_555
C17 C7 1.411050 1_655
C17 C41 1.423937 1_555
C18 C3 1.411050 1_555
C18 C42 1.423937 1_555
C19 C5 1.411050 1_655
C19 C43 1.423937 1_555
C20 C9 1.411050 1_555
C20 C4 1.411050 1_555
C20 C44 1.423937 1_555
C21 C4 1.411050 1_556
C21 C8 1.411050 1_555
C21 C45 1.423937 1_555
C22 C7 1.411050 1_555
C22 C5 1.411050 1_555
C22 C46 1.423937 1_555
C23 C6 1.411050 1_555
C23 C3 1.411050 1_565
C23 C47 1.423937 1_555
C24 N0 1.166397 1_555
C25 N1 1.166397 1_555
C26 N2 1.166397 1_555
C27 N3 1.166397 1_555
C27 C3 1.423937 1_555
C28 N4 1.166397 1_555
C28 C4 1.423937 1_555
C29 N5 1.166397 1_555
C29 C5 1.423937 1_555
C30 N6 1.166397 1_555
C30 C6 1.423937 1_555
C31 N7 1.166397 1_555
C31 C7 1.423937 1_555
C32 N8 1.166397 1_555
C32 C8 1.423937 1_555
C33 N9 1.166397 1_555
C33 C9 1.423937 1_555
C34 N10 1.166397 1_555
C35 N11 1.166397 1_555
C36 N12 1.166397 1_555
C37 N13 1.166397 1_555
C38 N14 1.166397 1_555
C39 N15 1.166397 1_555
C40 N16 1.166397 1_555
C41 N17 1.166397 1_555
C42 N18 1.166397 1_555
C43 N19 1.166397 1_555
C44 N20 1.166397 1_555
C45 N21 1.166397 1_555
C46 N22 1.166397 1_555
C47 N23 1.166397 1_555
