# generated using pymatgen
data_BaF3
_symmetry_space_group_name_H-M   'P 1'
_cell_length_a   4.46690969
_cell_length_b   4.70821860
_cell_length_c   6.40552835
_cell_angle_alpha   89.50548897
_cell_angle_beta   90.00000000
_cell_angle_gamma   90.00000000
_symmetry_Int_Tables_number   1
_chemical_formula_structural   BaF3
_chemical_formula_sum   'Ba2 F6'
_cell_volume   134.71084883
_cell_formula_units_Z   2
loop_
 _symmetry_equiv_pos_site_id
 _symmetry_equiv_pos_as_xyz
  1  'x, y, z'
loop_
 _atom_site_type_symbol
 _atom_site_label
 _atom_site_symmetry_multiplicity
 _atom_site_fract_x
 _atom_site_fract_y
 _atom_site_fract_z
 _atom_site_occupancy
  Ba  Ba0  1  0.75000000  0.24716842  0.71754348  1
  Ba  Ba1  1  0.25000000  0.75283158  0.28245652  1
  F  F0  1  0.75000000  0.74904910  0.52910692  1
  F  F1  1  0.25000000  0.25095090  0.47089308  1
  F  F2  1  0.75000000  0.05454325  0.13566985  1
  F  F3  1  0.25000000  0.94545675  0.86433015  1
  F  F4  1  0.75000000  0.46530101  0.13059705  1
  F  F5  1  0.25000000  0.53469899  0.86940295  1
loop_
_geom_bond_atom_site_label_1
_geom_bond_atom_site_label_2
_geom_bond_distance
_geom_bond_site_symmetry_2
Ba0 F0 2.644107 1_555
Ba0 F0 2.646888 1_545
Ba0 F1 2.735748 1_555
Ba0 F1 2.735748 1_655
Ba0 F5 2.791045 1_555
Ba0 F5 2.791045 1_655
Ba0 F3 2.804856 1_645
Ba0 F3 2.804856 1_545
Ba0 F2 2.820280 1_556
Ba0 F4 2.846412 1_556
Ba1 F1 2.644107 1_555
Ba1 F1 2.646888 1_565
Ba1 F0 2.735748 1_555
Ba1 F0 2.735748 1_455
Ba1 F4 2.791045 1_555
Ba1 F4 2.791045 1_455
Ba1 F2 2.804856 1_565
Ba1 F2 2.804856 1_465
Ba1 F3 2.820280 1_554
Ba1 F5 2.846412 1_554
