# generated using pymatgen
data_LiB2H3O5
_symmetry_space_group_name_H-M   'P 1'
_cell_length_a   8.38729000
_cell_length_b   9.78145600
_cell_length_c   9.97059900
_cell_angle_alpha   90.00000000
_cell_angle_beta   90.00000000
_cell_angle_gamma   90.00000000
_symmetry_Int_Tables_number   1
_chemical_formula_structural   LiB2H3O5
_chemical_formula_sum   'Li8 B16 H24 O40'
_cell_volume   817.98702560
_cell_formula_units_Z   8
loop_
 _symmetry_equiv_pos_site_id
 _symmetry_equiv_pos_as_xyz
  1  'x, y, z'
loop_
 _atom_site_type_symbol
 _atom_site_label
 _atom_site_symmetry_multiplicity
 _atom_site_fract_x
 _atom_site_fract_y
 _atom_site_fract_z
 _atom_site_occupancy
  Li  Li0  1  0.52585300  0.83185700  0.44569100  1
  Li  Li1  1  0.02585300  0.66814300  0.05430900  1
  Li  Li2  1  0.47414700  0.83185700  0.05430900  1
  Li  Li3  1  0.97414700  0.66814300  0.44569100  1
  Li  Li4  1  0.47414700  0.16814300  0.55430900  1
  Li  Li5  1  0.97414700  0.33185700  0.94569100  1
  Li  Li6  1  0.52585300  0.16814300  0.94569100  1
  Li  Li7  1  0.02585300  0.33185700  0.55430900  1
  B  B0  1  0.25000000  0.75000000  0.26530600  1
  B  B1  1  0.75000000  0.75000000  0.23469400  1
  B  B2  1  0.75000000  0.25000000  0.73469400  1
  B  B3  1  0.25000000  0.25000000  0.76530600  1
  B  B4  1  0.72514900  0.53999400  0.09598600  1
  B  B5  1  0.22514900  0.96000600  0.40401400  1
  B  B6  1  0.27485100  0.53999400  0.40401400  1
  B  B7  1  0.77485100  0.96000600  0.09598600  1
  B  B8  1  0.27485100  0.46000600  0.90401400  1
  B  B9  1  0.77485100  0.03999400  0.59598600  1
  B  B10  1  0.72514900  0.46000600  0.59598600  1
  B  B11  1  0.22514900  0.03999400  0.90401400  1
  B  B12  1  0.50000000  0.60762600  0.25000000  1
  B  B13  1  0.00000000  0.89237400  0.25000000  1
  B  B14  1  0.50000000  0.39237400  0.75000000  1
  B  B15  1  0.00000000  0.10762600  0.75000000  1
  H  H0  1  0.70865100  0.40667700  0.93794600  1
  H  H1  1  0.20865100  0.09332300  0.56205400  1
  H  H2  1  0.29134900  0.40667700  0.56205400  1
  H  H3  1  0.79134900  0.09332300  0.93794600  1
  H  H4  1  0.29134900  0.59332300  0.06205400  1
  H  H5  1  0.79134900  0.90667700  0.43794600  1
  H  H6  1  0.70865100  0.59332300  0.43794600  1
  H  H7  1  0.20865100  0.90667700  0.06205400  1
  H  H8  1  0.40594800  0.23575500  0.18302500  1
  H  H9  1  0.90594800  0.26424500  0.31697500  1
  H  H10  1  0.59405200  0.23575500  0.31697500  1
  H  H11  1  0.09405200  0.26424500  0.18302500  1
  H  H12  1  0.59405200  0.76424500  0.81697500  1
  H  H13  1  0.09405200  0.73575500  0.68302500  1
  H  H14  1  0.40594800  0.76424500  0.68302500  1
  H  H15  1  0.90594800  0.73575500  0.81697500  1
  H  H16  1  0.50152800  0.36239900  0.12477300  1
  H  H17  1  0.00152800  0.13760100  0.37522700  1
  H  H18  1  0.49847200  0.36239900  0.37522700  1
  H  H19  1  0.99847200  0.13760100  0.12477300  1
  H  H20  1  0.49847200  0.63760100  0.87522700  1
  H  H21  1  0.99847200  0.86239900  0.62477300  1
  H  H22  1  0.50152800  0.63760100  0.62477300  1
  H  H23  1  0.00152800  0.86239900  0.87522700  1
  O  O0  1  0.52720200  0.73581200  0.89148200  1
  O  O1  1  0.02720200  0.76418800  0.60851800  1
  O  O2  1  0.47279800  0.73581200  0.60851800  1
  O  O3  1  0.97279800  0.76418800  0.89148200  1
  O  O4  1  0.47279800  0.26418800  0.10851800  1
  O  O5  1  0.97279800  0.23581200  0.39148200  1
  O  O6  1  0.52720200  0.26418800  0.39148200  1
  O  O7  1  0.02720200  0.23581200  0.10851800  1
  O  O8  1  0.78776400  0.45897800  0.99416500  1
  O  O9  1  0.28776400  0.04102200  0.50583500  1
  O  O10  1  0.21223600  0.45897800  0.50583500  1
  O  O11  1  0.71223600  0.04102200  0.99416500  1
  O  O12  1  0.21223600  0.54102200  0.00583500  1
  O  O13  1  0.71223600  0.95897800  0.49416500  1
  O  O14  1  0.78776400  0.54102200  0.49416500  1
  O  O15  1  0.28776400  0.95897800  0.00583500  1
  O  O16  1  0.57479900  0.51723400  0.14704000  1
  O  O17  1  0.07479900  0.98276600  0.35296000  1
  O  O18  1  0.42520100  0.51723400  0.35296000  1
  O  O19  1  0.92520100  0.98276600  0.14704000  1
  O  O20  1  0.42520100  0.48276600  0.85296000  1
  O  O21  1  0.92520100  0.01723400  0.64704000  1
  O  O22  1  0.57479900  0.48276600  0.64704000  1
  O  O23  1  0.07479900  0.01723400  0.85296000  1
  O  O24  1  0.62301600  0.69167600  0.31867900  1
  O  O25  1  0.12301600  0.80832400  0.18132100  1
  O  O26  1  0.37698400  0.69167600  0.18132100  1
  O  O27  1  0.87698400  0.80832400  0.31867900  1
  O  O28  1  0.37698400  0.30832400  0.68132100  1
  O  O29  1  0.87698400  0.19167600  0.81867900  1
  O  O30  1  0.62301600  0.30832400  0.81867900  1
  O  O31  1  0.12301600  0.19167600  0.68132100  1
  O  O32  1  0.82081500  0.64128500  0.14604000  1
  O  O33  1  0.32081500  0.85871500  0.35396000  1
  O  O34  1  0.17918500  0.64128500  0.35396000  1
  O  O35  1  0.67918500  0.85871500  0.14604000  1
  O  O36  1  0.17918500  0.35871500  0.85396000  1
  O  O37  1  0.67918500  0.14128500  0.64604000  1
  O  O38  1  0.82081500  0.35871500  0.64604000  1
  O  O39  1  0.32081500  0.14128500  0.85396000  1
loop_
_geom_bond_atom_site_label_1
_geom_bond_atom_site_label_2
_geom_bond_distance
_geom_bond_site_symmetry_2
Li0 O2 1.927769 1_555
Li0 O33 1.965438 1_555
Li0 O24 2.036656 1_555
Li0 O13 2.055104 1_555
Li1 O3 1.927769 1_454
Li1 O32 1.965438 1_455
Li1 O25 2.036656 1_555
Li1 O12 2.055104 1_555
Li2 O0 1.927769 1_554
Li2 O35 1.965438 1_555
Li2 O26 2.036656 1_555
Li2 O15 2.055104 1_555
Li3 O1 1.927769 1_655
Li3 O34 1.965438 1_655
Li3 O27 2.036656 1_555
Li3 O14 2.055104 1_555
Li4 O6 1.927769 1_555
Li4 O37 1.965438 1_555
Li4 O28 2.036656 1_555
Li4 O9 2.055104 1_555
Li5 O7 1.927769 1_656
Li5 O36 1.965438 1_655
Li5 O29 2.036656 1_555
Li5 O8 2.055104 1_555
Li6 O4 1.927769 1_556
Li6 O39 1.965438 1_555
Li6 O30 2.036656 1_555
Li6 O11 2.055104 1_555
Li7 O5 1.927769 1_455
Li7 O38 1.965438 1_455
Li7 O31 2.036656 1_555
Li7 O10 2.055104 1_555
B0 O26 1.470036 1_555
B0 O25 1.470036 1_555
B0 O34 1.504962 1_555
B0 O33 1.504962 1_555
B1 O27 1.470036 1_555
B1 O24 1.470036 1_555
B1 O32 1.504962 1_555
B1 O35 1.504962 1_555
B2 O30 1.470036 1_555
B2 O29 1.470036 1_555
B2 O38 1.504962 1_555
B2 O37 1.504962 1_555
B3 O31 1.470036 1_555
B3 O28 1.470036 1_555
B3 O36 1.504962 1_555
B3 O39 1.504962 1_555
B4 O32 1.369128 1_555
B4 O16 1.377998 1_555
B4 O8 1.390846 1_554
B5 O33 1.369128 1_555
B5 O17 1.377998 1_555
B5 O9 1.390846 1_565
B6 O34 1.369128 1_555
B6 O18 1.377998 1_555
B6 O10 1.390846 1_555
B7 O35 1.369128 1_555
B7 O19 1.377998 1_555
B7 O11 1.390846 1_564
B8 O36 1.369128 1_555
B8 O20 1.377998 1_555
B8 O12 1.390846 1_556
B9 O37 1.369128 1_555
B9 O21 1.377998 1_555
B9 O13 1.390846 1_545
B10 O38 1.369128 1_555
B10 O22 1.377998 1_555
B10 O14 1.390846 1_555
B11 O39 1.369128 1_555
B11 O23 1.377998 1_555
B11 O15 1.390846 1_546
B12 O26 1.486392 1_555
B12 O24 1.486392 1_555
B12 O18 1.493045 1_555
B12 O16 1.493045 1_555
B13 O25 1.486392 1_555
B13 O27 1.486392 1_455
B13 O17 1.493045 1_555
B13 O19 1.493045 1_455
B14 O28 1.486392 1_555
B14 O30 1.486392 1_555
B14 O22 1.493045 1_555
B14 O20 1.493045 1_555
B15 O29 1.486392 1_455
B15 O31 1.486392 1_555
B15 O21 1.493045 1_455
B15 O23 1.493045 1_555
H0 O8 1.008070 1_555
H0 O30 1.689822 1_555
H1 O9 1.008070 1_555
H1 O31 1.689822 1_555
H2 O10 1.008070 1_555
H2 O28 1.689822 1_555
H3 O11 1.008070 1_555
H3 O29 1.689822 1_555
H4 O12 1.008070 1_555
H4 O26 1.689822 1_555
H5 O13 1.008070 1_555
H5 O27 1.689822 1_555
H6 O14 1.008070 1_555
H6 O24 1.689822 1_555
H7 O15 1.008070 1_555
H7 O25 1.689822 1_555
H8 O4 0.971387 1_555
H9 O5 0.971387 1_555
H10 O6 0.971387 1_555
H11 O7 0.971387 1_555
H12 O0 0.971387 1_555
H13 O1 0.971387 1_555
H14 O2 0.971387 1_555
H15 O3 0.971387 1_555
H16 O4 1.003581 1_555
H16 O16 1.649455 1_555
H17 O5 1.003581 1_455
H17 O17 1.649455 1_545
H18 O6 1.003581 1_555
H18 O18 1.649455 1_555
H19 O7 1.003581 1_655
H19 O19 1.649455 1_545
H20 O0 1.003581 1_555
H20 O20 1.649455 1_555
H21 O1 1.003581 1_655
H21 O21 1.649455 1_565
H22 O2 1.003581 1_555
H22 O22 1.649455 1_555
H23 O3 1.003581 1_455
H23 O23 1.649455 1_565
