# generated using pymatgen
data_UVO5
_symmetry_space_group_name_H-M   'P 1'
_cell_length_a   4.11861200
_cell_length_b   7.26547200
_cell_length_c   12.64032300
_cell_angle_alpha   90.00000000
_cell_angle_beta   90.00000000
_cell_angle_gamma   90.00000000
_symmetry_Int_Tables_number   1
_chemical_formula_structural   UVO5
_chemical_formula_sum   'U4 V4 O20'
_cell_volume   378.24472983
_cell_formula_units_Z   4
loop_
 _symmetry_equiv_pos_site_id
 _symmetry_equiv_pos_as_xyz
  1  'x, y, z'
loop_
 _atom_site_type_symbol
 _atom_site_label
 _atom_site_symmetry_multiplicity
 _atom_site_fract_x
 _atom_site_fract_y
 _atom_site_fract_z
 _atom_site_occupancy
  U  U0  1  0.99159100  0.75000000  0.52768000  1
  U  U1  1  0.99159100  0.25000000  0.97232000  1
  U  U2  1  0.00840900  0.25000000  0.47232000  1
  U  U3  1  0.00840900  0.75000000  0.02768000  1
  V  V0  1  0.90112700  0.50000000  0.25000000  1
  V  V1  1  0.09887300  0.00000000  0.75000000  1
  V  V2  1  0.09887300  0.50000000  0.75000000  1
  V  V3  1  0.90112700  0.00000000  0.25000000  1
  O  O0  1  0.01295500  0.44814400  0.59557900  1
  O  O1  1  0.01295500  0.55185600  0.90442100  1
  O  O2  1  0.98704500  0.94814400  0.40442100  1
  O  O3  1  0.98704500  0.05185600  0.09557900  1
  O  O4  1  0.98704500  0.55185600  0.40442100  1
  O  O5  1  0.98704500  0.44814400  0.09557900  1
  O  O6  1  0.01295500  0.05185600  0.59557900  1
  O  O7  1  0.01295500  0.94814400  0.90442100  1
  O  O8  1  0.50830900  0.75000000  0.02684100  1
  O  O9  1  0.50830900  0.25000000  0.47315900  1
  O  O10  1  0.49169100  0.25000000  0.97315900  1
  O  O11  1  0.49169100  0.75000000  0.52684100  1
  O  O12  1  0.49974100  0.00000000  0.25000000  1
  O  O13  1  0.50025900  0.50000000  0.75000000  1
  O  O14  1  0.50025900  0.00000000  0.75000000  1
  O  O15  1  0.49974100  0.50000000  0.25000000  1
  O  O16  1  0.99576400  0.75000000  0.19750900  1
  O  O17  1  0.99576400  0.25000000  0.30249100  1
  O  O18  1  0.00423600  0.25000000  0.80249100  1
  O  O19  1  0.00423600  0.75000000  0.69750900  1
loop_
_geom_bond_atom_site_label_1
_geom_bond_atom_site_label_2
_geom_bond_distance
_geom_bond_site_symmetry_2
O0 V2 2.019208 1_555
O0 U2 2.121390 1_555
O0 U0 2.356728 1_455
O1 V2 2.019208 1_555
O1 U3 2.121390 1_556
O1 U1 2.356728 1_455
O2 V3 2.019208 1_565
O2 U0 2.121390 1_555
O2 U2 2.356728 1_665
O3 V3 2.019208 1_555
O3 U1 2.121390 1_554
O3 U3 2.356728 1_645
O4 V0 2.019208 1_555
O4 U0 2.121390 1_555
O4 U2 2.356728 1_655
O5 V0 2.019208 1_555
O5 U1 2.121390 1_554
O5 U3 2.356728 1_655
O6 V1 2.019208 1_555
O6 U2 2.121390 1_555
O6 U0 2.356728 1_445
O7 V1 2.019208 1_565
O7 U3 2.121390 1_556
O7 U1 2.356728 1_465
O8 U3 2.058921 1_555
O8 U3 2.059745 1_655
O9 U2 2.058921 1_555
O9 U2 2.059745 1_655
O10 U1 2.058921 1_555
O10 U1 2.059745 1_455
O11 U0 2.058921 1_555
O11 U0 2.059745 1_455
O12 V3 1.653153 1_555
O12 V3 2.465459 1_455
O13 V2 1.653153 1_555
O13 V2 2.465459 1_655
O14 V1 1.653153 1_555
O14 V1 2.465459 1_655
O15 V0 1.653153 1_555
O15 V0 2.465459 1_455
O16 V0 1.972651 1_555
O16 V3 1.972651 1_565
O16 U3 2.147325 1_655
O17 V3 1.972651 1_555
O17 V0 1.972651 1_555
O17 U2 2.147325 1_655
O18 V1 1.972651 1_555
O18 V2 1.972651 1_555
O18 U1 2.147325 1_455
O19 V1 1.972651 1_565
O19 V2 1.972651 1_555
O19 U0 2.147325 1_455
