# generated using pymatgen
data_H8NF5
_symmetry_space_group_name_H-M   'P 1'
_cell_length_a   7.92311108
_cell_length_b   7.92308189
_cell_length_c   7.92288488
_cell_angle_alpha   133.78328274
_cell_angle_beta   133.78338542
_cell_angle_gamma   67.42958086
_symmetry_Int_Tables_number   1
_chemical_formula_structural   H8NF5
_chemical_formula_sum   'H16 N2 F10'
_cell_volume   254.90168845
_cell_formula_units_Z   2
loop_
 _symmetry_equiv_pos_site_id
 _symmetry_equiv_pos_as_xyz
  1  'x, y, z'
loop_
 _atom_site_type_symbol
 _atom_site_label
 _atom_site_symmetry_multiplicity
 _atom_site_fract_x
 _atom_site_fract_y
 _atom_site_fract_z
 _atom_site_occupancy
  H  H0  1  0.14356498  0.13624692  0.19082554  1
  H  H1  1  0.70281109  0.39369987  0.50754475  1
  H  H2  1  0.88613493  0.19529941  0.49246001  1
  H  H3  1  0.94540328  0.95272922  0.80914328  1
  H  H4  1  0.60636183  0.11384052  0.30919378  1
  H  H5  1  0.04726661  0.85634791  0.99261404  1
  H  H6  1  0.86375125  0.05462790  0.00739451  1
  H  H7  1  0.80462501  0.29718146  0.69080996  1
  H  H8  1  0.69201836  0.70558238  0.26663873  1
  H  H9  1  0.17562849  0.94227541  0.48667089  1
  H  H10  1  0.45560608  0.68895428  0.51331886  1
  H  H11  1  0.43895819  0.42539109  0.73337952  1
  H  H12  1  0.31109471  0.82441379  0.76659994  1
  H  H13  1  0.29433971  0.56094217  0.98643746  1
  H  H14  1  0.57452896  0.30787515  0.01357616  1
  H  H15  1  0.05781538  0.54449659  0.23340351  1
  N  N0  1  -0.00001005  -0.00001877  -0.00000656  1
  N  N1  1  0.75001776  0.25002650  0.50000833  1
  F  F0  1  0.81848471  0.84527740  0.44591428  1
  F  F1  1  0.12232924  0.06844168  0.47296477  1
  F  F2  1  0.59548335  0.64937748  0.52704355  1
  F  F3  1  0.39936100  0.37259705  0.55410398  1
  F  F4  1  0.93154050  0.40461490  0.05400040  1
  F  F5  1  0.62749332  0.18148646  0.02681141  1
  F  F6  1  0.15469613  0.60066378  0.97316515  1
  F  F7  1  0.35060614  0.87755232  0.94599938  1
  F  F8  1  0.50017445  0.50015338  0.00000125  1
  F  F9  1  0.24991459  0.74992277  0.49998412  1
loop_
_geom_bond_atom_site_label_1
_geom_bond_atom_site_label_2
_geom_bond_distance
_geom_bond_site_symmetry_2
H0 N0 1.024359 1_555
H1 N1 1.024343 1_555
H2 N1 1.024251 1_555
H3 N0 1.024450 1_666
H4 N1 1.024389 1_555
H5 N0 1.024606 1_566
H6 N0 1.024585 1_655
H7 N1 1.024397 1_555
F0 H8 0.976084 1_555
F1 H9 0.975750 1_545
F2 H10 0.975727 1_555
F3 H11 0.976081 1_555
F4 H15 0.976126 1_655
F5 H14 0.975558 1_555
F6 H13 0.975575 1_555
F7 H12 0.976115 1_555
F8 H11 1.455844 1_554
F8 H8 1.455860 1_555
F8 H13 1.459222 1_554
F8 H14 1.459317 1_555
F9 H15 1.456819 1_555
F9 H12 1.456957 1_555
F9 H9 1.458826 1_555
F9 H10 1.458943 1_555
