# generated using pymatgen
data_Na6Nb2In6Si5S7O48
_symmetry_space_group_name_H-M   'P 1'
_cell_length_a   18.00612339
_cell_length_b   9.05920445
_cell_length_c   23.31286506
_cell_angle_alpha   89.95214771
_cell_angle_beta   90.41609522
_cell_angle_gamma   120.26080886
_symmetry_Int_Tables_number   1
_chemical_formula_structural   Na6Nb2In6Si5S7O48
_chemical_formula_sum   'Na18 Nb6 In18 Si15 S21 O144'
_cell_volume   3284.54652731
_cell_formula_units_Z   3
loop_
 _symmetry_equiv_pos_site_id
 _symmetry_equiv_pos_as_xyz
  1  'x, y, z'
loop_
 _atom_site_type_symbol
 _atom_site_label
 _atom_site_symmetry_multiplicity
 _atom_site_fract_x
 _atom_site_fract_y
 _atom_site_fract_z
 _atom_site_occupancy
  Na  Na0  1  0.99036517  0.67846905  0.91034076  1
  Na  Na1  1  0.34902081  0.03352448  0.91406403  1
  Na  Na2  1  0.17145334  0.30452258  0.91166133  1
  Na  Na3  1  0.49020659  0.30356649  0.42061164  1
  Na  Na4  1  0.67034154  0.03589541  0.41565915  1
  Na  Na5  1  0.84623833  0.66254977  0.41775316  1
  Na  Na6  1  0.99988072  0.00075819  0.49356912  1
  Na  Na7  1  0.49673105  0.99620504  0.49927400  1
  Na  Na8  1  0.99766571  0.00246967  0.99553128  1
  Na  Na9  1  0.49945165  0.99862332  0.99059575  1
  Na  Na10  1  0.33804618  0.34583634  0.83815343  1
  Na  Na11  1  0.82706713  0.32183919  0.81952056  1
  Na  Na12  1  0.32940410  0.33597810  0.32372236  1
  Na  Na13  1  0.83518036  0.32619510  0.34370675  1
  Na  Na14  1  0.17211215  0.67237323  0.16759175  1
  Na  Na15  1  0.66561104  0.66894622  0.16755492  1
  Na  Na16  1  0.16897065  0.66491232  0.66657563  1
  Na  Na17  1  0.66046625  0.65669899  0.66006720  1
  Nb  Nb0  1  0.99543279  0.98654441  0.65433569  1
  Nb  Nb1  1  0.49975699  0.01755381  0.64188907  1
  Nb  Nb2  1  0.00036260  0.99672052  0.14673816  1
  Nb  Nb3  1  0.49475336  0.00315142  0.15435371  1
  Nb  Nb4  1  0.16564336  0.67779929  0.31148935  1
  Nb  Nb5  1  0.66166583  0.64917780  0.80758714  1
  In  In0  1  0.00180891  0.99689977  0.35569884  1
  In  In1  1  0.49880889  0.00708921  0.34705590  1
  In  In2  1  0.99916912  0.98983946  0.84572827  1
  In  In3  1  0.50176959  0.00736623  0.85325163  1
  In  In4  1  0.33811635  0.34676400  0.67768785  1
  In  In5  1  0.83265121  0.33109988  0.68924285  1
  In  In6  1  0.33335724  0.33429149  0.19004065  1
  In  In7  1  0.83146646  0.32185661  0.18085688  1
  In  In8  1  0.34464596  0.35237815  0.97632389  1
  In  In9  1  0.82680515  0.30809751  0.98487555  1
  In  In10  1  0.33531707  0.34885224  0.49120060  1
  In  In11  1  0.84201616  0.33232358  0.47780895  1
  In  In12  1  0.17207749  0.68280657  0.01018290  1
  In  In13  1  0.66780375  0.67177918  0.01872113  1
  In  In14  1  0.16768358  0.66411450  0.51990288  1
  In  In15  1  0.66651185  0.65291388  0.51475704  1
  In  In16  1  0.66775215  0.65301407  0.31587137  1
  In  In17  1  0.17059158  0.68558777  0.81323672  1
  Si  Si0  1  0.14271498  0.00176082  0.25171708  1
  Si  Si1  1  0.35198227  0.70513152  0.25434900  1
  Si  Si2  1  0.50506332  0.31023438  0.25299626  1
  Si  Si3  1  0.64268794  0.27881993  0.75109860  1
  Si  Si4  1  0.00447016  0.69855316  0.75283476  1
  Si  Si5  1  0.85292965  0.99916393  0.75444029  1
  Si  Si6  1  0.48498272  0.34875745  0.58092219  1
  Si  Si7  1  0.32913210  0.62974061  0.58564590  1
  Si  Si8  1  0.83039920  0.03158706  0.08437084  1
  Si  Si9  1  0.31307289  0.66945674  0.91388880  1
  Si  Si10  1  0.52623003  0.37869484  0.91892953  1
  Si  Si11  1  0.16288865  0.96423332  0.91889543  1
  Si  Si12  1  0.81037292  0.95114682  0.41479237  1
  Si  Si13  1  0.66396111  0.36144685  0.41672958  1
  Si  Si14  1  0.02477379  0.67041266  0.41939563  1
  S  S0  1  0.64810570  0.00333137  0.24845636  1
  S  S1  1  0.85512555  0.70297276  0.24553401  1
  S  S2  1  0.00002510  0.29035186  0.24960218  1
  S  S3  1  0.14958193  0.29349118  0.74832545  1
  S  S4  1  0.49878142  0.70811594  0.75093691  1
  S  S5  1  0.35463002  0.00592794  0.74618503  1
  S  S6  1  0.97986184  0.32543820  0.58602293  1
  S  S7  1  0.18059497  0.03609458  0.58521381  1
  S  S8  1  0.68533636  0.03872793  0.58382397  1
  S  S9  1  0.83693044  0.63261598  0.58448026  1
  S  S10  1  0.47996951  0.63393986  0.08602225  1
  S  S11  1  0.98253715  0.63117850  0.08376461  1
  S  S12  1  0.33450668  0.03805205  0.08457067  1
  S  S13  1  0.18372168  0.33453305  0.08399191  1
  S  S14  1  0.68236875  0.32811249  0.08504383  1
  S  S15  1  0.81154056  0.66020929  0.91756801  1
  S  S16  1  0.01611915  0.37081225  0.91794037  1
  S  S17  1  0.66888989  0.95809493  0.91489088  1
  S  S18  1  0.31059841  0.96084888  0.41599093  1
  S  S19  1  0.17070065  0.38155913  0.41512798  1
  S  S20  1  0.51539020  0.66369819  0.41590803  1
  O  O0  1  0.09913974  0.03033485  0.30588522  1
  O  O1  1  0.61166329  0.02157817  0.30239798  1
  O  O2  1  0.41169362  0.78911238  0.30907399  1
  O  O3  1  0.90296370  0.77440211  0.29937070  1
  O  O4  1  0.49122405  0.20480859  0.31132496  1
  O  O5  1  0.98570632  0.19016159  0.30151761  1
  O  O6  1  0.11328489  0.20217678  0.80321025  1
  O  O7  1  0.60322139  0.17301744  0.80797735  1
  O  O8  1  0.48847661  0.78345346  0.80400679  1
  O  O9  1  0.99094267  0.77316003  0.81259696  1
  O  O10  1  0.40134194  0.02708010  0.80104055  1
  O  O11  1  0.91194941  0.03596937  0.81002051  1
  O  O12  1  0.40366697  0.99185144  0.69656290  1
  O  O13  1  0.90408212  0.97096753  0.69731027  1
  O  O14  1  0.09007308  0.19116465  0.69855727  1
  O  O15  1  0.58106837  0.18731409  0.69450720  1
  O  O16  1  0.01177006  0.83482283  0.69784827  1
  O  O17  1  0.51065430  0.81106926  0.69967154  1
  O  O18  1  0.40392517  0.83640225  0.19670684  1
  O  O19  1  0.90490633  0.81892488  0.19528935  1
  O  O20  1  0.00935314  0.20137297  0.19776519  1
  O  O21  1  0.51208372  0.18889722  0.19686515  1
  O  O22  1  0.08046053  0.97235362  0.19403036  1
  O  O23  1  0.59053749  0.98922081  0.19763976  1
  O  O24  1  0.44013472  0.35879619  0.63864403  1
  O  O25  1  0.93732877  0.34970520  0.63588674  1
  O  O26  1  0.23410854  0.11701322  0.63647777  1
  O  O27  1  0.73957064  0.12537034  0.63446013  1
  O  O28  1  0.30934567  0.51328510  0.64183850  1
  O  O29  1  0.82802898  0.52556433  0.63442949  1
  O  O30  1  0.43773238  0.52492656  0.13593334  1
  O  O31  1  0.93941358  0.52932681  0.13495708  1
  O  O32  1  0.32544734  0.12553533  0.13456011  1
  O  O33  1  0.81640461  0.11405915  0.14142733  1
  O  O34  1  0.23793708  0.35852819  0.13464613  1
  O  O35  1  0.73726061  0.35741356  0.13630444  1
  O  O36  1  0.21592720  0.29980710  0.03109742  1
  O  O37  1  0.72112352  0.30383207  0.03207550  1
  O  O38  1  0.42834737  0.56305430  0.03271142  1
  O  O39  1  0.93114696  0.56067983  0.03037036  1
  O  O40  1  0.34725041  0.13180056  0.03045184  1
  O  O41  1  0.85796275  0.15237465  0.02774876  1
  O  O42  1  0.21753814  0.13710484  0.53182045  1
  O  O43  1  0.71916501  0.14035611  0.53066611  1
  O  O44  1  0.35434479  0.56838598  0.52702869  1
  O  O45  1  0.85025886  0.56400201  0.53026618  1
  O  O46  1  0.42872366  0.29677860  0.52087744  1
  O  O47  1  0.92848513  0.29346576  0.53245530  1
  O  O48  1  0.28003330  0.71553657  0.97351828  1
  O  O49  1  0.77479125  0.68270938  0.96998817  1
  O  O50  1  0.06868074  0.44567709  0.97124533  1
  O  O51  1  0.58119073  0.46545289  0.97609287  1
  O  O52  1  0.13059965  0.83322199  0.97394787  1
  O  O53  1  0.66266849  0.87016375  0.96939233  1
  O  O54  1  0.27253240  0.86325785  0.46792504  1
  O  O55  1  0.77192987  0.83276799  0.47206721  1
  O  O56  1  0.16194807  0.45854254  0.46830703  1
  O  O57  1  0.63428735  0.43279512  0.47030556  1
  O  O58  1  0.08213283  0.69448052  0.47497363  1
  O  O59  1  0.56831878  0.69339942  0.46830622  1
  O  O60  1  0.07872096  0.65186833  0.36211996  1
  O  O61  1  0.55463986  0.63743312  0.36404492  1
  O  O62  1  0.25784874  0.86558668  0.36303238  1
  O  O63  1  0.74825824  0.87633867  0.35739433  1
  O  O64  1  0.17949788  0.48878607  0.36328046  1
  O  O65  1  0.68769620  0.48011964  0.35978310  1
  O  O66  1  0.05569527  0.47587600  0.86673624  1
  O  O67  1  0.57967318  0.50573051  0.86241872  1
  O  O68  1  0.18466761  0.88481931  0.86376440  1
  O  O69  1  0.67825624  0.86942156  0.86405931  1
  O  O70  1  0.24642460  0.61917519  0.85941530  1
  O  O71  1  0.75927144  0.64212439  0.86526433  1
  O  O72  1  0.01030322  0.83248382  0.41459556  1
  O  O73  1  0.50718200  0.81821196  0.41077835  1
  O  O74  1  0.39795566  0.98360394  0.41130373  1
  O  O75  1  0.90498694  0.96658405  0.40924445  1
  O  O76  1  0.09161633  0.21244746  0.41041811  1
  O  O77  1  0.58021204  0.16285147  0.41215140  1
  O  O78  1  0.00604043  0.19844327  0.91318565  1
  O  O79  1  0.51053909  0.18652071  0.91453111  1
  O  O80  1  0.07978882  0.99672567  0.91269196  1
  O  O81  1  0.59079166  0.97193864  0.91134916  1
  O  O82  1  0.40682580  0.84228766  0.90789215  1
  O  O83  1  0.89987456  0.81227528  0.91303448  1
  O  O84  1  0.49259526  0.16804919  0.59119268  1
  O  O85  1  0.98967051  0.17100934  0.59418461  1
  O  O86  1  0.09382007  0.02298478  0.59242105  1
  O  O87  1  0.59679602  0.01919820  0.59260989  1
  O  O88  1  0.41823160  0.82059494  0.59961447  1
  O  O89  1  0.91822692  0.80918345  0.59271560  1
  O  O90  1  0.49003028  0.80863184  0.09416572  1
  O  O91  1  0.99112448  0.80730283  0.09113352  1
  O  O92  1  0.41473247  0.02115120  0.09265421  1
  O  O93  1  0.91835914  0.01297365  0.09848973  1
  O  O94  1  0.09441526  0.17427501  0.09420977  1
  O  O95  1  0.59687802  0.16725828  0.09221825  1
  O  O96  1  0.34386191  0.15672392  0.73987385  1
  O  O97  1  0.83705984  0.15324556  0.74216926  1
  O  O98  1  0.23352412  0.30344377  0.74172877  1
  O  O99  1  0.73914118  0.32307866  0.74239078  1
  O  O100  1  0.42522234  0.53103159  0.74678387  1
  O  O101  1  0.91829286  0.52090183  0.74201172  1
  O  O102  1  0.33669439  0.51985406  0.24189600  1
  O  O103  1  0.84803523  0.53400755  0.23631960  1
  O  O104  1  0.41882804  0.31452552  0.24178935  1
  O  O105  1  0.92681220  0.32106206  0.24172063  1
  O  O106  1  0.23787596  0.15338680  0.24137141  1
  O  O107  1  0.73274421  0.16317545  0.24272656  1
  O  O108  1  0.31682265  0.49406038  0.92042050  1
  O  O109  1  0.82204496  0.50452483  0.92149799  1
  O  O110  1  0.43051216  0.35746444  0.91580021  1
  O  O111  1  0.93101609  0.36469739  0.92341662  1
  O  O112  1  0.25002759  0.14933522  0.92789657  1
  O  O113  1  0.74775154  0.13436418  0.91617771  1
  O  O114  1  0.31677081  0.13098076  0.41615461  1
  O  O115  1  0.81677138  0.13658550  0.42125393  1
  O  O116  1  0.24876395  0.36352436  0.41788453  1
  O  O117  1  0.75093245  0.34852188  0.42554294  1
  O  O118  1  0.42942123  0.50250067  0.42066498  1
  O  O119  1  0.92956626  0.50010009  0.41669270  1
  O  O120  1  0.16869914  0.48095758  0.07946594  1
  O  O121  1  0.67052277  0.47703032  0.08077666  1
  O  O122  1  0.06920837  0.65182429  0.08078761  1
  O  O123  1  0.56672746  0.65468891  0.08119805  1
  O  O124  1  0.25839306  0.86169776  0.08249080  1
  O  O125  1  0.74959178  0.83847596  0.07852938  1
  O  O126  1  0.16798848  0.86254661  0.58082206  1
  O  O127  1  0.67386777  0.86707221  0.57936345  1
  O  O128  1  0.24912655  0.66515164  0.57978402  1
  O  O129  1  0.76335032  0.65975869  0.58243233  1
  O  O130  1  0.06628488  0.47854640  0.58126983  1
  O  O131  1  0.58109294  0.51318893  0.57959248  1
  O  O132  1  0.14789625  0.81988052  0.25922002  1
  O  O133  1  0.65434775  0.84821941  0.24655684  1
  O  O134  1  0.25802046  0.69694222  0.26004434  1
  O  O135  1  0.77181394  0.69478877  0.24441685  1
  O  O136  1  0.08172852  0.46153089  0.25333635  1
  O  O137  1  0.59367289  0.49334213  0.24869972  1
  O  O138  1  0.15411317  0.45979790  0.74725552  1
  O  O139  1  0.64700205  0.47207928  0.75884222  1
  O  O140  1  0.09326527  0.69407747  0.74865217  1
  O  O141  1  0.58149681  0.69641778  0.75676605  1
  O  O142  1  0.27133572  0.84442689  0.74573805  1
  O  O143  1  0.75886852  0.81877833  0.76209963  1
loop_
_geom_bond_atom_site_label_1
_geom_bond_atom_site_label_2
_geom_bond_distance
_geom_bond_site_symmetry_2
Na0 O9 2.432381 1_555
Na0 O83 2.473961 1_555
Na0 O80 2.495653 1_655
Na0 O111 2.501315 1_555
Na0 O52 2.630884 1_655
Na0 O109 2.633202 1_555
Na0 O66 2.825252 1_655
Na0 O39 2.999553 1_556
Na1 O82 2.434226 1_545
Na1 O112 2.505135 1_555
Na1 O79 2.513229 1_555
Na1 O110 2.534984 1_555
Na1 O68 2.807462 1_545
Na1 O10 2.815211 1_555
Na1 O48 2.859101 1_545
Na1 O40 2.861770 1_556
Na2 O108 2.303142 1_555
Na2 O80 2.421129 1_545
Na2 O112 2.473357 1_555
Na2 O78 2.629179 1_555
Na2 O6 2.708449 1_555
Na2 O70 2.751547 1_555
Na2 O36 2.897908 1_556
Na3 O57 2.518087 1_555
Na3 O74 2.520174 1_545
Na3 O77 2.525413 1_555
Na3 O118 2.536510 1_555
Na3 O46 2.581074 1_555
Na3 O114 2.698577 1_555
Na3 O4 2.704253 1_555
Na3 O61 2.951602 1_555
Na4 O115 2.317781 1_555
Na4 O77 2.417093 1_555
Na4 O117 2.456418 1_555
Na4 O73 2.586363 1_545
Na4 O1 2.815498 1_555
Na4 O63 2.824464 1_545
Na4 O43 2.826381 1_555
Na4 O59 2.964753 1_545
Na5 O75 2.410429 1_555
Na5 O117 2.480784 1_555
Na5 O72 2.553786 1_655
Na5 O119 2.577545 1_555
Na5 O45 2.782242 1_555
Na5 O55 2.806927 1_555
Na5 O65 2.810664 1_555
Na5 O3 2.946159 1_555
Na6 O72 2.459026 1_645
Na6 O75 2.509788 1_545
Na6 O76 2.647930 1_655
Na6 O86 2.795240 1_655
Na6 O89 2.826148 1_545
Na6 O85 2.865783 1_555
Na7 O77 2.532979 1_565
Na7 O74 2.669276 1_555
Na7 O84 2.673160 1_565
Na7 O73 2.684928 1_555
Na7 O87 2.754998 1_565
Na7 O88 2.788587 1_555
Na8 O80 2.457261 1_645
Na8 O78 2.566835 1_655
Na8 O83 2.581990 1_545
Na8 O91 2.809737 1_546
Na8 O94 2.822146 1_656
Na8 O93 2.827826 1_556
Na9 O79 2.395721 1_565
Na9 O82 2.466183 1_555
Na9 O81 2.573351 1_555
Na9 O95 2.875518 1_566
Na9 O92 2.897748 1_566
Na9 O90 2.919898 1_556
Na10 O110 2.416538 1_555
Na10 O108 2.481842 1_555
Na10 O100 2.684087 1_555
Na10 O112 2.693758 1_555
Na10 O98 2.820334 1_555
Na10 O96 2.895929 1_555
Na11 O99 2.390904 1_555
Na11 O97 2.429651 1_555
Na11 O101 2.503493 1_555
Na11 O113 2.756344 1_555
Na11 O109 2.925689 1_555
Na11 O111 2.953642 1_555
Na12 O102 2.491772 1_555
Na12 O106 2.519884 1_555
Na12 O104 2.576739 1_555
Na12 O116 2.720642 1_555
Na12 O114 2.778254 1_555
Na12 O118 2.799126 1_555
Na13 O119 2.351475 1_555
Na13 O115 2.399662 1_555
Na13 O117 2.516723 1_555
Na13 O107 2.884857 1_555
Na13 O105 2.917510 1_555
Na14 O124 2.577760 1_555
Na14 O134 2.587122 1_555
Na14 O120 2.669892 1_555
Na14 O132 2.672896 1_555
Na14 O122 2.676113 1_555
Na14 O136 2.683398 1_555
Na15 O137 2.396019 1_555
Na15 O133 2.532433 1_555
Na15 O135 2.534211 1_555
Na15 O125 2.579220 1_555
Na15 O123 2.637530 1_555
Na15 O121 2.699398 1_555
Na16 O140 2.447651 1_555
Na16 O128 2.493262 1_555
Na16 O142 2.526354 1_555
Na16 O138 2.561744 1_555
Na16 O130 2.651437 1_555
Na16 O126 2.688484 1_555
Na17 O131 2.311926 1_555
Na17 O129 2.589450 1_555
Na17 O127 2.601394 1_555
Na17 O139 2.784173 1_555
Na17 O141 2.792300 1_555
Na17 O143 2.876794 1_555
Nb0 O16 1.845424 1_655
Nb0 O13 1.875899 1_555
Nb0 O14 2.048632 1_665
Nb0 O89 2.074002 1_555
Nb0 O86 2.185814 1_665
Nb0 O85 2.222277 1_565
Nb1 O84 1.855945 1_555
Nb1 O88 1.911000 1_545
Nb1 O15 1.929030 1_555
Nb1 O12 2.073149 1_545
Nb1 O87 2.091887 1_555
Nb1 O17 2.390416 1_545
Nb2 O22 1.908334 1_555
Nb2 O93 1.913594 1_465
Nb2 O19 2.016102 1_455
Nb2 O94 2.058218 1_565
Nb2 O91 2.089386 1_455
Nb2 O20 2.139389 1_565
Nb3 O21 1.838521 1_555
Nb3 O18 1.860795 1_545
Nb3 O23 2.050055 1_545
Nb3 O92 2.092359 1_555
Nb3 O90 2.220980 1_545
Nb3 O95 2.229288 1_555
Nb4 O60 1.885165 1_555
Nb4 O132 1.910495 1_555
Nb4 O134 1.993266 1_555
Nb4 O62 2.054799 1_555
Nb4 O64 2.207883 1_555
Nb4 O136 2.224993 1_555
Nb5 O139 1.872653 1_555
Nb5 O67 1.895621 1_555
Nb5 O143 1.965316 1_555
Nb5 O141 2.065816 1_555
Nb5 O71 2.231503 1_555
Nb5 O69 2.280655 1_555
In0 O0 2.001436 1_565
In0 O75 2.054642 1_455
In0 O72 2.085749 1_555
In0 O76 2.201579 1_565
In0 O5 2.290732 1_465
In0 O3 2.304291 1_455
In1 O2 2.001210 1_545
In1 O4 2.040407 1_555
In1 O77 2.080690 1_555
In1 O1 2.234303 1_555
In1 O74 2.288233 1_545
In1 O73 2.325917 1_545
In2 O11 1.993980 1_565
In2 O9 2.044379 1_555
In2 O80 2.103386 1_655
In2 O6 2.224317 1_665
In2 O83 2.320373 1_555
In2 O78 2.413757 1_665
In3 O7 1.991351 1_555
In3 O82 2.057526 1_545
In3 O79 2.107665 1_555
In3 O81 2.234532 1_545
In3 O8 2.236187 1_545
In3 O10 2.253132 1_555
In4 O28 2.005451 1_555
In4 O24 2.009255 1_555
In4 O26 2.193385 1_555
In4 O100 2.273839 1_555
In4 O98 2.285774 1_555
In4 O96 2.291188 1_555
In5 O101 2.037515 1_555
In5 O97 2.061291 1_555
In5 O99 2.069381 1_555
In5 O27 2.176764 1_555
In5 O25 2.200404 1_555
In5 O29 2.210403 1_555
In6 O104 2.026432 1_555
In6 O102 2.047315 1_555
In6 O106 2.064095 1_555
In6 O30 2.205741 1_555
In6 O32 2.235987 1_555
In6 O34 2.239527 1_555
In7 O33 1.986693 1_555
In7 O35 2.141138 1_555
In7 O107 2.182902 1_555
In7 O31 2.190994 1_555
In7 O103 2.208000 1_555
In7 O105 2.222124 1_555
In8 O108 2.057368 1_555
In8 O110 2.084045 1_555
In8 O112 2.092291 1_555
In8 O38 2.172192 1_556
In8 O40 2.382634 1_556
In8 O36 2.481667 1_556
In9 O41 2.022642 1_556
In9 O113 2.186636 1_555
In9 O37 2.188520 1_556
In9 O111 2.214700 1_555
In9 O109 2.346149 1_555
In9 O39 2.352194 1_556
In10 O44 2.020452 1_555
In10 O46 2.076580 1_555
In10 O42 2.236064 1_555
In10 O118 2.274239 1_555
In10 O116 2.353221 1_555
In10 O114 2.530025 1_555
In11 O115 2.066911 1_555
In11 O117 2.099823 1_555
In11 O119 2.106997 1_555
In11 O47 2.166542 1_555
In11 O43 2.365344 1_555
In11 O45 2.368613 1_555
In12 O48 2.009960 1_554
In12 O52 2.035388 1_554
In12 O50 2.202893 1_554
In12 O124 2.304660 1_555
In12 O122 2.395525 1_555
In12 O120 2.416745 1_555
In13 O51 1.989010 1_554
In13 O125 2.031163 1_555
In13 O53 2.173358 1_554
In13 O49 2.202503 1_554
In13 O123 2.282960 1_555
In13 O121 2.299941 1_555
In14 O58 1.987187 1_555
In14 O128 2.013914 1_555
In14 O56 2.175737 1_555
In14 O54 2.209998 1_555
In14 O130 2.268649 1_555
In14 O126 2.289695 1_555
In15 O55 2.038596 1_555
In15 O57 2.053185 1_555
In15 O131 2.078672 1_555
In15 O59 2.249087 1_555
In15 O129 2.320489 1_555
In15 O127 2.406877 1_555
In16 O63 2.039255 1_555
In16 O65 2.046725 1_555
In16 O137 2.086297 1_555
In16 O61 2.274337 1_555
In16 O135 2.399722 1_555
In16 O133 2.493282 1_555
In17 O70 2.047189 1_555
In17 O68 2.060956 1_555
In17 O140 2.070946 1_555
In17 O142 2.290033 1_555
In17 O66 2.348858 1_555
In17 O138 2.454595 1_555
O0 Si0 1.580184 1_555
O1 S0 1.470017 1_555
O2 Si1 1.587366 1_555
O3 S1 1.469633 1_555
O4 Si2 1.608174 1_555
O5 S2 1.456692 1_655
O6 S3 1.487990 1_555
O7 Si3 1.583370 1_555
O8 S4 1.470817 1_555
O9 Si4 1.621621 1_655
O10 S5 1.483895 1_555
O11 Si5 1.594698 1_545
O12 S5 1.504234 1_565
O13 Si5 1.715508 1_555
O14 S3 1.528483 1_555
O15 Si3 1.646930 1_555
O16 Si4 1.738035 1_555
O17 S4 1.464527 1_555
O18 Si1 1.728978 1_555
O19 S1 1.530732 1_555
O20 S2 1.509769 1_555
O21 Si2 1.755416 1_555
O22 Si0 1.677453 1_565
O23 S0 1.530743 1_565
O24 Si6 1.600375 1_555
O25 S6 1.472836 1_555
O26 S7 1.472058 1_555
O27 S8 1.474963 1_555
O28 Si7 1.606771 1_555
O29 S9 1.471847 1_555
O30 S10 1.470219 1_555
O31 S11 1.472455 1_555
O32 S12 1.465423 1_555
O33 Si8 1.608503 1_555
O34 S13 1.471244 1_555
O35 S14 1.481358 1_555
O36 S13 1.466539 1_555
O37 S14 1.492599 1_555
O38 S10 1.484570 1_555
O39 S11 1.484104 1_555
O40 S12 1.473682 1_555
O41 Si8 1.626619 1_555
O42 S7 1.491939 1_555
O43 S8 1.482658 1_555
O44 Si7 1.626979 1_555
O45 S9 1.482378 1_555
O46 Si6 1.645338 1_555
O47 S6 1.487616 1_555
O48 Si9 1.650436 1_555
O49 S15 1.456350 1_555
O50 S16 1.495786 1_555
O51 Si10 1.603650 1_555
O52 Si11 1.645197 1_555
O53 S17 1.473745 1_555
O54 S18 1.454929 1_555
O55 Si12 1.635528 1_555
O56 S19 1.470806 1_555
O57 Si13 1.619385 1_555
O58 Si14 1.595967 1_555
O59 S20 1.482585 1_555
O60 Si14 1.714178 1_555
O61 S20 1.483352 1_555
O62 S18 1.526368 1_555
O63 Si12 1.648206 1_555
O64 S19 1.508449 1_555
O65 Si13 1.625948 1_555
O66 S16 1.471578 1_555
O67 Si10 1.698760 1_555
O68 Si11 1.617552 1_555
O69 S17 1.489659 1_555
O70 Si9 1.639599 1_555
O71 S15 1.492548 1_555
O72 Si14 1.618952 1_555
O73 S20 1.484413 1_555
O74 S18 1.484690 1_555
O75 Si12 1.643682 1_555
O76 S19 1.478564 1_555
O77 Si13 1.669079 1_555
O78 S16 1.482554 1_555
O79 Si10 1.620296 1_555
O80 Si11 1.669488 1_555
O81 S17 1.475168 1_555
O82 Si9 1.630919 1_555
O83 S15 1.494191 1_555
O84 Si6 1.726603 1_555
O85 S6 1.507549 1_555
O86 S7 1.516717 1_555
O87 S8 1.528183 1_555
O88 Si7 1.693214 1_555
O89 S9 1.541028 1_555
O90 S10 1.511437 1_555
O91 S11 1.533169 1_555
O92 S12 1.537729 1_555
O93 Si8 1.704922 1_555
O94 S13 1.549956 1_555
O95 S14 1.504513 1_555
O96 S5 1.480425 1_555
O97 Si5 1.584950 1_545
O98 S3 1.477272 1_555
O99 Si3 1.587899 1_555
O100 S4 1.481260 1_555
O101 Si4 1.593619 1_655
O102 Si1 1.584703 1_555
O103 S1 1.486152 1_555
O104 Si2 1.592411 1_555
O105 S2 1.488311 1_655
O106 Si0 1.585640 1_555
O107 S0 1.488533 1_555
O108 Si9 1.630978 1_555
O109 S15 1.517145 1_555
O110 Si10 1.636122 1_555
O111 S16 1.511562 1_655
O112 Si11 1.631511 1_545
O113 S17 1.510403 1_545
O114 S18 1.488357 1_545
O115 Si12 1.631937 1_545
O116 S19 1.495564 1_555
O117 Si13 1.639643 1_555
O118 S20 1.504970 1_555
O119 Si14 1.629767 1_655
O120 S13 1.484879 1_555
O121 S14 1.471358 1_555
O122 S11 1.477388 1_455
O123 S10 1.481531 1_555
O124 S12 1.491786 1_565
O125 Si8 1.621164 1_565
O126 S7 1.474477 1_565
O127 S8 1.465600 1_565
O128 Si7 1.630866 1_555
O129 S9 1.464749 1_555
O130 S6 1.478025 1_455
O131 Si6 1.617812 1_555
O132 Si0 1.705402 1_565
O133 S0 1.465780 1_565
O134 Si1 1.662034 1_555
O135 S1 1.464197 1_555
O136 S2 1.508546 1_555
O137 Si2 1.625392 1_555
O138 S3 1.467384 1_555
O139 Si3 1.722525 1_555
O140 Si4 1.623299 1_555
O141 S4 1.550509 1_555
O142 S5 1.475908 1_565
O143 Si5 1.668910 1_555
