# generated using pymatgen
data_Na4Y2Si2SO12
_symmetry_space_group_name_H-M   'P 1'
_cell_length_a   9.51382022
_cell_length_b   9.51381739
_cell_length_c   23.25748149
_cell_angle_alpha   89.91247434
_cell_angle_beta   90.08754565
_cell_angle_gamma   119.92927185
_symmetry_Int_Tables_number   1
_chemical_formula_structural   Na4Y2Si2SO12
_chemical_formula_sum   'Na24 Y12 Si12 S6 O72'
_cell_volume   1824.36391504
_cell_formula_units_Z   6
loop_
 _symmetry_equiv_pos_site_id
 _symmetry_equiv_pos_as_xyz
  1  'x, y, z'
loop_
 _atom_site_type_symbol
 _atom_site_label
 _atom_site_symmetry_multiplicity
 _atom_site_fract_x
 _atom_site_fract_y
 _atom_site_fract_z
 _atom_site_occupancy
  Na  Na0  1  0.65921654  0.99917751  0.25862684  1
  Na  Na1  1  0.36584778  0.38396602  0.23759900  1
  Na  Na2  1  0.98489059  0.61427795  0.25544937  1
  Na  Na3  1  0.61603395  0.63415220  0.73759904  1
  Na  Na4  1  0.00082253  0.34078335  0.75862688  1
  Na  Na5  1  0.38572209  0.01510928  0.75544922  1
  Na  Na6  1  0.32588356  0.33251069  0.59195993  1
  Na  Na7  1  0.03251480  0.71729915  0.57093200  1
  Na  Na8  1  0.65155793  0.94761109  0.58878229  1
  Na  Na9  1  0.28270087  0.96748530  0.07093211  1
  Na  Na10  1  0.66748951  0.67411657  0.09195998  1
  Na  Na11  1  0.05238895  0.34844228  0.08878233  1
  Na  Na12  1  0.99254947  0.66584436  0.92529397  1
  Na  Na13  1  0.69918053  0.05063300  0.90426594  1
  Na  Na14  1  0.31822412  0.28094480  0.92211600  1
  Na  Na15  1  0.94936716  0.30081951  0.40426592  1
  Na  Na16  1  0.33415559  0.00745079  0.42529399  1
  Na  Na17  1  0.71905540  0.68177620  0.42211596  1
  Na  Na18  1  0.98599325  0.96789617  0.50022518  1
  Na  Na19  1  0.03210414  0.01400676  0.00022522  1
  Na  Na20  1  0.65266030  0.30122897  0.83355820  1
  Na  Na21  1  0.69877091  0.34733955  0.33355820  1
  Na  Na22  1  0.31932637  0.63456310  0.16689222  1
  Na  Na23  1  0.36543694  0.68067362  0.66689220  1
  Y  Y0  1  0.98725310  0.99162533  0.34905664  1
  Y  Y1  1  0.00837545  0.01274789  0.84905666  1
  Y  Y2  1  0.99930380  0.00276182  0.65130195  1
  Y  Y3  1  0.99723809  0.00069600  0.15130212  1
  Y  Y4  1  0.65391976  0.32495777  0.68238959  1
  Y  Y5  1  0.67504185  0.34607968  0.18238966  1
  Y  Y6  1  0.66597070  0.33609456  0.98463501  1
  Y  Y7  1  0.66390521  0.33402942  0.48463483  1
  Y  Y8  1  0.32058600  0.65829240  0.01572364  1
  Y  Y9  1  0.34170785  0.67941411  0.51572348  1
  Y  Y10  1  0.33263670  0.66942904  0.31796910  1
  Y  Y11  1  0.33057097  0.66736298  0.81796884  1
  Si  Si0  1  0.69168625  0.69359082  0.24899949  1
  Si  Si1  1  0.00075463  0.30461320  0.25026090  1
  Si  Si2  1  0.30640925  0.30831368  0.74899943  1
  Si  Si3  1  0.69538677  0.99924521  0.75026084  1
  Si  Si4  1  0.35835303  0.02692475  0.58233265  1
  Si  Si5  1  0.66742108  0.63794638  0.58359405  1
  Si  Si6  1  0.97307526  0.64164692  0.08233264  1
  Si  Si7  1  0.36205395  0.33257930  0.08359410  1
  Si  Si8  1  0.02502030  0.36025763  0.91566627  1
  Si  Si9  1  0.33408765  0.97128007  0.91692775  1
  Si  Si10  1  0.63974225  0.97497969  0.41566624  1
  Si  Si11  1  0.02872004  0.66591222  0.41692770  1
  S  S0  1  0.30070899  0.00047794  0.25032986  1
  S  S1  1  0.99952236  0.69929065  0.75033002  1
  S  S2  1  0.96737558  0.33381038  0.58366338  1
  S  S3  1  0.66619048  0.03262502  0.08366337  1
  S  S4  1  0.63404236  0.66714281  0.91699673  1
  S  S5  1  0.33285794  0.36595768  0.41699678  1
  O  O0  1  0.22501450  0.02312471  0.30219251  1
  O  O1  1  0.80640093  0.78240699  0.30529633  1
  O  O2  1  0.98875001  0.19945930  0.30798321  1
  O  O3  1  0.21759264  0.19359886  0.80529642  1
  O  O4  1  0.97687516  0.77498573  0.80219252  1
  O  O5  1  0.80054088  0.01125016  0.80798332  1
  O  O6  1  0.78166200  0.97538366  0.69289384  1
  O  O7  1  0.19703771  0.21993347  0.69153480  1
  O  O8  1  0.01725235  0.79906047  0.69887628  1
  O  O9  1  0.78006708  0.80296291  0.19153459  1
  O  O10  1  0.02461642  0.21833766  0.19289357  1
  O  O11  1  0.20093937  0.98274740  0.19887614  1
  O  O12  1  0.89168094  0.35645751  0.63552556  1
  O  O13  1  0.47306821  0.11574048  0.63862942  1
  O  O14  1  0.65541692  0.53279237  0.64131627  1
  O  O15  1  0.88425880  0.52693093  0.13862960  1
  O  O16  1  0.64354218  0.10831946  0.13552573  1
  O  O17  1  0.46720742  0.34458315  0.14131610  1
  O  O18  1  0.44832935  0.30871705  0.02622659  1
  O  O19  1  0.86370416  0.55326599  0.02486765  1
  O  O20  1  0.68391914  0.13239337  0.03220913  1
  O  O21  1  0.44673362  0.13629545  0.52486766  1
  O  O22  1  0.69128310  0.55167089  0.52622662  1
  O  O23  1  0.86760696  0.31608050  0.53220931  1
  O  O24  1  0.55834760  0.68979159  0.96885957  1
  O  O25  1  0.13973386  0.44907413  0.97196347  1
  O  O26  1  0.32208292  0.86612626  0.97465039  1
  O  O27  1  0.55092598  0.86026622  0.47196343  1
  O  O28  1  0.31020820  0.44165269  0.46885963  1
  O  O29  1  0.13387424  0.67791717  0.47465049  1
  O  O30  1  0.11499575  0.64205088  0.35956065  1
  O  O31  1  0.53036998  0.88659976  0.35820170  1
  O  O32  1  0.35058506  0.46572787  0.36554324  1
  O  O33  1  0.11339997  0.46962959  0.85820175  1
  O  O34  1  0.35794901  0.88500374  0.85956052  1
  O  O35  1  0.53427292  0.64941471  0.86554355  1
  O  O36  1  0.02493711  0.83836994  0.41544790  1
  O  O37  1  0.82397077  0.99831563  0.41430271  1
  O  O38  1  0.19077826  0.20012125  0.41174531  1
  O  O39  1  0.00168445  0.17602974  0.91430286  1
  O  O40  1  0.16162976  0.97506278  0.91544788  1
  O  O41  1  0.79987824  0.80922125  0.91174535  1
  O  O42  1  0.97914895  0.18387963  0.58710990  1
  O  O43  1  0.17796437  0.01192729  0.58564712  1
  O  O44  1  0.82535536  0.82355824  0.58512069  1
  O  O45  1  0.98807260  0.82203545  0.08564717  1
  O  O46  1  0.81612070  0.02085071  0.08710989  1
  O  O47  1  0.17644124  0.17464441  0.08512073  1
  O  O48  1  0.69160412  0.17170360  0.74878073  1
  O  O49  1  0.49063722  0.33164880  0.74763584  1
  O  O50  1  0.85744548  0.53345453  0.74507823  1
  O  O51  1  0.66835108  0.50936216  0.24763577  1
  O  O52  1  0.82829664  0.30839590  0.24878077  1
  O  O53  1  0.46654578  0.14255451  0.24507818  1
  O  O54  1  0.64581553  0.51721444  0.92044320  1
  O  O55  1  0.84462979  0.34525996  0.91898054  1
  O  O56  1  0.49202265  0.15689192  0.91845397  1
  O  O57  1  0.65473983  0.15536968  0.41898048  1
  O  O58  1  0.48278612  0.35418420  0.42044324  1
  O  O59  1  0.84310792  0.50797750  0.41845396  1
  O  O60  1  0.35827044  0.50503658  0.08211454  1
  O  O61  1  0.15730450  0.66498310  0.08096965  1
  O  O62  1  0.52411071  0.86678723  0.07841197  1
  O  O63  1  0.33501691  0.84269527  0.58096972  1
  O  O64  1  0.49496324  0.64172970  0.58211445  1
  O  O65  1  0.13321271  0.47588921  0.57841194  1
  O  O66  1  0.31248180  0.85054654  0.25377701  1
  O  O67  1  0.51129727  0.67859410  0.25231421  1
  O  O68  1  0.15868864  0.49022568  0.25178776  1
  O  O69  1  0.32140588  0.48870285  0.75231433  1
  O  O70  1  0.14945364  0.68751834  0.75377699  1
  O  O71  1  0.50977403  0.84131125  0.75178775  1
loop_
_geom_bond_atom_site_label_1
_geom_bond_atom_site_label_2
_geom_bond_distance
_geom_bond_site_symmetry_2
Na0 O52 2.563480 1_565
Na0 O31 2.589205 1_555
Na0 O67 2.649920 1_555
Na0 O53 2.794982 1_565
Na0 O66 2.870341 1_555
Na0 O2 2.968511 1_565
Na1 O67 2.453566 1_555
Na1 O51 2.516573 1_555
Na1 O17 2.540561 1_555
Na1 O68 2.646962 1_555
Na2 O68 2.466207 1_655
Na2 O52 2.527201 1_555
Na2 O51 2.664178 1_555
Na2 O30 2.670470 1_655
Na2 O66 2.788746 1_655
Na2 O15 2.862508 1_555
Na3 O69 2.453567 1_555
Na3 O49 2.516573 1_555
Na3 O14 2.540559 1_555
Na3 O71 2.646962 1_555
Na4 O48 2.563481 1_455
Na4 O33 2.589203 1_555
Na4 O69 2.649920 1_555
Na4 O50 2.794986 1_455
Na4 O70 2.870342 1_555
Na4 O5 2.968509 1_455
Na5 O71 2.466204 1_545
Na5 O48 2.527202 1_555
Na5 O49 2.664178 1_555
Na5 O34 2.670472 1_545
Na5 O70 2.788743 1_545
Na5 O13 2.862507 1_555
Na6 O64 2.563484 1_555
Na6 O7 2.589202 1_555
Na6 O43 2.649920 1_555
Na6 O65 2.794993 1_555
Na6 O42 2.870340 1_455
Na6 O14 2.968510 1_555
Na7 O43 2.453566 1_565
Na7 O63 2.516565 1_555
Na7 O29 2.540529 1_555
Na7 O44 2.646960 1_455
Na8 O44 2.466207 1_555
Na8 O64 2.527195 1_555
Na8 O63 2.664189 1_555
Na8 O6 2.670471 1_555
Na8 O42 2.788745 1_565
Na8 O27 2.862485 1_555
Na9 O45 2.453568 1_455
Na9 O61 2.516564 1_555
Na9 O26 2.540531 1_554
Na9 O47 2.646960 1_565
Na10 O60 2.563485 1_555
Na10 O9 2.589198 1_555
Na10 O45 2.649918 1_555
Na10 O62 2.794993 1_555
Na10 O46 2.870335 1_565
Na10 O17 2.968509 1_555
Na11 O47 2.466206 1_555
Na11 O60 2.527196 1_555
Na11 O61 2.664188 1_555
Na11 O10 2.670467 1_555
Na11 O46 2.788747 1_455
Na11 O25 2.862486 1_554
Na12 O40 2.563481 1_655
Na12 O19 2.589178 1_556
Na12 O55 2.649929 1_555
Na12 O41 2.794985 1_555
Na12 O54 2.870336 1_555
Na12 O26 2.968511 1_655
Na13 O55 2.453555 1_555
Na13 O39 2.516578 1_655
Na13 O5 2.540558 1_555
Na13 O56 2.646943 1_555
Na14 O56 2.466217 1_555
Na14 O40 2.527200 1_545
Na14 O39 2.664180 1_555
Na14 O18 2.670456 1_556
Na14 O54 2.788750 1_555
Na14 O3 2.862502 1_555
Na15 O57 2.453559 1_555
Na15 O37 2.516577 1_545
Na15 O2 2.540559 1_555
Na15 O59 2.646946 1_555
Na16 O36 2.563482 1_545
Na16 O21 2.589175 1_555
Na16 O57 2.649929 1_555
Na16 O38 2.794982 1_555
Na16 O58 2.870330 1_555
Na16 O29 2.968513 1_545
Na17 O59 2.466215 1_555
Na17 O36 2.527198 1_655
Na17 O37 2.664176 1_555
Na17 O22 2.670458 1_555
Na17 O58 2.788753 1_555
Na17 O1 2.862502 1_555
Na18 O36 2.451261 1_655
Na18 O44 2.454912 1_555
Na18 O43 2.585755 1_665
Na18 O37 2.624341 1_555
Na18 O42 2.908000 1_565
Na18 O38 2.935095 1_665
Na19 O40 2.451260 1_544
Na19 O47 2.454908 1_555
Na19 O45 2.585755 1_445
Na19 O39 2.624343 1_554
Na19 O46 2.907999 1_455
Na19 O41 2.935099 1_444
Na20 O48 2.451260 1_555
Na20 O56 2.454914 1_555
Na20 O55 2.585752 1_555
Na20 O49 2.624344 1_555
Na20 O54 2.908020 1_555
Na20 O50 2.935099 1_555
Na21 O52 2.451261 1_555
Na21 O59 2.454914 1_555
Na21 O57 2.585754 1_555
Na21 O51 2.624343 1_555
Na21 O58 2.908017 1_555
Na21 O53 2.935097 1_555
Na22 O60 2.451271 1_555
Na22 O68 2.454911 1_555
Na22 O67 2.585754 1_555
Na22 O61 2.624341 1_555
Na22 O66 2.908002 1_555
Na22 O62 2.935096 1_555
Na23 O64 2.451271 1_555
Na23 O71 2.454909 1_555
Na23 O69 2.585756 1_555
Na23 O63 2.624338 1_555
Na23 O70 2.908003 1_555
Na23 O65 2.935095 1_555
O0 S0 1.475876 1_555
O0 Y0 2.392617 1_445
O1 Si0 1.642624 1_555
O1 Y0 2.131103 1_555
O2 Si1 1.642701 1_655
O2 Y0 2.188287 1_545
O3 Si2 1.642628 1_555
O3 Y1 2.131094 1_555
O4 S1 1.475878 1_555
O4 Y1 2.392620 1_665
O5 Si3 1.642705 1_545
O5 Y1 2.188288 1_655
O6 Si3 1.641825 1_555
O6 Y2 2.181315 1_565
O7 Si2 1.643790 1_555
O7 Y2 2.192126 1_455
O8 S1 1.482852 1_455
O8 Y2 2.309168 1_465
O9 Si0 1.643799 1_555
O9 Y3 2.192117 1_565
O10 Si1 1.641834 1_555
O10 Y3 2.181308 1_455
O11 S0 1.482850 1_565
O11 Y3 2.309165 1_465
O12 S2 1.475870 1_555
O12 Y4 2.392613 1_555
O13 Si4 1.642624 1_555
O13 Y4 2.131095 1_555
O14 Si5 1.642701 1_555
O14 Y4 2.188290 1_555
O15 Si6 1.642632 1_555
O15 Y5 2.131091 1_555
O16 S3 1.475876 1_555
O16 Y5 2.392603 1_555
O17 Si7 1.642695 1_555
O17 Y5 2.188294 1_555
O18 Si7 1.641838 1_555
O18 Y6 2.181310 1_554
O19 Si6 1.643797 1_555
O19 Y6 2.192121 1_554
O20 S3 1.482856 1_555
O20 Y6 2.309164 1_554
O21 Si4 1.643795 1_555
O21 Y7 2.192127 1_555
O22 Si5 1.641836 1_555
O22 Y7 2.181311 1_555
O23 S2 1.482852 1_555
O23 Y7 2.309175 1_555
O24 S4 1.475889 1_555
O24 Y8 2.392619 1_556
O25 Si8 1.642627 1_555
O25 Y8 2.131101 1_556
O26 Si9 1.642707 1_555
O26 Y8 2.188284 1_556
O27 Si10 1.642626 1_555
O27 Y9 2.131100 1_555
O28 S5 1.475894 1_555
O28 Y9 2.392612 1_555
O29 Si11 1.642711 1_555
O29 Y9 2.188279 1_555
O30 Si11 1.641828 1_555
O30 Y10 2.181304 1_555
O31 Si10 1.643790 1_555
O31 Y10 2.192117 1_555
O32 S5 1.482856 1_555
O32 Y10 2.309164 1_555
O33 Si8 1.643789 1_555
O33 Y11 2.192122 1_555
O34 Si9 1.641834 1_555
O34 Y11 2.181304 1_555
O35 S4 1.482843 1_555
O35 Y11 2.309176 1_555
O36 Si11 1.659285 1_555
O36 Y0 2.269736 1_455
O37 Si10 1.653531 1_555
O37 Y0 2.196832 1_555
O38 S5 1.484354 1_555
O38 Y0 2.444831 1_445
O39 Si8 1.653525 1_555
O39 Y1 2.196832 1_555
O40 Si9 1.659286 1_555
O40 Y1 2.269733 1_565
O41 S4 1.484346 1_555
O41 Y1 2.444843 1_665
O42 S2 1.487508 1_555
O42 Y2 2.357068 1_555
O43 Si4 1.651550 1_555
O43 Y2 2.255657 1_455
O44 Si5 1.652161 1_555
O44 Y2 2.280222 1_565
O45 Si6 1.651548 1_555
O45 Y3 2.255657 1_565
O46 S3 1.487509 1_555
O46 Y3 2.357067 1_555
O47 Si7 1.652168 1_555
O47 Y3 2.280223 1_455
O48 Si3 1.659290 1_545
O48 Y4 2.269727 1_555
O49 Si2 1.653529 1_555
O49 Y4 2.196839 1_555
O50 S1 1.484343 1_555
O50 Y4 2.444836 1_555
O51 Si0 1.653535 1_555
O51 Y5 2.196835 1_555
O52 Si1 1.659287 1_655
O52 Y5 2.269728 1_555
O53 S0 1.484345 1_555
O53 Y5 2.444831 1_555
O54 S4 1.487485 1_555
O54 Y6 2.357081 1_555
O55 Si8 1.651566 1_655
O55 Y6 2.255641 1_555
O56 Si9 1.652163 1_545
O56 Y6 2.280214 1_555
O57 Si10 1.651561 1_545
O57 Y7 2.255643 1_555
O58 S5 1.487485 1_555
O58 Y7 2.357070 1_555
O59 Si11 1.652164 1_655
O59 Y7 2.280213 1_555
O60 Si7 1.659283 1_555
O60 Y8 2.269735 1_555
O61 Si6 1.653537 1_455
O61 Y8 2.196827 1_555
O62 S3 1.484362 1_565
O62 Y8 2.444821 1_555
O63 Si4 1.653539 1_565
O63 Y9 2.196828 1_555
O64 Si5 1.659288 1_555
O64 Y9 2.269733 1_555
O65 S2 1.484355 1_455
O65 Y9 2.444825 1_555
O66 S0 1.487512 1_565
O66 Y10 2.357066 1_555
O67 Si0 1.651556 1_555
O67 Y10 2.255659 1_555
O68 Si1 1.652163 1_555
O68 Y10 2.280221 1_555
O69 Si2 1.651558 1_555
O69 Y11 2.255649 1_555
O70 S1 1.487509 1_455
O70 Y11 2.357064 1_555
O71 Si3 1.652165 1_555
O71 Y11 2.280218 1_555
