# generated using pymatgen
data_Re3As7
_symmetry_space_group_name_H-M   'P 1'
_cell_length_a   7.62121536
_cell_length_b   7.62121583
_cell_length_c   7.62121503
_cell_angle_alpha   109.47124627
_cell_angle_beta   109.47119860
_cell_angle_gamma   109.47121915
_symmetry_Int_Tables_number   1
_chemical_formula_structural   Re3As7
_chemical_formula_sum   'Re6 As14'
_cell_volume   340.76172500
_cell_formula_units_Z   2
loop_
 _symmetry_equiv_pos_site_id
 _symmetry_equiv_pos_as_xyz
  1  'x, y, z'
loop_
 _atom_site_type_symbol
 _atom_site_label
 _atom_site_symmetry_multiplicity
 _atom_site_fract_x
 _atom_site_fract_y
 _atom_site_fract_z
 _atom_site_occupancy
  Re  Re0  1  -0.00000000  0.34031207  0.34031207  1
  Re  Re1  1  0.34031307  -0.00000000  0.34031307  1
  Re  Re2  1  0.65968693  0.00000000  0.65968693  1
  Re  Re3  1  0.65968693  0.65968693  -0.00000000  1
  Re  Re4  1  0.34031307  0.34031307  0.00000000  1
  Re  Re5  1  0.00000000  0.65968793  0.65968793  1
  As  As0  1  0.50000000  0.75000000  0.25000000  1
  As  As1  1  0.75000000  0.50000000  0.25000000  1
  As  As2  1  0.25000000  0.50000000  0.75000000  1
  As  As3  1  0.75000000  0.25000000  0.50000000  1
  As  As4  1  0.25000000  0.75000000  0.50000000  1
  As  As5  1  0.50000000  0.25000000  0.75000000  1
  As  As6  1  0.33186991  0.33186991  0.33186991  1
  As  As7  1  0.33186991  -0.00000000  -0.00000000  1
  As  As8  1  0.00000000  0.33186991  0.00000000  1
  As  As9  1  -0.00000000  0.00000000  0.33186991  1
  As  As10  1  -0.00000000  0.66813009  -0.00000000  1
  As  As11  1  0.00000000  -0.00000000  0.66813009  1
  As  As12  1  0.66813009  0.00000000  0.00000000  1
  As  As13  1  0.66813009  0.66813009  0.66813009  1
loop_
_geom_bond_atom_site_label_1
_geom_bond_atom_site_label_2
_geom_bond_distance
_geom_bond_site_symmetry_2
As0 Re3 2.610566 1_555
As0 Re2 2.610566 1_565
As0 Re4 2.610566 1_555
As0 Re1 2.610566 1_565
As1 Re4 2.610567 1_555
As1 Re3 2.610567 1_555
As1 Re5 2.610571 1_655
As1 Re0 2.610571 1_655
As2 Re3 2.610567 1_556
As2 Re4 2.610567 1_556
As2 Re0 2.610571 1_555
As2 Re5 2.610571 1_555
As3 Re1 2.610567 1_555
As3 Re2 2.610567 1_555
As3 Re0 2.610571 1_655
As3 Re5 2.610571 1_655
As4 Re2 2.610567 1_565
As4 Re1 2.610567 1_565
As4 Re5 2.610571 1_555
As4 Re0 2.610571 1_555
As5 Re4 2.610566 1_556
As5 Re1 2.610566 1_555
As5 Re3 2.610566 1_556
As5 Re2 2.610566 1_555
As6 Re0 2.572860 1_555
As6 Re4 2.572865 1_555
As6 Re1 2.572866 1_555
As7 Re5 2.572860 1_544
As7 Re1 2.572865 1_555
As7 Re4 2.572866 1_555
As8 Re0 2.572860 1_555
As8 Re2 2.572865 1_454
As8 Re4 2.572866 1_555
As9 Re0 2.572860 1_555
As9 Re3 2.572865 1_445
As9 Re1 2.572866 1_555
As10 As8 2.562711 1_555
As10 Re5 2.572860 1_554
As10 Re1 2.572865 1_565
As10 Re3 2.572866 1_455
As11 As9 2.562711 1_555
As11 Re5 2.572860 1_545
As11 Re4 2.572865 1_556
As11 Re2 2.572866 1_455
As12 As7 2.562711 1_555
As12 Re0 2.572860 1_655
As12 Re2 2.572865 1_554
As12 Re3 2.572866 1_545
As13 As6 2.562711 1_555
As13 Re5 2.572860 1_655
As13 Re3 2.572865 1_556
As13 Re2 2.572866 1_565
