# generated using pymatgen
data_NaZrNbSi(PO6)2
_symmetry_space_group_name_H-M   'P 1'
_cell_length_a   8.92730916
_cell_length_b   8.92223591
_cell_length_c   23.23534071
_cell_angle_alpha   89.98944868
_cell_angle_beta   90.00000000
_cell_angle_gamma   120.01881117
_symmetry_Int_Tables_number   1
_chemical_formula_structural   NaZrNbSi(PO6)2
_chemical_formula_sum   'Na6 Zr6 Nb6 Si6 P12 O72'
_cell_volume   1602.47620914
_cell_formula_units_Z   6
loop_
 _symmetry_equiv_pos_site_id
 _symmetry_equiv_pos_as_xyz
  1  'x, y, z'
loop_
 _atom_site_type_symbol
 _atom_site_label
 _atom_site_symmetry_multiplicity
 _atom_site_fract_x
 _atom_site_fract_y
 _atom_site_fract_z
 _atom_site_occupancy
  Na  Na0  1  0.00207544  0.00294293  0.49899700  1
  Na  Na1  1  0.00086750  0.00294293  0.99899700  1
  Na  Na2  1  0.66880446  0.33586169  0.83239184  1
  Na  Na3  1  0.66705823  0.33586169  0.33239184  1
  Na  Na4  1  0.33394438  0.66564299  0.16558619  1
  Na  Na5  1  0.33169760  0.66564299  0.66558619  1
  Zr  Zr0  1  0.99989845  0.99813667  0.35353957  1
  Zr  Zr1  1  0.99823822  0.99813667  0.85353957  1
  Zr  Zr2  1  0.67406685  0.33706365  0.68693307  1
  Zr  Zr3  1  0.66299780  0.33706365  0.18693307  1
  Zr  Zr4  1  0.33124061  0.65973811  0.02029321  1
  Zr  Zr5  1  0.32849651  0.65973811  0.52029321  1
  Nb  Nb0  1  0.00138675  -0.00005469  0.64604935  1
  Nb  Nb1  1  0.99855856  -0.00005469  0.14604935  1
  Nb  Nb2  1  0.66437927  0.33190790  0.97938847  1
  Nb  Nb3  1  0.66752963  0.33190790  0.47938847  1
  Nb  Nb4  1  0.33867905  0.66304966  0.31266293  1
  Nb  Nb5  1  0.32436960  0.66304966  0.81266293  1
  Si  Si0  1  0.71117771  0.71107789  0.25021393  1
  Si  Si1  1  -0.00009982  0.71107789  0.75021393  1
  Si  Si2  1  0.95663500  0.33149684  0.58336473  1
  Si  Si3  1  0.37486284  0.33149684  0.08336473  1
  Si  Si4  1  0.04029862  0.37478361  0.91734497  1
  Si  Si5  1  0.33448399  0.37478361  0.41734497  1
  P  P0  1  0.28721456  0.99656858  0.24995792  1
  P  P1  1  0.00111581  0.28927014  0.25004149  1
  P  P2  1  0.28815433  0.28927014  0.75004149  1
  P  P3  1  0.70935402  0.99656858  0.74995792  1
  P  P4  1  0.37809521  0.04622719  0.58361212  1
  P  P5  1  0.66867887  0.62284743  0.58335703  1
  P  P6  1  0.95416956  0.62284743  0.08335703  1
  P  P7  1  0.66813298  0.04622719  0.08361212  1
  P  P8  1  0.61991815  0.66458856  0.91644493  1
  P  P9  1  0.33528370  0.95544660  0.91692402  1
  P  P10  1  0.62016190  0.95544660  0.41692402  1
  P  P11  1  0.04466942  0.66458856  0.41644493  1
  O  O0  1  0.20691783  0.02843894  0.30347806  1
  O  O1  1  0.82551178  0.79899661  0.30643916  1
  O  O2  1  0.97537134  0.17979000  0.30364545  1
  O  O3  1  0.20441866  0.17979000  0.80364545  1
  O  O4  1  0.97348482  0.79899661  0.80643916  1
  O  O5  1  0.82152112  0.02843894  0.80347806  1
  O  O6  1  0.80059408  0.97192389  0.69585201  1
  O  O7  1  0.17134425  0.20270502  0.69572734  1
  O  O8  1  0.02988260  0.83587852  0.69318591  1
  O  O9  1  0.80599592  0.83587852  0.19318591  1
  O  O10  1  0.03136077  0.20270502  0.19572734  1
  O  O11  1  0.17132981  0.97192389  0.19585201  1
  O  O12  1  0.86735939  0.36023212  0.63906917  1
  O  O13  1  0.48585398  0.12859031  0.63728482  1
  O  O14  1  0.63796243  0.51210010  0.63696023  1
  O  O15  1  0.87413867  0.51210010  0.13696023  1
  O  O16  1  0.64273732  0.12859031  0.13728482  1
  O  O17  1  0.49287374  0.36023212  0.13906917  1
  O  O18  1  0.47255965  0.30353465  0.02655410  1
  O  O19  1  0.83841514  0.53428522  0.02926138  1
  O  O20  1  0.69737910  0.16247015  0.02899652  1
  O  O21  1  0.46509206  0.16247015  0.52899652  1
  O  O22  1  0.69587108  0.53428522  0.52926138  1
  O  O23  1  0.83097600  0.30353465  0.52655410  1
  O  O24  1  0.54035482  0.69453712  0.97034839  1
  O  O25  1  0.15973589  0.46600250  0.97244080  1
  O  O26  1  0.30859548  0.84749173  0.97057292  1
  O  O27  1  0.53889526  0.84749173  0.47057292  1
  O  O28  1  0.30626561  0.46600250  0.47244080  1
  O  O29  1  0.15418130  0.69453712  0.47034839  1
  O  O30  1  0.13135770  0.63738718  0.36245574  1
  O  O31  1  0.50452909  0.86863784  0.36239674  1
  O  O32  1  0.36302985  0.50254100  0.36010228  1
  O  O33  1  0.13951016  0.50254100  0.86010228  1
  O  O34  1  0.36410775  0.86863784  0.86239674  1
  O  O35  1  0.50602849  0.63738718  0.86245574  1
  O  O36  1  0.02047586  0.82262275  0.40990928  1
  O  O37  1  0.80149597  0.97929929  0.40925192  1
  O  O38  1  0.16725715  0.18595644  0.40978716  1
  O  O39  1  0.01869930  0.18595644  0.90978716  1
  O  O40  1  0.17780332  0.97929929  0.90925192  1
  O  O41  1  0.80214689  0.82262275  0.90990928  1
  O  O42  1  0.97381167  0.15672506  0.59213692  1
  O  O43  1  0.19526954  0.02951074  0.59068738  1
  O  O44  1  0.83452437  0.80493926  0.59088913  1
  O  O45  1  0.97041489  0.80493926  0.09088913  1
  O  O46  1  0.83424120  0.02951074  0.09068738  1
  O  O47  1  0.18291339  0.15672506  0.09213692  1
  O  O48  1  0.68483458  0.15384890  0.74265394  1
  O  O49  1  0.46725856  0.30996483  0.74238848  1
  O  O50  1  0.83353601  0.52006770  0.74409684  1
  O  O51  1  0.68653270  0.52006770  0.24409684  1
  O  O52  1  0.84270727  0.30996483  0.24238848  1
  O  O53  1  0.46901532  0.15384890  0.24265394  1
  O  O54  1  0.63827853  0.49979878  0.92459462  1
  O  O55  1  0.84967701  0.36035663  0.92541993  1
  O  O56  1  0.50104188  0.13846865  0.92382342  1
  O  O57  1  0.63742776  0.13846865  0.42382342  1
  O  O58  1  0.51068061  0.36035663  0.42541993  1
  O  O59  1  0.86152125  0.49979878  0.42459462  1
  O  O60  1  0.35434460  0.50061941  0.07747404  1
  O  O61  1  0.13651468  0.64950195  0.07601654  1
  O  O62  1  0.51030954  0.86645618  0.07562834  1
  O  O63  1  0.35614563  0.86645618  0.57562834  1
  O  O64  1  0.51298627  0.64950195  0.57601654  1
  O  O65  1  0.14627381  0.50061941  0.57747404  1
  O  O66  1  0.30203568  0.83145197  0.25746024  1
  O  O67  1  0.51774334  0.69559885  0.25825765  1
  O  O68  1  0.16561140  0.47267397  0.25765038  1
  O  O69  1  0.30706158  0.47267397  0.75765038  1
  O  O70  1  0.17785450  0.69559885  0.75825765  1
  O  O71  1  0.52941530  0.83145197  0.75746024  1
loop_
_geom_bond_atom_site_label_1
_geom_bond_atom_site_label_2
_geom_bond_distance
_geom_bond_site_symmetry_2
Na0 O38 2.593631 1_555
Na0 O42 2.641449 1_455
Na0 O43 2.675960 1_555
Na0 O36 2.676920 1_545
Na0 O37 2.687262 1_445
Na0 O44 2.696630 1_445
Na1 O39 2.593631 1_555
Na1 O47 2.641449 1_556
Na1 O46 2.675960 1_456
Na1 O41 2.676920 1_445
Na1 O40 2.687262 1_545
Na1 O45 2.696630 1_446
Na2 O50 2.579378 1_555
Na2 O55 2.640903 1_555
Na2 O54 2.683918 1_555
Na2 O56 2.686541 1_555
Na2 O48 2.690559 1_555
Na2 O49 2.692268 1_555
Na3 O51 2.579378 1_555
Na3 O58 2.640903 1_555
Na3 O59 2.683918 1_555
Na3 O57 2.686541 1_555
Na3 O53 2.690559 1_555
Na3 O52 2.692268 1_555
Na4 O60 2.581081 1_555
Na4 O67 2.638498 1_555
Na4 O61 2.684149 1_555
Na4 O68 2.684841 1_555
Na4 O62 2.689633 1_555
Na4 O66 2.692508 1_555
Na5 O65 2.581081 1_555
Na5 O70 2.638498 1_555
Na5 O64 2.684149 1_555
Na5 O69 2.684841 1_555
Na5 O63 2.689633 1_555
Na5 O71 2.692508 1_555
Nb0 O8 1.943990 1_545
Nb0 O42 1.982525 1_455
Nb0 O7 2.039992 1_555
Nb0 O6 2.041139 1_445
Nb0 O43 2.064746 1_555
Nb0 O44 2.072786 1_445
Nb1 O9 1.943990 1_545
Nb1 O47 1.982525 1_655
Nb1 O10 2.039992 1_655
Nb1 O11 2.041139 1_645
Nb1 O46 2.064746 1_555
Nb1 O45 2.072786 1_545
Nb2 O18 1.940019 1_556
Nb2 O55 1.988231 1_555
Nb2 O20 2.036129 1_556
Nb2 O19 2.052053 1_556
Nb2 O56 2.062670 1_555
Nb2 O54 2.065827 1_555
Nb3 O23 1.940019 1_555
Nb3 O58 1.988231 1_555
Nb3 O21 2.036129 1_555
Nb3 O22 2.052053 1_555
Nb3 O57 2.062670 1_555
Nb3 O59 2.065827 1_555
Nb4 O32 1.903699 1_555
Nb4 O67 1.942450 1_555
Nb4 O31 2.043424 1_555
Nb4 O68 2.069087 1_555
Nb4 O30 2.095803 1_555
Nb4 O66 2.121527 1_555
Nb5 O33 1.903699 1_555
Nb5 O70 1.942450 1_555
Nb5 O34 2.043424 1_555
Nb5 O69 2.069087 1_555
Nb5 O35 2.095804 1_555
Nb5 O71 2.121528 1_555
O0 P0 1.531414 1_545
O0 Zr0 2.083657 1_445
O1 Si0 1.600975 1_555
O1 Zr0 2.002828 1_555
O2 P1 1.527477 1_655
O2 Zr0 2.091213 1_545
O3 P2 1.527477 1_555
O3 Zr1 2.091213 1_445
O4 Si1 1.600975 1_655
O4 Zr1 2.002828 1_555
O5 P3 1.531414 1_545
O5 Zr1 2.083657 1_545
O6 P3 1.572128 1_555
O7 P2 1.571978 1_555
O8 Si1 1.663902 1_555
O9 Si0 1.663902 1_555
O10 P1 1.571978 1_555
O11 P0 1.572128 1_555
O12 Si2 1.606469 1_555
O12 Zr2 1.974897 1_555
O13 P4 1.521094 1_555
O13 Zr2 2.118358 1_555
O14 P5 1.526840 1_555
O14 Zr2 2.096203 1_555
O15 P6 1.526840 1_555
O15 Zr3 2.096203 1_555
O16 P7 1.521094 1_555
O16 Zr3 2.118358 1_555
O17 Si3 1.606469 1_555
O17 Zr3 1.974897 1_555
O18 Si3 1.668292 1_555
O19 P6 1.566994 1_555
O20 P7 1.575692 1_555
O21 P4 1.575692 1_555
O22 P5 1.566994 1_555
O23 Si2 1.668292 1_555
O24 P8 1.527940 1_555
O24 Zr4 2.085206 1_556
O25 Si4 1.603190 1_555
O25 Zr4 1.980151 1_556
O26 P9 1.519324 1_555
O26 Zr4 2.126001 1_556
O27 P10 1.519324 1_555
O27 Zr5 2.126001 1_555
O28 Si5 1.603190 1_555
O28 Zr5 1.980151 1_555
O29 P11 1.527940 1_555
O29 Zr5 2.085207 1_555
O30 P11 1.555479 1_555
O31 P10 1.571965 1_555
O32 Si5 1.685855 1_555
O33 Si4 1.685855 1_555
O34 P9 1.571965 1_555
O35 P8 1.555479 1_555
O36 P11 1.537041 1_555
O36 Zr0 2.118633 1_455
O37 P10 1.533929 1_555
O37 Zr0 2.131473 1_555
O38 Si5 1.606701 1_555
O38 Zr0 2.060141 1_445
O39 Si4 1.606705 1_555
O39 Zr1 2.060141 1_445
O40 P9 1.533920 1_555
O40 Zr1 2.131473 1_455
O41 P8 1.537047 1_555
O41 Zr1 2.118633 1_555
O42 Si2 1.654019 1_555
O43 P4 1.571489 1_555
O44 P5 1.567016 1_555
O45 P6 1.567020 1_555
O46 P7 1.571480 1_555
O47 Si3 1.654024 1_555
O48 P3 1.534015 1_545
O48 Zr2 2.124644 1_555
O49 P2 1.525400 1_555
O49 Zr2 2.163471 1_555
O50 Si1 1.611814 1_655
O50 Zr2 2.032710 1_555
O51 Si0 1.611817 1_555
O51 Zr3 2.032710 1_555
O52 P1 1.525391 1_655
O52 Zr3 2.163471 1_555
O53 P0 1.534020 1_545
O53 Zr3 2.124644 1_555
O54 P8 1.570196 1_555
O55 Si4 1.651818 1_655
O56 P9 1.569812 1_545
O57 P10 1.569805 1_545
O58 Si5 1.651835 1_555
O59 P11 1.570185 1_655
O60 Si3 1.614218 1_555
O60 Zr4 2.028691 1_555
O61 P6 1.532377 1_455
O61 Zr4 2.132553 1_555
O62 P7 1.526811 1_565
O62 Zr4 2.158971 1_555
O63 P4 1.526803 1_565
O63 Zr5 2.158971 1_555
O64 P5 1.532395 1_555
O64 Zr5 2.132553 1_555
O65 Si2 1.614208 1_455
O65 Zr5 2.028691 1_555
O66 P0 1.553441 1_555
O67 Si0 1.672535 1_555
O68 P1 1.568819 1_555
O69 P2 1.568823 1_555
O70 Si1 1.672526 1_555
O71 P3 1.553446 1_555
