# generated using pymatgen
data_Eu(BH4)2
_symmetry_space_group_name_H-M   'P 1'
_cell_length_a   7.50266133
_cell_length_b   7.43118800
_cell_length_c   8.14033621
_cell_angle_alpha   90.00000000
_cell_angle_beta   91.96038920
_cell_angle_gamma   90.00000000
_symmetry_Int_Tables_number   1
_chemical_formula_structural   Eu(BH4)2
_chemical_formula_sum   'Eu4 B8 H32'
_cell_volume   453.58812217
_cell_formula_units_Z   4
loop_
 _symmetry_equiv_pos_site_id
 _symmetry_equiv_pos_as_xyz
  1  'x, y, z'
loop_
 _atom_site_type_symbol
 _atom_site_label
 _atom_site_symmetry_multiplicity
 _atom_site_fract_x
 _atom_site_fract_y
 _atom_site_fract_z
 _atom_site_occupancy
  Eu  Eu0  1  0.26141000  0.07112700  0.63550100  1
  Eu  Eu1  1  0.73859000  0.57112700  0.86449900  1
  Eu  Eu2  1  0.73859000  0.92887300  0.36449900  1
  Eu  Eu3  1  0.26141000  0.42887300  0.13550100  1
  B  B0  1  0.98423800  0.71083000  0.18221800  1
  B  B1  1  0.01576200  0.21083000  0.31778200  1
  B  B2  1  0.01576200  0.28917000  0.81778200  1
  B  B3  1  0.98423800  0.78917000  0.68221800  1
  B  B4  1  0.50411600  0.73418600  0.10812100  1
  B  B5  1  0.49588400  0.23418600  0.39187900  1
  B  B6  1  0.49588400  0.26581400  0.89187900  1
  B  B7  1  0.50411600  0.76581400  0.60812100  1
  H  H0  1  0.00346100  0.63637600  0.04818300  1
  H  H1  1  0.99653900  0.13637600  0.45181700  1
  H  H2  1  0.99653900  0.36362400  0.95181700  1
  H  H3  1  0.00346100  0.86362400  0.54818300  1
  H  H4  1  0.86088600  0.63980000  0.25318500  1
  H  H5  1  0.13911400  0.13980000  0.24681500  1
  H  H6  1  0.13911400  0.36020000  0.74681500  1
  H  H7  1  0.86088600  0.86020000  0.75318500  1
  H  H8  1  0.12222400  0.69468800  0.26623300  1
  H  H9  1  0.87777600  0.19468800  0.23376700  1
  H  H10  1  0.87777600  0.30531200  0.73376700  1
  H  H11  1  0.12222400  0.80531200  0.76623300  1
  H  H12  1  0.95956000  0.87040600  0.15235200  1
  H  H13  1  0.04044000  0.37040600  0.34764800  1
  H  H14  1  0.04044000  0.12959400  0.84764800  1
  H  H15  1  0.95956000  0.62959400  0.65235200  1
  H  H16  1  0.56601800  0.58130700  0.12959200  1
  H  H17  1  0.43398200  0.08130700  0.37040800  1
  H  H18  1  0.43398200  0.41869300  0.87040800  1
  H  H19  1  0.56601800  0.91869300  0.62959200  1
  H  H20  1  0.37015800  0.73052100  0.01789500  1
  H  H21  1  0.62984200  0.23052100  0.48210500  1
  H  H22  1  0.62984200  0.26947900  0.98210500  1
  H  H23  1  0.37015800  0.76947900  0.51789500  1
  H  H24  1  0.46248600  0.79188800  0.24189600  1
  H  H25  1  0.53751400  0.29188800  0.25810400  1
  H  H26  1  0.53751400  0.20811200  0.75810400  1
  H  H27  1  0.46248600  0.70811200  0.74189600  1
  H  H28  1  0.61716800  0.83061000  0.04594400  1
  H  H29  1  0.38283200  0.33061000  0.45405600  1
  H  H30  1  0.38283200  0.16939000  0.95405600  1
  H  H31  1  0.61716800  0.66939000  0.54594400  1
loop_
_geom_bond_atom_site_label_1
_geom_bond_atom_site_label_2
_geom_bond_distance
_geom_bond_site_symmetry_2
Eu0 H14 2.472956 1_555
Eu0 H26 2.486370 1_555
Eu0 H11 2.490169 1_545
Eu0 H1 2.493330 1_455
Eu0 H6 2.516828 1_555
Eu0 H19 2.552628 1_545
Eu0 H17 2.555384 1_555
Eu0 H3 2.556221 1_545
Eu0 H23 2.580783 1_545
Eu0 H29 2.611852 1_555
Eu0 H30 2.815295 1_555
Eu1 H15 2.472956 1_555
Eu1 H27 2.486370 1_555
Eu1 H10 2.490169 1_555
Eu1 H0 2.493330 1_656
Eu1 H7 2.516828 1_555
Eu1 H18 2.552628 1_555
Eu1 H16 2.555384 1_556
Eu1 H2 2.556221 1_555
Eu1 H22 2.580783 1_555
Eu1 H28 2.611852 1_556
Eu1 H31 2.815295 1_555
Eu2 H12 2.472956 1_555
Eu2 H24 2.486370 1_555
Eu2 H9 2.490169 1_565
Eu2 H3 2.493330 1_655
Eu2 H4 2.516828 1_555
Eu2 H17 2.552628 1_565
Eu2 H19 2.555384 1_555
Eu2 H1 2.556221 1_565
Eu2 H21 2.580783 1_565
Eu2 H31 2.611852 1_555
Eu2 H28 2.815295 1_555
Eu3 H13 2.472956 1_555
Eu3 H25 2.486370 1_555
Eu3 H8 2.490169 1_555
Eu3 H2 2.493330 1_454
Eu3 H5 2.516828 1_555
Eu3 H16 2.552628 1_555
Eu3 H18 2.555384 1_554
Eu3 H0 2.556221 1_555
Eu3 H20 2.580783 1_555
Eu3 H30 2.611852 1_554
Eu3 H29 2.815295 1_555
B0 H12 1.223324 1_555
B0 H4 1.226953 1_555
B0 H8 1.226967 1_655
B0 H0 1.236190 1_655
B1 H13 1.223324 1_555
B1 H5 1.226953 1_555
B1 H9 1.226967 1_455
B1 H1 1.236190 1_455
B2 H14 1.223324 1_555
B2 H6 1.226953 1_555
B2 H10 1.226967 1_455
B2 H2 1.236190 1_455
B3 H15 1.223324 1_555
B3 H7 1.226953 1_555
B3 H11 1.226967 1_655
B3 H3 1.236190 1_655
B4 H24 1.220882 1_555
B4 H20 1.224660 1_555
B4 H28 1.232240 1_555
B4 H16 1.237478 1_555
B5 H25 1.220882 1_555
B5 H21 1.224660 1_555
B5 H29 1.232240 1_555
B5 H17 1.237478 1_555
B6 H26 1.220882 1_555
B6 H22 1.224660 1_555
B6 H30 1.232240 1_555
B6 H18 1.237478 1_555
B7 H27 1.220882 1_555
B7 H23 1.224660 1_555
B7 H31 1.232240 1_555
B7 H19 1.237478 1_555
