# generated using pymatgen
data_NaCaSc3(SO4)6
_symmetry_space_group_name_H-M   'P 1'
_cell_length_a   8.89797069
_cell_length_b   8.89797039
_cell_length_c   23.38599018
_cell_angle_alpha   90.00000000
_cell_angle_beta   90.00000000
_cell_angle_gamma   120.00000107
_symmetry_Int_Tables_number   1
_chemical_formula_structural   NaCaSc3(SO4)6
_chemical_formula_sum   'Na3 Ca3 Sc9 S18 O72'
_cell_volume   1603.49761099
_cell_formula_units_Z   3
loop_
 _symmetry_equiv_pos_site_id
 _symmetry_equiv_pos_as_xyz
  1  'x, y, z'
loop_
 _atom_site_type_symbol
 _atom_site_label
 _atom_site_symmetry_multiplicity
 _atom_site_fract_x
 _atom_site_fract_y
 _atom_site_fract_z
 _atom_site_occupancy
  Na  Na0  1  -0.00000000  -0.00000000  0.99722362  1
  Na  Na1  1  0.66666700  0.33333300  0.83614889  1
  Na  Na2  1  0.66666700  0.33333300  0.33337598  1
  Ca  Ca0  1  -0.00000000  -0.00000000  0.35686347  1
  Ca  Ca1  1  -0.00000000  -0.00000000  0.85152764  1
  Ca  Ca2  1  0.66666700  0.33333300  0.98161637  1
  Sc  Sc0  1  -0.00000000  -0.00000000  0.64789622  1
  Sc  Sc1  1  -0.00000000  -0.00000000  0.15439075  1
  Sc  Sc2  1  0.66666700  0.33333300  0.68140063  1
  Sc  Sc3  1  0.66666700  0.33333300  0.18009839  1
  Sc  Sc4  1  0.66666700  0.33333300  0.48219007  1
  Sc  Sc5  1  0.33333300  0.66666700  0.02312820  1
  Sc  Sc6  1  0.33333300  0.66666700  0.52282995  1
  Sc  Sc7  1  0.33333300  0.66666700  0.31260961  1
  Sc  Sc8  1  0.33333300  0.66666700  0.80967116  1
  S  S0  1  0.30346435  0.00452264  0.24993586  1
  S  S1  1  0.70105829  0.69653565  0.24993586  1
  S  S2  1  0.99547736  0.29894171  0.24993586  1
  S  S3  1  0.30110971  0.29680886  0.74757787  1
  S  S4  1  0.99569915  0.69889029  0.74757787  1
  S  S5  1  0.70319114  0.00430085  0.74757787  1
  S  S6  1  0.95534452  0.33056371  0.58300701  1
  S  S7  1  0.37522019  0.04465548  0.58300701  1
  S  S8  1  0.66943629  0.62477981  0.58300701  1
  S  S9  1  0.96607897  0.63871552  0.08460542  1
  S  S10  1  0.67263755  0.03392103  0.08460542  1
  S  S11  1  0.36128448  0.32736245  0.08460542  1
  S  S12  1  0.61335667  0.66678398  0.91653344  1
  S  S13  1  0.05342631  0.38664333  0.91653344  1
  S  S14  1  0.33321602  0.94657369  0.91653344  1
  S  S15  1  0.60744121  0.95660174  0.41834494  1
  S  S16  1  0.34915953  0.39255879  0.41834494  1
  S  S17  1  0.04339826  0.65084047  0.41834494  1
  O  O0  1  0.23520898  0.04435916  0.30102657  1
  O  O1  1  0.80915018  0.76479102  0.30102657  1
  O  O2  1  0.95564084  0.19084982  0.30102657  1
  O  O3  1  0.23529786  0.19101262  0.79951737  1
  O  O4  1  0.95571476  0.76470214  0.79951737  1
  O  O5  1  0.80898738  0.04428524  0.79951737  1
  O  O6  1  0.79291420  0.97861026  0.69797654  1
  O  O7  1  0.18569607  0.20708580  0.69797654  1
  O  O8  1  0.02138974  0.81430393  0.69797654  1
  O  O9  1  0.78819168  0.81079603  0.19971676  1
  O  O10  1  0.02260435  0.21180832  0.19971676  1
  O  O11  1  0.18920397  0.97739565  0.19971676  1
  O  O12  1  0.87670901  0.36654826  0.63329887  1
  O  O13  1  0.48984025  0.12329099  0.63329887  1
  O  O14  1  0.63345174  0.51015975  0.63329887  1
  O  O15  1  0.87648748  0.52221094  0.13401603  1
  O  O16  1  0.64572446  0.12351252  0.13401603  1
  O  O17  1  0.47778906  0.35427554  0.13401603  1
  O  O18  1  0.42825516  0.28787883  0.03279003  1
  O  O19  1  0.85962466  0.57174484  0.03279003  1
  O  O20  1  0.71212117  0.14037534  0.03279003  1
  O  O21  1  0.45512323  0.15857484  0.53228613  1
  O  O22  1  0.70345261  0.54487677  0.53228613  1
  O  O23  1  0.84142516  0.29654739  0.53228613  1
  O  O24  1  0.51869567  0.66427671  0.96924314  1
  O  O25  1  0.14558003  0.48130433  0.96924314  1
  O  O26  1  0.33572329  0.85441997  0.96924314  1
  O  O27  1  0.51790961  0.85428467  0.46995998  1
  O  O28  1  0.33637406  0.48209039  0.46995998  1
  O  O29  1  0.14571533  0.66362594  0.46995998  1
  O  O30  1  0.12533403  0.62783073  0.36593630  1
  O  O31  1  0.50249571  0.87466597  0.36593630  1
  O  O32  1  0.37216927  0.49750429  0.36593630  1
  O  O33  1  0.14834887  0.47920113  0.86389005  1
  O  O34  1  0.33085127  0.85165113  0.86389005  1
  O  O35  1  0.52079887  0.66914873  0.86389005  1
  O  O36  1  0.02664864  0.80494547  0.41475830  1
  O  O37  1  0.77829684  0.97335136  0.41475830  1
  O  O38  1  0.19505453  0.22170316  0.41475830  1
  O  O39  1  0.04005964  0.21393587  0.91854288  1
  O  O40  1  0.17387623  0.95994036  0.91854288  1
  O  O41  1  0.78606413  0.82612377  0.91854288  1
  O  O42  1  0.97204998  0.17567549  0.59292123  1
  O  O43  1  0.20362551  0.02795002  0.59292123  1
  O  O44  1  0.82432451  0.79637449  0.59292123  1
  O  O45  1  0.99320738  0.81567874  0.09555202  1
  O  O46  1  0.82247136  0.00679262  0.09555202  1
  O  O47  1  0.18432126  0.17752864  0.09555202  1
  O  O48  1  0.67566530  0.15453095  0.73738642  1
  O  O49  1  0.47886665  0.32433470  0.73738642  1
  O  O50  1  0.84546905  0.52113335  0.73738642  1
  O  O51  1  0.67292714  0.51848410  0.23889997  1
  O  O52  1  0.84555796  0.32707286  0.23889997  1
  O  O53  1  0.48151590  0.15444204  0.23889997  1
  O  O54  1  0.62681399  0.50745951  0.91454427  1
  O  O55  1  0.88064652  0.37318601  0.91454427  1
  O  O56  1  0.49254049  0.11935348  0.91454427  1
  O  O57  1  0.62054028  0.13151548  0.42285429  1
  O  O58  1  0.51097621  0.37945972  0.42285429  1
  O  O59  1  0.86848452  0.48902379  0.42285429  1
  O  O60  1  0.34789267  0.48574061  0.07817222  1
  O  O61  1  0.13784694  0.65210733  0.07817222  1
  O  O62  1  0.51425939  0.86215306  0.07817222  1
  O  O63  1  0.35690991  0.87199006  0.57421300  1
  O  O64  1  0.51507915  0.64309009  0.57421300  1
  O  O65  1  0.12800994  0.48492085  0.57421300  1
  O  O66  1  0.31634004  0.84571366  0.25697379  1
  O  O67  1  0.52937262  0.68365996  0.25697379  1
  O  O68  1  0.15428634  0.47062738  0.25697379  1
  O  O69  1  0.31525055  0.46907263  0.75408432  1
  O  O70  1  0.15382108  0.68474945  0.75408432  1
  O  O71  1  0.53092737  0.84617892  0.75408432  1
loop_
_geom_bond_atom_site_label_1
_geom_bond_atom_site_label_2
_geom_bond_distance
_geom_bond_site_symmetry_2
Na0 O39 2.541239 1_555
Na0 O41 2.541239 1_445
Na0 O40 2.541239 1_545
Na0 O45 2.807514 1_446
Na0 O47 2.807514 1_556
Na0 O46 2.807514 1_456
Na1 O56 2.537107 1_555
Na1 O54 2.537107 1_555
Na1 O55 2.537107 1_555
Na1 O50 2.828342 1_555
Na1 O48 2.828342 1_555
Na1 O49 2.828342 1_555
Na2 O58 2.652340 1_555
Na2 O57 2.652340 1_555
Na2 O59 2.652340 1_555
Na2 O51 2.739891 1_555
Na2 O53 2.739891 1_555
Na2 O52 2.739891 1_555
Ca0 O38 2.305029 1_555
Ca0 O37 2.305029 1_445
Ca0 O36 2.305029 1_545
Ca0 O1 2.327014 1_445
Ca0 O2 2.327014 1_455
Ca0 O0 2.327014 1_555
Ca1 O4 2.278848 1_445
Ca1 O3 2.278848 1_555
Ca1 O5 2.278848 1_455
Ca1 O39 2.351248 1_555
Ca1 O41 2.351248 1_445
Ca1 O40 2.351248 1_545
Ca2 O20 2.288678 1_556
Ca2 O19 2.288678 1_556
Ca2 O18 2.288679 1_556
Ca2 O56 2.352885 1_555
Ca2 O54 2.352885 1_555
Ca2 O55 2.352885 1_555
O0 S0 1.461965 1_555
O1 S1 1.461965 1_555
O2 S2 1.461965 1_555
O3 S3 1.467389 1_555
O4 S4 1.467389 1_555
O5 S5 1.467389 1_555
O6 S5 1.489183 1_565
O6 Sc0 2.110098 1_665
O7 S3 1.489183 1_555
O7 Sc0 2.110098 1_555
O8 S4 1.489183 1_455
O8 Sc0 2.110098 1_565
O9 S1 1.491904 1_555
O9 Sc1 2.082530 1_665
O10 S2 1.491904 1_455
O10 Sc1 2.082530 1_555
O11 S0 1.491905 1_565
O11 Sc1 2.082530 1_565
O12 S6 1.483038 1_555
O12 Sc2 2.072044 1_555
O13 S7 1.483038 1_555
O13 Sc2 2.072044 1_555
O14 S8 1.483038 1_555
O14 Sc2 2.072044 1_555
O15 S9 1.489620 1_555
O15 Sc3 2.081783 1_555
O16 S10 1.489620 1_555
O16 Sc3 2.081783 1_555
O17 S11 1.489620 1_555
O17 Sc3 2.081783 1_555
O18 S11 1.468412 1_555
O19 S9 1.468412 1_555
O20 S10 1.468412 1_555
O21 S7 1.489719 1_555
O21 Sc4 2.099199 1_555
O22 S8 1.489719 1_555
O22 Sc4 2.099199 1_555
O23 S6 1.489720 1_555
O23 Sc4 2.099199 1_555
O24 S12 1.486819 1_555
O24 Sc5 2.084199 1_556
O25 S13 1.486819 1_555
O25 Sc5 2.084199 1_556
O26 S14 1.486819 1_555
O26 Sc5 2.084199 1_556
O27 S15 1.481634 1_555
O27 Sc6 2.066697 1_555
O28 S16 1.481634 1_555
O28 Sc6 2.066697 1_555
O29 S17 1.481634 1_555
O29 Sc6 2.066697 1_555
O30 S17 1.491604 1_555
O30 Sc7 2.111978 1_555
O31 S15 1.491604 1_555
O31 Sc7 2.111978 1_555
O32 S16 1.491604 1_555
O32 Sc7 2.111978 1_555
O33 S13 1.487179 1_555
O33 Sc8 2.086582 1_555
O34 S14 1.487179 1_555
O34 Sc8 2.086582 1_555
O35 S12 1.487179 1_555
O35 Sc8 2.086582 1_555
O36 S17 1.453912 1_555
O37 S15 1.453921 1_555
O38 S16 1.453917 1_555
O39 S13 1.481610 1_555
O40 S14 1.481601 1_555
O41 S12 1.481606 1_555
O42 S6 1.476524 1_555
O42 Sc0 2.132356 1_655
O43 S7 1.476532 1_555
O43 Sc0 2.132356 1_555
O44 S8 1.476529 1_555
O44 Sc0 2.132356 1_665
O45 S9 1.491012 1_555
O45 Sc1 2.118440 1_665
O46 S10 1.491004 1_555
O46 Sc1 2.118440 1_655
O47 S11 1.491009 1_555
O47 Sc1 2.118440 1_555
O48 S5 1.493678 1_555
O48 Sc2 2.092658 1_555
O49 S3 1.493687 1_555
O49 Sc2 2.092659 1_555
O50 S4 1.493684 1_555
O50 Sc2 2.092658 1_555
O51 S1 1.497563 1_555
O51 Sc3 2.125201 1_555
O52 S2 1.497555 1_555
O52 Sc3 2.125201 1_555
O53 S0 1.497560 1_555
O53 Sc3 2.125201 1_555
O54 S12 1.481901 1_555
O55 S13 1.481883 1_655
O56 S14 1.481891 1_545
O57 S15 1.505195 1_545
O57 Sc4 2.140489 1_555
O58 S16 1.505213 1_555
O58 Sc4 2.140489 1_555
O59 S17 1.505203 1_655
O59 Sc4 2.140489 1_555
O60 S11 1.480111 1_555
O60 Sc5 2.115204 1_555
O61 S9 1.480093 1_455
O61 Sc5 2.115204 1_555
O62 S10 1.480101 1_565
O62 Sc5 2.115204 1_555
O63 S7 1.476132 1_565
O63 Sc6 2.107715 1_555
O64 S8 1.476149 1_555
O64 Sc6 2.107715 1_555
O65 S6 1.476139 1_455
O65 Sc6 2.107715 1_555
O66 S0 1.482868 1_565
O66 Sc7 2.120081 1_555
O67 S1 1.482876 1_555
O67 Sc7 2.120081 1_555
O68 S2 1.482873 1_455
O68 Sc7 2.120081 1_555
O69 S3 1.481752 1_555
O69 Sc8 2.126995 1_555
O70 S4 1.481744 1_455
O70 Sc8 2.126995 1_555
O71 S5 1.481748 1_565
O71 Sc8 2.126995 1_555
