# generated using pymatgen
data_LuB2Os3
_symmetry_space_group_name_H-M   'P 1'
_cell_length_a   11.03941093
_cell_length_b   11.03941093
_cell_length_c   6.06278200
_cell_angle_alpha   90.00000000
_cell_angle_beta   90.00000000
_cell_angle_gamma   119.99999359
_symmetry_Int_Tables_number   1
_chemical_formula_structural   LuB2Os3
_chemical_formula_sum   'Lu8 B16 Os24'
_cell_volume   639.87392348
_cell_formula_units_Z   8
loop_
 _symmetry_equiv_pos_site_id
 _symmetry_equiv_pos_as_xyz
  1  'x, y, z'
loop_
 _atom_site_type_symbol
 _atom_site_label
 _atom_site_symmetry_multiplicity
 _atom_site_fract_x
 _atom_site_fract_y
 _atom_site_fract_z
 _atom_site_occupancy
  Lu  Lu0_0  1  0.00000000  0.00000000  0.00000000  1
  Lu  Lu0_1  1  0.00000000  0.00000000  0.50000000  1
  Lu  Lu0_2  1  0.00000000  0.50000000  0.00000000  1
  Lu  Lu0_3  1  0.00000000  0.50000000  0.50000000  1
  Lu  Lu0_4  1  0.50000000  0.00000000  0.00000000  1
  Lu  Lu0_5  1  0.50000000  0.00000000  0.50000000  1
  Lu  Lu0_6  1  0.50000000  0.50000000  0.00000000  1
  Lu  Lu0_7  1  0.50000000  0.50000000  0.50000000  1
  B  B0_0  1  0.16666650  0.33333350  0.00000000  1
  B  B0_1  1  0.16666650  0.33333350  0.50000000  1
  B  B0_2  1  0.16666650  0.83333350  0.00000000  1
  B  B0_3  1  0.16666650  0.83333350  0.50000000  1
  B  B0_4  1  0.66666650  0.33333350  0.00000000  1
  B  B0_5  1  0.66666650  0.33333350  0.50000000  1
  B  B0_6  1  0.66666650  0.83333350  0.00000000  1
  B  B0_7  1  0.66666650  0.83333350  0.50000000  1
  B  B1_0  1  0.33333350  0.16666650  0.00000000  1
  B  B1_1  1  0.33333350  0.16666650  0.50000000  1
  B  B1_2  1  0.33333350  0.66666650  0.00000000  1
  B  B1_3  1  0.33333350  0.66666650  0.50000000  1
  B  B1_4  1  0.83333350  0.16666650  0.00000000  1
  B  B1_5  1  0.83333350  0.16666650  0.50000000  1
  B  B1_6  1  0.83333350  0.66666650  0.00000000  1
  B  B1_7  1  0.83333350  0.66666650  0.50000000  1
  Os  Os0_0  1  0.25000000  0.00000000  0.25000000  1
  Os  Os0_1  1  0.25000000  0.00000000  0.75000000  1
  Os  Os0_2  1  0.25000000  0.50000000  0.25000000  1
  Os  Os0_3  1  0.25000000  0.50000000  0.75000000  1
  Os  Os0_4  1  0.75000000  0.00000000  0.25000000  1
  Os  Os0_5  1  0.75000000  0.00000000  0.75000000  1
  Os  Os0_6  1  0.75000000  0.50000000  0.25000000  1
  Os  Os0_7  1  0.75000000  0.50000000  0.75000000  1
  Os  Os1_0  1  0.25000000  0.25000000  0.25000000  1
  Os  Os1_1  1  0.25000000  0.25000000  0.75000000  1
  Os  Os1_2  1  0.25000000  0.75000000  0.25000000  1
  Os  Os1_3  1  0.25000000  0.75000000  0.75000000  1
  Os  Os1_4  1  0.75000000  0.25000000  0.25000000  1
  Os  Os1_5  1  0.75000000  0.25000000  0.75000000  1
  Os  Os1_6  1  0.75000000  0.75000000  0.25000000  1
  Os  Os1_7  1  0.75000000  0.75000000  0.75000000  1
  Os  Os2_0  1  0.00000000  0.25000000  0.25000000  1
  Os  Os2_1  1  0.00000000  0.25000000  0.75000000  1
  Os  Os2_2  1  0.00000000  0.75000000  0.25000000  1
  Os  Os2_3  1  0.00000000  0.75000000  0.75000000  1
  Os  Os2_4  1  0.50000000  0.25000000  0.25000000  1
  Os  Os2_5  1  0.50000000  0.25000000  0.75000000  1
  Os  Os2_6  1  0.50000000  0.75000000  0.25000000  1
  Os  Os2_7  1  0.50000000  0.75000000  0.75000000  1
loop_
_geom_bond_atom_site_label_1
_geom_bond_atom_site_label_2
_geom_bond_distance
_geom_bond_site_symmetry_2
Lu0_0 Lu0_1 3.031391 1_554
Lu0_0 Lu0_1 3.031391 1_555
Lu0_0 Os2_1 3.148670 1_554
Lu0_0 Os2_3 3.148670 1_544
Lu0_0 Os0_1 3.148670 1_554
Lu0_0 Os0_5 3.148670 1_454
Lu0_0 Os0_4 3.148670 1_455
Lu0_0 Os0_0 3.148670 1_555
Lu0_0 Os2_2 3.148670 1_545
Lu0_0 Os2_0 3.148670 1_555
Lu0_0 Os1_1 3.148670 1_554
Lu0_0 Os1_7 3.148670 1_444
Lu0_0 Os1_0 3.148670 1_555
Lu0_0 Os1_6 3.148670 1_445
Lu0_1 Os0_4 3.148670 1_455
Lu0_1 Os0_0 3.148670 1_555
Lu0_1 Os2_2 3.148670 1_545
Lu0_1 Os2_0 3.148670 1_555
Lu0_1 Os0_5 3.148670 1_455
Lu0_1 Os2_1 3.148670 1_555
Lu0_1 Os0_1 3.148670 1_555
Lu0_1 Os2_3 3.148670 1_545
Lu0_1 Os1_0 3.148670 1_555
Lu0_1 Os1_6 3.148670 1_445
Lu0_1 Os1_1 3.148670 1_555
Lu0_1 Os1_7 3.148670 1_445
Lu0_2 Lu0_3 3.031391 1_554
Lu0_2 Lu0_3 3.031391 1_555
Lu0_2 Os2_1 3.148670 1_554
Lu0_2 Os2_3 3.148670 1_554
Lu0_2 Os0_3 3.148670 1_554
Lu0_2 Os0_7 3.148670 1_454
Lu0_2 Os0_2 3.148670 1_555
Lu0_2 Os0_6 3.148670 1_455
Lu0_2 Os2_2 3.148670 1_555
Lu0_2 Os2_0 3.148670 1_555
Lu0_2 Os1_3 3.148670 1_554
Lu0_2 Os1_5 3.148670 1_454
Lu0_2 Os1_2 3.148670 1_555
Lu0_2 Os1_4 3.148670 1_455
Lu0_3 Os0_2 3.148670 1_555
Lu0_3 Os0_6 3.148670 1_455
Lu0_3 Os2_2 3.148670 1_555
Lu0_3 Os2_0 3.148670 1_555
Lu0_3 Os2_3 3.148670 1_555
Lu0_3 Os0_3 3.148670 1_555
Lu0_3 Os2_1 3.148670 1_555
Lu0_3 Os0_7 3.148670 1_455
Lu0_3 Os1_2 3.148670 1_555
Lu0_3 Os1_4 3.148670 1_455
Lu0_3 Os1_5 3.148670 1_455
Lu0_3 Os1_3 3.148670 1_555
Lu0_4 Lu0_5 3.031391 1_554
Lu0_4 Lu0_5 3.031391 1_555
Lu0_4 Os0_5 3.148670 1_554
Lu0_4 Os0_1 3.148670 1_554
Lu0_4 Os2_5 3.148670 1_554
Lu0_4 Os2_7 3.148670 1_544
Lu0_4 Os2_4 3.148670 1_555
Lu0_4 Os0_0 3.148670 1_555
Lu0_4 Os2_6 3.148670 1_545
Lu0_4 Os0_4 3.148670 1_555
Lu0_4 Os1_5 3.148670 1_554
Lu0_4 Os1_3 3.148670 1_544
Lu0_4 Os1_2 3.148670 1_545
Lu0_4 Os1_4 3.148670 1_555
Lu0_5 Os2_4 3.148670 1_555
Lu0_5 Os0_0 3.148670 1_555
Lu0_5 Os2_6 3.148670 1_545
Lu0_5 Os0_4 3.148670 1_555
Lu0_5 Os2_5 3.148670 1_555
Lu0_5 Os0_5 3.148670 1_555
Lu0_5 Os0_1 3.148670 1_555
Lu0_5 Os2_7 3.148670 1_545
Lu0_5 Os1_2 3.148670 1_545
Lu0_5 Os1_4 3.148670 1_555
Lu0_5 Os1_3 3.148670 1_545
Lu0_5 Os1_5 3.148670 1_555
Lu0_6 Lu0_7 3.031391 1_554
Lu0_6 Lu0_7 3.031391 1_555
Lu0_6 Os0_7 3.148670 1_554
Lu0_6 Os0_3 3.148670 1_554
Lu0_6 Os2_5 3.148670 1_554
Lu0_6 Os2_7 3.148670 1_554
Lu0_6 Os0_2 3.148670 1_555
Lu0_6 Os2_4 3.148670 1_555
Lu0_6 Os2_6 3.148670 1_555
Lu0_6 Os0_6 3.148670 1_555
Lu0_6 Os1_1 3.148670 1_554
Lu0_6 Os1_7 3.148670 1_554
Lu0_6 Os1_6 3.148670 1_555
Lu0_6 Os1_0 3.148670 1_555
Lu0_7 Os0_2 3.148670 1_555
Lu0_7 Os2_4 3.148670 1_555
Lu0_7 Os2_6 3.148670 1_555
Lu0_7 Os0_6 3.148670 1_555
Lu0_7 Os0_7 3.148670 1_555
Lu0_7 Os2_5 3.148670 1_555
Lu0_7 Os0_3 3.148670 1_555
Lu0_7 Os2_7 3.148670 1_555
Lu0_7 Os1_6 3.148670 1_555
Lu0_7 Os1_0 3.148670 1_555
Lu0_7 Os1_7 3.148670 1_555
Lu0_7 Os1_1 3.148670 1_555
B0_0 Os2_1 2.199149 1_554
B0_0 Os0_3 2.199149 1_554
B0_0 Os0_2 2.199149 1_555
B0_0 Os2_0 2.199149 1_555
B0_0 Os1_1 2.199153 1_554
B0_0 Os1_0 2.199153 1_555
B0_0 Lu0_2 3.186800 1_555
B0_0 Lu0_6 3.186805 1_555
B0_0 Lu0_0 3.186805 1_555
B0_1 Os0_2 2.199149 1_555
B0_1 Os2_0 2.199149 1_555
B0_1 Os2_1 2.199149 1_555
B0_1 Os0_3 2.199149 1_555
B0_1 Os1_0 2.199153 1_555
B0_1 Os1_1 2.199153 1_555
B0_1 Lu0_3 3.186800 1_555
B0_1 Lu0_7 3.186805 1_555
B0_1 Lu0_1 3.186805 1_555
B0_2 Os0_1 2.199149 1_564
B0_2 Os2_3 2.199149 1_554
B0_2 Os2_2 2.199149 1_555
B0_2 Os0_0 2.199149 1_565
B0_2 Os1_3 2.199153 1_554
B0_2 Os1_2 2.199153 1_555
B0_2 Lu0_0 3.186800 1_565
B0_2 Lu0_4 3.186805 1_565
B0_2 Lu0_2 3.186805 1_555
B0_3 Os2_2 2.199149 1_555
B0_3 Os0_0 2.199149 1_565
B0_3 Os0_1 2.199149 1_565
B0_3 Os2_3 2.199149 1_555
B0_3 Os1_2 2.199153 1_555
B0_3 Os1_3 2.199153 1_555
B0_3 Lu0_1 3.186800 1_565
B0_3 Lu0_5 3.186805 1_565
B0_3 Lu0_3 3.186805 1_555
B0_4 Os0_7 2.199149 1_554
B0_4 Os2_5 2.199149 1_554
B0_4 Os2_4 2.199149 1_555
B0_4 Os0_6 2.199149 1_555
B0_4 Os1_5 2.199153 1_554
B0_4 Os1_4 2.199153 1_555
B0_4 Lu0_6 3.186800 1_555
B0_4 Lu0_4 3.186805 1_555
B0_4 Lu0_2 3.186805 1_655
B0_5 Os2_4 2.199149 1_555
B0_5 Os0_6 2.199149 1_555
B0_5 Os2_5 2.199149 1_555
B0_5 Os0_7 2.199149 1_555
B0_5 Os1_4 2.199153 1_555
B0_5 Os1_5 2.199153 1_555
B0_5 Lu0_7 3.186800 1_555
B0_5 Lu0_5 3.186805 1_555
B0_5 Lu0_3 3.186805 1_655
B0_6 Os0_5 2.199149 1_564
B0_6 Os2_7 2.199149 1_554
B0_6 Os2_6 2.199149 1_555
B0_6 Os0_4 2.199149 1_565
B0_6 Os1_7 2.199153 1_554
B0_6 Os1_6 2.199153 1_555
B0_6 Lu0_4 3.186800 1_565
B0_6 Lu0_6 3.186805 1_555
B0_6 Lu0_0 3.186805 1_665
B0_7 Os2_6 2.199149 1_555
B0_7 Os0_4 2.199149 1_565
B0_7 Os2_7 2.199149 1_555
B0_7 Os0_5 2.199149 1_565
B0_7 Os1_6 2.199153 1_555
B0_7 Os1_7 2.199153 1_555
B0_7 Lu0_5 3.186800 1_565
B0_7 Lu0_7 3.186805 1_555
B0_7 Lu0_1 3.186805 1_665
B1_0 Os0_1 2.199149 1_554
B1_0 Os2_5 2.199149 1_554
B1_0 Os2_4 2.199149 1_555
B1_0 Os0_0 2.199149 1_555
B1_0 Os1_1 2.199153 1_554
B1_0 Os1_0 2.199153 1_555
B1_0 Lu0_4 3.186800 1_555
B1_0 Lu0_6 3.186805 1_555
B1_0 Lu0_0 3.186805 1_555
B1_1 Os2_4 2.199149 1_555
B1_1 Os0_0 2.199149 1_555
B1_1 Os2_5 2.199149 1_555
B1_1 Os0_1 2.199149 1_555
B1_1 Os1_0 2.199153 1_555
B1_1 Os1_1 2.199153 1_555
B1_1 Lu0_5 3.186800 1_555
B1_1 Lu0_7 3.186805 1_555
B1_1 Lu0_1 3.186805 1_555
B1_2 Os2_7 2.199149 1_554
B1_2 Os0_3 2.199149 1_554
B1_2 Os0_2 2.199149 1_555
B1_2 Os2_6 2.199149 1_555
B1_2 Os1_3 2.199153 1_554
B1_2 Os1_2 2.199153 1_555
B1_2 Lu0_6 3.186800 1_555
B1_2 Lu0_2 3.186805 1_555
B1_2 Lu0_4 3.186805 1_565
B1_3 Os0_2 2.199149 1_555
B1_3 Os2_6 2.199149 1_555
B1_3 Os0_3 2.199149 1_555
B1_3 Os2_7 2.199149 1_555
B1_3 Os1_2 2.199153 1_555
B1_3 Os1_3 2.199153 1_555
B1_3 Lu0_7 3.186800 1_555
B1_3 Lu0_3 3.186805 1_555
B1_3 Lu0_5 3.186805 1_565
B1_4 Os0_5 2.199149 1_554
B1_4 Os2_1 2.199149 1_654
B1_4 Os0_4 2.199149 1_555
B1_4 Os2_0 2.199149 1_655
B1_4 Os1_5 2.199153 1_554
B1_4 Os1_4 2.199153 1_555
B1_4 Lu0_0 3.186800 1_655
B1_4 Lu0_2 3.186805 1_655
B1_4 Lu0_4 3.186805 1_555
B1_5 Os2_0 2.199149 1_655
B1_5 Os0_4 2.199149 1_555
B1_5 Os2_1 2.199149 1_655
B1_5 Os0_5 2.199149 1_555
B1_5 Os1_4 2.199153 1_555
B1_5 Os1_5 2.199153 1_555
B1_5 Lu0_1 3.186800 1_655
B1_5 Lu0_3 3.186805 1_655
B1_5 Lu0_5 3.186805 1_555
B1_6 Os0_7 2.199149 1_554
B1_6 Os2_3 2.199149 1_654
B1_6 Os0_6 2.199149 1_555
B1_6 Os2_2 2.199149 1_655
B1_6 Os1_7 2.199153 1_554
B1_6 Os1_6 2.199153 1_555
B1_6 Lu0_2 3.186800 1_655
B1_6 Lu0_6 3.186805 1_555
B1_6 Lu0_0 3.186805 1_665
B1_7 Os0_6 2.199149 1_555
B1_7 Os2_2 2.199149 1_655
B1_7 Os0_7 2.199149 1_555
B1_7 Os2_3 2.199149 1_655
B1_7 Os1_6 2.199153 1_555
B1_7 Os1_7 2.199153 1_555
B1_7 Lu0_3 3.186800 1_655
B1_7 Lu0_7 3.186805 1_555
B1_7 Lu0_1 3.186805 1_665
