# generated using pymatgen
data_Na8TaIn3Si5SO24
_symmetry_space_group_name_H-M   'P 1'
_cell_length_a   9.28561495
_cell_length_b   9.26854106
_cell_length_c   22.59739447
_cell_angle_alpha   89.80706295
_cell_angle_beta   90.17623000
_cell_angle_gamma   120.02039755
_symmetry_Int_Tables_number   1
_chemical_formula_structural   Na8TaIn3Si5SO24
_chemical_formula_sum   'Na24 Ta3 In9 Si15 S3 O72'
_cell_volume   1683.90940836
_cell_formula_units_Z   3
loop_
 _symmetry_equiv_pos_site_id
 _symmetry_equiv_pos_as_xyz
  1  'x, y, z'
loop_
 _atom_site_type_symbol
 _atom_site_label
 _atom_site_symmetry_multiplicity
 _atom_site_fract_x
 _atom_site_fract_y
 _atom_site_fract_z
 _atom_site_occupancy
  Na  Na0  1  0.61577703  0.99831002  0.25137558  1
  Na  Na1  1  0.36766391  0.35666546  0.25488578  1
  Na  Na2  1  0.01323346  0.64353572  0.24823293  1
  Na  Na3  1  0.63993912  0.62077154  0.74567065  1
  Na  Na4  1  0.99931592  0.36559388  0.73750562  1
  Na  Na5  1  0.35542520  0.00835054  0.74172925  1
  Na  Na6  1  0.29640119  0.34199858  0.58102721  1
  Na  Na7  1  0.04422509  0.70513747  0.58141715  1
  Na  Na8  1  0.66225662  0.95756835  0.57727584  1
  Na  Na9  1  0.29634761  0.95311867  0.08225053  1
  Na  Na10  1  0.65760947  0.70214327  0.07820995  1
  Na  Na11  1  0.04425605  0.34038476  0.07852985  1
  Na  Na12  1  0.97060677  0.67981963  0.91529272  1
  Na  Na13  1  0.70359328  0.02293660  0.91989695  1
  Na  Na14  1  0.32023733  0.29213586  0.91435835  1
  Na  Na15  1  0.97882853  0.30344846  0.42244683  1
  Na  Na16  1  0.32693564  0.02614986  0.41855454  1
  Na  Na17  1  0.69764962  0.67637875  0.42254457  1
  Na  Na18  1  0.00109659  0.00110240  0.50159543  1
  Na  Na19  1  0.00052392  0.99811567  0.99921819  1
  Na  Na20  1  0.66486741  0.34445487  0.82995459  1
  Na  Na21  1  0.65397265  0.32178421  0.33833051  1
  Na  Na22  1  0.33198560  0.67743033  0.15967242  1
  Na  Na23  1  0.32733043  0.66119734  0.65452985  1
  Ta  Ta0  1  0.66578263  0.33192220  0.98069357  1
  Ta  Ta1  1  0.66754070  0.33516345  0.48317088  1
  Ta  Ta2  1  0.32301616  0.65778890  0.81847368  1
  In  In0  1  0.01139229  0.00273030  0.35358498  1
  In  In1  1  0.00821394  0.99684642  0.85032016  1
  In  In2  1  0.01643155  0.00523041  0.64467343  1
  In  In3  1  0.00948565  0.99628373  0.14152614  1
  In  In4  1  0.66593299  0.34222267  0.67970045  1
  In  In5  1  0.65438971  0.32344710  0.17745101  1
  In  In6  1  0.33223073  0.66481068  0.01650423  1
  In  In7  1  0.33502390  0.66998825  0.51503407  1
  In  In8  1  0.33049344  0.67777060  0.32709916  1
  Si  Si0  1  0.30030581  0.99863036  0.24926134  1
  Si  Si1  1  0.29816265  0.30158435  0.75145466  1
  Si  Si2  1  0.00156525  0.70032261  0.75117753  1
  Si  Si3  1  0.95985960  0.33225190  0.58540462  1
  Si  Si4  1  0.37742576  0.03993171  0.58477979  1
  Si  Si5  1  0.66621369  0.63217964  0.58420288  1
  Si  Si6  1  0.95593896  0.62054534  0.08498093  1
  Si  Si7  1  0.66804252  0.03756123  0.08412783  1
  Si  Si8  1  0.37380250  0.33754616  0.08298609  1
  Si  Si9  1  0.62734920  0.66571797  0.91786482  1
  Si  Si10  1  0.03206453  0.36754404  0.91905985  1
  Si  Si11  1  0.33819757  0.96173335  0.91839488  1
  Si  Si12  1  0.63726203  0.97261009  0.41608482  1
  Si  Si13  1  0.33863711  0.37403230  0.41609213  1
  Si  Si14  1  0.02811938  0.66032745  0.41681166  1
  S  S0  1  0.70299509  0.70431868  0.24927247  1
  S  S1  1  0.00021660  0.29640213  0.24911277  1
  S  S2  1  0.69659116  0.99204265  0.75191275  1
  O  O0  1  0.21725818  0.03431197  0.30704897  1
  O  O1  1  0.80243987  0.78749187  0.30293886  1
  O  O2  1  0.97522192  0.19257745  0.30250696  1
  O  O3  1  0.21821861  0.19225293  0.81141804  1
  O  O4  1  0.95983881  0.77465104  0.80997395  1
  O  O5  1  0.79936093  0.01729541  0.80595188  1
  O  O6  1  0.77228379  0.96574317  0.69883069  1
  O  O7  1  0.17498045  0.22928635  0.69390115  1
  O  O8  1  0.04733040  0.82224499  0.69339911  1
  O  O9  1  0.78183287  0.80753665  0.19514952  1
  O  O10  1  0.01581611  0.21331163  0.19483720  1
  O  O11  1  0.18280914  0.96278124  0.18993383  1
  O  O12  1  0.88291499  0.36071170  0.64613200  1
  O  O13  1  0.48281246  0.11392027  0.64603498  1
  O  O14  1  0.62979176  0.52787109  0.64588974  1
  O  O15  1  0.87910316  0.51443352  0.14595629  1
  O  O16  1  0.63458539  0.10787902  0.14537753  1
  O  O17  1  0.47903993  0.37464554  0.14437986  1
  O  O18  1  0.48103196  0.31493833  0.02666667  1
  O  O19  1  0.83213364  0.51434507  0.02728830  1
  O  O20  1  0.68876212  0.16454840  0.02654291  1
  O  O21  1  0.48364965  0.16395297  0.52818332  1
  O  O22  1  0.68528992  0.52403074  0.52817579  1
  O  O23  1  0.83649252  0.31682165  0.52850281  1
  O  O24  1  0.55460818  0.70325861  0.97658143  1
  O  O25  1  0.14812085  0.44061685  0.97642390  1
  O  O26  1  0.29947323  0.84901411  0.97672992  1
  O  O27  1  0.55835083  0.84994065  0.47248357  1
  O  O28  1  0.30077702  0.45497295  0.47281898  1
  O  O29  1  0.15318267  0.70441593  0.47236374  1
  O  O30  1  0.09243399  0.61086309  0.35631142  1
  O  O31  1  0.52325432  0.90652021  0.35567551  1
  O  O32  1  0.37960758  0.48902552  0.35539336  1
  O  O33  1  0.13502099  0.49869119  0.86212662  1
  O  O34  1  0.36491448  0.86177580  0.86114567  1
  O  O35  1  0.49804936  0.63774886  0.86123164  1
  O  O36  1  0.99637156  0.81829146  0.41209092  1
  O  O37  1  0.82454076  0.00006707  0.40842827  1
  O  O38  1  0.17597311  0.18666321  0.41306455  1
  O  O39  1  0.99855880  0.18005598  0.90828268  1
  O  O40  1  0.17948271  0.99076948  0.91290296  1
  O  O41  1  0.81238002  0.82711789  0.90948181  1
  O  O42  1  0.96134624  0.15597547  0.58388390  1
  O  O43  1  0.20074259  0.03881721  0.58089845  1
  O  O44  1  0.84113583  0.81062688  0.58399536  1
  O  O45  1  0.95627078  0.79772024  0.08124766  1
  O  O46  1  0.84361498  0.03435082  0.08426238  1
  O  O47  1  0.19536278  0.16286300  0.08058862  1
  O  O48  1  0.67479135  0.14030375  0.74832005  1
  O  O49  1  0.48327438  0.31956711  0.74783441  1
  O  O50  1  0.84453321  0.50829697  0.74786690  1
  O  O51  1  0.69373296  0.53853560  0.24678458  1
  O  O52  1  0.85255917  0.31989327  0.24673608  1
  O  O53  1  0.48828370  0.16975710  0.24753227  1
  O  O54  1  0.63644373  0.49004024  0.92209916  1
  O  O55  1  0.85273919  0.36595039  0.92229580  1
  O  O56  1  0.51342663  0.14571913  0.92218038  1
  O  O57  1  0.65190330  0.15768967  0.42619984  1
  O  O58  1  0.50708664  0.35452122  0.42471560  1
  O  O59  1  0.84332774  0.49161258  0.42631977  1
  O  O60  1  0.35198408  0.49972023  0.07817798  1
  O  O61  1  0.14032890  0.64282402  0.07998498  1
  O  O62  1  0.50427835  0.85453907  0.07845313  1
  O  O63  1  0.35560175  0.85520392  0.57918000  1
  O  O64  1  0.50177335  0.65053665  0.57779426  1
  O  O65  1  0.14328147  0.49712911  0.57927767  1
  O  O66  1  0.31584458  0.82712337  0.25391315  1
  O  O67  1  0.53274103  0.68177051  0.25236461  1
  O  O68  1  0.15644564  0.46159806  0.25269711  1
  O  O69  1  0.32094491  0.49384122  0.76073927  1
  O  O70  1  0.17772856  0.69000196  0.76119279  1
  O  O71  1  0.52761157  0.83806043  0.75818765  1
loop_
_geom_bond_atom_site_label_1
_geom_bond_atom_site_label_2
_geom_bond_distance
_geom_bond_site_symmetry_2
Na0 O53 2.411430 1_565
Na0 O66 2.419922 1_555
Na0 O31 2.506889 1_555
Na0 O16 2.570587 1_565
Na0 O67 2.634137 1_555
Na0 O52 2.677884 1_565
Na1 O53 2.495548 1_555
Na1 O32 2.560619 1_555
Na1 O68 2.588969 1_555
Na1 O67 2.609640 1_555
Na1 O51 2.633756 1_555
Na1 O17 2.678376 1_555
Na1 O0 2.842134 1_555
Na2 O66 2.454088 1_555
Na2 O52 2.597583 1_455
Na2 O30 2.608479 1_555
Na2 O15 2.614249 1_455
Na2 O51 2.619243 1_455
Na2 O68 2.619933 1_555
Na2 O11 2.880060 1_555
Na3 O14 2.401030 1_555
Na3 O49 2.418299 1_555
Na3 O50 2.584407 1_555
Na3 O69 2.605841 1_555
Na3 O71 2.707670 1_555
Na3 O4 2.952538 1_555
Na3 O35 2.968388 1_555
Na3 O6 2.984513 1_555
Na4 O12 2.317688 1_555
Na4 O50 2.403378 1_555
Na4 O69 2.655237 1_655
Na4 O70 2.663251 1_655
Na4 O48 2.684297 1_555
Na4 O7 2.703326 1_655
Na5 O13 2.424069 1_555
Na5 O49 2.514762 1_555
Na5 O48 2.584882 1_555
Na5 O70 2.597372 1_545
Na5 O8 2.721812 1_545
Na5 O71 2.775483 1_545
Na6 O65 2.476961 1_555
Na6 O43 2.487538 1_555
Na6 O64 2.522401 1_555
Na6 O28 2.649151 1_555
Na6 O42 2.699888 1_455
Na6 O7 2.773006 1_555
Na7 O63 2.504659 1_555
Na7 O65 2.518056 1_555
Na7 O44 2.522230 1_455
Na7 O29 2.668101 1_555
Na7 O43 2.679475 1_565
Na7 O8 2.751204 1_555
Na8 O42 2.450715 1_565
Na8 O64 2.464873 1_555
Na8 O63 2.511447 1_555
Na8 O27 2.563664 1_555
Na8 O44 2.626305 1_555
Na8 O6 2.915693 1_555
Na9 O61 2.490812 1_555
Na9 O62 2.517300 1_555
Na9 O47 2.546227 1_565
Na9 O26 2.581009 1_554
Na9 O11 2.674414 1_555
Na9 O45 2.737806 1_455
Na10 O45 2.453856 1_555
Na10 O62 2.456559 1_555
Na10 O24 2.487003 1_554
Na10 O60 2.499218 1_555
Na10 O46 2.676297 1_565
Na10 O9 2.852873 1_555
Na11 O60 2.474586 1_555
Na11 O61 2.480501 1_555
Na11 O25 2.493932 1_554
Na11 O46 2.498931 1_455
Na11 O47 2.643349 1_555
Na11 O10 2.834920 1_555
Na12 O41 2.458549 1_555
Na12 O40 2.545044 1_655
Na12 O55 2.549097 1_555
Na12 O4 2.553233 1_555
Na12 O54 2.699168 1_555
Na12 O19 2.903646 1_556
Na12 O26 2.984746 1_655
Na12 O33 3.030177 1_655
Na13 O39 2.387914 1_555
Na13 O41 2.491727 1_545
Na13 O56 2.535263 1_555
Na13 O5 2.735863 1_555
Na13 O55 2.761067 1_555
Na13 O20 2.784537 1_556
Na13 O24 2.866616 1_545
Na14 O40 2.420496 1_545
Na14 O3 2.507785 1_555
Na14 O54 2.574142 1_555
Na14 O39 2.629383 1_455
Na14 O56 2.742854 1_555
Na14 O18 2.894704 1_556
Na14 O25 2.939874 1_555
Na14 O35 3.020384 1_555
Na15 O37 2.455990 1_555
Na15 O38 2.560154 1_655
Na15 O59 2.613367 1_555
Na15 O57 2.635325 1_555
Na15 O23 2.773309 1_555
Na15 O28 2.827344 1_655
Na15 O2 2.895989 1_555
Na15 O30 2.904857 1_655
Na16 O38 2.505621 1_555
Na16 O57 2.634148 1_555
Na16 O58 2.643437 1_555
Na16 O36 2.690104 1_445
Na16 O0 2.729834 1_555
Na16 O21 2.832915 1_555
Na16 O29 2.854375 1_545
Na16 O31 2.936076 1_545
Na17 O36 2.414780 1_555
Na17 O58 2.598139 1_555
Na17 O37 2.636196 1_565
Na17 O59 2.661968 1_555
Na17 O22 2.742552 1_555
Na17 O27 2.763627 1_555
Na17 O1 2.882211 1_555
Na17 O32 2.983002 1_555
Na18 O43 2.470965 1_555
Na18 O44 2.482156 1_445
Na18 O42 2.491358 1_455
Na18 O38 2.607563 1_555
Na18 O36 2.629033 1_445
Na18 O37 2.661469 1_455
Na19 O47 2.493997 1_566
Na19 O45 2.504499 1_456
Na19 O46 2.537727 1_466
Na19 O40 2.589309 1_555
Na19 O41 2.627795 1_455
Na19 O39 2.659675 1_465
Na20 O49 2.436094 1_555
Na20 O50 2.448527 1_555
Na20 O54 2.569976 1_555
Na20 O55 2.658913 1_555
Na20 O56 2.667215 1_555
Na20 O48 2.681584 1_555
Na21 O58 2.489466 1_555
Na21 O57 2.491363 1_555
Na21 O53 2.528489 1_555
Na21 O59 2.598632 1_555
Na21 O51 2.772422 1_555
Na21 O52 2.782220 1_555
Na22 O61 2.434268 1_555
Na22 O62 2.447976 1_555
Na22 O60 2.543109 1_555
Na22 O66 2.590860 1_555
Na22 O67 2.786664 1_555
Na22 O68 2.794208 1_555
Na23 O65 2.350310 1_555
Na23 O63 2.389833 1_555
Na23 O64 2.412254 1_555
Na23 O69 2.837889 1_555
Na23 O70 2.864716 1_555
Na23 O71 2.929369 1_555
In0 O0 2.072705 1_555
In0 O36 2.106420 1_445
In0 O38 2.108136 1_555
In0 O37 2.125327 1_455
In0 O2 2.261980 1_455
In0 O1 2.276583 1_445
In1 O3 2.078817 1_565
In1 O4 2.087755 1_455
In1 O40 2.146528 1_555
In1 O41 2.169597 1_455
In1 O39 2.185211 1_465
In1 O5 2.270835 1_465
In2 O43 2.140537 1_555
In2 O8 2.154882 1_545
In2 O7 2.159573 1_555
In2 O42 2.190577 1_455
In2 O44 2.201839 1_445
In2 O6 2.440298 1_445
In3 O11 2.090496 1_555
In3 O45 2.142292 1_455
In3 O47 2.143089 1_565
In3 O46 2.167863 1_465
In3 O9 2.301838 1_455
In3 O10 2.323481 1_565
In4 O14 2.055364 1_555
In4 O12 2.080213 1_555
In4 O13 2.085722 1_555
In4 O50 2.222251 1_555
In4 O49 2.224607 1_555
In4 O48 2.459146 1_555
In5 O16 2.047538 1_555
In5 O17 2.048917 1_555
In5 O15 2.073319 1_555
In5 O53 2.171971 1_555
In5 O51 2.418931 1_555
In5 O52 2.425082 1_555
In6 O26 2.079143 1_554
In6 O24 2.116063 1_554
In6 O25 2.123530 1_554
In6 O60 2.140608 1_555
In6 O62 2.189976 1_555
In6 O61 2.219230 1_555
In7 O28 2.087946 1_555
In7 O29 2.099922 1_555
In7 O27 2.132448 1_555
In7 O64 2.169191 1_555
In7 O63 2.184370 1_555
In7 O65 2.233910 1_555
In8 O31 2.078642 1_555
In8 O30 2.083581 1_555
In8 O32 2.113325 1_555
In8 O66 2.200329 1_555
In8 O68 2.493783 1_555
In8 O67 2.515894 1_555
O0 Si0 1.635108 1_545
O1 S0 1.484846 1_555
O2 S1 1.485304 1_655
O3 Si1 1.630407 1_555
O4 Si2 1.632926 1_655
O5 S2 1.492611 1_545
O6 S2 1.473379 1_555
O7 Si1 1.636639 1_555
O8 Si2 1.635618 1_555
O9 S0 1.497938 1_555
O10 S1 1.495802 1_555
O11 Si0 1.652073 1_555
O12 Si3 1.631032 1_555
O13 Si4 1.634165 1_555
O14 Si5 1.630596 1_555
O15 Si6 1.633912 1_555
O16 Si7 1.627358 1_555
O17 Si8 1.629880 1_555
O18 Si8 1.695099 1_555
O18 Ta0 1.945945 1_554
O19 Si6 1.690346 1_555
O19 Ta0 1.934447 1_554
O20 Si7 1.697131 1_555
O20 Ta0 1.960761 1_554
O21 Si4 1.671303 1_555
O21 Ta1 1.938292 1_555
O22 Si5 1.681268 1_555
O22 Ta1 1.961644 1_555
O23 Si3 1.677595 1_555
O23 Ta1 1.948146 1_555
O24 Si9 1.606733 1_555
O25 Si10 1.602304 1_555
O26 Si11 1.605064 1_555
O27 Si12 1.617477 1_555
O28 Si13 1.613306 1_555
O29 Si14 1.615885 1_555
O30 Si14 1.648980 1_555
O31 Si12 1.645380 1_555
O32 Si13 1.658228 1_555
O33 Si10 1.697333 1_555
O33 Ta2 1.902600 1_555
O34 Si11 1.683305 1_555
O34 Ta2 1.982357 1_555
O35 Si9 1.681621 1_555
O35 Ta2 1.975057 1_555
O36 Si14 1.634777 1_655
O37 Si12 1.636320 1_545
O38 Si13 1.636299 1_555
O39 Si10 1.623962 1_655
O40 Si11 1.629518 1_555
O41 Si9 1.629102 1_555
O42 Si3 1.641251 1_555
O43 Si4 1.637550 1_555
O44 Si5 1.638804 1_555
O45 Si6 1.642498 1_555
O46 Si7 1.645380 1_555
O47 Si8 1.638721 1_555
O48 S2 1.487742 1_545
O49 Si1 1.644115 1_555
O50 Si2 1.644043 1_655
O51 S0 1.496635 1_555
O52 S1 1.492768 1_655
O53 Si0 1.671449 1_545
O54 Si9 1.674533 1_555
O54 Ta0 2.087912 1_555
O55 Si10 1.659641 1_655
O55 Ta0 2.077995 1_555
O56 Si11 1.669287 1_545
O56 Ta0 2.071001 1_555
O57 Si12 1.668076 1_545
O57 Ta1 2.039207 1_555
O58 Si13 1.672779 1_555
O58 Ta1 2.061720 1_555
O59 Si14 1.658583 1_655
O59 Ta1 2.012321 1_555
O60 Si8 1.617310 1_555
O61 Si6 1.623019 1_455
O62 Si7 1.620353 1_565
O63 Si4 1.625633 1_565
O64 Si5 1.624766 1_555
O65 Si3 1.628182 1_455
O66 Si0 1.669444 1_555
O67 S0 1.489238 1_555
O68 S1 1.494306 1_555
O69 Si1 1.699745 1_555
O69 Ta2 1.998869 1_555
O70 Si2 1.700091 1_555
O70 Ta2 1.993574 1_555
O71 S2 1.509384 1_555
O71 Ta2 2.254153 1_555
