# generated using pymatgen
data_NaLa2Nb2P5SO24
_symmetry_space_group_name_H-M   'P 1'
_cell_length_a   9.14071108
_cell_length_b   9.14751266
_cell_length_c   23.83475420
_cell_angle_alpha   89.69264677
_cell_angle_beta   90.01280419
_cell_angle_gamma   119.85123368
_symmetry_Int_Tables_number   1
_chemical_formula_structural   NaLa2Nb2P5SO24
_chemical_formula_sum   'Na3 La6 Nb6 P15 S3 O72'
_cell_volume   1728.48422714
_cell_formula_units_Z   3
loop_
 _symmetry_equiv_pos_site_id
 _symmetry_equiv_pos_as_xyz
  1  'x, y, z'
loop_
 _atom_site_type_symbol
 _atom_site_label
 _atom_site_symmetry_multiplicity
 _atom_site_fract_x
 _atom_site_fract_y
 _atom_site_fract_z
 _atom_site_occupancy
  Na  Na0  1  0.00124582  0.99989777  0.00090638  1
  Na  Na1  1  0.66621837  0.33153963  0.83075105  1
  Na  Na2  1  0.66958547  0.33680821  0.33280434  1
  La  La0  1  0.99420877  0.99527443  0.65037850  1
  La  La1  1  0.00255862  0.00110695  0.14422298  1
  La  La2  1  0.66355303  0.34225030  0.68701346  1
  La  La3  1  0.66652276  0.33351540  0.96992026  1
  La  La4  1  0.67029234  0.33932514  0.48091199  1
  La  La5  1  0.32964828  0.66759593  0.30462883  1
  Nb  Nb0  1  0.00986582  0.01386880  0.35685739  1
  Nb  Nb1  1  0.99921825  0.99985142  0.85552153  1
  Nb  Nb2  1  0.66316955  0.32287706  0.18234068  1
  Nb  Nb3  1  0.33114894  0.66481050  0.02249445  1
  Nb  Nb4  1  0.34043075  0.66893661  0.51058029  1
  Nb  Nb5  1  0.33394308  0.66661204  0.81451739  1
  P  P0  1  0.30557773  0.03662506  0.25181078  1
  P  P1  1  0.96579713  0.27036934  0.25129187  1
  P  P2  1  0.28940724  0.29613423  0.75896528  1
  P  P3  1  0.00503141  0.70865682  0.75978048  1
  P  P4  1  0.70290837  0.99717043  0.75958169  1
  P  P5  1  0.64954125  0.63534950  0.58105907  1
  P  P6  1  0.96127572  0.60672595  0.08113848  1
  P  P7  1  0.64316033  0.03187597  0.08052523  1
  P  P8  1  0.39087545  0.35413366  0.08082499  1
  P  P9  1  0.62096091  0.68964501  0.91555199  1
  P  P10  1  0.06864241  0.37825692  0.91572147  1
  P  P11  1  0.31097222  0.93149767  0.91514610  1
  P  P12  1  0.63730709  0.95139031  0.41259809  1
  P  P13  1  0.31914750  0.36894012  0.41400437  1
  P  P14  1  0.05171612  0.68848705  0.41385588  1
  S  S0  1  0.72526303  0.68884160  0.25138441  1
  S  S1  1  0.99241931  0.35640123  0.58064897  1
  S  S2  1  0.36560617  0.00958718  0.58063495  1
  O  O0  1  0.20694904  0.05672718  0.30350268  1
  O  O1  1  0.83212351  0.77762172  0.30073680  1
  O  O2  1  0.94736271  0.15387639  0.30371030  1
  O  O3  1  0.17922342  0.17305498  0.80881672  1
  O  O4  1  0.99186102  0.81905962  0.80901436  1
  O  O5  1  0.82637457  0.00864924  0.80904529  1
  O  O6  1  0.76604281  0.96446599  0.70503240  1
  O  O7  1  0.19465268  0.23238366  0.70445972  1
  O  O8  1  0.03830950  0.80366733  0.70473907  1
  O  O9  1  0.79240920  0.78378389  0.19923224  1
  O  O10  1  0.99316492  0.19718742  0.19869326  1
  O  O11  1  0.20379579  0.00301871  0.19907709  1
  O  O12  1  0.91744632  0.38529465  0.63130299  1
  O  O13  1  0.47004383  0.08244402  0.63116695  1
  O  O14  1  0.61307594  0.52392080  0.63384156  1
  O  O15  1  0.86538267  0.49121008  0.13457660  1
  O  O16  1  0.62558349  0.12836588  0.13490939  1
  O  O17  1  0.50348570  0.36951832  0.13406641  1
  O  O18  1  0.46755609  0.32644622  0.02903710  1
  O  O19  1  0.85713774  0.53182466  0.02936261  1
  O  O20  1  0.67452664  0.14171569  0.02991451  1
  O  O21  1  0.44384731  0.11980055  0.53157438  1
  O  O22  1  0.68281766  0.55291889  0.53110917  1
  O  O23  1  0.88021478  0.31966375  0.53205988  1
  O  O24  1  0.53287567  0.70404198  0.96971778  1
  O  O25  1  0.17055414  0.46553125  0.97008511  1
  O  O26  1  0.29493896  0.82801044  0.96960813  1
  O  O27  1  0.53770560  0.83342161  0.46523417  1
  O  O28  1  0.29896582  0.46547462  0.46581302  1
  O  O29  1  0.16774291  0.70711787  0.46581075  1
  O  O30  1  0.12376105  0.65705928  0.36193969  1
  O  O31  1  0.53350504  0.87629208  0.36141344  1
  O  O32  1  0.34881617  0.47008427  0.36175485  1
  O  O33  1  0.16706553  0.48657814  0.86485588  1
  O  O34  1  0.32149102  0.83441349  0.86437139  1
  O  O35  1  0.51354831  0.67979945  0.86452150  1
  O  O36  1  0.05094721  0.86048718  0.40376976  1
  O  O37  1  0.80947418  0.95130737  0.40401372  1
  O  O38  1  0.14366556  0.19745686  0.40689783  1
  O  O39  1  0.05124803  0.19838772  0.91068219  1
  O  O40  1  0.14813872  0.94885356  0.90989850  1
  O  O41  1  0.80045989  0.85230374  0.91027462  1
  O  O42  1  0.02960312  0.21934082  0.58855318  1
  O  O43  1  0.19332477  0.97795187  0.58845497  1
  O  O44  1  0.78842652  0.81562089  0.59034531  1
  O  O45  1  0.00287241  0.78827569  0.08852702  1
  O  O46  1  0.78253465  0.98944328  0.08839608  1
  O  O47  1  0.20821109  0.21503597  0.08743718  1
  O  O48  1  0.69034202  0.15683851  0.76037709  1
  O  O49  1  0.46194852  0.30749257  0.76027309  1
  O  O50  1  0.84464796  0.53674248  0.76067130  1
  O  O51  1  0.72056086  0.52124008  0.24527524  1
  O  O52  1  0.79480955  0.27525546  0.24107700  1
  O  O53  1  0.47924835  0.20737429  0.24041246  1
  O  O54  1  0.64043099  0.53415078  0.91302484  1
  O  O55  1  0.89419052  0.36021519  0.91344948  1
  O  O56  1  0.46672852  0.10585234  0.91325350  1
  O  O57  1  0.67907854  0.13203319  0.42325826  1
  O  O58  1  0.45345819  0.31947175  0.42323627  1
  O  O59  1  0.86909582  0.55007407  0.42264296  1
  O  O60  1  0.38830254  0.52523778  0.07114675  1
  O  O61  1  0.13548187  0.61032505  0.07102957  1
  O  O62  1  0.47226415  0.86172917  0.07140405  1
  O  O63  1  0.35518745  0.84366445  0.56777171  1
  O  O64  1  0.48605268  0.64431588  0.56314936  1
  O  O65  1  0.15521630  0.51387643  0.56700018  1
  O  O66  1  0.35469806  0.90508576  0.26298172  1
  O  O67  1  0.55146321  0.65249633  0.25835779  1
  O  O68  1  0.10085608  0.44925820  0.26135318  1
  O  O69  1  0.31299298  0.47399041  0.77146583  1
  O  O70  1  0.15987875  0.68576229  0.77230665  1
  O  O71  1  0.52591715  0.84091619  0.77201651  1
loop_
_geom_bond_atom_site_label_1
_geom_bond_atom_site_label_2
_geom_bond_distance
_geom_bond_site_symmetry_2
Na0 O39 2.694915 1_564
Na0 O40 2.713372 1_554
Na0 O41 2.724042 1_454
Na0 O47 2.835677 1_565
Na0 O45 2.845057 1_555
Na0 O46 2.857220 1_455
Na1 O48 2.407426 1_555
Na1 O50 2.427641 1_555
Na1 O49 2.439307 1_555
Na1 O56 2.768471 1_555
Na1 O55 2.784947 1_555
Na1 O54 2.794662 1_555
Na2 O51 2.568244 1_555
Na2 O52 2.657639 1_555
Na2 O53 2.693291 1_555
Na2 O59 2.866714 1_555
Na2 O58 2.874052 1_555
Na2 O57 2.877994 1_555
La0 O44 2.287575 1_555
La0 O6 2.353345 1_555
La0 O8 2.364759 1_655
La0 O42 2.405178 1_665
La0 O7 2.407437 1_665
La0 O43 2.409756 1_655
La1 O11 2.249537 1_555
La1 O10 2.255758 1_455
La1 O47 2.346434 1_555
La1 O9 2.352153 1_445
La1 O45 2.363447 1_545
La1 O46 2.369277 1_445
La2 O14 2.306769 1_555
La2 O49 2.440941 1_555
La2 O50 2.467391 1_555
La2 O48 2.524999 1_555
La2 O12 2.527893 1_555
La2 O13 2.529172 1_555
La3 O18 2.276030 1_556
La3 O19 2.283383 1_556
La3 O20 2.286736 1_556
La3 O54 2.381835 1_555
La3 O55 2.386163 1_555
La3 O56 2.395701 1_555
La4 O22 2.250430 1_555
La4 O59 2.330775 1_555
La4 O58 2.343986 1_555
La4 O23 2.353859 1_555
La4 O21 2.369019 1_555
La4 O57 2.381171 1_555
La5 O30 2.288261 1_555
La5 O66 2.288898 1_555
La5 O68 2.299912 1_555
La5 O31 2.331056 1_555
La5 O32 2.331856 1_555
La5 O67 2.372287 1_555
Nb0 O38 1.927379 1_555
Nb0 O36 1.966549 1_545
Nb0 O37 1.973949 1_445
Nb0 O2 2.069297 1_455
Nb0 O0 2.075773 1_555
Nb0 O1 2.373574 1_445
Nb1 O3 1.960475 1_665
Nb1 O5 1.963301 1_565
Nb1 O4 1.969066 1_555
Nb1 O41 2.089638 1_555
Nb1 O40 2.091713 1_655
Nb1 O39 2.102022 1_665
Nb2 O16 1.993700 1_555
Nb2 O53 2.018799 1_555
Nb2 O52 2.027826 1_555
Nb2 O15 2.057273 1_555
Nb2 O17 2.061639 1_555
Nb2 O51 2.213378 1_555
Nb3 O61 1.973029 1_555
Nb3 O60 1.973716 1_555
Nb3 O62 1.994077 1_555
Nb3 O25 2.097141 1_554
Nb3 O26 2.097304 1_554
Nb3 O24 2.109183 1_554
Nb4 O64 1.920187 1_555
Nb4 O27 1.991520 1_555
Nb4 O28 2.016189 1_555
Nb4 O63 2.059045 1_555
Nb4 O65 2.067966 1_555
Nb4 O29 2.072759 1_555
Nb5 O71 1.961080 1_555
Nb5 O70 1.961952 1_555
Nb5 O69 1.969183 1_555
Nb5 O35 1.983377 1_555
Nb5 O33 1.989298 1_555
Nb5 O34 1.993636 1_555
O0 P0 1.591390 1_555
O1 S0 1.489083 1_555
O2 P1 1.591210 1_555
O3 P2 1.597222 1_555
O4 P3 1.595391 1_655
O5 P4 1.599183 1_545
O6 P4 1.513061 1_555
O7 P2 1.510889 1_555
O8 P3 1.514504 1_555
O9 S0 1.460897 1_555
O10 P1 1.502757 1_555
O11 P0 1.502917 1_555
O12 S1 1.476903 1_555
O13 S2 1.476771 1_555
O14 P5 1.543043 1_555
O15 P6 1.603487 1_555
O16 P7 1.624386 1_555
O17 P8 1.595875 1_555
O18 P8 1.503169 1_555
O19 P6 1.502580 1_555
O20 P7 1.499088 1_555
O21 S2 1.471468 1_555
O22 P5 1.522037 1_555
O23 S1 1.471935 1_555
O24 P9 1.562124 1_555
O25 P10 1.566619 1_555
O26 P11 1.565711 1_555
O27 P12 1.604764 1_555
O28 P13 1.585126 1_555
O29 P14 1.584000 1_555
O30 P14 1.496716 1_555
O31 P12 1.490007 1_555
O32 P13 1.489459 1_555
O33 P10 1.536624 1_555
O34 P11 1.535938 1_555
O35 P9 1.537561 1_555
O36 P14 1.593830 1_555
O37 P12 1.587395 1_555
O38 P13 1.600047 1_555
O39 P10 1.577525 1_555
O40 P11 1.578345 1_555
O41 P9 1.577833 1_555
O42 S1 1.464442 1_455
O43 S2 1.464338 1_565
O44 P5 1.516478 1_555
O45 P6 1.519244 1_455
O46 P7 1.516664 1_565
O47 P8 1.521414 1_555
O48 P4 1.521222 1_545
O49 P2 1.528415 1_555
O50 P3 1.525544 1_655
O51 S0 1.519984 1_555
O52 P1 1.604163 1_555
O53 P0 1.600245 1_555
O54 P9 1.520332 1_555
O55 P10 1.520209 1_655
O56 P11 1.520371 1_545
O57 P12 1.522251 1_545
O58 P13 1.520618 1_555
O59 P14 1.525367 1_655
O60 P8 1.592581 1_555
O61 P6 1.594575 1_455
O62 P7 1.578930 1_565
O63 S2 1.505925 1_565
O64 P5 1.594849 1_555
O65 S1 1.502171 1_455
O66 P0 1.501550 1_565
O67 S0 1.461406 1_555
O68 P1 1.500781 1_455
O69 P2 1.561470 1_555
O70 P3 1.559048 1_555
O71 P4 1.562647 1_555
