# generated using pymatgen
data_MgMn12(O7F5)2
_symmetry_space_group_name_H-M   'P 1'
_cell_length_a   4.75590933
_cell_length_b   5.68235177
_cell_length_c   15.68281332
_cell_angle_alpha   86.80967015
_cell_angle_beta   88.28020812
_cell_angle_gamma   88.05229524
_symmetry_Int_Tables_number   1
_chemical_formula_structural   MgMn12(O7F5)2
_chemical_formula_sum   'Mg1 Mn12 O14 F10'
_cell_volume   422.75481597
_cell_formula_units_Z   1
loop_
 _symmetry_equiv_pos_site_id
 _symmetry_equiv_pos_as_xyz
  1  'x, y, z'
loop_
 _atom_site_type_symbol
 _atom_site_label
 _atom_site_symmetry_multiplicity
 _atom_site_fract_x
 _atom_site_fract_y
 _atom_site_fract_z
 _atom_site_occupancy
  Mg  Mg0  1  0.59362700  0.98727900  0.45453400  1
  Mn  Mn0  1  0.05909400  0.17835200  0.38495600  1
  Mn  Mn1  1  0.00114000  0.79633500  0.23269900  1
  Mn  Mn2  1  0.02987100  0.14483100  0.07552700  1
  Mn  Mn3  1  0.06068100  0.21495200  0.75352900  1
  Mn  Mn4  1  0.07702100  0.90086000  0.59288800  1
  Mn  Mn5  1  0.04606900  0.86405100  0.91308700  1
  Mn  Mn6  1  0.51790700  0.41183300  0.60133000  1
  Mn  Mn7  1  0.51071900  0.34263400  0.92351300  1
  Mn  Mn8  1  0.48639900  0.29178700  0.24318000  1
  Mn  Mn9  1  0.51159700  0.61300900  0.09024000  1
  Mn  Mn10  1  0.43789900  0.58158300  0.41645300  1
  Mn  Mn11  1  0.52332900  0.67857900  0.75788000  1
  O  O0  1  0.21761500  0.04902900  0.28060200  1
  O  O1  1  0.26509900  0.17922400  0.65147600  1
  O  O2  1  0.23226600  0.11347000  0.96955700  1
  O  O3  1  0.22862900  0.85176300  0.12746400  1
  O  O4  1  0.20573200  0.87980400  0.46030800  1
  O  O5  1  0.27023400  0.92064800  0.80854200  1
  O  O6  1  0.28039600  0.37145000  0.13933600  1
  O  O7  1  0.32713400  0.66705900  0.65303900  1
  O  O8  1  0.31484800  0.42619900  0.81703100  1
  O  O9  1  0.73698300  0.37161200  0.02731700  1
  O  O10  1  0.69908600  0.57577600  0.19575900  1
  O  O11  1  0.63258400  0.28583500  0.36947200  1
  O  O12  1  0.66522700  0.62970900  0.51043700  1
  O  O13  1  0.77183200  0.44019300  0.70210400  1
  F  F0  1  0.17945700  0.53062500  0.32117400  1
  F  F1  1  0.20961600  0.34346300  0.49169800  1
  F  F2  1  0.29219600  0.61551200  0.98272300  1
  F  F3  1  0.76121900  0.64947000  0.86470700  1
  F  F4  1  0.76700600  0.08056900  0.17448900  1
  F  F5  1  0.74118600  0.13568900  0.54839500  1
  F  F6  1  0.73107100  0.82423300  0.34772900  1
  F  F7  1  0.77145200  0.85587600  0.01954200  1
  F  F8  1  0.80727800  0.15831000  0.85562200  1
  F  F9  1  0.80038900  0.91934600  0.70415900  1
loop_
_geom_bond_atom_site_label_1
_geom_bond_atom_site_label_2
_geom_bond_distance
_geom_bond_site_symmetry_2
Mg0 O4 1.960824 1_555
Mg0 O11 2.108709 1_565
Mg0 O12 2.187594 1_555
Mn0 O0 1.951637 1_555
Mn0 O11 2.115518 1_455
Mn0 O4 2.122903 1_545
Mn1 O3 1.962558 1_555
Mn1 O0 1.988241 1_565
Mn1 O10 2.055033 1_455
Mn2 O2 1.909326 1_554
Mn2 O9 2.001328 1_455
Mn2 O3 2.029407 1_545
Mn2 O6 2.097274 1_555
Mn3 O1 1.864742 1_555
Mn3 O13 2.001953 1_455
Mn3 O8 2.048864 1_555
Mn3 O5 2.076544 1_545
Mn4 O7 1.972380 1_555
Mn4 O1 2.110351 1_565
Mn4 O4 2.158363 1_555
Mn5 O5 1.946245 1_555
Mn5 O2 1.961955 1_565
Mn6 O7 1.892470 1_555
Mn6 O1 1.935642 1_555
Mn6 O12 1.964224 1_555
Mn6 O13 2.034266 1_555
Mn7 O8 1.963922 1_555
Mn7 O2 1.981427 1_555
Mn7 O9 1.995570 1_556
Mn8 O6 1.949508 1_555
Mn8 O0 1.966235 1_555
Mn8 O10 2.027951 1_555
Mn8 O11 2.116822 1_555
Mn9 O10 1.901344 1_555
Mn9 O6 1.902665 1_555
Mn9 O3 1.977214 1_555
Mn9 O9 1.997897 1_555
Mn10 O12 1.891234 1_555
Mn10 O11 2.053167 1_555
Mn10 O4 2.126222 1_555
Mn11 O7 1.920039 1_555
Mn11 O8 1.947741 1_555
Mn11 O5 1.980885 1_555
Mn11 O13 1.989438 1_555
F0 Mn10 2.002486 1_555
F0 Mn1 2.162069 1_555
F0 Mn0 2.270651 1_555
F0 Mn8 2.326356 1_555
F1 Mn10 2.060902 1_555
F1 Mn0 2.118360 1_555
F1 Mn6 2.349722 1_555
F2 Mn9 2.008504 1_556
F2 Mn7 2.083141 1_555
F2 Mn5 2.085689 1_555
F3 Mn5 2.043197 1_655
F3 Mn11 2.045577 1_555
F3 Mn7 2.281687 1_555
F4 Mn2 1.989083 1_655
F4 Mn8 2.081049 1_555
F4 Mn1 2.111057 1_645
F5 Mg0 1.900231 1_545
F5 Mn6 2.063454 1_555
F5 Mn4 2.153346 1_645
F6 Mg0 2.038907 1_555
F6 Mn1 2.192756 1_655
F6 Mn10 2.209506 1_555
F7 Mn5 2.088019 1_654
F7 Mn9 2.127101 1_555
F7 Mn2 2.310791 1_665
F8 Mn3 1.993172 1_655
F8 Mn7 2.038012 1_555
F8 Mn5 2.159263 1_645
F9 Mn11 2.060444 1_555
F9 Mn4 2.158776 1_655
F9 Mn3 2.301541 1_665
