# generated using pymatgen
data_Dy2MgMo2(ClO4)2
_symmetry_space_group_name_H-M   'P 1'
_cell_length_a   6.48898982
_cell_length_b   6.48015153
_cell_length_c   6.95548983
_cell_angle_alpha   73.20664743
_cell_angle_beta   73.22713745
_cell_angle_gamma   66.47975810
_symmetry_Int_Tables_number   1
_chemical_formula_structural   Dy2MgMo2(ClO4)2
_chemical_formula_sum   'Dy2 Mg1 Mo2 Cl2 O8'
_cell_volume   251.68806639
_cell_formula_units_Z   1
loop_
 _symmetry_equiv_pos_site_id
 _symmetry_equiv_pos_as_xyz
  1  'x, y, z'
loop_
 _atom_site_type_symbol
 _atom_site_label
 _atom_site_symmetry_multiplicity
 _atom_site_fract_x
 _atom_site_fract_y
 _atom_site_fract_z
 _atom_site_occupancy
  Dy  Dy0  1  0.75641700  0.76651800  0.10782200  1
  Dy  Dy1  1  0.23425000  0.24465600  0.89249900  1
  Mg  Mg0  1  0.68894600  0.31109600  0.49976000  1
  Mo  Mo0  1  0.36194000  0.35584800  0.26751800  1
  Mo  Mo1  1  0.64537900  0.63827700  0.73267600  1
  Cl  Cl0  1  0.95184300  0.04763500  0.24924900  1
  Cl  Cl1  1  0.95166300  0.04971200  0.75096400  1
  O  O0  1  0.45896300  0.09524900  0.15388600  1
  O  O1  1  0.12100800  0.51501700  0.13067500  1
  O  O2  1  0.38220900  0.24284800  0.54328800  1
  O  O3  1  0.90574200  0.54139500  0.84620100  1
  O  O4  1  0.75823400  0.61761700  0.45684000  1
  O  O5  1  0.48613200  0.88002200  0.86891600  1
  O  O6  1  0.55168000  0.52584300  0.22582600  1
  O  O7  1  0.47476000  0.44951700  0.77388000  1
loop_
_geom_bond_atom_site_label_1
_geom_bond_atom_site_label_2
_geom_bond_distance
_geom_bond_site_symmetry_2
Dy0 O0 2.263142 1_565
Dy0 O6 2.270636 1_555
Dy0 O1 2.295309 1_655
Dy0 O4 2.340573 1_555
Dy0 O3 2.401348 1_554
Dy0 O5 2.514868 1_554
Dy1 O3 2.261000 1_455
Dy1 O7 2.270747 1_555
Dy1 O5 2.295286 1_545
Dy1 O2 2.341618 1_555
Dy1 O0 2.398988 1_556
Dy1 O1 2.510143 1_556
Mg0 O2 2.127537 1_555
Mg0 O4 2.128227 1_555
Mg0 O6 2.195066 1_555
Mg0 O7 2.198937 1_555
Mo0 O1 1.848932 1_555
Mo0 O2 1.868099 1_555
Mo0 O6 1.872265 1_555
Mo0 O0 1.873048 1_555
Mo1 O5 1.849447 1_555
Mo1 O4 1.869332 1_555
Mo1 O7 1.870641 1_555
Mo1 O3 1.873223 1_555
Cl0 Mg0 2.557306 1_555
Cl0 Dy1 2.925360 1_654
Cl0 Dy0 3.081159 1_545
Cl1 Mg0 2.555862 1_555
Cl1 Dy0 2.922748 1_546
Cl1 Dy1 3.088172 1_655
