# generated using pymatgen
data_Ti2P2SO12
_symmetry_space_group_name_H-M   'P 1'
_cell_length_a   8.59057451
_cell_length_b   8.59766379
_cell_length_c   22.22244591
_cell_angle_alpha   90.08192133
_cell_angle_beta   90.00000000
_cell_angle_gamma   119.97272760
_symmetry_Int_Tables_number   1
_chemical_formula_structural   Ti2P2SO12
_chemical_formula_sum   'Ti12 P12 S6 O72'
_cell_volume   1421.81748275
_cell_formula_units_Z   6
loop_
 _symmetry_equiv_pos_site_id
 _symmetry_equiv_pos_as_xyz
  1  'x, y, z'
loop_
 _atom_site_type_symbol
 _atom_site_label
 _atom_site_symmetry_multiplicity
 _atom_site_fract_x
 _atom_site_fract_y
 _atom_site_fract_z
 _atom_site_occupancy
  Ti  Ti0  1  0.99988320  0.00412984  0.35647166  1
  Ti  Ti1  1  0.00424664  0.00412984  0.85647166  1
  Ti  Ti2  1  0.99133618  0.00609741  0.64373198  1
  Ti  Ti3  1  0.01476122  0.00609741  0.14373198  1
  Ti  Ti4  1  0.66655020  0.33746284  0.68980466  1
  Ti  Ti5  1  0.67091364  0.33746284  0.18980466  1
  Ti  Ti6  1  0.65800318  0.33943041  0.97706498  1
  Ti  Ti7  1  0.68142822  0.33943041  0.47706498  1
  Ti  Ti8  1  0.33321620  0.67079684  0.02313866  1
  Ti  Ti9  1  0.33757964  0.67079684  0.52313866  1
  Ti  Ti10  1  0.32466918  0.67276441  0.31039898  1
  Ti  Ti11  1  0.34809422  0.67276441  0.81039898  1
  P  P0  1  0.28860610  0.00383018  0.25048781  1
  P  P1  1  0.00092324  0.28652559  0.24985824  1
  P  P2  1  0.28560235  0.28652559  0.74985824  1
  P  P3  1  0.71522408  0.00383018  0.75048781  1
  P  P4  1  0.95527310  0.33716318  0.58382081  1
  P  P5  1  0.66759024  0.61985859  0.58319124  1
  P  P6  1  0.95226935  0.61985859  0.08319124  1
  P  P7  1  0.38189108  0.33716318  0.08382081  1
  P  P8  1  0.62193910  0.67049718  0.91715481  1
  P  P9  1  0.33425624  0.95319259  0.91652524  1
  P  P10  1  0.61893535  0.95319259  0.41652524  1
  P  P11  1  0.04855708  0.67049718  0.41715481  1
  S  S0  1  0.71153066  0.71340184  0.24993611  1
  S  S1  1  0.00187118  0.71340184  0.74993611  1
  S  S2  1  0.37819766  0.04673484  0.58326911  1
  S  S3  1  0.66853818  0.04673484  0.08326911  1
  S  S4  1  0.04486366  0.38006884  0.91660311  1
  S  S5  1  0.33520418  0.38006884  0.41660311  1
  O  O0  1  0.19907148  0.03174134  0.30586488  1
  O  O1  1  0.82527093  0.79211531  0.30411389  1
  O  O2  1  0.96793101  0.16730036  0.30582455  1
  O  O3  1  0.19936935  0.16730036  0.80582455  1
  O  O4  1  0.96684438  0.79211531  0.80411389  1
  O  O5  1  0.83266986  0.03174134  0.80586488  1
  O  O6  1  0.79865493  0.96658049  0.69421071  1
  O  O7  1  0.16708336  0.19729208  0.69404049  1
  O  O8  1  0.03283336  0.82471349  0.69586620  1
  O  O9  1  0.79188013  0.82471349  0.19586620  1
  O  O10  1  0.03020872  0.19729208  0.19404049  1
  O  O11  1  0.16792556  0.96658049  0.19421071  1
  O  O12  1  0.86573848  0.36507434  0.63919788  1
  O  O13  1  0.49193793  0.12544831  0.63744689  1
  O  O14  1  0.63459801  0.50063336  0.63915755  1
  O  O15  1  0.86603635  0.50063336  0.13915755  1
  O  O16  1  0.63351138  0.12544831  0.13744689  1
  O  O17  1  0.49933686  0.36507434  0.13919788  1
  O  O18  1  0.46532193  0.29991349  0.02754371  1
  O  O19  1  0.83375036  0.53062508  0.02737349  1
  O  O20  1  0.69950036  0.15804649  0.02919920  1
  O  O21  1  0.45854713  0.15804649  0.52919920  1
  O  O22  1  0.69687572  0.53062508  0.52737349  1
  O  O23  1  0.83459256  0.29991349  0.52754371  1
  O  O24  1  0.53240448  0.69840834  0.97253188  1
  O  O25  1  0.15860393  0.45878231  0.97078089  1
  O  O26  1  0.30126401  0.83396736  0.97249155  1
  O  O27  1  0.53270235  0.83396736  0.47249155  1
  O  O28  1  0.30017738  0.45878231  0.47078089  1
  O  O29  1  0.16600286  0.69840834  0.47253188  1
  O  O30  1  0.13198793  0.63324749  0.36087771  1
  O  O31  1  0.50041636  0.86395908  0.36070749  1
  O  O32  1  0.36616636  0.49138049  0.36253320  1
  O  O33  1  0.12521313  0.49138049  0.86253320  1
  O  O34  1  0.36354172  0.86395908  0.86070749  1
  O  O35  1  0.50125856  0.63324749  0.86087771  1
  O  O36  1  0.02491558  0.83313018  0.40603137  1
  O  O37  1  0.80606710  0.97420558  0.40618287  1
  O  O38  1  0.17301661  0.19982951  0.40877258  1
  O  O39  1  0.02681290  0.19982951  0.90877258  1
  O  O40  1  0.16813848  0.97420558  0.90618287  1
  O  O41  1  0.80821460  0.83313018  0.90603137  1
  O  O42  1  0.97488357  0.16898635  0.59256560  1
  O  O43  1  0.19841747  0.02422550  0.59217968  1
  O  O44  1  0.83389539  0.80589496  0.59386138  1
  O  O45  1  0.97199957  0.80589496  0.09386138  1
  O  O46  1  0.82580803  0.02422550  0.09217968  1
  O  O47  1  0.19410278  0.16898635  0.09256560  1
  O  O48  1  0.69158258  0.16646318  0.73936437  1
  O  O49  1  0.47273410  0.30753858  0.73951587  1
  O  O50  1  0.83968361  0.53316251  0.74210558  1
  O  O51  1  0.69347990  0.53316251  0.24210558  1
  O  O52  1  0.83480548  0.30753858  0.23951587  1
  O  O53  1  0.47488160  0.16646318  0.23936437  1
  O  O54  1  0.64155057  0.50231935  0.92589860  1
  O  O55  1  0.86508447  0.35755850  0.92551268  1
  O  O56  1  0.50056239  0.13922796  0.92719438  1
  O  O57  1  0.63866657  0.13922796  0.42719438  1
  O  O58  1  0.49247503  0.35755850  0.42551268  1
  O  O59  1  0.86076978  0.50231935  0.42589860  1
  O  O60  1  0.35824858  0.49979718  0.07269837  1
  O  O61  1  0.13940010  0.64087258  0.07284987  1
  O  O62  1  0.50634961  0.86649651  0.07543958  1
  O  O63  1  0.36014590  0.86649651  0.57543958  1
  O  O64  1  0.50147148  0.64087258  0.57284987  1
  O  O65  1  0.14154760  0.49979718  0.57269837  1
  O  O66  1  0.30821657  0.83565335  0.25923260  1
  O  O67  1  0.53175047  0.69089250  0.25884668  1
  O  O68  1  0.16722839  0.47256196  0.26052838  1
  O  O69  1  0.30533257  0.47256196  0.76052838  1
  O  O70  1  0.15914103  0.69089250  0.75884668  1
  O  O71  1  0.52743578  0.83565335  0.75923260  1
loop_
_geom_bond_atom_site_label_1
_geom_bond_atom_site_label_2
_geom_bond_distance
_geom_bond_site_symmetry_2
O0 P0 1.532048 1_555
O0 Ti0 1.960608 1_455
O1 S0 1.482969 1_555
O1 Ti0 2.046570 1_565
O2 P1 1.546365 1_655
O2 Ti0 1.923398 1_555
O3 P2 1.546365 1_555
O3 Ti1 1.923398 1_555
O4 S1 1.482969 1_655
O4 Ti1 2.046570 1_665
O5 P3 1.532048 1_555
O5 Ti1 1.960608 1_655
O6 P3 1.551932 1_565
O6 Ti2 1.884884 1_565
O7 P2 1.542928 1_555
O7 Ti2 1.935572 1_455
O8 S1 1.476259 1_555
O8 Ti2 2.112328 1_465
O9 S0 1.476259 1_555
O9 Ti3 2.112328 1_665
O10 P1 1.542928 1_555
O10 Ti3 1.935572 1_555
O11 P0 1.551932 1_565
O11 Ti3 1.884884 1_565
O12 P4 1.532048 1_555
O12 Ti4 1.960608 1_555
O13 S2 1.482969 1_555
O13 Ti4 2.046570 1_555
O14 P5 1.546365 1_555
O14 Ti4 1.923398 1_555
O15 P6 1.546365 1_555
O15 Ti5 1.923398 1_555
O16 S3 1.482969 1_555
O16 Ti5 2.046570 1_555
O17 P7 1.532048 1_555
O17 Ti5 1.960608 1_555
O18 P7 1.551932 1_555
O18 Ti6 1.884884 1_554
O19 P6 1.542928 1_555
O19 Ti6 1.935572 1_554
O20 S3 1.476259 1_555
O20 Ti6 2.112328 1_554
O21 S2 1.476259 1_555
O21 Ti7 2.112328 1_555
O22 P5 1.542928 1_555
O22 Ti7 1.935572 1_555
O23 P4 1.551932 1_555
O23 Ti7 1.884884 1_555
O24 P8 1.532048 1_555
O24 Ti8 1.960608 1_556
O25 S4 1.482969 1_555
O25 Ti8 2.046570 1_556
O26 P9 1.546365 1_555
O26 Ti8 1.923398 1_556
O27 P10 1.546365 1_555
O27 Ti9 1.923398 1_555
O28 S5 1.482969 1_555
O28 Ti9 2.046570 1_555
O29 P11 1.532048 1_555
O29 Ti9 1.960608 1_555
O30 P11 1.551932 1_555
O30 Ti10 1.884884 1_555
O31 P10 1.542928 1_555
O31 Ti10 1.935572 1_555
O32 S5 1.476259 1_555
O32 Ti10 2.112328 1_555
O33 S4 1.476259 1_555
O33 Ti11 2.112328 1_555
O34 P9 1.542928 1_555
O34 Ti11 1.935572 1_555
O35 P8 1.551932 1_555
O35 Ti11 1.884884 1_555
O36 P11 1.530433 1_555
O36 Ti0 1.934217 1_465
O37 P10 1.542618 1_555
O37 Ti0 1.905665 1_565
O38 S5 1.488228 1_555
O38 Ti0 1.971782 1_455
O39 S4 1.488231 1_555
O39 Ti1 1.971782 1_555
O40 P9 1.542610 1_555
O40 Ti1 1.905665 1_565
O41 P8 1.530438 1_555
O41 Ti1 1.934217 1_665
O42 P4 1.549530 1_555
O42 Ti2 1.864529 1_555
O43 S2 1.470833 1_555
O43 Ti2 2.055447 1_455
O44 P5 1.539906 1_555
O44 Ti2 1.920598 1_565
O45 P6 1.539909 1_555
O45 Ti3 1.920598 1_665
O46 S3 1.470825 1_555
O46 Ti3 2.055446 1_655
O47 P7 1.549535 1_555
O47 Ti3 1.864529 1_555
O48 P3 1.530433 1_555
O48 Ti4 1.934217 1_555
O49 P2 1.542618 1_555
O49 Ti4 1.905665 1_555
O50 S1 1.488228 1_655
O50 Ti4 1.971782 1_555
O51 S0 1.488231 1_555
O51 Ti5 1.971782 1_555
O52 P1 1.542610 1_655
O52 Ti5 1.905665 1_555
O53 P0 1.530438 1_555
O53 Ti5 1.934217 1_555
O54 P8 1.549541 1_555
O54 Ti6 1.864529 1_555
O55 S4 1.470818 1_655
O55 Ti6 2.055447 1_555
O56 P9 1.539901 1_545
O56 Ti6 1.920598 1_555
O57 P10 1.539894 1_545
O57 Ti7 1.920598 1_555
O58 S5 1.470835 1_555
O58 Ti7 2.055446 1_555
O59 P11 1.549531 1_655
O59 Ti7 1.864529 1_555
O60 P7 1.530443 1_555
O60 Ti8 1.934217 1_555
O61 P6 1.542603 1_455
O61 Ti8 1.905665 1_555
O62 S3 1.488224 1_565
O62 Ti8 1.971782 1_555
O63 S2 1.488217 1_565
O63 Ti9 1.971782 1_555
O64 P5 1.542620 1_555
O64 Ti9 1.905665 1_555
O65 P4 1.530433 1_455
O65 Ti9 1.934217 1_555
O66 P0 1.549530 1_565
O66 Ti10 1.864529 1_555
O67 S0 1.470833 1_555
O67 Ti10 2.055447 1_555
O68 P1 1.539906 1_555
O68 Ti10 1.920598 1_555
O69 P2 1.539909 1_555
O69 Ti11 1.920598 1_555
O70 S1 1.470825 1_555
O70 Ti11 2.055446 1_555
O71 P3 1.549535 1_565
O71 Ti11 1.864529 1_555
