# generated using pymatgen
data_La4MgCoO8
_symmetry_space_group_name_H-M   'P 1'
_cell_length_a   5.53663501
_cell_length_b   6.90551883
_cell_length_c   6.90314696
_cell_angle_alpha   47.29192345
_cell_angle_beta   89.99532855
_cell_angle_gamma   89.99406504
_symmetry_Int_Tables_number   1
_chemical_formula_structural   La4MgCoO8
_chemical_formula_sum   'La4 Mg1 Co1 O8'
_cell_volume   193.94102999
_cell_formula_units_Z   1
loop_
 _symmetry_equiv_pos_site_id
 _symmetry_equiv_pos_as_xyz
  1  'x, y, z'
loop_
 _atom_site_type_symbol
 _atom_site_label
 _atom_site_symmetry_multiplicity
 _atom_site_fract_x
 _atom_site_fract_y
 _atom_site_fract_z
 _atom_site_occupancy
  La  La0  1  0.50002500  0.63839900  0.63640100  1
  La  La1  1  0.99979700  0.86204900  0.86248500  1
  La  La2  1  0.00021700  0.13795700  0.13750700  1
  La  La3  1  0.49997200  0.36159700  0.36360200  1
  Mg  Mg0  1  0.00000000  0.50000100  0.50000000  1
  Co  Co0  1  0.50000200  0.00000000  0.00000100  1
  O  O0  1  0.75183500  0.74916900  0.25073300  1
  O  O1  1  0.75184900  0.25084800  0.74928500  1
  O  O2  1  0.50008100  0.81852900  0.81744100  1
  O  O3  1  0.49989900  0.18148500  0.18254700  1
  O  O4  1  0.24816800  0.25082800  0.74926700  1
  O  O5  1  0.99999600  0.32103600  0.32129400  1
  O  O6  1  0.00001000  0.67894900  0.67872000  1
  O  O7  1  0.24815200  0.74915100  0.25071700  1
loop_
_geom_bond_atom_site_label_1
_geom_bond_atom_site_label_2
_geom_bond_distance
_geom_bond_site_symmetry_2
La0 O2 2.284276 1_555
La0 O0 2.617994 1_555
La0 O7 2.618467 1_555
La0 O1 2.623711 1_555
La0 O4 2.624198 1_555
La0 O6 2.817470 1_655
La0 O6 2.817529 1_555
La0 O3 2.818096 1_565
La0 O3 2.834186 1_556
La1 O6 2.320294 1_655
La1 O0 2.615558 1_556
La1 O7 2.616706 1_656
La1 O1 2.618595 1_565
La1 O4 2.619885 1_665
La1 O5 2.817355 1_556
La1 O5 2.817847 1_565
La1 O2 2.822935 1_555
La1 O2 2.825906 1_655
La2 O5 2.320301 1_455
La2 O4 2.615506 1_554
La2 O1 2.616706 1_454
La2 O7 2.618569 1_545
La2 O0 2.619947 1_445
La2 O6 2.817240 1_554
La2 O6 2.817965 1_545
La2 O3 2.822755 1_555
La2 O3 2.826096 1_455
La3 O3 2.284257 1_555
La3 O4 2.617962 1_555
La3 O1 2.618481 1_555
La3 O7 2.623714 1_555
La3 O0 2.624213 1_555
La3 O5 2.817421 1_455
La3 O5 2.817578 1_555
La3 O2 2.818003 1_545
La3 O2 2.834271 1_554
Mg0 O7 1.947543 1_555
Mg0 O0 1.947544 1_455
Mg0 O1 1.947549 1_455
Mg0 O4 1.947566 1_555
Mg0 O6 2.262127 1_555
Mg0 O5 2.262146 1_455
Co0 O0 1.968028 1_545
Co0 O4 1.968030 1_554
Co0 O1 1.968139 1_554
Co0 O7 1.968153 1_545
Co0 O3 2.302371 1_555
Co0 O2 2.302371 1_544
