# generated using pymatgen
data_YbGeRh
_symmetry_space_group_name_H-M   'P 1'
_cell_length_a   4.39886700
_cell_length_b   7.10170000
_cell_length_c   7.20237800
_cell_angle_alpha   90.00000000
_cell_angle_beta   90.00000000
_cell_angle_gamma   90.00000000
_symmetry_Int_Tables_number   1
_chemical_formula_structural   YbGeRh
_chemical_formula_sum   'Yb4 Ge4 Rh4'
_cell_volume   224.99821055
_cell_formula_units_Z   4
loop_
 _symmetry_equiv_pos_site_id
 _symmetry_equiv_pos_as_xyz
  1  'x, y, z'
loop_
 _atom_site_type_symbol
 _atom_site_label
 _atom_site_symmetry_multiplicity
 _atom_site_fract_x
 _atom_site_fract_y
 _atom_site_fract_z
 _atom_site_occupancy
  Yb  Yb0  1  0.75000000  0.18710600  0.50880700  1
  Yb  Yb1  1  0.25000000  0.81289400  0.49119300  1
  Yb  Yb2  1  0.75000000  0.31289400  0.00880700  1
  Yb  Yb3  1  0.25000000  0.68710600  0.99119300  1
  Ge  Ge0  1  0.75000000  0.89275300  0.20009400  1
  Ge  Ge1  1  0.25000000  0.10724700  0.79990600  1
  Ge  Ge2  1  0.75000000  0.60724700  0.70009400  1
  Ge  Ge3  1  0.25000000  0.39275300  0.29990600  1
  Rh  Rh0  1  0.25000000  0.06952300  0.14666500  1
  Rh  Rh1  1  0.75000000  0.93047700  0.85333500  1
  Rh  Rh2  1  0.25000000  0.43047700  0.64666500  1
  Rh  Rh3  1  0.75000000  0.56952300  0.35333500  1
loop_
_geom_bond_atom_site_label_1
_geom_bond_atom_site_label_2
_geom_bond_distance
_geom_bond_site_symmetry_2
Ge0 Rh1 2.511817 1_554
Ge0 Rh3 2.547036 1_555
Ge0 Rh0 2.561550 1_665
Ge0 Rh0 2.561550 1_565
Ge0 Yb3 3.038779 1_654
Ge0 Yb3 3.038779 1_554
Ge0 Yb0 3.051821 1_565
Ge0 Yb1 3.091100 1_555
Ge0 Yb1 3.091100 1_655
Ge0 Yb2 3.286438 1_565
Ge1 Rh0 2.511817 1_556
Ge1 Rh2 2.547036 1_555
Ge1 Rh1 2.561550 1_445
Ge1 Rh1 2.561550 1_545
Ge1 Yb2 3.038779 1_456
Ge1 Yb2 3.038779 1_556
Ge1 Yb1 3.051821 1_545
Ge1 Yb0 3.091100 1_455
Ge1 Yb0 3.091100 1_555
Ge1 Yb3 3.286438 1_545
Ge2 Rh3 2.511817 1_555
Ge2 Rh1 2.547036 1_555
Ge2 Rh2 2.561550 1_555
Ge2 Rh2 2.561550 1_655
Ge2 Yb1 3.038779 1_655
Ge2 Yb1 3.038779 1_555
Ge2 Yb2 3.051821 1_556
Ge2 Yb3 3.091100 1_555
Ge2 Yb3 3.091100 1_655
Ge2 Yb0 3.286438 1_555
Ge3 Rh2 2.511817 1_555
Ge3 Rh0 2.547036 1_555
Ge3 Rh3 2.561550 1_555
Ge3 Rh3 2.561550 1_455
Ge3 Yb0 3.038779 1_455
Ge3 Yb0 3.038779 1_555
Ge3 Yb3 3.051821 1_554
Ge3 Yb2 3.091100 1_555
Ge3 Yb2 3.091100 1_455
Ge3 Yb1 3.286438 1_555
Rh0 Yb3 2.937603 1_544
Rh0 Yb2 2.968258 1_455
Rh0 Yb2 2.968258 1_555
Rh0 Yb1 3.078793 1_545
Rh1 Yb2 2.937603 1_566
Rh1 Yb3 2.968258 1_555
Rh1 Yb3 2.968258 1_655
Rh1 Yb0 3.078793 1_565
Rh2 Yb1 2.937603 1_555
Rh2 Yb0 2.968258 1_555
Rh2 Yb0 2.968258 1_455
Rh2 Yb3 3.078793 1_555
Rh3 Yb0 2.937603 1_555
Rh3 Yb1 2.968258 1_655
Rh3 Yb1 2.968258 1_555
Rh3 Yb2 3.078793 1_555
