# generated using pymatgen
data_LiVPO4F
_symmetry_space_group_name_H-M   'P 1'
_cell_length_a   5.39140384
_cell_length_b   10.26418682
_cell_length_c   7.42715305
_cell_angle_alpha   75.93414548
_cell_angle_beta   73.10761622
_cell_angle_gamma   100.15932654
_symmetry_Int_Tables_number   1
_chemical_formula_structural   LiVPO4F
_chemical_formula_sum   'Li4 V4 P4 O16 F4'
_cell_volume   367.72441391
_cell_formula_units_Z   4
loop_
 _symmetry_equiv_pos_site_id
 _symmetry_equiv_pos_as_xyz
  1  'x, y, z'
loop_
 _atom_site_type_symbol
 _atom_site_label
 _atom_site_symmetry_multiplicity
 _atom_site_fract_x
 _atom_site_fract_y
 _atom_site_fract_z
 _atom_site_occupancy
  Li  Li0  1  0.01919900  0.63494700  0.55263400  1
  Li  Li1  1  0.51920800  0.13499300  0.05261400  1
  Li  Li2  1  0.98079300  0.36505000  0.44736000  1
  Li  Li3  1  0.48079700  0.86500800  0.94737500  1
  V  V0  1  0.49997900  0.50004600  0.50000400  1
  V  V1  1  0.00000300  0.00000100  0.50000600  1
  V  V2  1  0.00006500  0.99997400  0.00007600  1
  V  V3  1  0.49999500  0.49999200  0.00000100  1
  P  P0  1  0.52047000  0.16126000  0.60157800  1
  P  P1  1  0.02043200  0.66120500  0.10163100  1
  P  P2  1  0.47952600  0.83875100  0.39841400  1
  P  P3  1  0.97956200  0.33878200  0.89836300  1
  O  O0  1  0.81190600  0.15337100  0.50302900  1
  O  O1  1  0.31200600  0.65343300  0.00302500  1
  O  O2  1  0.18809200  0.84662200  0.49696300  1
  O  O3  1  0.68798700  0.34656900  0.99696800  1
  O  O4  1  0.43498700  0.68387200  0.40264400  1
  O  O5  1  0.93513200  0.18393900  0.90265900  1
  O  O6  1  0.56500500  0.31613500  0.59734400  1
  O  O7  1  0.06487300  0.81605200  0.09734400  1
  O  O8  1  0.66050000  0.87457400  0.51444600  1
  O  O9  1  0.16047600  0.37448800  0.01443300  1
  O  O10  1  0.33949200  0.12542100  0.48554500  1
  O  O11  1  0.83952300  0.62551400  0.98556000  1
  O  O12  1  0.39951000  0.06516000  0.82334300  1
  O  O13  1  0.89928600  0.56514800  0.32344800  1
  O  O14  1  0.60048900  0.93483500  0.17665800  1
  O  O15  1  0.10070800  0.43485800  0.67654300  1
  F  F0  1  0.13864300  0.06514700  0.19735100  1
  F  F1  1  0.63865300  0.56511400  0.69755200  1
  F  F2  1  0.86136000  0.93485400  0.80265300  1
  F  F3  1  0.36134500  0.43489000  0.30244000  1
loop_
_geom_bond_atom_site_label_1
_geom_bond_atom_site_label_2
_geom_bond_distance
_geom_bond_site_symmetry_2
Li0 O2 2.089790 1_555
Li0 O4 2.097141 1_555
Li0 O15 2.211934 1_555
Li0 O13 2.213059 1_455
Li1 O3 2.088775 1_554
Li1 O5 2.097721 1_554
Li1 O14 2.212200 1_545
Li1 O12 2.213277 1_554
Li2 O0 2.089824 1_555
Li2 O6 2.097142 1_555
Li2 O13 2.212014 1_555
Li2 O15 2.213086 1_655
Li3 O1 2.088772 1_556
Li3 O7 2.097730 1_556
Li3 O12 2.212140 1_565
Li3 O14 2.213317 1_556
O0 P0 1.554494 1_555
O0 V1 2.018465 1_655
O1 P1 1.554817 1_555
O1 V3 2.018730 1_555
O2 P2 1.554421 1_555
O2 V1 2.018527 1_565
O3 P3 1.554874 1_555
O3 V3 2.018583 1_556
O4 P2 1.556436 1_555
O4 V0 1.980672 1_555
O5 P3 1.555955 1_555
O5 V2 1.981884 1_646
O6 P0 1.556387 1_555
O6 V0 1.981508 1_555
O7 P1 1.556012 1_555
O7 V2 1.980981 1_555
O8 P2 1.531665 1_555
O8 V1 2.001695 1_665
O9 P3 1.531330 1_454
O9 V3 2.002155 1_555
O10 P0 1.531731 1_555
O10 V1 2.001544 1_555
O11 P1 1.531275 1_656
O11 V3 2.002255 1_556
O12 P0 1.571709 1_555
O12 V2 2.056816 1_546
O13 P1 1.571876 1_655
O13 V0 2.055895 1_555
O14 P2 1.571608 1_555
O14 V2 2.057106 1_655
O15 P3 1.571951 1_455
O15 V0 2.055694 1_555
F0 Li1 1.924588 1_555
F0 V2 2.022070 1_545
F0 V1 2.043366 1_555
F1 Li0 1.924709 1_655
F1 V0 2.023714 1_555
F1 V3 2.041968 1_556
F2 Li3 1.924562 1_555
F2 V2 2.023190 1_656
F2 V1 2.043312 1_665
F3 Li2 1.924742 1_455
F3 V0 2.024109 1_555
F3 V3 2.041901 1_555
