# generated using pymatgen
data_K2Ta2O5
_symmetry_space_group_name_H-M   'P 1'
_cell_length_a   8.92287768
_cell_length_b   8.92287768
_cell_length_c   8.92287768
_cell_angle_alpha   142.90354381
_cell_angle_beta   142.69275598
_cell_angle_gamma   53.62852485
_symmetry_Int_Tables_number   1
_chemical_formula_structural   K2Ta2O5
_chemical_formula_sum   'K4 Ta4 O10'
_cell_volume   258.03510174
_cell_formula_units_Z   2
loop_
 _symmetry_equiv_pos_site_id
 _symmetry_equiv_pos_as_xyz
  1  'x, y, z'
loop_
 _atom_site_type_symbol
 _atom_site_label
 _atom_site_symmetry_multiplicity
 _atom_site_fract_x
 _atom_site_fract_y
 _atom_site_fract_z
 _atom_site_occupancy
  K  K0  1  0.38905094  0.87909248  0.50863750  1
  K  K1  1  0.62954502  0.12090752  0.50995846  1
  K  K2  1  0.88905094  0.38041344  0.50995846  1
  K  K3  1  0.12954502  0.61958656  0.50863750  1
  Ta  Ta0  1  0.00918520  -0.00000000  0.00918520  1
  Ta  Ta1  1  0.50918520  0.50000000  0.00918520  1
  Ta  Ta2  1  0.75995571  0.76961422  0.02956993  1
  Ta  Ta3  1  0.25995571  0.23038578  0.99034249  1
  O  O0  1  0.76128324  0.75214861  0.50923907  1
  O  O1  1  0.75709045  0.24785139  0.00913462  1
  O  O2  1  0.26128324  0.75204417  0.00913462  1
  O  O3  1  0.25709045  0.24795583  0.50923907  1
  O  O4  1  0.88212333  0.86193254  0.99875088  1
  O  O5  1  0.13681834  0.13806746  0.02019079  1
  O  O6  1  0.38212333  0.38337245  0.02019079  1
  O  O7  1  0.63681834  0.61662755  0.99875088  1
  O  O8  1  0.01094677  0.99898030  0.50992708  1
  O  O9  1  0.51094677  0.00101970  0.01196647  1
loop_
_geom_bond_atom_site_label_1
_geom_bond_atom_site_label_2
_geom_bond_distance
_geom_bond_site_symmetry_2
K0 O1 2.756707 1_566
K0 O3 2.757669 1_565
K0 O6 2.776092 1_555
K0 O0 2.798916 1_555
K0 O2 2.799863 1_555
K0 O4 2.855773 1_454
K0 O4 2.857744 1_555
K0 O8 2.878972 1_555
K0 O9 2.893984 1_566
K0 O6 2.905199 1_566
K1 O0 2.756707 1_545
K1 O2 2.757669 1_545
K1 O7 2.776092 1_555
K1 O1 2.798916 1_556
K1 O3 2.799863 1_555
K1 O5 2.855773 1_555
K1 O5 2.857744 1_656
K1 O9 2.878972 1_555
K1 O8 2.893984 1_645
K1 O7 2.905199 1_544
K2 O3 2.756707 1_655
K2 O1 2.757669 1_555
K2 O4 2.776092 1_555
K2 O2 2.798916 1_656
K2 O0 2.799863 1_555
K2 O6 2.855773 1_555
K2 O6 2.857744 1_656
K2 O9 2.878972 1_555
K2 O8 2.893984 1_645
K2 O4 2.905199 1_544
K3 O2 2.756707 1_556
K3 O0 2.757669 1_455
K3 O5 2.776092 1_555
K3 O3 2.798916 1_555
K3 O1 2.799863 1_455
K3 O7 2.855773 1_454
K3 O7 2.857744 1_555
K3 O8 2.878972 1_555
K3 O9 2.893984 1_566
K3 O5 2.905199 1_566
O0 Ta0 2.012615 1_666
O0 Ta1 2.013046 1_555
O1 Ta0 2.012615 1_655
O1 Ta1 2.013046 1_555
O2 Ta1 2.012615 1_555
O2 Ta0 2.013046 1_565
O3 Ta1 2.012615 1_556
O3 Ta0 2.013046 1_555
O4 Ta2 1.961047 1_556
O4 Ta0 2.029160 1_666
O5 Ta3 1.961039 1_554
O5 Ta0 2.029160 1_555
O6 Ta3 1.961054 1_554
O6 Ta1 2.029160 1_555
O7 Ta2 1.961047 1_556
O7 Ta1 2.029160 1_556
O8 Ta3 1.935408 1_565
O8 Ta2 1.935923 1_455
O9 Ta2 1.935404 1_545
O9 Ta3 1.935922 1_554
