# generated using pymatgen
data_MgZn2AgWO6
_symmetry_space_group_name_H-M   'P 1'
_cell_length_a   5.50079407
_cell_length_b   6.94524878
_cell_length_c   7.21572017
_cell_angle_alpha   90.22532158
_cell_angle_beta   127.23500751
_cell_angle_gamma   125.10938760
_symmetry_Int_Tables_number   1
_chemical_formula_structural   MgZn2AgWO6
_chemical_formula_sum   'Mg1 Zn2 Ag1 W1 O6'
_cell_volume   151.07575127
_cell_formula_units_Z   1
loop_
 _symmetry_equiv_pos_site_id
 _symmetry_equiv_pos_as_xyz
  1  'x, y, z'
loop_
 _atom_site_type_symbol
 _atom_site_label
 _atom_site_symmetry_multiplicity
 _atom_site_fract_x
 _atom_site_fract_y
 _atom_site_fract_z
 _atom_site_occupancy
  Mg  Mg0  1  0.52885700  0.50106000  0.02372000  1
  Zn  Zn0  1  0.10168200  0.41782400  0.25082500  1
  Zn  Zn1  1  0.87857100  0.51554200  0.74772100  1
  Ag  Ag0  1  0.97585400  0.98086800  0.48983200  1
  W  W0  1  0.98987700  0.97717900  0.99025600  1
  O  O0  1  0.26061600  0.19460300  0.36905100  1
  O  O1  1  0.71786500  0.75804800  0.61927700  1
  O  O2  1  0.99245100  0.27483300  0.93664600  1
  O  O3  1  0.42118600  0.71189400  0.85074000  1
  O  O4  1  0.57429400  0.25424800  0.14750300  1
  O  O5  1  0.00843700  0.69555900  0.05810100  1
loop_
_geom_bond_atom_site_label_1
_geom_bond_atom_site_label_2
_geom_bond_distance
_geom_bond_site_symmetry_2
Mg0 O5 1.987948 1_655
Mg0 O2 1.996431 1_454
Mg0 O4 2.008316 1_555
Mg0 O3 2.042114 1_554
Ag0 O1 2.090587 1_555
Ag0 O0 2.098655 1_665
O0 Zn1 1.996404 1_555
O0 W0 2.103232 1_444
O0 Zn0 2.136003 1_555
O1 Zn0 1.993226 1_555
O1 W0 2.054781 1_555
O1 Zn1 2.282681 1_555
O2 Zn0 2.033264 1_656
O2 W0 2.098271 1_545
O2 Zn1 2.287965 1_555
O3 W0 1.933530 1_555
O3 Zn1 1.986504 1_455
O4 W0 1.943656 1_444
O4 Zn0 1.961482 1_655
O5 Zn1 2.025785 1_454
O5 W0 2.062148 1_454
O5 Zn0 2.492740 1_555
