# generated using pymatgen
data_Zr4Co4Ge7
_symmetry_space_group_name_H-M   'P 1'
_cell_length_a   9.67199452
_cell_length_b   9.67199441
_cell_length_c   9.67233330
_cell_angle_alpha   94.15217859
_cell_angle_beta   94.15224500
_cell_angle_gamma   148.78303800
_symmetry_Int_Tables_number   1
_chemical_formula_structural   Zr4Co4Ge7
_chemical_formula_sum   'Zr8 Co8 Ge14'
_cell_volume   451.65215197
_cell_formula_units_Z   2
loop_
 _symmetry_equiv_pos_site_id
 _symmetry_equiv_pos_as_xyz
  1  'x, y, z'
loop_
 _atom_site_type_symbol
 _atom_site_label
 _atom_site_symmetry_multiplicity
 _atom_site_fract_x
 _atom_site_fract_y
 _atom_site_fract_z
 _atom_site_occupancy
  Zr  Zr0  1  0.86097219  0.86099088  0.72198594  1
  Zr  Zr1  1  0.13905412  0.86100721  0.00006446  1
  Zr  Zr2  1  0.86101262  0.13904759  0.00006449  1
  Zr  Zr3  1  0.13899937  0.13901755  0.27799402  1
  Zr  Zr4  1  0.30361738  0.50010161  0.80365192  1
  Zr  Zr5  1  0.50008416  0.30361487  0.80363578  1
  Zr  Zr6  1  0.49993029  0.69639875  0.19639517  1
  Zr  Zr7  1  0.69640227  0.49994845  0.19641138  1
  Co  Co0  1  0.10199952  0.60198027  0.20393745  1
  Co  Co1  1  0.89798135  0.10198336  0.49995980  1
  Co  Co2  1  0.60195352  0.39800351  0.49995980  1
  Co  Co3  1  0.39803065  0.89801084  0.79608349  1
  Co  Co4  1  0.89803115  0.39801446  0.79608404  1
  Co  Co5  1  0.10198030  0.89798468  0.49995931  1
  Co  Co6  1  0.39799948  0.60195705  0.49996034  1
  Co  Co7  1  0.60199622  0.10197927  0.20393694  1
  Ge  Ge0  1  0.70833471  0.70834170  0.41658999  1
  Ge  Ge1  1  0.29168410  0.70837941  0.00006433  1
  Ge  Ge2  1  0.70840033  0.29166475  0.00006431  1
  Ge  Ge3  1  0.29159855  0.29160528  0.58328973  1
  Ge  Ge4  1  0.70625534  0.00005771  0.70628681  1
  Ge  Ge5  1  0.00004023  0.70624125  0.70626512  1
  Ge  Ge6  1  -0.00006706  0.29372290  0.29368156  1
  Ge  Ge7  1  0.29373677  0.99994945  0.29370334  1
  Ge  Ge8  1  0.09381564  0.49996779  0.59379296  1
  Ge  Ge9  1  0.49996984  0.09380450  0.59378528  1
  Ge  Ge10  1  0.49999015  0.90613928  0.40611932  1
  Ge  Ge11  1  0.90615026  0.49998778  0.40612699  1
  Ge  Ge12  1  0.24934843  0.24937484  0.00007052  1
  Ge  Ge13  1  0.75069811  0.75072403  0.00007540  1
loop_
_geom_bond_atom_site_label_1
_geom_bond_atom_site_label_2
_geom_bond_distance
_geom_bond_site_symmetry_2
Co0 Ge2 2.429379 1_455
Co0 Ge1 2.429379 1_555
Co0 Ge10 2.450286 1_555
Co0 Ge11 2.450624 1_455
Co0 Ge6 2.466129 1_555
Co0 Ge7 2.466274 1_555
Co1 Ge3 2.430227 1_655
Co1 Ge0 2.430358 1_545
Co1 Ge8 2.450094 1_655
Co1 Ge10 2.450108 1_545
Co1 Ge6 2.466826 1_655
Co1 Ge4 2.467232 1_555
Co2 Ge3 2.430236 1_555
Co2 Ge0 2.430364 1_555
Co2 Ge9 2.450617 1_555
Co2 Ge11 2.450629 1_555
Co2 Ge7 2.466774 1_545
Co2 Ge5 2.467171 1_655
Co3 Ge1 2.430164 1_556
Co3 Ge2 2.430167 1_566
Co3 Ge8 2.451053 1_555
Co3 Ge9 2.451393 1_565
Co3 Ge4 2.466203 1_565
Co3 Ge5 2.466360 1_555
Co4 Ge2 2.430152 1_556
Co4 Ge1 2.430167 1_656
Co4 Ge9 2.451195 1_555
Co4 Ge8 2.451263 1_655
Co4 Ge4 2.465996 1_555
Co4 Ge5 2.466543 1_655
Co5 Ge3 2.430280 1_565
Co5 Ge0 2.430412 1_455
Co5 Ge9 2.450206 1_565
Co5 Ge11 2.450223 1_455
Co5 Ge7 2.466687 1_555
Co5 Ge5 2.467102 1_555
Co6 Ge3 2.430189 1_555
Co6 Ge0 2.430321 1_555
Co6 Ge8 2.450489 1_555
Co6 Ge10 2.450506 1_555
Co6 Ge6 2.466930 1_555
Co6 Ge4 2.467327 1_565
Co7 Ge2 2.429370 1_555
Co7 Ge1 2.429385 1_545
Co7 Ge11 2.450428 1_555
Co7 Ge10 2.450492 1_545
Co7 Ge6 2.465917 1_655
Co7 Ge7 2.466465 1_545
Ge0 Zr7 2.748851 1_555
Ge0 Zr6 2.748966 1_555
Ge0 Zr0 2.844924 1_555
Ge0 Zr3 2.904955 1_665
Ge0 Zr3 2.905124 1_555
Ge1 Zr6 2.748371 1_555
Ge1 Zr4 2.748769 1_554
Ge1 Zr1 2.843573 1_555
Ge1 Zr2 2.905285 1_565
Ge1 Zr2 2.905301 1_455
Ge2 Zr7 2.748855 1_555
Ge2 Zr5 2.749251 1_554
Ge2 Zr2 2.843309 1_555
Ge2 Zr1 2.905401 1_655
Ge2 Zr1 2.905420 1_545
Ge3 Zr5 2.750107 1_555
Ge3 Zr4 2.750230 1_555
Ge3 Zr3 2.843990 1_555
Ge3 Zr0 2.905372 1_445
Ge3 Zr0 2.905537 1_555
Ge4 Zr0 2.740593 1_545
Ge4 Zr2 2.740632 1_556
Ge4 Zr4 2.901126 1_545
Ge4 Zr4 2.901226 1_655
Ge5 Zr1 2.740826 1_556
Ge5 Zr0 2.740920 1_455
Ge5 Zr5 2.901162 1_455
Ge5 Zr5 2.901291 1_565
Ge6 Zr2 2.739132 1_455
Ge6 Zr3 2.740477 1_555
Ge6 Zr6 2.900908 1_555
Ge6 Zr6 2.901006 1_445
Ge7 Zr1 2.739328 1_555
Ge7 Zr3 2.740801 1_565
Ge7 Zr7 2.900951 1_565
Ge7 Zr7 2.901064 1_455
Ge8 Zr4 2.763422 1_555
Ge9 Zr5 2.763553 1_555
Ge10 Ge9 2.472440 1_565
Ge10 Zr6 2.762620 1_555
Ge11 Ge8 2.472438 1_655
Ge11 Zr7 2.762746 1_555
Ge12 Ge13 2.595359 1_445
Ge12 Ge13 2.609381 1_555
Ge12 Zr3 2.896054 1_555
Ge12 Zr2 2.896678 1_455
Ge12 Zr1 2.897216 1_545
Ge12 Zr0 2.897320 1_444
Ge12 Zr6 2.897391 1_555
Ge12 Zr7 2.897716 1_555
Ge12 Zr4 2.898282 1_554
Ge12 Zr5 2.898596 1_554
Ge13 Zr3 2.895939 1_665
Ge13 Zr2 2.896673 1_565
Ge13 Zr1 2.897205 1_655
Ge13 Zr0 2.897436 1_554
Ge13 Zr6 2.897610 1_555
Ge13 Zr7 2.897917 1_555
Ge13 Zr4 2.898065 1_554
Ge13 Zr5 2.898382 1_554
