# generated using pymatgen
data_LiBeH3
_symmetry_space_group_name_H-M   'P 1'
_cell_length_a   4.69952600
_cell_length_b   6.17787661
_cell_length_c   6.51196185
_cell_angle_alpha   96.63601795
_cell_angle_beta   100.22552359
_cell_angle_gamma   106.85435868
_symmetry_Int_Tables_number   1
_chemical_formula_structural   LiBeH3
_chemical_formula_sum   'Li4 Be4 H12'
_cell_volume   175.24459070
_cell_formula_units_Z   4
loop_
 _symmetry_equiv_pos_site_id
 _symmetry_equiv_pos_as_xyz
  1  'x, y, z'
loop_
 _atom_site_type_symbol
 _atom_site_label
 _atom_site_symmetry_multiplicity
 _atom_site_fract_x
 _atom_site_fract_y
 _atom_site_fract_z
 _atom_site_occupancy
  Li  Li0  1  0.77075900  0.33206300  0.18666800  1
  Li  Li1  1  0.57939000  0.31508400  0.66346000  1
  Li  Li2  1  0.42061000  0.68491600  0.33654000  1
  Li  Li3  1  0.22924100  0.66793700  0.81333200  1
  Be  Be0  1  0.08773900  0.20811600  0.87155300  1
  Be  Be1  1  0.23746500  0.19102200  0.25935500  1
  Be  Be2  1  0.91226100  0.79188400  0.12844700  1
  Be  Be3  1  0.76253500  0.80897800  0.74064500  1
  H  H0  1  0.83344900  0.61147000  0.66121600  1
  H  H1  1  0.73598400  0.62693200  0.22886500  1
  H  H2  1  0.17586800  0.73972700  0.09358800  1
  H  H3  1  0.48079800  0.81430200  0.62210200  1
  H  H4  1  0.69318500  0.80415600  0.94651800  1
  H  H5  1  0.16655100  0.38853000  0.33878400  1
  H  H6  1  0.51920200  0.18569800  0.37789800  1
  H  H7  1  0.02767500  0.99339700  0.72905800  1
  H  H8  1  0.26401600  0.37306800  0.77113500  1
  H  H9  1  0.97232500  0.00660300  0.27094200  1
  H  H10  1  0.30681500  0.19584400  0.05348200  1
  H  H11  1  0.82413200  0.26027300  0.90641200  1
loop_
_geom_bond_atom_site_label_1
_geom_bond_atom_site_label_2
_geom_bond_distance
_geom_bond_site_symmetry_2
Be0 H11 1.415790 1_455
Be0 H8 1.417452 1_555
Be0 H10 1.449910 1_556
Be0 H7 1.451112 1_545
Be1 H6 1.420660 1_555
Be1 H5 1.420766 1_555
Be1 H10 1.436365 1_555
Be1 H9 1.444428 1_455
Be2 H2 1.415790 1_655
Be2 H1 1.417452 1_555
Be2 H4 1.449910 1_554
Be2 H9 1.451112 1_565
Be3 H3 1.420660 1_555
Be3 H0 1.420766 1_555
Be3 H4 1.436365 1_555
Be3 H7 1.444428 1_655
H0 Li3 1.858051 1_655
H0 Li1 1.876992 1_555
H1 Li2 1.853483 1_555
H1 Li0 1.869107 1_555
H2 Li3 1.905325 1_554
H2 Li2 1.908970 1_555
H3 Li2 1.874975 1_555
H3 Li3 1.982172 1_555
H4 Li3 2.076085 1_555
H5 Li0 1.858051 1_455
H5 Li2 1.876992 1_555
H6 Li1 1.874975 1_555
H6 Li0 1.982172 1_555
H8 Li1 1.853483 1_555
H8 Li3 1.869107 1_555
H10 Li0 2.076085 1_555
H11 Li0 1.905325 1_556
H11 Li1 1.908970 1_555
