# generated using pymatgen
data_K3Rh(NO2)6
_symmetry_space_group_name_H-M   'P 1'
_cell_length_a   7.33077823
_cell_length_b   7.33077823
_cell_length_c   7.33077823
_cell_angle_alpha   60.00000000
_cell_angle_beta   60.00000000
_cell_angle_gamma   60.00000000
_symmetry_Int_Tables_number   1
_chemical_formula_structural   K3Rh(NO2)6
_chemical_formula_sum   'K3 Rh1 N6 O12'
_cell_volume   278.57057917
_cell_formula_units_Z   1
loop_
 _symmetry_equiv_pos_site_id
 _symmetry_equiv_pos_as_xyz
  1  'x, y, z'
loop_
 _atom_site_type_symbol
 _atom_site_label
 _atom_site_symmetry_multiplicity
 _atom_site_fract_x
 _atom_site_fract_y
 _atom_site_fract_z
 _atom_site_occupancy
  K  K0  1  0.50000000  0.50000000  0.50000000  1
  K  K1  1  0.75000000  0.75000000  0.75000000  1
  K  K2  1  0.25000000  0.25000000  0.25000000  1
  Rh  Rh0  1  0.00000000  0.00000000  0.00000000  1
  N  N0  1  0.19800200  0.19800200  0.80199800  1
  N  N1  1  0.80199800  0.19800200  0.80199800  1
  N  N2  1  0.80199800  0.80199800  0.19800200  1
  N  N3  1  0.80199800  0.19800200  0.19800200  1
  N  N4  1  0.19800200  0.80199800  0.19800200  1
  N  N5  1  0.19800200  0.80199800  0.80199800  1
  O  O0  1  0.59123600  0.40876400  0.00000000  1
  O  O1  1  0.59123600  0.00000000  0.40876400  1
  O  O2  1  0.59123600  0.00000000  0.00000000  1
  O  O3  1  0.00000000  0.00000000  0.59123600  1
  O  O4  1  0.40876400  0.00000000  0.00000000  1
  O  O5  1  0.40876400  0.00000000  0.59123600  1
  O  O6  1  0.00000000  0.40876400  0.00000000  1
  O  O7  1  0.00000000  0.00000000  0.40876400  1
  O  O8  1  0.40876400  0.59123600  0.00000000  1
  O  O9  1  0.00000000  0.59123600  0.40876400  1
  O  O10  1  0.00000000  0.40876400  0.59123600  1
  O  O11  1  0.00000000  0.59123600  0.00000000  1
loop_
_geom_bond_atom_site_label_1
_geom_bond_atom_site_label_2
_geom_bond_distance
_geom_bond_site_symmetry_2
K0 N1 3.130900 1_555
K0 N5 3.130900 1_555
K0 N4 3.130900 1_555
K0 N2 3.130900 1_555
K0 N3 3.130900 1_555
K0 N0 3.130900 1_555
K1 O4 2.676728 1_566
K1 O1 2.676728 1_565
K1 O10 2.676728 1_655
K1 O8 2.676728 1_556
K1 O7 2.676728 1_665
K1 O11 2.676728 1_656
K1 O0 2.676728 1_556
K1 O9 2.676728 1_655
K1 O5 2.676728 1_565
K1 O6 2.676728 1_656
K1 O2 2.676728 1_566
K1 O3 2.676728 1_665
K2 O11 2.676728 1_555
K2 O5 2.676728 1_555
K2 O2 2.676728 1_555
K2 O6 2.676728 1_555
K2 O3 2.676728 1_555
K2 O0 2.676728 1_555
K2 O8 2.676728 1_555
K2 O9 2.676728 1_555
K2 O1 2.676728 1_555
K2 O10 2.676728 1_555
K2 O7 2.676728 1_555
K2 O4 2.676728 1_555
N0 Rh0 2.052743 1_556
N0 O5 2.119919 1_555
N0 O10 2.119919 1_555
N0 O4 2.119919 1_556
N0 O6 2.119919 1_556
N1 Rh0 2.052743 1_656
N1 O3 2.119919 1_655
N1 O10 2.119919 1_655
N1 O2 2.119919 1_556
N1 O0 2.119919 1_556
N2 Rh0 2.052743 1_665
N2 O9 2.119919 1_655
N2 O1 2.119919 1_565
N2 O11 2.119919 1_655
N2 O2 2.119919 1_565
N3 Rh0 2.052743 1_655
N3 O6 2.119919 1_655
N3 O7 2.119919 1_655
N3 O1 2.119919 1_555
N3 O0 2.119919 1_555
N4 Rh0 2.052743 1_565
N4 O9 2.119919 1_555
N4 O7 2.119919 1_565
N4 O4 2.119919 1_565
N4 O8 2.119919 1_555
N5 Rh0 2.052743 1_566
N5 O11 2.119919 1_556
N5 O3 2.119919 1_565
N5 O8 2.119919 1_556
N5 O5 2.119919 1_565
O0 O8 1.337662 1_555
O1 O5 1.337662 1_555
O2 O4 1.337662 1_555
O3 O7 1.337662 1_555
O10 O9 1.337662 1_555
O11 O6 1.337662 1_555
