# generated using pymatgen
data_Mn2GeO4
_symmetry_space_group_name_H-M   'P 1'
_cell_length_a   8.17833800
_cell_length_b   8.17833800
_cell_length_c   8.17833800
_cell_angle_alpha   136.07069021
_cell_angle_beta   114.18747095
_cell_angle_gamma   82.53503784
_symmetry_Int_Tables_number   1
_chemical_formula_structural   Mn2GeO4
_chemical_formula_sum   'Mn8 Ge4 O16'
_cell_volume   334.18613815
_cell_formula_units_Z   4
loop_
 _symmetry_equiv_pos_site_id
 _symmetry_equiv_pos_as_xyz
  1  'x, y, z'
loop_
 _atom_site_type_symbol
 _atom_site_label
 _atom_site_symmetry_multiplicity
 _atom_site_fract_x
 _atom_site_fract_y
 _atom_site_fract_z
 _atom_site_occupancy
  Mn  Mn0  1  0.00000000  0.00000000  0.00000000  1
  Mn  Mn1  1  0.50000000  0.50000000  0.00000000  1
  Mn  Mn2  1  0.78206200  0.75000000  0.03206200  1
  Mn  Mn3  1  0.21793800  0.25000000  0.96793800  1
  Mn  Mn4  1  0.62299500  0.62299500  0.50000000  1
  Mn  Mn5  1  0.37700500  0.87700500  0.00000000  1
  Mn  Mn6  1  0.62299500  0.12299500  0.00000000  1
  Mn  Mn7  1  0.37700500  0.37700500  0.50000000  1
  Ge  Ge0  1  0.26496100  0.88103200  0.38392900  1
  Ge  Ge1  1  0.73503900  0.11896800  0.61607100  1
  Ge  Ge2  1  0.00289700  0.61896800  0.38392900  1
  Ge  Ge3  1  0.99710300  0.38103200  0.61607100  1
  O  O0  1  0.62768100  0.88078300  0.26234900  1
  O  O1  1  0.37231900  0.63466800  0.25310200  1
  O  O2  1  0.88156500  0.61921700  0.74689800  1
  O  O3  1  0.11843400  0.86533200  0.73765100  1
  O  O4  1  0.37231900  0.11921700  0.73765100  1
  O  O5  1  0.62768100  0.36533200  0.74689800  1
  O  O6  1  0.11843500  0.38078300  0.25310200  1
  O  O7  1  0.88156500  0.13466800  0.26234900  1
  O  O8  1  0.76202700  0.50797800  0.25404900  1
  O  O9  1  0.23797300  0.49202200  0.74595100  1
  O  O10  1  0.24607100  0.99202200  0.25404900  1
  O  O11  1  0.75392900  0.00797800  0.74595100  1
  O  O12  1  0.53614000  0.75000000  0.78614000  1
  O  O13  1  0.46386000  0.25000000  0.21386000  1
  O  O14  1  0.96955000  0.25000000  0.71955000  1
  O  O15  1  0.03045000  0.75000000  0.28045000  1
loop_
_geom_bond_atom_site_label_1
_geom_bond_atom_site_label_2
_geom_bond_distance
_geom_bond_site_symmetry_2
Mn0 O3 2.185573 1_544
Mn0 O6 2.185575 1_555
Mn0 O2 2.185575 1_444
Mn0 O7 2.185579 1_455
Mn0 O10 2.259617 1_545
Mn0 O11 2.259617 1_454
Mn1 O5 2.185573 1_554
Mn1 O0 2.185573 1_555
Mn1 O1 2.185573 1_555
Mn1 O4 2.185573 1_554
Mn1 O9 2.259617 1_554
Mn1 O8 2.259617 1_555
Mn2 O12 2.185270 1_554
Mn2 O15 2.207183 1_655
Mn2 O2 2.231875 1_554
Mn2 O7 2.231879 1_565
Mn2 O0 2.231881 1_555
Mn2 O5 2.231881 1_554
Mn3 O13 2.185270 1_556
Mn3 O14 2.207183 1_455
Mn3 O6 2.231875 1_556
Mn3 O4 2.231881 1_555
Mn3 O1 2.231881 1_556
Mn3 O3 2.231881 1_545
Mn4 O12 2.174634 1_555
Mn4 O13 2.174634 1_555
Mn4 O11 2.257133 1_565
Mn4 O8 2.257133 1_555
Mn4 O2 2.263601 1_555
Mn4 O1 2.263606 1_555
Mn5 O12 2.174634 1_554
Mn5 O13 2.174634 1_565
Mn5 O10 2.257133 1_555
Mn5 O9 2.257133 1_554
Mn5 O0 2.263606 1_555
Mn5 O3 2.263606 1_554
Mn6 O13 2.174634 1_555
Mn6 O12 2.174634 1_544
Mn6 O8 2.257133 1_555
Mn6 O11 2.257133 1_554
Mn6 O7 2.263601 1_555
Mn6 O4 2.263606 1_554
Mn7 O12 2.174634 1_555
Mn7 O13 2.174634 1_555
Mn7 O9 2.257133 1_555
Mn7 O10 2.257133 1_545
Mn7 O6 2.263601 1_555
Mn7 O5 2.263606 1_555
Ge0 O1 1.783330 1_555
Ge0 O4 1.783330 1_565
Ge0 O10 1.787168 1_555
Ge0 O15 1.854902 1_555
Ge1 O0 1.783330 1_545
Ge1 O5 1.783330 1_555
Ge1 O11 1.787168 1_555
Ge1 O14 1.854902 1_555
Ge2 O3 1.783330 1_555
Ge2 O6 1.783336 1_555
Ge2 O8 1.787168 1_455
Ge2 O15 1.854902 1_555
Ge3 O7 1.783331 1_555
Ge3 O2 1.783336 1_555
Ge3 O9 1.787168 1_655
Ge3 O14 1.854902 1_555
