# generated using pymatgen
data_Na14Ta5Ga3(SiO4)12
_symmetry_space_group_name_H-M   'P 1'
_cell_length_a   18.03986988
_cell_length_b   9.02109658
_cell_length_c   22.25259731
_cell_angle_alpha   90.02989482
_cell_angle_beta   89.90194624
_cell_angle_gamma   120.06083434
_symmetry_Int_Tables_number   1
_chemical_formula_structural   Na14Ta5Ga3(SiO4)12
_chemical_formula_sum   'Na42 Ta15 Ga9 Si36 O144'
_cell_volume   3134.27322720
_cell_formula_units_Z   3
loop_
 _symmetry_equiv_pos_site_id
 _symmetry_equiv_pos_as_xyz
  1  'x, y, z'
loop_
 _atom_site_type_symbol
 _atom_site_label
 _atom_site_symmetry_multiplicity
 _atom_site_fract_x
 _atom_site_fract_y
 _atom_site_fract_z
 _atom_site_occupancy
  Na  Na0  1  0.31974946  0.01176451  0.24745576  1
  Na  Na1  1  0.81618880  0.01024411  0.24582891  1
  Na  Na2  1  0.18932137  0.36822882  0.24566605  1
  Na  Na3  1  0.68604707  0.36037172  0.24754189  1
  Na  Na4  1  0.99490989  0.62293359  0.24633882  1
  Na  Na5  1  0.49366849  0.62615190  0.24714568  1
  Na  Na6  1  0.31728875  0.62449907  0.74685995  1
  Na  Na7  1  0.81715202  0.62431859  0.74709426  1
  Na  Na8  1  0.99473048  0.36579206  0.74715982  1
  Na  Na9  1  0.49460164  0.36551670  0.74704169  1
  Na  Na10  1  0.18839702  0.01032978  0.74685706  1
  Na  Na11  1  0.68808273  0.01014839  0.74687546  1
  Na  Na12  1  0.15273309  0.34652195  0.57993763  1
  Na  Na13  1  0.65210880  0.34490589  0.58001684  1
  Na  Na14  1  0.02069840  0.69528937  0.57986964  1
  Na  Na15  1  0.51992049  0.69499152  0.57998797  1
  Na  Na16  1  0.32720921  0.95847979  0.57977305  1
  Na  Na17  1  0.82732071  0.95943613  0.58060901  1
  Na  Na18  1  0.15331072  0.96015960  0.08007903  1
  Na  Na19  1  0.65233285  0.95950178  0.08047732  1
  Na  Na20  1  0.32774366  0.69610178  0.08100758  1
  Na  Na21  1  0.82704262  0.69457908  0.08047042  1
  Na  Na22  1  0.02016768  0.34572781  0.07982636  1
  Na  Na23  1  0.51989953  0.34487255  0.08044390  1
  Na  Na24  1  0.34825208  0.02942409  0.91948661  1
  Na  Na25  1  0.84815417  0.02938726  0.91941410  1
  Na  Na26  1  0.48444915  0.29169807  0.41462013  1
  Na  Na27  1  0.66040059  0.03080904  0.41446971  1
  Na  Na28  1  0.35399541  0.67902329  0.41489245  1
  Na  Na29  1  0.84779013  0.66650915  0.41777112  1
  Na  Na30  1  0.00397347  0.00750870  0.49730026  1
  Na  Na31  1  0.49939046  0.99976334  0.49350362  1
  Na  Na32  1  0.00364793  0.99976447  0.99785715  1
  Na  Na33  1  0.50354909  0.99981948  0.99860708  1
  Na  Na34  1  0.33314864  0.33908797  0.83213058  1
  Na  Na35  1  0.83310977  0.33908073  0.83210942  1
  Na  Na36  1  0.33126204  0.32911343  0.32916552  1
  Na  Na37  1  0.83519156  0.33135062  0.32922501  1
  Na  Na38  1  0.16744937  0.66714938  0.16063902  1
  Na  Na39  1  0.66605503  0.66640923  0.16039973  1
  Na  Na40  1  0.16699507  0.66695166  0.66082930  1
  Na  Na41  1  0.66653428  0.66667108  0.66109717  1
  Ta  Ta0  1  0.00279036  0.00427173  0.35507626  1
  Ta  Ta1  1  0.00189339  0.00004151  0.85584295  1
  Ta  Ta2  1  0.50186149  0.99997505  0.85584389  1
  Ta  Ta3  1  -0.00002395  0.99968768  0.64543772  1
  Ta  Ta4  1  0.49996166  0.99982827  0.64484529  1
  Ta  Ta5  1  0.99993967  0.00028227  0.14489987  1
  Ta  Ta6  1  0.49985393  0.00004227  0.14628109  1
  Ta  Ta7  1  0.33334710  0.33743923  0.97831597  1
  Ta  Ta8  1  0.83321668  0.33751260  0.97824911  1
  Ta  Ta9  1  0.33035574  0.32853691  0.47839988  1
  Ta  Ta10  1  0.83624485  0.33385954  0.47874416  1
  Ta  Ta11  1  0.16757813  0.66845939  0.31415279  1
  Ta  Ta12  1  0.66554350  0.66542758  0.31321580  1
  Ta  Ta13  1  0.16641823  0.66578724  0.81475915  1
  Ta  Ta14  1  0.66624308  0.66556630  0.81475437  1
  Ga  Ga0  1  0.49926744  0.99972893  0.35123613  1
  Ga  Ga1  1  0.33339684  0.33332730  0.68382475  1
  Ga  Ga2  1  0.83322795  0.33300096  0.68392676  1
  Ga  Ga3  1  0.33425333  0.33504293  0.18360068  1
  Ga  Ga4  1  0.83213856  0.33178415  0.18345624  1
  Ga  Ga5  1  0.16637450  0.66625037  0.01840335  1
  Ga  Ga6  1  0.66605993  0.66579096  0.01839544  1
  Ga  Ga7  1  0.16634256  0.66696970  0.51769686  1
  Ga  Ga8  1  0.66633358  0.66613540  0.51796234  1
  Si  Si0  1  0.14760006  0.00286463  0.24899374  1
  Si  Si1  1  0.64603518  0.00457695  0.25197296  1
  Si  Si2  1  0.35575786  0.70732102  0.25201610  1
  Si  Si3  1  0.85466355  0.70559031  0.25027528  1
  Si  Si4  1  0.99845462  0.29110838  0.24978413  1
  Si  Si5  1  0.49758862  0.28794457  0.25191595  1
  Si  Si6  1  0.14734561  0.29173191  0.74944973  1
  Si  Si7  1  0.64722946  0.29145437  0.74933693  1
  Si  Si8  1  0.99837898  0.70551637  0.74980149  1
  Si  Si9  1  0.49839243  0.70581008  0.74968461  1
  Si  Si10  1  0.35449689  0.00328954  0.75024024  1
  Si  Si11  1  0.85434855  0.00317967  0.75032573  1
  Si  Si12  1  0.47883067  0.33808366  0.58469687  1
  Si  Si13  1  0.97978498  0.33823629  0.58572061  1
  Si  Si14  1  0.18952208  0.04078737  0.58577324  1
  Si  Si15  1  0.69024707  0.04240205  0.58458637  1
  Si  Si16  1  0.33092002  0.61960636  0.58472796  1
  Si  Si17  1  0.83092476  0.62020181  0.58502031  1
  Si  Si18  1  0.47940350  0.62103937  0.08500326  1
  Si  Si19  1  0.97897332  0.61959274  0.08542972  1
  Si  Si20  1  0.33118621  0.04258714  0.08464873  1
  Si  Si21  1  0.83105393  0.04243148  0.08424706  1
  Si  Si22  1  0.19026245  0.33802231  0.08496538  1
  Si  Si23  1  0.68978880  0.33767651  0.08504908  1
  Si  Si24  1  0.31013551  0.66390301  0.91900596  1
  Si  Si25  1  0.81008130  0.66406413  0.91899804  1
  Si  Si26  1  0.02303349  0.37973400  0.91977508  1
  Si  Si27  1  0.52298034  0.37952030  0.91975594  1
  Si  Si28  1  0.16558155  0.95380388  0.91989490  1
  Si  Si29  1  0.66553889  0.95371080  0.91987888  1
  Si  Si30  1  0.31232383  0.95544600  0.41896207  1
  Si  Si31  1  0.81114338  0.95501939  0.41871466  1
  Si  Si32  1  0.16524010  0.37857492  0.41970369  1
  Si  Si33  1  0.66448777  0.37334713  0.41874859  1
  Si  Si34  1  0.02424618  0.66804986  0.41918274  1
  Si  Si35  1  0.52197001  0.67086545  0.41913061  1
  O  O0  1  0.09669319  0.02872394  0.30561342  1
  O  O1  1  0.60311827  0.03688427  0.31035948  1
  O  O2  1  0.41493814  0.79310639  0.31028790  1
  O  O3  1  0.91588266  0.80184984  0.30832318  1
  O  O4  1  0.48187807  0.17039336  0.31031636  1
  O  O5  1  0.98493674  0.16244698  0.30603301  1
  O  O6  1  0.09642315  0.16340857  0.80552060  1
  O  O7  1  0.59654555  0.16350705  0.80554935  1
  O  O8  1  0.48465446  0.80672682  0.80579606  1
  O  O9  1  0.98457762  0.80674442  0.80575899  1
  O  O10  1  0.41592026  0.03025120  0.80797452  1
  O  O11  1  0.91595244  0.03029017  0.80792527  1
  O  O12  1  0.39995840  0.96499486  0.69180016  1
  O  O13  1  0.89977188  0.96489250  0.69178232  1
  O  O14  1  0.08312571  0.20169225  0.69085642  1
  O  O15  1  0.58323689  0.20178455  0.69075232  1
  O  O16  1  0.01774997  0.83394312  0.69105455  1
  O  O17  1  0.51791903  0.83425648  0.69101962  1
  O  O18  1  0.39967789  0.83485269  0.19230871  1
  O  O19  1  0.89995464  0.83478799  0.19197818  1
  O  O20  1  0.01771644  0.20113150  0.19123712  1
  O  O21  1  0.51773298  0.20065968  0.19225721  1
  O  O22  1  0.08291069  0.96443704  0.19093926  1
  O  O23  1  0.58265331  0.96491556  0.19224326  1
  O  O24  1  0.43711091  0.37073798  0.64412901  1
  O  O25  1  0.93740803  0.37064027  0.64475212  1
  O  O26  1  0.24770205  0.12450820  0.64494374  1
  O  O27  1  0.74844654  0.12578213  0.64388310  1
  O  O28  1  0.31482178  0.50327230  0.64405576  1
  O  O29  1  0.81483697  0.50360037  0.64412760  1
  O  O30  1  0.43785770  0.50530441  0.14442018  1
  O  O31  1  0.93716974  0.50392888  0.14504898  1
  O  O32  1  0.31451948  0.12605338  0.14400872  1
  O  O33  1  0.81553475  0.12631470  0.14384596  1
  O  O34  1  0.24752214  0.36980025  0.14456899  1
  O  O35  1  0.74788588  0.37220609  0.14460826  1
  O  O36  1  0.23484053  0.29634159  0.02712784  1
  O  O37  1  0.73519408  0.29682358  0.02738610  1
  O  O38  1  0.41388000  0.52958834  0.02728607  1
  O  O39  1  0.91374516  0.52948884  0.02755504  1
  O  O40  1  0.35121964  0.16777543  0.02511504  1
  O  O41  1  0.85167387  0.16795989  0.02492058  1
  O  O42  1  0.23449441  0.17213631  0.52779871  1
  O  O43  1  0.73361256  0.16960883  0.52532276  1
  O  O44  1  0.35141611  0.53373531  0.52545167  1
  O  O45  1  0.85111430  0.53412758  0.52550126  1
  O  O46  1  0.41538970  0.29791253  0.52560149  1
  O  O47  1  0.91413556  0.29788401  0.52765235  1
  O  O48  1  0.27137652  0.70880152  0.97677434  1
  O  O49  1  0.77143395  0.70893516  0.97683072  1
  O  O50  1  0.08011100  0.45976501  0.97849216  1
  O  O51  1  0.58017650  0.45962162  0.97838814  1
  O  O52  1  0.15040122  0.84057377  0.97871128  1
  O  O53  1  0.65068340  0.84072357  0.97868126  1
  O  O54  1  0.26980953  0.83500924  0.47708366  1
  O  O55  1  0.77168662  0.83595883  0.47719447  1
  O  O56  1  0.15019113  0.45924118  0.47918375  1
  O  O57  1  0.64880886  0.46079393  0.47702016  1
  O  O58  1  0.07909288  0.69933688  0.47886809  1
  O  O59  1  0.58254387  0.70498571  0.47687544  1
  O  O60  1  0.06744659  0.63783956  0.35804177  1
  O  O61  1  0.56705007  0.63291115  0.35933949  1
  O  O62  1  0.25111675  0.86469837  0.35848308  1
  O  O63  1  0.75010099  0.86699969  0.35845204  1
  O  O64  1  0.18241482  0.49943734  0.35895276  1
  O  O65  1  0.68431346  0.50200708  0.35913246  1
  O  O66  1  0.06773132  0.49664465  0.85830443  1
  O  O67  1  0.56773300  0.49668545  0.85830558  1
  O  O68  1  0.18222749  0.86514877  0.85889793  1
  O  O69  1  0.68237904  0.86533451  0.85885896  1
  O  O70  1  0.25165084  0.63853828  0.85777528  1
  O  O71  1  0.75169716  0.63862987  0.85775486  1
  O  O72  1  0.00753440  0.83093155  0.40953123  1
  O  O73  1  0.51040319  0.83657374  0.41173916  1
  O  O74  1  0.40726677  0.97853605  0.41163840  1
  O  O75  1  0.90519794  0.97141565  0.40921059  1
  O  O76  1  0.08263257  0.18630106  0.40962581  1
  O  O77  1  0.58146113  0.18462318  0.41167842  1
  O  O78  1  0.00790302  0.18436466  0.90938615  1
  O  O79  1  0.50790994  0.18433611  0.90932498  1
  O  O80  1  0.08222218  0.97780143  0.90938558  1
  O  O81  1  0.58226210  0.97779495  0.90939008  1
  O  O82  1  0.40437229  0.83808192  0.90851814  1
  O  O83  1  0.90439986  0.83817122  0.90854739  1
  O  O84  1  0.48562964  0.15991836  0.58934267  1
  O  O85  1  0.98562558  0.15920095  0.58921818  1
  O  O86  1  0.09398366  0.02854753  0.58938901  1
  O  O87  1  0.59450571  0.02897586  0.58930837  1
  O  O88  1  0.42020601  0.81151618  0.58946250  1
  O  O89  1  0.92024454  0.81197907  0.58922976  1
  O  O90  1  0.48592807  0.81250839  0.08903206  1
  O  O91  1  0.98554075  0.81141198  0.08933320  1
  O  O92  1  0.42030862  0.02853508  0.08939105  1
  O  O93  1  0.92023671  0.02819823  0.08925683  1
  O  O94  1  0.09409344  0.15959687  0.08925809  1
  O  O95  1  0.59405542  0.15944543  0.08930064  1
  O  O96  1  0.34513596  0.17133421  0.74573497  1
  O  O97  1  0.84508933  0.17127400  0.74568737  1
  O  O98  1  0.24049354  0.30986222  0.74562647  1
  O  O99  1  0.74051423  0.30974932  0.74554602  1
  O  O100  1  0.41428019  0.51922615  0.74565868  1
  O  O101  1  0.91417448  0.51922050  0.74563850  1
  O  O102  1  0.34326430  0.51757025  0.24484231  1
  O  O103  1  0.84533688  0.51903873  0.24623419  1
  O  O104  1  0.41515492  0.31263730  0.24494225  1
  O  O105  1  0.91440205  0.30895754  0.24610515  1
  O  O106  1  0.24058804  0.17091215  0.24592936  1
  O  O107  1  0.74114310  0.16992399  0.24476240  1
  O  O108  1  0.32067117  0.49454102  0.92204478  1
  O  O109  1  0.82075544  0.49478474  0.92206969  1
  O  O110  1  0.42525466  0.35111902  0.92227100  1
  O  O111  1  0.92527362  0.35127488  0.92232164  1
  O  O112  1  0.25421337  0.14193281  0.92228689  1
  O  O113  1  0.75421222  0.14201824  0.92237535  1
  O  O114  1  0.32242874  0.14848264  0.42264198  1
  O  O115  1  0.81702845  0.14300923  0.42239703  1
  O  O116  1  0.25421416  0.36735477  0.42276549  1
  O  O117  1  0.75341932  0.36103795  0.42256886  1
  O  O118  1  0.42718236  0.49305271  0.42260769  1
  O  O119  1  0.92582860  0.49898450  0.42259933  1
  O  O120  1  0.17738417  0.50262201  0.07814628  1
  O  O121  1  0.67744675  0.50289180  0.07805720  1
  O  O122  1  0.07431718  0.64614156  0.07899008  1
  O  O123  1  0.57460483  0.64649535  0.07861732  1
  O  O124  1  0.24888520  0.85110740  0.07865428  1
  O  O125  1  0.74894135  0.85105801  0.07865316  1
  O  O126  1  0.17685279  0.85111398  0.57868560  1
  O  O127  1  0.67730153  0.85190162  0.57798546  1
  O  O128  1  0.24899619  0.64659491  0.57876238  1
  O  O129  1  0.74874439  0.64614024  0.57850691  1
  O  O130  1  0.07465623  0.50269879  0.57894898  1
  O  O131  1  0.57433557  0.50277736  0.57834069  1
  O  O132  1  0.15232736  0.82570273  0.25543973  1
  O  O133  1  0.65291091  0.82679435  0.25610621  1
  O  O134  1  0.26012636  0.69417455  0.25575410  1
  O  O135  1  0.76081342  0.69520829  0.25598599  1
  O  O136  1  0.08682581  0.47833612  0.25608707  1
  O  O137  1  0.58705410  0.47906829  0.25601043  1
  O  O138  1  0.15268774  0.47919438  0.75537687  1
  O  O139  1  0.65285426  0.47927812  0.75538338  1
  O  O140  1  0.08674285  0.69477200  0.75585637  1
  O  O141  1  0.58674412  0.69471359  0.75587904  1
  O  O142  1  0.26012369  0.82640077  0.75544872  1
  O  O143  1  0.76010699  0.82628427  0.75534581  1
loop_
_geom_bond_atom_site_label_1
_geom_bond_atom_site_label_2
_geom_bond_distance
_geom_bond_site_symmetry_2
Na0 O104 2.377401 1_555
Na0 O106 2.481117 1_555
Na0 O134 2.512350 1_545
Na0 O32 2.543934 1_555
Na0 O132 2.624994 1_545
Na0 O62 2.782892 1_545
Na0 O4 2.894413 1_555
Na0 O18 2.903332 1_545
Na1 O105 2.370134 1_555
Na1 O107 2.421212 1_555
Na1 O33 2.502316 1_555
Na1 O135 2.506283 1_545
Na1 O133 2.565471 1_545
Na1 O63 2.796740 1_545
Na1 O19 2.934754 1_545
Na1 O5 2.961703 1_555
Na2 O106 2.381828 1_555
Na2 O102 2.404012 1_555
Na2 O34 2.478029 1_555
Na2 O136 2.509480 1_555
Na2 O134 2.562303 1_555
Na2 O64 2.813388 1_555
Na2 O20 2.942553 1_555
Na2 O0 2.970079 1_555
Na3 O107 2.377778 1_555
Na3 O103 2.487190 1_555
Na3 O137 2.507107 1_555
Na3 O35 2.524807 1_555
Na3 O135 2.626246 1_555
Na3 O65 2.799312 1_555
Na3 O1 2.886417 1_555
Na3 O21 2.904647 1_555
Na4 O103 2.371826 1_555
Na4 O105 2.451670 1_555
Na4 O31 2.490594 1_555
Na4 O132 2.499777 1_655
Na4 O136 2.581956 1_655
Na4 O60 2.782715 1_655
Na4 O22 2.937423 1_655
Na4 O3 2.972576 1_555
Na5 O102 2.379445 1_555
Na5 O104 2.448340 1_555
Na5 O30 2.516585 1_555
Na5 O133 2.522055 1_555
Na5 O137 2.622666 1_555
Na5 O61 2.814154 1_555
Na5 O2 2.897211 1_555
Na5 O23 2.913963 1_555
Na6 O100 2.372473 1_555
Na6 O98 2.457025 1_555
Na6 O142 2.509605 1_555
Na6 O28 2.525927 1_555
Na6 O138 2.582682 1_555
Na6 O70 2.765832 1_555
Na6 O12 2.927227 1_555
Na6 O8 2.928672 1_555
Na7 O101 2.371846 1_555
Na7 O99 2.456627 1_555
Na7 O143 2.507914 1_555
Na7 O29 2.527804 1_555
Na7 O139 2.577588 1_555
Na7 O71 2.759932 1_555
Na7 O9 2.926855 1_555
Na7 O13 2.930153 1_555
Na8 O97 2.371106 1_555
Na8 O101 2.458457 1_555
Na8 O138 2.506178 1_655
Na8 O25 2.513530 1_555
Na8 O140 2.581777 1_655
Na8 O66 2.774061 1_655
Na8 O14 2.942838 1_655
Na8 O11 2.949051 1_555
Na9 O96 2.368108 1_555
Na9 O100 2.456898 1_555
Na9 O139 2.510833 1_555
Na9 O24 2.525761 1_555
Na9 O141 2.583793 1_555
Na9 O67 2.777583 1_555
Na9 O15 2.943574 1_555
Na9 O10 2.949144 1_555
Na10 O98 2.375130 1_555
Na10 O96 2.447579 1_555
Na10 O26 2.497747 1_555
Na10 O140 2.505199 1_545
Na10 O142 2.572158 1_545
Na10 O68 2.792875 1_545
Na10 O6 2.941123 1_555
Na10 O16 2.941820 1_545
Na11 O99 2.374691 1_555
Na11 O97 2.451751 1_555
Na11 O141 2.503432 1_545
Na11 O27 2.526354 1_555
Na11 O143 2.575869 1_545
Na11 O69 2.791909 1_545
Na11 O17 2.935484 1_545
Na11 O7 2.936837 1_555
Na12 O128 2.373720 1_555
Na12 O130 2.440800 1_555
Na12 O56 2.472298 1_555
Na12 O86 2.519884 1_555
Na12 O85 2.623107 1_455
Na12 O14 2.779406 1_555
Na12 O42 2.883277 1_555
Na12 O28 2.907784 1_555
Na13 O129 2.382994 1_555
Na13 O131 2.449525 1_555
Na13 O87 2.505614 1_555
Na13 O57 2.532747 1_555
Na13 O84 2.612415 1_555
Na13 O15 2.769194 1_555
Na13 O43 2.909489 1_555
Na13 O29 2.916222 1_555
Na14 O130 2.379191 1_555
Na14 O126 2.438205 1_555
Na14 O58 2.473047 1_555
Na14 O89 2.518944 1_455
Na14 O86 2.617114 1_565
Na14 O16 2.784198 1_555
Na14 O45 2.914014 1_455
Na14 O25 2.916822 1_455
Na15 O131 2.382592 1_555
Na15 O127 2.457591 1_555
Na15 O88 2.505612 1_555
Na15 O59 2.537424 1_555
Na15 O87 2.621062 1_565
Na15 O17 2.779590 1_555
Na15 O44 2.899990 1_555
Na15 O24 2.905935 1_555
Na16 O126 2.379938 1_555
Na16 O128 2.435218 1_555
Na16 O84 2.512737 1_565
Na16 O54 2.526763 1_555
Na16 O88 2.616961 1_555
Na16 O12 2.806083 1_555
Na16 O46 2.911558 1_565
Na16 O26 2.923426 1_565
Na17 O127 2.374651 1_555
Na17 O129 2.446588 1_555
Na17 O85 2.507084 1_565
Na17 O55 2.535546 1_555
Na17 O89 2.617586 1_555
Na17 O13 2.788788 1_555
Na17 O47 2.893144 1_565
Na17 O27 2.896382 1_565
Na18 O124 2.374989 1_555
Na18 O122 2.451897 1_555
Na18 O52 2.489148 1_554
Na18 O94 2.518773 1_565
Na18 O91 2.632959 1_455
Na18 O22 2.781801 1_555
Na18 O36 2.877179 1_565
Na18 O32 2.893560 1_565
Na19 O125 2.388275 1_555
Na19 O123 2.444259 1_555
Na19 O53 2.499205 1_554
Na19 O95 2.509158 1_565
Na19 O90 2.610837 1_555
Na19 O23 2.796196 1_555
Na19 O37 2.886304 1_565
Na19 O33 2.914503 1_565
Na20 O120 2.380206 1_555
Na20 O124 2.444393 1_555
Na20 O90 2.505437 1_555
Na20 O48 2.559703 1_554
Na20 O92 2.607724 1_565
Na20 O18 2.786651 1_555
Na20 O38 2.903492 1_555
Na20 O34 2.913629 1_555
Na21 O121 2.366688 1_555
Na21 O125 2.443802 1_555
Na21 O91 2.511542 1_555
Na21 O49 2.545647 1_554
Na21 O93 2.617990 1_565
Na21 O19 2.797873 1_555
Na21 O35 2.893170 1_555
Na21 O39 2.894217 1_555
Na22 O122 2.376303 1_555
Na22 O120 2.454912 1_555
Na22 O50 2.488382 1_554
Na22 O93 2.514960 1_455
Na22 O94 2.624248 1_555
Na22 O20 2.791953 1_555
Na22 O41 2.903606 1_455
Na22 O31 2.918255 1_455
Na23 O123 2.385168 1_555
Na23 O121 2.460333 1_555
Na23 O92 2.504805 1_555
Na23 O51 2.505544 1_554
Na23 O95 2.621006 1_555
Na23 O21 2.799455 1_555
Na23 O30 2.906610 1_555
Na23 O40 2.910022 1_555
Na24 O112 2.374129 1_555
Na24 O82 2.411111 1_545
Na24 O79 2.503067 1_555
Na24 O110 2.513314 1_555
Na24 O40 2.648752 1_556
Na24 O10 2.761931 1_555
Na24 O48 2.809520 1_545
Na24 O68 2.923937 1_545
Na25 O113 2.373466 1_555
Na25 O83 2.411594 1_545
Na25 O78 2.504224 1_655
Na25 O111 2.514856 1_555
Na25 O41 2.645144 1_556
Na25 O11 2.762349 1_555
Na25 O49 2.809684 1_545
Na25 O69 2.920135 1_545
Na26 O77 2.386046 1_555
Na26 O74 2.446107 1_545
Na26 O118 2.505461 1_555
Na26 O114 2.541511 1_555
Na26 O4 2.556109 1_555
Na26 O46 2.777329 1_555
Na26 O57 2.920112 1_555
Na26 O61 2.934447 1_555
Na27 O73 2.376212 1_545
Na27 O77 2.436629 1_555
Na27 O115 2.485085 1_555
Na27 O1 2.550121 1_555
Na27 O117 2.591382 1_555
Na27 O43 2.783571 1_555
Na27 O59 2.898661 1_545
Na27 O63 2.956842 1_545
Na28 O74 2.372306 1_555
Na28 O73 2.442960 1_555
Na28 O116 2.470838 1_555
Na28 O2 2.558582 1_555
Na28 O118 2.609079 1_555
Na28 O44 2.777516 1_555
Na28 O54 2.886790 1_555
Na28 O64 2.956732 1_555
Na29 O117 2.408977 1_555
Na29 O75 2.412594 1_555
Na29 O72 2.500893 1_655
Na29 O119 2.531699 1_555
Na29 O45 2.692941 1_555
Na29 O3 2.724258 1_555
Na29 O55 2.839762 1_555
Na29 O65 2.868579 1_555
Na30 O76 2.474318 1_555
Na30 O72 2.540652 1_545
Na30 O75 2.560018 1_445
Na30 O86 2.564014 1_555
Na30 O85 2.571849 1_455
Na30 O89 2.627084 1_445
Na31 O73 2.409594 1_555
Na31 O74 2.410060 1_555
Na31 O77 2.410149 1_565
Na31 O88 2.654641 1_555
Na31 O84 2.655477 1_565
Na31 O87 2.667880 1_565
Na32 O80 2.489125 1_555
Na32 O94 2.555259 1_566
Na32 O78 2.555339 1_565
Na32 O91 2.565671 1_456
Na32 O83 2.583538 1_455
Na32 O93 2.615784 1_466
Na33 O81 2.503965 1_555
Na33 O95 2.542673 1_566
Na33 O90 2.543315 1_556
Na33 O79 2.568234 1_565
Na33 O82 2.596670 1_555
Na33 O92 2.604219 1_566
Na34 O100 2.469083 1_555
Na34 O98 2.477451 1_555
Na34 O108 2.516414 1_555
Na34 O96 2.521194 1_555
Na34 O110 2.574220 1_555
Na34 O112 2.583124 1_555
Na35 O101 2.468756 1_555
Na35 O99 2.477588 1_555
Na35 O109 2.517776 1_555
Na35 O97 2.521895 1_555
Na35 O111 2.575706 1_555
Na35 O113 2.584533 1_555
Na36 O106 2.410811 1_555
Na36 O104 2.457734 1_555
Na36 O102 2.468046 1_555
Na36 O114 2.598014 1_555
Na36 O116 2.618946 1_555
Na36 O118 2.636353 1_555
Na37 O105 2.404911 1_555
Na37 O103 2.449989 1_555
Na37 O107 2.462633 1_555
Na37 O115 2.595455 1_555
Na37 O119 2.609381 1_555
Na37 O117 2.635729 1_555
Na38 O124 2.406670 1_555
Na38 O122 2.418855 1_555
Na38 O120 2.422243 1_555
Na38 O134 2.633944 1_555
Na38 O132 2.637478 1_555
Na38 O136 2.653143 1_555
Na39 O123 2.403934 1_555
Na39 O125 2.412067 1_555
Na39 O121 2.423884 1_555
Na39 O137 2.644670 1_555
Na39 O133 2.650294 1_555
Na39 O135 2.660995 1_555
Na40 O128 2.412384 1_555
Na40 O130 2.413509 1_555
Na40 O126 2.416407 1_555
Na40 O142 2.629201 1_555
Na40 O138 2.631711 1_555
Na40 O140 2.642620 1_555
Na41 O129 2.424243 1_555
Na41 O131 2.426452 1_555
Na41 O127 2.434586 1_555
Na41 O143 2.625878 1_555
Na41 O139 2.627682 1_555
Na41 O141 2.634050 1_555
Ga0 O2 1.944506 1_555
Ga0 O4 1.945290 1_565
Ga0 O1 1.953192 1_565
Ga0 O74 2.066993 1_555
Ga0 O77 2.077601 1_565
Ga0 O73 2.078108 1_555
Ga1 O24 1.938255 1_555
Ga1 O28 1.939823 1_555
Ga1 O26 1.942272 1_555
Ga1 O98 2.093314 1_555
Ga1 O100 2.094681 1_555
Ga1 O96 2.095592 1_555
Ga2 O25 1.939775 1_555
Ga2 O27 1.940688 1_555
Ga2 O29 1.943420 1_555
Ga2 O99 2.088669 1_555
Ga2 O97 2.092603 1_555
Ga2 O101 2.094540 1_555
Ga3 O30 1.931922 1_555
Ga3 O32 1.945325 1_555
Ga3 O34 1.948630 1_555
Ga3 O102 2.079699 1_555
Ga3 O104 2.082486 1_555
Ga3 O106 2.111583 1_555
Ga4 O33 1.935279 1_555
Ga4 O35 1.936614 1_555
Ga4 O31 1.944257 1_555
Ga4 O107 2.069039 1_555
Ga4 O103 2.111278 1_555
Ga4 O105 2.121739 1_555
Ga5 O50 1.944004 1_554
Ga5 O52 1.947436 1_554
Ga5 O48 1.964554 1_554
Ga5 O120 2.069397 1_555
Ga5 O122 2.073474 1_555
Ga5 O124 2.076492 1_555
Ga6 O51 1.941201 1_554
Ga6 O53 1.946572 1_554
Ga6 O49 1.968160 1_554
Ga6 O123 2.062300 1_555
Ga6 O121 2.066325 1_555
Ga6 O125 2.080346 1_555
Ga7 O54 1.938977 1_555
Ga7 O58 1.942822 1_555
Ga7 O56 1.945042 1_555
Ga7 O126 2.078543 1_555
Ga7 O130 2.080483 1_555
Ga7 O128 2.094117 1_555
Ga8 O57 1.942659 1_555
Ga8 O59 1.944056 1_555
Ga8 O55 1.964858 1_555
Ga8 O131 2.067719 1_555
Ga8 O127 2.073138 1_555
Ga8 O129 2.081747 1_555
O0 Si0 1.641825 1_555
O0 Ta0 1.936306 1_555
O1 Si1 1.610784 1_555
O2 Si2 1.611233 1_555
O3 Si3 1.638657 1_555
O3 Ta0 2.002583 1_665
O4 Si5 1.610216 1_555
O5 Si4 1.640194 1_555
O5 Ta0 1.947842 1_655
O6 Si6 1.634925 1_555
O6 Ta1 1.952264 1_555
O7 Si7 1.635000 1_555
O7 Ta2 1.953759 1_545
O8 Si9 1.634952 1_555
O8 Ta2 1.957759 1_555
O9 Si8 1.634611 1_555
O9 Ta1 1.958013 1_665
O10 Si10 1.634646 1_555
O10 Ta2 2.010748 1_545
O11 Si11 1.634004 1_555
O11 Ta1 2.011185 1_655
O12 Si10 1.662171 1_565
O12 Ta4 1.967493 1_555
O13 Si11 1.663528 1_565
O13 Ta3 1.963481 1_655
O14 Si6 1.662312 1_555
O14 Ta3 1.963942 1_545
O15 Si7 1.659838 1_555
O15 Ta4 1.970007 1_545
O16 Si8 1.663650 1_455
O16 Ta3 1.962610 1_555
O17 Si9 1.661931 1_555
O17 Ta4 1.969555 1_555
O18 Si2 1.673747 1_555
O18 Ta6 1.957767 1_565
O19 Si3 1.659151 1_555
O19 Ta5 1.969044 1_565
O20 Si4 1.660375 1_455
O20 Ta5 1.966222 1_455
O21 Si5 1.672847 1_555
O21 Ta6 1.959714 1_555
O22 Si0 1.658416 1_565
O22 Ta5 1.971044 1_465
O23 Si1 1.672379 1_565
O23 Ta6 1.964016 1_565
O24 Si12 1.618817 1_555
O25 Si13 1.617242 1_555
O26 Si14 1.617166 1_555
O27 Si15 1.619172 1_555
O28 Si16 1.619700 1_555
O29 Si17 1.617082 1_555
O30 Si18 1.616801 1_555
O31 Si19 1.620870 1_555
O32 Si20 1.620668 1_555
O33 Si21 1.618584 1_555
O34 Si22 1.617398 1_555
O35 Si23 1.621501 1_555
O36 Si22 1.656332 1_555
O36 Ta7 1.951647 1_554
O37 Si23 1.658785 1_555
O37 Ta8 1.949559 1_554
O38 Si18 1.659675 1_555
O38 Ta7 1.945072 1_554
O39 Si19 1.658251 1_555
O39 Ta8 1.948447 1_554
O40 Si20 1.658939 1_555
O40 Ta7 2.007053 1_554
O41 Si21 1.655725 1_555
O41 Ta8 2.010490 1_554
O42 Si14 1.661765 1_555
O42 Ta9 1.933982 1_555
O43 Si15 1.663334 1_555
O43 Ta10 1.986050 1_555
O44 Si16 1.661598 1_555
O44 Ta9 1.990474 1_555
O45 Si17 1.664440 1_555
O45 Ta10 1.982914 1_555
O46 Si12 1.661196 1_555
O46 Ta9 1.990760 1_555
O47 Si13 1.666625 1_555
O47 Ta10 1.930459 1_555
O48 Si24 1.607964 1_555
O49 Si25 1.607865 1_555
O50 Si26 1.596104 1_555
O51 Si27 1.595539 1_555
O52 Si28 1.597280 1_555
O53 Si29 1.596700 1_555
O54 Si30 1.613900 1_555
O55 Si31 1.608129 1_555
O56 Si32 1.597126 1_555
O57 Si33 1.613983 1_555
O58 Si34 1.595918 1_555
O59 Si35 1.614749 1_555
O60 Si34 1.655740 1_555
O60 Ta11 1.946133 1_555
O61 Si35 1.680362 1_555
O61 Ta12 1.941249 1_555
O62 Si30 1.673002 1_555
O62 Ta11 1.925787 1_555
O63 Si31 1.664137 1_555
O63 Ta12 1.967533 1_555
O64 Si32 1.665529 1_555
O64 Ta11 1.949805 1_555
O65 Si33 1.679001 1_555
O65 Ta12 1.958285 1_555
O66 Si26 1.667138 1_555
O66 Ta13 1.926347 1_555
O67 Si27 1.667830 1_555
O67 Ta14 1.923956 1_555
O68 Si28 1.676380 1_555
O68 Ta13 1.940560 1_555
O69 Si29 1.676832 1_555
O69 Ta14 1.941446 1_555
O70 Si24 1.668759 1_555
O70 Ta13 1.929975 1_555
O71 Si25 1.667850 1_555
O71 Ta14 1.931761 1_555
O72 Si34 1.655421 1_555
O72 Ta0 2.014278 1_565
O73 Si35 1.618056 1_555
O74 Si30 1.626391 1_555
O75 Si31 1.641000 1_555
O75 Ta0 2.027034 1_665
O76 Si32 1.640363 1_555
O76 Ta0 1.969501 1_555
O77 Si33 1.616317 1_555
O78 Si26 1.658917 1_555
O78 Ta1 2.003506 1_555
O79 Si27 1.657809 1_555
O79 Ta2 2.002707 1_545
O80 Si28 1.640228 1_555
O80 Ta1 1.963980 1_565
O81 Si29 1.639160 1_555
O81 Ta2 1.964796 1_555
O82 Si24 1.654197 1_555
O82 Ta2 2.005331 1_555
O83 Si25 1.654614 1_555
O83 Ta1 2.005704 1_665
O84 Si12 1.675316 1_555
O84 Ta4 2.013697 1_545
O85 Si13 1.672225 1_555
O85 Ta3 2.019646 1_645
O86 Si14 1.672723 1_555
O86 Ta3 2.012500 1_545
O87 Si15 1.672906 1_555
O87 Ta4 2.012267 1_545
O88 Si16 1.676129 1_555
O88 Ta4 2.007487 1_555
O89 Si17 1.675034 1_555
O89 Ta3 2.016068 1_655
O90 Si18 1.673774 1_555
O90 Ta6 2.030061 1_565
O91 Si19 1.676432 1_555
O91 Ta5 2.013682 1_565
O92 Si20 1.678352 1_555
O92 Ta6 2.025825 1_555
O93 Si21 1.680739 1_555
O93 Ta5 2.008258 1_555
O94 Si22 1.676820 1_555
O94 Ta5 2.008144 1_455
O95 Si23 1.671651 1_555
O95 Ta6 2.027261 1_555
O96 Si10 1.610388 1_555
O97 Si11 1.609965 1_555
O98 Si6 1.606810 1_555
O99 Si7 1.608603 1_555
O100 Si9 1.607845 1_555
O101 Si8 1.607231 1_555
O102 Si2 1.618558 1_555
O103 Si3 1.607722 1_555
O104 Si5 1.617974 1_555
O105 Si4 1.605250 1_555
O106 Si0 1.602751 1_555
O107 Si1 1.621662 1_555
O108 Si24 1.632799 1_555
O108 Ta7 1.989044 1_555
O109 Si25 1.633552 1_555
O109 Ta8 1.987113 1_555
O110 Si27 1.650441 1_555
O110 Ta7 2.026738 1_555
O111 Si26 1.650877 1_655
O111 Ta8 2.026996 1_555
O112 Si28 1.649618 1_545
O112 Ta7 2.045581 1_555
O113 Si29 1.650912 1_545
O113 Ta8 2.042796 1_555
O114 Si30 1.659606 1_545
O114 Ta9 1.990990 1_555
O115 Si31 1.647266 1_545
O115 Ta10 2.014408 1_555
O116 Si32 1.659613 1_555
O116 Ta9 2.007532 1_555
O117 Si33 1.665032 1_555
O117 Ta10 2.056446 1_555
O118 Si35 1.659734 1_555
O118 Ta9 2.047545 1_555
O119 Si34 1.664610 1_655
O119 Ta10 1.993702 1_555
O120 Si22 1.621048 1_555
O121 Si23 1.621096 1_555
O122 Si19 1.619494 1_455
O123 Si18 1.620661 1_555
O124 Si20 1.623886 1_565
O125 Si21 1.621292 1_565
O126 Si14 1.616447 1_565
O127 Si15 1.620869 1_565
O128 Si16 1.619338 1_555
O129 Si17 1.619242 1_555
O130 Si13 1.615079 1_455
O131 Si12 1.621936 1_555
O132 Si0 1.648908 1_565
O132 Ta11 2.046702 1_555
O133 Si1 1.671972 1_565
O133 Ta12 2.030101 1_555
O134 Si2 1.670860 1_555
O134 Ta11 2.033438 1_555
O135 Si3 1.652797 1_555
O135 Ta12 2.044036 1_555
O136 Si4 1.648283 1_455
O136 Ta11 2.057757 1_555
O137 Si5 1.672826 1_555
O137 Ta12 2.017617 1_555
O138 Si6 1.650181 1_555
O138 Ta13 2.054745 1_555
O139 Si7 1.651325 1_555
O139 Ta14 2.054285 1_555
O140 Si8 1.650502 1_455
O140 Ta13 2.058071 1_555
O141 Si9 1.652270 1_555
O141 Ta14 2.055953 1_555
O142 Si10 1.654102 1_565
O142 Ta13 2.058975 1_555
O143 Si11 1.652550 1_565
O143 Ta14 2.061985 1_555
