# generated using pymatgen
data_Na3ReO5
_symmetry_space_group_name_H-M   'P 1'
_cell_length_a   5.48409375
_cell_length_b   5.48412176
_cell_length_c   13.57794765
_cell_angle_alpha   89.99765512
_cell_angle_beta   90.00098744
_cell_angle_gamma   120.00221124
_symmetry_Int_Tables_number   1
_chemical_formula_structural   Na3ReO5
_chemical_formula_sum   'Na9 Re3 O15'
_cell_volume   353.64460988
_cell_formula_units_Z   3
loop_
 _symmetry_equiv_pos_site_id
 _symmetry_equiv_pos_as_xyz
  1  'x, y, z'
loop_
 _atom_site_type_symbol
 _atom_site_label
 _atom_site_symmetry_multiplicity
 _atom_site_fract_x
 _atom_site_fract_y
 _atom_site_fract_z
 _atom_site_occupancy
  Na  Na0  1  0.62315792  0.92601268  0.58269178  1
  Na  Na1  1  0.30270912  0.37676805  0.24937083  1
  Na  Na2  1  0.07412262  0.69729288  0.91603655  1
  Na  Na3  1  0.69718998  0.07397868  0.08396907  1
  Na  Na4  1  0.37682943  0.30272578  0.75063196  1
  Na  Na5  1  0.92592321  0.62315185  0.41729978  1
  Na  Na6  1  0.99986527  0.72284911  0.16665937  1
  Na  Na7  1  0.72312493  0.00025233  0.83330938  1
  Na  Na8  1  0.27691182  0.27727699  0.50003024  1
  Re  Re0  1  0.00002381  0.62316597  0.66665881  1
  Re  Re1  1  0.62304337  -0.00007776  0.33331902  1
  Re  Re2  1  0.37696929  0.37687210  0.00003266  1
  O  O0  1  0.16363870  0.50513772  0.06314005  1
  O  O1  1  0.34158463  0.83641466  0.72977807  1
  O  O2  1  0.49482631  0.65841254  0.39644075  1
  O  O3  1  -0.00000181  0.29740979  0.66666166  1
  O  O4  1  0.29735777  0.99990822  0.33331086  1
  O  O5  1  0.70266831  0.70258701  0.00002595  1
  O  O6  1  0.65844559  0.49486065  0.60352879  1
  O  O7  1  0.83638153  0.34149549  0.27020317  1
  O  O8  1  0.50521302  0.16360974  0.93690735  1
  O  O9  1  0.32410647  0.15922620  0.10814785  1
  O  O10  1  0.83519118  0.67589750  0.77479544  1
  O  O11  1  0.84064339  0.16476004  0.44144969  1
  O  O12  1  0.16485804  0.84077497  0.55852071  1
  O  O13  1  0.15937584  0.32412521  0.89188277  1
  O  O14  1  0.67584129  0.83511159  0.22519947  1
loop_
_geom_bond_atom_site_label_1
_geom_bond_atom_site_label_2
_geom_bond_distance
_geom_bond_site_symmetry_2
Na0 O11 2.291916 1_565
Na0 O12 2.338424 1_555
Na0 O3 2.347321 1_665
Na0 O1 2.419848 1_555
Na0 O6 2.483115 1_555
Na1 O9 2.292195 1_555
Na1 O14 2.338653 1_555
Na1 O4 2.347433 1_545
Na1 O2 2.419942 1_555
Na1 O7 2.482525 1_455
Na2 O10 2.292315 1_455
Na2 O13 2.339067 1_555
Na2 O5 2.347409 1_456
Na2 O0 2.420354 1_556
Na2 O8 2.482573 1_565
Na3 O14 2.292036 1_545
Na3 O9 2.338631 1_555
Na3 O5 2.347287 1_545
Na3 O8 2.419636 1_554
Na3 O0 2.483058 1_655
Na4 O13 2.292226 1_555
Na4 O10 2.338785 1_555
Na4 O3 2.347593 1_555
Na4 O6 2.420207 1_555
Na4 O1 2.482557 1_545
Na5 O12 2.292221 1_655
Na5 O11 2.338800 1_555
Na5 O4 2.347282 1_655
Na5 O7 2.420288 1_555
Na5 O2 2.482762 1_555
Na6 O14 2.294049 1_555
Na6 O9 2.294428 1_665
Na6 O7 2.297595 1_555
Na6 O0 2.297925 1_655
Na6 O5 2.758013 1_555
Na6 O4 2.758922 1_655
Na7 O13 2.293782 1_655
Na7 O10 2.294885 1_545
Na7 O8 2.297875 1_555
Na7 O1 2.298133 1_545
Na7 O3 2.757979 1_655
Na7 O5 2.760105 1_546
Na8 O11 2.293731 1_455
Na8 O12 2.295102 1_545
Na8 O2 2.297206 1_555
Na8 O6 2.297795 1_555
Na8 O3 2.757750 1_555
Na8 O4 2.760729 1_545
O0 Re2 1.849553 1_555
O1 Re0 1.849364 1_555
O2 Re1 1.849201 1_565
O3 Re0 1.786416 1_555
O4 Re1 1.786052 1_565
O5 Re2 1.786152 1_555
O6 Re0 1.849521 1_655
O7 Re1 1.849425 1_555
O8 Re2 1.849282 1_556
O9 Re2 1.821403 1_555
O10 Re0 1.821567 1_655
O11 Re1 1.821553 1_555
O12 Re0 1.821613 1_555
O13 Re2 1.821749 1_556
O14 Re1 1.821472 1_565
