# generated using pymatgen
data_Na4Si3SnGeO12
_symmetry_space_group_name_H-M   'P 1'
_cell_length_a   8.94351204
_cell_length_b   8.94351174
_cell_length_c   22.11945874
_cell_angle_alpha   90.00000000
_cell_angle_beta   90.00000000
_cell_angle_gamma   120.00000111
_symmetry_Int_Tables_number   1
_chemical_formula_structural   Na4Si3SnGeO12
_chemical_formula_sum   'Na24 Si18 Sn6 Ge6 O72'
_cell_volume   1532.22061055
_cell_formula_units_Z   6
loop_
 _symmetry_equiv_pos_site_id
 _symmetry_equiv_pos_as_xyz
  1  'x, y, z'
loop_
 _atom_site_type_symbol
 _atom_site_label
 _atom_site_symmetry_multiplicity
 _atom_site_fract_x
 _atom_site_fract_y
 _atom_site_fract_z
 _atom_site_occupancy
  Na  Na0  1  0.63369447  0.00007628  0.24977476  1
  Na  Na1  1  0.36638181  0.36630553  0.24977476  1
  Na  Na2  1  0.99992372  0.63361819  0.24977476  1
  Na  Na3  1  0.63129602  0.63369507  0.75097103  1
  Na  Na4  1  0.00239905  0.36870398  0.75097103  1
  Na  Na5  1  0.36630493  0.99760095  0.75097103  1
  Na  Na6  1  0.30052460  0.33339738  0.58336048  1
  Na  Na7  1  0.03287378  0.69947540  0.58336048  1
  Na  Na8  1  0.66660262  0.96712622  0.58336048  1
  Na  Na9  1  0.29902942  0.96397229  0.08255312  1
  Na  Na10  1  0.66494387  0.70097058  0.08255312  1
  Na  Na11  1  0.03602771  0.33505613  0.08255312  1
  Na  Na12  1  0.96445292  0.66651609  0.91683588  1
  Na  Na13  1  0.70206217  0.03554708  0.91683588  1
  Na  Na14  1  0.33348391  0.29793783  0.91683588  1
  Na  Na15  1  0.96672683  0.29922561  0.41647785  1
  Na  Na16  1  0.33249778  0.03327317  0.41647785  1
  Na  Na17  1  0.70077439  0.66750222  0.41647785  1
  Na  Na18  1  -0.00000000  -0.00000000  0.49993516  1
  Na  Na19  1  -0.00000000  -0.00000000  0.99862979  1
  Na  Na20  1  0.66666700  0.33333300  0.83498167  1
  Na  Na21  1  0.66666700  0.33333300  0.33178046  1
  Na  Na22  1  0.33333300  0.66666700  0.16655172  1
  Na  Na23  1  0.33333300  0.66666700  0.66802162  1
  Si  Si0  1  0.30022165  0.00029548  0.24962241  1
  Si  Si1  1  0.70007383  0.69977835  0.24962241  1
  Si  Si2  1  0.99970452  0.29992617  0.24962241  1
  Si  Si3  1  0.28746254  0.29342711  0.75395438  1
  Si  Si4  1  0.00596457  0.71253746  0.75395438  1
  Si  Si5  1  0.70657289  0.99403543  0.75395438  1
  Si  Si6  1  0.96013660  0.33311917  0.58351891  1
  Si  Si7  1  0.37298357  0.03986340  0.58351891  1
  Si  Si8  1  0.66688083  0.62701643  0.58351891  1
  Si  Si9  1  0.95302670  0.61471818  0.08175138  1
  Si  Si10  1  0.66169249  0.04697330  0.08175138  1
  Si  Si11  1  0.38528182  0.33830751  0.08175138  1
  Si  Si12  1  0.62028209  0.66650375  0.91680903  1
  Si  Si13  1  0.04622066  0.37971791  0.91680903  1
  Si  Si14  1  0.33349625  0.95377934  0.91680903  1
  Si  Si15  1  0.62118145  0.95352628  0.41436883  1
  Si  Si16  1  0.33234383  0.37881855  0.41436883  1
  Si  Si17  1  0.04647372  0.66765617  0.41436883  1
  Sn  Sn0  1  -0.00000000  -0.00000000  0.35040864  1
  Sn  Sn1  1  -0.00000000  -0.00000000  0.64990442  1
  Sn  Sn2  1  -0.00000000  -0.00000000  0.14745202  1
  Sn  Sn3  1  0.66666700  0.33333300  0.68734069  1
  Sn  Sn4  1  0.66666700  0.33333300  0.47980874  1
  Sn  Sn5  1  0.33333300  0.66666700  0.51827010  1
  Ge  Ge0  1  -0.00000000  -0.00000000  0.85339819  1
  Ge  Ge1  1  0.66666700  0.33333300  0.18460735  1
  Ge  Ge2  1  0.66666700  0.33333300  0.98062595  1
  Ge  Ge3  1  0.33333300  0.66666700  0.01810363  1
  Ge  Ge4  1  0.33333300  0.66666700  0.31366927  1
  Ge  Ge5  1  0.33333300  0.66666700  0.81588985  1
  O  O0  1  0.22267032  0.04718188  0.30870792  1
  O  O1  1  0.82451156  0.77732968  0.30870792  1
  O  O2  1  0.95281812  0.17548844  0.30870792  1
  O  O3  1  0.19839382  0.16112088  0.81110895  1
  O  O4  1  0.96272706  0.80160618  0.81110895  1
  O  O5  1  0.83887912  0.03727294  0.81110895  1
  O  O6  1  0.77855305  0.95274401  0.69205200  1
  O  O7  1  0.17419096  0.22144695  0.69205200  1
  O  O8  1  0.04725599  0.82580904  0.69205200  1
  O  O9  1  0.77865451  0.82574309  0.19068923  1
  O  O10  1  0.04708858  0.22134549  0.19068923  1
  O  O11  1  0.17425691  0.95291142  0.19068923  1
  O  O12  1  0.88275048  0.37685929  0.64344245  1
  O  O13  1  0.49410982  0.11724952  0.64344245  1
  O  O14  1  0.62314071  0.50589018  0.64344245  1
  O  O15  1  0.86919016  0.49520940  0.14254975  1
  O  O16  1  0.62602024  0.13080984  0.14254975  1
  O  O17  1  0.50479060  0.37397976  0.14254975  1
  O  O18  1  0.46862616  0.29626421  0.02268180  1
  O  O19  1  0.82763905  0.53137384  0.02268180  1
  O  O20  1  0.70373579  0.17236095  0.02268180  1
  O  O21  1  0.45003552  0.16047173  0.52332271  1
  O  O22  1  0.71043721  0.54996448  0.52332271  1
  O  O23  1  0.83952827  0.28956279  0.52332271  1
  O  O24  1  0.53571259  0.70697823  0.97646734  1
  O  O25  1  0.17126465  0.46428741  0.97646734  1
  O  O26  1  0.29302177  0.82873535  0.97646734  1
  O  O27  1  0.55025242  0.84020218  0.47569437  1
  O  O28  1  0.28994876  0.44974758  0.47569437  1
  O  O29  1  0.15979782  0.71005124  0.47569437  1
  O  O30  1  0.13483320  0.62907921  0.35593485  1
  O  O31  1  0.49424500  0.86516680  0.35593485  1
  O  O32  1  0.37092079  0.50575500  0.35593485  1
  O  O33  1  0.13057419  0.50397916  0.85740308  1
  O  O34  1  0.37340397  0.86942581  0.85740308  1
  O  O35  1  0.49602084  0.62659603  0.85740308  1
  O  O36  1  0.02523962  0.83848349  0.41114273  1
  O  O37  1  0.81324387  0.97476038  0.41114273  1
  O  O38  1  0.16151651  0.18675613  0.41114273  1
  O  O39  1  0.02600783  0.18527274  0.90984871  1
  O  O40  1  0.15926491  0.97399217  0.90984871  1
  O  O41  1  0.81472726  0.84073509  0.90984871  1
  O  O42  1  0.97659189  0.16001379  0.58747560  1
  O  O43  1  0.18342190  0.02340811  0.58747560  1
  O  O44  1  0.83998621  0.81657810  0.58747560  1
  O  O45  1  0.97330612  0.80804423  0.08645133  1
  O  O46  1  0.83473811  0.02669388  0.08645133  1
  O  O47  1  0.19195577  0.16526189  0.08645133  1
  O  O48  1  0.69102114  0.16884524  0.74889372  1
  O  O49  1  0.47782511  0.30897886  0.74889372  1
  O  O50  1  0.83115476  0.52217489  0.74889372  1
  O  O51  1  0.68619244  0.51024036  0.24168292  1
  O  O52  1  0.82404892  0.31380756  0.24168292  1
  O  O53  1  0.48975964  0.17595108  0.24168292  1
  O  O54  1  0.64089746  0.49273104  0.92372867  1
  O  O55  1  0.85183459  0.35910254  0.92372867  1
  O  O56  1  0.50726896  0.14816541  0.92372867  1
  O  O57  1  0.63864790  0.14467012  0.41801250  1
  O  O58  1  0.50602322  0.36135210  0.41801250  1
  O  O59  1  0.85532988  0.49397678  0.41801250  1
  O  O60  1  0.36255184  0.51086793  0.07568820  1
  O  O61  1  0.14831509  0.63744816  0.07568820  1
  O  O62  1  0.48913207  0.85168491  0.07568820  1
  O  O63  1  0.35645232  0.85061566  0.57981962  1
  O  O64  1  0.49416234  0.64354768  0.57981962  1
  O  O65  1  0.14938434  0.50583766  0.57981962  1
  O  O66  1  0.31380031  0.82446194  0.25756329  1
  O  O67  1  0.51066064  0.68619969  0.25756329  1
  O  O68  1  0.17553806  0.48933936  0.25756329  1
  O  O69  1  0.30823150  0.48654006  0.75984712  1
  O  O70  1  0.17830757  0.69176850  0.75984712  1
  O  O71  1  0.51345994  0.82169243  0.75984712  1
loop_
_geom_bond_atom_site_label_1
_geom_bond_atom_site_label_2
_geom_bond_distance
_geom_bond_site_symmetry_2
Na0 O52 2.454868 1_555
Na0 O67 2.455958 1_545
Na0 O53 2.487586 1_555
Na0 O66 2.487611 1_545
Na0 O31 2.649622 1_545
Na0 O16 2.660314 1_555
Na0 O2 2.797989 1_555
Na0 O9 2.800213 1_545
Na1 O53 2.454875 1_555
Na1 O68 2.455967 1_555
Na1 O51 2.487594 1_555
Na1 O67 2.487611 1_555
Na1 O32 2.649624 1_555
Na1 O17 2.660318 1_555
Na1 O0 2.797989 1_555
Na1 O10 2.800213 1_555
Na2 O51 2.454867 1_555
Na2 O66 2.455959 1_655
Na2 O52 2.487594 1_555
Na2 O68 2.487603 1_655
Na2 O30 2.649620 1_655
Na2 O15 2.660316 1_555
Na2 O1 2.797989 1_555
Na2 O11 2.800213 1_655
Na3 O71 2.397514 1_555
Na3 O50 2.444295 1_555
Na3 O69 2.513217 1_555
Na3 O49 2.516702 1_555
Na3 O14 2.624042 1_555
Na3 O35 2.633110 1_555
Na3 O6 2.795892 1_555
Na3 O4 2.891287 1_555
Na4 O69 2.397506 1_555
Na4 O48 2.444288 1_455
Na4 O70 2.513216 1_555
Na4 O50 2.516694 1_455
Na4 O12 2.624038 1_455
Na4 O33 2.633108 1_555
Na4 O7 2.795892 1_555
Na4 O5 2.891287 1_455
Na5 O70 2.397507 1_555
Na5 O49 2.444287 1_565
Na5 O71 2.513209 1_555
Na5 O48 2.516702 1_565
Na5 O13 2.624040 1_565
Na5 O34 2.633106 1_555
Na5 O8 2.795892 1_555
Na5 O3 2.891287 1_565
Na6 O43 2.426469 1_555
Na6 O64 2.428104 1_555
Na6 O65 2.509263 1_555
Na6 O42 2.512685 1_455
Na6 O28 2.619503 1_555
Na6 O7 2.632104 1_555
Na6 O21 2.830444 1_555
Na6 O14 2.831961 1_555
Na7 O44 2.426477 1_455
Na7 O65 2.428090 1_555
Na7 O63 2.509247 1_555
Na7 O43 2.512685 1_565
Na7 O29 2.619495 1_555
Na7 O8 2.632105 1_555
Na7 O22 2.830444 1_455
Na7 O12 2.831961 1_455
Na8 O42 2.426470 1_565
Na8 O63 2.428107 1_555
Na8 O64 2.509248 1_555
Na8 O44 2.512677 1_555
Na8 O27 2.619498 1_555
Na8 O6 2.632102 1_555
Na8 O23 2.830444 1_565
Na8 O13 2.831961 1_565
Na9 O62 2.372676 1_555
Na9 O47 2.426776 1_565
Na9 O45 2.525062 1_455
Na9 O61 2.536069 1_555
Na9 O11 2.620283 1_555
Na9 O26 2.628140 1_554
Na9 O16 2.859433 1_565
Na9 O18 2.894603 1_565
Na10 O60 2.372690 1_555
Na10 O45 2.426768 1_555
Na10 O46 2.525062 1_565
Na10 O62 2.536085 1_555
Na10 O9 2.620282 1_555
Na10 O24 2.628148 1_554
Na10 O17 2.859433 1_555
Na10 O19 2.894603 1_555
Na11 O61 2.372693 1_555
Na11 O46 2.426769 1_455
Na11 O47 2.525054 1_555
Na11 O60 2.536070 1_555
Na11 O10 2.620280 1_555
Na11 O25 2.628144 1_554
Na11 O15 2.859433 1_455
Na11 O20 2.894603 1_455
Na12 O55 2.414023 1_555
Na12 O40 2.414613 1_655
Na12 O54 2.512966 1_555
Na12 O41 2.516192 1_555
Na12 O4 2.635857 1_555
Na12 O19 2.638293 1_556
Na12 O33 2.865023 1_655
Na12 O26 2.866442 1_655
Na13 O56 2.414006 1_555
Na13 O41 2.414620 1_545
Na13 O55 2.512965 1_555
Na13 O39 2.516200 1_655
Na13 O5 2.635861 1_555
Na13 O20 2.638289 1_556
Na13 O34 2.865023 1_545
Na13 O24 2.866442 1_545
Na14 O54 2.414020 1_555
Na14 O39 2.414612 1_555
Na14 O56 2.512981 1_555
Na14 O40 2.516199 1_545
Na14 O3 2.635859 1_555
Na14 O18 2.638297 1_556
Na14 O35 2.865023 1_555
Na14 O25 2.866442 1_555
Na15 O59 2.400569 1_555
Na15 O38 2.411009 1_655
Na15 O37 2.517069 1_545
Na15 O57 2.542714 1_555
Na15 O2 2.604811 1_555
Na15 O23 2.605517 1_555
Na15 O28 2.827152 1_655
Na15 O30 2.884667 1_655
Na16 O57 2.400586 1_555
Na16 O36 2.411002 1_545
Na16 O38 2.517061 1_555
Na16 O58 2.542715 1_555
Na16 O0 2.604807 1_555
Na16 O21 2.605521 1_555
Na16 O29 2.827152 1_545
Na16 O31 2.884667 1_545
Na17 O58 2.400583 1_555
Na17 O37 2.411001 1_555
Na17 O36 2.517069 1_655
Na17 O59 2.542730 1_555
Na17 O1 2.604809 1_555
Na17 O22 2.605525 1_555
Na17 O27 2.827152 1_555
Na17 O32 2.884667 1_555
Na18 O44 2.478078 1_445
Na18 O42 2.478078 1_455
Na18 O43 2.478078 1_555
Na18 O38 2.514187 1_555
Na18 O36 2.514187 1_545
Na18 O37 2.514187 1_445
Na19 O39 2.504150 1_555
Na19 O41 2.504150 1_445
Na19 O40 2.504150 1_545
Na19 O45 2.523482 1_446
Na19 O47 2.523482 1_556
Na19 O46 2.523482 1_456
Na20 O50 2.481540 1_555
Na20 O49 2.481541 1_555
Na20 O48 2.481541 1_555
Na20 O54 2.503488 1_555
Na20 O56 2.503488 1_555
Na20 O55 2.503488 1_555
Na21 O57 2.474911 1_555
Na21 O59 2.474911 1_555
Na21 O58 2.474911 1_555
Na21 O51 2.495829 1_555
Na21 O53 2.495829 1_555
Na21 O52 2.495829 1_555
Na22 O66 2.514225 1_555
Na22 O68 2.514225 1_555
Na22 O67 2.514225 1_555
Na22 O62 2.532479 1_555
Na22 O60 2.532479 1_555
Na22 O61 2.532479 1_555
Na23 O63 2.493075 1_555
Na23 O65 2.493075 1_555
Na23 O64 2.493075 1_555
Na23 O70 2.531689 1_555
Na23 O71 2.531689 1_555
Na23 O69 2.531689 1_555
Ge0 O4 1.882265 1_445
Ge0 O3 1.882265 1_555
Ge0 O5 1.882265 1_455
Ge0 O39 1.993348 1_555
Ge0 O41 1.993348 1_445
Ge0 O40 1.993348 1_545
Ge1 O16 1.902589 1_555
Ge1 O15 1.902589 1_555
Ge1 O17 1.902589 1_555
Ge1 O51 1.962482 1_555
Ge1 O53 1.962482 1_555
Ge1 O52 1.962482 1_555
Ge2 O19 1.877543 1_556
Ge2 O20 1.877543 1_556
Ge2 O18 1.877543 1_556
Ge2 O54 1.999465 1_555
Ge2 O56 1.999465 1_555
Ge2 O55 1.999465 1_555
Ge3 O26 1.897806 1_554
Ge3 O25 1.897806 1_554
Ge3 O24 1.897806 1_554
Ge3 O62 1.999089 1_555
Ge3 O60 1.999089 1_555
Ge3 O61 1.999089 1_555
Ge4 O32 1.881987 1_555
Ge4 O31 1.881987 1_555
Ge4 O30 1.881987 1_555
Ge4 O66 1.951618 1_555
Ge4 O68 1.951618 1_555
Ge4 O67 1.951618 1_555
Ge5 O34 1.900021 1_555
Ge5 O33 1.900021 1_555
Ge5 O35 1.900021 1_555
Ge5 O70 1.954649 1_555
Ge5 O71 1.954649 1_555
Ge5 O69 1.954649 1_555
O0 Si0 1.629669 1_555
O0 Sn0 2.038242 1_555
O1 Si1 1.629669 1_555
O1 Sn0 2.038242 1_665
O2 Si2 1.629669 1_555
O2 Sn0 2.038242 1_655
O3 Si3 1.640242 1_555
O4 Si4 1.640242 1_655
O5 Si5 1.640242 1_545
O6 Si5 1.631982 1_555
O6 Sn1 2.033020 1_665
O7 Si3 1.631982 1_555
O7 Sn1 2.033020 1_555
O8 Si4 1.631982 1_555
O8 Sn1 2.033020 1_565
O9 Si1 1.634204 1_555
O9 Sn2 2.043815 1_665
O10 Si2 1.634204 1_455
O10 Sn2 2.043815 1_555
O11 Si0 1.634204 1_565
O11 Sn2 2.043815 1_565
O12 Si6 1.630849 1_555
O12 Sn3 2.019114 1_555
O13 Si7 1.630849 1_555
O13 Sn3 2.019114 1_555
O14 Si8 1.630849 1_555
O14 Sn3 2.019114 1_555
O15 Si9 1.646737 1_555
O16 Si10 1.646737 1_555
O17 Si11 1.646737 1_555
O18 Si11 1.638427 1_555
O19 Si9 1.638427 1_555
O20 Si10 1.638427 1_555
O21 Si7 1.633396 1_555
O21 Sn4 2.018644 1_555
O22 Si8 1.633396 1_555
O22 Sn4 2.018644 1_555
O23 Si6 1.633396 1_555
O23 Sn4 2.018644 1_555
O24 Si12 1.648712 1_555
O25 Si13 1.648712 1_555
O26 Si14 1.648712 1_555
O27 Si15 1.620725 1_555
O27 Sn5 2.012060 1_555
O28 Si16 1.620725 1_555
O28 Sn5 2.012060 1_555
O29 Si17 1.620725 1_555
O29 Sn5 2.012060 1_555
O30 Si17 1.639144 1_555
O31 Si15 1.639144 1_555
O32 Si16 1.639144 1_555
O33 Si13 1.640873 1_555
O34 Si14 1.640873 1_555
O35 Si12 1.640873 1_555
O36 Si17 1.632623 1_555
O36 Sn0 2.066015 1_565
O37 Si15 1.632632 1_555
O37 Sn0 2.066015 1_665
O38 Si16 1.632628 1_555
O38 Sn0 2.066015 1_555
O39 Si13 1.663193 1_555
O40 Si14 1.663185 1_555
O41 Si12 1.663190 1_555
O42 Si6 1.629107 1_555
O42 Sn1 2.073233 1_655
O43 Si7 1.629116 1_555
O43 Sn1 2.073233 1_555
O44 Si8 1.629112 1_555
O44 Sn1 2.073233 1_665
O45 Si9 1.649121 1_555
O45 Sn2 2.101195 1_665
O46 Si10 1.649112 1_555
O46 Sn2 2.101195 1_655
O47 Si11 1.649118 1_555
O47 Sn2 2.101195 1_555
O48 Si5 1.641216 1_545
O48 Sn3 2.094213 1_555
O49 Si3 1.641225 1_555
O49 Sn3 2.094213 1_555
O50 Si4 1.641221 1_655
O50 Sn3 2.094213 1_555
O51 Si1 1.645992 1_555
O52 Si2 1.645983 1_555
O53 Si0 1.645988 1_555
O54 Si12 1.661117 1_555
O55 Si13 1.661099 1_655
O56 Si14 1.661106 1_545
O57 Si15 1.638974 1_545
O57 Sn4 2.086959 1_555
O58 Si16 1.638992 1_555
O58 Sn4 2.086959 1_555
O59 Si17 1.638982 1_655
O59 Sn4 2.086959 1_555
O60 Si11 1.659761 1_555
O61 Si9 1.659743 1_455
O62 Si10 1.659750 1_565
O63 Si7 1.625733 1_565
O63 Sn5 2.064612 1_555
O64 Si8 1.625750 1_555
O64 Sn5 2.064612 1_555
O65 Si6 1.625740 1_455
O65 Sn5 2.064612 1_555
O66 Si0 1.646071 1_565
O67 Si1 1.646080 1_555
O68 Si2 1.646076 1_455
O69 Si3 1.647297 1_555
O70 Si4 1.647288 1_555
O71 Si5 1.647293 1_555
