# generated using pymatgen
data_MgTe4(MoS)4
_symmetry_space_group_name_H-M   'P 1'
_cell_length_a   6.70692801
_cell_length_b   6.70661249
_cell_length_c   75.87128805
_cell_angle_alpha   89.99625439
_cell_angle_beta   90.00405786
_cell_angle_gamma   119.99868083
_symmetry_Int_Tables_number   1
_chemical_formula_structural   MgTe4(MoS)4
_chemical_formula_sum   'Mg8 Te32 Mo32 S32'
_cell_volume   2955.56638402
_cell_formula_units_Z   8
loop_
 _symmetry_equiv_pos_site_id
 _symmetry_equiv_pos_as_xyz
  1  'x, y, z'
loop_
 _atom_site_type_symbol
 _atom_site_label
 _atom_site_symmetry_multiplicity
 _atom_site_fract_x
 _atom_site_fract_y
 _atom_site_fract_z
 _atom_site_occupancy
  Mg  Mg0_0  1  0.16821150  0.31975800  0.43782950  1
  Mg  Mg0_1  1  0.16821150  0.31975800  0.93782950  1
  Mg  Mg0_2  1  0.16821150  0.81975800  0.43782950  1
  Mg  Mg0_3  1  0.16821150  0.81975800  0.93782950  1
  Mg  Mg0_4  1  0.66821150  0.31975800  0.43782950  1
  Mg  Mg0_5  1  0.66821150  0.31975800  0.93782950  1
  Mg  Mg0_6  1  0.66821150  0.81975800  0.43782950  1
  Mg  Mg0_7  1  0.66821150  0.81975800  0.93782950  1
  Te  Te0_0  1  0.16669600  0.33331350  0.35378000  1
  Te  Te0_1  1  0.16669600  0.33331350  0.85378000  1
  Te  Te0_2  1  0.16669600  0.83331350  0.35378000  1
  Te  Te0_3  1  0.16669600  0.83331350  0.85378000  1
  Te  Te0_4  1  0.66669600  0.33331350  0.35378000  1
  Te  Te0_5  1  0.66669600  0.33331350  0.85378000  1
  Te  Te0_6  1  0.66669600  0.83331350  0.35378000  1
  Te  Te0_7  1  0.66669600  0.83331350  0.85378000  1
  Te  Te1_0  1  0.33332850  0.16664900  0.02192200  1
  Te  Te1_1  1  0.33332850  0.16664900  0.52192200  1
  Te  Te1_2  1  0.33332850  0.66664900  0.02192200  1
  Te  Te1_3  1  0.33332850  0.66664900  0.52192200  1
  Te  Te1_4  1  0.83332850  0.16664900  0.02192200  1
  Te  Te1_5  1  0.83332850  0.16664900  0.52192200  1
  Te  Te1_6  1  0.83332850  0.66664900  0.02192200  1
  Te  Te1_7  1  0.83332850  0.66664900  0.52192200  1
  Te  Te2_0  1  0.33335400  0.16663950  0.07178950  1
  Te  Te2_1  1  0.33335400  0.16663950  0.57178950  1
  Te  Te2_2  1  0.33335400  0.66663950  0.07178950  1
  Te  Te2_3  1  0.33335400  0.66663950  0.57178950  1
  Te  Te2_4  1  0.83335400  0.16663950  0.07178950  1
  Te  Te2_5  1  0.83335400  0.16663950  0.57178950  1
  Te  Te2_6  1  0.83335400  0.66663950  0.07178950  1
  Te  Te2_7  1  0.83335400  0.66663950  0.57178950  1
  Te  Te3_0  1  0.16668350  0.33334450  0.30393150  1
  Te  Te3_1  1  0.16668350  0.33334450  0.80393150  1
  Te  Te3_2  1  0.16668350  0.83334450  0.30393150  1
  Te  Te3_3  1  0.16668350  0.83334450  0.80393150  1
  Te  Te3_4  1  0.66668350  0.33334450  0.30393150  1
  Te  Te3_5  1  0.66668350  0.33334450  0.80393150  1
  Te  Te3_6  1  0.66668350  0.83334450  0.30393150  1
  Te  Te3_7  1  0.66668350  0.83334450  0.80393150  1
  Mo  Mo0_0  1  0.16666700  0.33330800  0.04682900  1
  Mo  Mo0_1  1  0.16666700  0.33330800  0.54682900  1
  Mo  Mo0_2  1  0.16666700  0.83330800  0.04682900  1
  Mo  Mo0_3  1  0.16666700  0.83330800  0.54682900  1
  Mo  Mo0_4  1  0.66666700  0.33330800  0.04682900  1
  Mo  Mo0_5  1  0.66666700  0.33330800  0.54682900  1
  Mo  Mo0_6  1  0.66666700  0.83330800  0.04682900  1
  Mo  Mo0_7  1  0.66666700  0.83330800  0.54682900  1
  Mo  Mo1_0  1  0.16666900  0.33330200  0.23475700  1
  Mo  Mo1_1  1  0.16666900  0.33330200  0.73475700  1
  Mo  Mo1_2  1  0.16666900  0.83330200  0.23475700  1
  Mo  Mo1_3  1  0.16666900  0.83330200  0.73475700  1
  Mo  Mo1_4  1  0.66666900  0.33330200  0.23475700  1
  Mo  Mo1_5  1  0.66666900  0.33330200  0.73475700  1
  Mo  Mo1_6  1  0.66666900  0.83330200  0.23475700  1
  Mo  Mo1_7  1  0.66666900  0.83330200  0.73475700  1
  Mo  Mo2_0  1  0.33335700  0.16667800  0.14090700  1
  Mo  Mo2_1  1  0.33335700  0.16667800  0.64090700  1
  Mo  Mo2_2  1  0.33335700  0.66667800  0.14090700  1
  Mo  Mo2_3  1  0.33335700  0.66667800  0.64090700  1
  Mo  Mo2_4  1  0.83335700  0.16667800  0.14090700  1
  Mo  Mo2_5  1  0.83335700  0.16667800  0.64090700  1
  Mo  Mo2_6  1  0.83335700  0.66667800  0.14090700  1
  Mo  Mo2_7  1  0.83335700  0.66667800  0.64090700  1
  Mo  Mo3_0  1  0.33335900  0.16666450  0.32887650  1
  Mo  Mo3_1  1  0.33335900  0.16666450  0.82887650  1
  Mo  Mo3_2  1  0.33335900  0.66666450  0.32887650  1
  Mo  Mo3_3  1  0.33335900  0.66666450  0.82887650  1
  Mo  Mo3_4  1  0.83335900  0.16666450  0.32887650  1
  Mo  Mo3_5  1  0.83335900  0.16666450  0.82887650  1
  Mo  Mo3_6  1  0.83335900  0.66666450  0.32887650  1
  Mo  Mo3_7  1  0.83335900  0.66666450  0.82887650  1
  S  S0_0  1  0.16669450  0.33333050  0.16087350  1
  S  S0_1  1  0.16669450  0.33333050  0.66087350  1
  S  S0_2  1  0.16669450  0.83333050  0.16087350  1
  S  S0_3  1  0.16669450  0.83333050  0.66087350  1
  S  S0_4  1  0.66669450  0.33333050  0.16087350  1
  S  S0_5  1  0.66669450  0.33333050  0.66087350  1
  S  S0_6  1  0.66669450  0.83333050  0.16087350  1
  S  S0_7  1  0.66669450  0.83333050  0.66087350  1
  S  S1_0  1  0.33333300  0.16664600  0.21482250  1
  S  S1_1  1  0.33333300  0.16664600  0.71482250  1
  S  S1_2  1  0.33333300  0.66664600  0.21482250  1
  S  S1_3  1  0.33333300  0.66664600  0.71482250  1
  S  S1_4  1  0.83333300  0.16664600  0.21482250  1
  S  S1_5  1  0.83333300  0.16664600  0.71482250  1
  S  S1_6  1  0.83333300  0.66664600  0.21482250  1
  S  S1_7  1  0.83333300  0.66664600  0.71482250  1
  S  S2_0  1  0.33335200  0.16663200  0.25469350  1
  S  S2_1  1  0.33335200  0.16663200  0.75469350  1
  S  S2_2  1  0.33335200  0.66663200  0.25469350  1
  S  S2_3  1  0.33335200  0.66663200  0.75469350  1
  S  S2_4  1  0.83335200  0.16663200  0.25469350  1
  S  S2_5  1  0.83335200  0.16663200  0.75469350  1
  S  S2_6  1  0.83335200  0.66663200  0.25469350  1
  S  S2_7  1  0.83335200  0.66663200  0.75469350  1
  S  S3_0  1  0.16667650  0.33335400  0.12093900  1
  S  S3_1  1  0.16667650  0.33335400  0.62093900  1
  S  S3_2  1  0.16667650  0.83335400  0.12093900  1
  S  S3_3  1  0.16667650  0.83335400  0.62093900  1
  S  S3_4  1  0.66667650  0.33335400  0.12093900  1
  S  S3_5  1  0.66667650  0.33335400  0.62093900  1
  S  S3_6  1  0.66667650  0.83335400  0.12093900  1
  S  S3_7  1  0.66667650  0.83335400  0.62093900  1
loop_
_geom_bond_atom_site_label_1
_geom_bond_atom_site_label_2
_geom_bond_distance
_geom_bond_site_symmetry_2
Mg0_0 Mg0_2 3.353306 1_545
Mg0_0 Mg0_2 3.353306 1_555
Mg0_0 Mg0_6 3.353452 1_555
Mg0_0 Mg0_6 3.353452 1_445
Mg0_0 Mg0_4 3.353464 1_555
Mg0_0 Mg0_4 3.353464 1_455
Mg0_1 Mg0_3 3.353306 1_555
Mg0_1 Mg0_3 3.353306 1_545
Mg0_1 Mg0_7 3.353452 1_555
Mg0_1 Mg0_7 3.353452 1_445
Mg0_1 Mg0_5 3.353464 1_555
Mg0_1 Mg0_5 3.353464 1_455
Mg0_2 Mg0_4 3.353452 1_565
Mg0_2 Mg0_4 3.353452 1_455
Mg0_2 Mg0_6 3.353464 1_455
Mg0_2 Mg0_6 3.353464 1_555
Mg0_3 Mg0_5 3.353452 1_455
Mg0_3 Mg0_5 3.353452 1_565
Mg0_3 Mg0_7 3.353464 1_555
Mg0_3 Mg0_7 3.353464 1_455
Mg0_4 Mg0_6 3.353306 1_555
Mg0_4 Mg0_6 3.353306 1_545
Mg0_5 Mg0_7 3.353306 1_555
Mg0_5 Mg0_7 3.353306 1_545
Mo0_0 Te1_2 2.705421 1_555
Mo0_0 Te1_4 2.705463 1_455
Mo0_0 Te1_0 2.705494 1_555
Mo0_0 Te2_0 2.708264 1_555
Mo0_0 Te2_2 2.708312 1_555
Mo0_0 Te2_4 2.708313 1_455
Mo0_1 Te1_3 2.705421 1_555
Mo0_1 Te1_5 2.705463 1_455
Mo0_1 Te1_1 2.705494 1_555
Mo0_1 Te2_1 2.708264 1_555
Mo0_1 Te2_3 2.708312 1_555
Mo0_1 Te2_5 2.708313 1_455
Mo0_2 Te1_0 2.705421 1_565
Mo0_2 Te1_6 2.705463 1_455
Mo0_2 Te1_2 2.705494 1_555
Mo0_2 Te2_2 2.708264 1_555
Mo0_2 Te2_0 2.708312 1_565
Mo0_2 Te2_6 2.708313 1_455
Mo0_3 Te1_1 2.705421 1_565
Mo0_3 Te1_7 2.705463 1_455
Mo0_3 Te1_3 2.705494 1_555
Mo0_3 Te2_3 2.708264 1_555
Mo0_3 Te2_1 2.708312 1_565
Mo0_3 Te2_7 2.708313 1_455
Mo0_4 Te1_6 2.705421 1_555
Mo0_4 Te1_0 2.705463 1_555
Mo0_4 Te1_4 2.705494 1_555
Mo0_4 Te2_4 2.708264 1_555
Mo0_4 Te2_6 2.708312 1_555
Mo0_4 Te2_0 2.708313 1_555
Mo0_5 Te1_7 2.705421 1_555
Mo0_5 Te1_1 2.705463 1_555
Mo0_5 Te1_5 2.705494 1_555
Mo0_5 Te2_5 2.708264 1_555
Mo0_5 Te2_7 2.708312 1_555
Mo0_5 Te2_1 2.708313 1_555
Mo0_6 Te1_4 2.705421 1_565
Mo0_6 Te1_2 2.705463 1_555
Mo0_6 Te1_6 2.705494 1_555
Mo0_6 Te2_6 2.708264 1_555
Mo0_6 Te2_4 2.708312 1_565
Mo0_6 Te2_2 2.708313 1_555
Mo0_7 Te1_5 2.705421 1_565
Mo0_7 Te1_3 2.705463 1_555
Mo0_7 Te1_7 2.705494 1_555
Mo0_7 Te2_7 2.708264 1_555
Mo0_7 Te2_5 2.708312 1_565
Mo0_7 Te2_3 2.708313 1_555
Mo1_0 S1_2 2.456803 1_555
Mo1_0 S1_4 2.456827 1_455
Mo1_0 S1_0 2.456834 1_555
Mo1_0 S2_0 2.456891 1_555
Mo1_0 S2_2 2.456915 1_555
Mo1_0 S2_4 2.456938 1_455
Mo1_1 S1_3 2.456803 1_555
Mo1_1 S1_5 2.456827 1_455
Mo1_1 S1_1 2.456834 1_555
Mo1_1 S2_1 2.456891 1_555
Mo1_1 S2_3 2.456915 1_555
Mo1_1 S2_5 2.456938 1_455
Mo1_2 S1_0 2.456803 1_565
Mo1_2 S1_6 2.456827 1_455
Mo1_2 S1_2 2.456834 1_555
Mo1_2 S2_2 2.456891 1_555
Mo1_2 S2_0 2.456915 1_565
Mo1_2 S2_6 2.456938 1_455
Mo1_3 S1_1 2.456803 1_565
Mo1_3 S1_7 2.456827 1_455
Mo1_3 S1_3 2.456834 1_555
Mo1_3 S2_3 2.456891 1_555
Mo1_3 S2_1 2.456915 1_565
Mo1_3 S2_7 2.456938 1_455
Mo1_4 S1_6 2.456803 1_555
Mo1_4 S1_0 2.456827 1_555
Mo1_4 S1_4 2.456834 1_555
Mo1_4 S2_4 2.456891 1_555
Mo1_4 S2_6 2.456915 1_555
Mo1_4 S2_0 2.456938 1_555
Mo1_5 S1_7 2.456803 1_555
Mo1_5 S1_1 2.456827 1_555
Mo1_5 S1_5 2.456834 1_555
Mo1_5 S2_5 2.456891 1_555
Mo1_5 S2_7 2.456915 1_555
Mo1_5 S2_1 2.456938 1_555
Mo1_6 S1_4 2.456803 1_565
Mo1_6 S1_2 2.456827 1_555
Mo1_6 S1_6 2.456834 1_555
Mo1_6 S2_6 2.456891 1_555
Mo1_6 S2_4 2.456915 1_565
Mo1_6 S2_2 2.456938 1_555
Mo1_7 S1_5 2.456803 1_565
Mo1_7 S1_3 2.456827 1_555
Mo1_7 S1_7 2.456834 1_555
Mo1_7 S2_7 2.456891 1_555
Mo1_7 S2_5 2.456915 1_565
Mo1_7 S2_3 2.456938 1_555
Mo2_0 S0_0 2.458306 1_555
Mo2_0 S0_2 2.458314 1_545
Mo2_0 S0_4 2.458329 1_555
Mo2_0 S3_2 2.458360 1_545
Mo2_0 S3_0 2.458379 1_555
Mo2_0 S3_4 2.458422 1_555
Mo2_1 S0_1 2.458306 1_555
Mo2_1 S0_3 2.458314 1_545
Mo2_1 S0_5 2.458329 1_555
Mo2_1 S3_3 2.458360 1_545
Mo2_1 S3_1 2.458379 1_555
Mo2_1 S3_5 2.458422 1_555
Mo2_2 S0_2 2.458306 1_555
Mo2_2 S0_0 2.458314 1_555
Mo2_2 S0_6 2.458329 1_555
Mo2_2 S3_0 2.458360 1_555
Mo2_2 S3_2 2.458379 1_555
Mo2_2 S3_6 2.458422 1_555
Mo2_3 S0_3 2.458306 1_555
Mo2_3 S0_1 2.458314 1_555
Mo2_3 S0_7 2.458329 1_555
Mo2_3 S3_1 2.458360 1_555
Mo2_3 S3_3 2.458379 1_555
Mo2_3 S3_7 2.458422 1_555
Mo2_4 S0_4 2.458306 1_555
Mo2_4 S0_6 2.458314 1_545
Mo2_4 S0_0 2.458329 1_655
Mo2_4 S3_6 2.458360 1_545
Mo2_4 S3_4 2.458379 1_555
Mo2_4 S3_0 2.458422 1_655
Mo2_5 S0_5 2.458306 1_555
Mo2_5 S0_7 2.458314 1_545
Mo2_5 S0_1 2.458329 1_655
Mo2_5 S3_7 2.458360 1_545
Mo2_5 S3_5 2.458379 1_555
Mo2_5 S3_1 2.458422 1_655
Mo2_6 S0_6 2.458306 1_555
Mo2_6 S0_4 2.458314 1_555
Mo2_6 S0_2 2.458329 1_655
Mo2_6 S3_4 2.458360 1_555
Mo2_6 S3_6 2.458379 1_555
Mo2_6 S3_2 2.458422 1_655
Mo2_7 S0_7 2.458306 1_555
Mo2_7 S0_5 2.458314 1_555
Mo2_7 S0_3 2.458329 1_655
Mo2_7 S3_5 2.458360 1_555
Mo2_7 S3_7 2.458379 1_555
Mo2_7 S3_3 2.458422 1_655
Mo3_0 Te0_4 2.705272 1_555
Mo3_0 Te0_0 2.705273 1_555
Mo3_0 Te0_2 2.705277 1_545
Mo3_0 Te3_0 2.707442 1_555
Mo3_0 Te3_2 2.707442 1_545
Mo3_0 Te3_4 2.707539 1_555
Mo3_1 Te0_5 2.705272 1_555
Mo3_1 Te0_1 2.705273 1_555
Mo3_1 Te0_3 2.705277 1_545
Mo3_1 Te3_1 2.707442 1_555
Mo3_1 Te3_3 2.707442 1_545
Mo3_1 Te3_5 2.707539 1_555
Mo3_2 Te0_6 2.705272 1_555
Mo3_2 Te0_2 2.705273 1_555
Mo3_2 Te0_0 2.705277 1_555
Mo3_2 Te3_2 2.707442 1_555
Mo3_2 Te3_0 2.707442 1_555
Mo3_2 Te3_6 2.707539 1_555
Mo3_3 Te0_7 2.705272 1_555
Mo3_3 Te0_3 2.705273 1_555
Mo3_3 Te0_1 2.705277 1_555
Mo3_3 Te3_3 2.707442 1_555
Mo3_3 Te3_1 2.707442 1_555
Mo3_3 Te3_7 2.707539 1_555
Mo3_4 Te0_0 2.705272 1_655
Mo3_4 Te0_4 2.705273 1_555
Mo3_4 Te0_6 2.705277 1_545
Mo3_4 Te3_4 2.707442 1_555
Mo3_4 Te3_6 2.707442 1_545
Mo3_4 Te3_0 2.707539 1_655
Mo3_5 Te0_1 2.705272 1_655
Mo3_5 Te0_5 2.705273 1_555
Mo3_5 Te0_7 2.705277 1_545
Mo3_5 Te3_5 2.707442 1_555
Mo3_5 Te3_7 2.707442 1_545
Mo3_5 Te3_1 2.707539 1_655
Mo3_6 Te0_2 2.705272 1_655
Mo3_6 Te0_6 2.705273 1_555
Mo3_6 Te0_4 2.705277 1_555
Mo3_6 Te3_6 2.707442 1_555
Mo3_6 Te3_4 2.707442 1_555
Mo3_6 Te3_2 2.707539 1_655
Mo3_7 Te0_3 2.705272 1_655
Mo3_7 Te0_7 2.705273 1_555
Mo3_7 Te0_5 2.705277 1_555
Mo3_7 Te3_7 2.707442 1_555
Mo3_7 Te3_5 2.707442 1_555
Mo3_7 Te3_3 2.707539 1_655
