# generated using pymatgen
data_K2MgMo2P2(ClO5)2
_symmetry_space_group_name_H-M   'P 1'
_cell_length_a   6.66205802
_cell_length_b   6.66205802
_cell_length_c   7.55758306
_cell_angle_alpha   96.71326663
_cell_angle_beta   83.28673337
_cell_angle_gamma   87.88986854
_symmetry_Int_Tables_number   1
_chemical_formula_structural   K2MgMo2P2(ClO5)2
_chemical_formula_sum   'K2 Mg1 Mo2 P2 Cl2 O10'
_cell_volume   330.41076383
_cell_formula_units_Z   1
loop_
 _symmetry_equiv_pos_site_id
 _symmetry_equiv_pos_as_xyz
  1  'x, y, z'
loop_
 _atom_site_type_symbol
 _atom_site_label
 _atom_site_symmetry_multiplicity
 _atom_site_fract_x
 _atom_site_fract_y
 _atom_site_fract_z
 _atom_site_occupancy
  K  K0  1  0.60128631  0.27007960  0.57104788  1
  K  K1  1  0.22992040  0.89871369  0.57104788  1
  Mg  Mg0  1  0.94574291  0.55425709  0.26351242  1
  Mo  Mo0  1  0.26419386  0.23580614  0.07859344  1
  Mo  Mo1  1  0.77855407  0.72144593  0.90260827  1
  P  P0  1  0.26114142  0.73718161  0.99462276  1
  P  P1  1  0.76281839  0.23885858  0.99462276  1
  Cl  Cl0  1  0.77422960  0.72577040  0.54452394  1
  Cl  Cl1  1  0.16256938  0.33743062  0.43892999  1
  O  O0  1  0.22402637  0.56560344  0.11943340  1
  O  O1  1  0.79281136  0.03234955  0.87912877  1
  O  O2  1  0.46765045  0.70718864  0.87912877  1
  O  O3  1  0.77084025  0.72915975  0.14623521  1
  O  O4  1  0.56612490  0.25589506  0.12845972  1
  O  O5  1  0.93439656  0.27597363  0.11943340  1
  O  O6  1  0.77070368  0.40118992  0.86281116  1
  O  O7  1  0.09881008  0.72929632  0.86281116  1
  O  O8  1  0.31007508  0.18992492  0.83601838  1
  O  O9  1  0.24410494  0.93387510  0.12845972  1
loop_
_geom_bond_atom_site_label_1
_geom_bond_atom_site_label_2
_geom_bond_distance
_geom_bond_site_symmetry_2
K0 O6 2.665171 1_555
K0 O8 2.734435 1_555
K1 O7 2.665171 1_555
K1 O8 2.734435 1_565
Mg0 O3 1.970777 1_555
Mg0 O5 2.045989 1_555
Mg0 O0 2.045989 1_655
Mo0 O8 1.810765 1_554
Mo0 O4 2.095536 1_555
Mo0 O9 2.095536 1_545
Mo0 O0 2.184740 1_555
Mo0 O5 2.184740 1_455
Mo1 O3 1.830566 1_556
Mo1 O1 2.104067 1_565
Mo1 O2 2.104067 1_555
Mo1 O6 2.123006 1_555
Mo1 O7 2.123006 1_655
Cl0 Mg0 2.427083 1_555
Cl1 Mg0 2.583139 1_455
Cl1 Mo0 2.727098 1_555
Cl1 K0 3.229754 1_555
Cl1 K1 3.229754 1_545
O0 P0 1.573486 1_554
O1 P1 1.533877 1_555
O2 P0 1.533877 1_555
O4 P1 1.550937 1_554
O5 P1 1.573486 1_554
O6 P1 1.551939 1_555
O7 P0 1.551939 1_555
O9 P0 1.550937 1_554
