# generated using pymatgen
data_Na7MgSi3Sn3(PO8)3
_symmetry_space_group_name_H-M   'P 1'
_cell_length_a   9.03247407
_cell_length_b   9.03268720
_cell_length_c   22.42587777
_cell_angle_alpha   89.69027609
_cell_angle_beta   90.23822875
_cell_angle_gamma   119.97634032
_symmetry_Int_Tables_number   1
_chemical_formula_structural   Na7MgSi3Sn3(PO8)3
_chemical_formula_sum   'Na21 Mg3 Si9 Sn9 P9 O72'
_cell_volume   1584.89431718
_cell_formula_units_Z   3
loop_
 _symmetry_equiv_pos_site_id
 _symmetry_equiv_pos_as_xyz
  1  'x, y, z'
loop_
 _atom_site_type_symbol
 _atom_site_label
 _atom_site_symmetry_multiplicity
 _atom_site_fract_x
 _atom_site_fract_y
 _atom_site_fract_z
 _atom_site_occupancy
  Na  Na0  1  0.63641504  0.00830033  0.24817055  1
  Na  Na1  1  0.37203594  0.36415830  0.24838726  1
  Na  Na2  1  0.99307256  0.63029927  0.25053425  1
  Na  Na3  1  0.63830313  0.62660708  0.74944958  1
  Na  Na4  1  0.99035624  0.36954243  0.74707447  1
  Na  Na5  1  0.36913727  0.00498436  0.74698788  1
  Na  Na6  1  0.02932362  0.69286913  0.58390598  1
  Na  Na7  1  0.66799950  0.97324017  0.58070492  1
  Na  Na8  1  0.31022443  0.97598849  0.08405365  1
  Na  Na9  1  0.66222432  0.69427855  0.08322289  1
  Na  Na10  1  0.02869885  0.33084515  0.08136920  1
  Na  Na11  1  0.33440901  0.30437119  0.91854749  1
  Na  Na12  1  0.96820266  0.29166278  0.41633134  1
  Na  Na13  1  0.32321841  0.03137593  0.41527400  1
  Na  Na14  1  0.70826886  0.67613864  0.41490250  1
  Na  Na15  1  0.00586522  0.00862618  0.49420429  1
  Na  Na16  1  0.98974872  0.99666100  0.99756317  1
  Na  Na17  1  0.68050269  0.34211622  0.83432387  1
  Na  Na18  1  0.66636527  0.33313188  0.33381920  1
  Na  Na19  1  0.33737645  0.66744551  0.16513940  1
  Na  Na20  1  0.32670960  0.65687095  0.66427510  1
  Mg  Mg0  1  0.99919320  0.99994407  0.35452274  1
  Mg  Mg1  1  0.67361459  0.33932380  0.68331862  1
  Mg  Mg2  1  0.66314974  0.32998198  0.18198525  1
  Si  Si0  1  -0.00066493  0.70631223  0.75033277  1
  Si  Si1  1  0.96335404  0.33451087  0.58586918  1
  Si  Si2  1  0.66434718  0.04064108  0.08555559  1
  Si  Si3  1  0.37610923  0.33393183  0.08487053  1
  Si  Si4  1  0.63027322  0.66741596  0.91664815  1
  Si  Si5  1  0.03406629  0.37069807  0.91633400  1
  Si  Si6  1  0.62725839  0.96013086  0.41755188  1
  Si  Si7  1  0.33288078  0.36995728  0.41645760  1
  Si  Si8  1  0.03908894  0.66844349  0.41705199  1
  Sn  Sn0  1  0.99242044  0.99452061  0.85456244  1
  Sn  Sn1  1  0.00584367  0.00445264  0.64768053  1
  Sn  Sn2  1  0.00035273  0.00331850  0.14974661  1
  Sn  Sn3  1  0.67120729  0.33370823  0.98089360  1
  Sn  Sn4  1  0.66816079  0.33173488  0.48212806  1
  Sn  Sn5  1  0.33684040  0.66521703  0.01633116  1
  Sn  Sn6  1  0.32989708  0.65896881  0.51732011  1
  Sn  Sn7  1  0.33353018  0.66590902  0.31867870  1
  Sn  Sn8  1  0.32901523  0.66472589  0.81766349  1
  P  P0  1  0.29297101  -0.00001197  0.25181464  1
  P  P1  1  0.70753815  0.70620483  0.25164929  1
  P  P2  1  -0.00028599  0.29480873  0.25178018  1
  P  P3  1  0.29283696  0.29220065  0.75113297  1
  P  P4  1  0.70641399  -0.00009642  0.74986588  1
  P  P5  1  0.37498709  0.04249298  0.58502024  1
  P  P6  1  0.66365358  0.62436668  0.58536005  1
  P  P7  1  0.95849844  0.62527603  0.08507015  1
  P  P8  1  0.33419946  0.96066272  0.91658537  1
  O  O0  1  0.20536303  0.02548929  0.30492802  1
  O  O1  1  0.81990574  0.79314074  0.30520830  1
  O  O2  1  0.97194653  0.18052571  0.30516439  1
  O  O3  1  0.21211234  0.17991033  0.80746763  1
  O  O4  1  0.96549107  0.80032863  0.80588891  1
  O  O5  1  0.82641691  0.03809226  0.80375252  1
  O  O6  1  0.78227047  0.95975638  0.69368931  1
  O  O7  1  0.17144488  0.21382199  0.69678394  1
  O  O8  1  0.04470396  0.83077109  0.69038317  1
  O  O9  1  0.78380918  0.81948965  0.19318526  1
  O  O10  1  0.03865561  0.22041156  0.19368388  1
  O  O11  1  0.17864302  0.96087114  0.19338016  1
  O  O12  1  0.88091618  0.36911316  0.64348755  1
  O  O13  1  0.48468900  0.12310709  0.64033334  1
  O  O14  1  0.63659566  0.51712007  0.64101565  1
  O  O15  1  0.88486920  0.51579102  0.14112288  1
  O  O16  1  0.62868197  0.11628365  0.14467550  1
  O  O17  1  0.49311523  0.37463634  0.14300454  1
  O  O18  1  0.45262345  0.29263893  0.02434500  1
  O  O19  1  0.84364988  0.55082894  0.02950890  1
  O  O20  1  0.71215019  0.16607926  0.02727487  1
  O  O21  1  0.45094109  0.14905840  0.52714712  1
  O  O22  1  0.69978231  0.54943066  0.52815999  1
  O  O23  1  0.84250943  0.29193966  0.52529511  1
  O  O24  1  0.54796615  0.70086248  0.97616466  1
  O  O25  1  0.15685629  0.45276316  0.97542415  1
  O  O26  1  0.30096543  0.84897540  0.97294168  1
  O  O27  1  0.54302234  0.83980019  0.47696120  1
  O  O28  1  0.29249967  0.45587022  0.47283468  1
  O  O29  1  0.16089490  0.70765122  0.47600855  1
  O  O30  1  0.11466119  0.61954852  0.35728044  1
  O  O31  1  0.50421476  0.88372394  0.35734298  1
  O  O32  1  0.38263925  0.49324689  0.35583285  1
  O  O33  1  0.11675433  0.48484018  0.85567781  1
  O  O34  1  0.36520941  0.88264338  0.85966680  1
  O  O35  1  0.50823754  0.62791719  0.85667710  1
  O  O36  1  0.02004970  0.83450142  0.41067142  1
  O  O37  1  0.81227931  0.97863834  0.41140328  1
  O  O38  1  0.16685404  0.18513889  0.41007491  1
  O  O39  1  0.03576349  0.18930930  0.91056621  1
  O  O40  1  0.17594782  0.98376383  0.91111083  1
  O  O41  1  0.81705812  0.83740800  0.91303624  1
  O  O42  1  0.97164442  0.15431573  0.58907680  1
  O  O43  1  0.18937641  0.01383150  0.58772531  1
  O  O44  1  0.83053657  0.80658111  0.58891543  1
  O  O45  1  0.97959261  0.80818214  0.09029251  1
  O  O46  1  0.83463471  0.01404596  0.08931545  1
  O  O47  1  0.18294256  0.15864047  0.08914826  1
  O  O48  1  0.68145836  0.15489989  0.74367071  1
  O  O49  1  0.46885211  0.30790465  0.74405867  1
  O  O50  1  0.83099872  0.51935317  0.74628238  1
  O  O51  1  0.68806937  0.52758693  0.24468169  1
  O  O52  1  0.84287352  0.31802723  0.24402104  1
  O  O53  1  0.47200002  0.15827717  0.24513981  1
  O  O54  1  0.63237453  0.48711372  0.92183229  1
  O  O55  1  0.84751064  0.35319767  0.92104670  1
  O  O56  1  0.49264481  0.14050994  0.92126196  1
  O  O57  1  0.63607295  0.14623156  0.42187979  1
  O  O58  1  0.50951050  0.36045166  0.42348857  1
  O  O59  1  0.85150440  0.49304803  0.42255458  1
  O  O60  1  0.34697906  0.50102743  0.07873691  1
  O  O61  1  0.14082091  0.64812261  0.07673307  1
  O  O62  1  0.49043226  0.84953595  0.07744980  1
  O  O63  1  0.35924132  0.86151345  0.57944178  1
  O  O64  1  0.51007781  0.65612457  0.57931041  1
  O  O65  1  0.15081811  0.51120952  0.57944995  1
  O  O66  1  0.30775928  0.83183700  0.25389813  1
  O  O67  1  0.52506244  0.69203905  0.25349578  1
  O  O68  1  0.16807862  0.47720758  0.25400325  1
  O  O69  1  0.31047471  0.47380088  0.75487922  1
  O  O70  1  0.17951441  0.69641617  0.75466689  1
  O  O71  1  0.52774181  0.83249688  0.75629131  1
loop_
_geom_bond_atom_site_label_1
_geom_bond_atom_site_label_2
_geom_bond_distance
_geom_bond_site_symmetry_2
Na0 O53 2.460449 1_555
Na0 O52 2.469489 1_555
Na0 O67 2.512506 1_545
Na0 O16 2.526933 1_555
Na0 O66 2.577245 1_545
Na0 O31 2.708875 1_545
Na0 O9 2.916659 1_545
Na0 O2 2.918335 1_555
Na1 O53 2.441075 1_555
Na1 O51 2.474744 1_555
Na1 O68 2.517059 1_555
Na1 O67 2.570337 1_555
Na1 O17 2.589565 1_555
Na1 O32 2.663009 1_555
Na1 O10 2.887545 1_555
Na1 O0 2.933276 1_555
Na2 O51 2.431427 1_555
Na2 O52 2.448843 1_555
Na2 O66 2.495577 1_655
Na2 O68 2.568880 1_655
Na2 O30 2.651116 1_655
Na2 O15 2.653814 1_555
Na2 O11 2.888493 1_655
Na2 O1 2.906517 1_555
Na3 O50 2.379027 1_555
Na3 O49 2.498732 1_555
Na3 O71 2.517876 1_555
Na3 O69 2.570036 1_555
Na3 O14 2.627170 1_555
Na3 O35 2.683368 1_555
Na3 O4 2.855605 1_555
Na3 O6 2.893553 1_555
Na4 O50 2.418514 1_555
Na4 O48 2.478654 1_555
Na4 O12 2.520080 1_555
Na4 O69 2.560192 1_655
Na4 O70 2.574438 1_655
Na4 O33 2.671327 1_655
Na4 O7 2.873569 1_655
Na4 O5 2.883754 1_555
Na5 O49 2.416224 1_555
Na5 O70 2.441017 1_545
Na5 O48 2.445561 1_555
Na5 O71 2.597635 1_545
Na5 O13 2.613222 1_555
Na5 O34 2.745752 1_545
Na5 O8 2.838609 1_545
Na5 O3 2.937069 1_555
Na6 O65 2.389313 1_555
Na6 O44 2.477380 1_455
Na6 O43 2.513129 1_565
Na6 O63 2.583678 1_555
Na6 O8 2.670049 1_555
Na6 O29 2.673375 1_555
Na6 O12 2.861755 1_455
Na6 O22 2.869549 1_455
Na7 O42 2.397705 1_565
Na7 O63 2.446249 1_555
Na7 O64 2.481562 1_555
Na7 O44 2.580438 1_555
Na7 O27 2.605520 1_555
Na7 O6 2.756939 1_555
Na7 O23 2.785486 1_565
Na7 O13 2.939375 1_565
Na8 O62 2.416143 1_555
Na8 O47 2.440349 1_565
Na8 O61 2.571712 1_555
Na8 O45 2.591051 1_455
Na8 O11 2.701976 1_555
Na8 O26 2.732307 1_554
Na8 O18 2.815102 1_565
Na8 O16 2.841074 1_565
Na9 O60 2.489526 1_555
Na9 O46 2.508813 1_565
Na9 O45 2.520307 1_555
Na9 O62 2.561673 1_555
Na9 O24 2.621453 1_554
Na9 O9 2.707921 1_555
Na9 O19 2.823204 1_555
Na9 O17 2.834571 1_555
Na10 O60 2.493118 1_555
Na10 O46 2.505499 1_455
Na10 O61 2.519326 1_555
Na10 O47 2.559593 1_555
Na10 O25 2.630285 1_554
Na10 O10 2.721736 1_555
Na10 O20 2.756837 1_455
Na10 O15 2.912321 1_455
Na11 O54 2.352417 1_555
Na11 O39 2.363303 1_555
Na11 O40 2.514790 1_545
Na11 O56 2.519813 1_555
Na11 O18 2.621048 1_556
Na11 O3 2.730553 1_555
Na11 O25 2.859912 1_555
Na11 O35 2.884488 1_555
Na12 O38 2.427730 1_655
Na12 O37 2.452150 1_545
Na12 O59 2.521805 1_555
Na12 O57 2.608477 1_555
Na12 O2 2.699204 1_555
Na12 O23 2.699288 1_555
Na12 O28 2.834382 1_655
Na12 O30 2.886574 1_655
Na13 O36 2.409384 1_545
Na13 O38 2.427851 1_555
Na13 O57 2.480378 1_555
Na13 O58 2.589593 1_555
Na13 O0 2.680050 1_555
Na13 O21 2.744909 1_555
Na13 O29 2.871330 1_545
Na13 O31 2.890411 1_545
Na14 O37 2.405790 1_555
Na14 O36 2.441552 1_655
Na14 O58 2.504501 1_555
Na14 O59 2.563502 1_555
Na14 O1 2.666993 1_555
Na14 O22 2.765754 1_555
Na14 O32 2.875867 1_555
Na14 O27 2.931640 1_555
Na15 O38 2.426851 1_555
Na15 O37 2.466576 1_445
Na15 O36 2.496922 1_545
Na15 O42 2.606953 1_455
Na15 O43 2.653794 1_555
Na15 O44 2.729076 1_445
Na16 O41 2.420385 1_555
Na16 O39 2.500890 1_665
Na16 O46 2.543380 1_566
Na16 O40 2.612724 1_655
Na16 O47 2.618309 1_666
Na16 O45 2.653025 1_556
Na17 O55 2.427918 1_555
Na17 O50 2.474382 1_555
Na17 O54 2.521783 1_555
Na17 O56 2.626394 1_555
Na17 O48 2.654181 1_555
Na17 O49 2.689263 1_555
Na18 O57 2.516299 1_555
Na18 O59 2.536245 1_555
Na18 O58 2.547623 1_555
Na18 O51 2.596288 1_555
Na18 O53 2.601103 1_555
Na18 O52 2.619706 1_555
Na19 O60 2.486928 1_555
Na19 O62 2.489798 1_555
Na19 O67 2.539686 1_555
Na19 O68 2.573930 1_555
Na19 O66 2.582998 1_555
Na19 O61 2.603446 1_555
Na20 O65 2.405608 1_555
Na20 O64 2.532072 1_555
Na20 O70 2.551326 1_555
Na20 O63 2.558595 1_555
Na20 O69 2.570663 1_555
Na20 O71 2.682857 1_555
Mg0 O36 2.028113 1_655
Mg0 O38 2.029549 1_665
Mg0 O37 2.050634 1_555
Mg0 O1 2.078340 1_555
Mg0 O2 2.079849 1_565
Mg0 O0 2.084030 1_665
Mg1 O12 1.970833 1_555
Mg1 O14 2.026936 1_555
Mg1 O13 2.081314 1_555
Mg1 O50 2.087370 1_555
Mg1 O48 2.169019 1_555
Mg1 O49 2.202031 1_555
Mg2 O17 1.972235 1_555
Mg2 O16 1.984368 1_555
Mg2 O15 2.075371 1_555
Mg2 O53 2.170954 1_555
Mg2 O52 2.176499 1_555
Mg2 O51 2.199199 1_555
O0 P0 1.513586 1_555
O1 P1 1.514285 1_555
O2 P2 1.513997 1_655
O3 P3 1.552824 1_555
O3 Sn0 2.129563 1_445
O4 Si0 1.625086 1_655
O4 Sn0 1.979787 1_555
O5 P4 1.540853 1_555
O5 Sn0 2.066924 1_545
O6 P4 1.564766 1_565
O6 Sn1 2.122203 1_665
O7 P3 1.552902 1_555
O7 Sn1 2.051479 1_555
O8 Si0 1.663462 1_555
O8 Sn1 2.008154 1_565
O9 P1 1.590361 1_555
O9 Sn2 2.069950 1_665
O10 P2 1.588155 1_555
O10 Sn2 2.067837 1_555
O11 P0 1.592999 1_565
O11 Sn2 2.073102 1_565
O12 Si1 1.602095 1_555
O13 P5 1.526206 1_555
O14 P6 1.519492 1_555
O15 P7 1.528632 1_555
O16 Si2 1.600531 1_555
O17 Si3 1.599125 1_555
O18 Si3 1.652267 1_555
O18 Sn3 2.065286 1_554
O19 P7 1.543403 1_555
O19 Sn3 2.101762 1_554
O20 Si2 1.636542 1_555
O20 Sn3 2.012611 1_554
O21 P5 1.554232 1_555
O21 Sn4 2.086827 1_555
O22 P6 1.563241 1_555
O22 Sn4 2.114742 1_555
O23 Si1 1.660875 1_555
O23 Sn4 2.023752 1_555
O24 Si4 1.631708 1_555
O24 Sn5 1.987270 1_556
O25 Si5 1.646949 1_555
O25 Sn5 2.014014 1_556
O26 P8 1.546578 1_555
O26 Sn5 2.079483 1_556
O27 Si6 1.643685 1_555
O27 Sn6 2.012301 1_555
O28 Si7 1.622038 1_555
O28 Sn6 1.967888 1_555
O29 Si8 1.639383 1_555
O29 Sn6 2.009106 1_555
O30 Si8 1.665240 1_555
O30 Sn7 2.004009 1_555
O31 Si6 1.663056 1_555
O31 Sn7 1.993946 1_555
O32 Si7 1.667079 1_555
O32 Sn7 1.999388 1_555
O33 Si5 1.641626 1_555
O33 Sn8 1.982002 1_555
O34 P8 1.553821 1_555
O34 Sn8 2.059885 1_555
O35 Si4 1.658601 1_555
O35 Sn8 2.004874 1_555
O36 Si8 1.598479 1_555
O37 Si6 1.600733 1_555
O38 Si7 1.598561 1_555
O39 Si5 1.651914 1_555
O39 Sn0 2.039075 1_445
O40 P8 1.548588 1_555
O40 Sn0 2.123150 1_455
O41 Si4 1.619186 1_555
O41 Sn0 1.998341 1_555
O42 Si1 1.667483 1_555
O42 Sn1 2.012537 1_655
O43 P5 1.564732 1_555
O43 Sn1 2.107155 1_555
O44 P6 1.583885 1_555
O44 Sn1 2.149087 1_665
O45 P7 1.570640 1_555
O45 Sn2 2.147721 1_665
O46 Si2 1.672889 1_555
O46 Sn2 2.052609 1_655
O47 Si3 1.673193 1_555
O47 Sn2 2.054499 1_555
O48 P4 1.530751 1_555
O49 P3 1.532781 1_555
O50 Si0 1.614505 1_655
O51 P1 1.541875 1_555
O52 P2 1.541309 1_655
O53 P0 1.539771 1_555
O54 Si4 1.641671 1_555
O54 Sn3 2.063825 1_555
O55 Si5 1.615768 1_655
O55 Sn3 2.025653 1_555
O56 P8 1.541283 1_545
O56 Sn3 2.151685 1_555
O57 Si6 1.646039 1_545
O57 Sn4 2.062297 1_555
O58 Si7 1.646874 1_555
O58 Sn4 2.049928 1_555
O59 Si8 1.647190 1_655
O59 Sn4 2.058284 1_555
O60 Si3 1.661477 1_555
O60 Sn5 2.068506 1_555
O61 P7 1.565921 1_455
O61 Sn5 2.176694 1_555
O62 Si2 1.664863 1_565
O62 Sn5 2.067836 1_555
O63 P5 1.574153 1_565
O63 Sn6 2.213174 1_555
O64 P6 1.555823 1_555
O64 Sn6 2.145820 1_555
O65 Si1 1.653543 1_455
O65 Sn6 2.044597 1_555
O66 P0 1.590240 1_565
O66 Sn7 2.175616 1_555
O67 P1 1.588848 1_555
O67 Sn7 2.189686 1_555
O68 P2 1.589379 1_555
O68 Sn7 2.169229 1_555
O69 P3 1.569518 1_555
O69 Sn8 2.172626 1_555
O70 Si0 1.676318 1_555
O70 Sn8 2.065748 1_555
O71 P4 1.572511 1_565
O71 Sn8 2.166228 1_555
