# generated using pymatgen
data_ThB2C
_symmetry_space_group_name_H-M   'P 1'
_cell_length_a   5.44289918
_cell_length_b   5.44289816
_cell_length_c   5.44289759
_cell_angle_alpha   75.98863007
_cell_angle_beta   75.98864056
_cell_angle_gamma   75.98862376
_symmetry_Int_Tables_number   1
_chemical_formula_structural   ThB2C
_chemical_formula_sum   'Th3 B6 C3'
_cell_volume   148.88287261
_cell_formula_units_Z   3
loop_
 _symmetry_equiv_pos_site_id
 _symmetry_equiv_pos_as_xyz
  1  'x, y, z'
loop_
 _atom_site_type_symbol
 _atom_site_label
 _atom_site_symmetry_multiplicity
 _atom_site_fract_x
 _atom_site_fract_y
 _atom_site_fract_z
 _atom_site_occupancy
  Th  Th0  1  0.68453695  0.68453695  0.68453695  1
  Th  Th1  1  0.31546305  0.31546305  0.31546305  1
  Th  Th2  1  0.00000000  -0.00000000  0.00000000  1
  B  B0  1  0.77643545  0.50000000  0.22356455  1
  B  B1  1  0.50000000  0.22356455  0.77643545  1
  B  B2  1  0.22356455  0.77643545  0.50000000  1
  B  B3  1  0.22356455  0.50000000  0.77643545  1
  B  B4  1  0.77643545  0.22356455  0.50000000  1
  B  B5  1  0.50000000  0.77643545  0.22356455  1
  C  C0  1  0.00000000  -0.00000000  0.50000000  1
  C  C1  1  0.50000000  -0.00000000  0.00000000  1
  C  C2  1  0.00000000  0.50000000  0.00000000  1
loop_
_geom_bond_atom_site_label_1
_geom_bond_atom_site_label_2
_geom_bond_distance
_geom_bond_site_symmetry_2
B0 C2 1.498132 1_655
B1 C1 1.498132 1_556
B2 C0 1.498132 1_565
B3 C2 1.498132 1_556
B4 C0 1.498132 1_655
B5 C1 1.498132 1_565
C0 Th0 2.581211 1_445
C0 Th1 2.581211 1_555
C0 Th2 2.721449 1_556
C0 Th2 2.721449 1_555
C1 Th0 2.581210 1_544
C1 Th1 2.581210 1_555
C1 Th2 2.721450 1_655
C1 Th2 2.721450 1_555
C2 Th0 2.581210 1_454
C2 Th1 2.581210 1_555
C2 Th2 2.721449 1_565
C2 Th2 2.721449 1_555
