# generated using pymatgen
data_NaY2In2PS5O24
_symmetry_space_group_name_H-M   'P 1'
_cell_length_a   9.04482483
_cell_length_b   9.04693016
_cell_length_c   23.83613785
_cell_angle_alpha   89.93421820
_cell_angle_beta   90.14166752
_cell_angle_gamma   119.81854407
_symmetry_Int_Tables_number   1
_chemical_formula_structural   NaY2In2PS5O24
_chemical_formula_sum   'Na3 Y6 In6 P3 S15 O72'
_cell_volume   1692.22373722
_cell_formula_units_Z   3
loop_
 _symmetry_equiv_pos_site_id
 _symmetry_equiv_pos_as_xyz
  1  'x, y, z'
loop_
 _atom_site_type_symbol
 _atom_site_label
 _atom_site_symmetry_multiplicity
 _atom_site_fract_x
 _atom_site_fract_y
 _atom_site_fract_z
 _atom_site_occupancy
  Na  Na0  1  0.99883717  0.99190743  0.99670422  1
  Na  Na1  1  0.65850232  0.33194595  0.84081190  1
  Na  Na2  1  0.67359986  0.33180188  0.32762596  1
  Y  Y0  1  0.99791005  0.00552669  0.35100405  1
  Y  Y1  1  0.00088867  0.00008978  0.64899722  1
  Y  Y2  1  0.66562185  0.33286266  0.68836645  1
  Y  Y3  1  0.66727519  0.33315795  0.48139856  1
  Y  Y4  1  0.33284813  0.66679859  0.52062537  1
  Y  Y5  1  0.32713822  0.66022301  0.30709686  1
  In  In0  1  0.99905774  0.99180717  0.85576176  1
  In  In1  1  0.00061106  0.00640533  0.14887266  1
  In  In2  1  0.67361350  0.33373568  0.18125828  1
  In  In3  1  0.65852581  0.33315632  0.98008177  1
  In  In4  1  0.34010358  0.67469749  0.01565085  1
  In  In5  1  0.34143672  0.67313787  0.82034934  1
  P  P0  1  0.98871029  0.28715722  0.24737506  1
  P  P1  1  0.62639121  0.66596773  0.91709592  1
  P  P2  1  0.33416410  0.96038721  0.91709743  1
  S  S0  1  0.29672514  0.00898700  0.24767107  1
  S  S1  1  0.71168217  0.70300800  0.24766086  1
  S  S2  1  0.28871080  0.29601249  0.75369403  1
  S  S3  1  0.00647649  0.70781767  0.75286949  1
  S  S4  1  0.70629594  0.99534008  0.75316065  1
  S  S5  1  0.95917672  0.33251839  0.58399504  1
  S  S6  1  0.37358531  0.04143187  0.58373613  1
  S  S7  1  0.66809655  0.62681276  0.58382053  1
  S  S8  1  0.96085000  0.62816547  0.08217314  1
  S  S9  1  0.66741186  0.04132607  0.08205723  1
  S  S10  1  0.37318691  0.33350688  0.08329466  1
  S  S11  1  0.04005011  0.37398995  0.91694372  1
  S  S12  1  0.62349804  0.95829866  0.41572537  1
  S  S13  1  0.33533866  0.37515955  0.41596728  1
  S  S14  1  0.03982873  0.66614066  0.41570805  1
  O  O0  1  0.21751182  0.03363598  0.29867858  1
  O  O1  1  0.81725256  0.77970970  0.29861791  1
  O  O2  1  0.96099017  0.17802208  0.30048958  1
  O  O3  1  0.20845084  0.18436252  0.80286201  1
  O  O4  1  0.97326302  0.78648407  0.80205571  1
  O  O5  1  0.81714402  0.02627865  0.80267599  1
  O  O6  1  0.78622834  0.97528240  0.70152300  1
  O  O7  1  0.18953660  0.21672133  0.70170380  1
  O  O8  1  0.02788692  0.80903012  0.70136147  1
  O  O9  1  0.79067450  0.80704363  0.19706748  1
  O  O10  1  0.01879146  0.20654923  0.19499033  1
  O  O11  1  0.18997479  0.97895402  0.19720934  1
  O  O12  1  0.87724542  0.35864149  0.63373266  1
  O  O13  1  0.48118428  0.12262409  0.63371087  1
  O  O14  1  0.64214801  0.51911892  0.63371713  1
  O  O15  1  0.88445576  0.52579902  0.13393411  1
  O  O16  1  0.64091416  0.11735004  0.13374489  1
  O  O17  1  0.47787537  0.35924965  0.13472806  1
  O  O18  1  0.45067892  0.30109190  0.03335902  1
  O  O19  1  0.84964278  0.54869138  0.03246579  1
  O  O20  1  0.69847324  0.15197908  0.03236138  1
  O  O21  1  0.45337542  0.14697372  0.53319266  1
  O  O22  1  0.69347193  0.54664033  0.53324368  1
  O  O23  1  0.85371335  0.30685348  0.53325396  1
  O  O24  1  0.54561501  0.69206754  0.97038312  1
  O  O25  1  0.14438699  0.45086954  0.96793112  1
  O  O26  1  0.30227006  0.85033468  0.97008809  1
  O  O27  1  0.54261710  0.85867358  0.46704232  1
  O  O28  1  0.31492474  0.45563098  0.46705729  1
  O  O29  1  0.14026687  0.68562961  0.46703656  1
  O  O30  1  0.12176675  0.64049020  0.36598811  1
  O  O31  1  0.51765186  0.87723512  0.36571544  1
  O  O32  1  0.36057677  0.48176564  0.36604286  1
  O  O33  1  0.11545395  0.47660288  0.86549410  1
  O  O34  1  0.36026238  0.88211571  0.86300740  1
  O  O35  1  0.51871056  0.63360052  0.86325276  1
  O  O36  1  0.02165612  0.81759380  0.40910780  1
  O  O37  1  0.79313988  0.97469318  0.41039854  1
  O  O38  1  0.18413129  0.20533068  0.40986114  1
  O  O39  1  0.02213986  0.20125813  0.91086339  1
  O  O40  1  0.17435771  0.98343562  0.91174916  1
  O  O41  1  0.80503916  0.82980699  0.91151529  1
  O  O42  1  0.97675149  0.18074338  0.59128590  1
  O  O43  1  0.20455882  0.02440672  0.59101664  1
  O  O44  1  0.81962338  0.79552679  0.59123923  1
  O  O45  1  0.97802422  0.80212800  0.08927934  1
  O  O46  1  0.82302850  0.02239854  0.08814733  1
  O  O47  1  0.20063469  0.17640421  0.08945247  1
  O  O48  1  0.68778769  0.15034772  0.74666466  1
  O  O49  1  0.46218399  0.31384658  0.74706945  1
  O  O50  1  0.85121297  0.53566368  0.74596666  1
  O  O51  1  0.69042911  0.52882518  0.24202606  1
  O  O52  1  0.82684111  0.30689512  0.24232026  1
  O  O53  1  0.46779967  0.16470994  0.24175606  1
  O  O54  1  0.64967636  0.50632136  0.92252663  1
  O  O55  1  0.86723635  0.35583230  0.92300959  1
  O  O56  1  0.49789960  0.13932611  0.92284525  1
  O  O57  1  0.64321224  0.13207905  0.42105292  1
  O  O58  1  0.48981939  0.35657489  0.42131611  1
  O  O59  1  0.86728611  0.51131746  0.42107023  1
  O  O60  1  0.35407260  0.48514358  0.07532332  1
  O  O61  1  0.13047480  0.64434218  0.07438910  1
  O  O62  1  0.51487083  0.87151210  0.07533203  1
  O  O63  1  0.35703795  0.87232554  0.57641025  1
  O  O64  1  0.51554463  0.64367266  0.57640143  1
  O  O65  1  0.12794559  0.48467210  0.57651389  1
  O  O66  1  0.31724122  0.85870394  0.25548415  1
  O  O67  1  0.54360962  0.68856454  0.25547618  1
  O  O68  1  0.14662257  0.46304081  0.25609976  1
  O  O69  1  0.30515170  0.46554767  0.76031041  1
  O  O70  1  0.15813503  0.68919922  0.76010610  1
  O  O71  1  0.53662214  0.84309193  0.75890973  1
loop_
_geom_bond_atom_site_label_1
_geom_bond_atom_site_label_2
_geom_bond_distance
_geom_bond_site_symmetry_2
Na0 O40 2.600786 1_655
Na0 O41 2.603687 1_555
Na0 O39 2.722940 1_665
Na0 O45 2.743065 1_556
Na0 O46 2.794697 1_566
Na0 O47 2.821986 1_666
Na1 O54 2.534152 1_555
Na1 O56 2.541458 1_555
Na1 O55 2.650811 1_555
Na1 O49 2.804401 1_555
Na1 O48 2.872196 1_555
Na1 O50 2.891533 1_555
Na2 O52 2.536142 1_555
Na2 O51 2.662102 1_555
Na2 O53 2.670079 1_555
Na2 O57 2.792758 1_555
Na2 O59 2.797711 1_555
Na2 O58 2.861920 1_555
In0 O40 2.099860 1_655
In0 O41 2.107817 1_555
In0 O4 2.171786 1_555
In0 O5 2.214672 1_565
In0 O3 2.221973 1_665
In0 O39 2.229386 1_665
In1 O10 2.054649 1_555
In1 O11 2.176078 1_545
In1 O9 2.185946 1_445
In1 O47 2.210204 1_555
In1 O46 2.217003 1_455
In1 O45 2.259205 1_445
In2 O52 2.102869 1_555
In2 O16 2.151752 1_555
In2 O15 2.153859 1_555
In2 O17 2.194054 1_555
In2 O51 2.230268 1_555
In2 O53 2.249533 1_555
In3 O54 2.112344 1_555
In3 O56 2.123458 1_555
In3 O18 2.167865 1_556
In3 O20 2.225339 1_556
In3 O19 2.234317 1_556
In3 O55 2.254604 1_555
In4 O26 2.087197 1_554
In4 O24 2.088821 1_554
In4 O62 2.210972 1_555
In4 O25 2.226730 1_554
In4 O61 2.263870 1_555
In4 O60 2.277912 1_555
In5 O35 2.075118 1_555
In5 O34 2.078625 1_555
In5 O33 2.211191 1_555
In5 O71 2.221168 1_555
In5 O70 2.249263 1_555
In5 O69 2.252488 1_555
O0 S0 1.484960 1_555
O0 Y0 2.252705 1_455
O1 S1 1.485203 1_555
O1 Y0 2.253607 1_565
O2 P0 1.546958 1_555
O2 Y0 2.123342 1_555
O3 S2 1.480893 1_555
O4 S3 1.479045 1_655
O5 S4 1.480667 1_545
O6 S4 1.485253 1_555
O6 Y1 2.228362 1_665
O7 S2 1.487130 1_555
O7 Y1 2.236095 1_555
O8 S3 1.485113 1_555
O8 Y1 2.240217 1_565
O9 S1 1.477679 1_555
O10 P0 1.538201 1_455
O11 S0 1.478835 1_565
O12 S5 1.479768 1_555
O12 Y2 2.231976 1_555
O13 S6 1.480203 1_555
O13 Y2 2.221983 1_555
O14 S7 1.479927 1_555
O14 Y2 2.220517 1_555
O15 S8 1.490812 1_555
O16 S9 1.488534 1_555
O17 S10 1.493135 1_555
O18 S10 1.484370 1_555
O19 S8 1.486387 1_555
O20 S9 1.484408 1_555
O21 S6 1.483353 1_555
O21 Y3 2.206925 1_555
O22 S7 1.483597 1_555
O22 Y3 2.205082 1_555
O23 S5 1.483686 1_555
O23 Y3 2.194568 1_555
O24 P1 1.542625 1_555
O25 S11 1.481519 1_555
O26 P2 1.543758 1_555
O27 S12 1.479828 1_555
O27 Y4 2.230659 1_555
O28 S13 1.477818 1_555
O28 Y4 2.236720 1_555
O29 S14 1.479511 1_555
O29 Y4 2.231223 1_555
O30 S14 1.477718 1_555
O30 Y5 2.266136 1_555
O31 S12 1.474266 1_555
O31 Y5 2.325077 1_555
O32 S13 1.475858 1_555
O32 Y5 2.269474 1_555
O33 S11 1.484172 1_555
O34 P2 1.545729 1_555
O35 P1 1.546780 1_555
O36 S14 1.467151 1_555
O36 Y0 2.282825 1_465
O37 S12 1.472085 1_555
O37 Y0 2.238456 1_565
O38 S13 1.470384 1_555
O38 Y0 2.244746 1_455
O39 S11 1.495962 1_555
O40 P2 1.564526 1_555
O41 P1 1.563448 1_555
O42 S5 1.468759 1_555
O42 Y1 2.226952 1_655
O43 S6 1.469075 1_555
O43 Y1 2.227290 1_555
O44 S7 1.469136 1_555
O44 Y1 2.232824 1_665
O45 S8 1.512317 1_555
O46 S9 1.506702 1_555
O47 S10 1.507327 1_555
O48 S4 1.500469 1_545
O48 Y2 2.240588 1_555
O49 S2 1.504074 1_555
O49 Y2 2.251818 1_555
O50 S3 1.499725 1_655
O50 Y2 2.236189 1_555
O51 S1 1.495761 1_555
O52 P0 1.564931 1_555
O53 S0 1.493845 1_555
O54 P1 1.564959 1_555
O55 S11 1.495588 1_655
O56 P2 1.564577 1_545
O57 S12 1.497069 1_545
O57 Y3 2.244189 1_555
O58 S13 1.493165 1_555
O58 Y3 2.235665 1_555
O59 S14 1.496801 1_655
O59 Y3 2.246361 1_555
O60 S10 1.477520 1_555
O61 S8 1.479101 1_455
O62 S9 1.476808 1_565
O63 S6 1.471812 1_565
O63 Y4 2.207473 1_555
O64 S7 1.471883 1_555
O64 Y4 2.207769 1_555
O65 S5 1.472362 1_455
O65 Y4 2.212363 1_555
O66 S0 1.472340 1_565
O66 Y5 2.213616 1_555
O67 S1 1.471917 1_555
O67 Y5 2.219277 1_555
O68 P0 1.534361 1_455
O68 Y5 2.103389 1_555
O69 S2 1.474129 1_555
O70 S3 1.472516 1_555
O71 S4 1.472940 1_555
