# generated using pymatgen
data_Na5Zr3ZnSiP5O24
_symmetry_space_group_name_H-M   'P 1'
_cell_length_a   9.09402397
_cell_length_b   9.06828838
_cell_length_c   22.87473596
_cell_angle_alpha   89.97692307
_cell_angle_beta   90.24608258
_cell_angle_gamma   119.88342255
_symmetry_Int_Tables_number   1
_chemical_formula_structural   Na5Zr3ZnSiP5O24
_chemical_formula_sum   'Na15 Zr9 Zn3 Si3 P15 O72'
_cell_volume   1635.58166931
_cell_formula_units_Z   3
loop_
 _symmetry_equiv_pos_site_id
 _symmetry_equiv_pos_as_xyz
  1  'x, y, z'
loop_
 _atom_site_type_symbol
 _atom_site_label
 _atom_site_symmetry_multiplicity
 _atom_site_fract_x
 _atom_site_fract_y
 _atom_site_fract_z
 _atom_site_occupancy
  Na  Na0  1  0.64167434  0.01516263  0.24354442  1
  Na  Na1  1  0.37443670  0.35912622  0.24349045  1
  Na  Na2  1  0.98560634  0.62744356  0.24397584  1
  Na  Na3  1  0.63540075  0.62335368  0.74601312  1
  Na  Na4  1  0.98756237  0.36423670  0.74632426  1
  Na  Na5  1  0.38051728  0.01492467  0.74319883  1
  Na  Na6  1  0.66279666  0.97397261  0.58452920  1
  Na  Na7  1  0.33243156  0.30467344  0.92188907  1
  Na  Na8  1  0.32381428  0.03212480  0.41280122  1
  Na  Na9  1  0.99978171  0.00045138  0.49102140  1
  Na  Na10  1  0.98540628  0.99001174  0.00222720  1
  Na  Na11  1  0.67821057  0.33661653  0.83639348  1
  Na  Na12  1  0.67775252  0.34341247  0.32925567  1
  Na  Na13  1  0.33339687  0.66766803  0.15985255  1
  Na  Na14  1  0.32357685  0.66167119  0.66180327  1
  Zr  Zr0  1  0.99141520  0.99391841  0.85630532  1
  Zr  Zr1  1  0.01016073  0.00120994  0.64345869  1
  Zr  Zr2  1  0.00012371  0.00117134  0.14583804  1
  Zr  Zr3  1  0.67664834  0.33711536  0.98287646  1
  Zr  Zr4  1  0.66688585  0.33724546  0.48161915  1
  Zr  Zr5  1  0.33539915  0.66475510  0.02007249  1
  Zr  Zr6  1  0.32842307  0.66251993  0.51853468  1
  Zr  Zr7  1  0.33337095  0.66441150  0.31589589  1
  Zr  Zr8  1  0.33175904  0.66495260  0.81855178  1
  Zn  Zn0  1  0.99096174  0.99869253  0.34985404  1
  Zn  Zn1  1  0.66413915  0.33172481  0.67514714  1
  Zn  Zn2  1  0.66851541  0.33504872  0.17516664  1
  Si  Si0  1  0.37674436  0.04112445  0.58451082  1
  Si  Si1  1  0.62666905  0.66406380  0.91758803  1
  Si  Si2  1  0.03700558  0.37382168  0.91621412  1
  P  P0  1  0.29241309  0.00187502  0.25317462  1
  P  P1  1  0.71129382  0.70862693  0.25176282  1
  P  P2  1  0.99774923  0.28953728  0.25196087  1
  P  P3  1  0.29370940  0.29366903  0.75093262  1
  P  P4  1  0.99943479  0.70593280  0.74931698  1
  P  P5  1  0.70688974  0.00100943  0.74846810  1
  P  P6  1  0.95876539  0.33614317  0.58642606  1
  P  P7  1  0.66495989  0.62531056  0.58630622  1
  P  P8  1  0.96182920  0.62704074  0.08694083  1
  P  P9  1  0.66468522  0.03971728  0.08707774  1
  P  P10  1  0.37427378  0.33302504  0.08530591  1
  P  P11  1  0.33514661  0.96078217  0.91704412  1
  P  P12  1  0.63247369  0.96117144  0.41751544  1
  P  P13  1  0.33050602  0.36760667  0.41605310  1
  P  P14  1  0.03779084  0.66870418  0.41544112  1
  O  O0  1  0.21658909  0.02889451  0.30880754  1
  O  O1  1  0.82127904  0.78703055  0.30539762  1
  O  O2  1  0.96886292  0.18030420  0.30539970  1
  O  O3  1  0.20838516  0.18590466  0.80569477  1
  O  O4  1  0.97841584  0.79571273  0.80312686  1
  O  O5  1  0.82123335  0.01883586  0.80161769  1
  O  O6  1  0.78740634  0.97182425  0.69326964  1
  O  O7  1  0.17599138  0.20322344  0.69758223  1
  O  O8  1  0.02649204  0.82164553  0.69559499  1
  O  O9  1  0.79253775  0.82513115  0.19739874  1
  O  O10  1  0.03147734  0.20772029  0.19730095  1
  O  O11  1  0.17298427  0.96982452  0.19976156  1
  O  O12  1  0.89059922  0.36629549  0.64343917  1
  O  O13  1  0.48885172  0.11283482  0.64367331  1
  O  O14  1  0.64026448  0.52849829  0.64334076  1
  O  O15  1  0.88781725  0.52778936  0.14355561  1
  O  O16  1  0.64248373  0.11516416  0.14406870  1
  O  O17  1  0.47533022  0.35663242  0.14160195  1
  O  O18  1  0.45849101  0.31036355  0.02979373  1
  O  O19  1  0.84707990  0.53624196  0.03307791  1
  O  O20  1  0.68738093  0.15308046  0.03338527  1
  O  O21  1  0.46900079  0.15747158  0.52641867  1
  O  O22  1  0.69172968  0.53752803  0.53288943  1
  O  O23  1  0.84072995  0.30822386  0.53346676  1
  O  O24  1  0.53168217  0.69355107  0.97194770  1
  O  O25  1  0.16585307  0.46883609  0.97011564  1
  O  O26  1  0.30753543  0.84628266  0.96922130  1
  O  O27  1  0.53749374  0.85199846  0.47199588  1
  O  O28  1  0.31624202  0.46510631  0.46897165  1
  O  O29  1  0.15535548  0.68753444  0.46829544  1
  O  O30  1  0.12416967  0.64317529  0.35995460  1
  O  O31  1  0.51307420  0.87276688  0.36307431  1
  O  O32  1  0.35439024  0.47736102  0.36023034  1
  O  O33  1  0.12147391  0.48464245  0.85565825  1
  O  O34  1  0.35933818  0.88054591  0.85978550  1
  O  O35  1  0.51248300  0.63622178  0.85721545  1
  O  O36  1  0.03148644  0.83310296  0.41234104  1
  O  O37  1  0.80533687  0.97849745  0.41299793  1
  O  O38  1  0.17752696  0.18929481  0.41296030  1
  O  O39  1  0.03315770  0.19144533  0.90976589  1
  O  O40  1  0.17810438  0.98423182  0.90978133  1
  O  O41  1  0.81523805  0.82894460  0.91125515  1
  O  O42  1  0.96587209  0.16722514  0.58981567  1
  O  O43  1  0.18706571  0.02087049  0.58817020  1
  O  O44  1  0.82116830  0.81000712  0.58939340  1
  O  O45  1  0.97734975  0.80649245  0.08998213  1
  O  O46  1  0.82728094  0.02165432  0.08994840  1
  O  O47  1  0.19393256  0.17101482  0.08971265  1
  O  O48  1  0.69100435  0.16174635  0.74722697  1
  O  O49  1  0.47149649  0.31521584  0.74596781  1
  O  O50  1  0.84215301  0.52847980  0.74491250  1
  O  O51  1  0.68200878  0.52638561  0.24413835  1
  O  O52  1  0.84514074  0.31893700  0.24474328  1
  O  O53  1  0.47245772  0.15552276  0.24533737  1
  O  O54  1  0.63051300  0.48685028  0.92316586  1
  O  O55  1  0.84906279  0.34889239  0.92247155  1
  O  O56  1  0.49032913  0.14044981  0.92305142  1
  O  O57  1  0.63608855  0.13572583  0.42212767  1
  O  O58  1  0.49597918  0.35471492  0.42106935  1
  O  O59  1  0.86303726  0.50694066  0.42203305  1
  O  O60  1  0.35151763  0.49175885  0.07901781  1
  O  O61  1  0.14049197  0.64976875  0.07808840  1
  O  O62  1  0.50682084  0.86095531  0.07900215  1
  O  O63  1  0.35937214  0.85177107  0.57583110  1
  O  O64  1  0.50884549  0.65054066  0.57714079  1
  O  O65  1  0.13935369  0.48727335  0.57639772  1
  O  O66  1  0.30781619  0.83466900  0.25654530  1
  O  O67  1  0.52952017  0.69404840  0.25704042  1
  O  O68  1  0.16484604  0.47131845  0.25661105  1
  O  O69  1  0.30603311  0.47286753  0.75339159  1
  O  O70  1  0.16555701  0.69447504  0.75312748  1
  O  O71  1  0.52735636  0.83830303  0.75429443  1
loop_
_geom_bond_atom_site_label_1
_geom_bond_atom_site_label_2
_geom_bond_distance
_geom_bond_site_symmetry_2
Na0 O52 2.435855 1_555
Na0 O53 2.437670 1_555
Na0 O16 2.447869 1_555
Na0 O67 2.580216 1_545
Na0 O66 2.653472 1_545
Na0 O9 2.887199 1_545
Na0 O2 2.936560 1_555
Na0 O31 3.005139 1_545
Na1 O53 2.417640 1_555
Na1 O51 2.428273 1_555
Na1 O17 2.512666 1_555
Na1 O68 2.587582 1_555
Na1 O67 2.652961 1_555
Na1 O10 2.904244 1_555
Na1 O32 2.918062 1_555
Na1 O0 2.998676 1_555
Na2 O52 2.428547 1_555
Na2 O51 2.437494 1_555
Na2 O15 2.463214 1_555
Na2 O66 2.589640 1_655
Na2 O68 2.653330 1_655
Na2 O11 2.882136 1_655
Na2 O30 2.904992 1_655
Na2 O1 2.911410 1_555
Na3 O49 2.424750 1_555
Na3 O50 2.426595 1_555
Na3 O14 2.509627 1_555
Na3 O71 2.590587 1_555
Na3 O69 2.606436 1_555
Na3 O35 2.808613 1_555
Na4 O48 2.389822 1_555
Na4 O50 2.435193 1_555
Na4 O12 2.513017 1_555
Na4 O69 2.556866 1_655
Na4 O70 2.603920 1_655
Na4 O33 2.753397 1_655
Na5 O49 2.420450 1_555
Na5 O48 2.450614 1_555
Na5 O13 2.467372 1_555
Na5 O71 2.557519 1_545
Na5 O70 2.580718 1_545
Na5 O34 2.898666 1_545
Na6 O63 2.414552 1_555
Na6 O42 2.422086 1_565
Na6 O44 2.535724 1_555
Na6 O64 2.549035 1_555
Na6 O6 2.733035 1_555
Na6 O27 2.805248 1_555
Na6 O13 2.814783 1_565
Na6 O23 2.880301 1_565
Na7 O54 2.369635 1_555
Na7 O39 2.397377 1_555
Na7 O56 2.531976 1_555
Na7 O40 2.534531 1_545
Na7 O18 2.706691 1_556
Na7 O25 2.826806 1_555
Na7 O3 2.874530 1_555
Na8 O36 2.354450 1_545
Na8 O38 2.385506 1_555
Na8 O57 2.515784 1_555
Na8 O58 2.545318 1_555
Na8 O0 2.561676 1_555
Na8 O21 2.875301 1_555
Na8 O31 2.973399 1_545
Na8 O29 2.994365 1_545
Na9 O37 2.444226 1_545
Na9 O38 2.449057 1_655
Na9 O36 2.463341 1_645
Na9 O43 2.743543 1_655
Na9 O44 2.813797 1_545
Na9 O42 2.821859 1_555
Na10 O41 2.565349 1_554
Na10 O46 2.571581 1_565
Na10 O45 2.584871 1_555
Na10 O47 2.676469 1_665
Na10 O39 2.685692 1_664
Na10 O40 2.769288 1_654
Na11 O55 2.470838 1_555
Na11 O54 2.565624 1_555
Na11 O48 2.622388 1_555
Na11 O56 2.647783 1_555
Na11 O50 2.658563 1_555
Na11 O49 2.730105 1_555
Na12 O52 2.542834 1_555
Na12 O51 2.545509 1_555
Na12 O53 2.622130 1_555
Na12 O59 2.650309 1_555
Na12 O58 2.711606 1_555
Na12 O57 2.737955 1_555
Na13 O62 2.499560 1_555
Na13 O60 2.501563 1_555
Na13 O61 2.508050 1_555
Na13 O66 2.756427 1_555
Na13 O67 2.778824 1_555
Na13 O68 2.779393 1_555
Na14 O63 2.527606 1_555
Na14 O65 2.541399 1_555
Na14 O64 2.607116 1_555
Na14 O70 2.640041 1_555
Na14 O69 2.659678 1_555
Na14 O71 2.736291 1_555
O0 P0 1.526805 1_555
O0 Zn0 2.150136 1_445
O1 P1 1.514164 1_555
O1 Zn0 2.033749 1_555
O2 P2 1.512269 1_555
O2 Zn0 2.028162 1_545
O3 P3 1.542082 1_555
O3 Zr0 2.204421 1_445
O4 P4 1.540247 1_555
O4 Zr0 2.124406 1_555
O5 P5 1.551557 1_555
O5 Zr0 2.083930 1_545
O6 P5 1.549772 1_565
O6 Zr1 2.225880 1_665
O7 P3 1.556504 1_555
O7 Zr1 2.096631 1_555
O8 P4 1.554356 1_455
O8 Zr1 2.081768 1_565
O9 P1 1.561256 1_555
O9 Zr2 2.125527 1_665
O10 P2 1.561632 1_455
O10 Zr2 2.107632 1_555
O11 P0 1.559236 1_565
O11 Zr2 2.121748 1_565
O12 P6 1.528402 1_555
O12 Zn1 2.057892 1_555
O13 Si0 1.619254 1_555
O13 Zn1 1.959015 1_555
O14 P7 1.525916 1_555
O14 Zn1 2.035736 1_555
O15 P8 1.530731 1_555
O15 Zn2 2.023128 1_555
O16 P9 1.532644 1_555
O16 Zn2 2.016764 1_555
O17 P10 1.530600 1_555
O17 Zn2 2.011267 1_555
O18 P10 1.551338 1_555
O18 Zr3 2.164512 1_554
O19 P8 1.555175 1_555
O19 Zr3 2.044290 1_554
O20 P9 1.548423 1_555
O20 Zr3 2.071081 1_554
O21 Si0 1.645986 1_555
O21 Zr4 2.009333 1_555
O22 P7 1.543507 1_555
O22 Zr4 2.077425 1_555
O23 P6 1.549889 1_555
O23 Zr4 2.091287 1_555
O24 Si1 1.613548 1_555
O24 Zr5 2.004607 1_556
O25 Si2 1.618031 1_555
O25 Zr5 2.023982 1_556
O26 P11 1.519033 1_555
O26 Zr5 2.130406 1_556
O27 P12 1.560580 1_555
O27 Zr6 2.112137 1_555
O28 P13 1.542841 1_555
O28 Zr6 2.074949 1_555
O29 P14 1.562403 1_555
O29 Zr6 2.046766 1_555
O30 P14 1.572143 1_555
O30 Zr7 2.079298 1_555
O31 P12 1.579340 1_555
O31 Zr7 2.077238 1_555
O32 P13 1.566608 1_555
O32 Zr7 2.064520 1_555
O33 Si2 1.660589 1_555
O33 Zr8 1.986969 1_555
O34 P11 1.567186 1_555
O34 Zr8 2.070184 1_555
O35 Si1 1.666113 1_555
O35 Zr8 1.991285 1_555
O36 P14 1.521807 1_555
O36 Zn0 2.231358 1_455
O37 P12 1.503954 1_555
O37 Zn0 2.163818 1_555
O38 P13 1.520758 1_555
O38 Zn0 2.238000 1_445
O39 Si2 1.643367 1_555
O39 Zr0 2.041641 1_445
O40 P11 1.553376 1_555
O40 Zr0 2.125350 1_455
O41 Si1 1.626118 1_555
O41 Zr0 2.003081 1_555
O42 P6 1.566877 1_555
O42 Zr1 2.129048 1_655
O43 Si0 1.643683 1_555
O43 Zr1 1.987694 1_555
O44 P7 1.567343 1_555
O44 Zr1 2.122200 1_665
O45 P8 1.563349 1_555
O45 Zr2 2.104101 1_665
O46 P9 1.567818 1_555
O46 Zr2 2.100741 1_655
O47 P10 1.567996 1_555
O47 Zr2 2.107061 1_555
O48 P5 1.534945 1_555
O48 Zn1 2.350311 1_555
O49 P3 1.533584 1_555
O49 Zn1 2.340684 1_555
O50 P4 1.533240 1_555
O50 Zn1 2.335132 1_555
O51 P1 1.547174 1_555
O51 Zn2 2.302862 1_555
O52 P2 1.546314 1_555
O52 Zn2 2.312156 1_555
O53 P0 1.543817 1_555
O53 Zn2 2.352834 1_555
O54 Si1 1.629663 1_555
O54 Zr3 2.108697 1_555
O55 Si2 1.615508 1_655
O55 Zr3 2.056866 1_555
O56 P11 1.540240 1_545
O56 Zr3 2.212506 1_555
O57 P12 1.570371 1_545
O57 Zr4 2.181424 1_555
O58 P13 1.570069 1_555
O58 Zr4 2.141448 1_555
O59 P14 1.542414 1_655
O59 Zr4 2.166032 1_555
O60 P10 1.559464 1_555
O60 Zr5 2.127527 1_555
O61 P8 1.546752 1_455
O61 Zr5 2.168273 1_555
O62 P9 1.549813 1_565
O62 Zr5 2.152420 1_555
O63 Si0 1.656061 1_565
O63 Zr6 2.063881 1_555
O64 P7 1.559793 1_555
O64 Zr6 2.158638 1_555
O65 P6 1.545358 1_455
O65 Zr6 2.128102 1_555
O66 P0 1.592516 1_565
O66 Zr7 2.152689 1_555
O67 P1 1.596425 1_555
O67 Zr7 2.146923 1_555
O68 P2 1.593880 1_455
O68 Zr7 2.136325 1_555
O69 P3 1.573203 1_555
O69 Zr8 2.214399 1_555
O70 P4 1.567144 1_455
O70 Zr8 2.231435 1_555
O71 P5 1.568965 1_565
O71 Zr8 2.242752 1_555
