# generated using pymatgen
data_CsAuCl3
_symmetry_space_group_name_H-M   'P 1'
_cell_length_a   7.46498905
_cell_length_b   7.46498961
_cell_length_c   7.61568960
_cell_angle_alpha   119.34753832
_cell_angle_beta   119.34754700
_cell_angle_gamma   90.00000305
_symmetry_Int_Tables_number   1
_chemical_formula_structural   CsAuCl3
_chemical_formula_sum   'Cs2 Au2 Cl6'
_cell_volume   305.91375360
_cell_formula_units_Z   2
loop_
 _symmetry_equiv_pos_site_id
 _symmetry_equiv_pos_as_xyz
  1  'x, y, z'
loop_
 _atom_site_type_symbol
 _atom_site_label
 _atom_site_symmetry_multiplicity
 _atom_site_fract_x
 _atom_site_fract_y
 _atom_site_fract_z
 _atom_site_occupancy
  Cs  Cs0  1  0.75000000  0.25000000  0.50000000  1
  Cs  Cs1  1  0.25000000  0.75000000  0.50000000  1
  Au  Au0  1  0.50000000  0.50000000  0.00000000  1
  Au  Au1  1  0.00000000  0.00000000  0.00000000  1
  Cl  Cl0  1  0.29007867  0.29007867  0.58015734  1
  Cl  Cl1  1  0.70992133  0.70992133  0.41984266  1
  Cl  Cl2  1  0.77856438  0.77856438  0.00000000  1
  Cl  Cl3  1  0.22143562  0.77856438  0.00000000  1
  Cl  Cl4  1  0.22143562  0.22143562  -0.00000000  1
  Cl  Cl5  1  0.77856438  0.22143562  -0.00000000  1
loop_
_geom_bond_atom_site_label_1
_geom_bond_atom_site_label_2
_geom_bond_distance
_geom_bond_site_symmetry_2
Au0 Cl1 2.304768 1_555
Au0 Cl0 2.304768 1_554
Au0 Cl4 2.940829 1_555
Au0 Cl2 2.940829 1_555
Au0 Cl5 2.940829 1_555
Au0 Cl3 2.940829 1_555
Au1 Cl2 2.337716 1_445
Au1 Cl4 2.337716 1_555
Au1 Cl3 2.337716 1_545
Au1 Cl5 2.337716 1_455
Cl0 Cs0 3.758343 1_455
Cl0 Cs0 3.758343 1_555
Cl0 Cs1 3.758343 1_555
Cl0 Cs1 3.758343 1_545
Cl1 Cs1 3.758343 1_655
Cl1 Cs1 3.758343 1_555
Cl1 Cs0 3.758343 1_555
Cl1 Cs0 3.758343 1_565
Cl2 Cs1 3.819767 1_554
Cl2 Cs1 3.819767 1_655
Cl2 Cs0 3.819767 1_565
Cl2 Cs0 3.819767 1_554
Cl3 Cs0 3.819767 1_565
Cl3 Cs1 3.819767 1_555
Cl3 Cs1 3.819767 1_554
Cl3 Cs0 3.819767 1_454
Cl4 Cs0 3.819767 1_555
Cl4 Cs0 3.819767 1_454
Cl4 Cs1 3.819767 1_544
Cl4 Cs1 3.819767 1_555
Cl5 Cs1 3.819767 1_544
Cl5 Cs0 3.819767 1_554
Cl5 Cs0 3.819767 1_555
Cl5 Cs1 3.819767 1_655
