# generated using pymatgen
data_Na2La2MgTi3O10
_symmetry_space_group_name_H-M   'P 1'
_cell_length_a   3.95708099
_cell_length_b   3.95708178
_cell_length_c   13.92120593
_cell_angle_alpha   98.17078640
_cell_angle_beta   98.17078890
_cell_angle_gamma   89.99999788
_symmetry_Int_Tables_number   1
_chemical_formula_structural   Na2La2MgTi3O10
_chemical_formula_sum   'Na2 La2 Mg1 Ti3 O10'
_cell_volume   213.53656635
_cell_formula_units_Z   1
loop_
 _symmetry_equiv_pos_site_id
 _symmetry_equiv_pos_as_xyz
  1  'x, y, z'
loop_
 _atom_site_type_symbol
 _atom_site_label
 _atom_site_symmetry_multiplicity
 _atom_site_fract_x
 _atom_site_fract_y
 _atom_site_fract_z
 _atom_site_occupancy
  Na  Na0  1  0.68964800  0.68964800  0.37929600  1
  Na  Na1  1  0.31035200  0.31035200  0.62070400  1
  La  La0  1  0.57279200  0.57279200  0.14558400  1
  La  La1  1  0.42720800  0.42720800  0.85441600  1
  Mg  Mg0  1  0.25000000  0.75000000  0.50000000  1
  Ti  Ti0  1  0.85354700  0.85354700  0.70709500  1
  Ti  Ti1  1  0.14645300  0.14645300  0.29290500  1
  Ti  Ti2  1  0.00000000  0.00000000  0.00000000  1
  O  O0  1  0.86265200  0.36265200  0.72530500  1
  O  O1  1  0.35526700  0.85526700  0.71053500  1
  O  O2  1  0.14473300  0.64473300  0.28946500  1
  O  O3  1  0.63734800  0.13734800  0.27469500  1
  O  O4  1  0.77883800  0.77883800  0.55767500  1
  O  O5  1  0.22116200  0.22116200  0.44232500  1
  O  O6  1  0.00002700  0.50002700  0.00005400  1
  O  O7  1  0.07244800  0.07244800  0.14489500  1
  O  O8  1  0.92755200  0.92755200  0.85510500  1
  O  O9  1  0.49997300  0.99997300  0.99994600  1
loop_
_geom_bond_atom_site_label_1
_geom_bond_atom_site_label_2
_geom_bond_distance
_geom_bond_site_symmetry_2
Na0 O2 2.327085 1_555
Na0 O2 2.327089 1_655
Na0 O4 2.432574 1_555
Na0 O3 2.439137 1_555
Na0 O3 2.439140 1_565
Na1 O1 2.327086 1_555
Na1 O1 2.327089 1_545
Na1 O5 2.432574 1_555
Na1 O0 2.439137 1_555
Na1 O0 2.439140 1_455
La0 O3 2.648525 1_555
La0 O3 2.648528 1_565
La0 O2 2.786491 1_555
La0 O2 2.786494 1_655
La0 O7 2.798092 1_555
La0 O7 2.798095 1_565
La0 O7 2.798095 1_655
La0 O7 2.798098 1_665
La0 O6 2.802373 1_555
La0 O6 2.802373 1_655
La0 O9 2.803416 1_544
La0 O9 2.803416 1_554
La1 O0 2.648525 1_555
La1 O0 2.648527 1_455
La1 O1 2.786491 1_555
La1 O1 2.786494 1_545
La1 O8 2.798092 1_555
La1 O8 2.798095 1_545
La1 O8 2.798095 1_455
La1 O8 2.798098 1_445
La1 O9 2.802373 1_555
La1 O9 2.802373 1_545
La1 O6 2.803416 1_656
La1 O6 2.803416 1_556
Mg0 O4 2.129138 1_455
Mg0 O5 2.129138 1_565
Mg0 O4 2.129142 1_555
Mg0 O5 2.129142 1_555
O0 Ti0 1.994064 1_545
O0 Ti0 1.994064 1_555
O1 Ti0 1.979097 1_455
O1 Ti0 1.979097 1_555
O2 Ti1 1.979097 1_565
O2 Ti1 1.979097 1_555
O3 Ti1 1.994064 1_655
O3 Ti1 1.994064 1_555
O4 Ti0 2.037657 1_555
O5 Ti1 2.037657 1_555
O6 Ti2 1.978541 1_555
O6 Ti2 1.978541 1_565
O7 Ti2 1.975949 1_555
O7 Ti1 2.018428 1_555
O8 Ti2 1.975949 1_666
O8 Ti0 2.018428 1_555
O9 Ti2 1.978541 1_666
O9 Ti2 1.978541 1_566
