# generated using pymatgen
data_Na6Mg4Ti4Si3(S3O16)3
_symmetry_space_group_name_H-M   'P 1'
_cell_length_a   17.53847203
_cell_length_b   8.71480785
_cell_length_c   22.44678031
_cell_angle_alpha   89.94145680
_cell_angle_beta   90.13965557
_cell_angle_gamma   119.92235795
_symmetry_Int_Tables_number   1
_chemical_formula_structural   Na6Mg4Ti4Si3(S3O16)3
_chemical_formula_sum   'Na18 Mg12 Ti12 Si9 S27 O144'
_cell_volume   2973.52918834
_cell_formula_units_Z   3
loop_
 _symmetry_equiv_pos_site_id
 _symmetry_equiv_pos_as_xyz
  1  'x, y, z'
loop_
 _atom_site_type_symbol
 _atom_site_label
 _atom_site_symmetry_multiplicity
 _atom_site_fract_x
 _atom_site_fract_y
 _atom_site_fract_z
 _atom_site_occupancy
  Na  Na0  1  0.99825547  0.63406195  0.25152582  1
  Na  Na1  1  0.49896256  0.62624061  0.24432511  1
  Na  Na2  1  0.00070527  0.37058846  0.74419739  1
  Na  Na3  1  0.49911417  0.36582233  0.75105157  1
  Na  Na4  1  0.67287781  0.31987200  0.91219383  1
  Na  Na5  1  0.17081959  0.02974151  0.41542230  1
  Na  Na6  1  0.99247210  0.00131036  0.50231322  1
  Na  Na7  1  0.50078927  0.00261823  0.50038631  1
  Na  Na8  1  0.99844885  0.99388356  0.99426359  1
  Na  Na9  1  0.49272697  0.98371013  0.99762811  1
  Na  Na10  1  0.31506717  0.31305911  0.83231441  1
  Na  Na11  1  0.83620132  0.35222910  0.83591338  1
  Na  Na12  1  0.33315815  0.31806205  0.33795751  1
  Na  Na13  1  0.82193113  0.32759675  0.33885616  1
  Na  Na14  1  0.17598337  0.66009777  0.16332630  1
  Na  Na15  1  0.66664273  0.66274730  0.16363148  1
  Na  Na16  1  0.16573782  0.66078530  0.67023602  1
  Na  Na17  1  0.67856944  0.69481975  0.66541241  1
  Mg  Mg0  1  0.99510265  0.99856294  0.35284029  1
  Mg  Mg1  1  0.49551776  0.99156329  0.85205224  1
  Mg  Mg2  1  0.32340017  0.32616335  0.68700698  1
  Mg  Mg3  1  0.83488417  0.32821789  0.68079145  1
  Mg  Mg4  1  0.33311434  0.33901067  0.18069926  1
  Mg  Mg5  1  0.82901043  0.32809481  0.18381934  1
  Mg  Mg6  1  0.83795709  0.34005612  0.98168012  1
  Mg  Mg7  1  0.33764868  0.33658060  0.48239407  1
  Mg  Mg8  1  0.17113238  0.66940674  0.31574560  1
  Mg  Mg9  1  0.67251140  0.66494517  0.31576551  1
  Mg  Mg10  1  0.17112568  0.67509137  0.81193390  1
  Mg  Mg11  1  0.67374676  0.67563376  0.81488278  1
  Ti  Ti0  1  0.50079653  0.01624584  0.36287062  1
  Ti  Ti1  1  0.00939873  0.99504559  0.85893017  1
  Ti  Ti2  1  0.00299274  0.02458986  0.64731994  1
  Ti  Ti3  1  0.50540459  0.99847506  0.64546625  1
  Ti  Ti4  1  0.00571388  0.01239150  0.14416984  1
  Ti  Ti5  1  0.49731373  0.98585303  0.14282493  1
  Ti  Ti6  1  0.32387635  0.33659554  0.98437572  1
  Ti  Ti7  1  0.82388038  0.31314253  0.48627669  1
  Ti  Ti8  1  0.16392933  0.66426455  0.01596863  1
  Ti  Ti9  1  0.67025501  0.67370102  0.01623427  1
  Ti  Ti10  1  0.17019986  0.66684148  0.51916708  1
  Ti  Ti11  1  0.66625174  0.65980946  0.51889084  1
  Si  Si0  1  0.14871070  0.29637608  0.75363170  1
  Si  Si1  1  0.98041160  0.34067479  0.58468016  1
  Si  Si2  1  0.68752308  0.03333297  0.58683388  1
  Si  Si3  1  0.48136676  0.61452265  0.08539091  1
  Si  Si4  1  0.18874825  0.34420689  0.08658996  1
  Si  Si5  1  0.81423966  0.66627715  0.91368523  1
  Si  Si6  1  0.17415317  0.96166446  0.91477942  1
  Si  Si7  1  0.30977234  0.96044778  0.41491375  1
  Si  Si8  1  0.67451846  0.38446893  0.41494806  1
  S  S0  1  0.14647251  0.00292450  0.25041548  1
  S  S1  1  0.64406006  0.00218316  0.25035590  1
  S  S2  1  0.35636455  0.71364905  0.25118142  1
  S  S3  1  0.85448455  0.71140893  0.24778455  1
  S  S4  1  0.99911998  0.29068247  0.24950007  1
  S  S5  1  0.49914427  0.28515868  0.25027431  1
  S  S6  1  0.64665555  0.29037110  0.75059549  1
  S  S7  1  0.99694719  0.71243445  0.74951643  1
  S  S8  1  0.50133670  0.70945423  0.74967822  1
  S  S9  1  0.35710246  0.99916904  0.74763970  1
  S  S10  1  0.85481036  0.99893070  0.75103252  1
  S  S11  1  0.48004800  0.33328864  0.58623253  1
  S  S12  1  0.18507804  0.03734014  0.58215450  1
  S  S13  1  0.33431998  0.62657208  0.58374456  1
  S  S14  1  0.83310045  0.62432031  0.58296880  1
  S  S15  1  0.98058792  0.62783828  0.08646461  1
  S  S16  1  0.33290602  0.04068375  0.08398039  1
  S  S17  1  0.83383621  0.04136521  0.08436581  1
  S  S18  1  0.68537649  0.33208068  0.08356869  1
  S  S19  1  0.31226669  0.66803764  0.91640480  1
  S  S20  1  0.02068436  0.37536692  0.91507686  1
  S  S21  1  0.51888862  0.37581845  0.91527470  1
  S  S22  1  0.66554573  0.95816665  0.91627434  1
  S  S23  1  0.81207168  0.95697472  0.41647538  1
  S  S24  1  0.16573348  0.37384511  0.41635225  1
  S  S25  1  0.01919411  0.66263855  0.41497829  1
  S  S26  1  0.52190424  0.66710798  0.41412153  1
  O  O0  1  0.10480206  0.02051729  0.30526845  1
  O  O1  1  0.60119762  0.02218390  0.30353487  1
  O  O2  1  0.41294059  0.80678342  0.30292128  1
  O  O3  1  0.90886638  0.79009164  0.30169193  1
  O  O4  1  0.49371190  0.18183542  0.30497800  1
  O  O5  1  0.98816517  0.18542248  0.30284625  1
  O  O6  1  0.09019233  0.16380443  0.80912429  1
  O  O7  1  0.60502543  0.18918005  0.80565676  1
  O  O8  1  0.48982523  0.79224787  0.80293175  1
  O  O9  1  0.98771241  0.79620668  0.80514378  1
  O  O10  1  0.41106971  0.02784687  0.80177711  1
  O  O11  1  0.90865863  0.01592856  0.80342457  1
  O  O12  1  0.40475228  0.98094578  0.69479756  1
  O  O13  1  0.89716038  0.97889128  0.69497413  1
  O  O14  1  0.08239905  0.18964483  0.69330463  1
  O  O15  1  0.58716313  0.18995099  0.69810752  1
  O  O16  1  0.00378305  0.81807168  0.69603597  1
  O  O17  1  0.51095649  0.81999225  0.69528903  1
  O  O18  1  0.40152442  0.82011316  0.19559404  1
  O  O19  1  0.90188500  0.82048403  0.19456988  1
  O  O20  1  0.00856508  0.20071859  0.19521374  1
  O  O21  1  0.50805054  0.19547211  0.19693762  1
  O  O22  1  0.08705780  0.98460304  0.19791385  1
  O  O23  1  0.58784023  0.97769726  0.19588152  1
  O  O24  1  0.44195386  0.35906544  0.64087569  1
  O  O25  1  0.95006360  0.37959160  0.64688374  1
  O  O26  1  0.24089711  0.11903121  0.63426290  1
  O  O27  1  0.74301493  0.11086985  0.64509656  1
  O  O28  1  0.32286024  0.52096600  0.63683866  1
  O  O29  1  0.81549287  0.51846517  0.63675822  1
  O  O30  1  0.44962061  0.52008784  0.14863841  1
  O  O31  1  0.94257809  0.52626615  0.14184083  1
  O  O32  1  0.31879496  0.11477838  0.13813836  1
  O  O33  1  0.82151625  0.12200387  0.13813407  1
  O  O34  1  0.24321839  0.37526681  0.14540828  1
  O  O35  1  0.73974014  0.35882240  0.13646866  1
  O  O36  1  0.22941769  0.29990856  0.02680451  1
  O  O37  1  0.72082782  0.29751561  0.02942029  1
  O  O38  1  0.41387408  0.52180357  0.02940297  1
  O  O39  1  0.92603313  0.54578679  0.03427286  1
  O  O40  1  0.34876450  0.15116207  0.03076834  1
  O  O41  1  0.84827377  0.14766827  0.03092687  1
  O  O42  1  0.22156257  0.14210745  0.52737381  1
  O  O43  1  0.72814303  0.15851698  0.52670129  1
  O  O44  1  0.34877083  0.55162439  0.52945437  1
  O  O45  1  0.84423707  0.53845369  0.52930984  1
  O  O46  1  0.42666383  0.30691756  0.53316206  1
  O  O47  1  0.91316483  0.30798091  0.52840100  1
  O  O48  1  0.26778878  0.68641947  0.97073887  1
  O  O49  1  0.76126378  0.69438536  0.97370911  1
  O  O50  1  0.07797818  0.46626113  0.96925982  1
  O  O51  1  0.57992595  0.46901365  0.96692207  1
  O  O52  1  0.15788062  0.83438271  0.97491711  1
  O  O53  1  0.65196150  0.84601294  0.97064334  1
  O  O54  1  0.26228252  0.82979043  0.47385185  1
  O  O55  1  0.76668580  0.84688380  0.46976510  1
  O  O56  1  0.15295487  0.45914770  0.47004887  1
  O  O57  1  0.65554765  0.47602318  0.47400914  1
  O  O58  1  0.08022135  0.69225152  0.46598622  1
  O  O59  1  0.57838838  0.69293350  0.46709337  1
  O  O60  1  0.05500360  0.63644610  0.35843459  1
  O  O61  1  0.56003910  0.64426446  0.35870526  1
  O  O62  1  0.24740189  0.87818488  0.35838547  1
  O  O63  1  0.76093686  0.88381513  0.36173433  1
  O  O64  1  0.17451013  0.47386876  0.36191511  1
  O  O65  1  0.68778740  0.49126469  0.35576253  1
  O  O66  1  0.05947083  0.47805468  0.86104703  1
  O  O67  1  0.55497085  0.47422870  0.85920540  1
  O  O68  1  0.18845805  0.87758786  0.85723510  1
  O  O69  1  0.67361221  0.87430271  0.86247846  1
  O  O70  1  0.26176552  0.64059342  0.86247136  1
  O  O71  1  0.74536223  0.61335996  0.86010086  1
  O  O72  1  0.01508098  0.83047372  0.41192677  1
  O  O73  1  0.51553976  0.83270992  0.41014089  1
  O  O74  1  0.40831059  0.97204915  0.40881179  1
  O  O75  1  0.89990605  0.97234470  0.41356456  1
  O  O76  1  0.08718685  0.19138854  0.41330435  1
  O  O77  1  0.58332002  0.18243470  0.41040952  1
  O  O78  1  0.01481819  0.19973669  0.91380002  1
  O  O79  1  0.51537444  0.20028761  0.91290665  1
  O  O80  1  0.08424160  0.98052146  0.91317019  1
  O  O81  1  0.58710050  0.98321558  0.91377391  1
  O  O82  1  0.40090842  0.82817013  0.91426066  1
  O  O83  1  0.90899589  0.84985223  0.90842008  1
  O  O84  1  0.49100430  0.17239652  0.59200460  1
  O  O85  1  0.98835261  0.15628811  0.58875006  1
  O  O86  1  0.09450256  0.01090941  0.59037968  1
  O  O87  1  0.58693428  0.01350288  0.59369406  1
  O  O88  1  0.41269357  0.81041293  0.59074239  1
  O  O89  1  0.91240414  0.80177071  0.58746770  1
  O  O90  1  0.49040045  0.82026369  0.09307105  1
  O  O91  1  0.99057022  0.80998188  0.09246396  1
  O  O92  1  0.41429322  0.02123410  0.09013304  1
  O  O93  1  0.91259025  0.01652895  0.09193485  1
  O  O94  1  0.08752261  0.16161068  0.09397044  1
  O  O95  1  0.59433978  0.17402382  0.09277021  1
  O  O96  1  0.35248279  0.16387204  0.74041329  1
  O  O97  1  0.84994332  0.16415636  0.74772364  1
  O  O98  1  0.24121980  0.30537012  0.74913267  1
  O  O99  1  0.73419333  0.31404844  0.74400565  1
  O  O100  1  0.42457491  0.53091897  0.74205483  1
  O  O101  1  0.91729522  0.53371122  0.74733121  1
  O  O102  1  0.35085144  0.53869769  0.24838406  1
  O  O103  1  0.84630090  0.53239201  0.24187183  1
  O  O104  1  0.41820544  0.29831900  0.24885041  1
  O  O105  1  0.92095953  0.31372310  0.24283790  1
  O  O106  1  0.23445618  0.15518304  0.24395157  1
  O  O107  1  0.73186871  0.15877391  0.24357977  1
  O  O108  1  0.32300250  0.50833464  0.92395126  1
  O  O109  1  0.82347933  0.49372073  0.92599950  1
  O  O110  1  0.43158138  0.35366839  0.92525562  1
  O  O111  1  0.93331007  0.35407797  0.92483224  1
  O  O112  1  0.25921316  0.15892746  0.92857019  1
  O  O113  1  0.74490362  0.13327787  0.92431431  1
  O  O114  1  0.32335834  0.15493034  0.42520593  1
  O  O115  1  0.82277899  0.13735790  0.42358616  1
  O  O116  1  0.24507854  0.35671003  0.42369418  1
  O  O117  1  0.75812086  0.35553546  0.42712567  1
  O  O118  1  0.43336262  0.51524887  0.42264543  1
  O  O119  1  0.93146554  0.50909718  0.42404306  1
  O  O120  1  0.17042359  0.50617972  0.07162522  1
  O  O121  1  0.67418630  0.49023092  0.07724822  1
  O  O122  1  0.07047864  0.65175518  0.07984124  1
  O  O123  1  0.58091479  0.65556254  0.06988707  1
  O  O124  1  0.25684315  0.85838545  0.07602626  1
  O  O125  1  0.75440187  0.86103425  0.07849835  1
  O  O126  1  0.17470353  0.85582202  0.57559242  1
  O  O127  1  0.66998476  0.83505009  0.56986658  1
  O  O128  1  0.25421608  0.64618144  0.57810462  1
  O  O129  1  0.75473756  0.65177488  0.57434195  1
  O  O130  1  0.07966260  0.50386859  0.56717682  1
  O  O131  1  0.57044160  0.49100302  0.57926481  1
  O  O132  1  0.14661971  0.83191998  0.24961630  1
  O  O133  1  0.64936849  0.83691554  0.25335261  1
  O  O134  1  0.26912361  0.69762526  0.25274129  1
  O  O135  1  0.76799673  0.69932971  0.25013236  1
  O  O136  1  0.07893735  0.46940674  0.25202673  1
  O  O137  1  0.57706475  0.46633497  0.25295356  1
  O  O138  1  0.14743003  0.47978903  0.75375007  1
  O  O139  1  0.64641203  0.46127801  0.74984078  1
  O  O140  1  0.07636948  0.69490277  0.75270157  1
  O  O141  1  0.58192806  0.69395027  0.75240181  1
  O  O142  1  0.27051030  0.84166582  0.74974353  1
  O  O143  1  0.76608227  0.84112447  0.75275983  1
loop_
_geom_bond_atom_site_label_1
_geom_bond_atom_site_label_2
_geom_bond_distance
_geom_bond_site_symmetry_2
Na0 O132 2.295655 1_655
Na0 O103 2.361421 1_555
Na0 O105 2.427656 1_555
Na0 O136 2.467208 1_655
Na0 O60 2.591847 1_655
Na0 O31 2.641153 1_555
Na0 O3 2.777290 1_555
Na0 O22 2.908816 1_655
Na1 O102 2.315592 1_555
Na1 O30 2.326866 1_555
Na1 O133 2.353035 1_555
Na1 O137 2.399659 1_555
Na1 O104 2.478960 1_555
Na1 O61 2.753826 1_555
Na1 O23 2.869106 1_555
Na1 O2 2.977219 1_555
Na2 O138 2.264552 1_555
Na2 O97 2.342910 1_455
Na2 O25 2.371969 1_455
Na2 O140 2.458387 1_555
Na2 O101 2.498263 1_455
Na2 O66 2.801396 1_555
Na2 O14 2.847837 1_555
Na3 O139 2.285365 1_555
Na3 O96 2.291395 1_555
Na3 O100 2.386329 1_555
Na3 O141 2.478711 1_555
Na3 O67 2.610698 1_555
Na3 O24 2.655935 1_555
Na3 O10 2.796510 1_555
Na3 O15 2.918924 1_555
Na4 O109 2.317891 1_555
Na4 O79 2.417674 1_555
Na4 O71 2.506486 1_555
Na4 O113 2.522067 1_555
Na4 O81 2.543400 1_545
Na4 O7 2.659273 1_555
Na4 O37 2.796579 1_556
Na4 O51 2.825432 1_555
Na5 O114 2.341250 1_555
Na5 O72 2.397823 1_545
Na5 O116 2.479448 1_555
Na5 O76 2.489821 1_555
Na5 O62 2.639946 1_545
Na5 O42 2.681521 1_555
Na5 O0 2.711902 1_555
Na5 O58 2.793384 1_545
Na6 O85 2.386885 1_555
Na6 O89 2.493914 1_545
Na6 O75 2.498865 1_545
Na6 O76 2.599893 1_655
Na6 O86 2.636414 1_655
Na6 O72 2.662558 1_645
Na7 O77 2.524842 1_555
Na7 O74 2.545728 1_545
Na7 O87 2.553513 1_555
Na7 O84 2.590216 1_555
Na7 O88 2.594791 1_545
Na7 O73 2.598815 1_545
Na8 O83 2.403216 1_555
Na8 O80 2.404087 1_655
Na8 O78 2.458659 1_665
Na8 O91 2.686974 1_556
Na8 O94 2.701425 1_666
Na8 O93 2.725172 1_566
Na9 O82 2.396933 1_555
Na9 O81 2.510938 1_555
Na9 O90 2.560590 1_556
Na9 O79 2.566152 1_565
Na9 O92 2.602869 1_566
Na9 O95 2.743644 1_566
Na10 O98 2.251696 1_555
Na10 O112 2.474643 1_555
Na10 O108 2.629824 1_555
Na10 O96 2.690670 1_555
Na10 O100 2.787730 1_555
Na10 O110 2.812944 1_555
Na11 O109 2.437436 1_555
Na11 O101 2.498224 1_555
Na11 O111 2.615501 1_555
Na11 O99 2.637629 1_555
Na11 O97 2.658240 1_555
Na11 O113 2.664947 1_555
Na12 O114 2.374521 1_555
Na12 O104 2.554687 1_555
Na12 O118 2.575412 1_555
Na12 O116 2.595849 1_555
Na12 O106 2.645949 1_555
Na12 O102 2.689976 1_555
Na13 O117 2.349724 1_555
Na13 O115 2.526684 1_555
Na13 O119 2.608751 1_555
Na13 O107 2.627718 1_555
Na13 O103 2.709770 1_555
Na13 O105 2.811533 1_555
Na14 O120 2.433091 1_555
Na14 O134 2.501228 1_555
Na14 O124 2.529642 1_555
Na14 O122 2.605794 1_555
Na14 O136 2.609744 1_555
Na14 O132 2.653160 1_555
Na15 O121 2.498666 1_555
Na15 O125 2.522105 1_555
Na15 O135 2.539804 1_555
Na15 O123 2.565810 1_555
Na15 O137 2.596846 1_555
Na15 O133 2.630518 1_555
Na16 O138 2.365785 1_555
Na16 O142 2.479214 1_555
Na16 O140 2.540043 1_555
Na16 O128 2.629497 1_555
Na16 O126 2.674809 1_555
Na16 O130 2.725890 1_555
Na17 O143 2.421510 1_555
Na17 O127 2.508487 1_555
Na17 O129 2.572744 1_555
Na17 O141 2.586300 1_555
Na17 O139 2.627573 1_555
Na17 O131 2.668193 1_555
Mg0 O5 2.029595 1_565
Mg0 O3 2.039815 1_555
Mg0 O75 2.080287 1_555
Mg0 O0 2.126230 1_665
Mg0 O72 2.129204 1_655
Mg0 O76 2.135560 1_665
Mg1 O10 2.006367 1_565
Mg1 O8 2.018219 1_555
Mg1 O82 2.093035 1_555
Mg1 O7 2.108418 1_565
Mg1 O81 2.147147 1_555
Mg1 O79 2.160255 1_565
Mg2 O98 1.950292 1_555
Mg2 O26 2.035701 1_555
Mg2 O28 2.040192 1_555
Mg2 O96 2.100215 1_555
Mg2 O100 2.166683 1_555
Mg2 O24 2.211979 1_555
Mg3 O27 1.943687 1_555
Mg3 O25 1.991218 1_555
Mg3 O29 2.097384 1_555
Mg3 O97 2.177530 1_555
Mg3 O101 2.222528 1_555
Mg3 O99 2.222973 1_555
Mg4 O34 1.924460 1_555
Mg4 O30 1.992819 1_555
Mg4 O32 2.075446 1_555
Mg4 O106 2.195030 1_555
Mg4 O102 2.212802 1_555
Mg4 O104 2.282295 1_555
Mg5 O33 2.015506 1_555
Mg5 O35 2.015512 1_555
Mg5 O107 2.092480 1_555
Mg5 O31 2.100428 1_555
Mg5 O103 2.103342 1_555
Mg5 O105 2.135907 1_555
Mg6 O109 1.937579 1_555
Mg6 O39 2.055902 1_556
Mg6 O111 2.060628 1_555
Mg6 O41 2.088941 1_556
Mg6 O113 2.151597 1_555
Mg6 O37 2.180812 1_556
Mg7 O114 1.955369 1_555
Mg7 O46 2.048447 1_555
Mg7 O44 2.074701 1_555
Mg7 O118 2.107168 1_555
Mg7 O42 2.144990 1_555
Mg7 O116 2.162411 1_555
Mg8 O62 1.893428 1_555
Mg8 O64 2.019462 1_555
Mg8 O60 2.138746 1_555
Mg8 O134 2.145622 1_555
Mg8 O136 2.209146 1_555
Mg8 O132 2.234749 1_555
Mg9 O65 1.889288 1_555
Mg9 O63 2.037921 1_555
Mg9 O61 2.122936 1_555
Mg9 O135 2.138985 1_555
Mg9 O137 2.211070 1_555
Mg9 O133 2.230099 1_555
Mg10 O68 1.925520 1_555
Mg10 O138 2.017809 1_555
Mg10 O70 2.090854 1_555
Mg10 O142 2.139543 1_555
Mg10 O66 2.156534 1_555
Mg10 O140 2.198735 1_555
Mg11 O71 1.890784 1_555
Mg11 O69 2.036394 1_555
Mg11 O143 2.079391 1_555
Mg11 O67 2.183769 1_555
Mg11 O141 2.197889 1_555
Mg11 O139 2.227052 1_555
O0 S0 1.479939 1_555
O1 S1 1.468309 1_555
O1 Ti0 2.190368 1_555
O2 S2 1.478180 1_555
O2 Ti0 2.169342 1_565
O3 S3 1.479083 1_555
O4 S5 1.496792 1_555
O4 Ti0 1.990201 1_555
O5 S4 1.461274 1_555
O6 Si0 1.661343 1_555
O6 Ti1 1.829208 1_545
O7 S6 1.482615 1_555
O8 S8 1.462377 1_555
O9 S7 1.496386 1_555
O9 Ti1 1.987350 1_655
O10 S9 1.481244 1_545
O11 S10 1.467068 1_545
O11 Ti1 2.239803 1_645
O12 S9 1.506044 1_555
O12 Ti3 2.026302 1_555
O13 S10 1.516573 1_555
O13 Ti2 2.004846 1_665
O14 Si0 1.722539 1_555
O14 Ti2 1.752575 1_555
O15 S6 1.525720 1_555
O15 Ti3 1.960992 1_545
O16 S7 1.480317 1_455
O16 Ti2 2.110906 1_565
O17 S8 1.511094 1_555
O17 Ti3 1.956178 1_555
O18 S2 1.521307 1_555
O18 Ti5 1.974087 1_555
O19 S3 1.495211 1_555
O19 Ti4 2.088250 1_665
O20 S4 1.503164 1_455
O20 Ti4 1.982581 1_555
O21 S5 1.480980 1_555
O21 Ti5 2.123261 1_545
O22 S0 1.525975 1_565
O22 Ti4 1.971045 1_565
O23 S1 1.515808 1_565
O23 Ti5 2.011811 1_555
O24 S11 1.468191 1_555
O25 Si1 1.591407 1_555
O26 S12 1.460874 1_555
O27 Si2 1.566419 1_555
O28 S13 1.456766 1_555
O29 S14 1.455860 1_555
O30 Si3 1.595989 1_555
O31 S15 1.478555 1_555
O32 S16 1.455529 1_555
O33 S17 1.466869 1_555
O34 Si4 1.570241 1_555
O35 S18 1.465181 1_555
O36 Si4 1.655048 1_555
O36 Ti6 1.797898 1_554
O37 S18 1.464905 1_555
O38 Si3 1.635270 1_555
O38 Ti6 1.889977 1_554
O39 S15 1.453606 1_555
O40 S16 1.470760 1_555
O40 Ti6 2.141160 1_554
O41 S17 1.458222 1_555
O42 S12 1.474378 1_555
O43 Si2 1.657082 1_555
O43 Ti7 1.790579 1_555
O44 S13 1.464313 1_555
O45 S14 1.482456 1_555
O45 Ti7 2.053983 1_555
O46 S11 1.459105 1_555
O47 Si1 1.651149 1_555
O47 Ti7 1.846930 1_555
O48 S19 1.500457 1_555
O48 Ti8 2.010914 1_556
O49 Si5 1.724074 1_555
O49 Ti9 1.792039 1_556
O50 S20 1.522602 1_555
O50 Ti8 1.936530 1_556
O51 S21 1.509338 1_555
O51 Ti9 2.023155 1_556
O52 Si6 1.678413 1_555
O52 Ti8 1.792192 1_556
O53 S22 1.506032 1_555
O53 Ti9 1.970062 1_556
O54 Si7 1.672316 1_555
O54 Ti10 1.837522 1_555
O55 S23 1.491760 1_555
O55 Ti11 2.029151 1_555
O56 S24 1.491649 1_555
O56 Ti10 2.009857 1_555
O57 Si8 1.665542 1_555
O57 Ti11 1.821515 1_555
O58 S25 1.497396 1_555
O58 Ti10 2.074444 1_555
O59 S26 1.489374 1_555
O59 Ti11 2.060143 1_555
O60 S25 1.484915 1_555
O61 S26 1.473665 1_555
O62 Si7 1.591637 1_555
O63 S23 1.465069 1_555
O64 S24 1.463401 1_555
O65 Si8 1.571065 1_555
O66 S20 1.459090 1_555
O67 S21 1.476559 1_555
O68 Si6 1.566898 1_555
O69 S22 1.455377 1_555
O70 S19 1.446149 1_555
O71 Si5 1.599043 1_555
O72 S25 1.501426 1_555
O73 S26 1.504540 1_555
O73 Ti0 2.039329 1_565
O74 Si7 1.685972 1_555
O74 Ti0 1.796364 1_565
O75 S23 1.479833 1_555
O76 S24 1.498400 1_555
O77 Si8 1.690781 1_555
O77 Ti0 1.798729 1_555
O78 S20 1.482250 1_555
O78 Ti1 2.131399 1_545
O79 S21 1.500916 1_555
O80 Si6 1.665294 1_555
O80 Ti1 1.838208 1_555
O81 S22 1.497626 1_555
O82 S19 1.484080 1_555
O83 Si5 1.638091 1_555
O83 Ti1 1.928655 1_655
O84 S11 1.512622 1_555
O84 Ti3 2.043996 1_545
O85 Si1 1.683081 1_555
O85 Ti2 1.844160 1_655
O86 S12 1.498983 1_555
O86 Ti2 2.103537 1_555
O87 Si2 1.692039 1_555
O87 Ti3 1.798129 1_545
O88 S13 1.511067 1_555
O88 Ti3 2.043187 1_555
O89 S14 1.479860 1_555
O89 Ti2 2.239848 1_665
O90 Si3 1.728218 1_555
O90 Ti5 1.781159 1_555
O91 S15 1.513779 1_555
O91 Ti4 2.016046 1_665
O92 S16 1.525013 1_555
O92 Ti5 2.013171 1_545
O93 S17 1.510144 1_555
O93 Ti4 2.023091 1_655
O94 Si4 1.701157 1_555
O94 Ti4 1.778448 1_555
O95 S18 1.515315 1_555
O95 Ti5 2.017148 1_545
O96 S9 1.486137 1_545
O97 S10 1.486108 1_545
O98 Si0 1.588287 1_555
O99 S6 1.451390 1_555
O100 S8 1.473854 1_555
O101 S7 1.486257 1_555
O102 S2 1.480200 1_555
O103 S3 1.499686 1_555
O104 S5 1.480363 1_555
O105 S4 1.488409 1_555
O106 S0 1.456311 1_555
O107 S1 1.470087 1_555
O108 S19 1.503997 1_555
O108 Ti6 2.024486 1_555
O109 Si5 1.614348 1_555
O110 S21 1.462476 1_555
O110 Ti6 2.254526 1_555
O111 S20 1.465800 1_655
O112 Si6 1.648317 1_545
O112 Ti6 1.870260 1_555
O113 S22 1.476114 1_545
O114 Si7 1.606359 1_545
O115 S23 1.495926 1_545
O115 Ti7 2.074161 1_555
O116 S24 1.480586 1_555
O117 Si8 1.629407 1_555
O117 Ti7 1.909498 1_555
O118 S26 1.466336 1_555
O119 S25 1.465002 1_655
O119 Ti7 2.285024 1_555
O120 Si4 1.630868 1_555
O120 Ti8 1.903704 1_555
O121 S18 1.492494 1_555
O121 Ti9 2.131201 1_555
O122 S15 1.491407 1_455
O122 Ti8 2.141640 1_555
O123 Si3 1.636155 1_555
O123 Ti9 1.921525 1_555
O124 S16 1.490131 1_565
O124 Ti8 2.139730 1_555
O125 S17 1.497750 1_565
O125 Ti9 2.094652 1_555
O126 S12 1.506781 1_565
O126 Ti10 2.048609 1_555
O127 Si2 1.641993 1_565
O127 Ti11 1.883967 1_555
O128 S13 1.502527 1_555
O128 Ti10 2.051481 1_555
O129 S14 1.519965 1_555
O129 Ti11 2.015293 1_555
O130 Si1 1.655132 1_455
O130 Ti10 1.858817 1_555
O131 S11 1.501279 1_555
O131 Ti11 2.089305 1_555
O132 S0 1.491687 1_565
O133 S1 1.490347 1_565
O134 S2 1.465925 1_555
O135 S3 1.468268 1_555
O136 S4 1.487737 1_455
O137 S5 1.487047 1_555
O138 Si0 1.609735 1_555
O139 S6 1.491635 1_555
O140 S7 1.476674 1_455
O141 S8 1.486581 1_555
O142 S9 1.453705 1_555
O143 S10 1.476328 1_555
