# generated using pymatgen
data_MgTe4Mo3W(SeS)2
_symmetry_space_group_name_H-M   'P 1'
_cell_length_a   6.77662400
_cell_length_b   6.77671789
_cell_length_c   92.68873527
_cell_angle_alpha   90.01757144
_cell_angle_beta   90.00000000
_cell_angle_gamma   119.99952217
_symmetry_Int_Tables_number   1
_chemical_formula_structural   MgTe4Mo3W(SeS)2
_chemical_formula_sum   'Mg8 Te32 Mo24 W8 Se16 S16'
_cell_volume   3686.31503854
_cell_formula_units_Z   8
loop_
 _symmetry_equiv_pos_site_id
 _symmetry_equiv_pos_as_xyz
  1  'x, y, z'
loop_
 _atom_site_type_symbol
 _atom_site_label
 _atom_site_symmetry_multiplicity
 _atom_site_fract_x
 _atom_site_fract_y
 _atom_site_fract_z
 _atom_site_occupancy
  Mg  Mg0_0  1  0.00002500  0.00005000  0.27975000  1
  Mg  Mg0_1  1  0.00002500  0.00005000  0.77975000  1
  Mg  Mg0_2  1  0.00002500  0.50005000  0.27975000  1
  Mg  Mg0_3  1  0.00002500  0.50005000  0.77975000  1
  Mg  Mg0_4  1  0.50002500  0.00005000  0.27975000  1
  Mg  Mg0_5  1  0.50002500  0.00005000  0.77975000  1
  Mg  Mg0_6  1  0.50002500  0.50005000  0.27975000  1
  Mg  Mg0_7  1  0.50002500  0.50005000  0.77975000  1
  Te  Te0_0  1  0.16681300  0.33362700  0.35216850  1
  Te  Te0_1  1  0.16681300  0.33362700  0.85216850  1
  Te  Te0_2  1  0.16681300  0.83362700  0.35216850  1
  Te  Te0_3  1  0.16681300  0.83362700  0.85216850  1
  Te  Te0_4  1  0.66681300  0.33362700  0.35216850  1
  Te  Te0_5  1  0.66681300  0.33362700  0.85216850  1
  Te  Te0_6  1  0.66681300  0.83362700  0.35216850  1
  Te  Te0_7  1  0.66681300  0.83362700  0.85216850  1
  Te  Te1_0  1  0.33314500  0.16628950  0.02668950  1
  Te  Te1_1  1  0.33314500  0.16628950  0.52668950  1
  Te  Te1_2  1  0.33314500  0.66628950  0.02668950  1
  Te  Te1_3  1  0.33314500  0.66628950  0.52668950  1
  Te  Te1_4  1  0.83314500  0.16628950  0.02668950  1
  Te  Te1_5  1  0.83314500  0.16628950  0.52668950  1
  Te  Te1_6  1  0.83314500  0.66628950  0.02668950  1
  Te  Te1_7  1  0.83314500  0.66628950  0.52668950  1
  Te  Te2_0  1  0.33324850  0.16649550  0.06719300  1
  Te  Te2_1  1  0.33324850  0.16649550  0.56719300  1
  Te  Te2_2  1  0.33324850  0.66649550  0.06719300  1
  Te  Te2_3  1  0.33324850  0.66649550  0.56719300  1
  Te  Te2_4  1  0.83324850  0.16649550  0.06719300  1
  Te  Te2_5  1  0.83324850  0.16649550  0.56719300  1
  Te  Te2_6  1  0.83324850  0.66649550  0.06719300  1
  Te  Te2_7  1  0.83324850  0.66649550  0.56719300  1
  Te  Te3_0  1  0.16669500  0.33339050  0.31149450  1
  Te  Te3_1  1  0.16669500  0.33339050  0.81149450  1
  Te  Te3_2  1  0.16669500  0.83339050  0.31149450  1
  Te  Te3_3  1  0.16669500  0.83339050  0.81149450  1
  Te  Te3_4  1  0.66669500  0.33339050  0.31149450  1
  Te  Te3_5  1  0.66669500  0.33339050  0.81149450  1
  Te  Te3_6  1  0.66669500  0.83339050  0.31149450  1
  Te  Te3_7  1  0.66669500  0.83339050  0.81149450  1
  Mo  Mo0_0  1  0.16651050  0.33302100  0.04694400  1
  Mo  Mo0_1  1  0.16651050  0.33302100  0.54694400  1
  Mo  Mo0_2  1  0.16651050  0.83302100  0.04694400  1
  Mo  Mo0_3  1  0.16651050  0.83302100  0.54694400  1
  Mo  Mo0_4  1  0.66651050  0.33302100  0.04694400  1
  Mo  Mo0_5  1  0.66651050  0.33302100  0.54694400  1
  Mo  Mo0_6  1  0.66651050  0.83302100  0.04694400  1
  Mo  Mo0_7  1  0.66651050  0.83302100  0.54694400  1
  Mo  Mo1_0  1  0.33335100  0.16670200  0.14104700  1
  Mo  Mo1_1  1  0.33335100  0.16670200  0.64104700  1
  Mo  Mo1_2  1  0.33335100  0.66670200  0.14104700  1
  Mo  Mo1_3  1  0.33335100  0.66670200  0.64104700  1
  Mo  Mo1_4  1  0.83335100  0.16670200  0.14104700  1
  Mo  Mo1_5  1  0.83335100  0.16670200  0.64104700  1
  Mo  Mo1_6  1  0.83335100  0.66670200  0.14104700  1
  Mo  Mo1_7  1  0.83335100  0.66670200  0.64104700  1
  Mo  Mo2_0  1  0.33342150  0.16684300  0.33195400  1
  Mo  Mo2_1  1  0.33342150  0.16684300  0.83195400  1
  Mo  Mo2_2  1  0.33342150  0.66684300  0.33195400  1
  Mo  Mo2_3  1  0.33342150  0.66684300  0.83195400  1
  Mo  Mo2_4  1  0.83342150  0.16684300  0.33195400  1
  Mo  Mo2_5  1  0.83342150  0.16684300  0.83195400  1
  Mo  Mo2_6  1  0.83342150  0.66684300  0.33195400  1
  Mo  Mo2_7  1  0.83342150  0.66684300  0.83195400  1
  W  W0_0  1  0.16671150  0.33342350  0.23032350  1
  W  W0_1  1  0.16671150  0.33342350  0.73032350  1
  W  W0_2  1  0.16671150  0.83342350  0.23032350  1
  W  W0_3  1  0.16671150  0.83342350  0.73032350  1
  W  W0_4  1  0.66671150  0.33342350  0.23032350  1
  W  W0_5  1  0.66671150  0.33342350  0.73032350  1
  W  W0_6  1  0.66671150  0.83342350  0.23032350  1
  W  W0_7  1  0.66671150  0.83342350  0.73032350  1
  Se  Se0_0  1  0.16671800  0.33343600  0.15886650  1
  Se  Se0_1  1  0.16671800  0.33343600  0.65886650  1
  Se  Se0_2  1  0.16671800  0.83343600  0.15886650  1
  Se  Se0_3  1  0.16671800  0.83343600  0.65886650  1
  Se  Se0_4  1  0.66671800  0.33343600  0.15886650  1
  Se  Se0_5  1  0.66671800  0.33343600  0.65886650  1
  Se  Se0_6  1  0.66671800  0.83343600  0.15886650  1
  Se  Se0_7  1  0.66671800  0.83343600  0.65886650  1
  Se  Se1_0  1  0.16661600  0.33323250  0.12322450  1
  Se  Se1_1  1  0.16661600  0.33323250  0.62322450  1
  Se  Se1_2  1  0.16661600  0.83323250  0.12322450  1
  Se  Se1_3  1  0.16661600  0.83323250  0.62322450  1
  Se  Se1_4  1  0.66661600  0.33323250  0.12322450  1
  Se  Se1_5  1  0.66661600  0.33323250  0.62322450  1
  Se  Se1_6  1  0.66661600  0.83323250  0.12322450  1
  Se  Se1_7  1  0.66661600  0.83323250  0.62322450  1
  S  S0_0  1  0.33333000  0.16665950  0.21412200  1
  S  S0_1  1  0.33333000  0.16665950  0.71412200  1
  S  S0_2  1  0.33333000  0.66665950  0.21412200  1
  S  S0_3  1  0.33333000  0.66665950  0.71412200  1
  S  S0_4  1  0.83333000  0.16665950  0.21412200  1
  S  S0_5  1  0.83333000  0.16665950  0.71412200  1
  S  S0_6  1  0.83333000  0.66665950  0.21412200  1
  S  S0_7  1  0.83333000  0.66665950  0.71412200  1
  S  S1_0  1  0.33341550  0.16683000  0.24663750  1
  S  S1_1  1  0.33341550  0.16683000  0.74663750  1
  S  S1_2  1  0.33341550  0.66683000  0.24663750  1
  S  S1_3  1  0.33341550  0.66683000  0.74663750  1
  S  S1_4  1  0.83341550  0.16683000  0.24663750  1
  S  S1_5  1  0.83341550  0.16683000  0.74663750  1
  S  S1_6  1  0.83341550  0.66683000  0.24663750  1
  S  S1_7  1  0.83341550  0.66683000  0.74663750  1
loop_
_geom_bond_atom_site_label_1
_geom_bond_atom_site_label_2
_geom_bond_distance
_geom_bond_site_symmetry_2
Mg0_0 Mg0_4 3.388312 1_455
Mg0_0 Mg0_4 3.388312 1_555
Mg0_0 Mg0_2 3.388359 1_545
Mg0_0 Mg0_2 3.388359 1_555
Mg0_0 Mg0_6 3.388360 1_445
Mg0_0 Mg0_6 3.388360 1_555
Mg0_0 Te3_0 3.532787 1_555
Mg0_0 Te3_2 3.533601 1_545
Mg0_0 Te3_6 3.533603 1_445
Mg0_1 Mg0_5 3.388312 1_455
Mg0_1 Mg0_5 3.388312 1_555
Mg0_1 Mg0_3 3.388359 1_545
Mg0_1 Mg0_3 3.388359 1_555
Mg0_1 Mg0_7 3.388360 1_445
Mg0_1 Mg0_7 3.388360 1_555
Mg0_1 Te3_1 3.532787 1_555
Mg0_1 Te3_3 3.533601 1_545
Mg0_1 Te3_7 3.533603 1_445
Mg0_2 Mg0_6 3.388312 1_455
Mg0_2 Mg0_6 3.388312 1_555
Mg0_2 Mg0_4 3.388360 1_455
Mg0_2 Mg0_4 3.388360 1_565
Mg0_2 Te3_2 3.532787 1_555
Mg0_2 Te3_0 3.533601 1_555
Mg0_2 Te3_4 3.533603 1_455
Mg0_3 Mg0_7 3.388312 1_555
Mg0_3 Mg0_7 3.388312 1_455
Mg0_3 Mg0_5 3.388360 1_565
Mg0_3 Mg0_5 3.388360 1_455
Mg0_3 Te3_3 3.532787 1_555
Mg0_3 Te3_1 3.533601 1_555
Mg0_3 Te3_5 3.533603 1_455
Mg0_4 Mg0_6 3.388359 1_555
Mg0_4 Mg0_6 3.388359 1_545
Mg0_4 Te3_4 3.532787 1_555
Mg0_4 Te3_6 3.533601 1_545
Mg0_4 Te3_2 3.533603 1_545
Mg0_5 Mg0_7 3.388359 1_545
Mg0_5 Mg0_7 3.388359 1_555
Mg0_5 Te3_5 3.532787 1_555
Mg0_5 Te3_7 3.533601 1_545
Mg0_5 Te3_3 3.533603 1_545
Mg0_6 Te3_6 3.532787 1_555
Mg0_6 Te3_4 3.533601 1_555
Mg0_6 Te3_0 3.533603 1_555
Mg0_7 Te3_7 3.532787 1_555
Mg0_7 Te3_5 3.533601 1_555
Mg0_7 Te3_1 3.533603 1_555
Mo0_0 Te2_4 2.710935 1_455
Mo0_0 Te2_0 2.710941 1_555
Mo0_0 Te2_2 2.711135 1_555
Mo0_0 Te1_4 2.711246 1_455
Mo0_0 Te1_0 2.711248 1_555
Mo0_0 Te1_2 2.711575 1_555
Mo0_1 Te2_5 2.710935 1_455
Mo0_1 Te2_1 2.710941 1_555
Mo0_1 Te2_3 2.711135 1_555
Mo0_1 Te1_5 2.711246 1_455
Mo0_1 Te1_1 2.711248 1_555
Mo0_1 Te1_3 2.711575 1_555
Mo0_2 Te2_6 2.710935 1_455
Mo0_2 Te2_2 2.710941 1_555
Mo0_2 Te2_0 2.711135 1_565
Mo0_2 Te1_6 2.711246 1_455
Mo0_2 Te1_2 2.711248 1_555
Mo0_2 Te1_0 2.711575 1_565
Mo0_3 Te2_7 2.710935 1_455
Mo0_3 Te2_3 2.710941 1_555
Mo0_3 Te2_1 2.711135 1_565
Mo0_3 Te1_7 2.711246 1_455
Mo0_3 Te1_3 2.711248 1_555
Mo0_3 Te1_1 2.711575 1_565
Mo0_4 Te2_0 2.710935 1_555
Mo0_4 Te2_4 2.710941 1_555
Mo0_4 Te2_6 2.711135 1_555
Mo0_4 Te1_0 2.711246 1_555
Mo0_4 Te1_4 2.711248 1_555
Mo0_4 Te1_6 2.711575 1_555
Mo0_5 Te2_1 2.710935 1_555
Mo0_5 Te2_5 2.710941 1_555
Mo0_5 Te2_7 2.711135 1_555
Mo0_5 Te1_1 2.711246 1_555
Mo0_5 Te1_5 2.711248 1_555
Mo0_5 Te1_7 2.711575 1_555
Mo0_6 Te2_2 2.710935 1_555
Mo0_6 Te2_6 2.710941 1_555
Mo0_6 Te2_4 2.711135 1_565
Mo0_6 Te1_2 2.711246 1_555
Mo0_6 Te1_6 2.711248 1_555
Mo0_6 Te1_4 2.711575 1_565
Mo0_7 Te2_3 2.710935 1_555
Mo0_7 Te2_7 2.710941 1_555
Mo0_7 Te2_5 2.711135 1_565
Mo0_7 Te1_3 2.711246 1_555
Mo0_7 Te1_7 2.711248 1_555
Mo0_7 Te1_5 2.711575 1_565
Mo1_0 Se0_0 2.560186 1_555
Mo1_0 Se0_4 2.560187 1_555
Mo1_0 Se1_4 2.560355 1_555
Mo1_0 Se1_0 2.560357 1_555
Mo1_0 Se0_2 2.560425 1_545
Mo1_0 Se1_2 2.560623 1_545
Mo1_1 Se0_1 2.560186 1_555
Mo1_1 Se0_5 2.560187 1_555
Mo1_1 Se1_5 2.560355 1_555
Mo1_1 Se1_1 2.560357 1_555
Mo1_1 Se0_3 2.560425 1_545
Mo1_1 Se1_3 2.560623 1_545
Mo1_2 Se0_2 2.560186 1_555
Mo1_2 Se0_6 2.560187 1_555
Mo1_2 Se1_6 2.560355 1_555
Mo1_2 Se1_2 2.560357 1_555
Mo1_2 Se0_0 2.560425 1_555
Mo1_2 Se1_0 2.560623 1_555
Mo1_3 Se0_3 2.560186 1_555
Mo1_3 Se0_7 2.560187 1_555
Mo1_3 Se1_7 2.560355 1_555
Mo1_3 Se1_3 2.560357 1_555
Mo1_3 Se0_1 2.560425 1_555
Mo1_3 Se1_1 2.560623 1_555
Mo1_4 Se0_4 2.560186 1_555
Mo1_4 Se0_0 2.560187 1_655
Mo1_4 Se1_0 2.560355 1_655
Mo1_4 Se1_4 2.560357 1_555
Mo1_4 Se0_6 2.560425 1_545
Mo1_4 Se1_6 2.560623 1_545
Mo1_5 Se0_5 2.560186 1_555
Mo1_5 Se0_1 2.560187 1_655
Mo1_5 Se1_1 2.560355 1_655
Mo1_5 Se1_5 2.560357 1_555
Mo1_5 Se0_7 2.560425 1_545
Mo1_5 Se1_7 2.560623 1_545
Mo1_6 Se0_6 2.560186 1_555
Mo1_6 Se0_2 2.560187 1_655
Mo1_6 Se1_2 2.560355 1_655
Mo1_6 Se1_6 2.560357 1_555
Mo1_6 Se0_4 2.560425 1_555
Mo1_6 Se1_4 2.560623 1_555
Mo1_7 Se0_7 2.560186 1_555
Mo1_7 Se0_3 2.560187 1_655
Mo1_7 Se1_3 2.560355 1_655
Mo1_7 Se1_7 2.560357 1_555
Mo1_7 Se0_5 2.560425 1_555
Mo1_7 Se1_5 2.560623 1_555
Mo2_0 Te0_2 2.708785 1_545
Mo2_0 Te0_4 2.708791 1_555
Mo2_0 Te0_0 2.708795 1_555
Mo2_0 Te3_4 2.724530 1_555
Mo2_0 Te3_0 2.724532 1_555
Mo2_0 Te3_2 2.724580 1_545
Mo2_1 Te0_3 2.708785 1_545
Mo2_1 Te0_5 2.708791 1_555
Mo2_1 Te0_1 2.708795 1_555
Mo2_1 Te3_5 2.724530 1_555
Mo2_1 Te3_1 2.724532 1_555
Mo2_1 Te3_3 2.724580 1_545
Mo2_2 Te0_0 2.708785 1_555
Mo2_2 Te0_6 2.708791 1_555
Mo2_2 Te0_2 2.708795 1_555
Mo2_2 Te3_6 2.724530 1_555
Mo2_2 Te3_2 2.724532 1_555
Mo2_2 Te3_0 2.724580 1_555
Mo2_3 Te0_1 2.708785 1_555
Mo2_3 Te0_7 2.708791 1_555
Mo2_3 Te0_3 2.708795 1_555
Mo2_3 Te3_7 2.724530 1_555
Mo2_3 Te3_3 2.724532 1_555
Mo2_3 Te3_1 2.724580 1_555
Mo2_4 Te0_6 2.708785 1_545
Mo2_4 Te0_0 2.708791 1_655
Mo2_4 Te0_4 2.708795 1_555
Mo2_4 Te3_0 2.724530 1_655
Mo2_4 Te3_4 2.724532 1_555
Mo2_4 Te3_6 2.724580 1_545
Mo2_5 Te0_7 2.708785 1_545
Mo2_5 Te0_1 2.708791 1_655
Mo2_5 Te0_5 2.708795 1_555
Mo2_5 Te3_1 2.724530 1_655
Mo2_5 Te3_5 2.724532 1_555
Mo2_5 Te3_7 2.724580 1_545
Mo2_6 Te0_4 2.708785 1_555
Mo2_6 Te0_2 2.708791 1_655
Mo2_6 Te0_6 2.708795 1_555
Mo2_6 Te3_2 2.724530 1_655
Mo2_6 Te3_6 2.724532 1_555
Mo2_6 Te3_4 2.724580 1_555
Mo2_7 Te0_5 2.708785 1_555
Mo2_7 Te0_3 2.708791 1_655
Mo2_7 Te0_7 2.708795 1_555
Mo2_7 Te3_3 2.724530 1_655
Mo2_7 Te3_7 2.724532 1_555
Mo2_7 Te3_5 2.724580 1_555
S0_0 W0_2 2.466164 1_545
S0_0 W0_4 2.466188 1_555
S0_0 W0_0 2.466192 1_555
S0_1 W0_3 2.466164 1_545
S0_1 W0_5 2.466188 1_555
S0_1 W0_1 2.466192 1_555
S0_2 W0_0 2.466164 1_555
S0_2 W0_6 2.466188 1_555
S0_2 W0_2 2.466192 1_555
S0_3 W0_1 2.466164 1_555
S0_3 W0_7 2.466188 1_555
S0_3 W0_3 2.466192 1_555
S0_4 W0_6 2.466164 1_545
S0_4 W0_0 2.466188 1_655
S0_4 W0_4 2.466192 1_555
S0_5 W0_7 2.466164 1_545
S0_5 W0_1 2.466188 1_655
S0_5 W0_5 2.466192 1_555
S0_6 W0_4 2.466164 1_555
S0_6 W0_2 2.466188 1_655
S0_6 W0_6 2.466192 1_555
S0_7 W0_5 2.466164 1_555
S0_7 W0_3 2.466188 1_655
S0_7 W0_7 2.466192 1_555
S1_0 W0_2 2.472475 1_545
S1_0 W0_4 2.472576 1_555
S1_0 W0_0 2.472582 1_555
S1_1 W0_3 2.472475 1_545
S1_1 W0_5 2.472576 1_555
S1_1 W0_1 2.472582 1_555
S1_2 W0_0 2.472475 1_555
S1_2 W0_6 2.472576 1_555
S1_2 W0_2 2.472582 1_555
S1_3 W0_1 2.472475 1_555
S1_3 W0_7 2.472576 1_555
S1_3 W0_3 2.472582 1_555
S1_4 W0_6 2.472475 1_545
S1_4 W0_0 2.472576 1_655
S1_4 W0_4 2.472582 1_555
S1_5 W0_7 2.472475 1_545
S1_5 W0_1 2.472576 1_655
S1_5 W0_5 2.472582 1_555
S1_6 W0_4 2.472475 1_555
S1_6 W0_2 2.472576 1_655
S1_6 W0_6 2.472582 1_555
S1_7 W0_5 2.472475 1_555
S1_7 W0_3 2.472576 1_655
S1_7 W0_7 2.472582 1_555
