# generated using pymatgen
data_MgTe4Mo3W(SeS)2
_symmetry_space_group_name_H-M   'P 1'
_cell_length_a   3.40103800
_cell_length_b   3.40096141
_cell_length_c   45.14235008
_cell_angle_alpha   90.00222846
_cell_angle_beta   90.00440282
_cell_angle_gamma   119.99888721
_symmetry_Int_Tables_number   1
_chemical_formula_structural   MgTe4Mo3W(SeS)2
_chemical_formula_sum   'Mg1 Te4 Mo3 W1 Se2 S2'
_cell_volume   452.20238782
_cell_formula_units_Z   1
loop_
 _symmetry_equiv_pos_site_id
 _symmetry_equiv_pos_as_xyz
  1  'x, y, z'
loop_
 _atom_site_type_symbol
 _atom_site_label
 _atom_site_symmetry_multiplicity
 _atom_site_fract_x
 _atom_site_fract_y
 _atom_site_fract_z
 _atom_site_occupancy
  Mg  Mg0  1  0.99999400  0.99997600  0.55392200  1
  Te  Te0  1  0.33343200  0.66672000  0.32360500  1
  Te  Te1  1  0.33341300  0.66673600  0.70483300  1
  Te  Te2  1  0.33327100  0.66659800  0.24024300  1
  Te  Te3  1  0.33326800  0.66660400  0.62171900  1
  Mo  Mo0  1  0.33331100  0.66667500  0.09394400  1
  Mo  Mo1  1  0.33329100  0.66665400  0.46290600  1
  Mo  Mo2  1  0.66669900  0.33335000  0.66346300  1
  W  W0  1  0.66670500  0.33333600  0.28191200  1
  Se  Se0  1  0.66662300  0.33331700  0.05750700  1
  Se  Se1  1  0.66670900  0.33337900  0.13042300  1
  S  S0  1  0.66659800  0.33328900  0.42994000  1
  S  S1  1  0.66668800  0.33336500  0.49641600  1
loop_
_geom_bond_atom_site_label_1
_geom_bond_atom_site_label_2
_geom_bond_distance
_geom_bond_site_symmetry_2
Te0 W0 2.719923 1_555
Te0 W0 2.719931 1_455
Te0 W0 2.719935 1_565
Te2 W0 2.719141 1_455
Te2 W0 2.719197 1_555
Te2 W0 2.719203 1_565
Mo0 Se0 2.561413 1_455
Mo0 Se0 2.561498 1_555
Mo0 Se0 2.561528 1_565
Mo0 Se1 2.562661 1_565
Mo0 Se1 2.562715 1_555
Mo0 Se1 2.562718 1_455
Mo1 S0 2.463748 1_455
Mo1 S0 2.463813 1_555
Mo1 S0 2.463815 1_565
Mo1 S1 2.478690 1_565
Mo1 S1 2.478704 1_555
Mo1 S1 2.478713 1_455
Mo2 Te1 2.709835 1_655
Mo2 Te1 2.709861 1_545
Mo2 Te1 2.709886 1_555
Mo2 Te3 2.721491 1_655
Mo2 Te3 2.721517 1_555
Mo2 Te3 2.721563 1_545
