# generated using pymatgen
data_MgSbRhO4
_symmetry_space_group_name_H-M   'P 1'
_cell_length_a   3.19266500
_cell_length_b   5.04980402
_cell_length_c   5.83142236
_cell_angle_alpha   88.82934337
_cell_angle_beta   90.00000000
_cell_angle_gamma   90.00000000
_symmetry_Int_Tables_number   1
_chemical_formula_structural   MgSbRhO4
_chemical_formula_sum   'Mg1 Sb1 Rh1 O4'
_cell_volume   93.99650726
_cell_formula_units_Z   1
loop_
 _symmetry_equiv_pos_site_id
 _symmetry_equiv_pos_as_xyz
  1  'x, y, z'
loop_
 _atom_site_type_symbol
 _atom_site_label
 _atom_site_symmetry_multiplicity
 _atom_site_fract_x
 _atom_site_fract_y
 _atom_site_fract_z
 _atom_site_occupancy
  Mg  Mg0  1  0.00000000  0.05909200  0.57924900  1
  Sb  Sb0  1  0.00000000  0.05858600  0.07881900  1
  Rh  Rh0  1  0.50000000  0.53365600  0.50827200  1
  O  O0  1  0.00000000  0.34545500  0.32184200  1
  O  O1  1  0.50000000  0.89335700  0.29136000  1
  O  O2  1  0.50000000  0.21412500  0.73430900  1
  O  O3  1  0.00000000  0.68739600  0.68059400  1
loop_
_geom_bond_atom_site_label_1
_geom_bond_atom_site_label_2
_geom_bond_distance
_geom_bond_site_symmetry_2
Mg0 O3 1.956281 1_545
Mg0 O2 2.001931 1_455
Mg0 O2 2.001931 1_555
Mg0 O0 2.062909 1_555
Mg0 O1 2.474776 1_545
Mg0 O1 2.474776 1_445
O0 Sb0 2.047142 1_555
O0 Rh0 2.162317 1_555
O0 Rh0 2.162317 1_455
O1 Sb0 2.176776 1_565
O1 Sb0 2.176776 1_665
O1 Rh0 2.192141 1_555
O2 Rh0 2.062555 1_555
O2 Sb0 2.671467 1_656
O2 Sb0 2.671467 1_556
O3 Rh0 2.047602 1_555
O3 Rh0 2.047602 1_455
