# generated using pymatgen
data_LuSiIr
_symmetry_space_group_name_H-M   'P 1'
_cell_length_a   4.14875409
_cell_length_b   6.66960246
_cell_length_c   7.37449199
_cell_angle_alpha   90.00000000
_cell_angle_beta   90.00000000
_cell_angle_gamma   90.00000000
_symmetry_Int_Tables_number   1
_chemical_formula_structural   LuSiIr
_chemical_formula_sum   'Lu4 Si4 Ir4'
_cell_volume   204.05617916
_cell_formula_units_Z   4
loop_
 _symmetry_equiv_pos_site_id
 _symmetry_equiv_pos_as_xyz
  1  'x, y, z'
loop_
 _atom_site_type_symbol
 _atom_site_label
 _atom_site_symmetry_multiplicity
 _atom_site_fract_x
 _atom_site_fract_y
 _atom_site_fract_z
 _atom_site_occupancy
  Lu  Lu0  1  0.75000000  0.50526511  0.18807968  1
  Lu  Lu1  1  0.25000000  0.99473489  0.68807968  1
  Lu  Lu2  1  0.75000000  0.00526511  0.31192032  1
  Lu  Lu3  1  0.25000000  0.49473489  0.81192032  1
  Si  Si0  1  0.25000000  0.70502152  0.38580719  1
  Si  Si1  1  0.25000000  0.20502152  0.11419281  1
  Si  Si2  1  0.75000000  0.29497848  0.61419281  1
  Si  Si3  1  0.75000000  0.79497848  0.88580719  1
  Ir  Ir0  1  0.25000000  0.84134817  0.06387354  1
  Ir  Ir1  1  0.25000000  0.34134817  0.43612646  1
  Ir  Ir2  1  0.75000000  0.65865183  0.56387354  1
  Ir  Ir3  1  0.75000000  0.15865183  0.93612646  1
loop_
_geom_bond_atom_site_label_1
_geom_bond_atom_site_label_2
_geom_bond_distance
_geom_bond_site_symmetry_2
Lu0 Si0 2.864302 1_655
Lu0 Si0 2.864302 1_555
Lu0 Si1 2.934273 1_555
Lu0 Si1 2.934273 1_655
Lu0 Si3 2.950016 1_554
Lu1 Si3 2.864302 1_555
Lu1 Si3 2.864302 1_455
Lu1 Si2 2.934273 1_565
Lu1 Si2 2.934273 1_465
Lu1 Si0 2.950016 1_555
Lu2 Si1 2.864302 1_555
Lu2 Si1 2.864302 1_655
Lu2 Si0 2.934273 1_645
Lu2 Si0 2.934273 1_545
Lu2 Si2 2.950016 1_555
Lu3 Si2 2.864302 1_455
Lu3 Si2 2.864302 1_555
Lu3 Si3 2.934273 1_555
Lu3 Si3 2.934273 1_455
Lu3 Si1 2.950016 1_556
Ir0 Si1 2.453778 1_565
Ir0 Si3 2.474479 1_554
Ir0 Si3 2.474479 1_454
Ir0 Si0 2.542255 1_555
Ir0 Lu1 2.954087 1_554
Ir0 Lu3 2.965899 1_554
Ir0 Lu2 2.973937 1_565
Ir0 Lu2 2.973937 1_465
Ir0 Lu0 3.188498 1_555
Ir0 Lu0 3.188498 1_455
Ir1 Si0 2.453778 1_555
Ir1 Si2 2.474479 1_555
Ir1 Si2 2.474479 1_455
Ir1 Si1 2.542255 1_555
Ir1 Lu3 2.954087 1_555
Ir1 Lu1 2.965899 1_545
Ir1 Lu0 2.973937 1_455
Ir1 Lu0 2.973937 1_555
Ir1 Lu2 3.188498 1_455
Ir1 Lu2 3.188498 1_555
Ir2 Si2 2.453778 1_555
Ir2 Si0 2.474479 1_655
Ir2 Si0 2.474479 1_555
Ir2 Si3 2.542255 1_555
Ir2 Lu0 2.954087 1_555
Ir2 Lu2 2.965899 1_565
Ir2 Lu3 2.973937 1_655
Ir2 Lu3 2.973937 1_555
Ir2 Lu1 3.188498 1_555
Ir2 Lu1 3.188498 1_655
Ir3 Si3 2.453778 1_545
Ir3 Si1 2.474479 1_656
Ir3 Si1 2.474479 1_556
Ir3 Si2 2.542255 1_555
Ir3 Lu2 2.954087 1_556
Ir3 Lu0 2.965899 1_556
Ir3 Lu1 2.973937 1_545
Ir3 Lu1 2.973937 1_645
Ir3 Lu3 3.188498 1_555
Ir3 Lu3 3.188498 1_655
