# generated using pymatgen
data_MgTi2Mn2O6
_symmetry_space_group_name_H-M   'P 1'
_cell_length_a   12.70513714
_cell_length_b   3.08375340
_cell_length_c   8.51007373
_cell_angle_alpha   110.21229472
_cell_angle_beta   154.63662084
_cell_angle_gamma   69.34549009
_symmetry_Int_Tables_number   1
_chemical_formula_structural   MgTi2Mn2O6
_chemical_formula_sum   'Mg1 Ti2 Mn2 O6'
_cell_volume   133.34484431
_cell_formula_units_Z   1
loop_
 _symmetry_equiv_pos_site_id
 _symmetry_equiv_pos_as_xyz
  1  'x, y, z'
loop_
 _atom_site_type_symbol
 _atom_site_label
 _atom_site_symmetry_multiplicity
 _atom_site_fract_x
 _atom_site_fract_y
 _atom_site_fract_z
 _atom_site_occupancy
  Mg  Mg0  1  0.47358076  0.50960793  0.23516699  1
  Ti  Ti0  1  0.25406457  0.24312825  0.61952018  1
  Ti  Ti1  1  0.79310835  0.67967673  0.37249946  1
  Mn  Mn0  1  0.73795448  0.83587949  0.92600287  1
  Mn  Mn1  1  0.18161636  0.33560964  0.12517869  1
  O  O0  1  0.14073182  0.63025004  0.32787923  1
  O  O1  1  0.40138900  0.85894050  0.96422395  1
  O  O2  1  0.95026719  0.42044424  0.34027055  1
  O  O3  1  0.79555186  0.33524895  0.53883057  1
  O  O4  1  0.60075861  0.09976375  0.99557965  1
  O  O5  1  0.13972700  0.67645048  0.89484785  1
loop_
_geom_bond_atom_site_label_1
_geom_bond_atom_site_label_2
_geom_bond_distance
_geom_bond_site_symmetry_2
Mg0 O5 1.983284 1_554
Mg0 O3 2.001249 1_555
Mg0 O1 2.112630 1_544
Mg0 O1 2.124979 1_554
Mn0 O4 2.140738 1_565
Mn0 O2 2.192578 1_566
Mn0 O2 2.200696 1_556
Mn0 O0 2.422052 1_656
Mn1 O0 2.067449 1_555
Mn1 O5 2.091366 1_554
Mn1 O5 2.093297 1_544
Mn1 O3 2.173845 1_454
O0 Ti0 2.006292 1_565
O0 Ti0 2.008596 1_555
O1 Ti0 2.103891 1_565
O1 Ti0 2.109548 1_555
O1 Ti1 2.298398 1_556
O2 Ti0 1.917452 1_655
O2 Ti1 2.100793 1_555
O3 Ti1 2.017149 1_555
O3 Ti1 2.019664 1_545
O4 Ti0 1.991912 1_555
O4 Ti1 2.100153 1_546
O4 Ti1 2.100475 1_556
O5 Ti1 1.943029 1_455
