# generated using pymatgen
data_MgFe2(WO4)2
_symmetry_space_group_name_H-M   'P 1'
_cell_length_a   5.19822734
_cell_length_b   5.03698435
_cell_length_c   5.98771700
_cell_angle_alpha   90.00000000
_cell_angle_beta   90.00000000
_cell_angle_gamma   86.10920129
_symmetry_Int_Tables_number   1
_chemical_formula_structural   MgFe2(WO4)2
_chemical_formula_sum   'Mg1 Fe2 W2 O8'
_cell_volume   156.41738237
_cell_formula_units_Z   1
loop_
 _symmetry_equiv_pos_site_id
 _symmetry_equiv_pos_as_xyz
  1  'x, y, z'
loop_
 _atom_site_type_symbol
 _atom_site_label
 _atom_site_symmetry_multiplicity
 _atom_site_fract_x
 _atom_site_fract_y
 _atom_site_fract_z
 _atom_site_occupancy
  Mg  Mg0  1  0.50000000  0.25000000  0.07931600  1
  Fe  Fe0  1  0.50000000  0.75000000  0.37606400  1
  Fe  Fe1  1  0.50000000  0.25000000  0.63052800  1
  W  W0  1  0.00000000  0.75000000  0.83506200  1
  W  W1  1  0.00000000  0.25000000  0.17467700  1
  O  O0  1  0.71984700  0.39000500  0.36002300  1
  O  O1  1  0.28015300  0.10999500  0.36002300  1
  O  O2  1  0.25822000  0.59859700  0.62955600  1
  O  O3  1  0.74178000  0.90140300  0.62955600  1
  O  O4  1  0.78509900  0.43577500  0.90517700  1
  O  O5  1  0.21490100  0.06422500  0.90517700  1
  O  O6  1  0.22083100  0.55319600  0.10429400  1
  O  O7  1  0.77916900  0.94680400  0.10429400  1
loop_
_geom_bond_atom_site_label_1
_geom_bond_atom_site_label_2
_geom_bond_distance
_geom_bond_site_symmetry_2
Mg0 O7 2.039573 1_545
Mg0 O6 2.039573 1_555
Mg0 O4 2.085039 1_554
Mg0 O5 2.085039 1_554
Mg0 O1 2.176643 1_555
Mg0 O0 2.176643 1_555
Fe0 O1 2.078952 1_565
Fe0 O0 2.078952 1_555
Fe0 O3 2.143619 1_555
Fe0 O2 2.143619 1_555
Fe0 O7 2.435545 1_555
Fe0 O6 2.435545 1_555
Fe1 O3 2.088843 1_545
Fe1 O2 2.088843 1_555
Fe1 O0 2.129826 1_555
Fe1 O1 2.129826 1_555
Fe1 O4 2.442257 1_555
Fe1 O5 2.442257 1_555
O0 W1 1.926240 1_655
O1 W1 1.926240 1_555
O2 W0 1.938699 1_555
O3 W0 1.938699 1_655
O4 W0 2.041865 1_655
O4 W1 2.141419 1_656
O5 W0 2.041865 1_545
O5 W1 2.141419 1_556
O6 W1 2.016329 1_555
O6 W0 2.178257 1_554
O7 W1 2.016329 1_665
O7 W0 2.178257 1_654
