# generated using pymatgen
data_Fe7SiO10
_symmetry_space_group_name_H-M   'P 1'
_cell_length_a   3.04971900
_cell_length_b   6.05642300
_cell_length_c   21.92385724
_cell_angle_alpha   82.20072760
_cell_angle_beta   90.00000000
_cell_angle_gamma   90.00000000
_symmetry_Int_Tables_number   1
_chemical_formula_structural   Fe7SiO10
_chemical_formula_sum   'Fe14 Si2 O20'
_cell_volume   401.19626462
_cell_formula_units_Z   2
loop_
 _symmetry_equiv_pos_site_id
 _symmetry_equiv_pos_as_xyz
  1  'x, y, z'
loop_
 _atom_site_type_symbol
 _atom_site_label
 _atom_site_symmetry_multiplicity
 _atom_site_fract_x
 _atom_site_fract_y
 _atom_site_fract_z
 _atom_site_occupancy
  Fe  Fe0  1  0.25000000  0.84613200  0.55227100  1
  Fe  Fe1  1  0.75000000  0.34428900  0.05475400  1
  Fe  Fe2  1  0.75000000  0.45459600  0.83932300  1
  Fe  Fe3  1  0.25000000  0.54540400  0.16067700  1
  Fe  Fe4  1  0.25000000  0.36014500  0.55365000  1
  Fe  Fe5  1  0.75000000  0.63985500  0.44635000  1
  Fe  Fe6  1  0.25000000  0.65571100  0.94524600  1
  Fe  Fe7  1  0.75000000  0.15386800  0.44772900  1
  Fe  Fe8  1  0.25000000  0.97384900  0.80385100  1
  Fe  Fe9  1  0.75000000  0.02615100  0.19614900  1
  Fe  Fe10  1  0.75000000  0.04416800  0.65873300  1
  Fe  Fe11  1  0.25000000  0.95583200  0.34126700  1
  Fe  Fe12  1  0.75000000  0.85254300  0.05260900  1
  Fe  Fe13  1  0.25000000  0.14745700  0.94739100  1
  Si  Si0  1  0.75000000  0.46764100  0.30947700  1
  Si  Si1  1  0.25000000  0.53235900  0.69052300  1
  O  O0  1  0.75000000  0.38292900  0.95384700  1
  O  O1  1  0.25000000  0.61707100  0.04615300  1
  O  O2  1  0.75000000  0.91051600  0.95583500  1
  O  O3  1  0.25000000  0.08948400  0.04416500  1
  O  O4  1  0.25000000  0.21221100  0.85381500  1
  O  O5  1  0.75000000  0.78778900  0.14618500  1
  O  O6  1  0.25000000  0.68297300  0.85049400  1
  O  O7  1  0.75000000  0.31702700  0.14950600  1
  O  O8  1  0.75000000  0.00539000  0.75309600  1
  O  O9  1  0.25000000  0.99461000  0.24690400  1
  O  O10  1  0.75000000  0.50859200  0.73095100  1
  O  O11  1  0.25000000  0.49140800  0.26904900  1
  O  O12  1  0.25000000  0.32345900  0.65061800  1
  O  O13  1  0.75000000  0.67654100  0.34938200  1
  O  O14  1  0.25000000  0.78392500  0.65385700  1
  O  O15  1  0.75000000  0.21607500  0.34614300  1
  O  O16  1  0.75000000  0.09387700  0.56129300  1
  O  O17  1  0.25000000  0.90612300  0.43870700  1
  O  O18  1  0.25000000  0.38225400  0.45929300  1
  O  O19  1  0.75000000  0.61774600  0.54070700  1
loop_
_geom_bond_atom_site_label_1
_geom_bond_atom_site_label_2
_geom_bond_distance
_geom_bond_site_symmetry_2
Fe0 O19 2.097117 1_455
Fe0 O19 2.097117 1_555
Fe0 O16 2.167075 1_565
Fe0 O16 2.167075 1_465
Fe0 O14 2.207813 1_555
Fe0 O17 2.466861 1_555
Fe1 O7 2.061424 1_555
Fe1 O0 2.192805 1_554
Fe1 O3 2.204044 1_655
Fe1 O3 2.204044 1_555
Fe1 O1 2.237316 1_555
Fe1 O1 2.237316 1_655
Fe2 O6 2.095284 1_555
Fe2 O6 2.095284 1_655
Fe2 O4 2.110578 1_555
Fe2 O4 2.110578 1_655
Fe2 O10 2.353958 1_555
Fe2 O0 2.489332 1_555
Fe3 O7 2.095284 1_455
Fe3 O7 2.095284 1_555
Fe3 O5 2.110578 1_455
Fe3 O5 2.110578 1_555
Fe3 O11 2.353958 1_555
Fe3 O1 2.489332 1_555
Fe4 O18 2.054786 1_555
Fe4 O12 2.107290 1_555
Fe4 O19 2.172465 1_455
Fe4 O19 2.172465 1_555
Fe4 O16 2.209189 1_455
Fe4 O16 2.209189 1_555
Fe5 O19 2.054786 1_555
Fe5 O13 2.107290 1_555
Fe5 O18 2.172465 1_655
Fe5 O18 2.172465 1_555
Fe5 O17 2.209189 1_655
Fe5 O17 2.209189 1_555
Fe6 O6 2.061424 1_555
Fe6 O1 2.192805 1_556
Fe6 O2 2.204044 1_555
Fe6 O2 2.204044 1_455
Fe6 O0 2.237316 1_455
Fe6 O0 2.237316 1_555
Fe7 O18 2.097117 1_555
Fe7 O18 2.097117 1_655
Fe7 O17 2.167075 1_545
Fe7 O17 2.167075 1_645
Fe7 O15 2.207813 1_555
Fe7 O16 2.466861 1_555
Fe8 O8 1.882073 1_565
Fe8 O8 1.882073 1_465
Fe8 O6 1.913176 1_555
Fe8 O4 1.926950 1_565
Fe9 O9 1.882073 1_645
Fe9 O9 1.882073 1_545
Fe9 O7 1.913176 1_555
Fe9 O5 1.926950 1_545
Fe10 O8 2.050177 1_555
Fe10 O16 2.116529 1_555
Fe10 O14 2.206032 1_545
Fe10 O14 2.206032 1_645
Fe10 O12 2.266354 1_555
Fe10 O12 2.266354 1_655
Fe11 O9 2.050177 1_555
Fe11 O17 2.116529 1_555
Fe11 O15 2.206032 1_465
Fe11 O15 2.206032 1_565
Fe11 O13 2.266354 1_555
Fe11 O13 2.266354 1_455
Fe12 O5 2.035751 1_555
Fe12 O3 2.084858 1_565
Fe12 O3 2.084858 1_665
Fe12 O2 2.102983 1_554
Fe12 O1 2.105665 1_655
Fe12 O1 2.105665 1_555
Fe13 O4 2.035751 1_555
Fe13 O2 2.084858 1_445
Fe13 O2 2.084858 1_545
Fe13 O3 2.102983 1_556
Fe13 O0 2.105665 1_455
Fe13 O0 2.105665 1_555
O10 Si1 1.759797 1_655
O10 Si1 1.759797 1_555
O11 Si0 1.759797 1_455
O11 Si0 1.759797 1_555
O12 Si1 1.632945 1_555
O13 Si0 1.632945 1_555
O14 Si1 1.623303 1_555
O15 Si0 1.623303 1_555
