# generated using pymatgen
data_Na4NbAl3(PO4)6
_symmetry_space_group_name_H-M   'P 1'
_cell_length_a   8.58040521
_cell_length_b   8.57388257
_cell_length_c   21.88367252
_cell_angle_alpha   89.98689305
_cell_angle_beta   90.07914642
_cell_angle_gamma   119.96856008
_symmetry_Int_Tables_number   1
_chemical_formula_structural   Na4NbAl3(PO4)6
_chemical_formula_sum   'Na12 Nb3 Al9 P18 O72'
_cell_volume   1394.67556835
_cell_formula_units_Z   3
loop_
 _symmetry_equiv_pos_site_id
 _symmetry_equiv_pos_as_xyz
  1  'x, y, z'
loop_
 _atom_site_type_symbol
 _atom_site_label
 _atom_site_symmetry_multiplicity
 _atom_site_fract_x
 _atom_site_fract_y
 _atom_site_fract_z
 _atom_site_occupancy
  Na  Na0  1  0.63460765  0.99981708  0.25080251  1
  Na  Na1  1  0.36429177  0.36476546  0.25075808  1
  Na  Na2  1  0.00021976  0.63526101  0.25046363  1
  Na  Na3  1  0.30125720  0.33129145  0.58557632  1
  Na  Na4  1  0.03186401  0.69770489  0.58535333  1
  Na  Na5  1  0.66734324  0.69881856  0.08230030  1
  Na  Na6  1  0.99054554  0.99887766  0.49744483  1
  Na  Na7  1  0.00920036  0.00821258  0.99751603  1
  Na  Na8  1  0.66689492  0.33313361  0.82741140  1
  Na  Na9  1  0.66646232  0.33288314  0.33344910  1
  Na  Na10  1  0.32429024  0.66576675  0.16312727  1
  Na  Na11  1  0.34405379  0.67607029  0.66555721  1
  Nb  Nb0  1  0.66597093  0.33160008  0.97761095  1
  Nb  Nb1  1  0.66761001  0.33273970  0.47694142  1
  Nb  Nb2  1  0.33261513  0.66660839  0.80785548  1
  Al  Al0  1  0.00065953  0.00080503  0.35441340  1
  Al  Al1  1  0.99955815  0.00025989  0.85202153  1
  Al  Al2  1  0.99441970  0.99918378  0.64966692  1
  Al  Al3  1  0.00513157  0.00424293  0.14690357  1
  Al  Al4  1  0.66587274  0.33176162  0.68912997  1
  Al  Al5  1  0.66752174  0.33292268  0.18343035  1
  Al  Al6  1  0.32740283  0.66586664  0.01935685  1
  Al  Al7  1  0.33955523  0.67194747  0.51744145  1
  Al  Al8  1  0.33338056  0.66710981  0.31583411  1
  P  P0  1  0.28590618  0.00024551  0.25021737  1
  P  P1  1  0.71347167  0.71324526  0.24985753  1
  P  P2  1  0.99985875  0.28590355  0.25022081  1
  P  P3  1  0.28645039  0.27335173  0.74853623  1
  P  P4  1  0.98659809  0.71362542  0.74845359  1
  P  P5  1  0.72666960  0.01292662  0.74921094  1
  P  P6  1  0.95659912  0.32980061  0.58679821  1
  P  P7  1  0.37791391  0.03898674  0.58672423  1
  P  P8  1  0.66539693  0.62843811  0.58650659  1
  P  P9  1  0.96531620  0.62787335  0.08661006  1
  P  P10  1  0.66630620  0.03954603  0.08674689  1
  P  P11  1  0.36874989  0.33023751  0.08622817  1
  P  P12  1  0.62686190  0.68022795  0.91860272  1
  P  P13  1  0.05402846  0.37370111  0.91814491  1
  P  P14  1  0.31912503  0.94577898  0.91800267  1
  P  P15  1  0.62170197  0.94306331  0.41473533  1
  P  P16  1  0.32183672  0.37858529  0.41554371  1
  P  P17  1  0.05680743  0.67854965  0.41542336  1
  O  O0  1  0.20447929  0.03998821  0.30643846  1
  O  O1  1  0.83672342  0.79788841  0.30537934  1
  O  O2  1  0.96056622  0.16477450  0.30642801  1
  O  O3  1  0.19912448  0.16606196  0.80604347  1
  O  O4  1  0.96647777  0.80071829  0.80606979  1
  O  O5  1  0.83238323  0.03393933  0.80745216  1
  O  O6  1  0.80060399  0.97030988  0.69214203  1
  O  O7  1  0.17367904  0.20114588  0.68978742  1
  O  O8  1  0.02802427  0.82687946  0.68981295  1
  O  O9  1  0.79230565  0.83017566  0.19180261  1
  O  O10  1  0.03902797  0.20403156  0.19377575  1
  O  O11  1  0.16447467  0.96047736  0.19375715  1
  O  O12  1  0.86842286  0.37139718  0.63989237  1
  O  O13  1  0.49916865  0.13199785  0.64091826  1
  O  O14  1  0.62726021  0.49943781  0.63988682  1
  O  O15  1  0.87458751  0.50896054  0.14338045  1
  O  O16  1  0.63529000  0.12763273  0.14325599  1
  O  O17  1  0.49517062  0.36953035  0.14226371  1
  O  O18  1  0.46138960  0.30108753  0.02915940  1
  O  O19  1  0.83720241  0.53938194  0.03010235  1
  O  O20  1  0.69834248  0.16067545  0.02951697  1
  O  O21  1  0.46152664  0.16216225  0.52822795  1
  O  O22  1  0.70281452  0.54119103  0.52804870  1
  O  O23  1  0.83969266  0.30009438  0.52756603  1
  O  O24  1  0.53855505  0.69923029  0.97685588  1
  O  O25  1  0.16588528  0.46488186  0.97470067  1
  O  O26  1  0.30006536  0.83507841  0.97467803  1
  O  O27  1  0.53354036  0.83396787  0.47214361  1
  O  O28  1  0.30154544  0.46427317  0.47444205  1
  O  O29  1  0.16215717  0.69781216  0.47448139  1
  O  O30  1  0.13375671  0.63975636  0.35766601  1
  O  O31  1  0.50760471  0.86877188  0.35632944  1
  O  O32  1  0.36074299  0.49437821  0.35769502  1
  O  O33  1  0.13114341  0.49362744  0.86044683  1
  O  O34  1  0.36166169  0.86856481  0.86035163  1
  O  O35  1  0.50483619  0.63830337  0.86163710  1
  O  O36  1  0.02946041  0.84063020  0.40859184  1
  O  O37  1  0.81112576  0.97062828  0.40814719  1
  O  O38  1  0.15962995  0.18940712  0.40873589  1
  O  O39  1  0.02783298  0.18693607  0.90940875  1
  O  O40  1  0.15894479  0.97257257  0.90925723  1
  O  O41  1  0.81331511  0.84091071  0.90988825  1
  O  O42  1  0.98027552  0.16423793  0.59153899  1
  O  O43  1  0.18865204  0.02121350  0.59074372  1
  O  O44  1  0.83761517  0.81247340  0.59143417  1
  O  O45  1  0.97398552  0.81123860  0.09253500  1
  O  O46  1  0.83450026  0.01943709  0.09238944  1
  O  O47  1  0.18577023  0.16127494  0.09244634  1
  O  O48  1  0.69627141  0.17343137  0.74201662  1
  O  O49  1  0.47752588  0.30438264  0.74194309  1
  O  O50  1  0.82634926  0.52270172  0.74152182  1
  O  O51  1  0.68977793  0.52046887  0.24250431  1
  O  O52  1  0.83117191  0.30979516  0.24246729  1
  O  O53  1  0.47822728  0.16893031  0.24218860  1
  O  O54  1  0.64264967  0.50482311  0.92381226  1
  O  O55  1  0.86320285  0.35815014  0.92402946  1
  O  O56  1  0.49452164  0.13691481  0.92350192  1
  O  O57  1  0.64001917  0.13587087  0.42162559  1
  O  O58  1  0.49609969  0.35998176  0.42196083  1
  O  O59  1  0.86395316  0.50425647  0.42149517  1
  O  O60  1  0.35960026  0.50372985  0.07700051  1
  O  O61  1  0.14773269  0.64264952  0.07679840  1
  O  O62  1  0.49949317  0.85209150  0.07743484  1
  O  O63  1  0.35340282  0.85026638  0.57610082  1
  O  O64  1  0.49442398  0.64060416  0.57538619  1
  O  O65  1  0.14488693  0.50018821  0.57651268  1
  O  O66  1  0.31010188  0.83169101  0.25739708  1
  O  O67  1  0.52108405  0.68920681  0.25717690  1
  O  O68  1  0.16798732  0.47869264  0.25750248  1
  O  O69  1  0.30716637  0.46863867  0.75482957  1
  O  O70  1  0.16120030  0.69307402  0.75470113  1
  O  O71  1  0.53148378  0.83877597  0.75550950  1
loop_
_geom_bond_atom_site_label_1
_geom_bond_atom_site_label_2
_geom_bond_distance
_geom_bond_site_symmetry_2
Na0 O52 2.337462 1_565
Na0 O67 2.338621 1_555
Na0 O66 2.417170 1_555
Na0 O53 2.425128 1_565
Na0 O31 2.562305 1_555
Na0 O16 2.594696 1_565
Na0 O2 2.709981 1_565
Na0 O9 2.754155 1_555
Na1 O53 2.334680 1_555
Na1 O68 2.336131 1_555
Na1 O67 2.414229 1_555
Na1 O51 2.427146 1_555
Na1 O32 2.597592 1_555
Na1 O17 2.619420 1_555
Na1 O0 2.703214 1_555
Na1 O10 2.718808 1_555
Na2 O66 2.335480 1_555
Na2 O51 2.339663 1_455
Na2 O68 2.414088 1_555
Na2 O52 2.424301 1_455
Na2 O15 2.579542 1_455
Na2 O30 2.601244 1_555
Na2 O1 2.704830 1_455
Na2 O11 2.716322 1_555
Na3 O64 2.332248 1_555
Na3 O43 2.334144 1_555
Na3 O42 2.390345 1_455
Na3 O65 2.424208 1_555
Na3 O7 2.535668 1_555
Na3 O28 2.685270 1_555
Na3 O14 2.697824 1_555
Na3 O21 2.750769 1_555
Na4 O44 2.324476 1_455
Na4 O65 2.342481 1_555
Na4 O63 2.399945 1_555
Na4 O43 2.406047 1_565
Na4 O8 2.547771 1_555
Na4 O29 2.672673 1_555
Na4 O12 2.702177 1_455
Na4 O22 2.747846 1_455
Na5 O45 2.316635 1_555
Na5 O60 2.317431 1_555
Na5 O62 2.388079 1_555
Na5 O46 2.392279 1_565
Na5 O24 2.557854 1_554
Na5 O9 2.635925 1_555
Na5 O19 2.700633 1_555
Na5 O17 2.777055 1_555
Na6 O37 2.422155 1_555
Na6 O38 2.486073 1_665
Na6 O36 2.487731 1_655
Na6 O42 2.526760 1_565
Na6 O44 2.533274 1_555
Na6 O43 2.600022 1_665
Na7 O39 2.417856 1_555
Na7 O40 2.423643 1_545
Na7 O41 2.478616 1_445
Na7 O47 2.517830 1_556
Na7 O46 2.592216 1_456
Na7 O45 2.599524 1_446
Na8 O48 2.403736 1_555
Na8 O49 2.406418 1_555
Na8 O50 2.414647 1_555
Na8 O56 2.638326 1_555
Na8 O54 2.639926 1_555
Na8 O55 2.642565 1_555
Na9 O57 2.499004 1_555
Na9 O59 2.499535 1_555
Na9 O51 2.503173 1_555
Na9 O52 2.507614 1_555
Na9 O58 2.507975 1_555
Na9 O53 2.509436 1_555
Na10 O61 2.365512 1_555
Na10 O62 2.436345 1_555
Na10 O60 2.448991 1_555
Na10 O66 2.543533 1_555
Na10 O68 2.548282 1_555
Na10 O67 2.603690 1_555
Na11 O63 2.439020 1_555
Na11 O64 2.459727 1_555
Na11 O71 2.481641 1_555
Na11 O65 2.531630 1_555
Na11 O69 2.552948 1_555
Na11 O70 2.554524 1_555
Nb0 O56 1.973665 1_555
Nb0 O55 1.977671 1_555
Nb0 O20 1.979923 1_556
Nb0 O54 1.981760 1_555
Nb0 O18 1.992215 1_556
Nb0 O19 2.008290 1_556
Nb1 O23 1.973340 1_555
Nb1 O21 1.986568 1_555
Nb1 O57 1.992842 1_555
Nb1 O22 1.999235 1_555
Nb1 O59 2.000692 1_555
Nb1 O58 2.001565 1_555
Nb2 O71 1.972588 1_555
Nb2 O70 1.973933 1_555
Nb2 O69 1.976155 1_555
Nb2 O34 1.987239 1_555
Nb2 O33 1.988944 1_555
Nb2 O35 1.995270 1_555
Al0 O2 1.918068 1_455
Al0 O37 1.918128 1_445
Al0 O38 1.918701 1_555
Al0 O36 1.921011 1_545
Al0 O0 1.921333 1_555
Al0 O1 1.925790 1_445
Al1 O5 1.871385 1_555
Al1 O4 1.879794 1_545
Al1 O3 1.880848 1_655
Al1 O39 1.951889 1_655
Al1 O40 1.953199 1_645
Al1 O41 1.961510 1_545
Al2 O6 1.812115 1_555
Al2 O8 1.860569 1_655
Al2 O7 1.863113 1_665
Al2 O42 1.950857 1_565
Al2 O44 1.959913 1_555
Al2 O43 2.041382 1_665
Al3 O47 1.885423 1_555
Al3 O11 1.889423 1_545
Al3 O10 1.890295 1_555
Al3 O46 1.941481 1_455
Al3 O45 1.945138 1_445
Al3 O9 1.951673 1_445
Al4 O48 1.898029 1_555
Al4 O49 1.904897 1_555
Al4 O50 1.906579 1_555
Al4 O13 1.908335 1_555
Al4 O12 1.926644 1_555
Al4 O14 1.952431 1_555
Al5 O16 1.860428 1_555
Al5 O15 1.878169 1_555
Al5 O17 1.885996 1_555
Al5 O52 1.988271 1_555
Al5 O51 1.996705 1_555
Al5 O53 1.997963 1_555
Al6 O26 1.858634 1_554
Al6 O25 1.859107 1_554
Al6 O61 1.922256 1_555
Al6 O24 1.927731 1_554
Al6 O60 1.995497 1_555
Al6 O62 1.996344 1_555
Al7 O27 1.837597 1_555
Al7 O28 1.892623 1_555
Al7 O29 1.892915 1_555
Al7 O64 1.948823 1_555
Al7 O63 1.954083 1_555
Al7 O65 2.043864 1_555
Al8 O31 1.850508 1_555
Al8 O30 1.851972 1_555
Al8 O32 1.853044 1_555
Al8 O66 1.986587 1_555
Al8 O68 1.989652 1_555
Al8 O67 1.994571 1_555
O0 P0 1.535698 1_555
O1 P1 1.533446 1_555
O2 P2 1.534910 1_555
O3 P3 1.518172 1_555
O4 P4 1.518874 1_555
O5 P5 1.520956 1_555
O6 P5 1.526312 1_565
O7 P3 1.539768 1_555
O8 P4 1.540095 1_455
O9 P1 1.549515 1_555
O10 P2 1.539066 1_455
O11 P0 1.539542 1_565
O12 P6 1.523750 1_555
O13 P7 1.514280 1_555
O14 P8 1.527697 1_555
O15 P9 1.548573 1_555
O16 P10 1.540327 1_555
O17 P11 1.557338 1_555
O18 P11 1.566958 1_555
O19 P9 1.573736 1_555
O20 P10 1.561346 1_555
O21 P7 1.585463 1_555
O22 P8 1.593958 1_555
O23 P6 1.578792 1_555
O24 P12 1.533577 1_555
O25 P13 1.520414 1_555
O26 P14 1.520133 1_555
O27 P15 1.523365 1_555
O28 P16 1.536295 1_555
O29 P17 1.537019 1_555
O30 P17 1.538186 1_555
O31 P15 1.540038 1_555
O32 P16 1.539213 1_555
O33 P13 1.552855 1_555
O34 P14 1.551199 1_555
O35 P12 1.549235 1_555
O36 P17 1.527790 1_555
O37 P15 1.528142 1_555
O38 P16 1.527859 1_555
O39 P13 1.513829 1_555
O40 P14 1.514298 1_555
O41 P12 1.514137 1_555
O42 P6 1.534613 1_555
O43 P7 1.556056 1_555
O44 P8 1.534661 1_555
O45 P9 1.541830 1_555
O46 P10 1.541364 1_555
O47 P11 1.519991 1_555
O48 P5 1.531336 1_555
O49 P3 1.531154 1_555
O50 P4 1.531054 1_555
O51 P1 1.569534 1_555
O52 P2 1.568833 1_555
O53 P0 1.569092 1_555
O54 P12 1.580024 1_555
O55 P13 1.580437 1_655
O56 P14 1.581340 1_545
O57 P15 1.587667 1_545
O58 P16 1.587012 1_555
O59 P17 1.587162 1_655
O60 P11 1.541458 1_555
O61 P9 1.521459 1_455
O62 P10 1.540921 1_565
O63 P7 1.541582 1_565
O64 P8 1.540819 1_555
O65 P6 1.561370 1_455
O66 P0 1.567113 1_565
O67 P1 1.566514 1_555
O68 P2 1.567148 1_455
O69 P3 1.598990 1_555
O70 P4 1.599179 1_455
O71 P5 1.598622 1_565
