# generated using pymatgen
data_MgMn2Al2O6
_symmetry_space_group_name_H-M   'P 1'
_cell_length_a   5.03817778
_cell_length_b   5.05227112
_cell_length_c   5.93365638
_cell_angle_alpha   65.24869925
_cell_angle_beta   115.54317344
_cell_angle_gamma   120.00811369
_symmetry_Int_Tables_number   1
_chemical_formula_structural   MgMn2Al2O6
_chemical_formula_sum   'Mg1 Mn2 Al2 O6'
_cell_volume   113.95356004
_cell_formula_units_Z   1
loop_
 _symmetry_equiv_pos_site_id
 _symmetry_equiv_pos_as_xyz
  1  'x, y, z'
loop_
 _atom_site_type_symbol
 _atom_site_label
 _atom_site_symmetry_multiplicity
 _atom_site_fract_x
 _atom_site_fract_y
 _atom_site_fract_z
 _atom_site_occupancy
  Mg  Mg0  1  0.49999700  0.49999900  0.49999800  1
  Mn  Mn0  1  0.66749900  0.32749300  0.00990900  1
  Mn  Mn1  1  0.33251100  0.67251800  0.99009100  1
  Al  Al0  1  0.85002300  0.14984000  0.54866800  1
  Al  Al1  1  0.14997500  0.85015700  0.45133200  1
  O  O0  1  0.92538400  0.77466800  0.70770700  1
  O  O1  1  0.56033800  0.08016700  0.70807400  1
  O  O2  1  0.23123900  0.44374000  0.70859700  1
  O  O3  1  0.76875900  0.55625800  0.29140400  1
  O  O4  1  0.43966000  0.91983200  0.29192500  1
  O  O5  1  0.07461200  0.22532700  0.29229700  1
loop_
_geom_bond_atom_site_label_1
_geom_bond_atom_site_label_2
_geom_bond_distance
_geom_bond_site_symmetry_2
Mg0 O3 2.052322 1_555
Mg0 O2 2.052330 1_555
Mg0 O5 2.053595 1_555
Mg0 O0 2.053614 1_555
Mg0 O4 2.060158 1_555
Mg0 O1 2.060163 1_555
Mn0 O5 2.156847 1_655
Mn0 O3 2.162837 1_555
Mn0 O4 2.183032 1_545
Mn0 O2 2.322824 1_554
Mn0 O1 2.329335 1_554
Mn0 O0 2.385060 1_554
Mn1 O0 2.156861 1_455
Mn1 O2 2.162859 1_555
Mn1 O1 2.182990 1_565
Mn1 O3 2.322807 1_556
Mn1 O4 2.329307 1_556
Mn1 O5 2.385131 1_556
Al0 O0 1.881638 1_545
Al0 O1 1.883208 1_555
Al0 O2 1.884072 1_655
Al0 O5 2.075294 1_655
Al0 O4 2.075753 1_545
Al0 O3 2.095543 1_555
Al1 O5 1.881634 1_565
Al1 O4 1.883209 1_555
Al1 O3 1.884067 1_455
Al1 O0 2.075319 1_455
Al1 O1 2.075753 1_565
Al1 O2 2.095541 1_555
