# generated using pymatgen
data_Na9Ca2Ta4Si6(PO12)3
_symmetry_space_group_name_H-M   'P 1'
_cell_length_a   15.90380732
_cell_length_b   27.38134731
_cell_length_c   9.12015382
_cell_angle_alpha   90.17463717
_cell_angle_beta   125.08963399
_cell_angle_gamma   89.81061954
_symmetry_Int_Tables_number   1
_chemical_formula_structural   Na9Ca2Ta4Si6(PO12)3
_chemical_formula_sum   'Na36 Ca8 Ta16 Si24 P12 O144'
_cell_volume   3249.70006452
_cell_formula_units_Z   4
loop_
 _symmetry_equiv_pos_site_id
 _symmetry_equiv_pos_as_xyz
  1  'x, y, z'
loop_
 _atom_site_type_symbol
 _atom_site_label
 _atom_site_symmetry_multiplicity
 _atom_site_fract_x
 _atom_site_fract_y
 _atom_site_fract_z
 _atom_site_occupancy
  Na  Na0  1  0.25010659  0.24540068  0.01641909  1
  Na  Na1  1  0.24055335  0.59444247  0.00897740  1
  Na  Na2  1  0.25946564  0.91376026  0.00727171  1
  Na  Na3  1  0.74987149  0.25258090  0.50459454  1
  Na  Na4  1  0.74239046  0.58053910  0.50363609  1
  Na  Na5  1  0.74823815  0.91636762  0.50850642  1
  Na  Na6  1  0.74055335  0.09444247  0.00897740  1
  Na  Na7  1  0.75946564  0.41376026  0.00727171  1
  Na  Na8  1  0.75010659  0.74540068  0.01641909  1
  Na  Na9  1  0.24239046  0.08053910  0.50363609  1
  Na  Na10  1  0.24823815  0.41636762  0.50850642  1
  Na  Na11  1  0.24987149  0.75258090  0.50459454  1
  Na  Na12  1  0.47940758  0.02797218  0.70236876  1
  Na  Na13  1  0.49103304  0.36857838  0.75210683  1
  Na  Na14  1  0.48303812  0.69729053  0.72373994  1
  Na  Na15  1  0.49197316  0.29480253  0.25492363  1
  Na  Na16  1  0.49795946  0.62782492  0.25852377  1
  Na  Na17  1  0.50079651  0.95707058  0.27965268  1
  Na  Na18  1  0.98303812  0.19729053  0.72373994  1
  Na  Na19  1  0.97940758  0.52797218  0.70236876  1
  Na  Na20  1  0.99103304  0.86857838  0.75210683  1
  Na  Na21  1  0.99795946  0.12782492  0.25852377  1
  Na  Na22  1  0.00079651  0.45707058  0.27965268  1
  Na  Na23  1  0.99197316  0.79480253  0.25492363  1
  Na  Na24  1  0.81869804  0.98250648  0.21330578  1
  Na  Na25  1  0.20987083  0.30785889  0.29993616  1
  Na  Na26  1  0.19881313  0.97530295  0.26755608  1
  Na  Na27  1  0.19856795  0.35797105  0.78923889  1
  Na  Na28  1  0.82829646  0.02015643  0.73781674  1
  Na  Na29  1  0.81296859  0.69325195  0.68335462  1
  Na  Na30  1  0.31869804  0.48250648  0.21330578  1
  Na  Na31  1  0.69881313  0.47530295  0.26755608  1
  Na  Na32  1  0.70987083  0.80785889  0.29993616  1
  Na  Na33  1  0.69856795  0.85797105  0.78923889  1
  Na  Na34  1  0.31296859  0.19325195  0.68335462  1
  Na  Na35  1  0.32829646  0.52015643  0.73781674  1
  Ca  Ca0  1  0.89640149  0.91652633  0.93759910  1
  Ca  Ca1  1  0.89312199  0.08917512  0.43430566  1
  Ca  Ca2  1  0.89370820  0.41215620  0.44391429  1
  Ca  Ca3  1  0.90003994  0.74394429  0.43441564  1
  Ca  Ca4  1  0.39640149  0.41652633  0.93759910  1
  Ca  Ca5  1  0.40003994  0.24394429  0.43441564  1
  Ca  Ca6  1  0.39312199  0.58917512  0.43430566  1
  Ca  Ca7  1  0.39370820  0.91215620  0.44391429  1
  Ta  Ta0  1  0.10457120  0.24943924  0.57727712  1
  Ta  Ta1  1  0.10675906  0.58439366  0.56659253  1
  Ta  Ta2  1  0.10430815  0.91623737  0.56152663  1
  Ta  Ta3  1  0.89139429  0.25078026  0.93933883  1
  Ta  Ta4  1  0.89617538  0.58211608  0.94440443  1
  Ta  Ta5  1  0.10770112  0.08512726  0.06092113  1
  Ta  Ta6  1  0.10399940  0.41755126  0.05821799  1
  Ta  Ta7  1  0.10570259  0.74948729  0.05863044  1
  Ta  Ta8  1  0.60675906  0.08439366  0.56659253  1
  Ta  Ta9  1  0.60430815  0.41623737  0.56152663  1
  Ta  Ta10  1  0.60457120  0.74943924  0.57727712  1
  Ta  Ta11  1  0.39617538  0.08211608  0.94440443  1
  Ta  Ta12  1  0.39139429  0.75078026  0.93933883  1
  Ta  Ta13  1  0.60570259  0.24948729  0.05863044  1
  Ta  Ta14  1  0.60770112  0.58512726  0.06092113  1
  Ta  Ta15  1  0.60399940  0.91755126  0.05821799  1
  Si  Si0  1  0.99937741  0.31669014  0.75701191  1
  Si  Si1  1  0.49937741  0.81669014  0.75701191  1
  Si  Si2  1  0.35081454  0.29510291  0.75441736  1
  Si  Si3  1  0.35278418  0.63332010  0.76406358  1
  Si  Si4  1  0.34865507  0.96529753  0.74665830  1
  Si  Si5  1  0.64543948  0.29973917  0.73660408  1
  Si  Si6  1  0.65006195  0.63283679  0.74203034  1
  Si  Si7  1  0.64514468  0.96986471  0.74132797  1
  Si  Si8  1  0.64146241  0.03133387  0.24878821  1
  Si  Si9  1  0.63674210  0.69953271  0.24470401  1
  Si  Si10  1  0.35293584  0.03894946  0.25234567  1
  Si  Si11  1  0.34689535  0.37283194  0.24934353  1
  Si  Si12  1  0.35288134  0.70844063  0.25439725  1
  Si  Si13  1  0.85278418  0.13332010  0.76406358  1
  Si  Si14  1  0.84865507  0.46529753  0.74665830  1
  Si  Si15  1  0.85081454  0.79510291  0.75441736  1
  Si  Si16  1  0.15006195  0.13283679  0.74203034  1
  Si  Si17  1  0.14514468  0.46986471  0.74132797  1
  Si  Si18  1  0.14543948  0.79973917  0.73660408  1
  Si  Si19  1  0.13674210  0.19953271  0.24470401  1
  Si  Si20  1  0.14146241  0.53133387  0.24878821  1
  Si  Si21  1  0.85288134  0.20844063  0.25439725  1
  Si  Si22  1  0.85293584  0.53894946  0.25234567  1
  Si  Si23  1  0.84689535  0.87283194  0.24934353  1
  P  P0  1  0.00254365  0.64932360  0.75425557  1
  P  P1  1  0.00797034  0.98643255  0.74510200  1
  P  P2  1  0.00766566  0.01453486  0.24234840  1
  P  P3  1  0.00857524  0.34464971  0.25085109  1
  P  P4  1  0.00878624  0.67895850  0.24267873  1
  P  P5  1  0.50254365  0.14932360  0.75425557  1
  P  P6  1  0.50797034  0.48643255  0.74510200  1
  P  P7  1  0.50878624  0.17895850  0.24267873  1
  P  P8  1  0.50766566  0.51453486  0.24234840  1
  P  P9  1  0.50857524  0.84464971  0.25085109  1
  P  P10  1  0.63677670  0.36275934  0.23691235  1
  P  P11  1  0.13677670  0.86275934  0.23691235  1
  O  O0  1  0.14560036  0.19371125  0.74818285  1
  O  O1  1  0.14354506  0.53156533  0.74619162  1
  O  O2  1  0.13954060  0.86121544  0.73375431  1
  O  O3  1  0.83665923  0.19059252  0.79846953  1
  O  O4  1  0.84189783  0.52381541  0.79474116  1
  O  O5  1  0.83425751  0.85338111  0.74084452  1
  O  O6  1  0.84856708  0.15058744  0.22782941  1
  O  O7  1  0.84085925  0.48072204  0.22761049  1
  O  O8  1  0.84215556  0.81418261  0.25607810  1
  O  O9  1  0.14340646  0.13853669  0.23720695  1
  O  O10  1  0.13388199  0.47081013  0.24208358  1
  O  O11  1  0.15065951  0.80520421  0.25162486  1
  O  O12  1  0.64354506  0.03156533  0.74619162  1
  O  O13  1  0.63954060  0.36121544  0.73375431  1
  O  O14  1  0.64560036  0.69371125  0.74818285  1
  O  O15  1  0.34189783  0.02381541  0.79474116  1
  O  O16  1  0.33425751  0.35338111  0.74084452  1
  O  O17  1  0.33665923  0.69059252  0.79846953  1
  O  O18  1  0.34215556  0.31418261  0.25607810  1
  O  O19  1  0.34856708  0.65058744  0.22782941  1
  O  O20  1  0.34085925  0.98072204  0.22761049  1
  O  O21  1  0.65065951  0.30520421  0.25162486  1
  O  O22  1  0.64340646  0.63853669  0.23720695  1
  O  O23  1  0.63388199  0.97081013  0.24208358  1
  O  O24  1  0.41829526  0.17412464  0.58390801  1
  O  O25  1  0.43745585  0.51714191  0.58100798  1
  O  O26  1  0.41940678  0.84419254  0.57806646  1
  O  O27  1  0.55954506  0.18627985  0.91630528  1
  O  O28  1  0.56951046  0.52020361  0.92016047  1
  O  O29  1  0.57018775  0.85562197  0.93260135  1
  O  O30  1  0.56422397  0.14514789  0.41370751  1
  O  O31  1  0.56695919  0.47623651  0.40288780  1
  O  O32  1  0.56936934  0.81110169  0.42338680  1
  O  O33  1  0.45901854  0.14510001  0.07715138  1
  O  O34  1  0.44930313  0.48840348  0.06444194  1
  O  O35  1  0.46217731  0.81154509  0.08546338  1
  O  O36  1  0.93745585  0.01714191  0.58100798  1
  O  O37  1  0.91940678  0.34419254  0.57806646  1
  O  O38  1  0.91829526  0.67412464  0.58390801  1
  O  O39  1  0.06951046  0.02020361  0.92016047  1
  O  O40  1  0.07018775  0.35562197  0.93260135  1
  O  O41  1  0.05954506  0.68627985  0.91630528  1
  O  O42  1  0.06936934  0.31110169  0.42338680  1
  O  O43  1  0.06422397  0.64514789  0.41370751  1
  O  O44  1  0.06695919  0.97623651  0.40288780  1
  O  O45  1  0.96217731  0.31154509  0.08546338  1
  O  O46  1  0.95901854  0.64510001  0.07715138  1
  O  O47  1  0.94930313  0.98840348  0.06444194  1
  O  O48  1  0.25435283  0.26907997  0.75241098  1
  O  O49  1  0.25553430  0.60236581  0.73788284  1
  O  O50  1  0.25158431  0.93488855  0.71995286  1
  O  O51  1  0.75796726  0.28449150  0.78211648  1
  O  O52  1  0.76325410  0.61960873  0.77943949  1
  O  O53  1  0.74278161  0.95259593  0.74541026  1
  O  O54  1  0.73272105  0.04964718  0.23791614  1
  O  O55  1  0.72320491  0.39055213  0.24960917  1
  O  O56  1  0.72035738  0.72670477  0.23119214  1
  O  O57  1  0.25251947  0.06232999  0.23878354  1
  O  O58  1  0.25225598  0.39967721  0.25291914  1
  O  O59  1  0.24953004  0.73031669  0.23357598  1
  O  O60  1  0.75553430  0.10236581  0.73788284  1
  O  O61  1  0.75158431  0.43488855  0.71995286  1
  O  O62  1  0.75435283  0.76907997  0.75241098  1
  O  O63  1  0.26325410  0.11960873  0.77943949  1
  O  O64  1  0.24278161  0.45259593  0.74541026  1
  O  O65  1  0.25796726  0.78449150  0.78211648  1
  O  O66  1  0.22035738  0.22670477  0.23119214  1
  O  O67  1  0.23272105  0.54964718  0.23791614  1
  O  O68  1  0.22320491  0.89055213  0.24960917  1
  O  O69  1  0.74953004  0.23031669  0.23357598  1
  O  O70  1  0.75251947  0.56232999  0.23878354  1
  O  O71  1  0.75225598  0.89967721  0.25291914  1
  O  O72  1  0.34556571  0.27462830  0.58607392  1
  O  O73  1  0.36179628  0.63356658  0.59947160  1
  O  O74  1  0.34433705  0.96944455  0.56741448  1
  O  O75  1  0.63134836  0.28263920  0.90241084  1
  O  O76  1  0.63823772  0.61611533  0.90922019  1
  O  O77  1  0.64360458  0.95407269  0.92461605  1
  O  O78  1  0.64472639  0.04755723  0.43144865  1
  O  O79  1  0.62745342  0.37762703  0.39764146  1
  O  O80  1  0.64008482  0.71234015  0.43034259  1
  O  O81  1  0.35428456  0.06443391  0.09073947  1
  O  O82  1  0.32852594  0.39162288  0.06881771  1
  O  O83  1  0.35596339  0.73577110  0.09964113  1
  O  O84  1  0.86179628  0.13356658  0.59947160  1
  O  O85  1  0.84433705  0.46944455  0.56741448  1
  O  O86  1  0.84556571  0.77462830  0.58607392  1
  O  O87  1  0.13823772  0.11611533  0.90922019  1
  O  O88  1  0.14360458  0.45407269  0.92461605  1
  O  O89  1  0.13134836  0.78263920  0.90241084  1
  O  O90  1  0.14008482  0.21234015  0.43034259  1
  O  O91  1  0.14472639  0.54755723  0.43144865  1
  O  O92  1  0.12745342  0.87762703  0.39764146  1
  O  O93  1  0.85596339  0.23577110  0.09964113  1
  O  O94  1  0.85428456  0.56443391  0.09073947  1
  O  O95  1  0.82852594  0.89162288  0.06881771  1
  O  O96  1  0.46292131  0.27363213  0.94173218  1
  O  O97  1  0.46221793  0.60684060  0.93798328  1
  O  O98  1  0.46015277  0.94183452  0.91848170  1
  O  O99  1  0.55537805  0.27765060  0.54986034  1
  O  O100  1  0.55937986  0.61236217  0.55472156  1
  O  O101  1  0.54182395  0.94975036  0.56784083  1
  O  O102  1  0.52798930  0.05075197  0.08469485  1
  O  O103  1  0.53659041  0.37228653  0.05822443  1
  O  O104  1  0.52015422  0.71322834  0.08141186  1
  O  O105  1  0.46295606  0.05956085  0.43572251  1
  O  O106  1  0.45894820  0.39661266  0.42777793  1
  O  O107  1  0.46104525  0.72714525  0.44688193  1
  O  O108  1  0.96221793  0.10684060  0.93798328  1
  O  O109  1  0.96015277  0.44183452  0.91848170  1
  O  O110  1  0.96292131  0.77363213  0.94173218  1
  O  O111  1  0.05937986  0.11236217  0.55472156  1
  O  O112  1  0.04182395  0.44975036  0.56784083  1
  O  O113  1  0.05537805  0.77765060  0.54986034  1
  O  O114  1  0.02015422  0.21322834  0.08141186  1
  O  O115  1  0.02798930  0.55075197  0.08469485  1
  O  O116  1  0.03659041  0.87228653  0.05822443  1
  O  O117  1  0.96104525  0.22714525  0.44688193  1
  O  O118  1  0.96295606  0.55956085  0.43572251  1
  O  O119  1  0.95894820  0.89661266  0.42777793  1
  O  O120  1  0.08976974  0.28838338  0.74714335  1
  O  O121  1  0.08602938  0.62495165  0.74045254  1
  O  O122  1  0.09136296  0.95752135  0.73569329  1
  O  O123  1  0.94150733  0.27310282  0.79186400  1
  O  O124  1  0.94783638  0.60759980  0.78838944  1
  O  O125  1  0.94355072  0.94820527  0.76060876  1
  O  O126  1  0.93472184  0.04678912  0.25651329  1
  O  O127  1  0.92860162  0.37774687  0.24037089  1
  O  O128  1  0.92704523  0.71185785  0.22785240  1
  O  O129  1  0.09579087  0.04528144  0.25479343  1
  O  O130  1  0.09279220  0.37648396  0.25738404  1
  O  O131  1  0.09151627  0.71104297  0.24793507  1
  O  O132  1  0.58602938  0.12495165  0.74045254  1
  O  O133  1  0.59136296  0.45752135  0.73569329  1
  O  O134  1  0.58976974  0.78838338  0.74714335  1
  O  O135  1  0.44783638  0.10759980  0.78838944  1
  O  O136  1  0.44355072  0.44820527  0.76060876  1
  O  O137  1  0.44150733  0.77310282  0.79186400  1
  O  O138  1  0.42704523  0.21185785  0.22785240  1
  O  O139  1  0.43472184  0.54678912  0.25651329  1
  O  O140  1  0.42860162  0.87774687  0.24037089  1
  O  O141  1  0.59151627  0.21104297  0.24793507  1
  O  O142  1  0.59579087  0.54528144  0.25479343  1
  O  O143  1  0.59279220  0.87648396  0.25738404  1
loop_
_geom_bond_atom_site_label_1
_geom_bond_atom_site_label_2
_geom_bond_distance
_geom_bond_site_symmetry_2
Na0 O66 2.322900 1_555
Na0 O0 2.463728 1_554
Na0 O138 2.497112 1_555
Na0 O48 2.533608 1_554
Na0 O120 2.591628 1_554
Na0 O18 2.604189 1_555
Na1 O19 2.314060 1_555
Na1 O121 2.411271 1_554
Na1 O67 2.489008 1_555
Na1 O1 2.613340 1_554
Na1 O49 2.626325 1_554
Na1 O139 2.882914 1_555
Na2 O20 2.465378 1_555
Na2 O140 2.479529 1_555
Na2 O2 2.540972 1_554
Na2 O50 2.616867 1_554
Na2 O68 2.664120 1_555
Na2 O122 2.664909 1_554
Na3 O21 2.389256 1_555
Na3 O141 2.518017 1_555
Na3 O69 2.540970 1_555
Na3 O51 2.607450 1_555
Na3 O123 2.700103 1_555
Na3 O3 2.780013 1_555
Na4 O142 2.331624 1_555
Na4 O22 2.552162 1_555
Na4 O70 2.559035 1_555
Na4 O52 2.570597 1_555
Na4 O4 2.672775 1_555
Na4 O124 2.866648 1_555
Na5 O71 2.410609 1_555
Na5 O53 2.421090 1_555
Na5 O5 2.451494 1_555
Na5 O143 2.458170 1_555
Na5 O23 2.521377 1_555
Na5 O125 2.736695 1_555
Na6 O6 2.314060 1_555
Na6 O132 2.411271 1_554
Na6 O54 2.489008 1_555
Na6 O12 2.613340 1_554
Na6 O60 2.626325 1_554
Na6 O126 2.882914 1_555
Na7 O7 2.465378 1_555
Na7 O127 2.479529 1_555
Na7 O13 2.540972 1_554
Na7 O61 2.616867 1_554
Na7 O55 2.664120 1_555
Na7 O133 2.664909 1_554
Na8 O56 2.322900 1_555
Na8 O14 2.463728 1_554
Na8 O128 2.497112 1_555
Na8 O62 2.533608 1_554
Na8 O134 2.591628 1_554
Na8 O8 2.604189 1_555
Na9 O129 2.331624 1_555
Na9 O9 2.552162 1_555
Na9 O57 2.559035 1_555
Na9 O63 2.570597 1_555
Na9 O15 2.672775 1_555
Na9 O135 2.866648 1_555
Na10 O58 2.410609 1_555
Na10 O64 2.421090 1_555
Na10 O16 2.451494 1_555
Na10 O130 2.458170 1_555
Na10 O10 2.521377 1_555
Na10 O136 2.736695 1_555
Na11 O11 2.389256 1_555
Na11 O131 2.518017 1_555
Na11 O59 2.540970 1_555
Na11 O65 2.607450 1_555
Na11 O137 2.700103 1_555
Na11 O17 2.780013 1_555
Na12 O74 2.380871 1_545
Na12 O12 2.405331 1_555
Na12 O105 2.451589 1_555
Na12 O135 2.461008 1_555
Na13 O136 2.320633 1_555
Na13 O103 2.450053 1_556
Na13 O13 2.469429 1_555
Na13 O16 2.472357 1_555
Na13 O106 2.806224 1_555
Na14 O73 2.354705 1_555
Na14 O137 2.363531 1_555
Na14 O14 2.465606 1_555
Na14 O107 2.482227 1_555
Na15 O99 2.314921 1_555
Na15 O18 2.445255 1_555
Na15 O138 2.450359 1_555
Na15 O21 2.557981 1_555
Na15 O96 2.680040 1_554
Na15 O141 2.803808 1_555
Na15 O79 2.875718 1_555
Na16 O19 2.310489 1_555
Na16 O100 2.324062 1_555
Na16 O139 2.434849 1_555
Na16 O22 2.448756 1_555
Na16 O97 2.698296 1_554
Na16 O142 2.750888 1_555
Na16 O80 2.976593 1_555
Na16 O104 2.980966 1_555
Na17 O101 2.324784 1_555
Na17 O23 2.361910 1_555
Na17 O140 2.388097 1_555
Na17 O20 2.391148 1_555
Na17 O143 2.714473 1_555
Na18 O84 2.354705 1_555
Na18 O123 2.363531 1_555
Na18 O0 2.465606 1_655
Na18 O117 2.482227 1_555
Na19 O85 2.380871 1_555
Na19 O1 2.405331 1_655
Na19 O118 2.451589 1_555
Na19 O124 2.461008 1_555
Na20 O125 2.320633 1_555
Na20 O116 2.450053 1_656
Na20 O2 2.469429 1_655
Na20 O5 2.472357 1_555
Na20 O119 2.806224 1_555
Na21 O6 2.310489 1_555
Na21 O111 2.324062 1_655
Na21 O126 2.434849 1_555
Na21 O9 2.448756 1_655
Na21 O108 2.698296 1_554
Na21 O129 2.750888 1_655
Na21 O90 2.976593 1_655
Na21 O114 2.980966 1_655
Na22 O112 2.324784 1_555
Na22 O10 2.361910 1_555
Na22 O127 2.388097 1_455
Na22 O7 2.391148 1_455
Na22 O130 2.714473 1_555
Na23 O113 2.314921 1_655
Na23 O8 2.445255 1_555
Na23 O128 2.450359 1_555
Na23 O11 2.557981 1_655
Na23 O110 2.680040 1_554
Na23 O131 2.803808 1_655
Na23 O92 2.875718 1_655
Na24 O54 2.373500 1_565
Na24 O126 2.416503 1_565
Na24 O71 2.617359 1_555
Na24 O77 2.620124 1_554
Na24 O95 2.857946 1_555
Na24 O36 2.902239 1_565
Na25 O66 2.338361 1_555
Na25 O18 2.363559 1_555
Na25 O72 2.412859 1_555
Na25 O130 2.509777 1_555
Na25 O58 2.703536 1_555
Na26 O74 2.363124 1_555
Na26 O68 2.372162 1_555
Na26 O129 2.476057 1_565
Na26 O20 2.491369 1_555
Na26 O57 2.598395 1_565
Na26 O39 2.880060 1_564
Na26 O44 2.982695 1_555
Na27 O82 2.358299 1_556
Na27 O16 2.441393 1_555
Na27 O120 2.454690 1_555
Na27 O48 2.673465 1_555
Na27 O64 2.776470 1_555
Na27 O40 2.992145 1_555
Na27 O42 3.018446 1_555
Na28 O53 2.324274 1_545
Na28 O60 2.527784 1_555
Na28 O47 2.597477 1_546
Na28 O125 2.612464 1_545
Na28 O78 2.740983 1_555
Na28 O36 2.814023 1_555
Na29 O38 2.375047 1_555
Na29 O80 2.420959 1_555
Na29 O62 2.496164 1_555
Na29 O52 2.505396 1_555
Na29 O86 2.563056 1_555
Na30 O67 2.373500 1_555
Na30 O139 2.416503 1_555
Na30 O58 2.617359 1_555
Na30 O88 2.620124 1_554
Na30 O82 2.857946 1_555
Na30 O25 2.902239 1_555
Na31 O85 2.363124 1_555
Na31 O55 2.372162 1_555
Na31 O142 2.476057 1_555
Na31 O7 2.491369 1_555
Na31 O70 2.598395 1_555
Na31 O28 2.880060 1_554
Na31 O31 2.982695 1_555
Na32 O56 2.338361 1_555
Na32 O8 2.363559 1_555
Na32 O86 2.412859 1_555
Na32 O143 2.509777 1_555
Na32 O71 2.703536 1_555
Na33 O95 2.358299 1_556
Na33 O5 2.441393 1_555
Na33 O134 2.454690 1_555
Na33 O62 2.673465 1_555
Na33 O53 2.776470 1_555
Na33 O29 2.992145 1_555
Na33 O32 3.018446 1_555
Na34 O24 2.375047 1_555
Na34 O90 2.420959 1_555
Na34 O48 2.496164 1_555
Na34 O63 2.505396 1_555
Na34 O72 2.563056 1_555
Na35 O64 2.324274 1_555
Na35 O49 2.527784 1_555
Na35 O34 2.597477 1_556
Na35 O136 2.612464 1_555
Na35 O91 2.740983 1_555
Na35 O25 2.814023 1_555
Ca0 O95 2.134835 1_556
Ca0 O47 2.190333 1_556
Ca0 O116 2.195167 1_656
Ca0 O53 2.255615 1_555
Ca0 O5 2.267069 1_555
Ca0 O125 2.307531 1_555
Ca1 O84 2.200531 1_555
Ca1 O36 2.258267 1_555
Ca1 O111 2.295405 1_655
Ca1 O6 2.313672 1_555
Ca1 O126 2.372919 1_555
Ca1 O54 2.374934 1_555
Ca2 O37 2.135648 1_555
Ca2 O112 2.198608 1_655
Ca2 O55 2.307117 1_555
Ca2 O85 2.311635 1_555
Ca2 O127 2.410797 1_555
Ca2 O7 2.495724 1_555
Ca3 O86 2.176081 1_555
Ca3 O113 2.254369 1_655
Ca3 O38 2.270478 1_555
Ca3 O128 2.328741 1_555
Ca3 O8 2.340414 1_555
Ca3 O56 2.395478 1_555
Ca4 O82 2.134835 1_556
Ca4 O34 2.190333 1_556
Ca4 O103 2.195167 1_556
Ca4 O64 2.255615 1_555
Ca4 O16 2.267069 1_555
Ca4 O136 2.307531 1_555
Ca5 O72 2.176081 1_555
Ca5 O99 2.254369 1_555
Ca5 O24 2.270478 1_555
Ca5 O138 2.328741 1_555
Ca5 O18 2.340414 1_555
Ca5 O66 2.395478 1_555
Ca6 O73 2.200531 1_555
Ca6 O25 2.258267 1_555
Ca6 O100 2.295405 1_555
Ca6 O19 2.313672 1_555
Ca6 O139 2.372919 1_555
Ca6 O67 2.374934 1_555
Ca7 O26 2.135648 1_555
Ca7 O101 2.198608 1_555
Ca7 O68 2.307117 1_555
Ca7 O74 2.311635 1_555
Ca7 O140 2.410797 1_555
Ca7 O20 2.495724 1_555
O0 Si16 1.670244 1_555
O0 Ta0 2.005555 1_555
O1 Si17 1.690384 1_555
O1 Ta1 2.006170 1_555
O2 Si18 1.685054 1_555
O2 Ta2 2.011942 1_555
O3 Si13 1.646307 1_555
O3 Ta3 1.958339 1_555
O4 Si14 1.679277 1_555
O4 Ta4 1.948782 1_555
O5 Si15 1.609964 1_555
O6 Si21 1.597514 1_555
O7 Si22 1.606155 1_555
O8 Si23 1.610927 1_555
O9 Si19 1.676838 1_555
O9 Ta5 1.996876 1_555
O10 Si20 1.660387 1_555
O10 Ta6 2.058607 1_555
O11 P11 1.585956 1_555
O11 Ta7 2.116770 1_555
O12 Si7 1.690384 1_545
O12 Ta8 2.006170 1_555
O13 Si5 1.685054 1_555
O13 Ta9 2.011942 1_555
O14 Si6 1.670244 1_555
O14 Ta10 2.005555 1_555
O15 Si4 1.679277 1_545
O15 Ta11 1.948782 1_555
O16 Si2 1.609964 1_555
O17 Si3 1.646307 1_555
O17 Ta12 1.958339 1_555
O18 Si11 1.610927 1_555
O19 Si12 1.597514 1_555
O20 Si10 1.606155 1_565
O21 P10 1.585956 1_555
O21 Ta13 2.116770 1_555
O22 Si9 1.676838 1_555
O22 Ta14 1.996876 1_555
O23 Si8 1.660387 1_565
O23 Ta15 2.058607 1_555
O24 P5 1.509047 1_555
O25 P6 1.508724 1_555
O26 Si1 1.569353 1_555
O27 P5 1.576893 1_555
O27 Ta13 2.029354 1_556
O28 P6 1.600756 1_555
O28 Ta14 2.067345 1_556
O29 Si1 1.700937 1_555
O29 Ta15 1.939841 1_556
O30 P7 1.577876 1_555
O30 Ta8 2.022717 1_555
O31 P8 1.596271 1_555
O31 Ta9 2.040845 1_555
O32 P9 1.583809 1_555
O32 Ta10 2.058825 1_555
O33 P7 1.545161 1_555
O33 Ta11 2.011547 1_554
O34 P8 1.507293 1_555
O35 P9 1.535491 1_555
O35 Ta12 2.021292 1_554
O36 P1 1.508724 1_645
O37 Si0 1.569353 1_555
O38 P0 1.509047 1_655
O39 P1 1.600756 1_545
O39 Ta5 2.067345 1_556
O40 Si0 1.700937 1_455
O40 Ta6 1.939841 1_556
O41 P0 1.576893 1_555
O41 Ta7 2.029354 1_556
O42 P3 1.583809 1_555
O42 Ta0 2.058825 1_555
O43 P4 1.577876 1_555
O43 Ta1 2.022717 1_555
O44 P2 1.596271 1_565
O44 Ta2 2.040845 1_555
O45 P3 1.535491 1_655
O45 Ta3 2.021292 1_554
O46 P4 1.545161 1_655
O46 Ta4 2.011547 1_554
O47 P2 1.507293 1_665
O48 Si2 1.684165 1_555
O48 Ta0 2.035585 1_555
O49 Si3 1.658415 1_555
O49 Ta1 2.008565 1_555
O50 Si4 1.646473 1_555
O50 Ta2 1.986729 1_555
O51 Si5 1.640551 1_555
O51 Ta3 1.976822 1_555
O52 Si6 1.666905 1_555
O52 Ta4 2.030936 1_555
O53 Si7 1.601542 1_555
O54 Si8 1.593202 1_555
O55 P10 1.518312 1_555
O56 Si9 1.591418 1_555
O57 Si10 1.655953 1_555
O57 Ta5 2.006694 1_555
O58 Si11 1.689897 1_555
O58 Ta6 2.033737 1_555
O59 Si12 1.652837 1_555
O59 Ta7 1.963318 1_555
O60 Si13 1.658415 1_555
O60 Ta8 2.008565 1_555
O61 Si14 1.646473 1_555
O61 Ta9 1.986729 1_555
O62 Si15 1.684165 1_555
O62 Ta10 2.035585 1_555
O63 Si16 1.666905 1_555
O63 Ta11 2.030936 1_555
O64 Si17 1.601542 1_555
O65 Si18 1.640551 1_555
O65 Ta12 1.976822 1_555
O66 Si19 1.591418 1_555
O67 Si20 1.593202 1_555
O68 P11 1.518312 1_555
O69 Si21 1.652837 1_555
O69 Ta13 1.963318 1_555
O70 Si22 1.655953 1_555
O70 Ta14 2.006694 1_555
O71 Si23 1.689897 1_555
O71 Ta15 2.033737 1_555
O72 Si2 1.589396 1_555
O73 Si3 1.587869 1_555
O74 Si4 1.600615 1_555
O75 Si5 1.717783 1_555
O75 Ta13 1.923199 1_556
O76 Si6 1.704258 1_555
O76 Ta14 1.911114 1_556
O77 Si7 1.741673 1_555
O77 Ta15 1.943038 1_556
O78 Si8 1.694531 1_555
O78 Ta8 1.935234 1_555
O79 P10 1.606972 1_555
O79 Ta9 2.026702 1_555
O80 Si9 1.698604 1_555
O80 Ta10 2.001192 1_555
O81 Si10 1.643898 1_555
O81 Ta11 1.867551 1_554
O82 Si11 1.584915 1_555
O83 Si12 1.625021 1_555
O83 Ta12 1.891068 1_554
O84 Si13 1.587869 1_555
O85 Si14 1.600615 1_555
O86 Si15 1.589396 1_555
O87 Si16 1.704258 1_555
O87 Ta5 1.911114 1_556
O88 Si17 1.741673 1_555
O88 Ta6 1.943038 1_556
O89 Si18 1.717783 1_555
O89 Ta7 1.923199 1_556
O90 Si19 1.698604 1_555
O90 Ta0 2.001192 1_555
O91 Si20 1.694531 1_555
O91 Ta1 1.935234 1_555
O92 P11 1.606972 1_555
O92 Ta2 2.026702 1_555
O93 Si21 1.625021 1_555
O93 Ta3 1.891068 1_554
O94 Si22 1.643898 1_555
O94 Ta4 1.867551 1_554
O95 Si23 1.584915 1_555
O96 Si2 1.714706 1_555
O96 Ta13 1.985216 1_556
O97 Si3 1.701601 1_555
O97 Ta14 1.994082 1_556
O98 Si4 1.678273 1_555
O98 Ta15 1.985693 1_556
O99 Si5 1.585181 1_555
O100 Si6 1.574622 1_555
O101 Si7 1.586942 1_555
O102 Si8 1.634795 1_555
O102 Ta11 1.918396 1_554
O103 P10 1.508998 1_555
O104 Si9 1.618814 1_555
O104 Ta12 1.968026 1_554
O105 Si10 1.677338 1_555
O105 Ta8 1.996080 1_555
O106 Si11 1.707340 1_555
O106 Ta9 1.970558 1_555
O107 Si12 1.682738 1_555
O107 Ta10 1.970036 1_555
O108 Si13 1.701601 1_555
O108 Ta5 1.994082 1_656
O109 Si14 1.678273 1_555
O109 Ta6 1.985693 1_656
O110 Si15 1.714706 1_555
O110 Ta7 1.985216 1_656
O111 Si16 1.574622 1_555
O112 Si17 1.586942 1_555
O113 Si18 1.585181 1_555
O114 Si19 1.618814 1_555
O114 Ta3 1.968026 1_454
O115 Si20 1.634795 1_555
O115 Ta4 1.918396 1_454
O116 P11 1.508998 1_555
O117 Si21 1.682738 1_555
O117 Ta0 1.970036 1_655
O118 Si22 1.677338 1_555
O118 Ta1 1.996080 1_655
O119 Si23 1.707340 1_555
O119 Ta2 1.970558 1_655
O120 Si0 1.678229 1_455
O120 Ta0 2.000023 1_555
O121 P0 1.552379 1_555
O121 Ta1 2.108093 1_555
O122 P1 1.586345 1_555
O122 Ta2 2.051051 1_555
O123 Si0 1.648754 1_555
O123 Ta3 2.014559 1_555
O124 P0 1.574563 1_655
O124 Ta4 2.130830 1_555
O125 P1 1.529648 1_655
O126 P2 1.518980 1_655
O127 P3 1.516986 1_655
O128 P4 1.520085 1_655
O129 P2 1.584378 1_555
O129 Ta5 2.179623 1_555
O130 P3 1.572550 1_555
O130 Ta6 2.231954 1_555
O131 P4 1.562076 1_555
O131 Ta7 2.144817 1_555
O132 P5 1.552379 1_555
O132 Ta8 2.108093 1_555
O133 P6 1.586345 1_555
O133 Ta9 2.051051 1_555
O134 Si1 1.678229 1_555
O134 Ta10 2.000023 1_555
O135 P5 1.574563 1_555
O135 Ta11 2.130830 1_555
O136 P6 1.529648 1_555
O137 Si1 1.648754 1_555
O137 Ta12 2.014559 1_555
O138 P7 1.520085 1_555
O139 P8 1.518980 1_555
O140 P9 1.516986 1_555
O141 P7 1.562076 1_555
O141 Ta13 2.144817 1_555
O142 P8 1.584378 1_555
O142 Ta14 2.179623 1_555
O143 P9 1.572550 1_555
O143 Ta15 2.231954 1_555
