# generated using pymatgen
data_Na2AlGe(PO4)3
_symmetry_space_group_name_H-M   'P 1'
_cell_length_a   8.48317110
_cell_length_b   8.48317085
_cell_length_c   21.59264750
_cell_angle_alpha   90.17112057
_cell_angle_beta   89.82887942
_cell_angle_gamma   120.44803246
_symmetry_Int_Tables_number   1
_chemical_formula_structural   Na2AlGe(PO4)3
_chemical_formula_sum   'Na12 Al6 Ge6 P18 O72'
_cell_volume   1339.59013697
_cell_formula_units_Z   6
loop_
 _symmetry_equiv_pos_site_id
 _symmetry_equiv_pos_as_xyz
  1  'x, y, z'
loop_
 _atom_site_type_symbol
 _atom_site_label
 _atom_site_symmetry_multiplicity
 _atom_site_fract_x
 _atom_site_fract_y
 _atom_site_fract_z
 _atom_site_occupancy
  Na  Na0  1  0.36425610  0.36249981  0.24964946  1
  Na  Na1  1  0.63750019  0.63574390  0.74964946  1
  Na  Na2  1  0.03092310  0.69583281  0.58298246  1
  Na  Na3  1  0.30416719  0.96907690  0.08298246  1
  Na  Na4  1  0.69758910  0.02916681  0.91631646  1
  Na  Na5  1  0.97083319  0.30241090  0.41631646  1
  Na  Na6  1  0.99981015  0.99950014  0.49881633  1
  Na  Na7  1  0.00049986  0.00018985  0.99881633  1
  Na  Na8  1  0.66647715  0.33283314  0.83214933  1
  Na  Na9  1  0.66716686  0.33352285  0.33214933  1
  Na  Na10  1  0.33314315  0.66616714  0.16548333  1
  Na  Na11  1  0.33383286  0.66685685  0.66548333  1
  Al  Al0  1  0.99950450  0.99534966  0.35373797  1
  Al  Al1  1  0.00465034  0.00049550  0.85373797  1
  Al  Al2  1  0.66617150  0.32868266  0.68707097  1
  Al  Al3  1  0.67131734  0.33382850  0.18707097  1
  Al  Al4  1  0.33283750  0.66201666  0.02040497  1
  Al  Al5  1  0.33798334  0.66716250  0.52040497  1
  Ge  Ge0  1  0.00132949  0.00548594  0.64774009  1
  Ge  Ge1  1  0.99451406  0.99867051  0.14774009  1
  Ge  Ge2  1  0.66799649  0.33881894  0.98107309  1
  Ge  Ge3  1  0.66118106  0.33200351  0.48107309  1
  Ge  Ge4  1  0.33466249  0.67215294  0.31440709  1
  Ge  Ge5  1  0.32784706  0.66533751  0.81440709  1
  P  P0  1  0.28743622  0.99668323  0.25062026  1
  P  P1  1  0.71475485  0.71339209  0.25124640  1
  P  P2  1  0.99340472  0.28640416  0.25166365  1
  P  P3  1  0.28660791  0.28524515  0.75124640  1
  P  P4  1  0.00331677  0.71256378  0.75062026  1
  P  P5  1  0.71359584  0.00659528  0.75166365  1
  P  P6  1  0.95410322  0.33001623  0.58395326  1
  P  P7  1  0.38142185  0.04672509  0.58457940  1
  P  P8  1  0.66007172  0.61973716  0.58499665  1
  P  P9  1  0.95327491  0.61857815  0.08457940  1
  P  P10  1  0.66998377  0.04589678  0.08395326  1
  P  P11  1  0.38026284  0.33992828  0.08499665  1
  P  P12  1  0.62076922  0.66335023  0.91728726  1
  P  P13  1  0.04808785  0.38005909  0.91791340  1
  P  P14  1  0.32673772  0.95307116  0.91833065  1
  P  P15  1  0.61994091  0.95191215  0.41791340  1
  P  P16  1  0.33664977  0.37923078  0.41728726  1
  P  P17  1  0.04692884  0.67326228  0.41833065  1
  O  O0  1  0.20139850  0.03701547  0.30597539  1
  O  O1  1  0.83189911  0.79977735  0.30773282  1
  O  O2  1  0.96795179  0.17325207  0.30971182  1
  O  O3  1  0.20022265  0.16810089  0.80773282  1
  O  O4  1  0.96298453  0.79860150  0.80597539  1
  O  O5  1  0.82674793  0.03204821  0.80971182  1
  O  O6  1  0.79097709  0.95449143  0.69362084  1
  O  O7  1  0.16884912  0.20973911  0.69163565  1
  O  O8  1  0.03998752  0.82781506  0.68984497  1
  O  O9  1  0.79026089  0.83115088  0.19163565  1
  O  O10  1  0.04550857  0.20902291  0.19362084  1
  O  O11  1  0.17218494  0.96001248  0.18984497  1
  O  O12  1  0.86806550  0.37034847  0.63930839  1
  O  O13  1  0.49856611  0.13311035  0.64106582  1
  O  O14  1  0.63461879  0.50658507  0.64304482  1
  O  O15  1  0.86688965  0.50143389  0.14106582  1
  O  O16  1  0.62965153  0.13193450  0.13930839  1
  O  O17  1  0.49341493  0.36538121  0.14304482  1
  O  O18  1  0.45764409  0.28782443  0.02695384  1
  O  O19  1  0.83551612  0.54307211  0.02496865  1
  O  O20  1  0.70665452  0.16114806  0.02317797  1
  O  O21  1  0.45692789  0.16448388  0.52496865  1
  O  O22  1  0.71217557  0.54235591  0.52695384  1
  O  O23  1  0.83885194  0.29334548  0.52317797  1
  O  O24  1  0.53473150  0.70368247  0.97264239  1
  O  O25  1  0.16523211  0.46644435  0.97439982  1
  O  O26  1  0.30128479  0.83991907  0.97637882  1
  O  O27  1  0.53355565  0.83476789  0.47439982  1
  O  O28  1  0.29631753  0.46526850  0.47264239  1
  O  O29  1  0.16008093  0.69871521  0.47637882  1
  O  O30  1  0.12431009  0.62115843  0.36028784  1
  O  O31  1  0.50218212  0.87640611  0.35830265  1
  O  O32  1  0.37332052  0.49448206  0.35651197  1
  O  O33  1  0.12359389  0.49781788  0.85830265  1
  O  O34  1  0.37884157  0.87568991  0.86028784  1
  O  O35  1  0.50551794  0.62667948  0.85651197  1
  O  O36  1  0.02698302  0.83885392  0.40926602  1
  O  O37  1  0.81253316  0.97956508  0.40964180  1
  O  O38  1  0.16401908  0.18957314  0.40898274  1
  O  O39  1  0.02043492  0.18746684  0.90964180  1
  O  O40  1  0.16114608  0.97301698  0.90926602  1
  O  O41  1  0.81042686  0.83598092  0.90898274  1
  O  O42  1  0.97174421  0.15769779  0.59006890  1
  O  O43  1  0.18491516  0.02195092  0.58980128  1
  O  O44  1  0.84011386  0.81282127  0.59024362  1
  O  O45  1  0.97804908  0.81508484  0.08980128  1
  O  O46  1  0.84230221  0.02825579  0.09006890  1
  O  O47  1  0.18717873  0.15988614  0.09024362  1
  O  O48  1  0.69365002  0.17218692  0.74259902  1
  O  O49  1  0.47920016  0.31289808  0.74297480  1
  O  O50  1  0.83068608  0.52290614  0.74231574  1
  O  O51  1  0.68710192  0.52079984  0.24297480  1
  O  O52  1  0.82781308  0.30634998  0.24259902  1
  O  O53  1  0.47709386  0.16931392  0.24231574  1
  O  O54  1  0.63841121  0.49103079  0.92340190  1
  O  O55  1  0.85158216  0.35528392  0.92313428  1
  O  O56  1  0.50678086  0.14615427  0.92357662  1
  O  O57  1  0.64471608  0.14841784  0.42313428  1
  O  O58  1  0.50896921  0.36158879  0.42340190  1
  O  O59  1  0.85384573  0.49321914  0.42357662  1
  O  O60  1  0.36031602  0.50552092  0.07593302  1
  O  O61  1  0.14586616  0.64623208  0.07630880  1
  O  O62  1  0.49735208  0.85624014  0.07564974  1
  O  O63  1  0.35376792  0.85413384  0.57630880  1
  O  O64  1  0.49447908  0.63968398  0.57593302  1
  O  O65  1  0.14375986  0.50264792  0.57564974  1
  O  O66  1  0.30507721  0.82436479  0.25673590  1
  O  O67  1  0.51824816  0.68861792  0.25646828  1
  O  O68  1  0.17344686  0.47948827  0.25691062  1
  O  O69  1  0.31138208  0.48175184  0.75646828  1
  O  O70  1  0.17563521  0.69492279  0.75673590  1
  O  O71  1  0.52051173  0.82655314  0.75691062  1
loop_
_geom_bond_atom_site_label_1
_geom_bond_atom_site_label_2
_geom_bond_distance
_geom_bond_site_symmetry_2
Na0 O53 2.283545 1_555
Na0 O68 2.292438 1_555
Na0 O51 2.365621 1_555
Na0 O67 2.391167 1_555
Na0 O17 2.541233 1_555
Na0 O32 2.546007 1_555
Na0 O10 2.629137 1_555
Na0 O0 2.674995 1_555
Na1 O50 2.283545 1_555
Na1 O71 2.292438 1_555
Na1 O49 2.365621 1_555
Na1 O69 2.391167 1_555
Na1 O14 2.541233 1_555
Na1 O35 2.546007 1_555
Na1 O6 2.629137 1_555
Na1 O4 2.674995 1_555
Na2 O65 2.283529 1_555
Na2 O44 2.292438 1_455
Na2 O63 2.365612 1_555
Na2 O43 2.391167 1_565
Na2 O29 2.541208 1_555
Na2 O8 2.546007 1_555
Na2 O22 2.629137 1_455
Na2 O12 2.674995 1_455
Na3 O62 2.283529 1_555
Na3 O47 2.292438 1_565
Na3 O61 2.365612 1_555
Na3 O45 2.391167 1_455
Na3 O26 2.541208 1_554
Na3 O11 2.546007 1_555
Na3 O18 2.629137 1_565
Na3 O16 2.674995 1_565
Na4 O41 2.283545 1_545
Na4 O56 2.292422 1_555
Na4 O39 2.365621 1_655
Na4 O55 2.391158 1_555
Na4 O5 2.541233 1_555
Na4 O20 2.545982 1_556
Na4 O34 2.629137 1_545
Na4 O24 2.674995 1_545
Na5 O38 2.283545 1_655
Na5 O59 2.292422 1_555
Na5 O37 2.365621 1_545
Na5 O57 2.391158 1_555
Na5 O2 2.541233 1_555
Na5 O23 2.545982 1_555
Na5 O30 2.629137 1_655
Na5 O28 2.674995 1_655
Na6 O36 2.439105 1_655
Na6 O37 2.450348 1_555
Na6 O38 2.455415 1_665
Na6 O42 2.458730 1_565
Na6 O44 2.463491 1_555
Na6 O43 2.464712 1_665
Na7 O40 2.439105 1_545
Na7 O39 2.450348 1_555
Na7 O41 2.455415 1_445
Na7 O46 2.458730 1_456
Na7 O47 2.463491 1_556
Na7 O45 2.464712 1_446
Na8 O48 2.439105 1_555
Na8 O49 2.450348 1_555
Na8 O50 2.455415 1_555
Na8 O54 2.458730 1_555
Na8 O56 2.463491 1_555
Na8 O55 2.464712 1_555
Na9 O52 2.439105 1_555
Na9 O51 2.450348 1_555
Na9 O53 2.455415 1_555
Na9 O58 2.458730 1_555
Na9 O59 2.463491 1_555
Na9 O57 2.464712 1_555
Na10 O60 2.439105 1_555
Na10 O61 2.450348 1_555
Na10 O62 2.455415 1_555
Na10 O66 2.458730 1_555
Na10 O68 2.463491 1_555
Na10 O67 2.464712 1_555
Na11 O64 2.439105 1_555
Na11 O63 2.450348 1_555
Na11 O65 2.455415 1_555
Na11 O70 2.458730 1_555
Na11 O71 2.463491 1_555
Na11 O69 2.464712 1_555
Al0 O1 1.835403 1_555
Al0 O0 1.870823 1_665
Al0 O36 1.891885 1_655
Al0 O2 1.916372 1_565
Al0 O38 1.937280 1_665
Al0 O37 1.940378 1_555
Al1 O3 1.835403 1_555
Al1 O4 1.870823 1_445
Al1 O40 1.891885 1_545
Al1 O5 1.916372 1_455
Al1 O41 1.937280 1_445
Al1 O39 1.940378 1_555
Al2 O13 1.835403 1_555
Al2 O12 1.870823 1_555
Al2 O48 1.891885 1_555
Al2 O14 1.916372 1_555
Al2 O50 1.937280 1_555
Al2 O49 1.940378 1_555
Al3 O15 1.835403 1_555
Al3 O16 1.870823 1_555
Al3 O52 1.891885 1_555
Al3 O17 1.916372 1_555
Al3 O53 1.937280 1_555
Al3 O51 1.940378 1_555
Al4 O25 1.835403 1_554
Al4 O24 1.870823 1_554
Al4 O60 1.891885 1_555
Al4 O26 1.916372 1_554
Al4 O62 1.937280 1_555
Al4 O61 1.940378 1_555
Al5 O27 1.835403 1_555
Al5 O28 1.870823 1_555
Al5 O64 1.891885 1_555
Al5 O29 1.916372 1_555
Al5 O65 1.937280 1_555
Al5 O63 1.940378 1_555
Ge0 O7 1.850078 1_555
Ge0 O6 1.887459 1_445
Ge0 O42 1.902871 1_455
Ge0 O8 1.927881 1_545
Ge0 O43 1.943975 1_555
Ge0 O44 1.953347 1_445
Ge1 O9 1.850078 1_555
Ge1 O10 1.887459 1_665
Ge1 O46 1.902871 1_565
Ge1 O11 1.927881 1_655
Ge1 O45 1.943975 1_555
Ge1 O47 1.953347 1_665
Ge2 O19 1.850078 1_556
Ge2 O18 1.887459 1_556
Ge2 O54 1.902871 1_555
Ge2 O20 1.927881 1_556
Ge2 O55 1.943975 1_555
Ge2 O56 1.953347 1_555
Ge3 O21 1.850078 1_555
Ge3 O22 1.887459 1_555
Ge3 O58 1.902871 1_555
Ge3 O23 1.927881 1_555
Ge3 O57 1.943975 1_555
Ge3 O59 1.953347 1_555
Ge4 O31 1.850078 1_555
Ge4 O30 1.887459 1_555
Ge4 O66 1.902871 1_555
Ge4 O32 1.927881 1_555
Ge4 O67 1.943975 1_555
Ge4 O68 1.953347 1_555
Ge5 O33 1.850078 1_555
Ge5 O34 1.887459 1_555
Ge5 O70 1.902871 1_555
Ge5 O35 1.927881 1_555
Ge5 O69 1.943975 1_555
Ge5 O71 1.953347 1_555
O0 P0 1.524427 1_545
O1 P1 1.508654 1_555
O2 P2 1.527928 1_555
O3 P3 1.508654 1_555
O4 P4 1.524427 1_655
O5 P5 1.527928 1_555
O6 P5 1.575717 1_565
O7 P3 1.555385 1_555
O8 P4 1.572184 1_555
O9 P1 1.555385 1_555
O10 P2 1.575717 1_455
O11 P0 1.572184 1_555
O12 P6 1.524427 1_555
O13 P7 1.508654 1_555
O14 P8 1.527928 1_555
O15 P9 1.508654 1_555
O16 P10 1.524427 1_555
O17 P11 1.527928 1_555
O18 P11 1.575717 1_555
O19 P9 1.555385 1_555
O20 P10 1.572184 1_555
O21 P7 1.555385 1_555
O22 P8 1.575717 1_555
O23 P6 1.572184 1_555
O24 P12 1.524427 1_555
O25 P13 1.508654 1_555
O26 P14 1.527928 1_555
O27 P15 1.508654 1_555
O28 P16 1.524427 1_555
O29 P17 1.527928 1_555
O30 P17 1.575717 1_555
O31 P15 1.555385 1_555
O32 P16 1.572184 1_555
O33 P13 1.555385 1_555
O34 P14 1.575717 1_555
O35 P12 1.572184 1_555
O36 P17 1.510953 1_555
O37 P15 1.538270 1_555
O38 P16 1.541812 1_555
O39 P13 1.538270 1_555
O40 P14 1.510953 1_555
O41 P12 1.541812 1_555
O42 P6 1.549097 1_555
O43 P7 1.574710 1_555
O44 P8 1.578894 1_555
O45 P9 1.574710 1_555
O46 P10 1.549097 1_555
O47 P11 1.578894 1_555
O48 P5 1.510953 1_555
O49 P3 1.538270 1_555
O50 P4 1.541812 1_655
O51 P1 1.538270 1_555
O52 P2 1.510953 1_555
O53 P0 1.541812 1_545
O54 P12 1.549108 1_555
O55 P13 1.574697 1_655
O56 P14 1.578892 1_545
O57 P15 1.574697 1_545
O58 P16 1.549108 1_555
O59 P17 1.578892 1_655
O60 P11 1.510964 1_555
O61 P9 1.538256 1_455
O62 P10 1.541808 1_565
O63 P7 1.538256 1_565
O64 P8 1.510964 1_555
O65 P6 1.541808 1_455
O66 P0 1.549097 1_555
O67 P1 1.574710 1_555
O68 P2 1.578894 1_455
O69 P3 1.574710 1_555
O70 P4 1.549097 1_555
O71 P5 1.578894 1_565
