# generated using pymatgen
data_Ba2MgFeWO6
_symmetry_space_group_name_H-M   'P 1'
_cell_length_a   6.89380653
_cell_length_b   6.21860436
_cell_length_c   6.86955662
_cell_angle_alpha   89.19352203
_cell_angle_beta   126.30591114
_cell_angle_gamma   117.62012508
_symmetry_Int_Tables_number   1
_chemical_formula_structural   Ba2MgFeWO6
_chemical_formula_sum   'Ba2 Mg1 Fe1 W1 O6'
_cell_volume   195.79491273
_cell_formula_units_Z   1
loop_
 _symmetry_equiv_pos_site_id
 _symmetry_equiv_pos_as_xyz
  1  'x, y, z'
loop_
 _atom_site_type_symbol
 _atom_site_label
 _atom_site_symmetry_multiplicity
 _atom_site_fract_x
 _atom_site_fract_y
 _atom_site_fract_z
 _atom_site_occupancy
  Ba  Ba0  1  0.36586189  0.68351068  0.31662146  1
  Ba  Ba1  1  0.54280744  0.26682887  0.72534862  1
  Mg  Mg0  1  0.80660516  0.90138463  0.09553918  1
  Fe  Fe0  1  0.01487365  0.50541647  0.49143338  1
  W  W0  1  0.14747974  0.07566166  0.92646869  1
  O  O0  1  0.45930095  0.72958633  0.74275148  1
  O  O1  1  0.98614589  0.72889944  0.27190213  1
  O  O2  1  0.97437641  0.24367627  0.75649263  1
  O  O3  1  0.48287150  0.24127870  0.26789678  1
  O  O4  1  0.98587952  0.25449813  0.26945065  1
  O  O5  1  0.97338185  0.73384183  0.76109599  1
loop_
_geom_bond_atom_site_label_1
_geom_bond_atom_site_label_2
_geom_bond_distance
_geom_bond_site_symmetry_2
Ba0 O4 2.573650 1_455
Ba0 O0 2.585687 1_555
Ba0 O1 2.599364 1_455
Ba0 O3 3.238254 1_565
Ba0 O5 3.241360 1_454
Ba0 O2 3.255626 1_565
Ba0 O5 3.260296 1_555
Ba0 O2 3.274906 1_454
Ba0 O3 3.275372 1_555
Ba1 O5 2.910187 1_555
Ba1 O3 2.913212 1_555
Ba1 O2 2.925847 1_555
Ba1 O0 3.129579 1_545
Ba1 O1 3.139227 1_445
Ba1 O4 3.161602 1_556
Ba1 O4 3.170121 1_455
Ba1 O0 3.202206 1_555
Ba1 O1 3.204146 1_556
Ba1 W0 3.486830 1_555
Mg0 O1 1.889158 1_555
Mg0 O0 1.891316 1_554
Mg0 O4 1.893577 1_565
Fe0 O1 2.021748 1_455
Fe0 O0 2.038287 1_555
Fe0 O4 2.053515 1_455
Fe0 O2 2.477878 1_455
Fe0 O3 2.514545 1_455
Fe0 O5 2.570895 1_455
O2 W0 1.830516 1_655
O3 W0 1.829204 1_554
O5 W0 1.826822 1_665
