# generated using pymatgen
data_Ba2HoMgCu3O7
_symmetry_space_group_name_H-M   'P 1'
_cell_length_a   3.75650300
_cell_length_b   4.15846900
_cell_length_c   13.12320900
_cell_angle_alpha   90.00000000
_cell_angle_beta   90.00000000
_cell_angle_gamma   90.00000000
_symmetry_Int_Tables_number   1
_chemical_formula_structural   Ba2HoMgCu3O7
_chemical_formula_sum   'Ba2 Ho1 Mg1 Cu3 O7'
_cell_volume   205.00160147
_cell_formula_units_Z   1
loop_
 _symmetry_equiv_pos_site_id
 _symmetry_equiv_pos_as_xyz
  1  'x, y, z'
loop_
 _atom_site_type_symbol
 _atom_site_label
 _atom_site_symmetry_multiplicity
 _atom_site_fract_x
 _atom_site_fract_y
 _atom_site_fract_z
 _atom_site_occupancy
  Ba  Ba0  1  0.50000000  0.44285200  0.77009000  1
  Ba  Ba1  1  0.50000000  0.44285200  0.22991000  1
  Ho  Ho0  1  0.50000000  0.45377700  0.50000000  1
  Mg  Mg0  1  0.50000000  0.74460800  0.00000000  1
  Cu  Cu0  1  0.00000000  0.95742600  0.60959000  1
  Cu  Cu1  1  0.00000000  0.95742600  0.39041000  1
  Cu  Cu2  1  0.00000000  0.13400100  0.00000000  1
  O  O0  1  0.00000000  0.60361400  0.00000000  1
  O  O1  1  0.50000000  0.96433900  0.61034800  1
  O  O2  1  0.50000000  0.96433900  0.38965200  1
  O  O3  1  0.00000000  0.45931000  0.61033600  1
  O  O4  1  0.00000000  0.45931000  0.38966400  1
  O  O5  1  0.00000000  0.07473800  0.85535900  1
  O  O6  1  0.00000000  0.07473800  0.14464100  1
loop_
_geom_bond_atom_site_label_1
_geom_bond_atom_site_label_2
_geom_bond_distance
_geom_bond_site_symmetry_2
Ba0 O5 2.668954 1_555
Ba0 O5 2.668954 1_655
Ba0 O3 2.815628 1_555
Ba0 O3 2.815628 1_655
Ba0 O1 2.890366 1_545
Ba0 O1 3.016183 1_555
Ba0 Mg0 3.267701 1_556
Ba0 O5 3.418288 1_565
Ba0 O5 3.418288 1_665
Ba1 O6 2.668954 1_555
Ba1 O6 2.668954 1_655
Ba1 O4 2.815628 1_555
Ba1 O4 2.815628 1_655
Ba1 O2 2.890366 1_545
Ba1 O2 3.016183 1_555
Ba1 Mg0 3.267701 1_555
Ba1 O6 3.418288 1_565
Ba1 O6 3.418288 1_665
Ho0 O3 2.371698 1_655
Ho0 O3 2.371698 1_555
Ho0 O4 2.371698 1_655
Ho0 O4 2.371698 1_555
Ho0 O1 2.497909 1_545
Ho0 O2 2.497909 1_545
Ho0 O1 2.569989 1_555
Ho0 O2 2.569989 1_555
Mg0 O0 1.967638 1_655
Mg0 O0 1.967638 1_555
Cu0 O1 1.878498 1_555
Cu0 O1 1.878498 1_455
Cu0 O3 2.071423 1_555
Cu0 O3 2.087092 1_565
Cu1 O2 1.878498 1_555
Cu1 O2 1.878498 1_455
Cu1 O4 2.071423 1_555
Cu1 O4 2.087092 1_565
Cu2 O6 1.914085 1_555
Cu2 O5 1.914085 1_554
Cu2 O0 1.952871 1_555
Cu2 O0 2.205598 1_545
