# generated using pymatgen
data_Na3Ca2Ge2P3(SO8)3
_symmetry_space_group_name_H-M   'P 1'
_cell_length_a   8.77457793
_cell_length_b   8.73347925
_cell_length_c   22.86838126
_cell_angle_alpha   90.22719019
_cell_angle_beta   89.59788056
_cell_angle_gamma   120.12034277
_symmetry_Int_Tables_number   1
_chemical_formula_structural   Na3Ca2Ge2P3(SO8)3
_chemical_formula_sum   'Na9 Ca6 Ge6 P9 S9 O72'
_cell_volume   1515.79651400
_cell_formula_units_Z   3
loop_
 _symmetry_equiv_pos_site_id
 _symmetry_equiv_pos_as_xyz
  1  'x, y, z'
loop_
 _atom_site_type_symbol
 _atom_site_label
 _atom_site_symmetry_multiplicity
 _atom_site_fract_x
 _atom_site_fract_y
 _atom_site_fract_z
 _atom_site_occupancy
  Na  Na0  1  0.66150311  0.68771110  0.08598578  1
  Na  Na1  1  0.33099010  0.29486882  0.91528774  1
  Na  Na2  1  0.33104454  0.03642424  0.41503895  1
  Na  Na3  1  0.99335690  0.00168368  0.50443045  1
  Na  Na4  1  0.00678526  0.99678699  0.00388572  1
  Na  Na5  1  0.68159436  0.33497346  0.82832507  1
  Na  Na6  1  0.68092540  0.34561414  0.32786089  1
  Na  Na7  1  0.31591215  0.65865889  0.16763822  1
  Na  Na8  1  0.33411138  0.67408757  0.66705280  1
  Ca  Ca0  1  0.99741588  0.00266454  0.34148821  1
  Ca  Ca1  1  0.99305338  0.99095531  0.84081444  1
  Ca  Ca2  1  0.67516576  0.33943714  0.98453382  1
  Ca  Ca3  1  0.66825587  0.33578325  0.48446985  1
  Ca  Ca4  1  0.31731464  0.66326784  0.02662691  1
  Ca  Ca5  1  0.33255409  0.66979079  0.52760405  1
  Ge  Ge0  1  0.00856332  0.00084788  0.65875402  1
  Ge  Ge1  1  0.01445979  0.00366315  0.15860139  1
  Ge  Ge2  1  0.65907397  0.32561301  0.68585256  1
  Ge  Ge3  1  0.66628137  0.33806818  0.18566767  1
  Ge  Ge4  1  0.33261177  0.66247066  0.30550218  1
  Ge  Ge5  1  0.33241684  0.67017664  0.80516933  1
  P  P0  1  0.31126206  0.00383114  0.25017050  1
  P  P1  1  0.69622194  0.69492856  0.24784342  1
  P  P2  1  0.99343387  0.30092524  0.24734850  1
  P  P3  1  0.30731787  0.30516850  0.75004296  1
  P  P4  1  0.99404905  0.68900990  0.74709612  1
  P  P5  1  0.69998466  0.00302951  0.74728791  1
  P  P6  1  0.35942702  0.04614584  0.59061157  1
  P  P7  1  0.95502278  0.63860028  0.09380335  1
  P  P8  1  0.36404204  0.31520166  0.08976629  1
  S  S0  1  0.95222425  0.31395098  0.59226692  1
  S  S1  1  0.68545010  0.63901397  0.59252330  1
  S  S2  1  0.68456588  0.04771503  0.09109017  1
  S  S3  1  0.61707370  0.66762630  0.91322879  1
  S  S4  1  0.04731208  0.38296664  0.90935922  1
  S  S5  1  0.33591430  0.95361332  0.91039013  1
  S  S6  1  0.61720231  0.95009905  0.41159021  1
  S  S7  1  0.33580873  0.38386183  0.41148462  1
  S  S8  1  0.04839697  0.66306308  0.41045367  1
  O  O0  1  0.25633852  0.04523429  0.30792117  1
  O  O1  1  0.79848473  0.75726702  0.30287833  1
  O  O2  1  0.95230833  0.20281732  0.30360852  1
  O  O3  1  0.25193853  0.20999799  0.80781674  1
  O  O4  1  0.94943283  0.74366249  0.80344105  1
  O  O5  1  0.79819583  0.04587304  0.80336430  1
  O  O6  1  0.79416984  0.96341012  0.69548371  1
  O  O7  1  0.17183956  0.20817566  0.69972236  1
  O  O8  1  0.03599076  0.82358873  0.69568523  1
  O  O9  1  0.78595763  0.82245528  0.19408968  1
  O  O10  1  0.03398604  0.20710554  0.19534913  1
  O  O11  1  0.17541737  0.96370274  0.19979008  1
  O  O12  1  0.85924403  0.34345910  0.64162021  1
  O  O13  1  0.49422742  0.15610653  0.63931937  1
  O  O14  1  0.66265561  0.52043974  0.64206284  1
  O  O15  1  0.85280678  0.50832328  0.14378418  1
  O  O16  1  0.65717420  0.13672084  0.14137195  1
  O  O17  1  0.49923360  0.34224335  0.13803201  1
  O  O18  1  0.41933625  0.28271529  0.02950034  1
  O  O19  1  0.85163271  0.57982714  0.03675500  1
  O  O20  1  0.70824784  0.13892436  0.03579124  1
  O  O21  1  0.41832326  0.13456254  0.53075170  1
  O  O22  1  0.71296695  0.57390141  0.53676744  1
  O  O23  1  0.86153237  0.28922706  0.53665648  1
  O  O24  1  0.53476962  0.67465074  0.96862955  1
  O  O25  1  0.14619816  0.46604131  0.96249609  1
  O  O26  1  0.32520549  0.85805301  0.96307766  1
  O  O27  1  0.53161277  0.85578554  0.46526340  1
  O  O28  1  0.32509114  0.46910452  0.46442101  1
  O  O29  1  0.14743888  0.67890914  0.46337956  1
  O  O30  1  0.13925834  0.64763751  0.35540770  1
  O  O31  1  0.50560600  0.85957586  0.35756235  1
  O  O32  1  0.34940806  0.48646697  0.35606430  1
  O  O33  1  0.13927478  0.49078338  0.85486464  1
  O  O34  1  0.34910175  0.86329912  0.85483616  1
  O  O35  1  0.50316963  0.64776659  0.86036059  1
  O  O36  1  0.03731203  0.82544000  0.40768413  1
  O  O37  1  0.79175981  0.96952425  0.40880133  1
  O  O38  1  0.17936534  0.20445257  0.40978114  1
  O  O39  1  0.03607229  0.20965956  0.90655201  1
  O  O40  1  0.17899188  0.97463869  0.90865497  1
  O  O41  1  0.79154222  0.82406075  0.91017252  1
  O  O42  1  0.96135516  0.14809300  0.60063997  1
  O  O43  1  0.17715800  0.03805745  0.60198095  1
  O  O44  1  0.84888260  0.81727857  0.60024323  1
  O  O45  1  0.96444953  0.82295727  0.10403420  1
  O  O46  1  0.84564020  0.03010005  0.09808432  1
  O  O47  1  0.17916499  0.14879607  0.10202261  1
  O  O48  1  0.66948922  0.16020917  0.73403661  1
  O  O49  1  0.49305050  0.33317237  0.73571869  1
  O  O50  1  0.83660232  0.50218499  0.73255142  1
  O  O51  1  0.66434945  0.50538640  0.23625386  1
  O  O52  1  0.83585032  0.32808290  0.23377934  1
  O  O53  1  0.49545644  0.16144007  0.23471614  1
  O  O54  1  0.62670047  0.50248881  0.91164221  1
  O  O55  1  0.87255447  0.36610825  0.91030837  1
  O  O56  1  0.49474576  0.13206591  0.90975294  1
  O  O57  1  0.62727223  0.12531872  0.41173413  1
  O  O58  1  0.49466101  0.36478047  0.41073300  1
  O  O59  1  0.87274487  0.50452124  0.41123281  1
  O  O60  1  0.35648953  0.48642368  0.09122360  1
  O  O61  1  0.13781895  0.66381536  0.09334740  1
  O  O62  1  0.53030057  0.86582266  0.08970176  1
  O  O63  1  0.33634555  0.86248829  0.59345579  1
  O  O64  1  0.52902281  0.65851761  0.59201194  1
  O  O65  1  0.13074814  0.46796851  0.59174286  1
  O  O66  1  0.32606668  0.83157801  0.25432236  1
  O  O67  1  0.50766279  0.67682297  0.25324329  1
  O  O68  1  0.16614062  0.48971360  0.25245693  1
  O  O69  1  0.32508293  0.49389512  0.75407303  1
  O  O70  1  0.16638306  0.67431537  0.75242122  1
  O  O71  1  0.51042514  0.83167566  0.75268212  1
loop_
_geom_bond_atom_site_label_1
_geom_bond_atom_site_label_2
_geom_bond_distance
_geom_bond_site_symmetry_2
Na0 O45 2.343499 1_555
Na0 O60 2.354317 1_555
Na0 O62 2.355243 1_555
Na0 O19 2.545841 1_555
Na0 O46 2.603733 1_565
Na0 O9 2.722867 1_555
Na0 O17 2.870572 1_555
Na0 O24 2.892108 1_554
Na1 O54 2.302959 1_555
Na1 O39 2.315950 1_555
Na1 O40 2.424736 1_545
Na1 O56 2.479667 1_555
Na1 O3 2.562079 1_555
Na1 O18 2.747217 1_556
Na2 O36 2.302967 1_545
Na2 O57 2.310210 1_555
Na2 O38 2.429633 1_555
Na2 O58 2.482485 1_555
Na2 O0 2.551639 1_555
Na2 O21 2.770373 1_555
Na3 O42 2.623717 1_555
Na3 O44 2.634684 1_545
Na3 O43 2.684999 1_655
Na3 O37 2.746133 1_545
Na3 O38 2.750425 1_655
Na3 O36 2.823055 1_645
Na4 O46 2.662627 1_465
Na4 O47 2.663746 1_565
Na4 O45 2.671617 1_455
Na4 O40 2.703178 1_554
Na4 O41 2.758105 1_454
Na4 O39 2.832336 1_564
Na5 O55 2.445261 1_555
Na5 O56 2.522539 1_555
Na5 O54 2.583579 1_555
Na5 O50 2.601835 1_555
Na5 O48 2.608560 1_555
Na5 O49 2.691646 1_555
Na6 O59 2.464489 1_555
Na6 O58 2.553318 1_555
Na6 O51 2.566706 1_555
Na6 O52 2.581775 1_555
Na6 O57 2.590296 1_555
Na6 O53 2.677160 1_555
Na7 O61 2.332131 1_555
Na7 O68 2.388983 1_555
Na7 O60 2.439478 1_555
Na7 O66 2.462094 1_555
Na7 O67 2.542510 1_555
Na7 O62 2.559561 1_555
Na8 O63 2.351482 1_555
Na8 O70 2.437180 1_555
Na8 O71 2.450790 1_555
Na8 O64 2.465508 1_555
Na8 O65 2.487038 1_555
Na8 O69 2.518030 1_555
Ca0 O1 2.161417 1_545
Ca0 O2 2.161911 1_555
Ca0 O0 2.240360 1_655
Ca0 O37 2.269379 1_545
Ca0 O38 2.298492 1_655
Ca0 O36 2.319395 1_645
Ca1 O4 2.168337 1_555
Ca1 O5 2.175716 1_565
Ca1 O3 2.239466 1_665
Ca1 O41 2.271354 1_555
Ca1 O39 2.304843 1_665
Ca1 O40 2.315097 1_655
Ca2 O19 2.230436 1_556
Ca2 O20 2.248578 1_556
Ca2 O18 2.279804 1_556
Ca2 O55 2.343560 1_555
Ca2 O54 2.371455 1_555
Ca2 O56 2.417977 1_555
Ca3 O22 2.253220 1_555
Ca3 O21 2.265427 1_555
Ca3 O23 2.278167 1_555
Ca3 O59 2.349424 1_555
Ca3 O57 2.365451 1_555
Ca3 O58 2.377887 1_555
Ca4 O61 2.186881 1_555
Ca4 O25 2.188010 1_554
Ca4 O26 2.216006 1_554
Ca4 O24 2.277031 1_554
Ca4 O60 2.289927 1_555
Ca4 O62 2.324255 1_555
Ca5 O27 2.204020 1_555
Ca5 O29 2.228466 1_555
Ca5 O63 2.241772 1_555
Ca5 O28 2.242762 1_555
Ca5 O65 2.290259 1_555
Ca5 O64 2.314781 1_555
Ge0 O43 1.863753 1_555
Ge0 O8 1.885450 1_545
Ge0 O7 1.900194 1_555
Ge0 O6 1.927188 1_445
Ge0 O44 2.019562 1_445
Ge0 O42 2.036507 1_455
Ge1 O47 1.875527 1_555
Ge1 O11 1.876077 1_545
Ge1 O45 1.880804 1_445
Ge1 O10 1.891320 1_555
Ge1 O9 1.996489 1_445
Ge1 O46 2.130128 1_455
Ge2 O13 1.810022 1_555
Ge2 O48 1.858972 1_555
Ge2 O49 1.870724 1_555
Ge2 O50 1.882667 1_555
Ge2 O12 1.958061 1_555
Ge2 O14 1.964267 1_555
Ge3 O15 1.831360 1_555
Ge3 O17 1.847397 1_555
Ge3 O51 1.866821 1_555
Ge3 O53 1.885189 1_555
Ge3 O52 1.893653 1_555
Ge3 O16 1.992653 1_555
Ge4 O67 1.893516 1_555
Ge4 O66 1.911579 1_555
Ge4 O68 1.918345 1_555
Ge4 O30 1.987736 1_555
Ge4 O32 1.991305 1_555
Ge4 O31 2.017771 1_555
Ge5 O69 1.904490 1_555
Ge5 O71 1.909401 1_555
Ge5 O70 1.912258 1_555
Ge5 O34 1.973706 1_555
Ge5 O33 1.985079 1_555
Ge5 O35 2.049135 1_555
O0 P0 1.506432 1_555
O1 P1 1.485148 1_555
O2 P2 1.487129 1_555
O3 P3 1.505609 1_555
O4 P4 1.488941 1_555
O5 P5 1.488359 1_555
O6 P5 1.573591 1_565
O7 P3 1.567089 1_555
O8 P4 1.571579 1_455
O9 P1 1.577541 1_555
O10 P2 1.578288 1_455
O11 P0 1.570933 1_565
O12 S0 1.483792 1_555
O13 P6 1.559482 1_555
O14 S1 1.481244 1_555
O15 P7 1.541787 1_555
O16 S2 1.469945 1_555
O17 P8 1.554472 1_555
O18 P8 1.530020 1_555
O19 P7 1.527229 1_555
O20 S2 1.454334 1_555
O21 P6 1.528126 1_555
O22 S1 1.461213 1_555
O23 S0 1.461759 1_555
O24 S3 1.470177 1_555
O25 S4 1.460088 1_555
O26 S5 1.443868 1_555
O27 S6 1.457143 1_555
O28 S7 1.445708 1_555
O29 S8 1.460147 1_555
O30 S8 1.526684 1_555
O31 S6 1.530582 1_555
O32 S7 1.524150 1_555
O33 S4 1.524274 1_555
O34 S5 1.526797 1_555
O35 S3 1.527097 1_555
O36 S8 1.470972 1_555
O37 S6 1.454916 1_555
O38 S7 1.477340 1_555
O39 S4 1.467738 1_555
O40 S5 1.478447 1_555
O41 S3 1.454365 1_555
O42 S0 1.503389 1_555
O43 P6 1.584733 1_555
O44 S1 1.507362 1_555
O45 P7 1.586680 1_555
O46 S2 1.506129 1_555
O47 P8 1.566186 1_555
O48 P5 1.555924 1_555
O49 P3 1.554424 1_555
O50 P4 1.556046 1_555
O51 P1 1.556152 1_555
O52 P2 1.549271 1_555
O53 P0 1.547525 1_555
O54 S3 1.486699 1_555
O55 S4 1.465096 1_655
O56 S5 1.480353 1_545
O57 S6 1.487893 1_545
O58 S7 1.484481 1_555
O59 S8 1.466625 1_655
O60 P8 1.529918 1_555
O61 P7 1.505514 1_455
O62 S2 1.482861 1_565
O63 P6 1.514126 1_565
O64 S1 1.465614 1_555
O65 S0 1.465750 1_455
O66 P0 1.576850 1_565
O67 P1 1.585063 1_555
O68 P2 1.588052 1_455
O69 P3 1.578170 1_555
O70 P4 1.586001 1_455
O71 P5 1.587996 1_565
