# generated using pymatgen
data_MgCo2(BiO4)2
_symmetry_space_group_name_H-M   'P 1'
_cell_length_a   6.68807551
_cell_length_b   6.45085173
_cell_length_c   6.46690963
_cell_angle_alpha   60.02677986
_cell_angle_beta   61.24769932
_cell_angle_gamma   97.43963306
_symmetry_Int_Tables_number   1
_chemical_formula_structural   MgCo2(BiO4)2
_chemical_formula_sum   'Mg1 Co2 Bi2 O8'
_cell_volume   185.07686722
_cell_formula_units_Z   1
loop_
 _symmetry_equiv_pos_site_id
 _symmetry_equiv_pos_as_xyz
  1  'x, y, z'
loop_
 _atom_site_type_symbol
 _atom_site_label
 _atom_site_symmetry_multiplicity
 _atom_site_fract_x
 _atom_site_fract_y
 _atom_site_fract_z
 _atom_site_occupancy
  Mg  Mg0  1  0.00000000  0.50000000  -0.00000000  1
  Co  Co0  1  0.00000000  0.50000000  0.50000000  1
  Co  Co1  1  0.50000000  0.00000000  -0.00000000  1
  Bi  Bi0  1  0.00000000  0.00000000  0.50000000  1
  Bi  Bi1  1  0.00000000  0.00000000  -0.00000000  1
  O  O0  1  0.79327376  0.71578790  0.99446859  1
  O  O1  1  0.21827965  0.78437735  0.47161346  1
  O  O2  1  0.78313364  0.21747558  0.97317868  1
  O  O3  1  0.78314695  0.72470812  0.49497685  1
  O  O4  1  0.21685305  0.27529188  0.50502315  1
  O  O5  1  0.21686636  0.78252442  0.02682132  1
  O  O6  1  0.78172035  0.21562265  0.52838654  1
  O  O7  1  0.20672624  0.28421210  0.00553141  1
loop_
_geom_bond_atom_site_label_1
_geom_bond_atom_site_label_2
_geom_bond_distance
_geom_bond_site_symmetry_2
Mg0 O0 2.084898 1_454
Mg0 O7 2.084898 1_555
Mg0 O5 2.308405 1_555
Mg0 O2 2.308405 1_454
Mg0 O6 2.327359 1_455
Mg0 O1 2.327359 1_554
Co0 O6 2.059705 1_455
Co0 O1 2.059705 1_555
Co0 O5 2.064491 1_555
Co0 O2 2.064491 1_455
Co0 O4 2.179090 1_555
Co0 O3 2.179090 1_455
Co1 O5 2.082532 1_545
Co1 O2 2.082532 1_554
Co1 O1 2.083441 1_545
Co1 O6 2.083441 1_554
Bi0 O6 2.150076 1_455
Bi0 O1 2.150076 1_545
Bi0 O3 2.166610 1_445
Bi0 O4 2.166610 1_555
Bi0 O7 2.174965 1_555
Bi0 O0 2.174965 1_445
Bi1 O5 2.151224 1_545
Bi1 O2 2.151224 1_454
Bi1 O3 2.165692 1_445
Bi1 O4 2.165692 1_554
Bi1 O7 2.175070 1_555
Bi1 O0 2.175070 1_444
