# generated using pymatgen
data_U2N3
_symmetry_space_group_name_H-M   'P 1'
_cell_length_a   9.27924847
_cell_length_b   9.27924847
_cell_length_c   9.27924847
_cell_angle_alpha   109.47122063
_cell_angle_beta   109.47122063
_cell_angle_gamma   109.47122063
_symmetry_Int_Tables_number   1
_chemical_formula_structural   U2N3
_chemical_formula_sum   'U16 N24'
_cell_volume   615.05863580
_cell_formula_units_Z   8
loop_
 _symmetry_equiv_pos_site_id
 _symmetry_equiv_pos_as_xyz
  1  'x, y, z'
loop_
 _atom_site_type_symbol
 _atom_site_label
 _atom_site_symmetry_multiplicity
 _atom_site_fract_x
 _atom_site_fract_y
 _atom_site_fract_z
 _atom_site_occupancy
  U  U0  1  0.50000000  0.50000000  0.50000000  1
  U  U1  1  0.00000000  0.50000000  -0.00000000  1
  U  U2  1  0.00000000  0.00000000  0.50000000  1
  U  U3  1  0.50000000  0.00000000  -0.00000000  1
  U  U4  1  0.22805344  0.97805344  0.25000000  1
  U  U5  1  0.52194656  0.75000000  0.27194656  1
  U  U6  1  0.75000000  0.27194656  0.52194656  1
  U  U7  1  0.97805344  0.25000000  0.22805344  1
  U  U8  1  0.25000000  0.22805344  0.97805344  1
  U  U9  1  0.27194656  0.52194656  0.75000000  1
  U  U10  1  0.77194656  0.02194656  0.75000000  1
  U  U11  1  0.47805344  0.25000000  0.72805344  1
  U  U12  1  0.25000000  0.72805344  0.47805344  1
  U  U13  1  0.02194656  0.75000000  0.77194656  1
  U  U14  1  0.75000000  0.77194656  0.02194656  1
  U  U15  1  0.72805344  0.47805344  0.25000000  1
  N  N0  1  0.76371980  0.53131003  0.52692210  1
  N  N1  1  0.96868997  0.73240978  0.99561207  1
  N  N2  1  0.76759022  0.73628020  0.26320229  1
  N  N3  1  0.23679771  0.97307790  0.50438793  1
  N  N4  1  0.73240978  0.99561207  0.96868997  1
  N  N5  1  0.26320229  0.76759022  0.73628020  1
  N  N6  1  0.97307790  0.50438793  0.23679771  1
  N  N7  1  0.52692210  0.76371980  0.53131003  1
  N  N8  1  0.53131003  0.52692210  0.76371980  1
  N  N9  1  0.99561207  0.96868997  0.73240978  1
  N  N10  1  0.73628020  0.26320229  0.76759022  1
  N  N11  1  0.50438793  0.23679771  0.97307790  1
  N  N12  1  0.23628020  0.46868997  0.47307790  1
  N  N13  1  0.03131003  0.26759022  0.00438793  1
  N  N14  1  0.23240978  0.26371980  0.73679771  1
  N  N15  1  0.76320229  0.02692210  0.49561207  1
  N  N16  1  0.26759022  0.00438793  0.03131003  1
  N  N17  1  0.73679771  0.23240978  0.26371980  1
  N  N18  1  0.02692210  0.49561207  0.76320229  1
  N  N19  1  0.47307790  0.23628020  0.46868997  1
  N  N20  1  0.46868997  0.47307790  0.23628020  1
  N  N21  1  0.00438793  0.03131003  0.26759022  1
  N  N22  1  0.26371980  0.73679771  0.23240978  1
  N  N23  1  0.49561207  0.76320229  0.02692210  1
loop_
_geom_bond_atom_site_label_1
_geom_bond_atom_site_label_2
_geom_bond_distance
_geom_bond_site_symmetry_2
N0 U13 2.253758 1_655
N0 U0 2.281513 1_555
N0 U15 2.331131 1_555
N0 U6 2.351229 1_555
N1 U14 2.253758 1_556
N1 U1 2.281513 1_656
N1 U13 2.331131 1_655
N1 U4 2.351229 1_656
N2 U15 2.253758 1_555
N2 U2 2.281513 1_665
N2 U14 2.331131 1_555
N2 U5 2.351229 1_555
N3 U12 2.253758 1_555
N3 U2 2.281513 1_565
N3 U11 2.331131 1_565
N3 U4 2.351229 1_555
N4 U10 2.253758 1_565
N4 U3 2.281513 1_566
N4 U14 2.331131 1_556
N4 U7 2.351229 1_566
N5 U12 2.253758 1_555
N5 U3 2.281513 1_566
N5 U13 2.331131 1_555
N5 U9 2.351229 1_555
N6 U15 2.253758 1_555
N6 U1 2.281513 1_655
N6 U12 2.331131 1_655
N6 U7 2.351229 1_555
N7 U10 2.253758 1_565
N7 U0 2.281513 1_555
N7 U12 2.331131 1_555
N7 U5 2.351229 1_555
N8 U14 2.253758 1_556
N8 U0 2.281513 1_555
N8 U11 2.331131 1_555
N8 U9 2.351229 1_555
N9 U13 2.253758 1_655
N9 U2 2.281513 1_665
N9 U10 2.331131 1_565
N9 U8 2.351229 1_665
N10 U11 2.253758 1_555
N10 U1 2.281513 1_656
N10 U10 2.331131 1_555
N10 U6 2.351229 1_555
N11 U11 2.253758 1_555
N11 U3 2.281513 1_556
N11 U15 2.331131 1_556
N11 U8 2.351229 1_555
N12 U7 2.253758 1_455
N12 U0 2.281513 1_555
N12 U9 2.331131 1_555
N12 U12 2.351229 1_555
N13 U8 2.253758 1_554
N13 U1 2.281513 1_555
N13 U7 2.331131 1_455
N13 U10 2.351229 1_454
N14 U9 2.253758 1_555
N14 U2 2.281513 1_555
N14 U8 2.331131 1_555
N14 U11 2.351229 1_555
N15 U6 2.253758 1_555
N15 U2 2.281513 1_655
N15 U5 2.331131 1_545
N15 U10 2.351229 1_555
N16 U4 2.253758 1_545
N16 U3 2.281513 1_555
N16 U8 2.331131 1_554
N16 U13 2.351229 1_544
N17 U6 2.253758 1_555
N17 U3 2.281513 1_555
N17 U7 2.331131 1_555
N17 U15 2.351229 1_555
N18 U9 2.253758 1_555
N18 U1 2.281513 1_556
N18 U6 2.331131 1_455
N18 U13 2.351229 1_555
N19 U4 2.253758 1_545
N19 U0 2.281513 1_555
N19 U6 2.331131 1_555
N19 U11 2.351229 1_555
N20 U8 2.253758 1_554
N20 U0 2.281513 1_555
N20 U5 2.331131 1_555
N20 U15 2.351229 1_555
N21 U7 2.253758 1_455
N21 U2 2.281513 1_555
N21 U4 2.331131 1_545
N21 U14 2.351229 1_445
N22 U5 2.253758 1_555
N22 U1 2.281513 1_555
N22 U4 2.331131 1_555
N22 U12 2.351229 1_555
N23 U5 2.253758 1_555
N23 U3 2.281513 1_565
N23 U9 2.331131 1_554
N23 U14 2.351229 1_555
