# generated using pymatgen
data_S3N2Cl
_symmetry_space_group_name_H-M   'P 1'
_cell_length_a   8.51371100
_cell_length_b   8.52010100
_cell_length_c   14.63433800
_cell_angle_alpha   90.00000000
_cell_angle_beta   90.00000000
_cell_angle_gamma   90.00000000
_symmetry_Int_Tables_number   1
_chemical_formula_structural   S3N2Cl
_chemical_formula_sum   'S24 N16 Cl8'
_cell_volume   1061.54089180
_cell_formula_units_Z   8
loop_
 _symmetry_equiv_pos_site_id
 _symmetry_equiv_pos_as_xyz
  1  'x, y, z'
loop_
 _atom_site_type_symbol
 _atom_site_label
 _atom_site_symmetry_multiplicity
 _atom_site_fract_x
 _atom_site_fract_y
 _atom_site_fract_z
 _atom_site_occupancy
  S  S0  1  0.16406200  0.52326800  0.92409100  1
  S  S1  1  0.33593800  0.02326800  0.07590900  1
  S  S2  1  0.66406200  0.47673200  0.57590900  1
  S  S3  1  0.01150000  0.09942900  0.28159500  1
  S  S4  1  0.16406200  0.02326800  0.57590900  1
  S  S5  1  0.66406200  0.97673200  0.92409100  1
  S  S6  1  0.33593800  0.52326800  0.42409100  1
  S  S7  1  0.83593800  0.47673200  0.07590900  1
  S  S8  1  0.95603600  0.19597000  0.45962100  1
  S  S9  1  0.95603600  0.69597000  0.04037900  1
  S  S10  1  0.45603600  0.30403000  0.45962100  1
  S  S11  1  0.54396400  0.19597000  0.95962100  1
  S  S12  1  0.04396400  0.80403000  0.54037900  1
  S  S13  1  0.04396400  0.30403000  0.95962100  1
  S  S14  1  0.54396400  0.69597000  0.54037900  1
  S  S15  1  0.45603600  0.80403000  0.04037900  1
  S  S16  1  0.51150000  0.90057100  0.21840500  1
  S  S17  1  0.01150000  0.59942900  0.21840500  1
  S  S18  1  0.51150000  0.40057100  0.28159500  1
  S  S19  1  0.48850000  0.09942900  0.78159500  1
  S  S20  1  0.98850000  0.90057100  0.71840500  1
  S  S21  1  0.98850000  0.40057100  0.78159500  1
  S  S22  1  0.48850000  0.59942900  0.71840500  1
  S  S23  1  0.83593800  0.97673200  0.42409100  1
  N  N0  1  0.89426000  0.97091000  0.31909900  1
  N  N1  1  0.03712100  0.72379800  0.13947300  1
  N  N2  1  0.53712100  0.27620200  0.36052700  1
  N  N3  1  0.46287900  0.22379800  0.86052700  1
  N  N4  1  0.96287900  0.77620200  0.63947300  1
  N  N5  1  0.96287900  0.27620200  0.86052700  1
  N  N6  1  0.46287900  0.72379800  0.63947300  1
  N  N7  1  0.53712100  0.77620200  0.13947300  1
  N  N8  1  0.03712100  0.22379800  0.36052700  1
  N  N9  1  0.89426000  0.47091000  0.18090100  1
  N  N10  1  0.39426000  0.52909000  0.31909900  1
  N  N11  1  0.60574000  0.97091000  0.81909900  1
  N  N12  1  0.10574000  0.02909000  0.68090100  1
  N  N13  1  0.10574000  0.52909000  0.81909900  1
  N  N14  1  0.60574000  0.47091000  0.68090100  1
  N  N15  1  0.39426000  0.02909000  0.18090100  1
  Cl  Cl0  1  0.74224300  0.10377400  0.59543300  1
  Cl  Cl1  1  0.24224300  0.89622600  0.90456700  1
  Cl  Cl2  1  0.75775700  0.60377400  0.40456700  1
  Cl  Cl3  1  0.25775700  0.39622600  0.09543300  1
  Cl  Cl4  1  0.25775700  0.89622600  0.40456700  1
  Cl  Cl5  1  0.75775700  0.10377400  0.09543300  1
  Cl  Cl6  1  0.24224300  0.39622600  0.59543300  1
  Cl  Cl7  1  0.74224300  0.60377400  0.90456700  1
loop_
_geom_bond_atom_site_label_1
_geom_bond_atom_site_label_2
_geom_bond_distance
_geom_bond_site_symmetry_2
N0 S3 1.580046 1_665
N0 S23 1.615489 1_555
N1 S17 1.582626 1_555
N1 S9 1.623510 1_455
N2 S18 1.582626 1_555
N2 S10 1.623510 1_555
N3 S19 1.582626 1_555
N3 S11 1.623510 1_555
N4 S20 1.582626 1_555
N4 S12 1.623510 1_655
N5 S21 1.582626 1_555
N5 S13 1.623510 1_655
N6 S22 1.582626 1_555
N6 S14 1.623510 1_555
N7 S16 1.582626 1_555
N7 S15 1.623510 1_555
N8 S3 1.582626 1_555
N8 S8 1.623510 1_455
N9 S17 1.580046 1_655
N9 S7 1.615489 1_555
N10 S18 1.580046 1_555
N10 S6 1.615489 1_555
N11 S19 1.580046 1_565
N11 S5 1.615489 1_555
N12 S20 1.580046 1_445
N12 S4 1.615489 1_555
N13 S21 1.580046 1_455
N13 S0 1.615489 1_555
N14 S22 1.580046 1_555
N14 S2 1.615489 1_555
N15 S16 1.580046 1_545
N15 S1 1.615489 1_555
Cl0 S8 2.807187 1_555
Cl0 S23 2.845236 1_545
Cl1 S15 2.807187 1_556
Cl1 S1 2.845236 1_566
Cl2 S14 2.807187 1_555
Cl2 S2 2.845236 1_555
Cl3 S13 2.807187 1_554
Cl3 S0 2.845236 1_554
Cl4 S12 2.807187 1_555
Cl4 S4 2.845236 1_565
Cl5 S11 2.807187 1_554
Cl5 S5 2.845236 1_544
Cl6 S10 2.807187 1_555
Cl6 S6 2.845236 1_555
Cl7 S9 2.807187 1_556
Cl7 S7 2.845236 1_556
