# generated using pymatgen
data_YbMg2
_symmetry_space_group_name_H-M   'P 1'
_cell_length_a   6.24984292
_cell_length_b   6.24984292
_cell_length_c   9.97402000
_cell_angle_alpha   90.00000000
_cell_angle_beta   90.00000000
_cell_angle_gamma   120.00000970
_symmetry_Int_Tables_number   1
_chemical_formula_structural   YbMg2
_chemical_formula_sum   'Yb4 Mg8'
_cell_volume   337.39529951
_cell_formula_units_Z   4
loop_
 _symmetry_equiv_pos_site_id
 _symmetry_equiv_pos_as_xyz
  1  'x, y, z'
loop_
 _atom_site_type_symbol
 _atom_site_label
 _atom_site_symmetry_multiplicity
 _atom_site_fract_x
 _atom_site_fract_y
 _atom_site_fract_z
 _atom_site_occupancy
  Yb  Yb0  1  0.33333300  0.66666700  0.06149800  1
  Yb  Yb1  1  0.66666700  0.33333300  0.56149800  1
  Yb  Yb2  1  0.66666700  0.33333300  0.93850200  1
  Yb  Yb3  1  0.33333300  0.66666700  0.43850200  1
  Mg  Mg0  1  0.33760300  0.16880200  0.25000000  1
  Mg  Mg1  1  0.16880200  0.83119800  0.75000000  1
  Mg  Mg2  1  0.16880200  0.33760300  0.75000000  1
  Mg  Mg3  1  0.83119800  0.66239700  0.25000000  1
  Mg  Mg4  1  0.00000000  0.00000000  0.00000000  1
  Mg  Mg5  1  0.00000000  0.00000000  0.50000000  1
  Mg  Mg6  1  0.66239700  0.83119800  0.75000000  1
  Mg  Mg7  1  0.83119800  0.16880200  0.25000000  1
loop_
_geom_bond_atom_site_label_1
_geom_bond_atom_site_label_2
_geom_bond_distance
_geom_bond_site_symmetry_2
Yb0 Yb3 3.760245 1_555
Yb0 Yb2 3.811181 1_454
Yb0 Yb2 3.811181 1_564
Yb0 Yb2 3.811192 1_554
Yb1 Yb2 3.760245 1_555
Yb1 Yb3 3.811181 1_545
Yb1 Yb3 3.811181 1_655
Yb1 Yb3 3.811192 1_555
Mg0 Mg3 3.084891 1_555
Mg0 Mg7 3.084891 1_555
Mg0 Mg4 3.091364 1_555
Mg0 Mg5 3.091364 1_555
Mg0 Mg3 3.164951 1_445
Mg0 Mg7 3.164952 1_455
Mg0 Yb2 3.581193 1_554
Mg0 Yb1 3.581193 1_555
Mg0 Yb0 3.646989 1_545
Mg0 Yb3 3.646989 1_545
Mg0 Yb3 3.646989 1_555
Mg0 Yb0 3.646989 1_555
Mg1 Mg2 3.084891 1_555
Mg1 Mg6 3.084891 1_555
Mg1 Mg4 3.091368 1_566
Mg1 Mg5 3.091368 1_565
Mg1 Mg6 3.164952 1_455
Mg1 Mg2 3.164952 1_565
Mg1 Yb3 3.581188 1_555
Mg1 Yb0 3.581188 1_556
Mg1 Yb1 3.646989 1_455
Mg1 Yb2 3.646989 1_455
Mg1 Yb2 3.646989 1_565
Mg1 Yb1 3.646989 1_565
Mg2 Mg6 3.084891 1_555
Mg2 Mg4 3.091364 1_556
Mg2 Mg5 3.091364 1_555
Mg2 Mg6 3.164951 1_445
Mg2 Yb3 3.581193 1_555
Mg2 Yb0 3.581193 1_556
Mg2 Yb1 3.646989 1_455
Mg2 Yb2 3.646989 1_455
Mg2 Yb2 3.646989 1_555
Mg2 Yb1 3.646989 1_555
Mg3 Mg7 3.084891 1_555
Mg3 Mg5 3.091364 1_665
Mg3 Mg4 3.091364 1_665
Mg3 Mg7 3.164952 1_565
Mg3 Yb2 3.581193 1_554
Mg3 Yb1 3.581193 1_555
Mg3 Yb0 3.646989 1_655
Mg3 Yb3 3.646989 1_655
Mg3 Yb3 3.646989 1_555
Mg3 Yb0 3.646989 1_555
Mg4 Mg6 3.091364 1_444
Mg4 Mg7 3.091368 1_455
Mg4 Yb2 3.660108 1_454
Mg4 Yb0 3.660108 1_545
Mg4 Yb2 3.660113 1_444
Mg4 Yb0 3.660113 1_555
Mg4 Yb2 3.660113 1_554
Mg4 Yb0 3.660113 1_445
Mg5 Mg6 3.091364 1_445
Mg5 Mg7 3.091368 1_455
Mg5 Yb3 3.660108 1_545
Mg5 Yb1 3.660108 1_455
Mg5 Yb3 3.660113 1_555
Mg5 Yb1 3.660113 1_445
Mg5 Yb3 3.660113 1_445
Mg5 Yb1 3.660113 1_555
Mg6 Yb3 3.581193 1_555
Mg6 Yb0 3.581193 1_556
Mg6 Yb2 3.646989 1_565
Mg6 Yb1 3.646989 1_565
Mg6 Yb2 3.646989 1_555
Mg6 Yb1 3.646989 1_555
Mg7 Yb2 3.581188 1_554
Mg7 Yb1 3.581188 1_555
Mg7 Yb0 3.646989 1_545
Mg7 Yb3 3.646989 1_545
Mg7 Yb3 3.646989 1_655
Mg7 Yb0 3.646989 1_655
