# generated using pymatgen
data_Na3LaZnP2SO12
_symmetry_space_group_name_H-M   'P 1'
_cell_length_a   9.40121205
_cell_length_b   9.39469169
_cell_length_c   23.31555282
_cell_angle_alpha   87.93338506
_cell_angle_beta   90.00000000
_cell_angle_gamma   120.02296150
_symmetry_Int_Tables_number   1
_chemical_formula_structural   Na3LaZnP2SO12
_chemical_formula_sum   'Na18 La6 Zn6 P12 S6 O72'
_cell_volume   1781.41532892
_cell_formula_units_Z   6
loop_
 _symmetry_equiv_pos_site_id
 _symmetry_equiv_pos_as_xyz
  1  'x, y, z'
loop_
 _atom_site_type_symbol
 _atom_site_label
 _atom_site_symmetry_multiplicity
 _atom_site_fract_x
 _atom_site_fract_y
 _atom_site_fract_z
 _atom_site_occupancy
  Na  Na0  1  0.35858843  0.35238204  0.24483200  1
  Na  Na1  1  0.99706109  0.62426067  0.24312187  1
  Na  Na2  1  0.62719958  0.62426067  0.74312187  1
  Na  Na3  1  0.99379361  0.35238204  0.74483200  1
  Na  Na4  1  0.02525543  0.68571504  0.57816500  1
  Na  Na5  1  0.66372809  0.95759367  0.57645487  1
  Na  Na6  1  0.29386658  0.95759367  0.07645487  1
  Na  Na7  1  0.66046061  0.68571504  0.07816500  1
  Na  Na8  1  0.69192143  0.01904904  0.91149900  1
  Na  Na9  1  0.33039409  0.29092767  0.90978887  1
  Na  Na10  1  0.96053258  0.29092767  0.40978887  1
  Na  Na11  1  0.32712661  0.01904904  0.41149900  1
  Na  Na12  1  0.97491295  0.97765726  0.48867972  1
  Na  Na13  1  0.00274431  0.97765726  0.98867972  1
  Na  Na14  1  0.64157995  0.31099026  0.82201272  1
  Na  Na15  1  0.66941131  0.31099026  0.32201272  1
  Na  Na16  1  0.30824595  0.64432426  0.15534672  1
  Na  Na17  1  0.33607731  0.64432426  0.65534672  1
  La  La0  1  0.01518198  0.01861234  0.65122333  1
  La  La1  1  0.00343036  0.01861234  0.15122333  1
  La  La2  1  0.68184898  0.35194534  0.98455633  1
  La  La3  1  0.67009736  0.35194534  0.48455633  1
  La  La4  1  0.34851498  0.68527934  0.31789033  1
  La  La5  1  0.33676336  0.68527934  0.81789033  1
  Zn  Zn0  1  0.98708981  0.99300442  0.34718325  1
  Zn  Zn1  1  0.00591461  0.99300442  0.84718325  1
  Zn  Zn2  1  0.65375681  0.32633742  0.68051625  1
  Zn  Zn3  1  0.67258161  0.32633742  0.18051625  1
  Zn  Zn4  1  0.32042281  0.65967142  0.01385025  1
  Zn  Zn5  1  0.33924761  0.65967142  0.51385025  1
  P  P0  1  0.30748313  0.01861969  0.25060877  1
  P  P1  1  0.99046253  0.30003073  0.25603570  1
  P  P2  1  0.30956820  0.30003073  0.75603570  1
  P  P3  1  0.71113656  0.01861969  0.75060877  1
  P  P4  1  0.97415013  0.35195269  0.58394177  1
  P  P5  1  0.65712953  0.63336373  0.58936870  1
  P  P6  1  0.97623520  0.63336373  0.08936870  1
  P  P7  1  0.37780356  0.35195269  0.08394177  1
  P  P8  1  0.64081613  0.68528669  0.91727577  1
  P  P9  1  0.32379553  0.96669773  0.92270270  1
  P  P10  1  0.64290120  0.96669773  0.42270270  1
  P  P11  1  0.04446956  0.68528669  0.41727577  1
  S  S0  1  0.70534248  0.68798712  0.25050382  1
  S  S1  1  0.98264464  0.68798712  0.75050382  1
  S  S2  1  0.37200948  0.02132012  0.58383682  1
  S  S3  1  0.64931164  0.02132012  0.08383682  1
  S  S4  1  0.03867548  0.35465412  0.91717082  1
  S  S5  1  0.31597764  0.35465412  0.41717082  1
  O  O0  1  0.21702450  0.03485230  0.30399400  1
  O  O1  1  0.80585694  0.78620645  0.29822611  1
  O  O2  1  0.97501304  0.19705878  0.31198320  1
  O  O3  1  0.22204574  0.19705878  0.81198320  1
  O  O4  1  0.98034951  0.78620645  0.79822611  1
  O  O5  1  0.81782780  0.03485230  0.80399400  1
  O  O6  1  0.78991251  0.99499388  0.69591621  1
  O  O7  1  0.20320347  0.22007665  0.70345224  1
  O  O8  1  0.00552731  0.77617531  0.69423932  1
  O  O9  1  0.77064800  0.77617531  0.19423932  1
  O  O10  1  0.01687317  0.22007665  0.20345224  1
  O  O11  1  0.20508136  0.99499388  0.19591621  1
  O  O12  1  0.88369150  0.36818530  0.63732700  1
  O  O13  1  0.47252394  0.11953945  0.63155911  1
  O  O14  1  0.64168004  0.53039178  0.64531620  1
  O  O15  1  0.88871274  0.53039178  0.14531620  1
  O  O16  1  0.64701651  0.11953945  0.13155911  1
  O  O17  1  0.48449480  0.36818530  0.13732700  1
  O  O18  1  0.45657951  0.32832688  0.02924921  1
  O  O19  1  0.86987047  0.55340965  0.03678524  1
  O  O20  1  0.67219431  0.10950831  0.02757232  1
  O  O21  1  0.43731500  0.10950831  0.52757232  1
  O  O22  1  0.68354017  0.55340965  0.53678524  1
  O  O23  1  0.87174836  0.32832688  0.52924921  1
  O  O24  1  0.55035750  0.70151930  0.97066100  1
  O  O25  1  0.13918994  0.45287345  0.96489311  1
  O  O26  1  0.30834604  0.86372578  0.97865020  1
  O  O27  1  0.55537874  0.86372578  0.47865020  1
  O  O28  1  0.31368251  0.45287345  0.46489311  1
  O  O29  1  0.15116080  0.70151930  0.47066100  1
  O  O30  1  0.12324551  0.66166088  0.36258321  1
  O  O31  1  0.53653647  0.88674365  0.37011924  1
  O  O32  1  0.33886031  0.44284231  0.36090632  1
  O  O33  1  0.10398100  0.44284231  0.86090632  1
  O  O34  1  0.35020617  0.88674365  0.87011924  1
  O  O35  1  0.53841436  0.66166088  0.86258321  1
  O  O36  1  0.03404040  0.84627953  0.41110569  1
  O  O37  1  0.81800891  0.99004185  0.41605011  1
  O  O38  1  0.15852942  0.19383860  0.41852510  1
  O  O39  1  0.03530918  0.19383860  0.91852510  1
  O  O40  1  0.17203295  0.99004185  0.91605011  1
  O  O41  1  0.81223913  0.84627953  0.91110569  1
  O  O42  1  0.99015102  0.19512701  0.58724875  1
  O  O43  1  0.19712785  0.98371847  0.58749243  1
  O  O44  1  0.81599480  0.80907688  0.58957838  1
  O  O45  1  0.99308209  0.80907688  0.08957838  1
  O  O46  1  0.78659062  0.98371847  0.08749243  1
  O  O47  1  0.20497599  0.19512701  0.08724875  1
  O  O48  1  0.70070740  0.17961253  0.74443869  1
  O  O49  1  0.48467591  0.32337485  0.74938311  1
  O  O50  1  0.82519642  0.52717160  0.75185810  1
  O  O51  1  0.70197618  0.52717160  0.25185810  1
  O  O52  1  0.83869995  0.32337485  0.24938311  1
  O  O53  1  0.47890613  0.17961253  0.24443869  1
  O  O54  1  0.65681802  0.52846001  0.92058175  1
  O  O55  1  0.86379485  0.31705147  0.92082543  1
  O  O56  1  0.48266180  0.14240988  0.92291138  1
  O  O57  1  0.65974909  0.14240988  0.42291138  1
  O  O58  1  0.45325762  0.31705147  0.42082543  1
  O  O59  1  0.87164299  0.52846001  0.42058175  1
  O  O60  1  0.36737340  0.51294653  0.07777269  1
  O  O61  1  0.15134191  0.65670885  0.08271711  1
  O  O62  1  0.49186242  0.86050560  0.08519210  1
  O  O63  1  0.36864218  0.86050560  0.58519210  1
  O  O64  1  0.50536595  0.65670885  0.58271711  1
  O  O65  1  0.14557213  0.51294653  0.57777269  1
  O  O66  1  0.32348402  0.86179401  0.25391575  1
  O  O67  1  0.53046085  0.65038547  0.25415943  1
  O  O68  1  0.14932780  0.47574388  0.25624538  1
  O  O69  1  0.32641509  0.47574388  0.75624538  1
  O  O70  1  0.11992362  0.65038547  0.75415943  1
  O  O71  1  0.53830899  0.86179401  0.75391575  1
loop_
_geom_bond_atom_site_label_1
_geom_bond_atom_site_label_2
_geom_bond_distance
_geom_bond_site_symmetry_2
Na0 O53 2.398407 1_555
Na0 O67 2.452193 1_555
Na0 O17 2.739190 1_555
Na0 O68 2.754647 1_555
Na0 O51 2.803496 1_555
Na0 O0 2.881519 1_555
Na0 O32 2.899053 1_555
Na0 O10 2.981078 1_555
Na1 O52 2.446859 1_555
Na1 O51 2.454358 1_555
Na1 O68 2.461195 1_655
Na1 O15 2.502316 1_555
Na1 O66 2.765528 1_655
Na1 O30 2.990342 1_655
Na2 O49 2.446859 1_555
Na2 O50 2.454367 1_555
Na2 O69 2.461203 1_555
Na2 O14 2.502318 1_555
Na2 O71 2.765535 1_555
Na2 O35 2.990345 1_555
Na3 O48 2.398400 1_555
Na3 O70 2.452193 1_655
Na3 O12 2.739186 1_555
Na3 O69 2.754638 1_655
Na3 O50 2.803488 1_555
Na3 O5 2.881519 1_555
Na3 O33 2.899051 1_655
Na3 O7 2.981078 1_655
Na4 O65 2.398390 1_555
Na4 O43 2.452193 1_555
Na4 O29 2.739163 1_555
Na4 O44 2.754647 1_455
Na4 O63 2.803490 1_555
Na4 O12 2.881519 1_455
Na4 O8 2.899053 1_555
Na4 O22 2.981078 1_455
Na5 O64 2.446851 1_555
Na5 O63 2.454370 1_555
Na5 O44 2.461195 1_555
Na5 O27 2.502295 1_555
Na5 O42 2.765528 1_565
Na5 O6 2.990342 1_555
Na6 O61 2.446851 1_555
Na6 O62 2.454352 1_555
Na6 O45 2.461203 1_455
Na6 O26 2.502290 1_554
Na6 O47 2.765535 1_565
Na6 O11 2.990345 1_555
Na7 O60 2.398406 1_555
Na7 O46 2.452193 1_555
Na7 O24 2.739170 1_554
Na7 O45 2.754638 1_555
Na7 O62 2.803506 1_555
Na7 O17 2.881519 1_555
Na7 O9 2.899051 1_555
Na7 O19 2.981078 1_555
Na8 O41 2.398407 1_545
Na8 O55 2.452183 1_555
Na8 O5 2.739190 1_555
Na8 O56 2.754628 1_555
Na8 O39 2.803496 1_655
Na8 O24 2.881519 1_545
Na8 O20 2.899025 1_556
Na8 O34 2.981078 1_545
Na9 O40 2.446859 1_545
Na9 O39 2.454358 1_555
Na9 O56 2.461209 1_555
Na9 O3 2.502316 1_555
Na9 O54 2.765530 1_555
Na9 O18 2.990324 1_556
Na10 O37 2.446859 1_545
Na10 O38 2.454367 1_655
Na10 O57 2.461193 1_555
Na10 O2 2.502318 1_555
Na10 O59 2.765516 1_555
Na10 O23 2.990317 1_555
Na11 O36 2.398400 1_545
Na11 O58 2.452181 1_555
Na11 O0 2.739186 1_555
Na11 O57 2.754646 1_555
Na11 O38 2.803488 1_555
Na11 O29 2.881519 1_545
Na11 O21 2.899029 1_555
Na11 O31 2.981078 1_545
Na12 O37 2.283541 1_555
Na12 O36 2.439522 1_655
Na12 O38 2.456055 1_665
Na12 O44 2.763723 1_555
Na13 O40 2.283541 1_555
Na13 O41 2.439522 1_455
Na13 O39 2.456055 1_565
Na13 O45 2.763723 1_456
Na14 O49 2.283541 1_555
Na14 O48 2.439522 1_555
Na14 O50 2.456055 1_555
Na14 O56 2.763723 1_555
Na15 O52 2.283541 1_555
Na15 O53 2.439522 1_555
Na15 O51 2.456055 1_555
Na15 O57 2.763723 1_555
Na16 O61 2.283541 1_555
Na16 O60 2.439522 1_555
Na16 O62 2.456055 1_555
Na16 O68 2.763723 1_555
Na17 O64 2.283541 1_555
Na17 O65 2.439522 1_555
Na17 O63 2.456055 1_555
Na17 O69 2.763723 1_555
La0 O7 2.237865 1_555
La0 O6 2.265671 1_445
La0 O42 2.289612 1_455
La0 O8 2.414552 1_545
La0 O43 2.416099 1_545
La0 O44 2.441874 1_445
La1 O10 2.237865 1_555
La1 O11 2.265671 1_545
La1 O47 2.289612 1_555
La1 O9 2.414552 1_445
La1 O46 2.416099 1_445
La1 O45 2.441874 1_445
La2 O19 2.237865 1_556
La2 O18 2.265671 1_556
La2 O54 2.289612 1_555
La2 O20 2.414552 1_556
La2 O55 2.416099 1_555
La2 O56 2.441874 1_555
La3 O22 2.237865 1_555
La3 O23 2.265671 1_555
La3 O59 2.289612 1_555
La3 O21 2.414552 1_555
La3 O58 2.416099 1_555
La3 O57 2.441874 1_555
La4 O31 2.237865 1_555
La4 O30 2.265671 1_555
La4 O66 2.289612 1_555
La4 O32 2.414552 1_555
La4 O67 2.416099 1_555
La4 O68 2.441874 1_555
La5 O34 2.237865 1_555
La5 O35 2.265671 1_555
La5 O71 2.289612 1_555
La5 O33 2.414552 1_555
La5 O70 2.416099 1_555
La5 O69 2.441874 1_555
O0 P0 1.561805 1_555
O0 Zn0 2.227639 1_445
O1 S0 1.477811 1_555
O1 Zn0 2.197240 1_555
O2 P1 1.557852 1_555
O2 Zn0 2.113239 1_545
O3 P2 1.557852 1_555
O3 Zn1 2.113239 1_545
O4 S1 1.477811 1_555
O4 Zn1 2.197240 1_655
O5 P3 1.561805 1_555
O5 Zn1 2.227639 1_645
O6 P3 1.552014 1_565
O7 P2 1.543381 1_555
O8 S1 1.482184 1_455
O9 S0 1.482184 1_555
O10 P1 1.543381 1_455
O11 P0 1.552014 1_565
O12 P4 1.561805 1_555
O12 Zn2 2.227639 1_555
O13 S2 1.477811 1_555
O13 Zn2 2.197240 1_555
O14 P5 1.557852 1_555
O14 Zn2 2.113239 1_555
O15 P6 1.557852 1_555
O15 Zn3 2.113239 1_555
O16 S3 1.477811 1_555
O16 Zn3 2.197240 1_555
O17 P7 1.561805 1_555
O17 Zn3 2.227639 1_555
O18 P7 1.552014 1_555
O19 P6 1.543381 1_555
O20 S3 1.482184 1_555
O21 S2 1.482184 1_555
O22 P5 1.543381 1_555
O23 P4 1.552014 1_555
O24 P8 1.561805 1_555
O24 Zn4 2.227639 1_556
O25 S4 1.477811 1_555
O25 Zn4 2.197240 1_556
O26 P9 1.557852 1_555
O26 Zn4 2.113239 1_556
O27 P10 1.557852 1_555
O27 Zn5 2.113239 1_555
O28 S5 1.477811 1_555
O28 Zn5 2.197240 1_555
O29 P11 1.561805 1_555
O29 Zn5 2.227639 1_555
O30 P11 1.552014 1_555
O31 P10 1.543381 1_555
O32 S5 1.482184 1_555
O33 S4 1.482184 1_555
O34 P9 1.543381 1_555
O35 P8 1.552014 1_555
O36 P11 1.565440 1_555
O36 Zn0 2.185600 1_455
O37 P10 1.555144 1_555
O37 Zn0 2.249038 1_555
O38 S5 1.494407 1_555
O38 Zn0 2.471374 1_445
O39 S4 1.494411 1_555
O39 Zn1 2.471374 1_545
O40 P9 1.555135 1_555
O40 Zn1 2.249038 1_555
O41 P8 1.565445 1_555
O41 Zn1 2.185600 1_655
O42 P4 1.553339 1_555
O43 S2 1.500585 1_565
O44 P5 1.577685 1_555
O45 P6 1.577689 1_555
O46 S3 1.500575 1_565
O47 P7 1.553344 1_555
O48 P3 1.565440 1_555
O48 Zn2 2.185600 1_555
O49 P2 1.555144 1_555
O49 Zn2 2.249038 1_555
O50 S1 1.494407 1_555
O50 Zn2 2.471374 1_555
O51 S0 1.494411 1_555
O51 Zn3 2.471374 1_555
O52 P1 1.555135 1_555
O52 Zn3 2.249038 1_555
O53 P0 1.565445 1_555
O53 Zn3 2.185600 1_555
O54 P8 1.553353 1_555
O55 S4 1.500571 1_655
O56 P9 1.577683 1_545
O57 P10 1.577675 1_545
O58 S5 1.500590 1_555
O59 P11 1.553343 1_655
O60 P7 1.565453 1_555
O60 Zn4 2.185600 1_555
O61 P6 1.555129 1_455
O61 Zn4 2.249038 1_555
O62 S3 1.494406 1_565
O62 Zn4 2.471374 1_555
O63 S2 1.494397 1_565
O63 Zn5 2.471374 1_555
O64 P5 1.555147 1_555
O64 Zn5 2.249038 1_555
O65 P4 1.565443 1_455
O65 Zn5 2.185600 1_555
O66 P0 1.553339 1_565
O67 S0 1.500585 1_555
O68 P1 1.577685 1_455
O69 P2 1.577689 1_555
O70 S1 1.500575 1_455
O71 P3 1.553344 1_565
