# generated using pymatgen
data_Rb3MgH5
_symmetry_space_group_name_H-M   'P 1'
_cell_length_a   8.07156300
_cell_length_b   8.07156300
_cell_length_c   12.32894300
_cell_angle_alpha   90.00000000
_cell_angle_beta   90.00000000
_cell_angle_gamma   90.00000000
_symmetry_Int_Tables_number   1
_chemical_formula_structural   Rb3MgH5
_chemical_formula_sum   'Rb12 Mg4 H20'
_cell_volume   803.23223013
_cell_formula_units_Z   4
loop_
 _symmetry_equiv_pos_site_id
 _symmetry_equiv_pos_as_xyz
  1  'x, y, z'
loop_
 _atom_site_type_symbol
 _atom_site_label
 _atom_site_symmetry_multiplicity
 _atom_site_fract_x
 _atom_site_fract_y
 _atom_site_fract_z
 _atom_site_occupancy
  Rb  Rb0  1  0.00000000  0.50000000  0.48822600  1
  Rb  Rb1  1  0.50000000  0.00000000  0.01177400  1
  Rb  Rb2  1  0.50000000  0.00000000  0.51177400  1
  Rb  Rb3  1  0.00000000  0.50000000  0.98822600  1
  Rb  Rb4  1  0.68709900  0.68709900  0.75000000  1
  Rb  Rb5  1  0.81290100  0.18709900  0.75000000  1
  Rb  Rb6  1  0.18709900  0.81290100  0.75000000  1
  Rb  Rb7  1  0.31290100  0.31290100  0.75000000  1
  Rb  Rb8  1  0.81290100  0.81290100  0.25000000  1
  Rb  Rb9  1  0.68709900  0.31290100  0.25000000  1
  Rb  Rb10  1  0.31290100  0.68709900  0.25000000  1
  Rb  Rb11  1  0.18709900  0.18709900  0.25000000  1
  Mg  Mg0  1  0.00000000  0.00000000  0.50000000  1
  Mg  Mg1  1  0.50000000  0.50000000  0.50000000  1
  Mg  Mg2  1  0.50000000  0.50000000  0.00000000  1
  Mg  Mg3  1  0.00000000  0.00000000  0.00000000  1
  H  H0  1  0.00000000  0.50000000  0.72906800  1
  H  H1  1  0.50000000  0.00000000  0.77093200  1
  H  H2  1  0.50000000  0.00000000  0.27093200  1
  H  H3  1  0.00000000  0.50000000  0.22906800  1
  H  H4  1  0.40076700  0.65311400  0.59187900  1
  H  H5  1  0.59923300  0.34688600  0.59187900  1
  H  H6  1  0.65311400  0.40076700  0.90812100  1
  H  H7  1  0.15311400  0.09923300  0.59187900  1
  H  H8  1  0.84688600  0.90076700  0.59187900  1
  H  H9  1  0.09923300  0.15311400  0.90812100  1
  H  H10  1  0.90076700  0.84688600  0.90812100  1
  H  H11  1  0.34688600  0.59923300  0.90812100  1
  H  H12  1  0.09923300  0.84688600  0.40812100  1
  H  H13  1  0.90076700  0.15311400  0.40812100  1
  H  H14  1  0.84688600  0.09923300  0.09187900  1
  H  H15  1  0.34688600  0.40076700  0.40812100  1
  H  H16  1  0.15311400  0.90076700  0.09187900  1
  H  H17  1  0.59923300  0.65311400  0.09187900  1
  H  H18  1  0.40076700  0.34688600  0.09187900  1
  H  H19  1  0.65311400  0.59923300  0.40812100  1
loop_
_geom_bond_atom_site_label_1
_geom_bond_atom_site_label_2
_geom_bond_distance
_geom_bond_site_symmetry_2
H0 Rb4 2.953964 1_455
H0 Rb6 2.953964 1_555
H0 Rb5 2.953964 1_455
H0 Rb7 2.953964 1_555
H0 Rb0 2.969327 1_555
H0 Rb3 3.195144 1_555
H1 Rb6 2.953964 1_545
H1 Rb7 2.953964 1_555
H1 Rb4 2.953964 1_545
H1 Rb5 2.953964 1_555
H1 Rb1 2.969327 1_556
H1 Rb2 3.195144 1_555
H2 Rb8 2.953964 1_545
H2 Rb11 2.953964 1_555
H2 Rb10 2.953964 1_545
H2 Rb9 2.953964 1_555
H2 Rb2 2.969327 1_555
H2 Rb1 3.195144 1_555
H3 Rb11 2.953964 1_555
H3 Rb8 2.953964 1_455
H3 Rb10 2.953964 1_555
H3 Rb9 2.953964 1_455
H3 Rb3 2.969327 1_554
H3 Rb0 3.195144 1_555
H4 Mg1 1.857980 1_555
H4 Rb6 2.904855 1_555
H4 Rb4 3.035961 1_555
H4 Rb2 3.075130 1_565
H5 Mg1 1.857980 1_555
H5 Rb5 2.904855 1_555
H5 Rb7 3.035961 1_555
H5 Rb2 3.075130 1_555
H6 Mg2 1.857980 1_556
H6 Rb5 2.904855 1_555
H6 Rb4 3.035961 1_555
H6 Rb3 3.075130 1_655
H7 Mg0 1.857980 1_555
H7 Rb7 2.904855 1_555
H7 Rb6 3.035961 1_545
H7 Rb2 3.075130 1_555
H8 Mg0 1.857980 1_665
H8 Rb4 2.904855 1_555
H8 Rb5 3.035961 1_565
H8 Rb2 3.075130 1_565
H9 Mg3 1.857980 1_556
H9 Rb7 2.904855 1_555
H9 Rb5 3.035961 1_455
H9 Rb3 3.075130 1_555
H10 Mg3 1.857980 1_666
H10 Rb4 2.904855 1_555
H10 Rb6 3.035961 1_655
H10 Rb3 3.075130 1_655
H11 Mg2 1.857980 1_556
H11 Rb6 2.904855 1_555
H11 Rb7 3.035961 1_555
H11 Rb3 3.075130 1_555
H12 Mg0 1.857980 1_565
H12 Rb10 2.904855 1_555
H12 Rb8 3.035961 1_455
H12 Rb0 3.075130 1_555
H13 Mg0 1.857980 1_655
H13 Rb9 2.904855 1_555
H13 Rb11 3.035961 1_655
H13 Rb0 3.075130 1_655
H14 Mg3 1.857980 1_655
H14 Rb9 2.904855 1_555
H14 Rb8 3.035961 1_545
H14 Rb1 3.075130 1_555
H15 Mg1 1.857980 1_555
H15 Rb11 2.904855 1_555
H15 Rb10 3.035961 1_555
H15 Rb0 3.075130 1_555
H16 Mg3 1.857980 1_565
H16 Rb10 2.904855 1_555
H16 Rb11 3.035961 1_565
H16 Rb1 3.075130 1_565
H17 Mg2 1.857980 1_555
H17 Rb8 2.904855 1_555
H17 Rb10 3.035961 1_555
H17 Rb1 3.075130 1_565
H18 Mg2 1.857980 1_555
H18 Rb11 2.904855 1_555
H18 Rb9 3.035961 1_555
H18 Rb1 3.075130 1_555
H19 Mg1 1.857980 1_555
H19 Rb8 2.904855 1_555
H19 Rb9 3.035961 1_555
H19 Rb0 3.075130 1_655
