# generated using pymatgen
data_Na5Hf2Mg2P5SO24
_symmetry_space_group_name_H-M   'P 1'
_cell_length_a   8.92458492
_cell_length_b   8.94224934
_cell_length_c   22.48763737
_cell_angle_alpha   90.12547735
_cell_angle_beta   89.98927130
_cell_angle_gamma   120.07427627
_symmetry_Int_Tables_number   1
_chemical_formula_structural   Na5Hf2Mg2P5SO24
_chemical_formula_sum   'Na15 Hf6 Mg6 P15 S3 O72'
_cell_volume   1553.03929234
_cell_formula_units_Z   3
loop_
 _symmetry_equiv_pos_site_id
 _symmetry_equiv_pos_as_xyz
  1  'x, y, z'
loop_
 _atom_site_type_symbol
 _atom_site_label
 _atom_site_symmetry_multiplicity
 _atom_site_fract_x
 _atom_site_fract_y
 _atom_site_fract_z
 _atom_site_occupancy
  Na  Na0  1  0.64140861  0.00006896  0.25383705  1
  Na  Na1  1  0.37028916  0.37638562  0.24519922  1
  Na  Na2  1  0.99136579  0.61967395  0.25361098  1
  Na  Na3  1  0.64361490  0.63058606  0.74475097  1
  Na  Na4  1  0.98520341  0.35332364  0.74658923  1
  Na  Na5  1  0.37038727  0.01663411  0.74648137  1
  Na  Na6  1  0.30454837  0.96353373  0.07178438  1
  Na  Na7  1  0.03927239  0.34910726  0.07406945  1
  Na  Na8  1  0.70982463  0.68088658  0.41558971  1
  Na  Na9  1  0.00644541  0.00525964  0.49718942  1
  Na  Na10  1  0.99940308  0.99811407  0.98476755  1
  Na  Na11  1  0.66712205  0.32661059  0.83172340  1
  Na  Na12  1  0.68482971  0.32679031  0.33393261  1
  Na  Na13  1  0.34910228  0.66051991  0.15911109  1
  Na  Na14  1  0.33532125  0.66533918  0.66200166  1
  Hf  Hf0  1  0.99845676  0.99812701  0.64581635  1
  Hf  Hf1  1  0.98863396  0.99644534  0.14598037  1
  Hf  Hf2  1  0.66766024  0.33312380  0.98028417  1
  Hf  Hf3  1  0.67300498  0.32809952  0.48356235  1
  Hf  Hf4  1  0.33050423  0.67382959  0.51931015  1
  Hf  Hf5  1  0.32739598  0.66785485  0.81881460  1
  Mg  Mg0  1  0.99183963  0.99938653  0.35282653  1
  Mg  Mg1  1  0.00858495  0.00825968  0.85213339  1
  Mg  Mg2  1  0.66812383  0.33524467  0.68137275  1
  Mg  Mg3  1  0.67124209  0.33923895  0.18076357  1
  Mg  Mg4  1  0.33376383  0.66592330  0.01630174  1
  Mg  Mg5  1  0.32793290  0.66568924  0.31810604  1
  P  P0  1  0.70217390  0.69972083  0.25388603  1
  P  P1  1  0.00002665  0.29433328  0.25125401  1
  P  P2  1  0.29500731  0.29377022  0.75117404  1
  P  P3  1  0.99727599  0.70799530  0.75226561  1
  P  P4  1  0.70819498  0.99966745  0.75246901  1
  P  P5  1  0.96479022  0.33409505  0.58722314  1
  P  P6  1  0.37361785  0.04241661  0.58649300  1
  P  P7  1  0.66435118  0.62590697  0.58394743  1
  P  P8  1  0.96416706  0.62794710  0.08596765  1
  P  P9  1  0.65988078  0.03765782  0.08617357  1
  P  P10  1  0.37441416  0.33651087  0.08735165  1
  P  P11  1  0.03632879  0.36499080  0.92019786  1
  P  P12  1  0.32792861  0.96308260  0.92040872  1
  P  P13  1  0.62693683  0.96163475  0.41269923  1
  P  P14  1  0.03676336  0.66953364  0.41299105  1
  S  S0  1  0.29239662  0.00090328  0.25071676  1
  S  S1  1  0.62868938  0.66956732  0.91770600  1
  S  S2  1  0.33272985  0.37128683  0.41503440  1
  O  O0  1  0.20454090  0.02348487  0.30226651  1
  O  O1  1  0.81249062  0.78049491  0.30966423  1
  O  O2  1  0.97725480  0.17633892  0.30324586  1
  O  O3  1  0.21248719  0.17958306  0.80489695  1
  O  O4  1  0.96801856  0.79284994  0.80579726  1
  O  O5  1  0.82278888  0.02806723  0.80584631  1
  O  O6  1  0.79108080  0.96638455  0.69584489  1
  O  O7  1  0.17579825  0.20966178  0.69537702  1
  O  O8  1  0.03271462  0.82452303  0.69600195  1
  O  O9  1  0.80162153  0.82133441  0.19923059  1
  O  O10  1  0.02422492  0.20822280  0.19281495  1
  O  O11  1  0.18830183  0.98011972  0.19514164  1
  O  O12  1  0.89023716  0.35911257  0.64462572  1
  O  O13  1  0.47169297  0.11647851  0.64409309  1
  O  O14  1  0.64207219  0.52530322  0.64079567  1
  O  O15  1  0.88673984  0.52524738  0.14306271  1
  O  O16  1  0.63611901  0.11632713  0.14353374  1
  O  O17  1  0.47005823  0.35306344  0.14552469  1
  O  O18  1  0.46742156  0.30648675  0.03383792  1
  O  O19  1  0.84544227  0.53569714  0.03169708  1
  O  O20  1  0.69291962  0.16262508  0.03286343  1
  O  O21  1  0.46992878  0.15556958  0.53191831  1
  O  O22  1  0.68341932  0.53457489  0.52760938  1
  O  O23  1  0.84885000  0.31365494  0.53248289  1
  O  O24  1  0.53802560  0.68335215  0.96933575  1
  O  O25  1  0.14019915  0.45429030  0.97601305  1
  O  O26  1  0.31915122  0.86201560  0.97606164  1
  O  O27  1  0.52355172  0.83910265  0.46546057  1
  O  O28  1  0.31511022  0.46197543  0.46761073  1
  O  O29  1  0.14969138  0.67682441  0.46674870  1
  O  O30  1  0.10844854  0.64083497  0.35496486  1
  O  O31  1  0.52777547  0.88569821  0.35450532  1
  O  O32  1  0.36184884  0.47504140  0.36040691  1
  O  O33  1  0.13053056  0.47914402  0.86332568  1
  O  O34  1  0.35353615  0.87248802  0.86339453  1
  O  O35  1  0.52491774  0.64583892  0.86146575  1
  O  O36  1  0.01646752  0.83060435  0.41409151  1
  O  O37  1  0.80611886  0.97583502  0.41419975  1
  O  O38  1  0.18134457  0.19690396  0.41147234  1
  O  O39  1  0.01021287  0.18490772  0.91289916  1
  O  O40  1  0.16773856  0.97903139  0.91303291  1
  O  O41  1  0.80110034  0.81964148  0.91181180  1
  O  O42  1  0.98096208  0.16937770  0.58802213  1
  O  O43  1  0.19061943  0.02255375  0.58734567  1
  O  O44  1  0.82944518  0.80867607  0.58645840  1
  O  O45  1  0.98654290  0.81359269  0.08943485  1
  O  O46  1  0.83278615  0.03038308  0.08855743  1
  O  O47  1  0.19076231  0.16339605  0.08935337  1
  O  O48  1  0.67980845  0.15535311  0.74479579  1
  O  O49  1  0.47937281  0.32274597  0.74317707  1
  O  O50  1  0.84294922  0.52345270  0.74403488  1
  O  O51  1  0.67991304  0.51781212  0.24569560  1
  O  O52  1  0.83512944  0.31034528  0.24604741  1
  O  O53  1  0.46770603  0.15559732  0.24589652  1
  O  O54  1  0.64042592  0.50683489  0.92098946  1
  O  O55  1  0.85646028  0.35885069  0.92164653  1
  O  O56  1  0.49679958  0.14689082  0.92215341  1
  O  O57  1  0.64442995  0.14241841  0.42261594  1
  O  O58  1  0.49591772  0.36143348  0.42239461  1
  O  O59  1  0.84871546  0.50733139  0.42200774  1
  O  O60  1  0.34181974  0.48710817  0.07874262  1
  O  O61  1  0.14642776  0.65215693  0.07810419  1
  O  O62  1  0.50378371  0.85911992  0.07653596  1
  O  O63  1  0.35102262  0.85887335  0.57671694  1
  O  O64  1  0.50374914  0.64813729  0.57453617  1
  O  O65  1  0.14656286  0.49352700  0.57633312  1
  O  O66  1  0.30708404  0.84238024  0.25354743  1
  O  O67  1  0.52307559  0.68883502  0.25474468  1
  O  O68  1  0.16506277  0.47602672  0.25407564  1
  O  O69  1  0.31075822  0.47752125  0.75663311  1
  O  O70  1  0.16676043  0.69267556  0.75695102  1
  O  O71  1  0.52416577  0.83081337  0.75694231  1
loop_
_geom_bond_atom_site_label_1
_geom_bond_atom_site_label_2
_geom_bond_distance
_geom_bond_site_symmetry_2
Na0 O52 2.431520 1_555
Na0 O67 2.432279 1_545
Na0 O31 2.483739 1_545
Na0 O53 2.555654 1_555
Na0 O66 2.583435 1_545
Na0 O16 2.701153 1_555
Na0 O2 2.821579 1_555
Na0 O9 2.896209 1_545
Na1 O51 2.394292 1_555
Na1 O68 2.413102 1_555
Na1 O67 2.427129 1_555
Na1 O17 2.458392 1_555
Na1 O53 2.524806 1_555
Na1 O32 2.748173 1_555
Na2 O52 2.399351 1_555
Na2 O68 2.459459 1_655
Na2 O51 2.459556 1_555
Na2 O30 2.474527 1_655
Na2 O66 2.506253 1_655
Na2 O15 2.639389 1_555
Na2 O1 2.915079 1_555
Na3 O49 2.383934 1_555
Na3 O50 2.406415 1_555
Na3 O71 2.515583 1_555
Na3 O14 2.515713 1_555
Na3 O69 2.587575 1_555
Na3 O6 2.830459 1_555
Na3 O4 2.855589 1_555
Na3 O35 2.858619 1_555
Na4 O48 2.393318 1_555
Na4 O50 2.421925 1_555
Na4 O12 2.454320 1_555
Na4 O69 2.547774 1_655
Na4 O70 2.637684 1_655
Na4 O7 2.837752 1_655
Na4 O5 2.850814 1_555
Na4 O33 2.892257 1_655
Na5 O48 2.394330 1_555
Na5 O49 2.403531 1_555
Na5 O13 2.472879 1_555
Na5 O70 2.544912 1_545
Na5 O71 2.643363 1_545
Na5 O3 2.807771 1_555
Na5 O8 2.850538 1_545
Na5 O34 2.901154 1_545
Na6 O26 2.363174 1_554
Na6 O62 2.389403 1_555
Na6 O61 2.414145 1_555
Na6 O47 2.489419 1_565
Na6 O45 2.489578 1_455
Na6 O18 2.790939 1_565
Na7 O60 2.341902 1_555
Na7 O61 2.380788 1_555
Na7 O25 2.391130 1_554
Na7 O46 2.522908 1_455
Na7 O47 2.637567 1_555
Na7 O20 2.832354 1_455
Na7 O10 2.929293 1_555
Na7 O15 2.979702 1_455
Na8 O37 2.329071 1_555
Na8 O36 2.368740 1_655
Na8 O59 2.427967 1_555
Na8 O58 2.522760 1_555
Na8 O1 2.549002 1_555
Na8 O22 2.796101 1_555
Na8 O27 2.893547 1_555
Na8 O32 2.972325 1_555
Na9 O36 2.462999 1_545
Na9 O37 2.505206 1_445
Na9 O38 2.534010 1_555
Na9 O43 2.565357 1_555
Na9 O42 2.588245 1_455
Na9 O44 2.616587 1_445
Na10 O40 2.267851 1_655
Na10 O39 2.293817 1_665
Na10 O41 2.351495 1_555
Na10 O47 2.844103 1_666
Na10 O45 2.846559 1_556
Na10 O46 2.857918 1_566
Na11 O48 2.517916 1_555
Na11 O55 2.556956 1_555
Na11 O56 2.567779 1_555
Na11 O50 2.587441 1_555
Na11 O49 2.591632 1_555
Na11 O54 2.655959 1_555
Na12 O52 2.433556 1_555
Na12 O57 2.498742 1_555
Na12 O59 2.507772 1_555
Na12 O51 2.635710 1_555
Na12 O53 2.651934 1_555
Na12 O58 2.723098 1_555
Na13 O60 2.358378 1_555
Na13 O62 2.462547 1_555
Na13 O61 2.541808 1_555
Na13 O67 2.589328 1_555
Na13 O68 2.697833 1_555
Na13 O66 2.809083 1_555
Na14 O65 2.510762 1_555
Na14 O64 2.526082 1_555
Na14 O63 2.542490 1_555
Na14 O69 2.654025 1_555
Na14 O71 2.660119 1_555
Na14 O70 2.692001 1_555
Hf0 O6 2.060488 1_555
Hf0 O8 2.064119 1_655
Hf0 O42 2.075329 1_565
Hf0 O7 2.077515 1_665
Hf0 O43 2.083912 1_665
Hf0 O44 2.087271 1_555
Hf1 O9 2.014857 1_555
Hf1 O46 2.029667 1_565
Hf1 O10 2.045724 1_665
Hf1 O45 2.061836 1_555
Hf1 O47 2.100665 1_665
Hf1 O11 2.163566 1_655
Hf2 O20 2.031219 1_556
Hf2 O55 2.059800 1_555
Hf2 O19 2.060686 1_556
Hf2 O56 2.062400 1_555
Hf2 O18 2.067471 1_556
Hf2 O54 2.153502 1_555
Hf3 O23 1.973371 1_555
Hf3 O21 2.012858 1_555
Hf3 O22 2.053975 1_555
Hf3 O57 2.065465 1_555
Hf3 O59 2.105668 1_555
Hf3 O58 2.225629 1_555
Hf4 O29 2.011449 1_555
Hf4 O27 2.018414 1_555
Hf4 O63 2.031051 1_555
Hf4 O65 2.072264 1_555
Hf4 O64 2.084140 1_555
Hf4 O28 2.165414 1_555
Hf5 O33 1.992899 1_555
Hf5 O34 1.993010 1_555
Hf5 O70 2.088262 1_555
Hf5 O35 2.101291 1_555
Hf5 O71 2.141596 1_555
Hf5 O69 2.147216 1_555
Mg0 O2 1.994520 1_565
Mg0 O1 2.046370 1_555
Mg0 O37 2.084932 1_555
Mg0 O0 2.129052 1_665
Mg0 O36 2.136830 1_655
Mg0 O38 2.171630 1_665
Mg1 O3 1.999788 1_555
Mg1 O5 2.039633 1_455
Mg1 O4 2.054180 1_445
Mg1 O39 2.080928 1_555
Mg1 O40 2.082223 1_545
Mg1 O41 2.225641 1_445
Mg2 O13 2.039414 1_555
Mg2 O14 2.044030 1_555
Mg2 O12 2.057653 1_555
Mg2 O49 2.143095 1_555
Mg2 O50 2.147356 1_555
Mg2 O48 2.193389 1_555
Mg3 O15 1.995914 1_555
Mg3 O17 2.022479 1_555
Mg3 O16 2.034481 1_555
Mg3 O51 2.134005 1_555
Mg3 O52 2.177730 1_555
Mg3 O53 2.271891 1_555
Mg4 O25 2.025590 1_554
Mg4 O26 2.036376 1_554
Mg4 O24 2.044053 1_554
Mg4 O62 2.117779 1_555
Mg4 O61 2.129675 1_555
Mg4 O60 2.158408 1_555
Mg5 O30 2.034014 1_555
Mg5 O31 2.048965 1_555
Mg5 O32 2.104114 1_555
Mg5 O68 2.140529 1_555
Mg5 O67 2.178343 1_555
Mg5 O66 2.223399 1_555
O0 S0 1.468567 1_555
O1 P0 1.532354 1_555
O2 P1 1.520519 1_655
O3 P2 1.515221 1_555
O4 P3 1.512459 1_555
O5 P4 1.513283 1_545
O6 P4 1.573471 1_555
O7 P2 1.570454 1_555
O8 P3 1.569070 1_455
O9 P0 1.587158 1_555
O10 P1 1.590191 1_555
O11 S0 1.511900 1_565
O12 P5 1.518760 1_555
O13 P6 1.515979 1_555
O14 P7 1.519469 1_555
O15 P8 1.529111 1_555
O16 P9 1.532686 1_555
O17 P10 1.527997 1_555
O18 P10 1.559103 1_555
O19 P8 1.553271 1_555
O20 P9 1.564731 1_555
O21 P6 1.549890 1_555
O22 P7 1.560681 1_555
O23 P5 1.558621 1_555
O24 S1 1.454949 1_555
O25 P11 1.525299 1_555
O26 P12 1.524189 1_555
O27 P13 1.565781 1_555
O28 S2 1.484519 1_555
O29 P14 1.554232 1_555
O30 P14 1.529907 1_555
O31 P13 1.533324 1_555
O32 S2 1.483455 1_555
O33 P11 1.590485 1_555
O34 P12 1.591615 1_555
O35 S1 1.518066 1_555
O36 P14 1.539254 1_555
O37 P13 1.539789 1_555
O38 S2 1.466757 1_555
O39 P11 1.515641 1_555
O40 P12 1.515333 1_555
O41 S1 1.455080 1_555
O42 P5 1.550450 1_555
O43 P6 1.551927 1_555
O44 P7 1.559292 1_555
O45 P8 1.571317 1_555
O46 P9 1.577639 1_555
O47 P10 1.594410 1_555
O48 P4 1.544886 1_545
O49 P2 1.542587 1_555
O50 P3 1.541188 1_555
O51 P0 1.547341 1_555
O52 P1 1.552822 1_655
O53 S0 1.484796 1_555
O54 S1 1.512366 1_555
O55 P11 1.578785 1_655
O56 P12 1.578458 1_545
O57 P13 1.559815 1_545
O58 S2 1.511615 1_555
O59 P14 1.588371 1_655
O60 P10 1.526244 1_555
O61 P8 1.539836 1_455
O62 P9 1.518581 1_565
O63 P6 1.565103 1_565
O64 P7 1.557093 1_555
O65 P5 1.551645 1_455
O66 S0 1.489065 1_565
O67 P0 1.552004 1_555
O68 P1 1.553821 1_555
O69 P2 1.581895 1_555
O70 P3 1.589202 1_455
O71 P4 1.581959 1_555
