# generated using pymatgen
data_Dy2InAu2
_symmetry_space_group_name_H-M   'P 1'
_cell_length_a   7.89528686
_cell_length_b   7.89528686
_cell_length_c   3.72118001
_cell_angle_alpha   90.00000000
_cell_angle_beta   90.00000000
_cell_angle_gamma   90.00000000
_symmetry_Int_Tables_number   1
_chemical_formula_structural   Dy2InAu2
_chemical_formula_sum   'Dy4 In2 Au4'
_cell_volume   231.96181970
_cell_formula_units_Z   2
loop_
 _symmetry_equiv_pos_site_id
 _symmetry_equiv_pos_as_xyz
  1  'x, y, z'
loop_
 _atom_site_type_symbol
 _atom_site_label
 _atom_site_symmetry_multiplicity
 _atom_site_fract_x
 _atom_site_fract_y
 _atom_site_fract_z
 _atom_site_occupancy
  Dy  Dy0  1  0.33009119  0.83009119  0.50000000  1
  Dy  Dy1  1  0.83009119  0.66990881  0.50000000  1
  Dy  Dy2  1  0.66990881  0.16990881  0.50000000  1
  Dy  Dy3  1  0.16990881  0.33009119  0.50000000  1
  In  In0  1  0.50000000  0.50000000  0.00000000  1
  In  In1  1  0.00000000  -0.00000000  0.00000000  1
  Au  Au0  1  0.12842786  0.62842786  0.00000000  1
  Au  Au1  1  0.62842786  0.87157214  -0.00000000  1
  Au  Au2  1  0.37157214  0.12842786  0.00000000  1
  Au  Au3  1  0.87157214  0.37157214  -0.00000000  1
loop_
_geom_bond_atom_site_label_1
_geom_bond_atom_site_label_2
_geom_bond_distance
_geom_bond_site_symmetry_2
Dy0 In0 3.471809 1_555
Dy0 In0 3.471809 1_556
Dy0 In1 3.471809 1_566
Dy0 In1 3.471809 1_565
Dy1 In0 3.471809 1_555
Dy1 In0 3.471809 1_556
Dy1 In1 3.471809 1_666
Dy1 In1 3.471809 1_665
Dy2 In0 3.471809 1_555
Dy2 In0 3.471809 1_556
Dy2 In1 3.471809 1_656
Dy2 In1 3.471809 1_655
Dy3 In0 3.471809 1_555
Dy3 In0 3.471809 1_556
Dy3 In1 3.471809 1_556
Dy3 In1 3.471809 1_555
Au0 Au3 2.867954 1_455
Au0 Dy0 2.920947 1_554
Au0 Dy0 2.920947 1_555
Au0 Dy3 3.019473 1_555
Au0 Dy3 3.019473 1_554
Au0 Dy1 3.019473 1_455
Au0 Dy1 3.019473 1_454
Au0 In0 3.103958 1_555
Au0 In1 3.103958 1_565
Au1 Au2 2.867954 1_565
Au1 Dy1 2.920947 1_554
Au1 Dy1 2.920947 1_555
Au1 Dy2 3.019473 1_564
Au1 Dy2 3.019473 1_565
Au1 Dy0 3.019473 1_554
Au1 Dy0 3.019473 1_555
Au1 In1 3.103958 1_665
Au1 In0 3.103958 1_555
Au2 Dy3 2.920947 1_555
Au2 Dy3 2.920947 1_554
Au2 Dy0 3.019473 1_544
Au2 Dy0 3.019473 1_545
Au2 Dy2 3.019473 1_554
Au2 Dy2 3.019473 1_555
Au2 In0 3.103958 1_555
Au2 In1 3.103958 1_555
Au3 Dy2 2.920947 1_555
Au3 Dy2 2.920947 1_554
Au3 Dy3 3.019473 1_654
Au3 Dy3 3.019473 1_655
Au3 Dy1 3.019473 1_555
Au3 Dy1 3.019473 1_554
Au3 In1 3.103958 1_655
Au3 In0 3.103958 1_555
