# generated using pymatgen
data_Na4ScInSi(PO6)2
_symmetry_space_group_name_H-M   'P 1'
_cell_length_a   9.18224220
_cell_length_b   9.18724842
_cell_length_c   22.57672936
_cell_angle_alpha   90.00081807
_cell_angle_beta   90.06185414
_cell_angle_gamma   120.00390185
_symmetry_Int_Tables_number   1
_chemical_formula_structural   Na4ScInSi(PO6)2
_chemical_formula_sum   'Na24 Sc6 In6 Si6 P12 O72'
_cell_volume   1649.33336068
_cell_formula_units_Z   6
loop_
 _symmetry_equiv_pos_site_id
 _symmetry_equiv_pos_as_xyz
  1  'x, y, z'
loop_
 _atom_site_type_symbol
 _atom_site_label
 _atom_site_symmetry_multiplicity
 _atom_site_fract_x
 _atom_site_fract_y
 _atom_site_fract_z
 _atom_site_occupancy
  Na  Na0  1  0.63848837  0.00312140  0.25230014  1
  Na  Na1  1  0.36098289  0.36588586  0.24873323  1
  Na  Na2  1  0.99850436  0.62638352  0.24903077  1
  Na  Na3  1  0.63545292  0.63773428  0.74732862  1
  Na  Na4  1  0.99403412  0.35970865  0.75094977  1
  Na  Na5  1  0.37353825  0.00056067  0.75003444  1
  Na  Na6  1  0.30164643  0.32821760  0.58208458  1
  Na  Na7  1  0.04000480  0.70544584  0.58032657  1
  Na  Na8  1  0.66258196  0.96682994  0.58710610  1
  Na  Na9  1  0.29399208  0.96026026  0.08077079  1
  Na  Na10  1  0.67322145  0.69826768  0.08207404  1
  Na  Na11  1  0.03230717  0.33796840  0.08811711  1
  Na  Na12  1  0.97142110  0.67217526  0.92114964  1
  Na  Na13  1  0.69553598  0.03369043  0.91176892  1
  Na  Na14  1  0.33323068  0.29567082  0.91642563  1
  Na  Na15  1  0.96705717  0.30486775  0.41258172  1
  Na  Na16  1  0.32696719  0.02571530  0.42043322  1
  Na  Na17  1  0.70501826  0.66774359  0.41631160  1
  Na  Na18  1  0.00554998  0.99487859  0.49973840  1
  Na  Na19  1  0.00401217  0.99370574  -0.00008594  1
  Na  Na20  1  0.66300475  0.32363380  0.83345710  1
  Na  Na21  1  0.67664550  0.33752824  0.33371878  1
  Na  Na22  1  0.32328312  0.66092085  0.16653820  1
  Na  Na23  1  0.33895534  0.67630130  0.66626930  1
  Sc  Sc0  1  0.00000862  0.00117765  0.34975810  1
  Sc  Sc1  1  0.99892334  0.99871569  0.64925074  1
  Sc  Sc2  1  0.00097355  0.00077457  0.15045673  1
  Sc  Sc3  1  0.66234731  0.32344902  0.68291309  1
  Sc  Sc4  1  0.66466240  0.33138723  0.48282211  1
  Sc  Sc5  1  0.32260937  0.66125133  0.31629241  1
  In  In0  1  0.00028514  -0.00024230  0.84793441  1
  In  In1  1  0.67199024  0.33457091  0.18292024  1
  In  In2  1  0.66773461  0.33372613  0.98496331  1
  In  In3  1  0.32923308  0.66991802  0.01533023  1
  In  In4  1  0.33094177  0.67082831  0.51543562  1
  In  In5  1  0.33724661  0.67466578  0.81678115  1
  Si  Si0  1  0.00036761  0.29612835  0.25026368  1
  Si  Si1  1  0.70352166  0.00071776  0.74922466  1
  Si  Si2  1  0.36897000  0.03623765  0.58277619  1
  Si  Si3  1  0.96756240  0.63478932  0.08367965  1
  Si  Si4  1  0.33378702  0.97034208  0.91638961  1
  Si  Si5  1  0.03175450  0.66666402  0.41650355  1
  P  P0  1  0.29608187  0.00091331  0.25010538  1
  P  P1  1  0.70294770  0.70542911  0.25030834  1
  P  P2  1  0.29781415  0.29846841  0.74929542  1
  P  P3  1  0.99731571  0.70077763  0.74902586  1
  P  P4  1  0.96170099  0.33239431  0.58336586  1
  P  P5  1  0.66652737  0.62687049  0.58318326  1
  P  P6  1  0.66725121  0.03287816  0.08394875  1
  P  P7  1  0.36790045  0.33307196  0.08396535  1
  P  P8  1  0.62972457  0.66510101  0.91678936  1
  P  P9  1  0.03712797  0.36876430  0.91601210  1
  P  P10  1  0.63068926  0.96232320  0.41609166  1
  P  P11  1  0.33401480  0.37128035  0.41664963  1
  O  O0  1  0.21107414  0.02517605  0.30543469  1
  O  O1  1  0.81532389  0.78919313  0.30532500  1
  O  O2  1  0.97444528  0.17979961  0.30852505  1
  O  O3  1  0.22714111  0.19199641  0.80632746  1
  O  O4  1  0.96828650  0.77456136  0.80666272  1
  O  O5  1  0.81502624  0.03630351  0.80986551  1
  O  O6  1  0.79741636  0.97369105  0.69222445  1
  O  O7  1  0.18421321  0.20853365  0.69523470  1
  O  O8  1  0.02675133  0.81753770  0.69548851  1
  O  O9  1  0.78812612  0.81198966  0.19436350  1
  O  O10  1  0.02717634  0.20763677  0.19152641  1
  O  O11  1  0.18624550  0.97226700  0.19449078  1
  O  O12  1  0.87898752  0.36059214  0.63861137  1
  O  O13  1  0.48620408  0.12741299  0.64105159  1
  O  O14  1  0.64321442  0.51950969  0.63879921  1
  O  O15  1  0.88634654  0.51731634  0.14237768  1
  O  O16  1  0.62896613  0.10893851  0.13890785  1
  O  O17  1  0.47727400  0.36216506  0.13985544  1
  O  O18  1  0.44423361  0.29950693  0.02806408  1
  O  O19  1  0.85053364  0.55579651  0.02431921  1
  O  O20  1  0.69837033  0.14143707  0.02781560  1
  O  O21  1  0.45729665  0.15237044  0.52405869  1
  O  O22  1  0.69259486  0.54366225  0.52751228  1
  O  O23  1  0.85343212  0.30914799  0.52766180  1
  O  O24  1  0.54886206  0.69102144  0.97301824  1
  O  O25  1  0.14617762  0.44614902  0.97206350  1
  O  O26  1  0.29650444  0.85492938  0.97556514  1
  O  O27  1  0.55909228  0.85379902  0.47281358  1
  O  O28  1  0.30280020  0.44630593  0.47361078  1
  O  O29  1  0.14692456  0.70689553  0.47640533  1
  O  O30  1  0.12458822  0.63614991  0.35955287  1
  O  O31  1  0.51721351  0.87534676  0.36189167  1
  O  O32  1  0.36169833  0.48558316  0.36246952  1
  O  O33  1  0.11798089  0.47625799  0.85989208  1
  O  O34  1  0.37079056  0.89169816  0.85720046  1
  O  O35  1  0.52021749  0.63370153  0.86078547  1
  O  O36  1  0.01210590  0.83465663  0.41069093  1
  O  O37  1  0.80948358  0.98461590  0.41038939  1
  O  O38  1  0.17542328  0.19377445  0.41097647  1
  O  O39  1  0.01721009  0.19112064  0.91296458  1
  O  O40  1  0.16315488  0.98688951  0.91264559  1
  O  O41  1  0.80543017  0.82684615  0.91342652  1
  O  O42  1  0.97612877  0.17096235  0.58799248  1
  O  O43  1  0.18094322  0.01701759  0.58730328  1
  O  O44  1  0.82554553  0.80520451  0.58747016  1
  O  O45  1  0.98634584  0.82228347  0.08859845  1
  O  O46  1  0.82868537  0.01976889  0.09001168  1
  O  O47  1  0.19051400  0.17499282  0.08921728  1
  O  O48  1  0.68424159  0.16982209  0.74522665  1
  O  O49  1  0.47777119  0.32419219  0.74331213  1
  O  O50  1  0.83764315  0.52573494  0.74290893  1
  O  O51  1  0.67960264  0.52545256  0.24728591  1
  O  O52  1  0.82817657  0.31105309  0.24933444  1
  O  O53  1  0.47135567  0.16352164  0.24602738  1
  O  O54  1  0.64913620  0.50683557  0.91996546  1
  O  O55  1  0.86135484  0.35516354  0.91975034  1
  O  O56  1  0.50439796  0.15770338  0.92061849  1
  O  O57  1  0.64436692  0.13791141  0.42131937  1
  O  O58  1  0.49409837  0.35474406  0.42099831  1
  O  O59  1  0.84570567  0.49554205  0.42086881  1
  O  O60  1  0.35477171  0.49487854  0.07911271  1
  O  O61  1  0.15394765  0.64878785  0.08142617  1
  O  O62  1  0.51213705  0.85333761  0.07932476  1
  O  O63  1  0.35584883  0.85019082  0.58220161  1
  O  O64  1  0.50463198  0.64144667  0.57916842  1
  O  O65  1  0.14162791  0.48884981  0.58018358  1
  O  O66  1  0.31876149  0.84453556  0.25519434  1
  O  O67  1  0.52840125  0.69275023  0.25528337  1
  O  O68  1  0.17135584  0.48406328  0.25372897  1
  O  O69  1  0.30736587  0.47225770  0.75331180  1
  O  O70  1  0.15590048  0.68042501  0.75211316  1
  O  O71  1  0.51744717  0.82769827  0.75027668  1
loop_
_geom_bond_atom_site_label_1
_geom_bond_atom_site_label_2
_geom_bond_distance
_geom_bond_site_symmetry_2
Na0 O52 2.472623 1_555
Na0 O67 2.504911 1_545
Na0 O66 2.543332 1_545
Na0 O53 2.609242 1_555
Na0 O31 2.727361 1_545
Na0 O16 2.755194 1_555
Na1 O68 2.472734 1_555
Na1 O53 2.524269 1_555
Na1 O51 2.533836 1_555
Na1 O67 2.604906 1_555
Na1 O17 2.688093 1_555
Na1 O32 2.792057 1_555
Na1 O10 2.951481 1_555
Na1 O0 3.004375 1_555
Na2 O52 2.511456 1_555
Na2 O68 2.512993 1_655
Na2 O51 2.592313 1_555
Na2 O66 2.605474 1_655
Na2 O15 2.612480 1_555
Na2 O30 2.732109 1_655
Na3 O71 2.473027 1_555
Na3 O49 2.496166 1_555
Na3 O50 2.535054 1_555
Na3 O69 2.612564 1_555
Na3 O14 2.695591 1_555
Na3 O35 2.765654 1_555
Na3 O6 2.949469 1_555
Na3 O4 2.977186 1_555
Na4 O48 2.487553 1_555
Na4 O69 2.524684 1_655
Na4 O70 2.551795 1_655
Na4 O50 2.571347 1_555
Na4 O33 2.695619 1_655
Na4 O12 2.747961 1_555
Na4 O5 2.901641 1_555
Na4 O7 2.998503 1_655
Na5 O48 2.476483 1_555
Na5 O71 2.523311 1_545
Na5 O70 2.601567 1_545
Na5 O34 2.613364 1_545
Na5 O49 2.633203 1_555
Na5 O13 2.698550 1_555
Na6 O43 2.499539 1_555
Na6 O64 2.528938 1_555
Na6 O65 2.550916 1_555
Na6 O42 2.592515 1_455
Na6 O28 2.676433 1_555
Na6 O7 2.778089 1_555
Na6 O21 2.946539 1_555
Na6 O14 3.007242 1_555
Na7 O43 2.487588 1_565
Na7 O63 2.514700 1_555
Na7 O29 2.541770 1_555
Na7 O44 2.559201 1_455
Na7 O65 2.586040 1_555
Na7 O8 2.821555 1_555
Na8 O63 2.464561 1_555
Na8 O42 2.531084 1_565
Na8 O44 2.581915 1_555
Na8 O64 2.595241 1_555
Na8 O6 2.661698 1_555
Na8 O27 2.765375 1_555
Na9 O45 2.457200 1_455
Na9 O61 2.482392 1_555
Na9 O26 2.569227 1_554
Na9 O47 2.589632 1_565
Na9 O62 2.635584 1_555
Na9 O11 2.774399 1_555
Na9 O18 2.955783 1_565
Na9 O16 2.972970 1_565
Na10 O45 2.511841 1_555
Na10 O62 2.515673 1_555
Na10 O46 2.564526 1_565
Na10 O60 2.565419 1_555
Na10 O24 2.699687 1_554
Na10 O9 2.742872 1_555
Na10 O19 2.863584 1_555
Na10 O17 2.987076 1_555
Na11 O61 2.497035 1_555
Na11 O47 2.555020 1_555
Na11 O46 2.564652 1_455
Na11 O60 2.572752 1_555
Na11 O10 2.613507 1_555
Na11 O25 2.812954 1_554
Na11 O15 2.867752 1_455
Na11 O20 2.994916 1_455
Na12 O40 2.531030 1_655
Na12 O41 2.557003 1_555
Na12 O55 2.561437 1_555
Na12 O54 2.563132 1_555
Na12 O19 2.572806 1_556
Na12 O4 2.755633 1_555
Na12 O26 2.866728 1_655
Na13 O56 2.533557 1_555
Na13 O5 2.544893 1_555
Na13 O39 2.558162 1_655
Na13 O41 2.559025 1_545
Na13 O55 2.564293 1_555
Na13 O20 2.796202 1_556
Na13 O34 2.865806 1_545
Na14 O40 2.462271 1_545
Na14 O56 2.465354 1_555
Na14 O54 2.560395 1_555
Na14 O39 2.561440 1_555
Na14 O3 2.664846 1_555
Na14 O18 2.711314 1_556
Na14 O25 2.969599 1_555
Na14 O35 2.973633 1_555
Na15 O59 2.509574 1_555
Na15 O37 2.548515 1_545
Na15 O57 2.574297 1_555
Na15 O38 2.580069 1_655
Na15 O2 2.630993 1_555
Na15 O23 2.808427 1_555
Na15 O30 2.896519 1_655
Na15 O28 3.012539 1_655
Na16 O36 2.532058 1_545
Na16 O38 2.552244 1_555
Na16 O57 2.559737 1_555
Na16 O58 2.617902 1_555
Na16 O21 2.619293 1_555
Na16 O0 2.803916 1_555
Na16 O29 2.840970 1_545
Na17 O36 2.448449 1_655
Na17 O59 2.495198 1_555
Na17 O58 2.541994 1_555
Na17 O37 2.573026 1_555
Na17 O1 2.724840 1_555
Na17 O22 2.736061 1_555
Na17 O27 2.939177 1_555
Na17 O32 2.988576 1_555
Na18 O43 2.491755 1_565
Na18 O36 2.510162 1_555
Na18 O44 2.611179 1_455
Na18 O38 2.635178 1_565
Na18 O42 2.664241 1_465
Na18 O37 2.672376 1_455
Na19 O40 2.473630 1_554
Na19 O45 2.502144 1_455
Na19 O41 2.585383 1_454
Na19 O47 2.628975 1_565
Na19 O39 2.634102 1_564
Na19 O46 2.679418 1_465
Na20 O56 2.470447 1_555
Na20 O48 2.505819 1_555
Na20 O55 2.580945 1_555
Na20 O54 2.622674 1_555
Na20 O49 2.652575 1_555
Na20 O50 2.688394 1_555
Na21 O52 2.443117 1_555
Na21 O59 2.475491 1_555
Na21 O51 2.596679 1_555
Na21 O57 2.611575 1_555
Na21 O58 2.643808 1_555
Na21 O53 2.646985 1_555
Na22 O61 2.437752 1_555
Na22 O68 2.490017 1_555
Na22 O60 2.597835 1_555
Na22 O66 2.631311 1_555
Na22 O62 2.636417 1_555
Na22 O67 2.662367 1_555
Na23 O71 2.435418 1_555
Na23 O63 2.435459 1_555
Na23 O70 2.579448 1_555
Na23 O64 2.603348 1_555
Na23 O65 2.626350 1_555
Na23 O69 2.630121 1_555
In0 O5 2.076826 1_455
In0 O40 2.134727 1_545
In0 O4 2.150912 1_445
In0 O3 2.160001 1_555
In0 O39 2.235343 1_555
In0 O41 2.252608 1_445
In1 O15 2.056613 1_555
In1 O16 2.149552 1_555
In1 O17 2.157739 1_555
In1 O52 2.157999 1_555
In1 O53 2.236902 1_555
In1 O51 2.251461 1_555
In2 O19 2.083543 1_556
In2 O56 2.131774 1_555
In2 O18 2.148595 1_556
In2 O20 2.152323 1_556
In2 O54 2.232279 1_555
In2 O55 2.241143 1_555
In3 O26 2.072622 1_554
In3 O25 2.132209 1_554
In3 O61 2.132528 1_555
In3 O24 2.151806 1_554
In3 O62 2.216282 1_555
In3 O60 2.256362 1_555
In4 O29 2.073181 1_555
In4 O27 2.150084 1_555
In4 O63 2.159192 1_555
In4 O28 2.163252 1_555
In4 O65 2.247833 1_555
In4 O64 2.261073 1_555
In5 O34 2.070862 1_555
In5 O35 2.140113 1_555
In5 O71 2.155854 1_555
In5 O33 2.158113 1_555
In5 O70 2.233835 1_555
In5 O69 2.252861 1_555
O0 P0 1.547728 1_555
O0 Sc0 2.093529 1_555
O1 P1 1.550097 1_555
O1 Sc0 2.090041 1_665
O2 Si0 1.635638 1_655
O2 Sc0 1.999883 1_655
O3 P2 1.550115 1_555
O4 P3 1.550886 1_555
O5 Si1 1.640647 1_555
O6 Si1 1.636314 1_565
O6 Sc1 1.999038 1_555
O7 P2 1.547798 1_555
O7 Sc1 2.098664 1_445
O8 P3 1.547731 1_455
O8 Sc1 2.085789 1_455
O9 P1 1.549786 1_555
O9 Sc2 2.103478 1_665
O10 Si0 1.637349 1_555
O10 Sc2 2.017835 1_555
O11 P0 1.547495 1_565
O11 Sc2 2.095950 1_565
O12 P4 1.548685 1_555
O12 Sc3 2.097456 1_555
O13 Si2 1.639063 1_555
O13 Sc3 1.958624 1_555
O14 P5 1.544265 1_555
O14 Sc3 2.140903 1_555
O15 Si3 1.635339 1_555
O16 P6 1.548567 1_555
O17 P7 1.549521 1_555
O18 P7 1.548304 1_555
O19 Si3 1.641454 1_555
O20 P6 1.548620 1_555
O21 Si2 1.640250 1_555
O21 Sc4 2.017207 1_555
O22 P5 1.550814 1_555
O22 Sc4 2.094344 1_555
O23 P4 1.549352 1_555
O23 Sc4 2.102713 1_555
O24 P8 1.548683 1_555
O25 P9 1.547495 1_555
O26 Si4 1.632284 1_555
O27 P10 1.553228 1_555
O28 P11 1.552224 1_555
O29 Si5 1.640088 1_555
O30 Si5 1.643090 1_555
O30 Sc5 1.974258 1_555
O31 P10 1.544688 1_555
O31 Sc5 2.145355 1_555
O32 P11 1.548343 1_555
O32 Sc5 2.097371 1_555
O33 P9 1.549378 1_555
O34 Si4 1.633907 1_555
O35 P8 1.549226 1_555
O36 Si5 1.646289 1_555
O36 Sc0 2.101186 1_565
O37 P10 1.554987 1_555
O37 Sc0 2.167127 1_665
O38 P11 1.555953 1_555
O38 Sc0 2.186376 1_555
O39 P9 1.550238 1_555
O40 Si4 1.650154 1_555
O41 P8 1.555453 1_555
O42 P4 1.557104 1_555
O42 Sc1 2.188937 1_545
O43 Si2 1.648616 1_555
O43 Sc1 2.121716 1_445
O44 P5 1.559759 1_555
O44 Sc1 2.192059 1_555
O45 Si3 1.646845 1_555
O45 Sc2 2.106358 1_665
O46 P6 1.551982 1_555
O46 Sc2 2.160294 1_655
O47 P7 1.552703 1_555
O47 Sc2 2.172946 1_555
O48 Si1 1.651731 1_555
O48 Sc3 2.072416 1_555
O49 P2 1.553859 1_555
O49 Sc3 2.179099 1_555
O50 P3 1.548007 1_555
O50 Sc3 2.209721 1_555
O51 P1 1.558883 1_555
O52 Si0 1.654046 1_655
O53 P0 1.557621 1_555
O54 P8 1.552505 1_555
O55 P9 1.557659 1_655
O56 Si4 1.651981 1_545
O57 P10 1.558642 1_545
O57 Sc4 2.188691 1_555
O58 P11 1.554488 1_555
O58 Sc4 2.185980 1_555
O59 Si5 1.647445 1_655
O59 Sc4 2.119443 1_555
O60 P7 1.554217 1_555
O61 Si3 1.651725 1_455
O62 P6 1.552533 1_565
O63 Si2 1.652358 1_565
O64 P5 1.560392 1_555
O65 P4 1.557569 1_455
O66 P0 1.555570 1_565
O66 Sc5 2.190636 1_555
O67 P1 1.551965 1_555
O67 Sc5 2.238385 1_555
O68 Si0 1.655568 1_555
O68 Sc5 2.075698 1_555
O69 P2 1.557279 1_555
O70 P3 1.559592 1_455
O71 Si1 1.652395 1_565
