# generated using pymatgen
data_NaErCl4
_symmetry_space_group_name_H-M   'P 1'
_cell_length_a   6.30524351
_cell_length_b   6.72356299
_cell_length_c   7.60109226
_cell_angle_alpha   90.00000000
_cell_angle_beta   90.00000000
_cell_angle_gamma   92.21068180
_symmetry_Int_Tables_number   1
_chemical_formula_structural   NaErCl4
_chemical_formula_sum   'Na2 Er2 Cl8'
_cell_volume   321.99861127
_cell_formula_units_Z   2
loop_
 _symmetry_equiv_pos_site_id
 _symmetry_equiv_pos_as_xyz
  1  'x, y, z'
loop_
 _atom_site_type_symbol
 _atom_site_label
 _atom_site_symmetry_multiplicity
 _atom_site_fract_x
 _atom_site_fract_y
 _atom_site_fract_z
 _atom_site_occupancy
  Na  Na0  1  0.50000000  0.25000000  0.35552492  1
  Na  Na1  1  0.50000000  0.75000000  0.64447508  1
  Er  Er0  1  -0.00000000  0.25000000  0.84381001  1
  Er  Er1  1  -0.00000000  0.75000000  0.15618999  1
  Cl  Cl0  1  0.25462227  0.40640521  0.62337216  1
  Cl  Cl1  1  0.74537773  0.09359479  0.62337216  1
  Cl  Cl2  1  0.77435977  0.06706068  0.10593613  1
  Cl  Cl3  1  0.22564023  0.43293932  0.10593613  1
  Cl  Cl4  1  0.22564023  0.93293932  0.89406387  1
  Cl  Cl5  1  0.77435977  0.56706068  0.89406387  1
  Cl  Cl6  1  0.25462227  0.90640521  0.37662684  1
  Cl  Cl7  1  0.74537773  0.59359479  0.37662684  1
loop_
_geom_bond_atom_site_label_1
_geom_bond_atom_site_label_2
_geom_bond_distance
_geom_bond_site_symmetry_2
Cl0 Er0 2.522029 1_555
Cl0 Na1 2.735077 1_555
Cl0 Na0 2.787494 1_555
Cl1 Er0 2.522029 1_655
Cl1 Na1 2.735077 1_545
Cl1 Na0 2.787494 1_555
Cl2 Er1 2.636000 1_645
Cl2 Er0 2.715118 1_654
Cl2 Na0 2.875553 1_555
Cl3 Er1 2.636000 1_555
Cl3 Er0 2.715118 1_554
Cl3 Na0 2.875553 1_555
Cl4 Er0 2.636000 1_565
Cl4 Er1 2.715118 1_556
Cl4 Na1 2.875553 1_555
Cl5 Er0 2.636000 1_655
Cl5 Er1 2.715118 1_656
Cl5 Na1 2.875553 1_555
Cl6 Er1 2.522024 1_555
Cl6 Na0 2.735076 1_565
Cl6 Na1 2.787500 1_555
Cl7 Er1 2.522024 1_655
Cl7 Na0 2.735076 1_555
Cl7 Na1 2.787500 1_555
