# generated using pymatgen
data_SrLaMgNbZnO6
_symmetry_space_group_name_H-M   'P 1'
_cell_length_a   5.52514924
_cell_length_b   6.64609041
_cell_length_c   6.64609102
_cell_angle_alpha   49.21990209
_cell_angle_beta   65.43852462
_cell_angle_gamma   65.43852224
_symmetry_Int_Tables_number   1
_chemical_formula_structural   SrLaMgNbZnO6
_chemical_formula_sum   'Sr1 La1 Mg1 Nb1 Zn1 O6'
_cell_volume   164.35364691
_cell_formula_units_Z   1
loop_
 _symmetry_equiv_pos_site_id
 _symmetry_equiv_pos_as_xyz
  1  'x, y, z'
loop_
 _atom_site_type_symbol
 _atom_site_label
 _atom_site_symmetry_multiplicity
 _atom_site_fract_x
 _atom_site_fract_y
 _atom_site_fract_z
 _atom_site_occupancy
  Sr  Sr0  1  0.25438046  0.24561954  0.24561954  1
  La  La0  1  0.83860053  0.66139947  0.66139947  1
  Mg  Mg0  1  0.52689047  0.97310953  0.97310953  1
  Nb  Nb0  1  0.53686542  0.46313458  0.46313458  1
  Zn  Zn0  1  0.04404024  0.95595976  0.95595976  1
  O  O0  1  0.22223161  0.28445845  0.78953056  1
  O  O1  1  0.22223161  0.78953056  0.28445845  1
  O  O2  1  0.71275969  0.28724031  0.28724031  1
  O  O3  1  0.22402420  0.77597580  0.77597580  1
  O  O4  1  0.70377938  0.28445845  0.78953056  1
  O  O5  1  0.70377938  0.78953056  0.28445845  1
loop_
_geom_bond_atom_site_label_1
_geom_bond_atom_site_label_2
_geom_bond_distance
_geom_bond_site_symmetry_2
La0 O0 2.406911 1_655
La0 O1 2.406911 1_655
La0 O4 2.406911 1_555
La0 O5 2.406912 1_555
La0 O3 3.024609 1_555
La0 O3 3.024609 1_655
La0 O2 3.080484 1_565
La0 O2 3.080484 1_556
Mg0 O0 2.029174 1_565
Mg0 O1 2.029174 1_556
Mg0 O4 2.029174 1_565
Mg0 O5 2.029174 1_556
Nb0 O2 1.890470 1_555
Nb0 O1 2.086616 1_555
Nb0 O0 2.086617 1_555
Nb0 O5 2.086617 1_555
Nb0 O4 2.086617 1_555
O0 Zn0 2.164784 1_545
O0 Sr0 2.945131 1_556
O1 Zn0 2.164784 1_554
O1 Sr0 2.945131 1_565
O2 Sr0 2.798557 1_655
O2 Sr0 2.798557 1_555
O3 Zn0 1.934425 1_555
O3 Sr0 2.786853 1_556
O3 Sr0 2.786853 1_565
O4 Zn0 2.164783 1_645
O4 Sr0 2.945130 1_556
O5 Zn0 2.164783 1_654
O5 Sr0 2.945130 1_565
