# generated using pymatgen
data_MgMn4O7F
_symmetry_space_group_name_H-M   'P 1'
_cell_length_a   5.03317999
_cell_length_b   5.93733999
_cell_length_c   5.08306168
_cell_angle_alpha   83.84239439
_cell_angle_beta   78.99028817
_cell_angle_gamma   81.08886644
_symmetry_Int_Tables_number   1
_chemical_formula_structural   MgMn4O7F
_chemical_formula_sum   'Mg1 Mn4 O7 F1'
_cell_volume   146.83183610
_cell_formula_units_Z   1
loop_
 _symmetry_equiv_pos_site_id
 _symmetry_equiv_pos_as_xyz
  1  'x, y, z'
loop_
 _atom_site_type_symbol
 _atom_site_label
 _atom_site_symmetry_multiplicity
 _atom_site_fract_x
 _atom_site_fract_y
 _atom_site_fract_z
 _atom_site_occupancy
  Mg  Mg0  1  0.46228823  0.92327620  0.70816864  1
  Mn  Mn0  1  0.00279394  0.63765056  0.74065789  1
  Mn  Mn1  1  0.01374764  0.16839073  0.26248657  1
  Mn  Mn2  1  0.52496820  0.37748941  0.77315329  1
  Mn  Mn3  1  0.48471668  0.64116689  0.25230419  1
  O  O0  1  0.29169272  0.16584057  0.95349799  1
  O  O1  1  0.22463547  0.88854569  0.43308430  1
  O  O2  1  0.28249018  0.43195405  0.50479401  1
  O  O3  1  0.28808599  0.64023554  0.93914946  1
  O  O4  1  0.75409522  0.39920792  0.05340428  1
  O  O5  1  0.71249907  0.62111495  0.55652259  1
  O  O6  1  0.74032448  0.14173424  0.57563623  1
  F  F0  1  0.73155318  0.84434825  0.00964256  1
loop_
_geom_bond_atom_site_label_1
_geom_bond_atom_site_label_2
_geom_bond_distance
_geom_bond_site_symmetry_2
Mg0 O0 1.989893 1_565
Mg0 O6 2.027149 1_565
Mg0 O1 2.050744 1_555
Mg0 O3 2.147411 1_555
Mg0 O5 2.150500 1_555
Mn0 O5 1.899212 1_455
Mn0 O3 1.908821 1_555
Mn0 O2 2.011853 1_555
Mn0 O1 2.293244 1_555
Mn0 O4 2.324746 1_456
Mn1 O0 1.892990 1_554
Mn1 O6 1.905095 1_455
Mn1 O1 2.033568 1_545
Mn1 O4 2.092539 1_455
Mn1 O2 2.738789 1_555
Mn2 O6 1.886266 1_555
Mn2 O0 1.896546 1_555
Mn2 O2 1.968180 1_555
Mn2 O5 1.969786 1_555
Mn2 O3 1.972057 1_555
Mn2 O4 2.022087 1_556
Mn3 O2 1.943423 1_555
Mn3 O1 1.987389 1_555
Mn3 O4 2.027024 1_555
Mn3 O3 2.029424 1_554
Mn3 O5 2.077297 1_555
F0 Mn3 2.019904 1_555
F0 Mn0 2.089800 1_654
F0 Mg0 2.201600 1_554
