# generated using pymatgen
data_Nb2Si3Ge2(SO8)3
_symmetry_space_group_name_H-M   'P 1'
_cell_length_a   8.68973645
_cell_length_b   8.67789466
_cell_length_c   22.39255694
_cell_angle_alpha   89.21492138
_cell_angle_beta   90.92845378
_cell_angle_gamma   119.61891515
_symmetry_Int_Tables_number   1
_chemical_formula_structural   Nb2Si3Ge2(SO8)3
_chemical_formula_sum   'Nb6 Si9 Ge6 S9 O72'
_cell_volume   1467.72233046
_cell_formula_units_Z   3
loop_
 _symmetry_equiv_pos_site_id
 _symmetry_equiv_pos_as_xyz
  1  'x, y, z'
loop_
 _atom_site_type_symbol
 _atom_site_label
 _atom_site_symmetry_multiplicity
 _atom_site_fract_x
 _atom_site_fract_y
 _atom_site_fract_z
 _atom_site_occupancy
  Nb  Nb0  1  0.99562238  0.01410310  0.63945417  1
  Nb  Nb1  1  0.01366023  0.01911296  0.13713899  1
  Nb  Nb2  1  0.65669572  0.33614677  0.97229283  1
  Nb  Nb3  1  0.67737631  0.33727128  0.47489507  1
  Nb  Nb4  1  0.32787017  0.66592572  0.30629953  1
  Nb  Nb5  1  0.34689525  0.67976795  0.80311175  1
  Si  Si0  1  0.96999290  0.27195194  0.25057649  1
  Si  Si1  1  0.30687561  0.28082415  0.74933662  1
  Si  Si2  1  0.74213197  0.02688737  0.75220301  1
  Si  Si3  1  0.96909111  0.36678651  0.58494202  1
  Si  Si4  1  0.66715836  0.60744588  0.58724551  1
  Si  Si5  1  0.95728202  0.61494967  0.08284872  1
  Si  Si6  1  0.40616470  0.36430869  0.08414852  1
  Si  Si7  1  0.30884691  0.93386616  0.91755234  1
  Si  Si8  1  0.60964736  0.93267803  0.42117585  1
  Ge  Ge0  1  0.96823229  0.00224939  0.35857762  1
  Ge  Ge1  1  0.03386838  0.02265662  0.84961469  1
  Ge  Ge2  1  0.68320292  0.34400180  0.69169972  1
  Ge  Ge3  1  0.68946451  0.35161454  0.18222170  1
  Ge  Ge4  1  0.30771072  0.65565983  0.02351060  1
  Ge  Ge5  1  0.36117660  0.67893269  0.53519308  1
  S  S0  1  0.28543481  0.01512235  0.25179108  1
  S  S1  1  0.72111387  0.70978612  0.25131575  1
  S  S2  1  0.99001038  0.71285167  0.75104153  1
  S  S3  1  0.38880623  0.04641340  0.58318386  1
  S  S4  1  0.65173676  0.04261944  0.08274551  1
  S  S5  1  0.62493059  0.68432218  0.91660870  1
  S  S6  1  0.05294633  0.37167587  0.91743294  1
  S  S7  1  0.31243550  0.36297259  0.41524641  1
  S  S8  1  0.04850227  0.68743398  0.41232815  1
  O  O0  1  0.20041574  0.03476710  0.30469983  1
  O  O1  1  0.82859251  0.78641888  0.30684735  1
  O  O2  1  0.94327739  0.15103867  0.31025274  1
  O  O3  1  0.22749118  0.16100787  0.81004505  1
  O  O4  1  0.96616361  0.79419533  0.80515083  1
  O  O5  1  0.86091879  0.04326754  0.81146809  1
  O  O6  1  0.81201346  0.97603261  0.69191558  1
  O  O7  1  0.17309958  0.18535744  0.69250586  1
  O  O8  1  0.02618928  0.82023745  0.69722093  1
  O  O9  1  0.79616630  0.82260095  0.19899418  1
  O  O10  1  0.01417244  0.18651401  0.19339280  1
  O  O11  1  0.17128858  0.97422936  0.19733606  1
  O  O12  1  0.87785669  0.39140736  0.64260113  1
  O  O13  1  0.50044339  0.11780928  0.63592032  1
  O  O14  1  0.62920549  0.47827243  0.64328301  1
  O  O15  1  0.88146057  0.49435670  0.14323606  1
  O  O16  1  0.62149281  0.12167041  0.13667831  1
  O  O17  1  0.52118476  0.38111955  0.14473587  1
  O  O18  1  0.48021991  0.31130752  0.02594162  1
  O  O19  1  0.83234191  0.52190817  0.02455281  1
  O  O20  1  0.69357332  0.15611159  0.02949761  1
  O  O21  1  0.46544842  0.15288895  0.52746985  1
  O  O22  1  0.67879134  0.51423722  0.52416315  1
  O  O23  1  0.84153169  0.31903520  0.52318908  1
  O  O24  1  0.54041136  0.70205237  0.97003286  1
  O  O25  1  0.16066759  0.44474618  0.97377304  1
  O  O26  1  0.28939306  0.81271974  0.97644268  1
  O  O27  1  0.50677890  0.80438890  0.47714290  1
  O  O28  1  0.27767116  0.43540941  0.46785901  1
  O  O29  1  0.15277461  0.71743649  0.46568035  1
  O  O30  1  0.12552901  0.64871567  0.35864765  1
  O  O31  1  0.49176474  0.83957924  0.36003649  1
  O  O32  1  0.33445349  0.47428631  0.36034037  1
  O  O33  1  0.13107891  0.48519088  0.86546710  1
  O  O34  1  0.34303623  0.84423450  0.85951994  1
  O  O35  1  0.51058474  0.64449647  0.86263324  1
  O  O36  1  0.03702173  0.85044323  0.39984335  1
  O  O37  1  0.80321988  0.94902398  0.41278584  1
  O  O38  1  0.16038553  0.18033201  0.40517602  1
  O  O39  1  0.03512988  0.19444964  0.91157137  1
  O  O40  1  0.13237395  0.95221257  0.90747504  1
  O  O41  1  0.79923742  0.83462266  0.90910303  1
  O  O42  1  0.98994629  0.18905430  0.58997306  1
  O  O43  1  0.21123886  0.02454378  0.58822018  1
  O  O44  1  0.84663256  0.79958169  0.59324036  1
  O  O45  1  0.97168879  0.80954374  0.09605833  1
  O  O46  1  0.81415285  0.02395966  0.09200706  1
  O  O47  1  0.20669338  0.18823810  0.09465197  1
  O  O48  1  0.72351622  0.19786378  0.73990632  1
  O  O49  1  0.49779751  0.30426023  0.73848846  1
  O  O50  1  0.83157333  0.53785985  0.74736251  1
  O  O51  1  0.70024703  0.53213746  0.24569996  1
  O  O52  1  0.79135662  0.28452324  0.23913305  1
  O  O53  1  0.46003566  0.16509303  0.24320825  1
  O  O54  1  0.63889986  0.51481474  0.92101887  1
  O  O55  1  0.87382212  0.35211384  0.92569717  1
  O  O56  1  0.48701435  0.13100812  0.92900248  1
  O  O57  1  0.63065097  0.12916627  0.42783700  1
  O  O58  1  0.47491142  0.34963003  0.41920715  1
  O  O59  1  0.86604675  0.52968450  0.41639346  1
  O  O60  1  0.38853954  0.53531206  0.06828153  1
  O  O61  1  0.15060323  0.63605005  0.07633446  1
  O  O62  1  0.50080815  0.86699752  0.07510847  1
  O  O63  1  0.36631720  0.86648558  0.57532487  1
  O  O64  1  0.49293281  0.63112620  0.58124149  1
  O  O65  1  0.15117039  0.53844023  0.56446092  1
  O  O66  1  0.30026419  0.84668268  0.25808839  1
  O  O67  1  0.53816388  0.68869879  0.25926430  1
  O  O68  1  0.14555433  0.46991232  0.26219308  1
  O  O69  1  0.31091966  0.47178097  0.76208035  1
  O  O70  1  0.14691294  0.68453788  0.75829873  1
  O  O71  1  0.54185461  0.85042886  0.76185659  1
loop_
_geom_bond_atom_site_label_1
_geom_bond_atom_site_label_2
_geom_bond_distance
_geom_bond_site_symmetry_2
Nb0 O42 1.887120 1_555
Nb0 O6 1.887833 1_545
Nb0 O7 1.929200 1_655
Nb0 O44 1.959505 1_545
Nb0 O43 2.175775 1_655
Nb0 O8 2.223743 1_645
Nb1 O47 1.858188 1_555
Nb1 O45 1.914669 1_445
Nb1 O10 1.934078 1_555
Nb1 O46 2.010684 1_455
Nb1 O11 2.073176 1_545
Nb1 O9 2.287548 1_445
Nb2 O18 1.888714 1_556
Nb2 O56 1.920741 1_555
Nb2 O19 1.964550 1_556
Nb2 O54 1.982061 1_555
Nb2 O55 2.114049 1_555
Nb2 O20 2.147359 1_556
Nb3 O23 1.843308 1_555
Nb3 O22 1.898146 1_555
Nb3 O57 1.962158 1_555
Nb3 O21 2.107995 1_555
Nb3 O59 2.120333 1_555
Nb3 O58 2.184860 1_555
Nb4 O31 1.902608 1_555
Nb4 O68 1.926226 1_555
Nb4 O66 2.000160 1_555
Nb4 O67 2.046326 1_555
Nb4 O32 2.066386 1_555
Nb4 O30 2.071328 1_555
Nb5 O71 1.857429 1_555
Nb5 O69 1.917799 1_555
Nb5 O34 1.931749 1_555
Nb5 O70 2.010487 1_555
Nb5 O35 2.061832 1_555
Nb5 O33 2.282103 1_555
Ge0 O2 1.765223 1_555
Ge0 O37 1.768980 1_545
Ge0 O36 1.916698 1_645
Ge0 O38 1.924110 1_655
Ge0 O1 2.022285 1_545
Ge0 O0 2.261134 1_655
Ge1 O3 1.754962 1_555
Ge1 O5 1.800063 1_455
Ge1 O40 1.801299 1_545
Ge1 O4 2.037202 1_445
Ge1 O39 2.046322 1_555
Ge1 O41 2.309550 1_445
Ge2 O14 1.800717 1_555
Ge2 O48 1.812619 1_555
Ge2 O49 1.818779 1_555
Ge2 O12 1.897158 1_555
Ge2 O50 1.976716 1_555
Ge2 O13 2.203798 1_555
Ge3 O15 1.747802 1_555
Ge3 O52 1.788757 1_555
Ge3 O17 1.798031 1_555
Ge3 O16 2.059591 1_555
Ge3 O51 2.096425 1_555
Ge3 O53 2.301642 1_555
Ge4 O61 1.763272 1_555
Ge4 O26 1.778613 1_554
Ge4 O60 1.806289 1_555
Ge4 O25 1.980185 1_554
Ge4 O62 2.113621 1_555
Ge4 O24 2.223868 1_554
Ge5 O64 1.722132 1_555
Ge5 O65 1.750384 1_555
Ge5 O27 1.768834 1_555
Ge5 O63 1.850798 1_555
Ge5 O28 2.408725 1_555
O0 S0 1.461825 1_555
O1 S1 1.493954 1_555
O2 Si0 1.634450 1_555
O3 Si1 1.639405 1_555
O4 S2 1.478334 1_555
O5 Si2 1.631755 1_555
O6 Si2 1.641271 1_565
O7 Si1 1.638954 1_555
O8 S2 1.453141 1_455
O9 S1 1.455565 1_555
O10 Si0 1.630964 1_455
O11 S0 1.490447 1_565
O12 Si3 1.596678 1_555
O13 S3 1.452001 1_555
O14 Si4 1.596661 1_555
O15 Si5 1.632889 1_555
O16 S4 1.486398 1_555
O17 Si6 1.636543 1_555
O18 Si6 1.631162 1_555
O19 Si5 1.628241 1_555
O20 S4 1.466904 1_555
O21 S3 1.496938 1_555
O22 Si4 1.666311 1_555
O23 Si3 1.680640 1_555
O24 S5 1.462685 1_555
O25 S6 1.505616 1_555
O26 Si7 1.632896 1_555
O27 Si8 1.619713 1_555
O28 S7 1.447039 1_555
O29 S8 1.433997 1_555
O30 S8 1.505078 1_555
O31 Si8 1.656262 1_555
O32 S7 1.507890 1_555
O33 S6 1.455511 1_555
O34 Si7 1.628058 1_555
O35 S5 1.483466 1_555
O36 S8 1.488923 1_555
O37 Si8 1.630497 1_555
O38 S7 1.496266 1_555
O39 S6 1.475129 1_555
O40 Si7 1.630040 1_555
O41 S5 1.439841 1_555
O42 Si3 1.641711 1_555
O43 S3 1.464658 1_555
O44 Si4 1.630748 1_555
O45 Si5 1.660809 1_555
O46 S4 1.508854 1_555
O47 Si6 1.667298 1_555
O48 Si2 1.589970 1_555
O49 Si1 1.590925 1_555
O50 S2 1.463384 1_555
O51 S1 1.467493 1_555
O52 Si0 1.625097 1_555
O53 S0 1.443424 1_555
O54 S5 1.536347 1_555
O55 S6 1.494382 1_655
O56 Si7 1.664501 1_545
O57 Si8 1.631384 1_545
O58 S7 1.473739 1_555
O59 S8 1.500643 1_655
O60 Si6 1.600077 1_555
O61 Si5 1.606257 1_455
O62 S4 1.447810 1_565
O63 S3 1.487252 1_565
O64 Si4 1.628678 1_555
O65 Si3 1.614862 1_455
O66 S0 1.533953 1_565
O67 S1 1.520955 1_555
O68 Si0 1.659833 1_455
O69 Si1 1.668452 1_555
O70 S2 1.506192 1_455
O71 Si2 1.670122 1_565
