# generated using pymatgen
data_Na6Nb5ZnSi6(PO12)3
_symmetry_space_group_name_H-M   'P 1'
_cell_length_a   8.97243761
_cell_length_b   8.97243731
_cell_length_c   22.63967217
_cell_angle_alpha   89.73027047
_cell_angle_beta   90.26972954
_cell_angle_gamma   119.99779173
_symmetry_Int_Tables_number   1
_chemical_formula_structural   Na6Nb5ZnSi6(PO12)3
_chemical_formula_sum   'Na12 Nb10 Zn2 Si12 P6 O72'
_cell_volume   1578.42842173
_cell_formula_units_Z   2
loop_
 _symmetry_equiv_pos_site_id
 _symmetry_equiv_pos_as_xyz
  1  'x, y, z'
loop_
 _atom_site_type_symbol
 _atom_site_label
 _atom_site_symmetry_multiplicity
 _atom_site_fract_x
 _atom_site_fract_y
 _atom_site_fract_z
 _atom_site_occupancy
  Na  Na0  1  0.38271369  0.37089724  0.24025053  1
  Na  Na1  1  0.98043655  0.61439108  0.24112117  1
  Na  Na2  1  0.62910276  0.61728631  0.74025053  1
  Na  Na3  1  0.38560892  0.01956345  0.74112117  1
  Na  Na4  1  0.65909486  0.97527890  0.58625544  1
  Na  Na5  1  0.02472110  0.34090514  0.08625544  1
  Na  Na6  1  0.01341782  0.99831871  0.49839980  1
  Na  Na7  1  0.00168129  0.98658218  0.99839980  1
  Na  Na8  1  0.68211242  0.32995868  0.82935603  1
  Na  Na9  1  0.67004132  0.31788758  0.32935603  1
  Na  Na10  1  0.35561747  0.69039140  0.16346736  1
  Na  Na11  1  0.30960860  0.64438253  0.66346736  1
  Nb  Nb0  1  0.99697455  0.00514482  0.35819540  1
  Nb  Nb1  1  0.99485518  0.00302545  0.85819540  1
  Nb  Nb2  1  0.99893419  0.99765826  0.64329289  1
  Nb  Nb3  1  0.00234174  0.00106581  0.14329289  1
  Nb  Nb4  1  0.66309538  0.33769330  0.97822324  1
  Nb  Nb5  1  0.66230670  0.33690462  0.47822324  1
  Nb  Nb6  1  0.33339530  0.66669230  0.01987957  1
  Nb  Nb7  1  0.33330770  0.66660470  0.51987957  1
  Nb  Nb8  1  0.33196967  0.66626605  0.31385089  1
  Nb  Nb9  1  0.33373395  0.66803033  0.81385089  1
  Zn  Zn0  1  0.67229756  0.32797010  0.68045998  1
  Zn  Zn1  1  0.67202990  0.32770244  0.18045998  1
  Si  Si0  1  0.99474555  0.28961440  0.24954274  1
  Si  Si1  1  0.71038560  0.00525445  0.74954274  1
  Si  Si2  1  0.37713297  0.04410853  0.58572785  1
  Si  Si3  1  0.66242223  0.61609477  0.58758863  1
  Si  Si4  1  0.95589147  0.62286703  0.08572785  1
  Si  Si5  1  0.38390523  0.33757777  0.08758863  1
  Si  Si6  1  0.62098686  0.66499531  0.91634803  1
  Si  Si7  1  0.04194280  0.37916723  0.91751190  1
  Si  Si8  1  0.33535500  0.95741411  0.91599295  1
  Si  Si9  1  0.62083277  0.95805720  0.41751190  1
  Si  Si10  1  0.33500469  0.37901314  0.41634803  1
  Si  Si11  1  0.04258589  0.66464500  0.41599295  1
  P  P0  1  0.28435132  0.99776274  0.25141963  1
  P  P1  1  0.71154931  0.71930431  0.25136923  1
  P  P2  1  0.28069569  0.28845069  0.75136923  1
  P  P3  1  0.00223726  0.71564868  0.75141963  1
  P  P4  1  0.95716590  0.33727597  0.58441147  1
  P  P5  1  0.66272403  0.04283410  0.08441147  1
  O  O0  1  0.18537489  0.00884698  0.30527808  1
  O  O1  1  0.82312535  0.81370468  0.30564597  1
  O  O2  1  0.98944444  0.17105198  0.30614600  1
  O  O3  1  0.18629532  0.17687465  0.80564597  1
  O  O4  1  0.99115302  0.81462511  0.80527808  1
  O  O5  1  0.82894802  0.01055556  0.80614600  1
  O  O6  1  0.80346541  0.97474720  0.69118654  1
  O  O7  1  0.17235922  0.19586943  0.69561276  1
  O  O8  1  0.02905495  0.83178489  0.69543947  1
  O  O9  1  0.80413057  0.82764078  0.19561276  1
  O  O10  1  0.02525280  0.19653459  0.19118654  1
  O  O11  1  0.16821511  0.97094505  0.19543947  1
  O  O12  1  0.88946087  0.36908418  0.64063306  1
  O  O13  1  0.48941607  0.10309440  0.64510266  1
  O  O14  1  0.63420790  0.51628807  0.64838089  1
  O  O15  1  0.89690560  0.51058393  0.14510266  1
  O  O16  1  0.63091582  0.11053913  0.14063306  1
  O  O17  1  0.48371193  0.36579210  0.14838089  1
  O  O18  1  0.47619526  0.30715917  0.02960557  1
  O  O19  1  0.83280551  0.52178546  0.02858935  1
  O  O20  1  0.69929534  0.16060323  0.02984872  1
  O  O21  1  0.47821454  0.16719449  0.52858935  1
  O  O22  1  0.69284083  0.52380474  0.52960557  1
  O  O23  1  0.83939677  0.30070466  0.52984872  1
  O  O24  1  0.52548152  0.69077387  0.97248055  1
  O  O25  1  0.15924072  0.46588249  0.97607544  1
  O  O26  1  0.30693102  0.83185943  0.97181518  1
  O  O27  1  0.53411751  0.84075928  0.47607544  1
  O  O28  1  0.30922613  0.47451848  0.47248055  1
  O  O29  1  0.16814057  0.69306898  0.47181518  1
  O  O30  1  0.13520085  0.63899518  0.35653703  1
  O  O31  1  0.49809753  0.85743367  0.35994794  1
  O  O32  1  0.35888969  0.49469036  0.35647605  1
  O  O33  1  0.14256633  0.50190247  0.85994794  1
  O  O34  1  0.36100482  0.86479915  0.85653703  1
  O  O35  1  0.50530964  0.64111031  0.85647605  1
  O  O36  1  0.02409698  0.83485011  0.40775251  1
  O  O37  1  0.80934505  0.97311876  0.40935155  1
  O  O38  1  0.16642489  0.18791551  0.40988100  1
  O  O39  1  0.02688124  0.19065495  0.90935155  1
  O  O40  1  0.16514989  0.97590302  0.90775251  1
  O  O41  1  0.81208449  0.83357511  0.90988100  1
  O  O42  1  0.97077120  0.16767547  0.58985123  1
  O  O43  1  0.18611366  0.02813021  0.59047613  1
  O  O44  1  0.83463696  0.81699400  0.59060715  1
  O  O45  1  0.97186979  0.81388634  0.09047613  1
  O  O46  1  0.83232453  0.02922880  0.08985123  1
  O  O47  1  0.18300600  0.16536304  0.09060715  1
  O  O48  1  0.68167226  0.16663621  0.75005540  1
  O  O49  1  0.45954598  0.30933909  0.75087625  1
  O  O50  1  0.84141221  0.54231179  0.74889233  1
  O  O51  1  0.69066091  0.54045402  0.25087625  1
  O  O52  1  0.83336379  0.31832774  0.25005540  1
  O  O53  1  0.45768821  0.15858779  0.24889233  1
  O  O54  1  0.63784982  0.49356933  0.92297703  1
  O  O55  1  0.85278693  0.35729447  0.92405422  1
  O  O56  1  0.50642518  0.14338251  0.92458926  1
  O  O57  1  0.64270553  0.14721307  0.42405422  1
  O  O58  1  0.50643067  0.36215018  0.42297703  1
  O  O59  1  0.85661749  0.49357482  0.42458926  1
  O  O60  1  0.34518875  0.49743375  0.07625217  1
  O  O61  1  0.15025396  0.65146914  0.07333669  1
  O  O62  1  0.51114880  0.85814024  0.07418722  1
  O  O63  1  0.34853086  0.84974604  0.57333669  1
  O  O64  1  0.50256625  0.65481125  0.57625217  1
  O  O65  1  0.14185976  0.48885120  0.57418722  1
  O  O66  1  0.29153809  0.82734721  0.25424936  1
  O  O67  1  0.53064154  0.70426678  0.25426856  1
  O  O68  1  0.17912262  0.47887141  0.25420894  1
  O  O69  1  0.29573322  0.46935846  0.75426856  1
  O  O70  1  0.17265279  0.70846191  0.75424936  1
  O  O71  1  0.52112859  0.82087738  0.75420894  1
loop_
_geom_bond_atom_site_label_1
_geom_bond_atom_site_label_2
_geom_bond_distance
_geom_bond_site_symmetry_2
Na0 O17 2.282416 1_555
Na0 O53 2.322973 1_555
Na0 O51 2.408458 1_555
Na0 O68 2.480561 1_555
Na0 O67 2.616191 1_555
Na0 O32 2.910912 1_555
Na0 O10 2.988914 1_555
Na1 O52 2.308909 1_555
Na1 O15 2.336762 1_555
Na1 O51 2.351203 1_555
Na1 O66 2.489017 1_655
Na1 O68 2.627446 1_655
Na1 O30 2.910218 1_655
Na1 O11 2.956087 1_655
Na2 O14 2.282416 1_555
Na2 O50 2.322973 1_555
Na2 O49 2.408458 1_555
Na2 O71 2.480561 1_555
Na2 O69 2.616191 1_555
Na2 O35 2.910912 1_555
Na2 O6 2.988914 1_555
Na3 O48 2.308909 1_555
Na3 O13 2.336762 1_555
Na3 O49 2.351203 1_555
Na3 O70 2.489017 1_545
Na3 O71 2.627446 1_545
Na3 O34 2.910218 1_545
Na3 O8 2.956087 1_545
Na4 O63 2.444572 1_555
Na4 O42 2.445203 1_565
Na4 O64 2.501328 1_555
Na4 O44 2.596416 1_555
Na4 O13 2.680910 1_565
Na4 O6 2.701587 1_555
Na4 O27 2.754105 1_555
Na4 O23 2.834531 1_565
Na5 O61 2.444572 1_555
Na5 O46 2.445203 1_455
Na5 O60 2.501328 1_555
Na5 O47 2.596416 1_555
Na5 O15 2.680910 1_455
Na5 O10 2.701587 1_555
Na5 O25 2.754105 1_554
Na5 O20 2.834531 1_455
Na6 O43 2.525544 1_565
Na6 O38 2.540338 1_565
Na6 O36 2.557884 1_555
Na6 O44 2.639666 1_455
Na6 O37 2.650227 1_455
Na6 O42 2.713042 1_465
Na7 O45 2.525544 1_456
Na7 O41 2.540338 1_455
Na7 O40 2.557884 1_555
Na7 O47 2.639666 1_566
Na7 O39 2.650227 1_565
Na7 O46 2.713042 1_466
Na8 O48 2.321547 1_555
Na8 O50 2.502078 1_555
Na8 O55 2.569079 1_555
Na8 O49 2.603692 1_555
Na8 O56 2.700954 1_555
Na8 O54 2.724954 1_555
Na9 O52 2.321547 1_555
Na9 O53 2.502078 1_555
Na9 O57 2.569079 1_555
Na9 O51 2.603692 1_555
Na9 O59 2.700954 1_555
Na9 O58 2.724954 1_555
Na10 O62 2.489176 1_555
Na10 O67 2.546388 1_555
Na10 O60 2.602567 1_555
Na10 O66 2.608852 1_555
Na10 O61 2.647413 1_555
Na10 O68 2.705308 1_555
Na11 O65 2.489176 1_555
Na11 O69 2.546388 1_555
Na11 O64 2.602567 1_555
Na11 O70 2.608852 1_555
Na11 O63 2.647413 1_555
Na11 O71 2.705308 1_555
Nb0 O2 1.921550 1_555
Nb0 O37 1.946678 1_545
Nb0 O38 1.969335 1_655
Nb0 O36 2.001441 1_645
Nb0 O1 2.030168 1_545
Nb0 O0 2.063108 1_655
Nb1 O5 1.921550 1_555
Nb1 O39 1.946678 1_655
Nb1 O41 1.969335 1_545
Nb1 O40 2.001441 1_645
Nb1 O3 2.030168 1_655
Nb1 O4 2.063108 1_545
Nb2 O44 1.958496 1_555
Nb2 O43 1.970238 1_665
Nb2 O6 1.987254 1_555
Nb2 O8 2.016050 1_655
Nb2 O42 2.054254 1_565
Nb2 O7 2.054873 1_665
Nb3 O47 1.958496 1_555
Nb3 O45 1.970238 1_445
Nb3 O10 1.987254 1_555
Nb3 O11 2.016051 1_545
Nb3 O46 2.054254 1_455
Nb3 O9 2.054873 1_445
Nb4 O18 1.948437 1_556
Nb4 O19 1.957952 1_556
Nb4 O54 1.967076 1_555
Nb4 O56 2.010791 1_555
Nb4 O55 2.037158 1_555
Nb4 O20 2.119255 1_556
Nb5 O22 1.948437 1_555
Nb5 O21 1.957952 1_555
Nb5 O58 1.967076 1_555
Nb5 O59 2.010791 1_555
Nb5 O57 2.037158 1_555
Nb5 O23 2.119255 1_555
Nb6 O26 1.941883 1_554
Nb6 O24 1.952300 1_554
Nb6 O25 1.964310 1_554
Nb6 O61 1.994063 1_555
Nb6 O60 2.021764 1_555
Nb6 O62 2.065916 1_555
Nb7 O29 1.941883 1_555
Nb7 O28 1.952300 1_555
Nb7 O27 1.964310 1_555
Nb7 O63 1.994063 1_555
Nb7 O64 2.021764 1_555
Nb7 O65 2.065916 1_555
Nb8 O30 1.921627 1_555
Nb8 O31 1.923197 1_555
Nb8 O32 1.927471 1_555
Nb8 O68 2.056524 1_555
Nb8 O67 2.126964 1_555
Nb8 O66 2.131323 1_555
Nb9 O34 1.921627 1_555
Nb9 O33 1.923198 1_555
Nb9 O35 1.927471 1_555
Nb9 O71 2.056524 1_555
Nb9 O69 2.126964 1_555
Nb9 O70 2.131323 1_555
O0 P0 1.544337 1_545
O1 P1 1.542703 1_555
O2 Si0 1.647195 1_555
O3 P2 1.542703 1_555
O4 P3 1.544337 1_655
O5 Si1 1.647195 1_555
O6 Si1 1.661404 1_565
O7 P2 1.555389 1_555
O8 P3 1.577868 1_555
O9 P1 1.555389 1_555
O10 Si0 1.661404 1_455
O11 P0 1.577868 1_555
O12 P4 1.501553 1_555
O12 Zn0 2.010063 1_555
O13 Si2 1.600875 1_555
O13 Zn0 2.024006 1_555
O14 Si3 1.589107 1_555
O14 Zn0 2.015631 1_555
O15 Si4 1.600875 1_555
O15 Zn1 2.024006 1_555
O16 P5 1.501553 1_555
O16 Zn1 2.010063 1_555
O17 Si5 1.589107 1_555
O17 Zn1 2.015631 1_555
O18 Si5 1.650154 1_555
O19 Si4 1.646709 1_555
O20 P5 1.547572 1_555
O21 Si2 1.646709 1_555
O22 Si3 1.650154 1_555
O23 P4 1.547572 1_555
O24 Si6 1.616787 1_555
O25 Si7 1.627477 1_555
O26 Si8 1.622851 1_555
O27 Si9 1.627477 1_555
O28 Si10 1.616787 1_555
O29 Si11 1.622851 1_555
O30 Si11 1.661343 1_555
O31 Si9 1.652161 1_555
O32 Si10 1.651539 1_555
O33 Si7 1.652161 1_555
O34 Si8 1.661343 1_555
O35 Si6 1.651539 1_555
O36 Si11 1.626307 1_555
O37 Si9 1.639337 1_555
O38 Si10 1.629779 1_555
O39 Si7 1.639336 1_555
O40 Si8 1.626307 1_555
O41 Si6 1.629779 1_555
O42 P4 1.590463 1_555
O43 Si2 1.650904 1_555
O44 Si3 1.690132 1_555
O45 Si4 1.650904 1_555
O46 P5 1.590463 1_555
O47 Si5 1.690132 1_555
O48 Si1 1.592602 1_555
O48 Zn0 2.164278 1_555
O49 P2 1.519802 1_555
O49 Zn0 2.433184 1_555
O50 P3 1.503432 1_655
O50 Zn0 2.342911 1_555
O51 P1 1.519802 1_555
O51 Zn1 2.433184 1_555
O52 Si0 1.592602 1_555
O52 Zn1 2.164278 1_555
O53 P0 1.503432 1_545
O53 Zn1 2.342911 1_555
O54 Si6 1.625272 1_555
O55 Si7 1.615532 1_655
O56 Si8 1.617809 1_545
O57 Si9 1.615532 1_545
O58 Si10 1.625273 1_555
O59 Si11 1.617809 1_655
O60 Si5 1.654589 1_555
O61 Si4 1.655953 1_455
O62 P5 1.548033 1_565
O63 Si2 1.655953 1_565
O64 Si3 1.654589 1_555
O65 P4 1.548033 1_455
O66 P0 1.563286 1_555
O67 P1 1.561783 1_555
O68 Si0 1.680027 1_455
O69 P2 1.561783 1_555
O70 P3 1.563286 1_555
O71 Si1 1.680027 1_565
