# generated using pymatgen
data_H11NF8
_symmetry_space_group_name_H-M   'P 1'
_cell_length_a   7.49266945
_cell_length_b   6.73035456
_cell_length_c   13.93661080
_cell_angle_alpha   74.62693837
_cell_angle_beta   90.00000000
_cell_angle_gamma   90.00000000
_symmetry_Int_Tables_number   1
_chemical_formula_structural   H11NF8
_chemical_formula_sum   'H44 N4 F32'
_cell_volume   677.65382423
_cell_formula_units_Z   4
loop_
 _symmetry_equiv_pos_site_id
 _symmetry_equiv_pos_as_xyz
  1  'x, y, z'
loop_
 _atom_site_type_symbol
 _atom_site_label
 _atom_site_symmetry_multiplicity
 _atom_site_fract_x
 _atom_site_fract_y
 _atom_site_fract_z
 _atom_site_occupancy
  H  H0  1  0.47585070  0.94588713  0.15244276  1
  H  H1  1  0.97585070  0.05411287  0.34755724  1
  H  H2  1  0.52414930  0.05411287  0.84755724  1
  H  H3  1  0.02414930  0.94588713  0.65244276  1
  H  H4  1  0.62001950  0.76359570  0.20875266  1
  H  H5  1  0.12001950  0.23640430  0.29124734  1
  H  H6  1  0.37998050  0.23640430  0.79124734  1
  H  H7  1  0.87998050  0.76359570  0.70875266  1
  H  H8  1  0.66914548  0.01125722  0.19538812  1
  H  H9  1  0.16914548  0.98874278  0.30461188  1
  H  H10  1  0.33085452  0.98874278  0.80461188  1
  H  H11  1  0.83085452  0.01125722  0.69538812  1
  H  H12  1  0.66553434  0.91441119  0.09573365  1
  H  H13  1  0.16553434  0.08558881  0.40426635  1
  H  H14  1  0.33446566  0.08558881  0.90426635  1
  H  H15  1  0.83446566  0.91441119  0.59573365  1
  H  H16  1  0.59210254  0.62790412  0.84641654  1
  H  H17  1  0.09210254  0.37209588  0.65358346  1
  H  H18  1  0.40789746  0.37209588  0.15358346  1
  H  H19  1  0.99503895  0.56784722  0.16487124  1
  H  H20  1  0.90789746  0.62790412  0.34641654  1
  H  H21  1  0.16373278  0.61596738  0.54091393  1
  H  H22  1  0.33626722  0.61596738  0.04091393  1
  H  H23  1  0.83626722  0.38403262  0.45908607  1
  H  H24  1  0.17196371  0.04600113  0.06034394  1
  H  H25  1  0.67196371  0.95399887  0.43965606  1
  H  H26  1  0.82803629  0.95399887  0.93965606  1
  H  H27  1  0.32803629  0.04600113  0.56034394  1
  H  H28  1  0.92116304  0.20152424  0.06348809  1
  H  H29  1  0.42116304  0.79847576  0.43651191  1
  H  H30  1  0.07883696  0.79847576  0.93651191  1
  H  H31  1  0.57883696  0.20152424  0.56348809  1
  H  H32  1  0.82882732  0.50945375  0.06763354  1
  H  H33  1  0.32882732  0.49054625  0.43236646  1
  H  H34  1  0.17117268  0.49054625  0.93236646  1
  H  H35  1  0.67117268  0.50945375  0.56763354  1
  H  H36  1  0.29841810  0.68814497  0.73795187  1
  H  H37  1  0.79841810  0.31185503  0.76204813  1
  H  H38  1  0.70158190  0.31185503  0.26204813  1
  H  H39  1  0.20158190  0.68814497  0.23795187  1
  H  H40  1  0.50496105  0.56784722  0.66487124  1
  H  H41  1  0.00496105  0.43215278  0.83512876  1
  H  H42  1  0.49503895  0.43215278  0.33512876  1
  H  H43  1  0.66373278  0.38403262  0.95908607  1
  N  N0  1  0.60793307  0.90904929  0.16306530  1
  N  N1  1  0.10793307  0.09095071  0.33693470  1
  N  N2  1  0.39206693  0.09095071  0.83693470  1
  N  N3  1  0.89206693  0.90904929  0.66306530  1
  F  F0  1  0.61075959  0.76479751  0.80437020  1
  F  F1  1  0.11075959  0.23520249  0.69562980  1
  F  F2  1  0.38924041  0.23520249  0.19562980  1
  F  F3  1  0.88924041  0.76479751  0.30437020  1
  F  F4  1  0.55994458  0.41393138  0.91380228  1
  F  F5  1  0.05994458  0.58606862  0.58619772  1
  F  F6  1  0.44005542  0.58606862  0.08619772  1
  F  F7  1  0.94005542  0.41393138  0.41380228  1
  F  F8  1  0.28771241  0.00813636  0.03946618  1
  F  F9  1  0.78771241  0.99186364  0.46053382  1
  F  F10  1  0.71228759  0.99186364  0.96053382  1
  F  F11  1  0.21228759  0.00813636  0.53946618  1
  F  F12  1  -0.00484907  0.08127405  0.09862584  1
  F  F13  1  0.49515093  0.91872595  0.40137416  1
  F  F14  1  0.00484907  0.91872595  0.90137416  1
  F  F15  1  0.50484907  0.08127405  0.59862584  1
  F  F16  1  0.81402605  0.36872392  0.02122015  1
  F  F17  1  0.31402605  0.63127608  0.47877985  1
  F  F18  1  0.18597395  0.63127608  0.97877985  1
  F  F19  1  0.68597395  0.36872392  0.52122015  1
  F  F20  1  0.84969721  0.62140818  0.10496475  1
  F  F21  1  0.34969721  0.37859182  0.39503525  1
  F  F22  1  0.15030279  0.37859182  0.89503525  1
  F  F23  1  0.65030279  0.62140818  0.60496475  1
  F  F24  1  0.10339963  0.52254631  0.20701629  1
  F  F25  1  0.60339963  0.47745369  0.29298371  1
  F  F26  1  0.89660037  0.47745369  0.79298371  1
  F  F27  1  0.39660037  0.52254631  0.70701629  1
  F  F28  1  0.27593513  0.78603655  0.25890018  1
  F  F29  1  0.77593513  0.21396345  0.24109982  1
  F  F30  1  0.72406487  0.21396345  0.74109982  1
  F  F31  1  0.22406487  0.78603655  0.75890018  1
loop_
_geom_bond_atom_site_label_1
_geom_bond_atom_site_label_2
_geom_bond_distance
_geom_bond_site_symmetry_2
H0 N0 1.021436 1_555
H1 N1 1.021436 1_655
H2 N2 1.021436 1_555
H3 N3 1.021436 1_455
H4 N0 1.020530 1_555
H5 N1 1.020530 1_555
H6 N2 1.020530 1_555
H7 N3 1.020530 1_555
H8 N0 1.025074 1_545
H9 N1 1.025074 1_565
H10 N2 1.025074 1_565
H11 N3 1.025074 1_545
H12 N0 1.024775 1_555
H13 N1 1.024775 1_555
H14 N2 1.024775 1_555
H15 N3 1.024775 1_555
F0 H16 0.962047 1_555
F1 H17 0.962047 1_555
F2 H18 0.962047 1_555
F3 H20 0.962047 1_555
F4 H43 0.988023 1_555
F4 H16 1.515541 1_555
F5 H21 0.988023 1_555
F5 H17 1.515541 1_555
F6 H22 0.988023 1_555
F6 H18 1.515541 1_555
F7 H23 0.988023 1_555
F7 H20 1.515541 1_555
F8 H24 0.970089 1_555
F9 H25 0.970089 1_555
F10 H26 0.970089 1_555
F11 H27 0.970089 1_555
F12 H28 0.995994 1_455
F12 H24 1.470799 1_555
F13 H29 0.995994 1_555
F13 H25 1.470799 1_555
F14 H30 0.995994 1_555
F14 H26 1.470799 1_455
F15 H31 0.995994 1_555
F15 H27 1.470799 1_555
F16 H32 1.285559 1_555
F16 H28 1.380674 1_555
F16 H43 1.407571 1_554
F17 H33 1.285559 1_555
F17 H29 1.380674 1_555
F17 H21 1.407571 1_555
F18 H34 1.285559 1_555
F18 H30 1.380674 1_555
F18 H22 1.407571 1_556
F19 H35 1.285559 1_555
F19 H31 1.380674 1_555
F19 H23 1.407571 1_555
F20 H32 1.034764 1_555
F20 H19 1.361374 1_555
F21 H33 1.034764 1_555
F21 H42 1.361374 1_555
F22 H34 1.034764 1_555
F22 H41 1.361374 1_555
F23 H35 1.034764 1_555
F23 H40 1.361374 1_555
F24 H19 1.001099 1_455
F24 H39 1.491316 1_555
F25 H42 1.001099 1_555
F25 H38 1.491316 1_555
F26 H41 1.001099 1_655
F26 H37 1.491316 1_555
F27 H40 1.001099 1_555
F27 H36 1.491316 1_555
F28 H39 0.965225 1_555
F29 H38 0.965225 1_555
F30 H37 0.965225 1_555
F31 H36 0.965225 1_555
