# generated using pymatgen
data_Na2Ca5Hf3(SO4)12
_symmetry_space_group_name_H-M   'P 1'
_cell_length_a   18.12228492
_cell_length_b   9.06353946
_cell_length_c   23.84064831
_cell_angle_alpha   90.08448523
_cell_angle_beta   90.06933420
_cell_angle_gamma   120.05477959
_symmetry_Int_Tables_number   1
_chemical_formula_structural   Na2Ca5Hf3(SO4)12
_chemical_formula_sum   'Na6 Ca15 Hf9 S36 O144'
_cell_volume   3389.36164629
_cell_formula_units_Z   3
loop_
 _symmetry_equiv_pos_site_id
 _symmetry_equiv_pos_as_xyz
  1  'x, y, z'
loop_
 _atom_site_type_symbol
 _atom_site_label
 _atom_site_symmetry_multiplicity
 _atom_site_fract_x
 _atom_site_fract_y
 _atom_site_fract_z
 _atom_site_occupancy
  Na  Na0  1  0.00077185  0.00069090  0.50231292  1
  Na  Na1  1  0.50523654  0.00888932  0.99654027  1
  Na  Na2  1  0.33541109  0.33694171  0.82642943  1
  Na  Na3  1  0.83117545  0.32979229  0.82844012  1
  Na  Na4  1  0.33109994  0.33442917  0.34252230  1
  Na  Na5  1  0.83522252  0.33107485  0.33299351  1
  Ca  Ca0  1  0.00305115  0.00220709  0.35672969  1
  Ca  Ca1  1  0.50088918  0.00046386  0.85547533  1
  Ca  Ca2  1  0.99985475  0.99913877  0.64796898  1
  Ca  Ca3  1  0.50303048  0.00412853  0.14742467  1
  Ca  Ca4  1  0.32773079  0.32810978  0.68033295  1
  Ca  Ca5  1  0.83889740  0.33912069  0.68219090  1
  Ca  Ca6  1  0.82738894  0.32711192  0.18096865  1
  Ca  Ca7  1  0.32842905  0.32923101  0.98115674  1
  Ca  Ca8  1  0.83846129  0.33791847  0.98425316  1
  Ca  Ca9  1  0.33867274  0.34064243  0.48701826  1
  Ca  Ca10  1  0.82862987  0.32657863  0.48524523  1
  Ca  Ca11  1  0.16111057  0.66042482  0.30784857  1
  Ca  Ca12  1  0.67295409  0.66943125  0.30869883  1
  Ca  Ca13  1  0.17332879  0.67597911  0.80710258  1
  Ca  Ca14  1  0.66034560  0.65830667  0.80607009  1
  Hf  Hf0  1  0.49852468  0.99708188  0.35513771  1
  Hf  Hf1  1  0.99892468  0.99918341  0.85449652  1
  Hf  Hf2  1  0.50038267  0.00081858  0.64904829  1
  Hf  Hf3  1  0.99795914  0.99834762  0.14836983  1
  Hf  Hf4  1  0.33751336  0.33741763  0.18278849  1
  Hf  Hf5  1  0.16378449  0.66632542  0.01772586  1
  Hf  Hf6  1  0.66988317  0.66899476  0.01693699  1
  Hf  Hf7  1  0.16902946  0.66766920  0.51809172  1
  Hf  Hf8  1  0.66380504  0.66523732  0.51845168  1
  S  S0  1  0.15026380  0.01511390  0.24443810  1
  S  S1  1  0.64471256  0.00921961  0.25496309  1
  S  S2  1  0.35845317  0.70057568  0.25050125  1
  S  S3  1  0.85911756  0.71050787  0.24850147  1
  S  S4  1  0.99640677  0.28265374  0.24807466  1
  S  S5  1  0.49133052  0.28215227  0.25118279  1
  S  S6  1  0.14554316  0.28133602  0.75490671  1
  S  S7  1  0.64551505  0.28353078  0.74833600  1
  S  S8  1  0.99558848  0.70850048  0.75471025  1
  S  S9  1  0.49581820  0.70940558  0.74819405  1
  S  S10  1  0.35904753  0.00812518  0.74845061  1
  S  S11  1  0.85817667  0.00868128  0.75450574  1
  S  S12  1  0.48718994  0.33204978  0.58325520  1
  S  S13  1  0.98835666  0.33968432  0.57904753  1
  S  S14  1  0.18203284  0.02559996  0.57830451  1
  S  S15  1  0.67862120  0.02349445  0.58383348  1
  S  S16  1  0.33400774  0.64357873  0.58348284  1
  S  S17  1  0.82987769  0.63563405  0.57883700  1
  S  S18  1  0.48294057  0.62162243  0.08175933  1
  S  S19  1  0.98709004  0.64159859  0.08353873  1
  S  S20  1  0.32832397  0.03519457  0.08199595  1
  S  S21  1  0.83311757  0.02496908  0.08317642  1
  S  S22  1  0.18564728  0.33684395  0.08612661  1
  S  S23  1  0.68211393  0.33840553  0.07825953  1
  S  S24  1  0.31086517  0.67139854  0.92049315  1
  S  S25  1  0.81315555  0.67250829  0.91473967  1
  S  S26  1  0.02480294  0.37455126  0.91568974  1
  S  S27  1  0.52276555  0.37741708  0.91950611  1
  S  S28  1  0.16169690  0.95024102  0.91542831  1
  S  S29  1  0.66632522  0.95458621  0.91975870  1
  S  S30  1  0.31378958  0.95611684  0.41355657  1
  S  S31  1  0.81061556  0.95263229  0.41964774  1
  S  S32  1  0.16810576  0.37876840  0.41886298  1
  S  S33  1  0.66209806  0.37100563  0.41446600  1
  S  S34  1  0.02249037  0.66678045  0.41911087  1
  S  S35  1  0.52257131  0.67280372  0.41417750  1
  O  O0  1  0.12103953  0.05420007  0.29673867  1
  O  O1  1  0.59187543  0.02131911  0.30371143  1
  O  O2  1  0.41409837  0.78340981  0.30137155  1
  O  O3  1  0.90858741  0.79153637  0.29951490  1
  O  O4  1  0.47590401  0.16693054  0.30105755  1
  O  O5  1  0.98814660  0.18602946  0.29938426  1
  O  O6  1  0.09466363  0.16964954  0.80510960  1
  O  O7  1  0.60668033  0.18721133  0.79992158  1
  O  O8  1  0.48668093  0.78670734  0.80008929  1
  O  O9  1  0.99034000  0.81061066  0.80499228  1
  O  O10  1  0.40653656  0.02535415  0.80036403  1
  O  O11  1  0.91484318  0.02008797  0.80490286  1
  O  O12  1  0.40949297  0.00366351  0.69806493  1
  O  O13  1  0.89751679  0.99585169  0.70247664  1
  O  O14  1  0.10070061  0.20320852  0.70249403  1
  O  O15  1  0.59212192  0.18203187  0.69796556  1
  O  O16  1  0.00171848  0.79874249  0.70251174  1
  O  O17  1  0.49823161  0.81559574  0.69798105  1
  O  O18  1  0.39652304  0.80028583  0.20014565  1
  O  O19  1  0.90973228  0.81639602  0.19755634  1
  O  O20  1  0.99936027  0.18112275  0.19741884  1
  O  O21  1  0.50280770  0.20806073  0.20008487  1
  O  O22  1  0.09371048  0.99870986  0.19650283  1
  O  O23  1  0.59988800  0.99597732  0.20257944  1
  O  O24  1  0.45322854  0.37827208  0.63148242  1
  O  O25  1  0.95474418  0.37170695  0.63082877  1
  O  O26  1  0.23137581  0.09183152  0.63019938  1
  O  O27  1  0.73572407  0.09255195  0.63217539  1
  O  O28  1  0.31059994  0.53022926  0.63198399  1
  O  O29  1  0.81415715  0.53564105  0.63016534  1
  O  O30  1  0.43806102  0.50935740  0.13338375  1
  O  O31  1  0.95347207  0.52890336  0.13224432  1
  O  O32  1  0.31733843  0.12581018  0.13284221  1
  O  O33  1  0.81065188  0.09099253  0.13249355  1
  O  O34  1  0.24720530  0.37150112  0.13435522  1
  O  O35  1  0.73036410  0.36972405  0.13080557  1
  O  O36  1  0.21512875  0.29002103  0.03654312  1
  O  O37  1  0.72479922  0.31140201  0.03055684  1
  O  O38  1  0.42845735  0.54245162  0.03314055  1
  O  O39  1  0.93235051  0.57842303  0.03420946  1
  O  O40  1  0.34333215  0.14020093  0.03252391  1
  O  O41  1  0.85612770  0.13688319  0.03464371  1
  O  O42  1  0.22432640  0.13676147  0.53004752  1
  O  O43  1  0.71075902  0.13213372  0.53422890  1
  O  O44  1  0.35698558  0.57742512  0.53439339  1
  O  O45  1  0.84227102  0.55293230  0.52988955  1
  O  O46  1  0.43248689  0.28665945  0.53346179  1
  O  O47  1  0.93296205  0.31380802  0.53082670  1
  O  O48  1  0.25866625  0.67527666  0.97120839  1
  O  O49  1  0.77072641  0.69404159  0.96677101  1
  O  O50  1  0.07761362  0.46126856  0.96884164  1
  O  O51  1  0.57702587  0.48270728  0.96930297  1
  O  O52  1  0.15191306  0.84100556  0.96713994  1
  O  O53  1  0.66457610  0.85016993  0.97093005  1
  O  O54  1  0.27466850  0.85236567  0.46477979  1
  O  O55  1  0.75774409  0.84412813  0.46906170  1
  O  O56  1  0.16750715  0.48061612  0.46896978  1
  O  O57  1  0.64935938  0.45441580  0.46507531  1
  O  O58  1  0.07771811  0.67222010  0.46781209  1
  O  O59  1  0.57366541  0.69500943  0.46628943  1
  O  O60  1  0.06203552  0.65747202  0.36647105  1
  O  O61  1  0.56257914  0.64776374  0.36528457  1
  O  O62  1  0.26166237  0.87777990  0.36370151  1
  O  O63  1  0.76553757  0.87194815  0.36774196  1
  O  O64  1  0.17246454  0.47002705  0.36721410  1
  O  O65  1  0.67556758  0.47344902  0.36455634  1
  O  O66  1  0.06522082  0.48134370  0.86725418  1
  O  O67  1  0.56248436  0.46636853  0.86768146  1
  O  O68  1  0.17606909  0.87472958  0.86620948  1
  O  O69  1  0.67027901  0.87022663  0.86871367  1
  O  O70  1  0.26551863  0.66098158  0.86908797  1
  O  O71  1  0.76017235  0.64575498  0.86570735  1
  O  O72  1  0.01920939  0.82675939  0.42264398  1
  O  O73  1  0.51730609  0.83472679  0.40727398  1
  O  O74  1  0.39899264  0.96306078  0.40538768  1
  O  O75  1  0.89419971  0.96139741  0.42344484  1
  O  O76  1  0.08839957  0.21186505  0.42243075  1
  O  O77  1  0.58045161  0.19974679  0.40638345  1
  O  O78  1  0.02108193  0.20615677  0.91049689  1
  O  O79  1  0.51927150  0.21123788  0.92393952  1
  O  O80  1  0.08138259  0.95749979  0.91059576  1
  O  O81  1  0.58650901  0.96125015  0.92403631  1
  O  O82  1  0.39404713  0.82952572  0.92514389  1
  O  O83  1  0.89763622  0.83484516  0.90920233  1
  O  O84  1  0.50262818  0.18881368  0.59657581  1
  O  O85  1  0.00280724  0.19375577  0.58352054  1
  O  O86  1  0.09411634  0.99378187  0.58265967  1
  O  O87  1  0.59186097  0.99542623  0.59716983  1
  O  O88  1  0.40649889  0.81713013  0.59699972  1
  O  O89  1  0.90236621  0.81117093  0.58342573  1
  O  O90  1  0.49492964  0.79215407  0.09090686  1
  O  O91  1  0.00343887  0.81739377  0.09706295  1
  O  O92  1  0.39959431  0.00536466  0.09140656  1
  O  O93  1  0.90673923  0.99681358  0.09628415  1
  O  O94  1  0.10020349  0.19361810  0.10230779  1
  O  O95  1  0.59380701  0.19321364  0.08200707  1
  O  O96  1  0.34923929  0.15994569  0.74272088  1
  O  O97  1  0.85476836  0.16839283  0.75636659  1
  O  O98  1  0.22937638  0.29009484  0.75704295  1
  O  O99  1  0.73095674  0.30246817  0.74182918  1
  O  O100  1  0.41981524  0.53765261  0.74200533  1
  O  O101  1  0.91593449  0.54151088  0.75665067  1
  O  O102  1  0.35329687  0.52632763  0.24299972  1
  O  O103  1  0.84951589  0.54011460  0.24234706  1
  O  O104  1  0.40955844  0.29314392  0.24378129  1
  O  O105  1  0.92052880  0.30126980  0.24174839  1
  O  O106  1  0.23696176  0.17114127  0.23109085  1
  O  O107  1  0.72820395  0.16794280  0.25758883  1
  O  O108  1  0.31854484  0.51802168  0.92573534  1
  O  O109  1  0.82851438  0.52908988  0.92287003  1
  O  O110  1  0.43736067  0.35873671  0.92471916  1
  O  O111  1  0.93844826  0.34650885  0.92383982  1
  O  O112  1  0.23409150  0.12315705  0.92403644  1
  O  O113  1  0.74269727  0.12465721  0.92493595  1
  O  O114  1  0.33122841  0.13258355  0.42044334  1
  O  O115  1  0.81880311  0.12213686  0.42447564  1
  O  O116  1  0.24439390  0.35943126  0.42310858  1
  O  O117  1  0.73353806  0.33994352  0.42214574  1
  O  O118  1  0.43499080  0.52860454  0.42098252  1
  O  O119  1  0.93694146  0.51506396  0.42381429  1
  O  O120  1  0.17743880  0.49120473  0.07686399  1
  O  O121  1  0.67570511  0.49575512  0.06722678  1
  O  O122  1  0.07357503  0.66426137  0.06949736  1
  O  O123  1  0.56680618  0.63088376  0.07558516  1
  O  O124  1  0.24767064  0.86710527  0.07434413  1
  O  O125  1  0.75926096  0.85188321  0.07015815  1
  O  O126  1  0.17597542  0.85575278  0.56660818  1
  O  O127  1  0.66483565  0.84781669  0.56990723  1
  O  O128  1  0.26043000  0.66890290  0.56944952  1
  O  O129  1  0.75058015  0.65071470  0.56702561  1
  O  O130  1  0.07516828  0.49652042  0.56816766  1
  O  O131  1  0.57342728  0.48138684  0.56858673  1
  O  O132  1  0.15959555  0.86532313  0.24661076  1
  O  O133  1  0.65087460  0.85738739  0.26317383  1
  O  O134  1  0.27306884  0.67077571  0.26018892  1
  O  O135  1  0.77755677  0.70615287  0.24693654  1
  O  O136  1  0.07610458  0.44635723  0.24655389  1
  O  O137  1  0.56165789  0.45226901  0.26132832  1
  O  O138  1  0.15264975  0.44667982  0.76222305  1
  O  O139  1  0.64747897  0.44650523  0.74718445  1
  O  O140  1  0.07111027  0.69403256  0.76233994  1
  O  O141  1  0.57538523  0.70553202  0.74693403  1
  O  O142  1  0.27722961  0.84911507  0.74669373  1
  O  O143  1  0.77560193  0.85800554  0.76239889  1
loop_
_geom_bond_atom_site_label_1
_geom_bond_atom_site_label_2
_geom_bond_distance
_geom_bond_site_symmetry_2
Na0 O86 2.575522 1_545
Na0 O75 2.586996 1_445
Na0 O72 2.593197 1_545
Na0 O85 2.595531 1_555
Na0 O76 2.604925 1_555
Na0 O89 2.611544 1_445
Na1 O79 2.442796 1_555
Na1 O81 2.446326 1_545
Na1 O82 2.510518 1_545
Na1 O95 2.610589 1_556
Na1 O90 2.932859 1_546
Na1 O92 2.954801 1_556
Na2 O98 2.404624 1_555
Na2 O100 2.632701 1_555
Na2 O96 2.648286 1_555
Na2 O110 2.926789 1_555
Na2 O108 2.980764 1_555
Na2 O112 3.000140 1_555
Na3 O97 2.428183 1_555
Na3 O101 2.456531 1_555
Na3 O99 2.676270 1_555
Na3 O113 2.890611 1_555
Na3 O109 2.899817 1_555
Na3 O111 2.944199 1_555
Na4 O116 2.564015 1_555
Na4 O118 2.608402 1_555
Na4 O114 2.610005 1_555
Na4 O102 2.851352 1_555
Na4 O104 2.870826 1_555
Na5 O107 2.508112 1_555
Na5 O105 2.760390 1_555
Na5 O119 2.787062 1_555
Na5 O103 2.801577 1_555
Na5 O115 2.807270 1_555
Na5 O117 2.842020 1_555
Ca0 O3 2.269275 1_445
Ca0 O5 2.274747 1_455
Ca0 O76 2.344797 1_555
Ca0 O72 2.357223 1_545
Ca0 O75 2.415861 1_445
Ca0 O0 2.416546 1_555
Ca1 O8 2.248399 1_545
Ca1 O7 2.248768 1_555
Ca1 O10 2.254489 1_555
Ca1 O81 2.398654 1_545
Ca1 O79 2.403468 1_555
Ca1 O82 2.432826 1_545
Ca2 O14 2.247679 1_665
Ca2 O16 2.249280 1_655
Ca2 O13 2.253823 1_555
Ca2 O89 2.315667 1_555
Ca2 O85 2.321365 1_665
Ca2 O86 2.331098 1_655
Ca3 O23 2.222631 1_545
Ca3 O21 2.234549 1_555
Ca3 O18 2.271450 1_545
Ca3 O90 2.288586 1_545
Ca3 O95 2.294732 1_555
Ca3 O92 2.304881 1_555
Ca4 O96 2.299484 1_555
Ca4 O26 2.303369 1_555
Ca4 O28 2.314298 1_555
Ca4 O100 2.316210 1_555
Ca4 O24 2.389097 1_555
Ca4 O98 2.456595 1_555
Ca5 O99 2.305555 1_555
Ca5 O25 2.319562 1_555
Ca5 O27 2.390266 1_555
Ca5 O29 2.391038 1_555
Ca5 O101 2.425783 1_555
Ca5 O97 2.461103 1_555
Ca6 O103 2.289963 1_555
Ca6 O35 2.312474 1_555
Ca6 O33 2.312832 1_555
Ca6 O105 2.322639 1_555
Ca6 O31 2.396252 1_555
Ca6 O107 2.463157 1_555
Ca7 O40 2.230888 1_556
Ca7 O108 2.240286 1_555
Ca7 O38 2.243918 1_556
Ca7 O112 2.248153 1_555
Ca7 O110 2.292953 1_555
Ca7 O36 2.315772 1_556
Ca8 O37 2.242687 1_556
Ca8 O111 2.286735 1_555
Ca8 O39 2.310304 1_556
Ca8 O113 2.318137 1_555
Ca8 O41 2.335719 1_556
Ca8 O109 2.344350 1_555
Ca9 O42 2.221777 1_555
Ca9 O46 2.277293 1_555
Ca9 O44 2.295658 1_555
Ca9 O118 2.337427 1_555
Ca9 O116 2.357019 1_555
Ca9 O114 2.414385 1_555
Ca10 O45 2.210835 1_555
Ca10 O47 2.232441 1_555
Ca10 O115 2.285850 1_555
Ca10 O43 2.296490 1_555
Ca10 O117 2.334683 1_555
Ca10 O119 2.360446 1_555
Ca11 O60 2.266219 1_555
Ca11 O134 2.287283 1_555
Ca11 O136 2.294628 1_555
Ca11 O62 2.316283 1_555
Ca11 O64 2.320683 1_555
Ca11 O132 2.374871 1_555
Ca12 O133 2.219758 1_555
Ca12 O65 2.240964 1_555
Ca12 O63 2.251117 1_555
Ca12 O137 2.286703 1_555
Ca12 O135 2.290977 1_555
Ca12 O61 2.339510 1_555
Ca13 O138 2.194715 1_555
Ca13 O140 2.212799 1_555
Ca13 O142 2.266187 1_555
Ca13 O68 2.266248 1_555
Ca13 O70 2.283766 1_555
Ca13 O66 2.357803 1_555
Ca14 O143 2.224132 1_555
Ca14 O141 2.279936 1_555
Ca14 O67 2.291857 1_555
Ca14 O139 2.292000 1_555
Ca14 O71 2.346835 1_555
Ca14 O69 2.365725 1_555
Hf0 O1 2.011700 1_565
Hf0 O74 2.057421 1_555
Hf0 O77 2.080460 1_565
Hf0 O73 2.081393 1_555
Hf0 O2 2.180474 1_555
Hf0 O4 2.199294 1_565
Hf1 O11 2.010256 1_565
Hf1 O9 2.016314 1_555
Hf1 O6 2.027044 1_665
Hf1 O83 2.135846 1_555
Hf1 O78 2.167844 1_665
Hf1 O80 2.174084 1_655
Hf2 O15 2.018959 1_555
Hf2 O17 2.030041 1_545
Hf2 O12 2.031357 1_555
Hf2 O88 2.087532 1_545
Hf2 O87 2.089577 1_545
Hf2 O84 2.099247 1_555
Hf3 O19 2.005049 1_555
Hf3 O20 2.016040 1_565
Hf3 O93 2.060799 1_555
Hf3 O22 2.077815 1_655
Hf3 O91 2.086490 1_655
Hf3 O94 2.120707 1_665
Hf4 O106 2.043835 1_555
Hf4 O30 2.074224 1_555
Hf4 O104 2.121794 1_555
Hf4 O32 2.125978 1_555
Hf4 O102 2.138974 1_555
Hf4 O34 2.147097 1_555
Hf5 O48 2.014502 1_554
Hf5 O122 2.042219 1_555
Hf5 O50 2.081615 1_554
Hf5 O52 2.086501 1_554
Hf5 O124 2.159026 1_555
Hf5 O120 2.228772 1_555
Hf6 O53 2.017920 1_554
Hf6 O121 2.021185 1_555
Hf6 O51 2.028781 1_554
Hf6 O125 2.068968 1_555
Hf6 O49 2.100536 1_554
Hf6 O123 2.219264 1_555
Hf7 O126 2.009633 1_555
Hf7 O130 2.022939 1_555
Hf7 O56 2.047854 1_555
Hf7 O128 2.054119 1_555
Hf7 O58 2.059262 1_555
Hf7 O54 2.210164 1_555
Hf8 O129 2.008656 1_555
Hf8 O55 2.039407 1_555
Hf8 O131 2.040770 1_555
Hf8 O127 2.051009 1_555
Hf8 O59 2.173786 1_555
Hf8 O57 2.197714 1_555
O0 S0 1.465920 1_555
O1 S1 1.545017 1_555
O2 S2 1.512419 1_555
O3 S3 1.468822 1_555
O4 S5 1.514799 1_555
O5 S4 1.469014 1_555
O6 S6 1.542306 1_555
O7 S7 1.469613 1_555
O8 S9 1.470765 1_555
O9 S8 1.545235 1_555
O10 S10 1.469371 1_555
O11 S11 1.548926 1_555
O12 S10 1.523110 1_555
O13 S11 1.464636 1_565
O14 S6 1.463467 1_555
O15 S7 1.525431 1_555
O16 S8 1.463657 1_455
O17 S9 1.524032 1_555
O18 S2 1.454168 1_555
O19 S3 1.536866 1_555
O20 S4 1.534394 1_555
O21 S5 1.454768 1_555
O22 S0 1.490812 1_565
O23 S1 1.460606 1_565
O24 S12 1.461103 1_555
O25 S13 1.468714 1_555
O26 S14 1.465639 1_555
O27 S15 1.461885 1_555
O28 S16 1.463073 1_555
O29 S17 1.464739 1_555
O30 S18 1.545568 1_555
O31 S19 1.464473 1_555
O32 S20 1.531352 1_555
O33 S21 1.466067 1_555
O34 S22 1.519883 1_555
O35 S23 1.470434 1_555
O36 S22 1.445708 1_555
O37 S23 1.463763 1_555
O38 S18 1.455476 1_555
O39 S19 1.456450 1_555
O40 S20 1.454531 1_555
O41 S21 1.456876 1_555
O42 S14 1.469082 1_555
O43 S15 1.462184 1_555
O44 S16 1.466887 1_555
O45 S17 1.463123 1_555
O46 S12 1.465754 1_555
O47 S13 1.464572 1_555
O48 S24 1.547228 1_555
O49 S25 1.523145 1_555
O50 S26 1.542756 1_555
O51 S27 1.530008 1_555
O52 S28 1.536178 1_555
O53 S29 1.535705 1_555
O54 S30 1.488594 1_555
O55 S31 1.528179 1_555
O56 S32 1.511972 1_555
O57 S33 1.501132 1_555
O58 S34 1.516512 1_555
O59 S35 1.500400 1_555
O60 S34 1.469038 1_555
O61 S35 1.449820 1_555
O62 S30 1.460199 1_555
O63 S31 1.459435 1_555
O64 S32 1.464369 1_555
O65 S33 1.454114 1_555
O66 S26 1.449823 1_555
O67 S27 1.455490 1_555
O68 S28 1.445702 1_555
O69 S29 1.457067 1_555
O70 S24 1.451095 1_555
O71 S25 1.452738 1_555
O72 S34 1.482925 1_555
O73 S35 1.526752 1_555
O74 S30 1.526263 1_555
O75 S31 1.479204 1_555
O76 S32 1.481229 1_555
O77 S33 1.527648 1_555
O78 S26 1.498548 1_555
O79 S27 1.479423 1_555
O80 S28 1.493838 1_555
O81 S29 1.481256 1_555
O82 S24 1.474388 1_555
O83 S25 1.506958 1_555
O84 S12 1.493095 1_555
O85 S13 1.475327 1_455
O86 S14 1.473989 1_565
O87 S15 1.496233 1_565
O88 S16 1.493847 1_555
O89 S17 1.474642 1_555
O90 S18 1.465001 1_555
O91 S19 1.501943 1_455
O92 S20 1.463171 1_555
O93 S21 1.510995 1_565
O94 S22 1.490350 1_555
O95 S23 1.480542 1_555
O96 S10 1.479595 1_555
O97 S11 1.480056 1_555
O98 S6 1.481894 1_555
O99 S7 1.478349 1_555
O100 S9 1.480985 1_555
O101 S8 1.479382 1_555
O102 S2 1.544741 1_555
O103 S3 1.472064 1_555
O104 S5 1.544142 1_555
O105 S4 1.474462 1_555
O106 S0 1.531876 1_555
O107 S1 1.477172 1_555
O108 S24 1.470282 1_555
O109 S25 1.472326 1_555
O110 S27 1.475680 1_555
O111 S26 1.467608 1_655
O112 S28 1.469155 1_545
O113 S29 1.472726 1_545
O114 S30 1.475721 1_545
O115 S31 1.471945 1_545
O116 S32 1.481462 1_555
O117 S33 1.467510 1_555
O118 S35 1.475464 1_555
O119 S34 1.473937 1_655
O120 S22 1.495842 1_555
O121 S23 1.511126 1_555
O122 S19 1.513178 1_455
O123 S18 1.487080 1_555
O124 S20 1.502901 1_565
O125 S21 1.497724 1_565
O126 S14 1.512945 1_565
O127 S15 1.519124 1_565
O128 S16 1.499422 1_555
O129 S17 1.535896 1_555
O130 S13 1.524795 1_455
O131 S12 1.510173 1_555
O132 S0 1.450728 1_565
O133 S1 1.448866 1_565
O134 S2 1.450186 1_555
O135 S3 1.459129 1_555
O136 S4 1.463753 1_455
O137 S5 1.445676 1_555
O138 S6 1.448678 1_555
O139 S7 1.459926 1_555
O140 S8 1.450054 1_455
O141 S9 1.460180 1_555
O142 S10 1.461681 1_565
O143 S11 1.447134 1_565
