# generated using pymatgen
data_Na2CaSiGe(SO6)2
_symmetry_space_group_name_H-M   'P 1'
_cell_length_a   9.21692535
_cell_length_b   9.20320147
_cell_length_c   22.61824473
_cell_angle_alpha   92.40474527
_cell_angle_beta   90.00000000
_cell_angle_gamma   120.04934104
_symmetry_Int_Tables_number   1
_chemical_formula_structural   Na2CaSiGe(SO6)2
_chemical_formula_sum   'Na12 Ca6 Si6 Ge6 S12 O72'
_cell_volume   1658.77529990
_cell_formula_units_Z   6
loop_
 _symmetry_equiv_pos_site_id
 _symmetry_equiv_pos_as_xyz
  1  'x, y, z'
loop_
 _atom_site_type_symbol
 _atom_site_label
 _atom_site_symmetry_multiplicity
 _atom_site_fract_x
 _atom_site_fract_y
 _atom_site_fract_z
 _atom_site_occupancy
  Na  Na0  1  0.00726873  0.63349934  0.24325475  1
  Na  Na1  1  0.62623060  0.63349934  0.74325475  1
  Na  Na2  1  0.65261982  0.96295254  0.57786384  1
  Na  Na3  1  0.31033372  0.96295254  0.07786384  1
  Na  Na4  1  0.69060578  0.02075024  0.90995424  1
  Na  Na5  1  0.33014346  0.02075024  0.40995424  1
  Na  Na6  1  0.98950108  0.00112968  0.50194116  1
  Na  Na7  1  0.01162861  0.00112968  0.00194116  1
  Na  Na8  1  0.66161118  0.30779993  0.83311766  1
  Na  Na9  1  0.64618975  0.30779993  0.33311766  1
  Na  Na10  1  0.32322647  0.63805975  0.16474971  1
  Na  Na11  1  0.31483228  0.63805975  0.66474971  1
  Ca  Ca0  1  0.99926493  0.01561752  0.35699399  1
  Ca  Ca1  1  0.01635259  0.01561752  0.85699399  1
  Ca  Ca2  1  0.66153590  0.32244739  0.68686915  1
  Ca  Ca3  1  0.66091249  0.32244739  0.18686915  1
  Ca  Ca4  1  0.32967274  0.66017390  0.01931673  1
  Ca  Ca5  1  0.33050017  0.66017390  0.51931673  1
  Si  Si0  1  0.29146506  0.99427145  0.25645869  1
  Si  Si1  1  0.70280639  0.99427145  0.75645869  1
  Si  Si2  1  0.68110392  0.63086641  0.58882065  1
  Si  Si3  1  0.94976350  0.63086641  0.08882065  1
  Si  Si4  1  0.35157309  0.98919591  0.92834219  1
  Si  Si5  1  0.63762182  0.98919591  0.42834219  1
  Ge  Ge0  1  0.97361184  0.96171481  0.65660563  1
  Ge  Ge1  1  0.98810297  0.96171481  0.15660563  1
  Ge  Ge2  1  0.67356541  0.35642499  0.97961708  1
  Ge  Ge3  1  0.68286058  0.35642499  0.47961708  1
  Ge  Ge4  1  0.37074289  0.73099281  0.31345175  1
  Ge  Ge5  1  0.36024892  0.73099281  0.81345175  1
  S  S0  1  0.69533371  0.71597770  0.24968106  1
  S  S1  1  0.02034446  0.29766983  0.24618774  1
  S  S2  1  0.27732537  0.29766983  0.74618774  1
  S  S3  1  0.02064399  0.71597770  0.74968106  1
  S  S4  1  0.94732069  0.31797090  0.57984613  1
  S  S5  1  0.35138635  0.04401236  0.57818714  1
  S  S6  1  0.69262701  0.04401236  0.07818714  1
  S  S7  1  0.37065121  0.31797090  0.07984613  1
  S  S8  1  0.63064918  0.65005046  0.91486098  1
  S  S9  1  0.01383089  0.37704777  0.91808738  1
  S  S10  1  0.36321588  0.37704777  0.41808738  1
  S  S11  1  0.01940028  0.65005046  0.41486098  1
  O  O0  1  0.20341506  0.98758850  0.31724540  1
  O  O1  1  0.79372303  0.80670687  0.30232624  1
  O  O2  1  0.01044160  0.21091575  0.29938680  1
  O  O3  1  0.20047415  0.21091575  0.79938680  1
  O  O4  1  0.01298384  0.80670687  0.80232624  1
  O  O5  1  0.78417345  0.98758850  0.81724540  1
  O  O6  1  0.79693767  0.95083103  0.69628105  1
  O  O7  1  0.17060888  0.19558899  0.68985086  1
  O  O8  1  0.04088369  0.81484035  0.69361194  1
  O  O9  1  0.77395666  0.81484035  0.19361194  1
  O  O10  1  0.02498012  0.19558899  0.18985086  1
  O  O11  1  0.15389336  0.95083103  0.19628105  1
  O  O12  1  0.87111622  0.33702692  0.63394215  1
  O  O13  1  0.46303120  0.12924668  0.62971349  1
  O  O14  1  0.66482447  0.54794408  0.65083511  1
  O  O15  1  0.88312061  0.54794408  0.15083511  1
  O  O16  1  0.66621647  0.12924668  0.12971349  1
  O  O17  1  0.46591170  0.33702692  0.13394215  1
  O  O18  1  0.46065671  0.29950547  0.02500248  1
  O  O19  1  0.81691470  0.52096294  0.03020747  1
  O  O20  1  0.70373451  0.13392900  0.02281056  1
  O  O21  1  0.43019549  0.13392900  0.52281056  1
  O  O22  1  0.70404923  0.52096294  0.53020747  1
  O  O23  1  0.83884976  0.29950547  0.52500248  1
  O  O24  1  0.53640452  0.66413291  0.96422764  1
  O  O25  1  0.10769736  0.46196808  0.97226079  1
  O  O26  1  0.34153365  0.88501293  0.98407509  1
  O  O27  1  0.54347828  0.88501293  0.48407509  1
  O  O28  1  0.35426971  0.46196808  0.47226079  1
  O  O29  1  0.12772739  0.66413291  0.46422764  1
  O  O30  1  0.08477503  0.62728438  0.35645607  1
  O  O31  1  0.50133774  0.90039759  0.36532345  1
  O  O32  1  0.37348764  0.46177717  0.36337874  1
  O  O33  1  0.08828853  0.46177717  0.86337874  1
  O  O34  1  0.39905885  0.90039759  0.86532345  1
  O  O35  1  0.54250834  0.62728438  0.85645607  1
  O  O36  1  0.99765378  0.79893055  0.41653806  1
  O  O37  1  0.81985977  0.01351770  0.42151632  1
  O  O38  1  0.22152956  0.20059443  0.41712923  1
  O  O39  1  0.97906487  0.20059443  0.91712923  1
  O  O40  1  0.19365793  0.01351770  0.92151632  1
  O  O41  1  0.80127677  0.79893055  0.91653806  1
  O  O42  1  0.94660052  0.15458021  0.57933455  1
  O  O43  1  0.18624194  0.04016031  0.58433211  1
  O  O44  1  0.86400242  0.82743628  0.59170423  1
  O  O45  1  0.96343386  0.82743628  0.09170423  1
  O  O46  1  0.85391837  0.04016031  0.08433211  1
  O  O47  1  0.20797968  0.15458021  0.07933455  1
  O  O48  1  0.67256459  0.14911411  0.75018079  1
  O  O49  1  0.45048688  0.32503976  0.74348901  1
  O  O50  1  0.87149574  0.54941545  0.74442968  1
  O  O51  1  0.67792071  0.54941545  0.24442968  1
  O  O52  1  0.87455388  0.32503976  0.24348901  1
  O  O53  1  0.47655052  0.14911411  0.25018079  1
  O  O54  1  0.64244254  0.48987541  0.91935826  1
  O  O55  1  0.84042168  0.36560639  0.92117038  1
  O  O56  1  0.53787524  0.17390394  0.92931932  1
  O  O57  1  0.63602969  0.17390394  0.42931932  1
  O  O58  1  0.52518572  0.36560639  0.42117038  1
  O  O59  1  0.84743387  0.48987541  0.41935826  1
  O  O60  1  0.34264896  0.46110122  0.07604414  1
  O  O61  1  0.14159695  0.67201679  0.08167963  1
  O  O62  1  0.54736560  0.86985421  0.07504586  1
  O  O63  1  0.32248761  0.86985421  0.57504586  1
  O  O64  1  0.53041884  0.67201679  0.58167963  1
  O  O65  1  0.11845127  0.46110122  0.57604414  1
  O  O66  1  0.30483892  0.81051678  0.25252282  1
  O  O67  1  0.52413878  0.70287535  0.25055447  1
  O  O68  1  0.17587693  0.46587578  0.24450816  1
  O  O69  1  0.28999786  0.46587578  0.74450816  1
  O  O70  1  0.17873557  0.70287535  0.75055447  1
  O  O71  1  0.50567685  0.81051678  0.75252282  1
loop_
_geom_bond_atom_site_label_1
_geom_bond_atom_site_label_2
_geom_bond_distance
_geom_bond_site_symmetry_2
Na0 O15 2.293146 1_455
Na0 O66 2.390984 1_555
Na0 O52 2.465513 1_455
Na0 O30 2.668807 1_555
Na0 O68 2.683347 1_555
Na0 O51 2.731928 1_455
Na0 O11 2.791418 1_555
Na1 O14 2.293150 1_555
Na1 O71 2.390992 1_555
Na1 O49 2.465513 1_555
Na1 O35 2.668810 1_555
Na1 O69 2.683354 1_555
Na1 O50 2.731937 1_555
Na1 O6 2.791418 1_555
Na2 O27 2.275124 1_555
Na2 O64 2.333323 1_555
Na2 O42 2.379623 1_565
Na3 O26 2.275118 1_554
Na3 O61 2.333325 1_555
Na3 O47 2.379631 1_565
Na4 O39 2.324846 1_555
Na4 O5 2.333198 1_545
Na4 O56 2.468908 1_555
Na4 O34 2.528257 1_545
Na4 O20 2.695564 1_556
Na4 O41 2.709462 1_545
Na4 O55 2.754519 1_555
Na5 O38 2.324839 1_555
Na5 O0 2.333194 1_545
Na5 O57 2.468923 1_555
Na5 O31 2.528257 1_545
Na5 O21 2.695567 1_555
Na5 O36 2.709455 1_445
Na5 O58 2.754521 1_555
Na6 O42 2.359410 1_555
Na6 O37 2.441863 1_555
Na6 O43 2.486266 1_655
Na6 O44 2.536907 1_545
Na6 O36 2.652971 1_545
Na6 O38 2.826144 1_655
Na7 O47 2.359410 1_555
Na7 O40 2.441863 1_554
Na7 O46 2.486266 1_455
Na7 O45 2.536907 1_445
Na7 O41 2.652971 1_444
Na7 O39 2.826144 1_454
Na8 O48 2.362144 1_555
Na8 O55 2.449216 1_555
Na8 O56 2.524143 1_555
Na8 O54 2.581898 1_555
Na8 O49 2.873617 1_555
Na8 O50 2.962602 1_555
Na9 O53 2.362144 1_555
Na9 O58 2.449216 1_555
Na9 O57 2.524143 1_555
Na9 O59 2.581898 1_555
Na9 O52 2.873617 1_555
Na9 O51 2.962602 1_555
Na10 O68 2.386320 1_555
Na10 O67 2.519539 1_555
Na10 O66 2.548347 1_555
Na10 O60 2.593764 1_555
Na10 O61 2.646440 1_555
Na10 O62 2.980742 1_555
Na11 O69 2.386320 1_555
Na11 O70 2.519539 1_555
Na11 O71 2.548347 1_555
Na11 O65 2.593763 1_555
Na11 O64 2.646440 1_555
Na11 O63 2.980742 1_555
Ca0 O37 2.198819 1_555
Ca0 O0 2.209529 1_645
Ca0 O2 2.224856 1_655
Ca0 O1 2.228711 1_545
Ca0 O38 2.293003 1_655
Ca0 O36 2.446764 1_545
Ca1 O40 2.198819 1_555
Ca1 O5 2.209529 1_445
Ca1 O3 2.224856 1_555
Ca1 O4 2.228711 1_545
Ca1 O39 2.293003 1_455
Ca1 O41 2.446764 1_445
Ca2 O13 2.174695 1_555
Ca2 O12 2.221802 1_555
Ca2 O48 2.227055 1_555
Ca2 O14 2.247435 1_555
Ca2 O49 2.338465 1_555
Ca2 O50 2.350880 1_555
Ca3 O16 2.174694 1_555
Ca3 O17 2.221802 1_555
Ca3 O53 2.227055 1_555
Ca3 O15 2.247435 1_555
Ca3 O52 2.338465 1_555
Ca3 O51 2.350880 1_555
Ca4 O25 2.178424 1_554
Ca4 O26 2.200213 1_554
Ca4 O24 2.262485 1_554
Ca4 O61 2.276570 1_555
Ca4 O62 2.292764 1_555
Ca4 O60 2.331075 1_555
Ca5 O28 2.178424 1_555
Ca5 O27 2.200213 1_555
Ca5 O29 2.262485 1_555
Ca5 O64 2.276570 1_555
Ca5 O63 2.292764 1_555
Ca5 O65 2.331075 1_555
Ge0 O44 1.816628 1_555
Ge0 O6 1.819668 1_555
Ge0 O8 1.961248 1_655
Ge0 O7 2.108376 1_665
Ge0 O43 2.390880 1_665
Ge1 O45 1.816628 1_555
Ge1 O11 1.819668 1_655
Ge1 O9 1.961248 1_555
Ge1 O10 2.108376 1_665
Ge1 O46 2.390880 1_565
Ge2 O19 1.788558 1_556
Ge2 O56 1.848163 1_555
Ge2 O54 1.985353 1_555
Ge2 O55 1.999774 1_555
Ge2 O18 2.048093 1_556
Ge2 O20 2.441897 1_556
Ge3 O22 1.788558 1_555
Ge3 O57 1.848163 1_555
Ge3 O59 1.985353 1_555
Ge3 O58 1.999774 1_555
Ge3 O23 2.048093 1_555
Ge3 O21 2.441897 1_555
Ge4 O31 1.795308 1_555
Ge4 O66 1.825830 1_555
Ge4 O67 2.103635 1_555
Ge5 O34 1.795308 1_555
Ge5 O71 1.825830 1_555
Ge5 O70 2.103635 1_555
O0 Si0 1.584242 1_555
O1 S0 1.447646 1_555
O2 S1 1.449583 1_555
O3 S2 1.449583 1_555
O4 S3 1.447646 1_555
O5 Si1 1.584242 1_555
O6 Si1 1.751258 1_555
O7 S2 1.564565 1_555
O8 S3 1.548473 1_555
O9 S0 1.548473 1_555
O10 S1 1.564565 1_555
O11 Si0 1.751258 1_555
O12 S4 1.458262 1_555
O13 S5 1.465381 1_555
O14 Si2 1.596093 1_555
O15 Si3 1.596093 1_555
O16 S6 1.465381 1_555
O17 S7 1.458262 1_555
O18 S7 1.542508 1_555
O19 Si3 1.710860 1_555
O20 S6 1.505395 1_555
O21 S5 1.505395 1_555
O22 Si2 1.710859 1_555
O23 S4 1.542508 1_555
O24 S8 1.455580 1_555
O25 S9 1.450227 1_555
O26 Si4 1.590449 1_555
O27 Si5 1.590449 1_555
O28 S10 1.450227 1_555
O29 S11 1.455580 1_555
O30 S11 1.501754 1_555
O31 Si5 1.775266 1_555
O32 S10 1.468078 1_555
O33 S9 1.468078 1_555
O34 Si4 1.775266 1_555
O35 S8 1.501754 1_555
O36 S11 1.479753 1_655
O37 Si5 1.587957 1_545
O38 S10 1.488694 1_555
O39 S9 1.488697 1_655
O40 Si4 1.587948 1_545
O41 S8 1.479758 1_555
O42 S4 1.499963 1_555
O43 S5 1.511227 1_555
O44 Si2 1.747763 1_555
O45 Si3 1.747767 1_555
O46 S6 1.511218 1_555
O47 S7 1.499967 1_555
O48 Si1 1.594806 1_545
O49 S2 1.487653 1_555
O50 S3 1.458762 1_655
O51 S0 1.458766 1_555
O52 S1 1.487644 1_655
O53 Si0 1.594811 1_545
O54 S8 1.538915 1_555
O55 S9 1.550026 1_655
O56 Si4 1.706530 1_545
O57 Si5 1.706520 1_545
O58 S10 1.550044 1_555
O59 S11 1.538905 1_655
O60 S7 1.469409 1_555
O61 Si3 1.621809 1_455
O62 S6 1.485903 1_565
O63 S5 1.485896 1_565
O64 Si2 1.621827 1_555
O65 S4 1.469398 1_455
O66 Si0 1.754759 1_555
O67 S0 1.521289 1_555
O68 S1 1.495103 1_555
O69 S2 1.495107 1_555
O70 S3 1.521279 1_555
O71 Si1 1.754765 1_555
