# generated using pymatgen
data_Na4Sc2Ti2Si3(SO8)3
_symmetry_space_group_name_H-M   'P 1'
_cell_length_a   8.95732598
_cell_length_b   8.93580892
_cell_length_c   22.53561309
_cell_angle_alpha   90.13877755
_cell_angle_beta   89.96380544
_cell_angle_gamma   119.75818574
_symmetry_Int_Tables_number   1
_chemical_formula_structural   Na4Sc2Ti2Si3(SO8)3
_chemical_formula_sum   'Na12 Sc6 Ti6 Si9 S9 O72'
_cell_volume   1565.89985206
_cell_formula_units_Z   3
loop_
 _symmetry_equiv_pos_site_id
 _symmetry_equiv_pos_as_xyz
  1  'x, y, z'
loop_
 _atom_site_type_symbol
 _atom_site_label
 _atom_site_symmetry_multiplicity
 _atom_site_fract_x
 _atom_site_fract_y
 _atom_site_fract_z
 _atom_site_occupancy
  Na  Na0  1  0.98882110  0.63942463  0.25296096  1
  Na  Na1  1  0.99501651  0.36003575  0.74277568  1
  Na  Na2  1  0.66155931  0.97389496  0.59155035  1
  Na  Na3  1  0.66669364  0.69781630  0.08023044  1
  Na  Na4  1  0.33547063  0.30565146  0.90541342  1
  Na  Na5  1  0.32158786  0.02357778  0.42073050  1
  Na  Na6  1  0.00662060  0.99139916  0.50387297  1
  Na  Na7  1  0.98971240  0.98642779  0.99784080  1
  Na  Na8  1  0.65362052  0.32025572  0.82390859  1
  Na  Na9  1  0.65590143  0.34061995  0.33445455  1
  Na  Na10  1  0.32765773  0.67046847  0.16953149  1
  Na  Na11  1  0.31890275  0.66846606  0.66089617  1
  Sc  Sc0  1  0.99916763  0.98785563  0.35271722  1
  Sc  Sc1  1  0.99061036  0.99232851  0.85024824  1
  Sc  Sc2  1  0.65652658  0.32237021  0.68619738  1
  Sc  Sc3  1  0.66453921  0.33317898  0.18921811  1
  Sc  Sc4  1  0.33182103  0.67431639  0.01881890  1
  Sc  Sc5  1  0.31541853  0.66118688  0.52140797  1
  Ti  Ti0  1  0.01731761  0.02741155  0.64646057  1
  Ti  Ti1  1  0.99261372  0.97361419  0.15292130  1
  Ti  Ti2  1  0.68231439  0.35868546  0.98024427  1
  Ti  Ti3  1  0.67990783  0.33494730  0.48631707  1
  Ti  Ti4  1  0.32554686  0.66930797  0.31217000  1
  Ti  Ti5  1  0.36385403  0.67162007  0.80702996  1
  Si  Si0  1  0.29544752  -0.00048887  0.25381575  1
  Si  Si1  1  0.69543878  0.70484003  0.25141158  1
  Si  Si2  1  0.29569804  0.29180323  0.75482490  1
  Si  Si3  1  0.71418589  -0.00014863  0.74717966  1
  Si  Si4  1  0.96383195  0.33614105  0.58871719  1
  Si  Si5  1  0.37192114  0.04562379  0.58094853  1
  Si  Si6  1  0.96644054  0.63055352  0.08725982  1
  Si  Si7  1  0.63067693  0.67309913  0.91977520  1
  Si  Si8  1  0.02901222  0.65472138  0.41666706  1
  S  S0  1  0.00568935  0.28822356  0.24860185  1
  S  S1  1  0.00860091  0.71232914  0.74987272  1
  S  S2  1  0.67474896  0.62796785  0.58188599  1
  S  S3  1  0.67339096  0.04927462  0.08131675  1
  S  S4  1  0.37041220  0.32596499  0.08136924  1
  S  S5  1  0.03524799  0.37602844  0.91734977  1
  S  S6  1  0.34066580  0.96368244  0.91601194  1
  S  S7  1  0.62151428  0.95900312  0.41589885  1
  S  S8  1  0.33699879  0.37949224  0.41438976  1
  O  O0  1  0.21685830  0.02883387  0.31360247  1
  O  O1  1  0.83209107  0.80239760  0.30336024  1
  O  O2  1  0.98792032  0.19273172  0.30296199  1
  O  O3  1  0.21099008  0.18821322  0.81570638  1
  O  O4  1  0.99066428  0.79320227  0.80518887  1
  O  O5  1  0.82938466  0.02227051  0.80507274  1
  O  O6  1  0.80096975  0.96844927  0.68754167  1
  O  O7  1  0.16110088  0.19483335  0.69802518  1
  O  O8  1  0.03018238  0.81730147  0.69708101  1
  O  O9  1  0.79041888  0.82376441  0.18866267  1
  O  O10  1  0.02144063  0.20038467  0.19466306  1
  O  O11  1  0.15323152  0.96258085  0.19712860  1
  O  O12  1  0.88213634  0.36267195  0.64797577  1
  O  O13  1  0.49867993  0.13708461  0.63600178  1
  O  O14  1  0.65092558  0.52804866  0.63619593  1
  O  O15  1  0.87160339  0.51885932  0.14458538  1
  O  O16  1  0.65201391  0.12650718  0.13557342  1
  O  O17  1  0.48288499  0.35140181  0.13275754  1
  O  O18  1  0.45321815  0.30638442  0.02578482  1
  O  O19  1  0.82983336  0.52587716  0.02843844  1
  O  O20  1  0.68017917  0.14986449  0.02800535  1
  O  O21  1  0.46463518  0.16343509  0.51929096  1
  O  O22  1  0.68888901  0.53426345  0.52807624  1
  O  O23  1  0.82745915  0.30607343  0.53128332  1
  O  O24  1  0.53705857  0.68208746  0.98003162  1
  O  O25  1  0.14511572  0.46926733  0.96932106  1
  O  O26  1  0.32123140  0.86187324  0.97078203  1
  O  O27  1  0.55197031  0.86042056  0.47107123  1
  O  O28  1  0.33044971  0.46775939  0.46853745  1
  O  O29  1  0.16248382  0.69350801  0.46999005  1
  O  O30  1  0.13126170  0.63692779  0.35524427  1
  O  O31  1  0.50541096  0.86310447  0.36422812  1
  O  O32  1  0.34956870  0.48341524  0.36039502  1
  O  O33  1  0.10442359  0.47296170  0.86263379  1
  O  O34  1  0.35378840  0.87387509  0.86321094  1
  O  O35  1  0.49569268  0.63558857  0.86311751  1
  O  O36  1  0.01622057  0.83228819  0.41336812  1
  O  O37  1  0.79769085  0.99110132  0.40741617  1
  O  O38  1  0.17738469  0.20677881  0.41246049  1
  O  O39  1  0.02363616  0.20454260  0.91707171  1
  O  O40  1  0.19003435  0.99033143  0.91484161  1
  O  O41  1  0.82295964  0.83042636  0.91448123  1
  O  O42  1  0.96411571  0.14912529  0.58899252  1
  O  O43  1  0.17999124  0.02328824  0.59167065  1
  O  O44  1  0.83303734  0.79787739  0.58354509  1
  O  O45  1  0.96823880  0.81908798  0.08896736  1
  O  O46  1  0.83223460  0.03394445  0.08294271  1
  O  O47  1  0.19858521  0.17295094  0.08678502  1
  O  O48  1  0.69238224  0.16868100  0.74619584  1
  O  O49  1  0.48865636  0.33223790  0.74619807  1
  O  O50  1  0.85580443  0.53829162  0.74675209  1
  O  O51  1  0.68437722  0.51816111  0.24467709  1
  O  O52  1  0.85506906  0.31570497  0.24432490  1
  O  O53  1  0.48401640  0.15347073  0.24051149  1
  O  O54  1  0.63478990  0.48304424  0.92571207  1
  O  O55  1  0.85736786  0.35153880  0.92631477  1
  O  O56  1  0.49927034  0.13763108  0.92065960  1
  O  O57  1  0.62266010  0.12700722  0.41800082  1
  O  O58  1  0.48850824  0.35424017  0.41452142  1
  O  O59  1  0.83933367  0.48037070  0.42456671  1
  O  O60  1  0.35780586  0.48662321  0.07809023  1
  O  O61  1  0.15622448  0.65723178  0.07792515  1
  O  O62  1  0.52205460  0.86861376  0.07814200  1
  O  O63  1  0.36604238  0.85977606  0.57560369  1
  O  O64  1  0.52489184  0.65457755  0.57474422  1
  O  O65  1  0.15588999  0.49102722  0.57871762  1
  O  O66  1  0.29344997  0.81139204  0.25640359  1
  O  O67  1  0.50725845  0.68883846  0.25920824  1
  O  O68  1  0.16453217  0.46459991  0.25053516  1
  O  O69  1  0.29404945  0.48077887  0.76009783  1
  O  O70  1  0.16491128  0.69130912  0.75568099  1
  O  O71  1  0.51923357  0.82391367  0.75713335  1
loop_
_geom_bond_atom_site_label_1
_geom_bond_atom_site_label_2
_geom_bond_distance
_geom_bond_site_symmetry_2
Na0 O66 2.377033 1_655
Na0 O51 2.389959 1_555
Na0 O52 2.529472 1_555
Na0 O30 2.640779 1_655
Na0 O15 2.663751 1_555
Na0 O68 2.713090 1_655
Na0 O1 2.720506 1_555
Na0 O11 2.807894 1_655
Na1 O12 2.369303 1_555
Na1 O69 2.370971 1_655
Na1 O48 2.382692 1_555
Na1 O50 2.463948 1_555
Na1 O70 2.586068 1_655
Na1 O7 2.753246 1_655
Na1 O33 2.878009 1_655
Na1 O5 2.975640 1_555
Na2 O63 2.344297 1_555
Na2 O42 2.363792 1_565
Na2 O6 2.511078 1_555
Na2 O64 2.512292 1_555
Na2 O44 2.694840 1_555
Na2 O13 2.713210 1_565
Na2 O27 2.892287 1_555
Na2 O23 2.915798 1_565
Na3 O45 2.367012 1_555
Na3 O62 2.444044 1_555
Na3 O60 2.456722 1_555
Na3 O24 2.511298 1_554
Na3 O46 2.608069 1_565
Na3 O9 2.686618 1_555
Na3 O19 2.841850 1_555
Na3 O17 2.941106 1_555
Na4 O3 2.293996 1_555
Na4 O54 2.385256 1_555
Na4 O40 2.457669 1_545
Na4 O39 2.486436 1_555
Na4 O56 2.591297 1_555
Na4 O35 2.733505 1_555
Na4 O18 2.909905 1_556
Na5 O57 2.378355 1_555
Na5 O36 2.406033 1_545
Na5 O38 2.546356 1_555
Na5 O21 2.556865 1_555
Na5 O58 2.569400 1_555
Na5 O0 2.599562 1_555
Na5 O29 2.793527 1_545
Na5 O31 2.953146 1_545
Na6 O43 2.443244 1_565
Na6 O44 2.444185 1_455
Na6 O36 2.509155 1_555
Na6 O42 2.515875 1_465
Na6 O38 2.716686 1_565
Na6 O37 2.868368 1_455
Na7 O41 2.372166 1_555
Na7 O45 2.493807 1_556
Na7 O46 2.536780 1_566
Na7 O39 2.575402 1_665
Na7 O40 2.579416 1_655
Na7 O47 2.681252 1_666
Na8 O49 2.328734 1_555
Na8 O48 2.340234 1_555
Na8 O50 2.570778 1_555
Na8 O56 2.664997 1_555
Na8 O54 2.763101 1_555
Na8 O55 2.868888 1_555
Na9 O58 2.386497 1_555
Na9 O51 2.507680 1_555
Na9 O59 2.517560 1_555
Na9 O57 2.594128 1_555
Na9 O53 2.660856 1_555
Na9 O52 2.783027 1_555
Na10 O66 2.425411 1_555
Na10 O68 2.489193 1_555
Na10 O67 2.537612 1_555
Na10 O61 2.540924 1_555
Na10 O62 2.713164 1_555
Na10 O60 2.727901 1_555
Na11 O65 2.401401 1_555
Na11 O63 2.468521 1_555
Na11 O70 2.603954 1_555
Na11 O71 2.714588 1_555
Na11 O64 2.722284 1_555
Na11 O69 2.739895 1_555
O0 Si0 1.599904 1_555
O0 Sc0 2.000975 1_445
O1 Si1 1.601989 1_555
O1 Sc0 1.937640 1_555
O2 S0 1.457452 1_655
O2 Sc0 2.193660 1_545
O3 Si2 1.619436 1_555
O3 Sc1 2.034990 1_445
O4 S1 1.487505 1_655
O4 Sc1 2.046783 1_555
O5 Si3 1.613150 1_555
O5 Sc1 1.892179 1_545
O6 Si3 1.643982 1_565
O6 Ti0 1.968926 1_665
O7 Si2 1.674024 1_555
O7 Ti0 1.824284 1_555
O8 S1 1.468918 1_555
O8 Ti0 2.250544 1_565
O9 Si1 1.720762 1_555
O9 Ti1 1.821513 1_555
O10 S0 1.489507 1_555
O10 Ti1 2.128243 1_445
O11 Si0 1.716486 1_565
O11 Ti1 1.793092 1_455
O12 Si4 1.595153 1_555
O12 Sc2 2.057267 1_555
O13 Si5 1.603765 1_555
O13 Sc2 1.920694 1_555
O14 S2 1.468507 1_555
O14 Sc2 2.179851 1_555
O15 Si6 1.596846 1_555
O15 Sc3 2.038520 1_555
O16 S3 1.461083 1_555
O16 Sc3 2.160633 1_555
O17 S4 1.476696 1_555
O17 Sc3 2.135336 1_555
O18 S4 1.508785 1_555
O18 Ti2 2.128470 1_554
O19 Si6 1.728936 1_555
O19 Ti2 1.786590 1_554
O20 S3 1.485224 1_555
O20 Ti2 2.148259 1_554
O21 Si5 1.693040 1_555
O21 Ti3 1.920763 1_555
O22 S2 1.512549 1_555
O22 Ti3 1.978375 1_555
O23 Si4 1.707069 1_555
O23 Ti3 1.783732 1_555
O24 Si7 1.618171 1_555
O24 Sc4 2.005005 1_556
O25 S5 1.489018 1_555
O25 Sc4 2.085421 1_556
O26 S6 1.493099 1_555
O26 Sc4 2.038750 1_556
O27 S7 1.472939 1_555
O27 Sc5 2.282110 1_555
O28 S8 1.468244 1_555
O28 Sc5 2.155466 1_555
O29 Si8 1.606838 1_555
O29 Sc5 1.923290 1_555
O30 Si8 1.709392 1_555
O30 Ti4 1.885185 1_555
O31 S7 1.511229 1_555
O31 Ti4 2.047881 1_555
O32 S8 1.502386 1_555
O32 Ti4 2.085784 1_555
O33 S5 1.458103 1_555
O33 Ti5 2.456341 1_555
O34 S6 1.470554 1_555
O34 Ti5 2.242315 1_555
O35 Si7 1.673946 1_555
O35 Ti5 1.864712 1_555
O36 Si8 1.648435 1_555
O36 Sc0 2.011014 1_455
O37 S7 1.469588 1_555
O37 Sc0 2.196866 1_555
O38 S8 1.495738 1_555
O38 Sc0 2.253414 1_445
O39 S5 1.483488 1_555
O39 Sc1 2.319721 1_445
O40 S6 1.482199 1_555
O40 Sc1 2.311965 1_455
O41 Si7 1.598130 1_555
O41 Sc1 2.072249 1_555
O42 Si4 1.672427 1_555
O42 Ti0 1.899823 1_655
O43 Si5 1.647085 1_555
O43 Ti0 1.923514 1_555
O44 S2 1.476384 1_555
O44 Ti0 2.360057 1_665
O45 Si6 1.677119 1_555
O45 Ti1 1.929504 1_555
O46 S3 1.496021 1_555
O46 Ti1 2.370039 1_545
O47 S4 1.471332 1_555
O47 Ti1 2.354815 1_445
O48 Si3 1.614697 1_555
O48 Sc2 2.065134 1_555
O49 Si2 1.592379 1_555
O49 Sc2 2.055621 1_555
O50 S1 1.477626 1_655
O50 Sc2 2.311419 1_555
O51 Si1 1.627949 1_555
O51 Sc3 2.006134 1_555
O52 S0 1.489623 1_655
O52 Sc3 2.178847 1_555
O53 Si0 1.590652 1_555
O53 Sc3 1.989616 1_555
O54 Si7 1.722404 1_555
O54 Ti2 1.844771 1_555
O55 S5 1.510328 1_655
O55 Ti2 2.009078 1_555
O56 S6 1.500887 1_545
O56 Ti2 2.273337 1_555
O57 S7 1.496820 1_545
O57 Ti3 2.264297 1_555
O58 S8 1.482126 1_555
O58 Ti3 2.425909 1_555
O59 Si8 1.648916 1_655
O59 Ti3 1.956667 1_555
O60 S4 1.496876 1_555
O60 Sc4 2.247230 1_555
O61 Si6 1.608862 1_455
O61 Sc4 2.007842 1_555
O62 S3 1.508652 1_565
O62 Sc4 2.181753 1_555
O63 Si5 1.639340 1_565
O63 Sc5 2.009411 1_555
O64 S2 1.483766 1_555
O64 Sc5 2.254326 1_555
O65 Si4 1.601034 1_455
O65 Sc5 1.967790 1_555
O66 Si0 1.673346 1_565
O66 Ti4 1.909068 1_555
O67 Si1 1.628813 1_555
O67 Ti4 1.954682 1_555
O68 S0 1.511285 1_555
O68 Ti4 2.174114 1_555
O69 Si2 1.699899 1_555
O69 Ti5 1.830659 1_555
O70 S1 1.508035 1_555
O70 Ti5 2.204619 1_555
O71 Si3 1.687394 1_565
O71 Ti5 1.782884 1_555
