# generated using pymatgen
data_Co2P2O7
_symmetry_space_group_name_H-M   'P 1'
_cell_length_a   5.33922752
_cell_length_b   9.07374843
_cell_length_c   5.35485190
_cell_angle_alpha   98.07536787
_cell_angle_beta   103.87990713
_cell_angle_gamma   98.18701485
_symmetry_Int_Tables_number   1
_chemical_formula_structural   Co2P2O7
_chemical_formula_sum   'Co4 P4 O14'
_cell_volume   245.13221268
_cell_formula_units_Z   2
loop_
 _symmetry_equiv_pos_site_id
 _symmetry_equiv_pos_as_xyz
  1  'x, y, z'
loop_
 _atom_site_type_symbol
 _atom_site_label
 _atom_site_symmetry_multiplicity
 _atom_site_fract_x
 _atom_site_fract_y
 _atom_site_fract_z
 _atom_site_occupancy
  Co  Co0  1  0.68800600  0.75032200  0.30990500  1
  Co  Co1  1  0.31133100  0.24929400  0.68942100  1
  Co  Co2  1  0.68742000  0.25107700  0.31389600  1
  Co  Co3  1  0.31317500  0.74970400  0.68612400  1
  P  P0  1  0.21742600  0.45306300  0.21594700  1
  P  P1  1  0.21672900  0.95300000  0.21724000  1
  P  P2  1  0.78324000  0.04697400  0.78292400  1
  P  P3  1  0.78265200  0.54693100  0.78395000  1
  O  O0  1  0.00000400  0.99998000  0.00007500  1
  O  O1  1  0.00002700  0.50000600  0.00004100  1
  O  O2  1  0.62154900  0.39416900  0.62403800  1
  O  O3  1  0.62282800  0.89410000  0.62171800  1
  O  O4  1  0.37769100  0.10586300  0.37791800  1
  O  O5  1  0.37811900  0.60572800  0.37655600  1
  O  O6  1  0.92697800  0.13918900  0.62214900  1
  O  O7  1  0.92666300  0.63941200  0.62424600  1
  O  O8  1  0.37880000  0.36114700  0.07317500  1
  O  O9  1  0.37647600  0.86031900  0.07387200  1
  O  O10  1  0.07325100  0.36031600  0.37540600  1
  O  O11  1  0.07308600  0.86101700  0.37832300  1
  O  O12  1  0.62306100  0.13937900  0.92611100  1
  O  O13  1  0.62149000  0.63901100  0.92696300  1
loop_
_geom_bond_atom_site_label_1
_geom_bond_atom_site_label_2
_geom_bond_distance
_geom_bond_site_symmetry_2
Co0 O11 2.077834 1_655
Co0 O13 2.077920 1_554
Co0 O5 2.093544 1_555
Co0 O3 2.099314 1_555
Co0 O9 2.275729 1_555
Co0 O7 2.298239 1_555
Co1 O6 2.073523 1_455
Co1 O8 2.082643 1_556
Co1 O2 2.093195 1_555
Co1 O4 2.099212 1_555
Co1 O12 2.277528 1_555
Co1 O10 2.296357 1_555
Co2 O10 2.082287 1_655
Co2 O4 2.089685 1_555
Co2 O2 2.090956 1_555
Co2 O12 2.103439 1_554
Co2 O8 2.277204 1_555
Co2 O6 2.284528 1_555
Co3 O3 2.086289 1_555
Co3 O7 2.088214 1_455
Co3 O5 2.090747 1_555
Co3 O9 2.100949 1_556
Co3 O13 2.279949 1_555
Co3 O11 2.280971 1_555
O0 P1 1.583404 1_555
O0 P2 1.583544 1_464
O1 P0 1.581375 1_555
O1 P3 1.581808 1_454
O2 P3 1.538846 1_555
O3 P2 1.540578 1_565
O4 P1 1.540522 1_545
O5 P0 1.538653 1_555
O6 P2 1.538439 1_555
O7 P3 1.536254 1_555
O8 P0 1.537539 1_555
O9 P1 1.536602 1_555
O10 P0 1.537090 1_555
O11 P1 1.538244 1_555
O12 P2 1.536410 1_555
O13 P3 1.538222 1_555
