# generated using pymatgen
data_Ba2HoMgNbO6
_symmetry_space_group_name_H-M   'P 1'
_cell_length_a   6.01906827
_cell_length_b   6.01906835
_cell_length_c   6.66805922
_cell_angle_alpha   63.02078490
_cell_angle_beta   63.02078431
_cell_angle_gamma   59.91039649
_symmetry_Int_Tables_number   1
_chemical_formula_structural   Ba2HoMgNbO6
_chemical_formula_sum   'Ba2 Ho1 Mg1 Nb1 O6'
_cell_volume   178.07907446
_cell_formula_units_Z   1
loop_
 _symmetry_equiv_pos_site_id
 _symmetry_equiv_pos_as_xyz
  1  'x, y, z'
loop_
 _atom_site_type_symbol
 _atom_site_label
 _atom_site_symmetry_multiplicity
 _atom_site_fract_x
 _atom_site_fract_y
 _atom_site_fract_z
 _atom_site_occupancy
  Ba  Ba0  1  0.73387502  0.73387502  0.79667042  1
  Ba  Ba1  1  0.19363312  0.19363312  0.41969308  1
  Ho  Ho0  1  0.52617244  0.52617244  0.42030516  1
  Mg  Mg0  1  0.36365893  0.36365893  0.90589527  1
  Nb  Nb0  1  0.99946207  0.99946207  1.00055612  1
  O  O0  1  0.25474660  0.74586942  0.74294745  1
  O  O1  1  0.25888769  0.77188214  0.19772450  1
  O  O2  1  0.74586942  0.25474660  0.74294745  1
  O  O3  1  0.25555441  0.25555441  0.74163090  1
  O  O4  1  0.77188214  0.25888769  0.19772450  1
  O  O5  1  0.77125816  0.77125816  0.19848815  1
loop_
_geom_bond_atom_site_label_1
_geom_bond_atom_site_label_2
_geom_bond_distance
_geom_bond_site_symmetry_2
Ba0 O1 2.887882 1_556
Ba0 O4 2.887882 1_556
Ba0 O5 2.902576 1_556
Ba0 O3 3.021869 1_655
Ba0 O3 3.021869 1_565
Ba0 O0 3.024440 1_655
Ba0 O2 3.024440 1_565
Ba0 O0 3.025820 1_555
Ba0 O2 3.025820 1_555
Ba1 O3 2.545062 1_555
Ba1 O2 2.549403 1_455
Ba1 O0 2.549403 1_545
Ho0 O5 2.182348 1_555
Ho0 O4 2.183443 1_555
Ho0 O1 2.183443 1_555
Ho0 O3 2.494867 1_555
Ho0 O0 2.504440 1_555
Ho0 O2 2.504440 1_555
Mg0 O3 1.940209 1_555
Mg0 O2 1.941368 1_555
Mg0 O0 1.941369 1_555
Nb0 O5 2.029137 1_556
Nb0 O4 2.031526 1_566
Nb0 O1 2.031526 1_656
Nb0 O0 2.296511 1_655
Nb0 O2 2.296511 1_565
Nb0 O3 2.299125 1_665
