# generated using pymatgen
data_MgMn6(O2F)4
_symmetry_space_group_name_H-M   'P 1'
_cell_length_a   5.23736968
_cell_length_b   14.40768068
_cell_length_c   3.06062470
_cell_angle_alpha   90.01335169
_cell_angle_beta   89.97150557
_cell_angle_gamma   79.41357298
_symmetry_Int_Tables_number   1
_chemical_formula_structural   MgMn6(O2F)4
_chemical_formula_sum   'Mg1 Mn6 O8 F4'
_cell_volume   227.01863145
_cell_formula_units_Z   1
loop_
 _symmetry_equiv_pos_site_id
 _symmetry_equiv_pos_as_xyz
  1  'x, y, z'
loop_
 _atom_site_type_symbol
 _atom_site_label
 _atom_site_symmetry_multiplicity
 _atom_site_fract_x
 _atom_site_fract_y
 _atom_site_fract_z
 _atom_site_occupancy
  Mg  Mg0  1  0.50050868  0.33318652  0.50918531  1
  Mn  Mn0  1  0.82878885  0.99641567  0.01752654  1
  Mn  Mn1  1  0.00051306  0.33327934  0.00942689  1
  Mn  Mn2  1  0.17063705  0.67036898  0.01764673  1
  Mn  Mn3  1  0.25877969  0.11442611  0.51599623  1
  Mn  Mn4  1  0.74042578  0.55204394  0.51665004  1
  Mn  Mn5  1  0.50007278  0.83327488  0.51611797  1
  O  O0  1  0.19128921  0.26153904  0.50927172  1
  O  O1  1  0.36614140  0.60756815  0.52198458  1
  O  O2  1  0.06556371  0.08583435  0.01648869  1
  O  O3  1  0.38384286  0.76621758  0.01616274  1
  O  O4  1  0.93270389  0.58138408  0.01680391  1
  O  O5  1  0.61674974  0.90020755  0.01627161  1
  O  O6  1  0.63275074  0.05897333  0.52246132  1
  O  O7  1  0.80945690  0.40497470  0.50969226  1
  F  F0  1  0.06362268  0.93014895  0.51016798  1
  F  F1  1  0.32331159  0.40780484  0.00928060  1
  F  F2  1  0.67764276  0.25875835  0.00915060  1
  F  F3  1  0.93719962  0.73691965  0.51054425  1
loop_
_geom_bond_atom_site_label_1
_geom_bond_atom_site_label_2
_geom_bond_distance
_geom_bond_site_symmetry_2
Mg0 O0 2.074277 1_555
Mg0 O7 2.074340 1_555
Mn0 O5 1.928800 1_555
Mn0 O2 1.945400 1_665
Mn0 O6 1.955643 1_564
Mn0 O6 1.978025 1_565
Mn1 O0 2.007054 1_554
Mn1 O0 2.007454 1_555
Mn1 O7 2.007516 1_454
Mn1 O7 2.007628 1_455
Mn2 O3 1.928869 1_555
Mn2 O4 1.945150 1_455
Mn2 O1 1.955994 1_554
Mn2 O1 1.977774 1_555
Mn3 O2 1.919736 1_555
Mn3 O2 1.921489 1_556
Mn3 O6 1.974838 1_555
Mn3 O0 2.083897 1_555
Mn4 O4 1.920523 1_555
Mn4 O4 1.921914 1_556
Mn4 O1 1.976519 1_555
Mn4 O7 2.083147 1_555
Mn5 O5 1.964709 1_555
Mn5 O3 1.965137 1_555
Mn5 O3 1.965230 1_556
Mn5 O5 1.965565 1_556
F0 Mn0 2.066086 1_455
F0 Mn0 2.097967 1_456
F0 Mn5 2.449751 1_555
F1 Mg0 1.997756 1_554
F1 Mg0 1.998400 1_555
F1 Mn1 2.162891 1_555
F2 Mg0 1.996255 1_555
F2 Mg0 1.997182 1_554
F2 Mn1 2.163178 1_655
F3 Mn2 2.063170 1_655
F3 Mn2 2.096384 1_656
F3 Mn5 2.449696 1_555
