# generated using pymatgen
data_MgMn6(O5F)2
_symmetry_space_group_name_H-M   'P 1'
_cell_length_a   8.17326498
_cell_length_b   5.71196425
_cell_length_c   5.81790847
_cell_angle_alpha   67.13267453
_cell_angle_beta   63.60979589
_cell_angle_gamma   64.81445203
_symmetry_Int_Tables_number   1
_chemical_formula_structural   MgMn6(O5F)2
_chemical_formula_sum   'Mg1 Mn6 O10 F2'
_cell_volume   213.40770975
_cell_formula_units_Z   1
loop_
 _symmetry_equiv_pos_site_id
 _symmetry_equiv_pos_as_xyz
  1  'x, y, z'
loop_
 _atom_site_type_symbol
 _atom_site_label
 _atom_site_symmetry_multiplicity
 _atom_site_fract_x
 _atom_site_fract_y
 _atom_site_fract_z
 _atom_site_occupancy
  Mg  Mg0  1  0.99018444  -0.00373290  0.52061532  1
  Mn  Mn0  1  0.78403728  0.63357588  0.67144022  1
  Mn  Mn1  1  0.64505542  0.33870313  0.35134707  1
  Mn  Mn2  1  0.33361495  0.65361798  0.69280228  1
  Mn  Mn3  1  0.19440723  0.35958606  0.37284331  1
  Mn  Mn4  1  0.48912489  0.99634152  0.02199707  1
  Mn  Mn5  1  -0.01103129  0.99612788  0.02149312  1
  O  O0  1  0.68721405  0.01937775  0.66452020  1
  O  O1  1  0.35814196  0.37379349  0.00567751  1
  O  O2  1  0.60886539  0.57107822  0.53810815  1
  O  O3  1  0.91539011  0.25060802  0.21117853  1
  O  O4  1  0.06322147  0.74171694  0.83160760  1
  O  O5  1  0.36988997  0.42125082  0.50594246  1
  O  O6  1  0.29161364  0.97354133  0.37985503  1
  O  O7  1  0.61990924  0.61861459  0.03860641  1
  O  O8  1  0.96818434  0.27627203  0.68599643  1
  O  O9  1  0.01006836  0.71641703  0.35748753  1
  F  F0  1  0.30305608  0.91291818  0.87096752  1
  F  F1  1  0.67534847  0.07876305  0.17418125  1
loop_
_geom_bond_atom_site_label_1
_geom_bond_atom_site_label_2
_geom_bond_distance
_geom_bond_site_symmetry_2
Mg0 O3 1.978649 1_555
Mg0 O4 1.980128 1_645
Mg0 O9 2.074407 1_645
Mg0 O8 2.076912 1_555
Mg0 O6 2.184951 1_645
Mg0 O0 2.194292 1_555
Mn0 O7 1.943768 1_556
Mn0 O8 1.949966 1_555
Mn0 O0 1.989781 1_565
Mn0 O9 2.011388 1_655
Mn0 O2 2.101553 1_555
Mn1 O2 1.879069 1_555
Mn1 O3 1.889729 1_555
Mn1 O7 1.923780 1_555
Mn1 O5 1.928252 1_555
Mn1 O0 2.050775 1_555
Mn2 O5 1.879201 1_555
Mn2 O4 1.890039 1_555
Mn2 O1 1.923224 1_556
Mn2 O2 1.928874 1_555
Mn2 O6 2.051346 1_555
Mn3 O1 1.943454 1_555
Mn3 O9 1.948532 1_555
Mn3 O6 1.990747 1_545
Mn3 O8 2.011203 1_455
Mn3 O5 2.100019 1_555
Mn4 O1 1.941709 1_565
Mn4 O7 1.942661 1_555
Mn4 O6 1.984450 1_555
Mn4 O0 1.984771 1_564
Mn5 O4 1.897787 1_554
Mn5 O3 1.898733 1_465
Mn5 O8 2.008786 1_464
Mn5 O9 2.010331 1_555
F0 Mn2 1.994669 1_555
F0 Mn5 2.206685 1_556
F0 Mn4 2.332815 1_556
F1 Mn1 1.994475 1_555
F1 Mn5 2.203258 1_645
F1 Mn4 2.335387 1_545
