# generated using pymatgen
data_Na4AlInSi2SO12
_symmetry_space_group_name_H-M   'P 1'
_cell_length_a   9.04311814
_cell_length_b   9.02094184
_cell_length_c   22.00890921
_cell_angle_alpha   89.78330058
_cell_angle_beta   90.14369596
_cell_angle_gamma   119.39353716
_symmetry_Int_Tables_number   1
_chemical_formula_structural   Na4AlInSi2SO12
_chemical_formula_sum   'Na24 Al6 In6 Si12 S6 O72'
_cell_volume   1564.29165892
_cell_formula_units_Z   6
loop_
 _symmetry_equiv_pos_site_id
 _symmetry_equiv_pos_as_xyz
  1  'x, y, z'
loop_
 _atom_site_type_symbol
 _atom_site_label
 _atom_site_symmetry_multiplicity
 _atom_site_fract_x
 _atom_site_fract_y
 _atom_site_fract_z
 _atom_site_occupancy
  Na  Na0  1  0.64626825  0.99786675  0.25571999  1
  Na  Na1  1  0.35687262  0.36882692  0.24175057  1
  Na  Na2  1  0.99369374  0.62892651  0.25773937  1
  Na  Na3  1  0.62431314  0.63055963  0.73287601  1
  Na  Na4  1  0.99773240  0.35234768  0.75359284  1
  Na  Na5  1  0.38142594  0.01389853  0.75309751  1
  Na  Na6  1  0.30933333  0.33298015  0.59067603  1
  Na  Na7  1  0.04065716  0.71432570  0.57419501  1
  Na  Na8  1  0.65959393  0.94728897  0.58948351  1
  Na  Na9  1  0.28739652  0.96833254  0.07435546  1
  Na  Na10  1  0.67454773  0.69286812  0.09229123  1
  Na  Na11  1  0.04978348  0.33973467  0.09057541  1
  Na  Na12  1  0.98172146  0.66524806  0.92449983  1
  Na  Na13  1  0.69451360  0.04205866  0.90372603  1
  Na  Na14  1  0.31990569  0.28712396  0.92346800  1
  Na  Na15  1  0.95980649  0.30306199  0.40690265  1
  Na  Na16  1  0.32927144  0.01838869  0.42214451  1
  Na  Na17  1  0.70545804  0.67419260  0.42508259  1
  Na  Na18  1  0.98748894  0.97760744  0.49947921  1
  Na  Na19  1  0.02178445  0.01260890  0.00115551  1
  Na  Na20  1  0.65411003  0.31114689  0.83070897  1
  Na  Na21  1  0.67957375  0.34105884  0.33538110  1
  Na  Na22  1  0.32326324  0.64782473  0.17204733  1
  Na  Na23  1  0.34922284  0.67732096  0.66330546  1
  Al  Al0  1  0.95929141  0.97638044  0.35013072  1
  Al  Al1  1  0.00019498  0.99844369  0.64521912  1
  Al  Al2  1  0.63733281  0.31393175  0.68190226  1
  Al  Al3  1  0.68747453  0.36774745  0.18938810  1
  Al  Al4  1  0.66482132  0.33255638  0.48191577  1
  Al  Al5  1  0.32832121  0.66901710  0.31937802  1
  In  In0  1  0.01202969  0.01938354  0.84550727  1
  In  In1  1  0.99695259  0.00214097  0.15685649  1
  In  In2  1  0.66710403  0.33586206  0.98444362  1
  In  In3  1  0.31947645  0.65437294  0.02090993  1
  In  In4  1  0.34763421  0.68673778  0.51555529  1
  In  In5  1  0.33229375  0.66576061  0.81084835  1
  Si  Si0  1  0.68652325  0.69757321  0.25305990  1
  Si  Si1  1  0.00109308  0.30141199  0.25349979  1
  Si  Si2  1  0.29884541  0.29240087  0.74338077  1
  Si  Si3  1  0.71089369  0.01032519  0.74136769  1
  Si  Si4  1  0.37070109  0.04777158  0.58185499  1
  Si  Si5  1  0.67521678  0.61798483  0.58278767  1
  Si  Si6  1  0.96307825  0.63245012  0.08777817  1
  Si  Si7  1  0.38036928  0.33184374  0.08947696  1
  Si  Si8  1  0.03019845  0.36299377  0.91593451  1
  Si  Si9  1  0.33367361  0.96458516  0.91534716  1
  Si  Si10  1  0.63158133  0.96868801  0.41654612  1
  Si  Si11  1  0.03430696  0.67190589  0.41532082  1
  S  S0  1  0.29893035  0.99444937  0.25462651  1
  S  S1  1  0.99341735  0.70521169  0.74429839  1
  S  S2  1  0.94686015  0.32595833  0.58167585  1
  S  S3  1  0.66720035  0.04102646  0.08732681  1
  S  S4  1  0.63422586  0.66999361  0.91508469  1
  S  S5  1  0.33261509  0.37185707  0.41587805  1
  O  O0  1  0.20728752  0.01869465  0.30562936  1
  O  O1  1  0.82403962  0.79328435  0.30717294  1
  O  O2  1  0.97365752  0.16106696  0.30696173  1
  O  O3  1  0.24155828  0.18998100  0.80810176  1
  O  O4  1  0.96926203  0.77537278  0.80207847  1
  O  O5  1  0.81135720  0.03841371  0.80631264  1
  O  O6  1  0.81371795  0.98102010  0.68562160  1
  O  O7  1  0.16682616  0.18394735  0.68840027  1
  O  O8  1  0.00645471  0.81404588  0.69165084  1
  O  O9  1  0.75530324  0.81717830  0.19166443  1
  O  O10  1  0.05298278  0.24032578  0.19082397  1
  O  O11  1  0.20485878  0.96797618  0.19642779  1
  O  O12  1  0.86559791  0.34615398  0.63626687  1
  O  O13  1  0.48761866  0.13461611  0.64121405  1
  O  O14  1  0.66136000  0.50156657  0.64187840  1
  O  O15  1  0.86239959  0.51323313  0.14589294  1
  O  O16  1  0.65909874  0.13613276  0.14054621  1
  O  O17  1  0.50004378  0.33886880  0.14734713  1
  O  O18  1  0.44642246  0.29985850  0.02434111  1
  O  O19  1  0.86344926  0.55680210  0.02354577  1
  O  O20  1  0.67637456  0.12512010  0.02851463  1
  O  O21  1  0.46682224  0.16592325  0.52156705  1
  O  O22  1  0.69693761  0.52732868  0.52108931  1
  O  O23  1  0.84824829  0.31237765  0.52551167  1
  O  O24  1  0.55470365  0.68912201  0.97114146  1
  O  O25  1  0.14734560  0.43849019  0.97688387  1
  O  O26  1  0.32052468  0.85992299  0.97823022  1
  O  O27  1  0.58043981  0.85235392  0.47864497  1
  O  O28  1  0.29755570  0.43743254  0.47317001  1
  O  O29  1  0.14804992  0.71548108  0.47817842  1
  O  O30  1  0.13890202  0.64167047  0.36077226  1
  O  O31  1  0.49423459  0.86446019  0.36234709  1
  O  O32  1  0.35176576  0.48479293  0.36404854  1
  O  O33  1  0.11758578  0.47272801  0.85397396  1
  O  O34  1  0.37077009  0.88460721  0.85420450  1
  O  O35  1  0.53700381  0.65680499  0.85924909  1
  O  O36  1  0.01580397  0.84621994  0.40510009  1
  O  O37  1  0.82530749  0.99769332  0.40642762  1
  O  O38  1  0.18846508  0.19724043  0.40768806  1
  O  O39  1  0.00002466  0.16876130  0.91669425  1
  O  O40  1  0.15073312  0.96223198  0.91324051  1
  O  O41  1  0.80579302  0.81978461  0.91225104  1
  O  O42  1  0.96203580  0.16780780  0.58304621  1
  O  O43  1  0.17676311  0.02715988  0.58738568  1
  O  O44  1  0.84209969  0.81394272  0.58820268  1
  O  O45  1  0.98026348  0.82216905  0.09097054  1
  O  O46  1  0.82325566  0.02444699  0.08725774  1
  O  O47  1  0.18652820  0.17004129  0.09197026  1
  O  O48  1  0.69633486  0.18671761  0.73542433  1
  O  O49  1  0.49479782  0.32479860  0.73869771  1
  O  O50  1  0.84948312  0.53058913  0.73986954  1
  O  O51  1  0.67190079  0.50728688  0.24777945  1
  O  O52  1  0.82066286  0.31003095  0.24566929  1
  O  O53  1  0.47214810  0.14468777  0.25164876  1
  O  O54  1  0.64590561  0.51171827  0.91551702  1
  O  O55  1  0.84557830  0.35585577  0.91762108  1
  O  O56  1  0.49567912  0.15820084  0.91662468  1
  O  O57  1  0.64543576  0.15855835  0.42492886  1
  O  O58  1  0.49479659  0.36582126  0.41895483  1
  O  O59  1  0.84592183  0.49712744  0.42138192  1
  O  O60  1  0.37999639  0.51567095  0.08896260  1
  O  O61  1  0.15273601  0.65002600  0.09068334  1
  O  O62  1  0.51403598  0.86875088  0.08892403  1
  O  O63  1  0.34814769  0.85404864  0.58326869  1
  O  O64  1  0.49593147  0.62874043  0.58235602  1
  O  O65  1  0.12179626  0.47590608  0.57866502  1
  O  O66  1  0.31448345  0.83724527  0.26048387  1
  O  O67  1  0.49688187  0.67499830  0.26552958  1
  O  O68  1  0.16445722  0.49254508  0.26493984  1
  O  O69  1  0.30884595  0.48069718  0.74393349  1
  O  O70  1  0.15558113  0.69914671  0.74363031  1
  O  O71  1  0.52043278  0.83981362  0.74331180  1
loop_
_geom_bond_atom_site_label_1
_geom_bond_atom_site_label_2
_geom_bond_distance
_geom_bond_site_symmetry_2
Na0 O52 2.470562 1_565
Na0 O53 2.507408 1_565
Na0 O67 2.547373 1_555
Na0 O66 2.616420 1_555
Na0 O31 2.686340 1_555
Na0 O9 2.686739 1_555
Na0 O16 2.798241 1_565
Na0 O2 2.814579 1_565
Na1 O67 2.465826 1_555
Na1 O51 2.489992 1_555
Na1 O17 2.535237 1_555
Na1 O68 2.539449 1_555
Na1 O10 2.649432 1_555
Na1 O53 2.699439 1_555
Na1 O32 2.900139 1_555
Na2 O68 2.405327 1_655
Na2 O52 2.525812 1_555
Na2 O51 2.566022 1_555
Na2 O66 2.568910 1_655
Na2 O30 2.592024 1_655
Na2 O15 2.710518 1_555
Na2 O1 2.826519 1_555
Na3 O49 2.413109 1_555
Na3 O14 2.425077 1_555
Na3 O69 2.498114 1_555
Na3 O71 2.498710 1_555
Na3 O50 2.604458 1_555
Na3 O35 2.935089 1_555
Na3 O6 2.946006 1_555
Na4 O48 2.413017 1_555
Na4 O33 2.466921 1_655
Na4 O69 2.470779 1_655
Na4 O50 2.565962 1_555
Na4 O70 2.736002 1_655
Na4 O5 2.739837 1_555
Na4 O12 2.831757 1_555
Na5 O71 2.456515 1_545
Na5 O49 2.487929 1_555
Na5 O34 2.488471 1_545
Na5 O48 2.516835 1_555
Na5 O70 2.566431 1_545
Na5 O13 2.671462 1_555
Na5 O3 2.753694 1_555
Na6 O64 2.361755 1_555
Na6 O43 2.409962 1_555
Na6 O7 2.526957 1_555
Na6 O65 2.598066 1_555
Na6 O42 2.741847 1_455
Na6 O28 2.768793 1_555
Na7 O29 2.325761 1_555
Na7 O44 2.390707 1_455
Na7 O63 2.432988 1_555
Na7 O43 2.481541 1_565
Na7 O65 2.592494 1_555
Na7 O8 2.807529 1_555
Na7 O22 2.953464 1_455
Na8 O6 2.466971 1_555
Na8 O42 2.473213 1_565
Na8 O44 2.474058 1_555
Na8 O64 2.510009 1_555
Na8 O63 2.516365 1_555
Na8 O27 2.569425 1_555
Na9 O26 2.414204 1_554
Na9 O47 2.435089 1_565
Na9 O45 2.448075 1_455
Na9 O61 2.533603 1_555
Na9 O62 2.629097 1_555
Na9 O11 2.789803 1_555
Na9 O18 2.825808 1_565
Na10 O60 2.340085 1_555
Na10 O9 2.404348 1_555
Na10 O45 2.416456 1_555
Na10 O46 2.611029 1_565
Na10 O62 2.624703 1_555
Na10 O24 2.869752 1_554
Na11 O10 2.383953 1_555
Na11 O47 2.393966 1_555
Na11 O61 2.478671 1_555
Na11 O46 2.563741 1_455
Na11 O60 2.604841 1_555
Na11 O25 2.656287 1_554
Na12 O40 2.356338 1_655
Na12 O19 2.412756 1_556
Na12 O55 2.440836 1_555
Na12 O41 2.592159 1_555
Na12 O54 2.655185 1_555
Na12 O4 2.889166 1_555
Na12 O26 2.930103 1_655
Na12 O33 3.009907 1_655
Na13 O5 2.400026 1_555
Na13 O39 2.433016 1_655
Na13 O55 2.486233 1_555
Na13 O56 2.503086 1_555
Na13 O41 2.654291 1_545
Na13 O34 2.773144 1_545
Na13 O20 2.875738 1_556
Na14 O56 2.391461 1_555
Na14 O18 2.472089 1_556
Na14 O39 2.548980 1_555
Na14 O40 2.565709 1_545
Na14 O54 2.638820 1_555
Na14 O3 2.667437 1_555
Na14 O25 2.791888 1_555
Na15 O37 2.403987 1_545
Na15 O59 2.450028 1_555
Na15 O57 2.510521 1_555
Na15 O2 2.583574 1_555
Na15 O38 2.669204 1_655
Na15 O23 2.817334 1_555
Na15 O30 2.848308 1_655
Na16 O57 2.495614 1_555
Na16 O36 2.503184 1_545
Na16 O38 2.517221 1_555
Na16 O21 2.547552 1_555
Na16 O29 2.694836 1_545
Na16 O58 2.731713 1_555
Na16 O0 2.789555 1_555
Na16 O31 2.818272 1_545
Na17 O22 2.470908 1_555
Na17 O59 2.482860 1_555
Na17 O58 2.487033 1_555
Na17 O36 2.490769 1_655
Na17 O37 2.597701 1_555
Na17 O27 2.656217 1_555
Na17 O1 2.810775 1_555
Na18 O44 2.409792 1_555
Na18 O36 2.470675 1_655
Na18 O43 2.472153 1_665
Na18 O37 2.573123 1_555
Na18 O42 2.606395 1_565
Na18 O38 2.786290 1_665
Na19 O39 2.393523 1_554
Na19 O40 2.418336 1_544
Na19 O47 2.482140 1_555
Na19 O45 2.518856 1_445
Na19 O46 2.651878 1_455
Na19 O41 2.709421 1_444
Na20 O56 2.363322 1_555
Na20 O55 2.474540 1_555
Na20 O48 2.499233 1_555
Na20 O49 2.519774 1_555
Na20 O54 2.630814 1_555
Na20 O50 2.755352 1_555
Na21 O59 2.398883 1_555
Na21 O52 2.443786 1_555
Na21 O51 2.459727 1_555
Na21 O57 2.483858 1_555
Na21 O58 2.571031 1_555
Na21 O53 2.607357 1_555
Na22 O61 2.366669 1_555
Na22 O60 2.376933 1_555
Na22 O68 2.494550 1_555
Na22 O67 2.523499 1_555
Na22 O66 2.621771 1_555
Na22 O62 2.628365 1_555
Na23 O71 2.329054 1_555
Na23 O63 2.374568 1_555
Na23 O64 2.390568 1_555
Na23 O69 2.402524 1_555
Na23 O70 2.566542 1_555
Na23 O65 2.709164 1_555
Al0 O1 1.772268 1_555
Al0 O37 1.810586 1_555
Al0 O2 1.863187 1_565
Al0 O36 1.917989 1_655
Al0 O0 2.302689 1_665
Al0 O38 2.412892 1_665
Al1 O6 1.845376 1_455
Al1 O7 1.871837 1_565
Al1 O43 1.959201 1_565
Al1 O8 1.973279 1_555
Al1 O44 2.014907 1_455
Al1 O42 2.196604 1_465
Al2 O13 1.762570 1_555
Al2 O14 1.821227 1_555
Al2 O49 1.834826 1_555
Al2 O48 1.891276 1_555
Al2 O12 2.184840 1_555
Al2 O50 2.335403 1_555
Al3 O15 1.761060 1_555
Al3 O17 1.832322 1_555
Al3 O51 1.855553 1_555
Al3 O52 1.964512 1_555
Al3 O16 2.253046 1_555
Al3 O53 2.421717 1_555
Al4 O22 1.850439 1_555
Al4 O21 1.892894 1_555
Al4 O57 1.952232 1_555
Al4 O23 1.998078 1_555
Al4 O59 2.066506 1_555
Al4 O58 2.193938 1_555
Al5 O30 1.848336 1_555
Al5 O67 1.912814 1_555
Al5 O31 1.913841 1_555
Al5 O68 1.963552 1_555
Al5 O32 2.026281 1_555
Al5 O66 2.041945 1_555
In0 O3 2.053742 1_555
In0 O5 2.088920 1_455
In0 O39 2.107781 1_555
In0 O40 2.163557 1_545
In0 O4 2.255410 1_445
In0 O41 2.361267 1_445
In1 O10 2.091386 1_655
In1 O45 2.130141 1_545
In1 O9 2.136788 1_545
In1 O47 2.172454 1_655
In1 O11 2.224161 1_645
In1 O46 2.269368 1_555
In2 O18 2.056588 1_556
In2 O19 2.096949 1_556
In2 O55 2.127087 1_555
In2 O20 2.168889 1_556
In2 O56 2.183422 1_555
In2 O54 2.265727 1_555
In3 O25 2.045861 1_554
In3 O26 2.071308 1_554
In3 O61 2.141602 1_555
In3 O60 2.182266 1_555
In3 O24 2.275417 1_554
In3 O62 2.396871 1_555
In4 O27 2.058190 1_555
In4 O29 2.109928 1_555
In4 O63 2.123464 1_555
In4 O64 2.215117 1_555
In4 O28 2.268735 1_555
In4 O65 2.428754 1_555
In5 O34 2.065764 1_555
In5 O33 2.093070 1_555
In5 O69 2.161128 1_555
In5 O35 2.168997 1_555
In5 O71 2.223090 1_555
In5 O70 2.300051 1_555
O0 S0 1.476189 1_545
O1 Si0 1.629951 1_555
O2 Si1 1.652503 1_655
O3 Si2 1.635526 1_555
O4 S1 1.486155 1_555
O5 Si3 1.644060 1_555
O6 Si3 1.639906 1_565
O7 Si2 1.643746 1_555
O8 S1 1.482863 1_455
O9 Si0 1.646604 1_555
O10 Si1 1.639967 1_555
O11 S0 1.489573 1_555
O12 S2 1.467751 1_555
O13 Si4 1.620530 1_555
O14 Si5 1.634409 1_555
O15 Si6 1.629650 1_555
O16 S3 1.477539 1_555
O17 Si7 1.650400 1_555
O18 Si7 1.634558 1_555
O19 Si6 1.635025 1_555
O20 S3 1.479576 1_555
O21 Si4 1.654639 1_555
O22 Si5 1.648859 1_555
O23 S2 1.492177 1_555
O24 S4 1.482203 1_555
O25 Si8 1.636184 1_555
O26 Si9 1.643691 1_555
O27 Si10 1.642883 1_555
O28 S5 1.494040 1_555
O29 Si11 1.651203 1_555
O30 Si11 1.634565 1_555
O31 Si10 1.644489 1_555
O32 S5 1.479240 1_555
O33 Si8 1.640534 1_555
O34 Si9 1.640463 1_555
O35 S4 1.479962 1_555
O36 Si11 1.675319 1_555
O37 Si10 1.654910 1_555
O38 S5 1.482698 1_555
O39 Si8 1.635631 1_555
O40 Si9 1.644577 1_555
O41 S4 1.476098 1_555
O42 S2 1.498987 1_555
O43 Si4 1.675117 1_555
O44 Si5 1.672891 1_555
O45 Si6 1.642529 1_555
O46 S3 1.490345 1_555
O47 Si7 1.641513 1_555
O48 Si3 1.664460 1_555
O49 Si2 1.651793 1_555
O50 S1 1.474108 1_555
O51 Si0 1.660180 1_555
O52 Si1 1.679599 1_655
O53 S0 1.486850 1_545
O54 S4 1.482485 1_555
O55 Si8 1.639408 1_655
O56 Si9 1.638936 1_545
O57 Si10 1.665857 1_545
O58 S5 1.495461 1_555
O59 Si11 1.663982 1_655
O60 Si7 1.659948 1_555
O61 Si6 1.644197 1_455
O62 S3 1.490555 1_565
O63 Si4 1.657195 1_565
O64 Si5 1.671060 1_555
O65 S2 1.495342 1_455
O66 S0 1.497266 1_555
O67 Si0 1.648320 1_555
O68 Si1 1.649182 1_555
O69 Si2 1.656189 1_555
O70 S1 1.494190 1_455
O71 Si3 1.653371 1_565
