# generated using pymatgen
data_MgCo6O7F5
_symmetry_space_group_name_H-M   'P 1'
_cell_length_a   5.06151478
_cell_length_b   7.41055748
_cell_length_c   5.62347575
_cell_angle_alpha   96.58119600
_cell_angle_beta   99.35326477
_cell_angle_gamma   83.46309205
_symmetry_Int_Tables_number   1
_chemical_formula_structural   MgCo6O7F5
_chemical_formula_sum   'Mg1 Co6 O7 F5'
_cell_volume   205.77543902
_cell_formula_units_Z   1
loop_
 _symmetry_equiv_pos_site_id
 _symmetry_equiv_pos_as_xyz
  1  'x, y, z'
loop_
 _atom_site_type_symbol
 _atom_site_label
 _atom_site_symmetry_multiplicity
 _atom_site_fract_x
 _atom_site_fract_y
 _atom_site_fract_z
 _atom_site_occupancy
  Mg  Mg0  1  0.49149200  0.83364500  0.82273800  1
  Co  Co0  1  0.57692900  0.02871500  0.42199600  1
  Co  Co1  1  0.49986900  0.32683700  0.82905600  1
  Co  Co2  1  0.46916600  0.63362900  0.22027900  1
  Co  Co3  1  0.98913400  0.64541800  0.67433600  1
  Co  Co4  1  0.00220500  0.31915300  0.32864200  1
  Co  Co5  1  0.99772100  0.00620100  0.99667000  1
  O  O0  1  0.86035400  0.08898200  0.29055000  1
  O  O1  1  0.63357000  0.76546500  0.50011000  1
  O  O2  1  0.66428800  0.08138500  0.80159200  1
  O  O3  1  0.67269300  0.41503700  0.14430100  1
  O  O4  1  0.34740800  0.57559500  0.86055000  1
  O  O5  1  0.33611600  0.23408300  0.50965800  1
  O  O6  1  0.34371000  0.90414600  0.14948700  1
  F  F0  1  0.82781700  0.40910100  0.63468300  1
  F  F1  1  0.84428500  0.75405800  0.98908700  1
  F  F2  1  0.17059900  0.24414000  0.01122300  1
  F  F3  1  0.12336800  0.90438400  0.69006500  1
  F  F4  1  0.14926800  0.56217200  0.35116800  1
loop_
_geom_bond_atom_site_label_1
_geom_bond_atom_site_label_2
_geom_bond_distance
_geom_bond_site_symmetry_2
Mg0 O1 2.048247 1_555
Mg0 O6 2.084816 1_556
Mg0 O2 2.144533 1_565
Mg0 O4 2.166814 1_555
Co0 O0 1.835767 1_555
Co0 O5 1.909400 1_555
Co0 O6 1.982385 1_545
Co0 O1 2.027077 1_545
Co0 O2 2.108577 1_555
Co1 O2 1.912506 1_555
Co1 O4 1.915935 1_555
Co1 O3 1.922406 1_556
Co1 O5 1.936062 1_555
Co1 F2 2.265821 1_556
Co1 F0 2.301001 1_555
Co2 O3 1.863405 1_555
Co2 O1 1.878906 1_555
Co2 O4 2.027977 1_554
Co2 F4 2.028751 1_555
Co2 O6 2.095562 1_555
Co3 O4 1.986472 1_655
Co3 F0 1.990007 1_555
Co3 O1 2.062123 1_555
Co3 F1 2.068653 1_555
Co3 F3 2.095413 1_655
Co3 F4 2.109061 1_655
Co4 O0 1.901545 1_455
Co4 O5 1.906658 1_555
Co4 O3 1.923070 1_455
Co4 F4 2.008896 1_555
Co4 F0 2.069336 1_455
Co4 F2 2.093057 1_555
Co5 O0 1.906544 1_556
Co5 O2 1.919985 1_555
Co5 O6 1.932751 1_646
Co5 F3 1.973709 1_645
Co5 F2 2.043623 1_656
Co5 F1 2.097068 1_545
F1 Mg0 1.937848 1_555
F3 Mg0 1.928367 1_555
