# generated using pymatgen
data_Nb4B3C2
_symmetry_space_group_name_H-M   'P 1'
_cell_length_a   19.01891597
_cell_length_b   19.01891597
_cell_length_c   3.15409800
_cell_angle_alpha   90.00000000
_cell_angle_beta   90.00000000
_cell_angle_gamma   170.18072903
_symmetry_Int_Tables_number   1
_chemical_formula_structural   Nb4B3C2
_chemical_formula_sum   'Nb8 B6 C4'
_cell_volume   194.56974630
_cell_formula_units_Z   2
loop_
 _symmetry_equiv_pos_site_id
 _symmetry_equiv_pos_as_xyz
  1  'x, y, z'
loop_
 _atom_site_type_symbol
 _atom_site_label
 _atom_site_symmetry_multiplicity
 _atom_site_fract_x
 _atom_site_fract_y
 _atom_site_fract_z
 _atom_site_occupancy
  Nb  Nb0  1  0.53579100  0.46420900  0.25000000  1
  Nb  Nb1  1  0.46420900  0.53579100  0.75000000  1
  Nb  Nb2  1  0.60544300  0.39455700  0.75000000  1
  Nb  Nb3  1  0.39455700  0.60544300  0.25000000  1
  Nb  Nb4  1  0.71946300  0.28053700  0.75000000  1
  Nb  Nb5  1  0.28053700  0.71946300  0.25000000  1
  Nb  Nb6  1  0.16213600  0.83786400  0.25000000  1
  Nb  Nb7  1  0.83786400  0.16213600  0.75000000  1
  B  B0  1  0.08541300  0.91458700  0.25000000  1
  B  B1  1  0.91458700  0.08541300  0.75000000  1
  B  B2  1  0.93972000  0.06028000  0.25000000  1
  B  B3  1  0.06028000  0.93972000  0.75000000  1
  B  B4  1  0.98821600  0.01178400  0.25000000  1
  B  B5  1  0.01178400  0.98821600  0.75000000  1
  C  C0  1  0.66171500  0.33828500  0.75000000  1
  C  C1  1  0.33828500  0.66171500  0.25000000  1
  C  C2  1  0.77978100  0.22021900  0.75000000  1
  C  C3  1  0.22021900  0.77978100  0.25000000  1
loop_
_geom_bond_atom_site_label_1
_geom_bond_atom_site_label_2
_geom_bond_distance
_geom_bond_site_symmetry_2
B0 B3 1.842372 1_554
B0 B3 1.842372 1_555
B0 Nb2 2.390148 1_454
B0 Nb2 2.390148 1_455
B0 Nb2 2.390148 1_564
B0 Nb2 2.390148 1_565
B0 Nb0 2.487186 1_455
B0 Nb0 2.487186 1_565
B0 Nb6 2.907669 1_555
B1 B2 1.842372 1_555
B1 B2 1.842372 1_556
B1 Nb3 2.390148 1_545
B1 Nb3 2.390148 1_546
B1 Nb3 2.390148 1_655
B1 Nb3 2.390148 1_656
B1 Nb1 2.487186 1_545
B1 Nb1 2.487186 1_655
B1 Nb7 2.907669 1_555
B2 B4 1.837914 1_555
B2 Nb3 2.362003 1_655
B2 Nb3 2.362003 1_545
B2 Nb1 2.449065 1_655
B2 Nb1 2.449065 1_654
B2 Nb1 2.449065 1_544
B2 Nb1 2.449065 1_545
B3 B5 1.837914 1_555
B3 Nb2 2.362003 1_455
B3 Nb2 2.362003 1_565
B3 Nb0 2.449065 1_566
B3 Nb0 2.449065 1_565
B3 Nb0 2.449065 1_455
B3 Nb0 2.449065 1_456
B4 B5 1.812420 1_645
B4 B5 1.812420 1_644
B4 Nb0 2.429060 1_545
B4 Nb0 2.429060 1_655
B4 Nb1 2.442202 1_545
B4 Nb1 2.442202 1_544
B4 Nb1 2.442202 1_655
B4 Nb1 2.442202 1_654
B5 Nb1 2.429060 1_455
B5 Nb1 2.429060 1_565
B5 Nb0 2.442202 1_455
B5 Nb0 2.442202 1_456
B5 Nb0 2.442202 1_566
B5 Nb0 2.442202 1_565
C0 Nb2 2.132611 1_555
C0 Nb4 2.188549 1_555
C0 Nb6 2.266456 1_655
C0 Nb6 2.266456 1_546
C0 Nb6 2.266456 1_545
C0 Nb6 2.266456 1_656
C1 Nb3 2.132611 1_555
C1 Nb5 2.188549 1_555
C1 Nb7 2.266456 1_454
C1 Nb7 2.266456 1_565
C1 Nb7 2.266456 1_564
C1 Nb7 2.266456 1_455
C2 Nb7 2.201245 1_555
C2 Nb5 2.266581 1_545
C2 Nb5 2.266581 1_655
C2 Nb5 2.266581 1_656
C2 Nb5 2.266581 1_546
C2 Nb4 2.285948 1_555
C3 Nb6 2.201245 1_555
C3 Nb4 2.266581 1_565
C3 Nb4 2.266581 1_564
C3 Nb4 2.266581 1_455
C3 Nb4 2.266581 1_454
C3 Nb5 2.285948 1_555
