# generated using pymatgen
data_Ba3(GaS3)2
_symmetry_space_group_name_H-M   'P 1'
_cell_length_a   8.58537267
_cell_length_b   8.58537267
_cell_length_c   9.16128226
_cell_angle_alpha   89.05588487
_cell_angle_beta   89.05588487
_cell_angle_gamma   115.69613449
_symmetry_Int_Tables_number   1
_chemical_formula_structural   Ba3(GaS3)2
_chemical_formula_sum   'Ba6 Ga4 S12'
_cell_volume   608.19424818
_cell_formula_units_Z   2
loop_
 _symmetry_equiv_pos_site_id
 _symmetry_equiv_pos_as_xyz
  1  'x, y, z'
loop_
 _atom_site_type_symbol
 _atom_site_label
 _atom_site_symmetry_multiplicity
 _atom_site_fract_x
 _atom_site_fract_y
 _atom_site_fract_z
 _atom_site_occupancy
  Ba  Ba0  1  0.03594651  0.96405349  0.75000000  1
  Ba  Ba1  1  0.96405349  0.03594651  0.25000000  1
  Ba  Ba2  1  0.26545042  0.54174760  0.50908981  1
  Ba  Ba3  1  0.45825240  0.73454958  0.99091019  1
  Ba  Ba4  1  0.73454958  0.45825240  0.49091019  1
  Ba  Ba5  1  0.54174760  0.26545042  0.00908981  1
  Ga  Ga0  1  0.98031379  0.65399320  0.06771486  1
  Ga  Ga1  1  0.34600680  0.01968621  0.43228514  1
  Ga  Ga2  1  0.01968621  0.34600680  0.93228514  1
  Ga  Ga3  1  0.65399320  0.98031379  0.56771486  1
  S  S0  1  0.53091913  0.91598058  0.33454055  1
  S  S1  1  0.08401942  0.46908087  0.16545945  1
  S  S2  1  0.46908087  0.08401942  0.66545945  1
  S  S3  1  0.91598058  0.53091913  0.83454055  1
  S  S4  1  0.26898514  0.36797475  0.83301122  1
  S  S5  1  0.63202525  0.73101486  0.66698878  1
  S  S6  1  0.73101486  0.63202525  0.16698878  1
  S  S7  1  0.36797475  0.26898514  0.33301122  1
  S  S8  1  0.20146505  0.91804806  0.04202773  1
  S  S9  1  0.08195194  0.79853495  0.45797227  1
  S  S10  1  0.91804806  0.20146505  0.54202773  1
  S  S11  1  0.79853495  0.08195194  0.95797227  1
loop_
_geom_bond_atom_site_label_1
_geom_bond_atom_site_label_2
_geom_bond_distance
_geom_bond_site_symmetry_2
Ba0 S9 3.148022 1_555
Ba0 S8 3.148022 1_556
Ba0 S10 3.245604 1_465
Ba0 S11 3.245604 1_465
Ba0 S5 3.275255 1_455
Ba0 S4 3.275255 1_565
Ba0 S2 3.470767 1_565
Ba0 S3 3.470767 1_455
Ba1 S11 3.148022 1_554
Ba1 S10 3.148022 1_555
Ba1 S8 3.245604 1_645
Ba1 S9 3.245604 1_645
Ba1 S6 3.275255 1_545
Ba1 S7 3.275255 1_655
Ba1 S1 3.470767 1_655
Ba1 S0 3.470767 1_545
Ba2 S10 3.147494 1_455
Ba2 S5 3.229608 1_555
Ba2 S9 3.250189 1_555
Ba2 S7 3.275050 1_555
Ba2 S4 3.305949 1_555
Ba2 S0 3.381547 1_555
Ba2 S1 3.479885 1_555
Ba3 S11 3.147494 1_565
Ba3 S4 3.229608 1_555
Ba3 S8 3.250189 1_556
Ba3 S6 3.275050 1_556
Ba3 S5 3.305949 1_555
Ba3 S1 3.381547 1_556
Ba3 S0 3.479885 1_556
Ba4 S9 3.147494 1_655
Ba4 S7 3.229608 1_555
Ba4 S10 3.250189 1_555
Ba4 S5 3.275050 1_555
Ba4 S6 3.305949 1_555
Ba4 S2 3.381547 1_555
Ba4 S3 3.479885 1_555
Ba5 S8 3.147494 1_545
Ba5 S6 3.229608 1_555
Ba5 S11 3.250189 1_554
Ba5 S4 3.275050 1_554
Ba5 S7 3.305949 1_555
Ba5 S3 3.381547 1_554
Ba5 S2 3.479885 1_554
Ga0 S6 2.241393 1_555
Ga0 S8 2.243807 1_655
Ga0 S1 2.306524 1_655
Ga0 S3 2.364731 1_554
Ga1 S7 2.241393 1_555
Ga1 S9 2.243807 1_545
Ga1 S0 2.306524 1_545
Ga1 S2 2.364731 1_555
Ga2 S4 2.241393 1_555
Ga2 S11 2.243807 1_455
Ga2 S3 2.306524 1_455
Ga2 S1 2.364731 1_556
Ga3 S5 2.241393 1_555
Ga3 S10 2.243807 1_565
Ga3 S2 2.306524 1_565
Ga3 S0 2.364731 1_555
