# generated using pymatgen
data_CoCuH18N6Cl5
_symmetry_space_group_name_H-M   'P 1'
_cell_length_a   15.77201144
_cell_length_b   15.77201091
_cell_length_c   15.77201082
_cell_angle_alpha   60.00000019
_cell_angle_beta   60.00000129
_cell_angle_gamma   60.00000101
_symmetry_Int_Tables_number   1
_chemical_formula_structural   CoCuH18N6Cl5
_chemical_formula_sum   'Co8 Cu8 H144 N48 Cl40'
_cell_volume   2774.25405113
_cell_formula_units_Z   8
loop_
 _symmetry_equiv_pos_site_id
 _symmetry_equiv_pos_as_xyz
  1  'x, y, z'
loop_
 _atom_site_type_symbol
 _atom_site_label
 _atom_site_symmetry_multiplicity
 _atom_site_fract_x
 _atom_site_fract_y
 _atom_site_fract_z
 _atom_site_occupancy
  H  H0  1  0.94264083  0.05464512  0.15533145  1
  H  H1  1  0.44535488  0.34466855  0.15261740  1
  H  H2  1  0.15261740  0.55735917  0.44535488  1
  H  H3  1  0.44535488  0.15261740  0.55735917  1
  H  H4  1  0.34466855  0.55735917  0.15261740  1
  H  H5  1  0.34466855  0.15261740  0.44535488  1
  H  H6  1  0.15261740  0.34466855  0.55735917  1
  H  H7  1  0.15533145  0.94264083  0.05464512  1
  H  H8  1  0.05464512  0.15533145  0.94264083  1
  H  H9  1  0.34738260  0.94264083  0.15533145  1
  H  H10  1  0.05464512  0.34738260  0.15533145  1
  H  H11  1  0.34738260  0.05464512  0.94264083  1
  H  H12  1  0.15533145  0.05464512  0.34738260  1
  H  H13  1  0.94264083  0.15533145  0.34738260  1
  H  H14  1  0.94264083  0.34738260  0.05464512  1
  H  H15  1  0.15261740  0.44535488  0.34466855  1
  H  H16  1  0.55735917  0.15261740  0.34466855  1
  H  H17  1  0.55735917  0.44535488  0.15261740  1
  H  H18  1  0.44535488  0.55735917  0.34466855  1
  H  H19  1  0.34466855  0.44535488  0.55735917  1
  H  H20  1  0.55735917  0.34466855  0.44535488  1
  H  H21  1  0.15533145  0.34738260  0.94264083  1
  H  H22  1  0.34738260  0.15533145  0.05464512  1
  H  H23  1  0.05464512  0.94264083  0.34738260  1
  H  H24  1  0.05735917  0.94535488  0.84466855  1
  H  H25  1  0.55464512  0.65533145  0.84738260  1
  H  H26  1  0.84738260  0.44264083  0.55464512  1
  H  H27  1  0.55464512  0.84738260  0.44264083  1
  H  H28  1  0.65533145  0.44264083  0.84738260  1
  H  H29  1  0.65533145  0.84738260  0.55464512  1
  H  H30  1  0.84738260  0.65533145  0.44264083  1
  H  H31  1  0.84466855  0.05735917  0.94535488  1
  H  H32  1  0.94535488  0.84466855  0.05735917  1
  H  H33  1  0.65261740  0.05735917  0.84466855  1
  H  H34  1  0.94535488  0.65261740  0.84466855  1
  H  H35  1  0.65261740  0.94535488  0.05735917  1
  H  H36  1  0.84466855  0.94535488  0.65261740  1
  H  H37  1  0.05735917  0.84466855  0.65261740  1
  H  H38  1  0.05735917  0.65261740  0.94535488  1
  H  H39  1  0.84738260  0.55464512  0.65533145  1
  H  H40  1  0.44264083  0.84738260  0.65533145  1
  H  H41  1  0.44264083  0.55464512  0.84738260  1
  H  H42  1  0.55464512  0.44264083  0.65533145  1
  H  H43  1  0.65533145  0.55464512  0.44264083  1
  H  H44  1  0.44264083  0.65533145  0.55464512  1
  H  H45  1  0.84466855  0.65261740  0.05735917  1
  H  H46  1  0.65261740  0.84466855  0.94535488  1
  H  H47  1  0.94535488  0.05735917  0.65261740  1
  H  H48  1  0.00175868  0.92684225  0.18368537  1
  H  H49  1  0.57315775  0.31631463  0.11228630  1
  H  H50  1  0.11228630  0.49824132  0.57315775  1
  H  H51  1  0.57315775  0.11228630  0.49824132  1
  H  H52  1  0.31631463  0.49824132  0.11228630  1
  H  H53  1  0.31631463  0.11228630  0.57315775  1
  H  H54  1  0.11228630  0.31631463  0.49824132  1
  H  H55  1  0.18368537  0.00175868  0.92684225  1
  H  H56  1  0.92684225  0.18368537  0.00175868  1
  H  H57  1  0.38771370  0.00175868  0.18368537  1
  H  H58  1  0.92684225  0.38771370  0.18368537  1
  H  H59  1  0.38771370  0.92684225  0.00175868  1
  H  H60  1  0.18368537  0.92684225  0.38771370  1
  H  H61  1  0.00175868  0.18368537  0.38771370  1
  H  H62  1  0.00175868  0.38771370  0.92684225  1
  H  H63  1  0.11228630  0.57315775  0.31631463  1
  H  H64  1  0.49824132  0.11228630  0.31631463  1
  H  H65  1  0.49824132  0.57315775  0.11228630  1
  H  H66  1  0.57315775  0.49824132  0.31631463  1
  H  H67  1  0.31631463  0.57315775  0.49824132  1
  H  H68  1  0.49824132  0.31631463  0.57315775  1
  H  H69  1  0.18368537  0.38771370  0.00175868  1
  H  H70  1  0.38771370  0.18368537  0.92684225  1
  H  H71  1  0.92684225  0.00175868  0.38771370  1
  H  H72  1  0.99824132  0.07315775  0.81631463  1
  H  H73  1  0.42684225  0.68368537  0.88771370  1
  H  H74  1  0.88771370  0.50175868  0.42684225  1
  H  H75  1  0.42684225  0.88771370  0.50175868  1
  H  H76  1  0.68368537  0.50175868  0.88771370  1
  H  H77  1  0.68368537  0.88771370  0.42684225  1
  H  H78  1  0.88771370  0.68368537  0.50175868  1
  H  H79  1  0.81631463  0.99824132  0.07315775  1
  H  H80  1  0.07315775  0.81631463  0.99824132  1
  H  H81  1  0.61228630  0.99824132  0.81631463  1
  H  H82  1  0.07315775  0.61228630  0.81631463  1
  H  H83  1  0.61228630  0.07315775  0.99824132  1
  H  H84  1  0.81631463  0.07315775  0.61228630  1
  H  H85  1  0.99824132  0.81631463  0.61228630  1
  H  H86  1  0.99824132  0.61228630  0.07315775  1
  H  H87  1  0.88771370  0.42684225  0.68368537  1
  H  H88  1  0.50175868  0.88771370  0.68368537  1
  H  H89  1  0.50175868  0.42684225  0.88771370  1
  H  H90  1  0.42684225  0.50175868  0.68368537  1
  H  H91  1  0.68368537  0.42684225  0.50175868  1
  H  H92  1  0.50175868  0.68368537  0.42684225  1
  H  H93  1  0.81631463  0.61228630  0.99824132  1
  H  H94  1  0.61228630  0.81631463  0.07315775  1
  H  H95  1  0.07315775  0.99824132  0.61228630  1
  H  H96  1  0.88066716  0.97760144  0.18683279  1
  H  H97  1  0.52239856  0.31316721  0.04510139  1
  H  H98  1  0.04510139  0.61933284  0.52239856  1
  H  H99  1  0.52239856  0.04510139  0.61933284  1
  H  H100  1  0.31316721  0.61933284  0.04510139  1
  H  H101  1  0.31316721  0.04510139  0.52239856  1
  H  H102  1  0.04510139  0.31316721  0.61933284  1
  H  H103  1  0.18683279  0.88066716  0.97760144  1
  H  H104  1  0.97760144  0.18683279  0.88066716  1
  H  H105  1  0.45489861  0.88066716  0.18683279  1
  H  H106  1  0.97760144  0.45489861  0.18683279  1
  H  H107  1  0.45489861  0.97760144  0.88066716  1
  H  H108  1  0.18683279  0.97760144  0.45489861  1
  H  H109  1  0.88066716  0.18683279  0.45489861  1
  H  H110  1  0.88066716  0.45489861  0.97760144  1
  H  H111  1  0.04510139  0.52239856  0.31316721  1
  H  H112  1  0.61933284  0.04510139  0.31316721  1
  H  H113  1  0.61933284  0.52239856  0.04510139  1
  H  H114  1  0.52239856  0.61933284  0.31316721  1
  H  H115  1  0.31316721  0.52239856  0.61933284  1
  H  H116  1  0.61933284  0.31316721  0.52239856  1
  H  H117  1  0.18683279  0.45489861  0.88066716  1
  H  H118  1  0.45489861  0.18683279  0.97760144  1
  H  H119  1  0.97760144  0.88066716  0.45489861  1
  H  H120  1  0.11933284  0.02239856  0.81316721  1
  H  H121  1  0.47760144  0.68683279  0.95489861  1
  H  H122  1  0.95489861  0.38066716  0.47760144  1
  H  H123  1  0.47760144  0.95489861  0.38066716  1
  H  H124  1  0.68683279  0.38066716  0.95489861  1
  H  H125  1  0.68683279  0.95489861  0.47760144  1
  H  H126  1  0.95489861  0.68683279  0.38066716  1
  H  H127  1  0.81316721  0.11933284  0.02239856  1
  H  H128  1  0.02239856  0.81316721  0.11933284  1
  H  H129  1  0.54510139  0.11933284  0.81316721  1
  H  H130  1  0.02239856  0.54510139  0.81316721  1
  H  H131  1  0.54510139  0.02239856  0.11933284  1
  H  H132  1  0.81316721  0.02239856  0.54510139  1
  H  H133  1  0.11933284  0.81316721  0.54510139  1
  H  H134  1  0.11933284  0.54510139  0.02239856  1
  H  H135  1  0.95489861  0.47760144  0.68683279  1
  H  H136  1  0.38066716  0.95489861  0.68683279  1
  H  H137  1  0.38066716  0.47760144  0.95489861  1
  H  H138  1  0.47760144  0.38066716  0.68683279  1
  H  H139  1  0.68683279  0.47760144  0.38066716  1
  H  H140  1  0.38066716  0.68683279  0.47760144  1
  H  H141  1  0.81316721  0.54510139  0.11933284  1
  H  H142  1  0.54510139  0.81316721  0.02239856  1
  H  H143  1  0.02239856  0.11933284  0.54510139  1
  N  N0  1  0.95110071  0.99002450  0.14632990  1
  N  N1  1  0.50997550  0.35367010  0.08745510  1
  N  N2  1  0.08745510  0.54889929  0.50997550  1
  N  N3  1  0.50997550  0.08745510  0.54889929  1
  N  N4  1  0.35367010  0.54889929  0.08745510  1
  N  N5  1  0.35367010  0.08745510  0.50997550  1
  N  N6  1  0.08745510  0.35367010  0.54889929  1
  N  N7  1  0.14632990  0.95110071  0.99002450  1
  N  N8  1  0.99002450  0.14632990  0.95110071  1
  N  N9  1  0.41254490  0.95110071  0.14632990  1
  N  N10  1  0.99002450  0.41254490  0.14632990  1
  N  N11  1  0.41254490  0.99002450  0.95110071  1
  N  N12  1  0.14632990  0.99002450  0.41254490  1
  N  N13  1  0.95110071  0.14632990  0.41254490  1
  N  N14  1  0.95110071  0.41254490  0.99002450  1
  N  N15  1  0.08745510  0.50997550  0.35367010  1
  N  N16  1  0.54889929  0.08745510  0.35367010  1
  N  N17  1  0.54889929  0.50997550  0.08745510  1
  N  N18  1  0.50997550  0.54889929  0.35367010  1
  N  N19  1  0.35367010  0.50997550  0.54889929  1
  N  N20  1  0.54889929  0.35367010  0.50997550  1
  N  N21  1  0.14632990  0.41254490  0.95110071  1
  N  N22  1  0.41254490  0.14632990  0.99002450  1
  N  N23  1  0.99002450  0.95110071  0.41254490  1
  N  N24  1  0.04889929  0.00997550  0.85367010  1
  N  N25  1  0.49002450  0.64632990  0.91254490  1
  N  N26  1  0.91254490  0.45110071  0.49002450  1
  N  N27  1  0.49002450  0.91254490  0.45110071  1
  N  N28  1  0.64632990  0.45110071  0.91254490  1
  N  N29  1  0.64632990  0.91254490  0.49002450  1
  N  N30  1  0.91254490  0.64632990  0.45110071  1
  N  N31  1  0.85367010  0.04889929  0.00997550  1
  N  N32  1  0.00997550  0.85367010  0.04889929  1
  N  N33  1  0.58745510  0.04889929  0.85367010  1
  N  N34  1  0.00997550  0.58745510  0.85367010  1
  N  N35  1  0.58745510  0.00997550  0.04889929  1
  N  N36  1  0.85367010  0.00997550  0.58745510  1
  N  N37  1  0.04889929  0.85367010  0.58745510  1
  N  N38  1  0.04889929  0.58745510  0.00997550  1
  N  N39  1  0.91254490  0.49002450  0.64632990  1
  N  N40  1  0.45110071  0.91254490  0.64632990  1
  N  N41  1  0.45110071  0.49002450  0.91254490  1
  N  N42  1  0.49002450  0.45110071  0.64632990  1
  N  N43  1  0.64632990  0.49002450  0.45110071  1
  N  N44  1  0.45110071  0.64632990  0.49002450  1
  N  N45  1  0.85367010  0.58745510  0.04889929  1
  N  N46  1  0.58745510  0.85367010  0.00997550  1
  N  N47  1  0.00997550  0.04889929  0.58745510  1
  Cl  Cl0  1  0.19046430  0.19046430  0.19046430  1
  Cl  Cl1  1  0.30953570  0.30953570  0.57139289  1
  Cl  Cl2  1  0.57139289  0.30953570  0.30953570  1
  Cl  Cl3  1  0.30953570  0.57139289  0.30953570  1
  Cl  Cl4  1  0.92860711  0.19046430  0.19046430  1
  Cl  Cl5  1  0.19046430  0.92860711  0.19046430  1
  Cl  Cl6  1  0.19046430  0.19046430  0.92860711  1
  Cl  Cl7  1  0.30953570  0.30953570  0.30953570  1
  Cl  Cl8  1  0.80953570  0.80953570  0.80953570  1
  Cl  Cl9  1  0.69046430  0.69046430  0.42860711  1
  Cl  Cl10  1  0.42860711  0.69046430  0.69046430  1
  Cl  Cl11  1  0.69046430  0.42860711  0.69046430  1
  Cl  Cl12  1  0.07139289  0.80953570  0.80953570  1
  Cl  Cl13  1  0.80953570  0.07139289  0.80953570  1
  Cl  Cl14  1  0.80953570  0.80953570  0.07139289  1
  Cl  Cl15  1  0.69046430  0.69046430  0.69046430  1
  Cl  Cl16  1  0.75000000  0.09541960  0.40458040  1
  Cl  Cl17  1  0.40458040  0.09541960  0.25000000  1
  Cl  Cl18  1  0.25000000  0.75000000  0.40458040  1
  Cl  Cl19  1  0.40458040  0.25000000  0.75000000  1
  Cl  Cl20  1  0.09541960  0.75000000  0.25000000  1
  Cl  Cl21  1  0.09541960  0.25000000  0.40458040  1
  Cl  Cl22  1  0.25000000  0.09541960  0.75000000  1
  Cl  Cl23  1  0.40458040  0.75000000  0.09541960  1
  Cl  Cl24  1  0.09541960  0.40458040  0.75000000  1
  Cl  Cl25  1  0.75000000  0.40458040  0.25000000  1
  Cl  Cl26  1  0.75000000  0.25000000  0.09541960  1
  Cl  Cl27  1  0.25000000  0.40458040  0.09541960  1
  Cl  Cl28  1  0.25000000  0.90458040  0.59541960  1
  Cl  Cl29  1  0.59541960  0.90458040  0.75000000  1
  Cl  Cl30  1  0.75000000  0.25000000  0.59541960  1
  Cl  Cl31  1  0.59541960  0.75000000  0.25000000  1
  Cl  Cl32  1  0.90458040  0.25000000  0.75000000  1
  Cl  Cl33  1  0.90458040  0.75000000  0.59541960  1
  Cl  Cl34  1  0.75000000  0.90458040  0.25000000  1
  Cl  Cl35  1  0.59541960  0.25000000  0.90458040  1
  Cl  Cl36  1  0.90458040  0.59541960  0.25000000  1
  Cl  Cl37  1  0.25000000  0.59541960  0.75000000  1
  Cl  Cl38  1  0.25000000  0.75000000  0.90458040  1
  Cl  Cl39  1  0.75000000  0.59541960  0.90458040  1
  Co  Co0  1  0.00000000  0.00000000  0.00000000  1
  Co  Co1  1  0.50000000  0.50000000  0.00000000  1
  Co  Co2  1  0.00000000  0.50000000  0.50000000  1
  Co  Co3  1  0.50000000  0.00000000  0.50000000  1
  Co  Co4  1  0.50000000  0.00000000  0.00000000  1
  Co  Co5  1  0.00000000  0.50000000  0.00000000  1
  Co  Co6  1  0.00000000  0.00000000  0.50000000  1
  Co  Co7  1  0.50000000  0.50000000  0.50000000  1
  Cu  Cu0  1  0.25000000  0.25000000  0.25000000  1
  Cu  Cu1  1  0.25000000  0.25000000  0.75000000  1
  Cu  Cu2  1  0.75000000  0.25000000  0.25000000  1
  Cu  Cu3  1  0.25000000  0.75000000  0.25000000  1
  Cu  Cu4  1  0.75000000  0.75000000  0.75000000  1
  Cu  Cu5  1  0.75000000  0.75000000  0.25000000  1
  Cu  Cu6  1  0.25000000  0.75000000  0.75000000  1
  Cu  Cu7  1  0.75000000  0.25000000  0.75000000  1
loop_
_geom_bond_atom_site_label_1
_geom_bond_atom_site_label_2
_geom_bond_distance
_geom_bond_site_symmetry_2
H0 N0 1.032708 1_545
H1 N1 1.032708 1_555
H2 N2 1.032708 1_555
H3 N3 1.032708 1_555
H4 N4 1.032708 1_555
H5 N5 1.032708 1_555
H6 N6 1.032708 1_555
H7 N7 1.032708 1_554
H8 N8 1.032708 1_455
H9 N9 1.032708 1_555
H10 N10 1.032708 1_455
H11 N11 1.032708 1_545
H12 N12 1.032708 1_545
H13 N13 1.032708 1_555
H14 N14 1.032708 1_554
H15 N15 1.032708 1_555
H16 N16 1.032708 1_555
H17 N17 1.032708 1_555
H18 N18 1.032708 1_555
H19 N19 1.032708 1_555
H20 N20 1.032708 1_555
H21 N21 1.032708 1_555
H22 N22 1.032708 1_554
H23 N23 1.032708 1_455
H24 N24 1.032708 1_565
H25 N25 1.032708 1_555
H26 N26 1.032708 1_555
H27 N27 1.032708 1_555
H28 N28 1.032708 1_555
H29 N29 1.032708 1_555
H30 N30 1.032708 1_555
H31 N31 1.032708 1_556
H32 N32 1.032708 1_655
H33 N33 1.032708 1_555
H34 N34 1.032708 1_655
H35 N35 1.032708 1_565
H36 N36 1.032708 1_565
H37 N37 1.032708 1_555
H38 N38 1.032708 1_556
H39 N39 1.032708 1_555
H40 N40 1.032708 1_555
H41 N41 1.032708 1_555
H42 N42 1.032708 1_555
H43 N43 1.032708 1_555
H44 N44 1.032708 1_555
H45 N45 1.032708 1_555
H46 N46 1.032708 1_556
H47 N47 1.032708 1_655
H48 N0 1.032449 1_455
H49 N1 1.032449 1_555
H50 N2 1.032449 1_555
H51 N3 1.032449 1_555
H52 N4 1.032449 1_555
H53 N5 1.032449 1_555
H54 N6 1.032449 1_555
H55 N7 1.032449 1_545
H56 N8 1.032449 1_554
H57 N9 1.032449 1_545
H58 N10 1.032449 1_555
H59 N11 1.032449 1_554
H60 N12 1.032449 1_555
H61 N13 1.032449 1_455
H62 N14 1.032449 1_455
H63 N15 1.032449 1_555
H64 N16 1.032449 1_555
H65 N17 1.032449 1_555
H66 N18 1.032449 1_555
H67 N19 1.032449 1_555
H68 N20 1.032449 1_555
H69 N21 1.032449 1_554
H70 N22 1.032449 1_555
H71 N23 1.032449 1_545
H72 N24 1.032449 1_655
H73 N25 1.032449 1_555
H74 N26 1.032449 1_555
H75 N27 1.032449 1_555
H76 N28 1.032449 1_555
H77 N29 1.032449 1_555
H78 N30 1.032449 1_555
H79 N31 1.032449 1_565
H80 N32 1.032449 1_556
H81 N33 1.032449 1_565
H82 N34 1.032449 1_555
H83 N35 1.032449 1_556
H84 N36 1.032449 1_555
H85 N37 1.032449 1_655
H86 N38 1.032449 1_655
H87 N39 1.032449 1_555
H88 N40 1.032449 1_555
H89 N41 1.032449 1_555
H90 N42 1.032449 1_555
H91 N43 1.032449 1_555
H92 N44 1.032449 1_555
H93 N45 1.032449 1_556
H94 N46 1.032449 1_555
H95 N47 1.032449 1_565
H96 N0 1.031201 1_555
H97 N1 1.031201 1_555
H98 N2 1.031201 1_555
H99 N3 1.031201 1_555
H100 N4 1.031201 1_555
H101 N5 1.031201 1_555
H102 N6 1.031201 1_555
H103 N7 1.031201 1_555
H104 N8 1.031201 1_555
H105 N9 1.031201 1_555
H106 N10 1.031201 1_555
H107 N11 1.031201 1_555
H108 N12 1.031201 1_555
H109 N13 1.031201 1_555
H110 N14 1.031201 1_555
H111 N15 1.031201 1_555
H112 N16 1.031201 1_555
H113 N17 1.031201 1_555
H114 N18 1.031201 1_555
H115 N19 1.031201 1_555
H116 N20 1.031201 1_555
H117 N21 1.031201 1_555
H118 N22 1.031201 1_555
H119 N23 1.031201 1_555
H120 N24 1.031201 1_555
H121 N25 1.031201 1_555
H122 N26 1.031201 1_555
H123 N27 1.031201 1_555
H124 N28 1.031201 1_555
H125 N29 1.031201 1_555
H126 N30 1.031201 1_555
H127 N31 1.031201 1_555
H128 N32 1.031201 1_555
H129 N33 1.031201 1_555
H130 N34 1.031201 1_555
H131 N35 1.031201 1_555
H132 N36 1.031201 1_555
H133 N37 1.031201 1_555
H134 N38 1.031201 1_555
H135 N39 1.031201 1_555
H136 N40 1.031201 1_555
H137 N41 1.031201 1_555
H138 N42 1.031201 1_555
H139 N43 1.031201 1_555
H140 N44 1.031201 1_555
H141 N45 1.031201 1_555
H142 N46 1.031201 1_555
H143 N47 1.031201 1_555
Cl0 Cu0 2.300065 1_555
Cl1 Cu1 2.300065 1_555
Cl2 Cu2 2.300066 1_555
Cl3 Cu3 2.300065 1_555
Cl4 Cu2 2.300066 1_555
Cl5 Cu3 2.300065 1_555
Cl6 Cu1 2.300065 1_555
Cl7 Cu0 2.300065 1_555
Cl8 Cu4 2.300065 1_555
Cl9 Cu5 2.300065 1_555
Cl10 Cu6 2.300066 1_555
Cl11 Cu7 2.300065 1_555
Cl12 Cu6 2.300066 1_555
Cl13 Cu7 2.300065 1_555
Cl14 Cu5 2.300065 1_555
Cl15 Cu4 2.300065 1_555
Cl16 Cu2 2.438044 1_555
Cl17 Cu0 2.438044 1_555
Cl18 Cu3 2.438044 1_555
Cl19 Cu1 2.438044 1_555
Cl20 Cu3 2.438044 1_555
Cl21 Cu0 2.438044 1_555
Cl22 Cu1 2.438044 1_555
Cl23 Cu3 2.438044 1_555
Cl24 Cu1 2.438044 1_555
Cl25 Cu2 2.438044 1_555
Cl26 Cu2 2.438044 1_555
Cl27 Cu0 2.438044 1_555
Cl28 Cu6 2.438044 1_555
Cl29 Cu4 2.438044 1_555
Cl30 Cu7 2.438044 1_555
Cl31 Cu5 2.438044 1_555
Cl32 Cu7 2.438044 1_555
Cl33 Cu4 2.438044 1_555
Cl34 Cu5 2.438044 1_555
Cl35 Cu7 2.438044 1_555
Cl36 Cu5 2.438044 1_555
Cl37 Cu6 2.438044 1_555
Cl38 Cu6 2.438044 1_555
Cl39 Cu4 2.438044 1_555
Co0 N24 1.980989 1_554
Co0 N0 1.980989 1_445
Co0 N8 1.980989 1_454
Co0 N32 1.980989 1_545
Co0 N7 1.980989 1_544
Co0 N31 1.980989 1_455
Co1 N41 1.980989 1_554
Co1 N17 1.980989 1_555
Co1 N25 1.980989 1_554
Co1 N1 1.980989 1_555
Co1 N28 1.980989 1_554
Co1 N4 1.980989 1_555
Co2 N26 1.980989 1_455
Co2 N2 1.980989 1_555
Co2 N30 1.980989 1_455
Co2 N6 1.980989 1_555
Co2 N15 1.980989 1_555
Co2 N39 1.980989 1_455
Co3 N27 1.980988 1_545
Co3 N3 1.980988 1_555
Co3 N40 1.980989 1_545
Co3 N16 1.980989 1_555
Co3 N5 1.980989 1_555
Co3 N29 1.980989 1_545
Co4 N35 1.980989 1_555
Co4 N11 1.980989 1_544
Co4 N9 1.980989 1_545
Co4 N33 1.980989 1_554
Co4 N22 1.980989 1_554
Co4 N46 1.980989 1_545
Co5 N38 1.980989 1_555
Co5 N14 1.980989 1_454
Co5 N34 1.980989 1_554
Co5 N10 1.980989 1_455
Co5 N21 1.980989 1_554
Co5 N45 1.980989 1_455
Co6 N47 1.980988 1_555
Co6 N23 1.980988 1_445
Co6 N37 1.980989 1_545
Co6 N13 1.980989 1_455
Co6 N12 1.980989 1_545
Co6 N36 1.980989 1_455
Co7 N42 1.980989 1_555
Co7 N18 1.980989 1_555
Co7 N20 1.980989 1_555
Co7 N44 1.980989 1_555
Co7 N19 1.980989 1_555
Co7 N43 1.980989 1_555
