# generated using pymatgen
data_Ho3InS6
_symmetry_space_group_name_H-M   'P 1'
_cell_length_a   3.81926147
_cell_length_b   13.43007368
_cell_length_c   16.41332843
_cell_angle_alpha   90.00000000
_cell_angle_beta   90.00000000
_cell_angle_gamma   90.00000000
_symmetry_Int_Tables_number   1
_chemical_formula_structural   Ho3InS6
_chemical_formula_sum   'Ho12 In4 S24'
_cell_volume   841.88824697
_cell_formula_units_Z   4
loop_
 _symmetry_equiv_pos_site_id
 _symmetry_equiv_pos_as_xyz
  1  'x, y, z'
loop_
 _atom_site_type_symbol
 _atom_site_label
 _atom_site_symmetry_multiplicity
 _atom_site_fract_x
 _atom_site_fract_y
 _atom_site_fract_z
 _atom_site_occupancy
  Ho  Ho0  1  0.24910487  0.03858407  0.77538650  1
  Ho  Ho1  1  0.24910487  0.96141593  0.22461350  1
  Ho  Ho2  1  0.75089513  0.46141593  0.27538650  1
  Ho  Ho3  1  0.75089513  0.53858407  0.72461350  1
  Ho  Ho4  1  0.24968540  0.25074224  0.60736082  1
  Ho  Ho5  1  0.24968540  0.74925776  0.39263918  1
  Ho  Ho6  1  0.75031460  0.24925776  0.10736082  1
  Ho  Ho7  1  0.75031460  0.75074224  0.89263918  1
  Ho  Ho8  1  0.75022743  0.31019654  0.85397196  1
  Ho  Ho9  1  0.75022743  0.68980346  0.14602804  1
  Ho  Ho10  1  0.24977257  0.18980346  0.35397196  1
  Ho  Ho11  1  0.24977257  0.81019654  0.64602804  1
  In  In0  1  0.75042955  -0.00000000  0.50000000  1
  In  In1  1  0.24957045  0.50000000  -0.00000000  1
  In  In2  1  0.24452446  0.50000000  0.50000000  1
  In  In3  1  0.75547554  -0.00000000  -0.00000000  1
  S  S0  1  0.74922174  0.40313376  0.58690527  1
  S  S1  1  0.74922174  0.59686624  0.41309473  1
  S  S2  1  0.25077826  0.09686624  0.08690527  1
  S  S3  1  0.25077826  0.90313376  0.91309473  1
  S  S4  1  0.25000073  0.30718523  0.97915157  1
  S  S5  1  0.25000073  0.69281477  0.02084843  1
  S  S6  1  0.74999927  0.19281477  0.47915157  1
  S  S7  1  0.74999927  0.80718523  0.52084843  1
  S  S8  1  0.74875612  0.11136250  0.88147120  1
  S  S9  1  0.74875612  0.88863750  0.11852880  1
  S  S10  1  0.25124388  0.38863750  0.38147120  1
  S  S11  1  0.25124388  0.61136250  0.61852880  1
  S  S12  1  0.74984040  0.18217969  0.71278544  1
  S  S13  1  0.74984040  0.81782031  0.28721456  1
  S  S14  1  0.25015960  0.31782031  0.21278544  1
  S  S15  1  0.25015960  0.68217969  0.78721456  1
  S  S16  1  0.25029345  0.38708395  0.75403009  1
  S  S17  1  0.25029345  0.61291605  0.24596991  1
  S  S18  1  0.74970655  0.11291605  0.25403009  1
  S  S19  1  0.74970655  0.88708395  0.74596991  1
  S  S20  1  0.25029123  0.01987045  0.60527715  1
  S  S21  1  0.25029123  0.98012955  0.39472285  1
  S  S22  1  0.74970877  0.48012955  0.10527715  1
  S  S23  1  0.74970877  0.51987045  0.89472285  1
loop_
_geom_bond_atom_site_label_1
_geom_bond_atom_site_label_2
_geom_bond_distance
_geom_bond_site_symmetry_2
Ho0 S8 2.762018 1_555
Ho0 S8 2.763859 1_455
Ho0 S20 2.803353 1_555
Ho0 S19 2.830348 1_445
Ho0 S19 2.833447 1_545
Ho0 S12 2.900141 1_455
Ho0 S3 2.901366 1_545
Ho0 S12 2.903838 1_555
Ho1 S9 2.762018 1_555
Ho1 S9 2.763859 1_455
Ho1 S21 2.803353 1_555
Ho1 S18 2.830348 1_465
Ho1 S18 2.833447 1_565
Ho1 S13 2.900141 1_455
Ho1 S2 2.901366 1_565
Ho1 S13 2.903838 1_555
Ho2 S10 2.762018 1_555
Ho2 S10 2.763859 1_655
Ho2 S22 2.803353 1_555
Ho2 S17 2.830348 1_655
Ho2 S17 2.833447 1_555
Ho2 S14 2.900141 1_655
Ho2 S1 2.901366 1_555
Ho2 S14 2.903838 1_555
Ho3 S11 2.762018 1_555
Ho3 S11 2.763859 1_655
Ho3 S23 2.803353 1_555
Ho3 S16 2.830348 1_655
Ho3 S16 2.833447 1_555
Ho3 S15 2.900141 1_655
Ho3 S0 2.901366 1_555
Ho3 S15 2.903838 1_555
Ho4 S12 2.736143 1_455
Ho4 S12 2.736969 1_555
Ho4 S0 2.818039 1_555
Ho4 S0 2.820438 1_455
Ho4 S6 2.945437 1_455
Ho4 S6 2.946991 1_555
Ho4 S16 3.024582 1_555
Ho4 S20 3.100815 1_555
Ho5 S13 2.736143 1_455
Ho5 S13 2.736969 1_555
Ho5 S1 2.818039 1_555
Ho5 S1 2.820438 1_455
Ho5 S7 2.945437 1_455
Ho5 S7 2.946991 1_555
Ho5 S17 3.024582 1_555
Ho5 S21 3.100815 1_555
Ho6 S14 2.736143 1_655
Ho6 S14 2.736969 1_555
Ho6 S2 2.818039 1_555
Ho6 S2 2.820438 1_655
Ho6 S4 2.945437 1_654
Ho6 S4 2.946991 1_554
Ho6 S18 3.024582 1_555
Ho6 S22 3.100815 1_555
Ho7 S15 2.736143 1_655
Ho7 S15 2.736969 1_555
Ho7 S3 2.818039 1_555
Ho7 S3 2.820438 1_655
Ho7 S5 2.945437 1_656
Ho7 S5 2.946991 1_556
Ho7 S19 3.024582 1_555
Ho7 S23 3.100815 1_555
Ho8 S8 2.708238 1_555
Ho8 S16 2.720816 1_555
Ho8 S16 2.721170 1_655
Ho8 S4 2.804721 1_655
Ho8 S4 2.805899 1_555
Ho8 S12 2.885477 1_555
Ho8 S23 2.894282 1_555
Ho9 S9 2.708238 1_555
Ho9 S17 2.720816 1_555
Ho9 S17 2.721170 1_655
Ho9 S5 2.804721 1_655
Ho9 S5 2.805899 1_555
Ho9 S13 2.885477 1_555
Ho9 S22 2.894282 1_555
Ho10 S10 2.708238 1_555
Ho10 S18 2.720816 1_555
Ho10 S18 2.721170 1_455
Ho10 S6 2.804721 1_455
Ho10 S6 2.805899 1_555
Ho10 S14 2.885477 1_555
Ho10 S21 2.894282 1_545
Ho11 S11 2.708238 1_555
Ho11 S19 2.720816 1_555
Ho11 S19 2.721170 1_455
Ho11 S7 2.804721 1_455
Ho11 S7 2.805899 1_555
Ho11 S15 2.885477 1_555
Ho11 S20 2.894282 1_565
In0 S21 2.588763 1_645
In0 S20 2.588763 1_655
In0 S21 2.589542 1_545
In0 S20 2.589542 1_555
In0 S6 2.612029 1_555
In0 S7 2.612029 1_545
In1 S23 2.588763 1_454
In1 S22 2.588763 1_455
In1 S23 2.589542 1_554
In1 S22 2.589542 1_555
In1 S4 2.612029 1_554
In1 S5 2.612029 1_555
In2 S11 2.454034 1_555
In2 S10 2.454034 1_555
In2 S1 2.702872 1_455
In2 S0 2.702872 1_455
In2 S1 2.728105 1_555
In2 S0 2.728105 1_555
In3 S9 2.454034 1_545
In3 S8 2.454034 1_554
In3 S2 2.702872 1_655
In3 S3 2.702872 1_644
In3 S3 2.728105 1_544
In3 S2 2.728105 1_555
