# generated using pymatgen
data_Gd4Sb3
_symmetry_space_group_name_H-M   'P 1'
_cell_length_a   8.06804520
_cell_length_b   8.06804520
_cell_length_c   8.06804520
_cell_angle_alpha   109.47122063
_cell_angle_beta   109.47122063
_cell_angle_gamma   109.47122063
_symmetry_Int_Tables_number   1
_chemical_formula_structural   Gd4Sb3
_chemical_formula_sum   'Gd8 Sb6'
_cell_volume   404.28076390
_cell_formula_units_Z   2
loop_
 _symmetry_equiv_pos_site_id
 _symmetry_equiv_pos_as_xyz
  1  'x, y, z'
loop_
 _atom_site_type_symbol
 _atom_site_label
 _atom_site_symmetry_multiplicity
 _atom_site_fract_x
 _atom_site_fract_y
 _atom_site_fract_z
 _atom_site_occupancy
  Gd  Gd0  1  0.50000000  -0.00000000  0.35347185  1
  Gd  Gd1  1  0.50000000  0.00000000  0.85347185  1
  Gd  Gd2  1  0.64652815  0.64652815  0.64652815  1
  Gd  Gd3  1  0.00000000  0.35347185  0.50000000  1
  Gd  Gd4  1  0.14652815  0.14652815  0.14652815  1
  Gd  Gd5  1  0.85347185  0.50000000  0.00000000  1
  Gd  Gd6  1  -0.00000000  0.85347185  0.50000000  1
  Gd  Gd7  1  0.35347185  0.50000000  -0.00000000  1
  Sb  Sb0  1  0.12500000  0.75000000  0.87500000  1
  Sb  Sb1  1  0.87500000  0.12500000  0.75000000  1
  Sb  Sb2  1  0.62500000  0.37500000  0.25000000  1
  Sb  Sb3  1  0.37500000  0.25000000  0.62500000  1
  Sb  Sb4  1  0.75000000  0.87500000  0.12500000  1
  Sb  Sb5  1  0.25000000  0.62500000  0.37500000  1
loop_
_geom_bond_atom_site_label_1
_geom_bond_atom_site_label_2
_geom_bond_distance
_geom_bond_site_symmetry_2
Gd0 Sb3 3.125350 1_555
Gd0 Sb5 3.125350 1_545
Gd0 Sb1 3.125350 1_555
Gd0 Sb0 3.328468 1_544
Gd0 Sb4 3.328468 1_545
Gd0 Sb2 3.328468 1_555
Gd1 Sb0 3.125350 1_545
Gd1 Sb2 3.125350 1_556
Gd1 Sb4 3.125350 1_546
Gd1 Sb1 3.328468 1_555
Gd1 Sb3 3.328468 1_555
Gd1 Sb5 3.328468 1_545
Gd2 Sb5 3.125350 1_555
Gd2 Sb2 3.125350 1_555
Gd2 Sb3 3.125350 1_555
Gd2 Sb1 3.328468 1_565
Gd2 Sb4 3.328468 1_556
Gd2 Sb0 3.328468 1_655
Gd3 Sb2 3.125350 1_455
Gd3 Sb0 3.125350 1_555
Gd3 Sb5 3.125350 1_555
Gd3 Sb3 3.328468 1_555
Gd3 Sb1 3.328468 1_455
Gd3 Sb4 3.328468 1_445
Gd4 Sb4 3.125350 1_445
Gd4 Sb1 3.125350 1_454
Gd4 Sb0 3.125350 1_544
Gd4 Sb5 3.328468 1_555
Gd4 Sb2 3.328468 1_555
Gd4 Sb3 3.328468 1_555
Gd5 Sb0 3.125350 1_654
Gd5 Sb1 3.125350 1_554
Gd5 Sb5 3.125350 1_655
Gd5 Sb3 3.328468 1_554
Gd5 Sb2 3.328468 1_555
Gd5 Sb4 3.328468 1_555
Gd6 Sb3 3.125350 1_565
Gd6 Sb1 3.125350 1_465
Gd6 Sb4 3.125350 1_455
Gd6 Sb0 3.328468 1_555
Gd6 Sb2 3.328468 1_455
Gd6 Sb5 3.328468 1_555
Gd7 Sb3 3.125350 1_554
Gd7 Sb2 3.125350 1_555
Gd7 Sb4 3.125350 1_555
Gd7 Sb1 3.328468 1_454
Gd7 Sb5 3.328468 1_555
Gd7 Sb0 3.328468 1_554
