# generated using pymatgen
data_K5V3O10
_symmetry_space_group_name_H-M   'P 1'
_cell_length_a   8.14638573
_cell_length_b   8.14638573
_cell_length_c   18.73424471
_cell_angle_alpha   90.00000000
_cell_angle_beta   90.00000000
_cell_angle_gamma   90.00000000
_symmetry_Int_Tables_number   1
_chemical_formula_structural   K5V3O10
_chemical_formula_sum   'K20 V12 O40'
_cell_volume   1243.27193089
_cell_formula_units_Z   4
loop_
 _symmetry_equiv_pos_site_id
 _symmetry_equiv_pos_as_xyz
  1  'x, y, z'
loop_
 _atom_site_type_symbol
 _atom_site_label
 _atom_site_symmetry_multiplicity
 _atom_site_fract_x
 _atom_site_fract_y
 _atom_site_fract_z
 _atom_site_occupancy
  K  K0  1  0.23495907  0.23495907  0.00000000  1
  K  K1  1  0.26504093  0.73495907  0.25000000  1
  K  K2  1  0.73495907  0.26504093  0.75000000  1
  K  K3  1  0.76504093  0.76504093  0.50000000  1
  K  K4  1  0.00334309  0.97327379  0.11190493  1
  K  K5  1  0.52672621  0.50334309  0.36190493  1
  K  K6  1  0.47327379  0.49665691  0.86190493  1
  K  K7  1  0.50334309  0.52672621  0.63809507  1
  K  K8  1  0.49665691  0.47327379  0.13809507  1
  K  K9  1  0.99665691  0.02672621  0.61190493  1
  K  K10  1  0.97327379  0.00334309  0.88809507  1
  K  K11  1  0.02672621  0.99665691  0.38809507  1
  K  K12  1  0.51306448  0.02130363  0.38407294  1
  K  K13  1  0.48693552  0.97869637  0.88407294  1
  K  K14  1  0.02130363  0.51306448  0.61592706  1
  K  K15  1  0.52130363  0.98693552  0.13407294  1
  K  K16  1  0.47869637  0.01306448  0.63407294  1
  K  K17  1  0.98693552  0.52130363  0.86592706  1
  K  K18  1  0.01306448  0.47869637  0.36592706  1
  K  K19  1  0.97869637  0.48693552  0.11592706  1
  V  V0  1  0.80806371  0.19193629  0.25000000  1
  V  V1  1  0.30806371  0.30806371  0.50000000  1
  V  V2  1  0.69193629  0.69193629  0.00000000  1
  V  V3  1  0.19193629  0.80806371  0.75000000  1
  V  V4  1  0.23627055  0.22907683  0.23286887  1
  V  V5  1  0.27092317  0.73627055  0.48286887  1
  V  V6  1  0.72907683  0.26372945  0.98286887  1
  V  V7  1  0.73627055  0.27092317  0.51713113  1
  V  V8  1  0.26372945  0.72907683  0.01713113  1
  V  V9  1  0.76372945  0.77092317  0.73286887  1
  V  V10  1  0.22907683  0.23627055  0.76713113  1
  V  V11  1  0.77092317  0.76372945  0.26713113  1
  O  O0  1  0.59398488  0.68305642  0.23684277  1
  O  O1  1  0.40601512  0.31694358  0.73684277  1
  O  O2  1  0.68305642  0.59398488  0.76315723  1
  O  O3  1  0.18305642  0.90601512  0.98684277  1
  O  O4  1  0.81694358  0.09398488  0.48684277  1
  O  O5  1  0.90601512  0.18305642  0.01315723  1
  O  O6  1  0.09398488  0.81694358  0.51315723  1
  O  O7  1  0.31694358  0.40601512  0.26315723  1
  O  O8  1  0.94008495  0.66353102  0.23838056  1
  O  O9  1  0.05991505  0.33646898  0.73838056  1
  O  O10  1  0.66353102  0.94008495  0.76161944  1
  O  O11  1  0.16353102  0.55991505  0.98838056  1
  O  O12  1  0.83646898  0.44008495  0.48838056  1
  O  O13  1  0.55991505  0.16353102  0.01161944  1
  O  O14  1  0.44008495  0.83646898  0.51161944  1
  O  O15  1  0.33646898  0.05991505  0.26161944  1
  O  O16  1  0.76792849  0.76130077  0.35785301  1
  O  O17  1  0.71462259  0.25694266  0.32359748  1
  O  O18  1  0.23207151  0.23869923  0.85785301  1
  O  O19  1  0.26130077  0.73207151  0.10785301  1
  O  O20  1  0.73869923  0.26792849  0.60785301  1
  O  O21  1  0.73207151  0.26130077  0.89214699  1
  O  O22  1  0.26792849  0.73869923  0.39214699  1
  O  O23  1  0.23869923  0.23207151  0.14214699  1
  O  O24  1  0.77979434  0.97761926  0.23612145  1
  O  O25  1  0.22020566  0.02238074  0.73612145  1
  O  O26  1  0.97761926  0.77979434  0.76387855  1
  O  O27  1  0.47761926  0.72020566  0.98612145  1
  O  O28  1  0.52238074  0.27979434  0.48612145  1
  O  O29  1  0.72020566  0.47761926  0.01387855  1
  O  O30  1  0.27979434  0.52238074  0.51387855  1
  O  O31  1  0.02238074  0.22020566  0.26387855  1
  O  O32  1  0.74305734  0.28537741  0.17640252  1
  O  O33  1  0.21462259  0.24305734  0.42640252  1
  O  O34  1  0.78537741  0.75694266  0.92640252  1
  O  O35  1  0.24305734  0.21462259  0.57359748  1
  O  O36  1  0.75694266  0.78537741  0.07359748  1
  O  O37  1  0.25694266  0.71462259  0.67640252  1
  O  O38  1  0.28537741  0.74305734  0.82359748  1
  O  O39  1  0.76130077  0.76792849  0.64214699  1
loop_
_geom_bond_atom_site_label_1
_geom_bond_atom_site_label_2
_geom_bond_distance
_geom_bond_site_symmetry_2
K0 O18 2.663295 1_554
K0 O23 2.663295 1_555
K0 O11 2.719141 1_554
K0 O13 2.719141 1_555
K0 O3 2.724032 1_544
K0 O5 2.724032 1_455
K1 O22 2.663295 1_555
K1 O19 2.663295 1_555
K1 O8 2.719141 1_455
K1 O15 2.719141 1_565
K1 O7 2.724032 1_555
K1 O0 2.724032 1_555
K2 O21 2.663295 1_555
K2 O20 2.663295 1_555
K2 O10 2.719141 1_545
K2 O9 2.719141 1_655
K2 O2 2.724032 1_555
K2 O1 2.724032 1_555
K3 O39 2.663295 1_555
K3 O16 2.663295 1_555
K3 O12 2.719141 1_555
K3 O14 2.719141 1_555
K3 O4 2.724032 1_565
K3 O6 2.724032 1_655
K4 O36 2.624338 1_455
K4 O5 2.640377 1_465
K4 O3 2.816548 1_554
K4 O19 2.877964 1_555
K4 O23 2.905482 1_565
K4 O24 2.955185 1_455
K5 O17 2.624338 1_555
K5 O7 2.640377 1_555
K5 O0 2.816548 1_555
K5 O16 2.877964 1_555
K5 O22 2.905482 1_555
K5 O28 2.955185 1_555
K6 O38 2.624338 1_555
K6 O2 2.640377 1_555
K6 O1 2.816548 1_555
K6 O18 2.877964 1_555
K6 O21 2.905482 1_555
K6 O27 2.955185 1_555
K7 O37 2.624338 1_555
K7 O1 2.640377 1_555
K7 O2 2.816548 1_555
K7 O39 2.877964 1_555
K7 O20 2.905482 1_555
K7 O30 2.955185 1_555
K8 O32 2.624338 1_555
K8 O0 2.640377 1_555
K8 O7 2.816548 1_555
K8 O23 2.877964 1_555
K8 O19 2.905482 1_555
K8 O29 2.955185 1_555
K9 O35 2.624338 1_655
K9 O6 2.640377 1_645
K9 O4 2.816548 1_555
K9 O20 2.877964 1_555
K9 O39 2.905482 1_545
K9 O25 2.955185 1_655
K10 O34 2.624338 1_545
K10 O3 2.640377 1_645
K10 O5 2.816548 1_556
K10 O21 2.877964 1_555
K10 O18 2.905482 1_655
K10 O26 2.955185 1_545
K11 O33 2.624338 1_565
K11 O4 2.640377 1_465
K11 O6 2.816548 1_555
K11 O22 2.877964 1_555
K11 O16 2.905482 1_455
K11 O31 2.955185 1_565
K12 O15 2.726046 1_555
K12 O17 2.768494 1_555
K12 O28 2.845170 1_555
K12 O14 2.886233 1_545
K12 O16 3.006370 1_545
K12 O22 3.051381 1_545
K12 O33 3.130994 1_555
K12 O4 3.191487 1_555
K13 O10 2.726046 1_555
K13 O38 2.768494 1_555
K13 O27 2.845170 1_555
K13 O13 2.886233 1_566
K13 O18 3.006370 1_565
K13 O21 3.051381 1_565
K13 O34 3.130994 1_555
K13 O3 3.191487 1_555
K14 O9 2.726046 1_555
K14 O37 2.768494 1_555
K14 O30 2.845170 1_555
K14 O12 2.886233 1_455
K14 O39 3.006370 1_455
K14 O20 3.051381 1_455
K14 O35 3.130994 1_555
K14 O6 3.191487 1_555
K15 O13 2.726046 1_565
K15 O36 2.768494 1_555
K15 O24 2.845170 1_555
K15 O15 2.886233 1_565
K15 O19 3.006370 1_555
K15 O23 3.051381 1_565
K15 O32 3.130994 1_565
K15 O0 3.191487 1_555
K16 O14 2.726046 1_545
K16 O35 2.768494 1_555
K16 O25 2.845170 1_555
K16 O10 2.886233 1_545
K16 O20 3.006370 1_555
K16 O39 3.051381 1_545
K16 O37 3.130994 1_545
K16 O1 3.191487 1_555
K17 O11 2.726046 1_655
K17 O34 2.768494 1_555
K17 O26 2.845170 1_555
K17 O9 2.886233 1_655
K17 O21 3.006370 1_555
K17 O18 3.051381 1_655
K17 O38 3.130994 1_655
K17 O2 3.191487 1_555
K18 O12 2.726046 1_455
K18 O33 2.768494 1_555
K18 O31 2.845170 1_555
K18 O8 2.886233 1_455
K18 O22 3.006370 1_555
K18 O16 3.051381 1_455
K18 O17 3.130994 1_455
K18 O7 3.191487 1_555
K19 O8 2.726046 1_555
K19 O32 2.768494 1_555
K19 O29 2.845170 1_555
K19 O11 2.886233 1_654
K19 O23 3.006370 1_655
K19 O19 3.051381 1_655
K19 O36 3.130994 1_555
K19 O5 3.191487 1_555
O0 V11 1.682717 1_555
O1 V10 1.682717 1_555
O2 V9 1.682717 1_555
O3 V8 1.682717 1_556
O4 V7 1.682717 1_555
O5 V6 1.682717 1_554
O6 V5 1.682717 1_555
O7 V4 1.682717 1_555
O8 V11 1.689800 1_555
O9 V10 1.689800 1_555
O10 V9 1.689800 1_555
O11 V8 1.689800 1_556
O12 V7 1.689800 1_555
O13 V6 1.689800 1_554
O14 V5 1.689800 1_555
O15 V4 1.689800 1_555
O16 V11 1.699896 1_555
O17 V0 1.661610 1_555
O18 V10 1.699896 1_555
O19 V8 1.699896 1_555
O20 V7 1.699896 1_555
O21 V6 1.699896 1_555
O22 V5 1.699896 1_555
O23 V4 1.699896 1_555
O24 V0 1.780122 1_565
O24 V11 1.838145 1_555
O25 V3 1.780122 1_545
O25 V10 1.838145 1_555
O26 V3 1.780122 1_655
O26 V9 1.838145 1_555
O27 V2 1.780122 1_556
O27 V8 1.838145 1_556
O28 V1 1.780122 1_555
O28 V7 1.838145 1_555
O29 V2 1.780122 1_555
O29 V6 1.838145 1_554
O30 V1 1.780122 1_555
O30 V5 1.838145 1_555
O31 V0 1.780122 1_455
O31 V4 1.838145 1_555
O32 V0 1.661610 1_555
O33 V1 1.661610 1_555
O34 V2 1.661610 1_556
O35 V1 1.661610 1_555
O36 V2 1.661610 1_555
O37 V3 1.661610 1_555
O38 V3 1.661610 1_555
O39 V9 1.699896 1_555
