# generated using pymatgen
data_Rh17S15
_symmetry_space_group_name_H-M   'P 1'
_cell_length_a   9.94586400
_cell_length_b   9.94586400
_cell_length_c   9.94586400
_cell_angle_alpha   90.00000000
_cell_angle_beta   90.00000000
_cell_angle_gamma   90.00000000
_symmetry_Int_Tables_number   1
_chemical_formula_structural   Rh17S15
_chemical_formula_sum   'Rh34 S30'
_cell_volume   983.84696254
_cell_formula_units_Z   2
loop_
 _symmetry_equiv_pos_site_id
 _symmetry_equiv_pos_as_xyz
  1  'x, y, z'
loop_
 _atom_site_type_symbol
 _atom_site_label
 _atom_site_symmetry_multiplicity
 _atom_site_fract_x
 _atom_site_fract_y
 _atom_site_fract_z
 _atom_site_occupancy
  Rh  Rh0  1  0.35700421  0.35700421  0.14239450  1
  Rh  Rh1  1  0.35700421  0.85760550  0.35700421  1
  Rh  Rh2  1  0.35700421  0.14239450  0.64299579  1
  Rh  Rh3  1  0.14239450  0.35700421  0.64299579  1
  Rh  Rh4  1  0.85760550  0.35700421  0.35700421  1
  Rh  Rh5  1  0.64299579  0.35700421  0.14239450  1
  Rh  Rh6  1  0.35700421  0.64299579  0.14239450  1
  Rh  Rh7  1  0.14239450  0.35700421  0.35700421  1
  Rh  Rh8  1  0.35700421  0.14239450  0.35700421  1
  Rh  Rh9  1  0.64299579  0.85760550  0.35700421  1
  Rh  Rh10  1  0.14239450  0.64299579  0.64299579  1
  Rh  Rh11  1  0.64299579  0.14239450  0.64299579  1
  Rh  Rh12  1  0.85760550  0.64299579  0.35700421  1
  Rh  Rh13  1  0.85760550  0.35700421  0.64299579  1
  Rh  Rh14  1  0.35700421  0.85760550  0.64299579  1
  Rh  Rh15  1  0.35700421  0.64299579  0.85760550  1
  Rh  Rh16  1  0.64299579  0.35700421  0.85760550  1
  Rh  Rh17  1  0.64299579  0.64299579  0.14239450  1
  Rh  Rh18  1  0.35700421  0.35700421  0.85760550  1
  Rh  Rh19  1  0.64299579  0.64299579  0.85760550  1
  Rh  Rh20  1  0.14239450  0.64299579  0.35700421  1
  Rh  Rh21  1  0.85760550  0.64299579  0.64299579  1
  Rh  Rh22  1  0.64299579  0.14239450  0.35700421  1
  Rh  Rh23  1  0.64299579  0.85760550  0.64299579  1
  Rh  Rh24  1  -0.00000000  0.23954299  -0.00000000  1
  Rh  Rh25  1  -0.00000000  0.00000000  0.23954299  1
  Rh  Rh26  1  -0.00000000  0.00000000  0.76045701  1
  Rh  Rh27  1  0.76045701  0.00000000  -0.00000000  1
  Rh  Rh28  1  0.23954299  0.00000000  -0.00000000  1
  Rh  Rh29  1  -0.00000000  0.76045701  -0.00000000  1
  Rh  Rh30  1  -0.00000000  0.50000000  -0.00000000  1
  Rh  Rh31  1  -0.00000000  0.00000000  0.50000000  1
  Rh  Rh32  1  0.50000000  0.00000000  -0.00000000  1
  Rh  Rh33  1  0.50000000  0.50000000  0.50000000  1
  S  S0  1  0.16993931  0.50000000  0.16993931  1
  S  S1  1  0.16993931  0.83006069  0.50000000  1
  S  S2  1  0.16993931  0.16993931  0.50000000  1
  S  S3  1  0.16993931  0.50000000  0.83006069  1
  S  S4  1  0.83006069  0.50000000  0.16993931  1
  S  S5  1  0.50000000  0.16993931  0.16993931  1
  S  S6  1  0.50000000  0.83006069  0.16993931  1
  S  S7  1  0.50000000  0.16993931  0.83006069  1
  S  S8  1  0.83006069  0.83006069  0.50000000  1
  S  S9  1  0.83006069  0.16993931  0.50000000  1
  S  S10  1  0.50000000  0.83006069  0.83006069  1
  S  S11  1  0.83006069  0.50000000  0.83006069  1
  S  S12  1  0.22946711  0.22946711  -0.00000000  1
  S  S13  1  0.22946711  0.00000000  0.22946711  1
  S  S14  1  0.22946711  0.00000000  0.77053289  1
  S  S15  1  -0.00000000  0.22946711  0.77053289  1
  S  S16  1  -0.00000000  0.22946711  0.22946711  1
  S  S17  1  0.77053289  0.22946711  -0.00000000  1
  S  S18  1  0.22946711  0.77053289  -0.00000000  1
  S  S19  1  0.77053289  0.00000000  0.22946711  1
  S  S20  1  -0.00000000  0.77053289  0.77053289  1
  S  S21  1  0.77053289  0.00000000  0.77053289  1
  S  S22  1  -0.00000000  0.77053289  0.22946711  1
  S  S23  1  0.77053289  0.77053289  -0.00000000  1
  S  S24  1  0.50000000  0.50000000  0.26275754  1
  S  S25  1  0.50000000  0.73724246  0.50000000  1
  S  S26  1  0.50000000  0.26275754  0.50000000  1
  S  S27  1  0.26275754  0.50000000  0.50000000  1
  S  S28  1  0.73724246  0.50000000  0.50000000  1
  S  S29  1  0.50000000  0.50000000  0.73724246  1
loop_
_geom_bond_atom_site_label_1
_geom_bond_atom_site_label_2
_geom_bond_distance
_geom_bond_site_symmetry_2
Rh0 S12 2.285550 1_555
Rh0 S24 2.340616 1_555
Rh0 S5 2.357816 1_555
Rh0 S0 2.357816 1_555
Rh1 S13 2.285550 1_565
Rh1 S25 2.340616 1_555
Rh1 S6 2.357816 1_555
Rh1 S1 2.357816 1_555
Rh2 S14 2.285550 1_555
Rh2 S26 2.340616 1_555
Rh2 S2 2.357816 1_555
Rh2 S7 2.357816 1_555
Rh3 S15 2.285550 1_555
Rh3 S27 2.340616 1_555
Rh3 S2 2.357816 1_555
Rh3 S3 2.357816 1_555
Rh4 S16 2.285550 1_655
Rh4 S28 2.340616 1_555
Rh4 S4 2.357816 1_555
Rh4 S9 2.357816 1_555
Rh5 S17 2.285550 1_555
Rh5 S24 2.340616 1_555
Rh5 S5 2.357816 1_555
Rh5 S4 2.357816 1_555
Rh6 S18 2.285550 1_555
Rh6 S24 2.340616 1_555
Rh6 S0 2.357816 1_555
Rh6 S6 2.357816 1_555
Rh7 S16 2.285550 1_555
Rh7 S27 2.340616 1_555
Rh7 S2 2.357816 1_555
Rh7 S0 2.357816 1_555
Rh8 S13 2.285550 1_555
Rh8 S26 2.340616 1_555
Rh8 S5 2.357816 1_555
Rh8 S2 2.357816 1_555
Rh9 S19 2.285550 1_565
Rh9 S25 2.340616 1_555
Rh9 S8 2.357816 1_555
Rh9 S6 2.357816 1_555
Rh10 S20 2.285550 1_555
Rh10 S27 2.340616 1_555
Rh10 S3 2.357816 1_555
Rh10 S1 2.357816 1_555
Rh11 S21 2.285550 1_555
Rh11 S26 2.340616 1_555
Rh11 S7 2.357816 1_555
Rh11 S9 2.357816 1_555
Rh12 S22 2.285550 1_655
Rh12 S28 2.340616 1_555
Rh12 S8 2.357816 1_555
Rh12 S4 2.357816 1_555
Rh13 S15 2.285550 1_655
Rh13 S28 2.340616 1_555
Rh13 S11 2.357816 1_555
Rh13 S9 2.357816 1_555
Rh14 S14 2.285550 1_565
Rh14 S25 2.340616 1_555
Rh14 S10 2.357816 1_555
Rh14 S1 2.357816 1_555
Rh15 S18 2.285550 1_556
Rh15 S29 2.340616 1_555
Rh15 S3 2.357816 1_555
Rh15 S10 2.357816 1_555
Rh16 S17 2.285550 1_556
Rh16 S29 2.340616 1_555
Rh16 S7 2.357816 1_555
Rh16 S11 2.357816 1_555
Rh17 S23 2.285550 1_555
Rh17 S24 2.340616 1_555
Rh17 S6 2.357816 1_555
Rh17 S4 2.357816 1_555
Rh18 S12 2.285550 1_556
Rh18 S29 2.340616 1_555
Rh18 S3 2.357816 1_555
Rh18 S7 2.357816 1_555
Rh19 S23 2.285550 1_556
Rh19 S29 2.340616 1_555
Rh19 S11 2.357816 1_555
Rh19 S10 2.357816 1_555
Rh20 S22 2.285550 1_555
Rh20 S27 2.340616 1_555
Rh20 S0 2.357816 1_555
Rh20 S1 2.357816 1_555
Rh21 S20 2.285550 1_655
Rh21 S28 2.340616 1_555
Rh21 S11 2.357816 1_555
Rh21 S8 2.357816 1_555
Rh22 S19 2.285550 1_555
Rh22 S26 2.340616 1_555
Rh22 S5 2.357816 1_555
Rh22 S9 2.357816 1_555
Rh23 S21 2.285550 1_565
Rh23 S25 2.340616 1_555
Rh23 S8 2.357816 1_555
Rh23 S10 2.357816 1_555
Rh24 S15 2.284448 1_554
Rh24 S17 2.284448 1_455
Rh24 S12 2.284448 1_555
Rh24 S16 2.284448 1_555
Rh24 Rh30 2.590470 1_555
Rh25 S22 2.284448 1_545
Rh25 S19 2.284448 1_455
Rh25 S16 2.284448 1_555
Rh25 S13 2.284448 1_555
Rh25 Rh31 2.590470 1_555
Rh26 S21 2.284448 1_455
Rh26 S20 2.284448 1_545
Rh26 S14 2.284448 1_555
Rh26 S15 2.284448 1_555
Rh26 Rh31 2.590470 1_555
Rh27 S21 2.284448 1_554
Rh27 S23 2.284448 1_545
Rh27 S17 2.284448 1_555
Rh27 S19 2.284448 1_555
Rh27 Rh32 2.590470 1_555
Rh28 S14 2.284448 1_554
Rh28 S18 2.284448 1_545
Rh28 S12 2.284448 1_555
Rh28 S13 2.284448 1_555
Rh28 Rh32 2.590470 1_555
Rh29 S20 2.284448 1_554
Rh29 S23 2.284448 1_455
Rh29 S18 2.284448 1_555
Rh29 S22 2.284448 1_555
Rh29 Rh30 2.590470 1_555
Rh30 S3 2.390294 1_554
Rh30 S11 2.390294 1_454
Rh30 S0 2.390294 1_555
Rh30 S4 2.390294 1_455
Rh31 S1 2.390294 1_545
Rh31 S8 2.390294 1_445
Rh31 S2 2.390294 1_555
Rh31 S9 2.390294 1_455
Rh32 S10 2.390294 1_544
Rh32 S7 2.390294 1_554
Rh32 S6 2.390294 1_545
Rh32 S5 2.390294 1_555
Rh33 S26 2.359581 1_555
Rh33 S24 2.359581 1_555
Rh33 S27 2.359581 1_555
Rh33 S28 2.359581 1_555
Rh33 S25 2.359581 1_555
Rh33 S29 2.359581 1_555
