# generated using pymatgen
data_RbVCl3
_symmetry_space_group_name_H-M   'P 1'
_cell_length_a   7.02059643
_cell_length_b   7.02059359
_cell_length_c   6.16212563
_cell_angle_alpha   90.00000000
_cell_angle_beta   90.00000000
_cell_angle_gamma   119.99998279
_symmetry_Int_Tables_number   1
_chemical_formula_structural   RbVCl3
_chemical_formula_sum   'Rb2 V2 Cl6'
_cell_volume   263.03230906
_cell_formula_units_Z   2
loop_
 _symmetry_equiv_pos_site_id
 _symmetry_equiv_pos_as_xyz
  1  'x, y, z'
loop_
 _atom_site_type_symbol
 _atom_site_label
 _atom_site_symmetry_multiplicity
 _atom_site_fract_x
 _atom_site_fract_y
 _atom_site_fract_z
 _atom_site_occupancy
  Rb  Rb0  1  0.66666700  0.33333300  0.25000000  1
  Rb  Rb1  1  0.33333300  0.66666700  0.75000000  1
  V  V0  1  0.00000000  0.00000000  0.50000000  1
  V  V1  1  0.00000000  0.00000000  0.00000000  1
  Cl  Cl0  1  0.83903952  0.67808005  0.75000000  1
  Cl  Cl1  1  0.16096048  0.83903852  0.25000000  1
  Cl  Cl2  1  0.67807905  0.83903852  0.25000000  1
  Cl  Cl3  1  0.32192095  0.16096148  0.75000000  1
  Cl  Cl4  1  0.16096048  0.32191995  0.25000000  1
  Cl  Cl5  1  0.83903952  0.16096148  0.75000000  1
loop_
_geom_bond_atom_site_label_1
_geom_bond_atom_site_label_2
_geom_bond_distance
_geom_bond_site_symmetry_2
Cl0 V1 2.490818 1_666
Cl0 V0 2.490818 1_665
Cl0 Rb1 3.510984 1_655
Cl0 Rb1 3.510984 1_555
Cl0 Rb0 3.726452 1_556
Cl0 Rb0 3.726452 1_555
Cl1 V0 2.490827 1_565
Cl1 V1 2.490827 1_565
Cl1 Rb0 3.510981 1_455
Cl1 Rb0 3.510988 1_565
Cl1 Rb1 3.726442 1_554
Cl1 Rb1 3.726442 1_555
Cl2 V0 2.490823 1_665
Cl2 V1 2.490823 1_665
Cl2 Rb0 3.510979 1_555
Cl2 Rb0 3.510986 1_565
Cl2 Rb1 3.726449 1_555
Cl2 Rb1 3.726449 1_554
Cl3 V0 2.490823 1_555
Cl3 V1 2.490823 1_556
Cl3 Rb1 3.510979 1_555
Cl3 Rb1 3.510986 1_545
Cl3 Rb0 3.726449 1_556
Cl3 Rb0 3.726449 1_555
Cl4 V0 2.490818 1_555
Cl4 V1 2.490818 1_555
Cl4 Rb0 3.510984 1_455
Cl4 Rb0 3.510984 1_555
Cl4 Rb1 3.726452 1_554
Cl4 Rb1 3.726452 1_555
Cl5 V0 2.490827 1_655
Cl5 V1 2.490827 1_656
Cl5 Rb1 3.510981 1_655
Cl5 Rb1 3.510988 1_545
Cl5 Rb0 3.726442 1_555
Cl5 Rb0 3.726442 1_556
