# generated using pymatgen
data_Ba3NiRu2O9
_symmetry_space_group_name_H-M   'P 1'
_cell_length_a   5.76736324
_cell_length_b   5.76736324
_cell_length_c   14.14538841
_cell_angle_alpha   90.00000000
_cell_angle_beta   90.00000000
_cell_angle_gamma   120.00000206
_symmetry_Int_Tables_number   1
_chemical_formula_structural   Ba3NiRu2O9
_chemical_formula_sum   'Ba6 Ni2 Ru4 O18'
_cell_volume   407.47419421
_cell_formula_units_Z   2
loop_
 _symmetry_equiv_pos_site_id
 _symmetry_equiv_pos_as_xyz
  1  'x, y, z'
loop_
 _atom_site_type_symbol
 _atom_site_label
 _atom_site_symmetry_multiplicity
 _atom_site_fract_x
 _atom_site_fract_y
 _atom_site_fract_z
 _atom_site_occupancy
  Ba  Ba0  1  0.33333300  0.66666700  0.41052777  1
  Ba  Ba1  1  0.66666700  0.33333300  0.91052177  1
  Ba  Ba2  1  0.66666700  0.33333300  0.58969290  1
  Ba  Ba3  1  0.33333300  0.66666700  0.08968588  1
  Ba  Ba4  1  0.00000000  0.00000000  0.75006118  1
  Ba  Ba5  1  0.00000000  0.00000000  0.25006389  1
  Ni  Ni0  1  0.00000000  0.00000000  0.50004418  1
  Ni  Ni1  1  0.00000000  0.00000000  0.00004265  1
  Ru  Ru0  1  0.33333300  0.66666700  0.65302211  1
  Ru  Ru1  1  0.66666700  0.33333300  0.15301826  1
  Ru  Ru2  1  0.66666700  0.33333300  0.34701383  1
  Ru  Ru3  1  0.33333300  0.66666700  0.84700606  1
  O  O0  1  0.82994573  0.17005427  0.41777029  1
  O  O1  1  0.82994573  0.65989047  0.41777029  1
  O  O2  1  0.34010953  0.17005427  0.41777029  1
  O  O3  1  0.65989358  0.82994729  0.91776522  1
  O  O4  1  0.17008411  0.34016922  0.58214922  1
  O  O5  1  0.17005271  0.82994729  0.91776522  1
  O  O6  1  0.17005271  0.34010642  0.91776522  1
  O  O7  1  0.82991335  0.17008665  0.08214889  1
  O  O8  1  0.34017430  0.17008665  0.08214889  1
  O  O9  1  0.65983078  0.82991589  0.58214922  1
  O  O10  1  0.17008411  0.82991589  0.58214922  1
  O  O11  1  0.82991335  0.65982570  0.08214889  1
  O  O12  1  0.51600277  0.03200454  0.24996793  1
  O  O13  1  0.48399851  0.51600149  0.74996495  1
  O  O14  1  0.03200198  0.51600149  0.74996495  1
  O  O15  1  0.96799546  0.48399723  0.24996793  1
  O  O16  1  0.51600277  0.48399723  0.24996793  1
  O  O17  1  0.48399851  0.96799802  0.74996495  1
loop_
_geom_bond_atom_site_label_1
_geom_bond_atom_site_label_2
_geom_bond_distance
_geom_bond_site_symmetry_2
Ba0 O1 2.885694 1_455
Ba0 O2 2.885694 1_565
Ba0 O0 2.885699 1_455
Ba0 O0 2.885699 1_565
Ba0 O2 2.885705 1_555
Ba0 O1 2.885705 1_555
Ba0 O15 2.913410 1_455
Ba0 O12 2.913410 1_565
Ba0 O16 2.913417 1_555
Ba0 O9 2.924526 1_555
Ba0 O4 2.924526 1_555
Ba0 O10 2.924526 1_555
Ba1 O6 2.885694 1_655
Ba1 O3 2.885694 1_545
Ba1 O5 2.885699 1_545
Ba1 O5 2.885699 1_655
Ba1 O3 2.885705 1_555
Ba1 O6 2.885705 1_555
Ba1 O14 2.913369 1_655
Ba1 O17 2.913369 1_545
Ba1 O13 2.913375 1_555
Ba1 O8 2.924578 1_556
Ba1 O11 2.924578 1_556
Ba1 O7 2.924578 1_556
Ba2 O4 2.885852 1_655
Ba2 O9 2.885852 1_545
Ba2 O10 2.885857 1_655
Ba2 O10 2.885857 1_545
Ba2 O4 2.885863 1_555
Ba2 O9 2.885863 1_555
Ba2 O14 2.910230 1_655
Ba2 O17 2.910230 1_545
Ba2 O13 2.910236 1_555
Ba2 O1 2.928229 1_555
Ba2 O2 2.928229 1_555
Ba2 O0 2.928229 1_555
Ba3 O11 2.885848 1_455
Ba3 O8 2.885848 1_565
Ba3 O7 2.885854 1_455
Ba3 O7 2.885854 1_565
Ba3 O8 2.885860 1_555
Ba3 O11 2.885860 1_555
Ba3 O15 2.910348 1_455
Ba3 O12 2.910348 1_565
Ba3 O16 2.910354 1_555
Ba3 O6 2.928215 1_554
Ba3 O3 2.928215 1_554
Ba3 O5 2.928215 1_554
Ba4 O17 2.888106 1_545
Ba4 O14 2.888106 1_545
Ba4 O13 2.888109 1_555
Ba4 O13 2.888109 1_445
Ba4 O14 2.888111 1_555
Ba4 O17 2.888111 1_445
Ba4 O5 2.917732 1_545
Ba4 O3 2.917735 1_445
Ba4 O6 2.917735 1_555
Ba4 O10 2.920307 1_545
Ba4 O9 2.920310 1_445
Ba4 O4 2.920310 1_555
Ba5 O12 2.888106 1_455
Ba5 O15 2.888106 1_455
Ba5 O16 2.888109 1_555
Ba5 O16 2.888109 1_445
Ba5 O12 2.888112 1_555
Ba5 O15 2.888112 1_445
Ba5 O0 2.917769 1_455
Ba5 O1 2.917771 1_445
Ba5 O2 2.917771 1_555
Ba5 O7 2.920356 1_455
Ba5 O8 2.920359 1_555
Ba5 O11 2.920359 1_445
Ni0 O10 2.058052 1_545
Ni0 O4 2.058056 1_555
Ni0 O9 2.058056 1_445
Ni0 O0 2.059155 1_455
Ni0 O1 2.059159 1_445
Ni0 O2 2.059159 1_555
Ni1 O7 2.058083 1_455
Ni1 O8 2.058087 1_555
Ni1 O11 2.058087 1_445
Ni1 O5 2.059171 1_544
Ni1 O3 2.059175 1_444
Ni1 O6 2.059175 1_554
O0 Ru2 1.913657 1_555
O1 Ru2 1.913657 1_555
O2 Ru2 1.913657 1_555
O3 Ru3 1.913690 1_555
O4 Ru0 1.914265 1_555
O5 Ru3 1.913690 1_555
O6 Ru3 1.913690 1_555
O7 Ru1 1.914217 1_555
O8 Ru1 1.914217 1_555
O9 Ru0 1.914265 1_555
O10 Ru0 1.914265 1_555
O11 Ru1 1.914217 1_555
O12 Ru1 2.036138 1_555
O12 Ru2 2.037055 1_555
O13 Ru0 2.036083 1_555
O13 Ru3 2.037019 1_555
O14 Ru0 2.036082 1_555
O14 Ru3 2.037019 1_555
O15 Ru1 2.036138 1_555
O15 Ru2 2.037055 1_555
O16 Ru1 2.036138 1_555
O16 Ru2 2.037055 1_555
O17 Ru0 2.036082 1_555
O17 Ru3 2.037019 1_555
