# generated using pymatgen
data_FeP2O7
_symmetry_space_group_name_H-M   'P 1'
_cell_length_a   8.21063400
_cell_length_b   4.98986900
_cell_length_c   7.03823673
_cell_angle_alpha   73.06130007
_cell_angle_beta   90.00000000
_cell_angle_gamma   90.00000000
_symmetry_Int_Tables_number   1
_chemical_formula_structural   FeP2O7
_chemical_formula_sum   'Fe2 P4 O14'
_cell_volume   275.84670975
_cell_formula_units_Z   2
loop_
 _symmetry_equiv_pos_site_id
 _symmetry_equiv_pos_as_xyz
  1  'x, y, z'
loop_
 _atom_site_type_symbol
 _atom_site_label
 _atom_site_symmetry_multiplicity
 _atom_site_fract_x
 _atom_site_fract_y
 _atom_site_fract_z
 _atom_site_occupancy
  Fe  Fe0  1  0.01008100  0.21255500  0.77357500  1
  Fe  Fe1  1  0.51008100  0.78744500  0.22642500  1
  P  P0  1  0.77746900  0.76119600  0.60093100  1
  P  P1  1  0.27746900  0.23880400  0.39906900  1
  P  P2  1  0.18780400  0.61325100  0.01283700  1
  P  P3  1  0.68780400  0.38674900  0.98716300  1
  O  O0  1  0.91993800  0.56837900  0.58745700  1
  O  O1  1  0.83570200  0.01292300  0.66416500  1
  O  O2  1  0.33570200  0.98707700  0.33583500  1
  O  O3  1  0.67990300  0.85519200  0.41024700  1
  O  O4  1  0.05803800  0.84188100  0.97292400  1
  O  O5  1  0.35924900  0.73066700  0.01405400  1
  O  O6  1  0.67699600  0.56278400  0.13189000  1
  O  O7  1  0.41993800  0.43162100  0.41254300  1
  O  O8  1  0.55803800  0.15811900  0.02707600  1
  O  O9  1  0.64977800  0.58736500  0.76648500  1
  O  O10  1  0.17990300  0.14480800  0.58975300  1
  O  O11  1  0.17699600  0.43721600  0.86811000  1
  O  O12  1  0.85924900  0.26933300  0.98594600  1
  O  O13  1  0.14977800  0.41263500  0.23351500  1
loop_
_geom_bond_atom_site_label_1
_geom_bond_atom_site_label_2
_geom_bond_distance
_geom_bond_site_symmetry_2
Fe0 O10 1.996798 1_555
Fe0 O11 2.003059 1_555
Fe0 O4 2.008118 1_545
Fe0 O0 2.015179 1_455
Fe0 O1 2.020443 1_455
Fe0 O12 2.023587 1_455
Fe1 O3 1.996798 1_555
Fe1 O6 2.003059 1_555
Fe1 O8 2.008118 1_565
Fe1 O7 2.015179 1_555
Fe1 O2 2.020443 1_555
Fe1 O5 2.023587 1_555
O0 P0 1.534991 1_555
O1 P0 1.526491 1_545
O2 P1 1.526491 1_565
O3 P0 1.515288 1_555
O4 P2 1.526067 1_556
O5 P2 1.525715 1_555
O6 P3 1.529185 1_554
O7 P1 1.534991 1_555
O8 P3 1.526067 1_554
O9 P3 1.614303 1_555
O9 P0 1.618749 1_555
O10 P1 1.515288 1_555
O11 P2 1.529185 1_556
O12 P3 1.525715 1_555
O13 P2 1.614303 1_555
O13 P1 1.618749 1_555
