# generated using pymatgen
data_Na2La4Zr4Si3(S3O16)3
_symmetry_space_group_name_H-M   'P 1'
_cell_length_a   18.60850494
_cell_length_b   9.29176874
_cell_length_c   24.28549694
_cell_angle_alpha   89.90493259
_cell_angle_beta   90.00838643
_cell_angle_gamma   119.97718065
_symmetry_Int_Tables_number   1
_chemical_formula_structural   Na2La4Zr4Si3(S3O16)3
_chemical_formula_sum   'Na6 La12 Zr12 Si9 S27 O144'
_cell_volume   3637.36249947
_cell_formula_units_Z   3
loop_
 _symmetry_equiv_pos_site_id
 _symmetry_equiv_pos_as_xyz
  1  'x, y, z'
loop_
 _atom_site_type_symbol
 _atom_site_label
 _atom_site_symmetry_multiplicity
 _atom_site_fract_x
 _atom_site_fract_y
 _atom_site_fract_z
 _atom_site_occupancy
  Na  Na0  1  0.99270582  0.02649775  0.49889021  1
  Na  Na1  1  0.49367247  0.96222423  0.00526678  1
  Na  Na2  1  0.31517507  0.30563834  0.84158808  1
  Na  Na3  1  0.82312293  0.32759376  0.82474075  1
  Na  Na4  1  0.32661169  0.31923373  0.32229284  1
  Na  Na5  1  0.80560410  0.31399675  0.33390048  1
  La  La0  1  0.00670366  0.00279984  0.34937181  1
  La  La1  1  0.50797202  0.01192818  0.85142208  1
  La  La2  1  0.99958233  0.01206032  0.64602325  1
  La  La3  1  0.50437070  0.98673588  0.14948380  1
  La  La4  1  0.32500292  0.33101049  0.98412704  1
  La  La5  1  0.84399585  0.34876786  0.98393816  1
  La  La6  1  0.34278562  0.33585201  0.48092109  1
  La  La7  1  0.82599812  0.31967558  0.48177108  1
  La  La8  1  0.16265253  0.67449307  0.30206361  1
  La  La9  1  0.67186570  0.66769694  0.30481633  1
  La  La10  1  0.17177379  0.68126990  0.80812744  1
  La  La11  1  0.66192119  0.65079976  0.80247796  1
  Zr  Zr0  1  0.51251875  0.01776191  0.35471543  1
  Zr  Zr1  1  0.00439904  0.99655050  0.85843115  1
  Zr  Zr2  1  0.50727173  0.01865507  0.64607301  1
  Zr  Zr3  1  0.00669319  0.99476058  0.14605091  1
  Zr  Zr4  1  0.33746523  0.33594185  0.67815914  1
  Zr  Zr5  1  0.83657448  0.33650253  0.68053115  1
  Zr  Zr6  1  0.33823902  0.34008850  0.18198084  1
  Zr  Zr7  1  0.83099070  0.32828916  0.18244818  1
  Zr  Zr8  1  0.16032113  0.67955964  0.02207150  1
  Zr  Zr9  1  0.66454452  0.67063668  0.02613909  1
  Zr  Zr10  1  0.16632231  0.66259408  0.52350672  1
  Zr  Zr11  1  0.65936024  0.64201279  0.51747952  1
  Si  Si0  1  0.15377153  0.02698564  0.24654437  1
  Si  Si1  1  0.65636973  0.03009553  0.25241195  1
  Si  Si2  1  0.65403057  0.28127530  0.74690591  1
  Si  Si3  1  0.48361560  0.33678553  0.58373229  1
  Si  Si4  1  0.98292983  0.34322188  0.58063939  1
  Si  Si5  1  0.48094874  0.62588824  0.07971049  1
  Si  Si6  1  0.98006851  0.62580082  0.08592299  1
  Si  Si7  1  0.16632776  0.95708234  0.91495538  1
  Si  Si8  1  0.66554942  0.37365019  0.41342562  1
  S  S0  1  0.35913465  0.69120042  0.25360607  1
  S  S1  1  0.86083199  0.70150673  0.24249252  1
  S  S2  1  0.98882700  0.27834735  0.24371335  1
  S  S3  1  0.48588221  0.27580801  0.25104748  1
  S  S4  1  0.15283766  0.27701151  0.75416308  1
  S  S5  1  0.98747698  0.69867049  0.75192894  1
  S  S6  1  0.48609129  0.69580166  0.74411637  1
  S  S7  1  0.35921877  0.01970685  0.74278157  1
  S  S8  1  0.86066133  0.02834469  0.75365879  1
  S  S9  1  0.19034291  0.03380688  0.58248855  1
  S  S10  1  0.68441024  0.02839869  0.58802089  1
  S  S11  1  0.33232974  0.62992331  0.58681126  1
  S  S12  1  0.82586820  0.62195696  0.58304387  1
  S  S13  1  0.32693245  0.03003367  0.08337149  1
  S  S14  1  0.83210401  0.03273324  0.08694180  1
  S  S15  1  0.18357717  0.34150110  0.08757348  1
  S  S16  1  0.68878449  0.34634320  0.08103395  1
  S  S17  1  0.31317717  0.67763962  0.92030551  1
  S  S18  1  0.81525444  0.67765894  0.91389407  1
  S  S19  1  0.02500904  0.36750287  0.91438151  1
  S  S20  1  0.52609976  0.37905347  0.92205878  1
  S  S21  1  0.66551528  0.94898074  0.92078160  1
  S  S22  1  0.31364730  0.94767040  0.41539102  1
  S  S23  1  0.81418458  0.94656957  0.42141705  1
  S  S24  1  0.16371682  0.37991124  0.42132901  1
  S  S25  1  0.02711456  0.67624983  0.42218066  1
  S  S26  1  0.52616830  0.68291909  0.41530914  1
  O  O0  1  0.11756555  0.05715593  0.30434549  1
  O  O1  1  0.60191932  0.04906025  0.30499555  1
  O  O2  1  0.41321128  0.77986208  0.30129074  1
  O  O3  1  0.90552718  0.76694619  0.29556088  1
  O  O4  1  0.47505304  0.16829678  0.30011090  1
  O  O5  1  0.97564394  0.18606050  0.29625334  1
  O  O6  1  0.10565641  0.16666619  0.80203961  1
  O  O7  1  0.61737787  0.17699439  0.80443615  1
  O  O8  1  0.47261151  0.76096119  0.79656645  1
  O  O9  1  0.97849579  0.78835426  0.80092890  1
  O  O10  1  0.40459563  0.04763248  0.79561278  1
  O  O11  1  0.91535961  0.04713421  0.80174549  1
  O  O12  1  0.40648870  0.00451741  0.69656903  1
  O  O13  1  0.89386497  0.99792236  0.70285951  1
  O  O14  1  0.10611702  0.20707628  0.70296446  1
  O  O15  1  0.58943177  0.17132452  0.69746553  1
  O  O16  1  -0.00048804  0.79490270  0.70171891  1
  O  O17  1  0.49263890  0.80201478  0.69710264  1
  O  O18  1  0.38913535  0.78654246  0.20219185  1
  O  O19  1  0.90854077  0.81440609  0.19671601  1
  O  O20  1  0.99487583  0.18443145  0.19681358  1
  O  O21  1  0.49504305  0.20305096  0.20019125  1
  O  O22  1  0.08982496  0.00856398  0.19697674  1
  O  O23  1  0.60424195  0.00202004  0.19670864  1
  O  O24  1  0.43047518  0.36626290  0.63504173  1
  O  O25  1  0.93349240  0.36161268  0.63571223  1
  O  O26  1  0.24282463  0.12345597  0.63201905  1
  O  O27  1  0.74374291  0.12387303  0.63448838  1
  O  O28  1  0.31279818  0.50742482  0.63373710  1
  O  O29  1  0.81711565  0.51414183  0.63217121  1
  O  O30  1  0.43150319  0.50902368  0.13451217  1
  O  O31  1  0.92668138  0.49053163  0.13475317  1
  O  O32  1  0.31748654  0.12068022  0.13166859  1
  O  O33  1  0.81200059  0.11344846  0.13325254  1
  O  O34  1  0.24298513  0.36729361  0.13354644  1
  O  O35  1  0.73955136  0.36113430  0.13081676  1
  O  O36  1  0.20843034  0.28699041  0.03788490  1
  O  O37  1  0.72428311  0.31190047  0.03178561  1
  O  O38  1  0.42887880  0.53723503  0.02529655  1
  O  O39  1  0.92712479  0.56322217  0.02940355  1
  O  O40  1  0.33938869  0.12517884  0.03252870  1
  O  O41  1  0.85222380  0.13554119  0.03685382  1
  O  O42  1  0.22331928  0.13894016  0.53343066  1
  O  O43  1  0.70932888  0.13393669  0.53868817  1
  O  O44  1  0.35243694  0.56675127  0.53752486  1
  O  O45  1  0.84121186  0.55396415  0.53325629  1
  O  O46  1  0.42400136  0.28901964  0.53096873  1
  O  O47  1  0.92721602  0.31255906  0.52702443  1
  O  O48  1  0.26299518  0.67217286  0.96900496  1
  O  O49  1  0.77761540  0.69699215  0.96536981  1
  O  O50  1  0.07200546  0.44642803  0.96574792  1
  O  O51  1  0.57967854  0.47957386  0.96952167  1
  O  O52  1  0.15632908  0.84119324  0.97043495  1
  O  O53  1  0.66631232  0.85234475  0.97047988  1
  O  O54  1  0.27179534  0.85283372  0.46703047  1
  O  O55  1  0.76364066  0.85255953  0.47069750  1
  O  O56  1  0.16482572  0.47844933  0.47139516  1
  O  O57  1  0.65659041  0.47134168  0.47022483  1
  O  O58  1  0.08098003  0.68261515  0.46993188  1
  O  O59  1  0.57347775  0.69441070  0.46702843  1
  O  O60  1  0.06577024  0.66866554  0.37005971  1
  O  O61  1  0.56424634  0.65615465  0.36727528  1
  O  O62  1  0.26015318  0.86658086  0.36732186  1
  O  O63  1  0.77357981  0.86569344  0.36981397  1
  O  O64  1  0.16492670  0.46636181  0.37076118  1
  O  O65  1  0.67802990  0.48650835  0.36058908  1
  O  O66  1  0.06447554  0.46973901  0.86565363  1
  O  O67  1  0.56525467  0.46418112  0.86964969  1
  O  O68  1  0.17546696  0.86816205  0.86078806  1
  O  O69  1  0.66669261  0.86471165  0.86990347  1
  O  O70  1  0.27143429  0.67557744  0.86813043  1
  O  O71  1  0.76327286  0.65549330  0.86550655  1
  O  O72  1  0.02193656  0.83079924  0.42462465  1
  O  O73  1  0.52116186  0.83777008  0.40956796  1
  O  O74  1  0.39499706  0.95744338  0.40806283  1
  O  O75  1  0.89733603  0.95890849  0.42531799  1
  O  O76  1  0.08635138  0.21439457  0.42496681  1
  O  O77  1  0.57649090  0.19466263  0.40656820  1
  O  O78  1  0.02015122  0.20180413  0.90651105  1
  O  O79  1  0.52068487  0.21352008  0.92388391  1
  O  O80  1  0.07796211  0.96265324  0.90461083  1
  O  O81  1  0.58770684  0.95878254  0.92373126  1
  O  O82  1  0.39612902  0.83183732  0.92272848  1
  O  O83  1  0.89829963  0.83297885  0.90473971  1
  O  O84  1  0.49790424  0.18389215  0.60132589  1
  O  O85  1  0.00218071  0.19031254  0.58625201  1
  O  O86  1  0.10442554  -0.00599607  0.59162026  1
  O  O87  1  0.59923888  -0.00668641  0.60349272  1
  O  O88  1  0.40164840  0.79389560  0.60286075  1
  O  O89  1  0.89739626  0.79096215  0.59179380  1
  O  O90  1  0.49800082  0.81453694  0.08170872  1
  O  O91  1  0.99768192  0.81171858  0.10101222  1
  O  O92  1  0.39747229  0.00303834  0.09107526  1
  O  O93  1  0.90138693  0.00666877  0.10194682  1
  O  O94  1  0.09844546  0.20746592  0.10247129  1
  O  O95  1  0.60208802  0.21479151  0.08710700  1
  O  O96  1  0.34796121  0.16800129  0.73368061  1
  O  O97  1  0.85697985  0.18542456  0.74694466  1
  O  O98  1  0.23565633  0.28620024  0.74955943  1
  O  O99  1  0.74572086  0.30270830  0.73430352  1
  O  O100  1  0.41030764  0.52556083  0.73579647  1
  O  O101  1  0.90914851  0.53289066  0.74704297  1
  O  O102  1  0.35634035  0.52665652  0.24625972  1
  O  O103  1  0.85367225  0.53542082  0.23397592  1
  O  O104  1  0.40760560  0.28782656  0.24627862  1
  O  O105  1  0.91448488  0.29911553  0.23570381  1
  O  O106  1  0.24492329  0.18935643  0.23335259  1
  O  O107  1  0.74716913  0.20480519  0.24428273  1
  O  O108  1  0.32381647  0.52984203  0.91908219  1
  O  O109  1  0.82932743  0.53387011  0.91714667  1
  O  O110  1  0.44257779  0.35876533  0.92472567  1
  O  O111  1  0.93827893  0.33517832  0.91810227  1
  O  O112  1  0.24265127  0.14586408  0.91716079  1
  O  O113  1  0.73906569  0.11811747  0.92264646  1
  O  O114  1  0.32524223  0.11871334  0.41907194  1
  O  O115  1  0.82530265  0.11622889  0.42096134  1
  O  O116  1  0.23763125  0.35898149  0.42394963  1
  O  O117  1  0.74195255  0.33711742  0.41812253  1
  O  O118  1  0.43936608  0.54065568  0.42046221  1
  O  O119  1  0.94396838  0.52905079  0.42601350  1
  O  O120  1  0.18148376  0.49601121  0.07663904  1
  O  O121  1  0.69138362  0.50892265  0.07268002  1
  O  O122  1  0.07013684  0.63646467  0.07209839  1
  O  O123  1  0.57471919  0.63925961  0.07207101  1
  O  O124  1  0.24896875  0.86462900  0.07751491  1
  O  O125  1  0.75655194  0.86762484  0.07574141  1
  O  O126  1  0.19227810  0.87610819  0.57496301  1
  O  O127  1  0.68247177  0.87058896  0.57878791  1
  O  O128  1  0.25638656  0.64304415  0.57692526  1
  O  O129  1  0.74921204  0.63329762  0.57712716  1
  O  O130  1  0.07595499  0.51561010  0.57123623  1
  O  O131  1  0.57147430  0.50617832  0.57172440  1
  O  O132  1  0.16063537  0.86028837  0.25004821  1
  O  O133  1  0.67256701  0.88013409  0.26532703  1
  O  O134  1  0.27328173  0.65373209  0.26364823  1
  O  O135  1  0.77834293  0.68272942  0.24302463  1
  O  O136  1  0.06362832  0.44329974  0.24718005  1
  O  O137  1  0.55612299  0.44399167  0.25842712  1
  O  O138  1  0.16508180  0.44357827  0.76262117  1
  O  O139  1  0.66044534  0.46141038  0.75059883  1
  O  O140  1  0.05760786  0.67026625  0.75990099  1
  O  O141  1  0.55961330  0.67655186  0.74739334  1
  O  O142  1  0.27694128  0.87061255  0.74444332  1
  O  O143  1  0.77600537  0.89006398  0.76285360  1
loop_
_geom_bond_atom_site_label_1
_geom_bond_atom_site_label_2
_geom_bond_distance
_geom_bond_site_symmetry_2
Na0 O75 2.371789 1_545
Na0 O76 2.501601 1_655
Na0 O85 2.567426 1_655
Na0 O72 2.802653 1_645
Na0 O89 3.021867 1_545
Na1 O90 2.331934 1_555
Na1 O82 2.567080 1_554
Na1 O81 2.653492 1_554
Na1 O92 2.893649 1_565
Na1 O79 2.902265 1_564
Na1 O95 2.968310 1_565
Na2 O112 2.320180 1_555
Na2 O98 2.636391 1_555
Na2 O108 2.754234 1_555
Na2 O110 2.961953 1_555
Na3 O97 2.559653 1_555
Na3 O99 2.572891 1_555
Na3 O101 2.588302 1_555
Na3 O109 2.918238 1_555
Na3 O113 2.971844 1_555
Na4 O104 2.491335 1_555
Na4 O102 2.520556 1_555
Na4 O106 2.570404 1_555
Na4 O114 2.989014 1_555
Na5 O107 2.419237 1_555
Na5 O117 2.426748 1_555
Na5 O115 2.939649 1_555
La0 O0 2.159694 1_555
La0 O5 2.423583 1_455
La0 O3 2.437371 1_445
La0 O72 2.533254 1_545
La0 O76 2.555737 1_555
La0 O75 2.622820 1_445
La1 O7 2.161887 1_555
La1 O8 2.474327 1_545
La1 O79 2.495883 1_555
La1 O81 2.501534 1_545
La1 O10 2.506610 1_555
La1 O82 2.577145 1_545
La2 O85 2.182814 1_655
La2 O13 2.352543 1_545
La2 O14 2.354481 1_655
La2 O89 2.382280 1_545
La2 O16 2.426778 1_645
La2 O86 2.430766 1_655
La3 O23 2.127327 1_565
La3 O90 2.258864 1_555
La3 O18 2.388255 1_555
La3 O21 2.437913 1_565
La3 O95 2.496236 1_565
La3 O92 2.508307 1_565
La4 O38 2.170765 1_556
La4 O112 2.308002 1_555
La4 O40 2.369652 1_556
La4 O36 2.385316 1_556
La4 O108 2.437228 1_555
La4 O110 2.523944 1_555
La5 O39 2.123494 1_556
La5 O37 2.380540 1_556
La5 O111 2.423493 1_555
La5 O41 2.427937 1_556
La5 O109 2.474572 1_555
La5 O113 2.539540 1_555
La6 O46 2.146061 1_555
La6 O118 2.362406 1_555
La6 O114 2.405227 1_555
La6 O42 2.417513 1_555
La6 O44 2.479837 1_555
La6 O116 2.491562 1_555
La7 O47 2.209844 1_555
La7 O117 2.261260 1_555
La7 O115 2.395712 1_555
La7 O45 2.403266 1_555
La7 O43 2.418939 1_555
La7 O119 2.482305 1_555
La8 O132 2.152901 1_555
La8 O134 2.354487 1_555
La8 O62 2.400340 1_555
La8 O136 2.416581 1_555
La8 O60 2.425494 1_555
La8 O64 2.568317 1_555
La9 O133 2.187284 1_555
La9 O65 2.206240 1_555
La9 O137 2.400400 1_555
La9 O135 2.433294 1_555
La9 O63 2.446997 1_555
La9 O61 2.471557 1_555
La10 O68 2.131666 1_555
La10 O70 2.379602 1_555
La10 O140 2.382876 1_555
La10 O138 2.418238 1_555
La10 O142 2.422459 1_555
La10 O66 2.423131 1_555
La11 O139 2.154981 1_555
La11 O143 2.377500 1_555
La11 O67 2.403777 1_555
La11 O71 2.412276 1_555
La11 O141 2.434074 1_555
La11 O69 2.544445 1_555
O0 Si0 1.641125 1_555
O1 Si1 1.693528 1_555
O1 Zr0 1.956046 1_555
O2 S0 1.485517 1_555
O2 Zr0 2.431333 1_565
O3 S1 1.489753 1_555
O4 S3 1.501081 1_555
O4 Zr0 2.273572 1_555
O5 S2 1.486546 1_555
O6 S4 1.506898 1_555
O6 Zr1 2.222991 1_545
O7 Si2 1.640568 1_555
O8 S6 1.485399 1_555
O9 S5 1.510281 1_555
O9 Zr1 2.236458 1_655
O10 S7 1.486049 1_555
O11 S8 1.501010 1_555
O11 Zr1 2.374182 1_645
O12 S7 1.475831 1_555
O12 Zr2 2.189126 1_555
O13 S8 1.469547 1_565
O14 S4 1.470350 1_555
O15 Si2 1.645235 1_555
O15 Zr2 1.935338 1_555
O16 S5 1.460450 1_455
O17 S6 1.472606 1_555
O17 Zr2 2.259666 1_565
O18 S0 1.468957 1_555
O19 S1 1.479957 1_555
O19 Zr3 2.143221 1_655
O20 S2 1.474095 1_555
O20 Zr3 2.251376 1_645
O21 S3 1.459275 1_555
O22 Si0 1.640450 1_555
O22 Zr3 1.934114 1_545
O23 Si1 1.608392 1_555
O24 Si3 1.696387 1_555
O24 Zr4 1.919298 1_555
O25 Si4 1.680049 1_555
O25 Zr5 2.017671 1_555
O26 S9 1.511483 1_555
O26 Zr4 2.187999 1_555
O27 S10 1.517780 1_555
O27 Zr5 2.175775 1_555
O28 S11 1.519473 1_555
O28 Zr4 2.153700 1_555
O29 S12 1.512151 1_555
O29 Zr5 2.196718 1_555
O30 Si5 1.671561 1_555
O30 Zr6 2.019192 1_555
O31 Si6 1.649423 1_555
O31 Zr7 2.024179 1_555
O32 S13 1.505767 1_555
O32 Zr6 2.240471 1_555
O33 S14 1.500209 1_555
O33 Zr7 2.200032 1_555
O34 S15 1.503941 1_555
O34 Zr6 2.243993 1_555
O35 S16 1.497829 1_555
O35 Zr7 2.253376 1_555
O36 S15 1.470667 1_555
O37 S16 1.477163 1_555
O38 Si5 1.602908 1_555
O39 Si6 1.619430 1_555
O40 S13 1.466824 1_555
O41 S14 1.473513 1_555
O42 S9 1.465461 1_555
O43 S10 1.467614 1_555
O44 S11 1.462587 1_555
O45 S12 1.457916 1_555
O46 Si3 1.605932 1_555
O47 Si4 1.599081 1_555
O48 S17 1.492000 1_555
O48 Zr8 2.334111 1_556
O49 S18 1.487400 1_555
O49 Zr9 2.479908 1_556
O50 S19 1.490163 1_555
O50 Zr8 2.390800 1_556
O51 S20 1.505890 1_555
O51 Zr9 2.177624 1_556
O52 Si7 1.674677 1_555
O52 Zr8 1.984663 1_556
O53 S21 1.507617 1_555
O53 Zr9 2.148442 1_556
O54 S22 1.505523 1_555
O54 Zr10 2.320284 1_555
O55 S23 1.501944 1_555
O55 Zr11 2.254601 1_555
O56 S24 1.517205 1_555
O56 Zr10 2.118865 1_555
O57 Si8 1.705856 1_555
O57 Zr11 1.938780 1_555
O58 S25 1.514489 1_555
O58 Zr10 2.131503 1_555
O59 S26 1.506726 1_555
O59 Zr11 2.251065 1_555
O60 S25 1.475066 1_555
O61 S26 1.449830 1_555
O62 S22 1.474608 1_555
O63 S23 1.463420 1_555
O64 S24 1.460332 1_555
O65 Si8 1.597610 1_555
O66 S19 1.463391 1_555
O67 S20 1.482401 1_555
O68 Si7 1.608151 1_555
O69 S21 1.469916 1_555
O70 S17 1.481283 1_555
O71 S18 1.469819 1_555
O72 S25 1.487807 1_555
O73 S26 1.493875 1_555
O73 Zr0 2.204274 1_565
O74 S22 1.481268 1_555
O74 Zr0 2.355577 1_565
O75 S23 1.496344 1_555
O76 S24 1.494218 1_555
O77 Si8 1.669339 1_555
O77 Zr0 1.937975 1_555
O78 S19 1.508996 1_555
O78 Zr1 2.129612 1_545
O79 S20 1.490893 1_555
O80 Si7 1.689551 1_555
O80 Zr1 1.913133 1_555
O81 S21 1.497220 1_555
O82 S17 1.493039 1_555
O83 S18 1.513497 1_555
O83 Zr1 2.114035 1_655
O84 Si3 1.626939 1_555
O84 Zr2 1.957155 1_555
O85 Si4 1.635096 1_455
O86 S9 1.466645 1_555
O87 S10 1.497612 1_555
O87 Zr2 2.111299 1_555
O88 S11 1.474792 1_555
O88 Zr2 2.287067 1_565
O89 S12 1.481584 1_555
O90 Si5 1.618666 1_555
O91 Si6 1.631636 1_555
O91 Zr3 1.959151 1_655
O92 S13 1.466202 1_555
O93 S14 1.471464 1_555
O93 Zr3 2.283669 1_645
O94 S15 1.489514 1_555
O94 Zr3 2.136088 1_545
O95 S16 1.465410 1_555
O96 S7 1.509577 1_555
O96 Zr4 2.142149 1_555
O97 S8 1.503560 1_555
O97 Zr5 2.289357 1_555
O98 S4 1.504462 1_555
O98 Zr4 2.435735 1_555
O99 Si2 1.644660 1_555
O99 Zr5 2.032491 1_555
O100 S6 1.517740 1_555
O100 Zr4 2.126494 1_555
O101 S5 1.506079 1_555
O101 Zr5 2.304188 1_555
O102 S0 1.514443 1_555
O102 Zr6 2.231773 1_555
O103 S1 1.495887 1_555
O103 Zr7 2.155069 1_555
O104 S3 1.519888 1_555
O104 Zr6 2.227909 1_555
O105 S2 1.501809 1_555
O105 Zr7 2.139936 1_555
O106 Si0 1.642310 1_555
O106 Zr6 2.024316 1_555
O107 Si1 1.669489 1_555
O107 Zr7 2.052077 1_555
O108 S17 1.482522 1_555
O109 S18 1.486318 1_555
O110 S20 1.470554 1_555
O111 S19 1.489513 1_655
O112 Si7 1.614820 1_545
O113 S21 1.481854 1_545
O114 S22 1.496056 1_545
O115 S23 1.483945 1_545
O116 S24 1.483554 1_555
O117 Si8 1.622257 1_555
O118 S26 1.495959 1_555
O119 S25 1.469068 1_655
O120 S15 1.479124 1_555
O120 Zr8 2.341676 1_555
O121 S16 1.500512 1_555
O121 Zr9 2.128125 1_555
O122 Si6 1.663050 1_455
O122 Zr8 1.944268 1_555
O123 Si5 1.696468 1_555
O123 Zr9 1.906760 1_555
O124 S13 1.503186 1_565
O124 Zr8 2.159529 1_555
O125 S14 1.500024 1_565
O125 Zr9 2.146572 1_555
O126 S9 1.495133 1_565
O126 Zr10 2.186624 1_555
O127 S10 1.466267 1_565
O127 Zr11 2.451565 1_555
O128 S11 1.497192 1_555
O128 Zr10 2.197188 1_555
O129 S12 1.488834 1_555
O129 Zr11 2.243822 1_555
O130 Si4 1.685962 1_455
O130 Zr10 1.933105 1_555
O131 Si3 1.631700 1_555
O131 Zr11 1.983801 1_555
O132 Si0 1.618624 1_565
O133 Si1 1.596565 1_565
O134 S0 1.475469 1_555
O135 S1 1.455745 1_555
O136 S2 1.470440 1_455
O137 S3 1.463675 1_555
O138 S4 1.462234 1_555
O139 Si2 1.620076 1_555
O140 S5 1.467718 1_455
O141 S6 1.467849 1_555
O142 S7 1.464654 1_565
O143 S8 1.469305 1_565
