# generated using pymatgen
data_MgCo6(O2F)4
_symmetry_space_group_name_H-M   'P 1'
_cell_length_a   5.05737617
_cell_length_b   7.65145621
_cell_length_c   5.60510092
_cell_angle_alpha   98.87789698
_cell_angle_beta   99.94998177
_cell_angle_gamma   81.17683561
_symmetry_Int_Tables_number   1
_chemical_formula_structural   MgCo6(O2F)4
_chemical_formula_sum   'Mg1 Co6 O8 F4'
_cell_volume   209.27770920
_cell_formula_units_Z   1
loop_
 _symmetry_equiv_pos_site_id
 _symmetry_equiv_pos_as_xyz
  1  'x, y, z'
loop_
 _atom_site_type_symbol
 _atom_site_label
 _atom_site_symmetry_multiplicity
 _atom_site_fract_x
 _atom_site_fract_y
 _atom_site_fract_z
 _atom_site_occupancy
  Mg  Mg0  1  0.02073917  0.48846558  0.02119112  1
  Co  Co0  1  0.53305454  0.01779041  0.46959183  1
  Co  Co1  1  0.52700873  0.34029627  0.81528770  1
  Co  Co2  1  0.49584063  0.67613248  0.16815472  1
  Co  Co3  1  0.99571841  0.67149190  0.63740927  1
  Co  Co4  1  0.94115473  0.29608003  0.39970548  1
  Co  Co5  1  0.98636892  1.00070721  0.00607027  1
  O  O0  1  0.83694343  0.44353330  0.66141633  1
  O  O1  1  0.81221492  0.08809637  0.28080537  1
  O  O2  1  0.70128828  0.77804324  0.45431430  1
  O  O3  1  0.69338853  0.10249336  0.78748311  1
  O  O4  1  0.69453706  0.44073023  0.14311255  1
  O  O5  1  0.30848168  0.56644635  0.86704087  1
  O  O6  1  0.31588582  0.23850582  0.53216334  1
  O  O7  1  0.30926815  0.90754033  0.20276722  1
  F  F0  1  0.83339738  0.74523635  0.97014053  1
  F  F1  1  0.15831901  0.24022714  0.04788682  1
  F  F2  1  0.15762846  0.89739614  0.72442263  1
  F  F3  1  0.19959314  0.58310949  0.34675356  1
loop_
_geom_bond_atom_site_label_1
_geom_bond_atom_site_label_2
_geom_bond_distance
_geom_bond_site_symmetry_2
Mg0 O4 1.993364 1_455
Mg0 O5 2.019957 1_554
Mg0 O0 2.070038 1_454
Co0 O7 1.883563 1_545
Co0 O3 1.886235 1_555
Co0 O6 1.887485 1_555
Co0 O2 1.895839 1_545
Co0 O1 2.080214 1_555
Co1 O3 1.879136 1_555
Co1 O6 1.884963 1_555
Co1 O5 1.915453 1_555
Co1 O4 1.977535 1_556
Co1 O0 2.209528 1_555
Co2 O7 1.872892 1_555
Co2 O2 1.883310 1_555
Co2 O4 1.920721 1_555
Co2 O5 1.924802 1_554
Co2 F3 2.195179 1_555
Co2 F0 2.353426 1_554
Co3 O2 1.814631 1_555
Co3 F2 1.982938 1_655
Co3 O5 2.007579 1_655
Co3 F3 2.049660 1_655
Co3 O0 2.060247 1_555
Co3 F0 2.129004 1_555
Co4 O1 1.800743 1_555
Co4 O0 1.810094 1_555
Co4 O6 1.922367 1_655
Co4 O4 2.072928 1_555
Co4 F1 2.371055 1_655
Co5 O1 1.887965 1_565
Co5 O3 1.901657 1_564
Co5 O7 1.911476 1_655
Co5 F2 1.935075 1_654
Co5 F1 2.110866 1_665
Co5 F0 2.179123 1_554
F0 Mg0 2.085253 1_656
F1 Mg0 1.939202 1_555
F3 Mg0 1.973621 1_555
