# generated using pymatgen
data_Na3Zn2In2PS5O24
_symmetry_space_group_name_H-M   'P 1'
_cell_length_a   8.82218497
_cell_length_b   8.83729314
_cell_length_c   23.02999259
_cell_angle_alpha   90.36167483
_cell_angle_beta   89.48001830
_cell_angle_gamma   119.94126548
_symmetry_Int_Tables_number   1
_chemical_formula_structural   Na3Zn2In2PS5O24
_chemical_formula_sum   'Na9 Zn6 In6 P3 S15 O72'
_cell_volume   1555.81436803
_cell_formula_units_Z   3
loop_
 _symmetry_equiv_pos_site_id
 _symmetry_equiv_pos_as_xyz
  1  'x, y, z'
loop_
 _atom_site_type_symbol
 _atom_site_label
 _atom_site_symmetry_multiplicity
 _atom_site_fract_x
 _atom_site_fract_y
 _atom_site_fract_z
 _atom_site_occupancy
  Na  Na0  1  0.36759546  0.99488627  0.74961704  1
  Na  Na1  1  0.66214235  0.96653005  0.58694829  1
  Na  Na2  1  0.67145993  0.69858542  0.08209032  1
  Na  Na3  1  0.02017010  0.00247222  0.50341179  1
  Na  Na4  1  0.01073745  0.00307926  0.00273225  1
  Na  Na5  1  0.67831634  0.33740551  0.83353240  1
  Na  Na6  1  0.66675021  0.33338885  0.33313269  1
  Na  Na7  1  0.31307511  0.66385473  0.16684437  1
  Na  Na8  1  0.33017087  0.65911325  0.66653081  1
  Zn  Zn0  1  0.00475923  0.99968360  0.65145240  1
  Zn  Zn1  1  0.00948320  0.99601732  0.15074150  1
  Zn  Zn2  1  0.31185420  0.66502852  0.01600156  1
  Zn  Zn3  1  0.32497209  0.67185049  0.51578793  1
  Zn  Zn4  1  0.33175929  0.66485309  0.31716004  1
  Zn  Zn5  1  0.34747567  0.67006753  0.81671683  1
  In  In0  1  0.00185588  0.00114172  0.35013724  1
  In  In1  1  0.99094699  0.00030174  0.85021807  1
  In  In2  1  0.66879251  0.33066530  0.68190924  1
  In  In3  1  0.67394789  0.33587084  0.18328056  1
  In  In4  1  0.67340525  0.33736544  0.98331821  1
  In  In5  1  0.65780181  0.32937022  0.48257683  1
  P  P0  1  0.70289078  0.99668533  0.74755361  1
  P  P1  1  0.36095572  0.03036579  0.58382086  1
  P  P2  1  0.96810562  0.63504521  0.08389195  1
  S  S0  1  0.29739516  0.99812150  0.24935629  1
  S  S1  1  0.70009021  0.70487773  0.24922742  1
  S  S2  1  0.00329249  0.29494821  0.24926704  1
  S  S3  1  0.29291148  0.29764196  0.74978831  1
  S  S4  1  0.00007258  0.70371507  0.75002335  1
  S  S5  1  0.96922108  0.33616448  0.58196413  1
  S  S6  1  0.66650719  0.63201646  0.58311264  1
  S  S7  1  0.66630998  0.03247817  0.08319848  1
  S  S8  1  0.36685886  0.33211699  0.08324284  1
  S  S9  1  0.62342662  0.66514999  0.91850614  1
  S  S10  1  0.04511464  0.37679630  0.91578267  1
  S  S11  1  0.33331693  0.96193588  0.91557858  1
  S  S12  1  0.62591978  0.95791556  0.41665966  1
  S  S13  1  0.33292338  0.37825843  0.41638235  1
  S  S14  1  0.03982738  0.66549310  0.41617361  1
  O  O0  1  0.22276146  0.03033225  0.30341574  1
  O  O1  1  0.81038950  0.78468864  0.30167519  1
  O  O2  1  0.97360725  0.19069631  0.30330744  1
  O  O3  1  0.22052842  0.18482836  0.80253762  1
  O  O4  1  0.97224961  0.77998681  0.80424487  1
  O  O5  1  0.81243953  0.02895153  0.80262273  1
  O  O6  1  0.78612266  0.97572612  0.69150295  1
  O  O7  1  0.18994531  0.21514310  0.69768321  1
  O  O8  1  0.03036465  0.81486359  0.69890968  1
  O  O9  1  0.78108590  0.80589284  0.19583788  1
  O  O10  1  0.02297635  0.20898507  0.19729147  1
  O  O11  1  0.19156242  0.97589529  0.19792330  1
  O  O12  1  0.89337366  0.37017708  0.63526050  1
  O  O13  1  0.47769973  0.10718244  0.63958806  1
  O  O14  1  0.64056804  0.52508394  0.63577086  1
  O  O15  1  0.88627437  0.52078387  0.13831633  1
  O  O16  1  0.63220349  0.11002772  0.13559331  1
  O  O17  1  0.48002042  0.36450408  0.13511363  1
  O  O18  1  0.44520442  0.29865844  0.03034759  1
  O  O19  1  0.84535803  0.55578138  0.03014535  1
  O  O20  1  0.69348061  0.14024393  0.03052370  1
  O  O21  1  0.44833960  0.14751331  0.53023759  1
  O  O22  1  0.69870690  0.55320614  0.53048655  1
  O  O23  1  0.85384284  0.30378026  0.53070957  1
  O  O24  1  0.54406920  0.68540056  0.97249848  1
  O  O25  1  0.14367235  0.45444471  0.96909786  1
  O  O26  1  0.31174863  0.85822705  0.96758625  1
  O  O27  1  0.55071703  0.86107878  0.47120139  1
  O  O28  1  0.31209879  0.45842793  0.46975232  1
  O  O29  1  0.14085196  0.68946161  0.46909710  1
  O  O30  1  0.11983489  0.64287308  0.36293876  1
  O  O31  1  0.52090226  0.87449437  0.36478070  1
  O  O32  1  0.35376532  0.47798631  0.36318493  1
  O  O33  1  0.12621238  0.47916229  0.86286442  1
  O  O34  1  0.35570319  0.88563041  0.86101964  1
  O  O35  1  0.52199497  0.64555274  0.86580136  1
  O  O36  1  0.01994200  0.82481647  0.41206452  1
  O  O37  1  0.80495734  0.97730210  0.41193426  1
  O  O38  1  0.17437611  0.19798534  0.41282402  1
  O  O39  1  0.02581008  0.19802322  0.91284379  1
  O  O40  1  0.17367247  0.98147368  0.91192433  1
  O  O41  1  0.80315152  0.82336321  0.91442458  1
  O  O42  1  0.97482859  0.17224757  0.58827118  1
  O  O43  1  0.18087954  0.01312510  0.59112549  1
  O  O44  1  0.82109045  0.80918927  0.58831722  1
  O  O45  1  0.97528092  0.81407828  0.09038875  1
  O  O46  1  0.82516688  0.01742802  0.08951106  1
  O  O47  1  0.19209376  0.17902662  0.09040404  1
  O  O48  1  0.67661874  0.16129286  0.74566468  1
  O  O49  1  0.47166473  0.31382837  0.74503561  1
  O  O50  1  0.84056070  0.52896242  0.74451986  1
  O  O51  1  0.68195424  0.52652890  0.24599721  1
  O  O52  1  0.84136107  0.31111230  0.24640805  1
  O  O53  1  0.47491590  0.15924024  0.24431691  1
  O  O54  1  0.64204175  0.50511019  0.92034186  1
  O  O55  1  0.86429322  0.35462227  0.91928952  1
  O  O56  1  0.49308027  0.14028921  0.92078797  1
  O  O57  1  0.64767058  0.13781678  0.41973744  1
  O  O58  1  0.49275640  0.35827348  0.41911908  1
  O  O59  1  0.86082030  0.50655675  0.42094949  1
  O  O60  1  0.36143815  0.49637519  0.07647225  1
  O  O61  1  0.14839406  0.65243441  0.07691106  1
  O  O62  1  0.51274067  0.85463649  0.07677508  1
  O  O63  1  0.35765320  0.85336346  0.57666558  1
  O  O64  1  0.50793678  0.64790382  0.57732914  1
  O  O65  1  0.14365318  0.48948651  0.57498532  1
  O  O66  1  0.31467901  0.84123498  0.25570984  1
  O  O67  1  0.52598689  0.68845726  0.25639569  1
  O  O68  1  0.15971907  0.47035483  0.25514578  1
  O  O69  1  0.30994720  0.47050345  0.75730909  1
  O  O70  1  0.15910901  0.68767405  0.75609130  1
  O  O71  1  0.51510138  0.83561900  0.75413632  1
loop_
_geom_bond_atom_site_label_1
_geom_bond_atom_site_label_2
_geom_bond_distance
_geom_bond_site_symmetry_2
Na0 O71 2.349036 1_555
Na0 O48 2.366117 1_565
Na0 O70 2.406557 1_555
Na0 O49 2.493450 1_565
Na0 O13 2.715545 1_565
Na0 O34 2.729620 1_555
Na0 O8 2.839172 1_555
Na0 O3 2.847076 1_565
Na1 O63 2.366237 1_555
Na1 O44 2.418357 1_555
Na1 O42 2.431136 1_565
Na1 O64 2.449948 1_555
Na1 O6 2.637708 1_555
Na1 O13 2.761623 1_565
Na1 O27 2.835878 1_555
Na1 O23 2.897899 1_565
Na2 O45 2.353421 1_555
Na2 O62 2.410471 1_555
Na2 O60 2.411498 1_555
Na2 O46 2.447756 1_565
Na2 O19 2.694015 1_555
Na2 O24 2.750231 1_554
Na2 O9 2.792147 1_555
Na2 O17 2.844420 1_555
Na3 O43 2.452748 1_555
Na3 O42 2.603515 1_455
Na3 O44 2.609775 1_445
Na3 O38 2.614589 1_555
Na3 O36 2.616445 1_545
Na3 O37 2.781680 1_445
Na4 O45 2.544099 1_445
Na4 O47 2.567082 1_555
Na4 O40 2.586624 1_544
Na4 O46 2.614384 1_455
Na4 O39 2.661284 1_554
Na4 O41 2.671278 1_444
Na5 O55 2.534071 1_555
Na5 O48 2.540655 1_555
Na5 O50 2.586236 1_555
Na5 O54 2.592338 1_555
Na5 O56 2.624128 1_555
Na5 O49 2.683997 1_555
Na6 O58 2.569505 1_555
Na6 O52 2.577350 1_555
Na6 O57 2.596253 1_555
Na6 O51 2.601550 1_555
Na6 O59 2.602264 1_555
Na6 O53 2.615267 1_555
Na7 O61 2.513220 1_555
Na7 O68 2.564093 1_555
Na7 O66 2.565889 1_555
Na7 O62 2.694692 1_555
Na7 O60 2.698090 1_555
Na7 O67 2.736019 1_555
Na8 O71 2.577799 1_555
Na8 O64 2.604528 1_555
Na8 O63 2.628528 1_555
Na8 O70 2.629181 1_555
Na8 O69 2.630803 1_555
Na8 O65 2.638267 1_555
In0 O2 2.115607 1_455
In0 O0 2.118018 1_555
In0 O1 2.130679 1_445
In0 O37 2.163532 1_445
In0 O36 2.183562 1_545
In0 O38 2.189073 1_555
In1 O5 2.044141 1_555
In1 O4 2.143713 1_545
In1 O3 2.156974 1_655
In1 O39 2.160474 1_655
In1 O41 2.185198 1_545
In1 O40 2.226696 1_645
In2 O13 2.091536 1_555
In2 O12 2.115923 1_555
In2 O48 2.129266 1_555
In2 O14 2.144282 1_555
In2 O50 2.191655 1_555
In2 O49 2.204239 1_555
In3 O15 2.045013 1_555
In3 O16 2.138011 1_555
In3 O17 2.166041 1_555
In3 O52 2.169892 1_555
In3 O53 2.177733 1_555
In3 O51 2.186869 1_555
In4 O19 2.066515 1_556
In4 O20 2.140856 1_556
In4 O18 2.149615 1_556
In4 O55 2.176020 1_555
In4 O54 2.195785 1_555
In4 O56 2.209536 1_555
In5 O21 2.055072 1_555
In5 O22 2.127822 1_555
In5 O23 2.167833 1_555
In5 O58 2.176173 1_555
In5 O57 2.188231 1_555
In5 O59 2.203749 1_555
O0 S0 1.494088 1_545
O1 S1 1.492909 1_555
O2 S2 1.494658 1_655
O3 S3 1.497732 1_555
O4 S4 1.490921 1_655
O5 P0 1.538303 1_545
O6 P0 1.534702 1_555
O6 Zn0 2.044156 1_655
O7 S3 1.464342 1_555
O7 Zn0 2.080610 1_545
O8 S4 1.472674 1_555
O8 Zn0 2.075708 1_555
O9 S1 1.476646 1_555
O9 Zn1 2.136884 1_655
O10 S2 1.468506 1_555
O10 Zn1 2.111587 1_545
O11 S0 1.465416 1_555
O11 Zn1 2.027779 1_555
O12 S5 1.491929 1_555
O13 P1 1.576754 1_555
O14 S6 1.486482 1_555
O15 P2 1.543913 1_555
O16 S7 1.484937 1_555
O17 S8 1.495900 1_555
O18 S8 1.494420 1_555
O19 P2 1.565770 1_555
O20 S7 1.489122 1_555
O21 P1 1.546310 1_555
O22 S6 1.488371 1_555
O23 S5 1.496021 1_555
O24 S9 1.474715 1_555
O24 Zn2 2.197717 1_556
O25 S10 1.465489 1_555
O25 Zn2 2.019645 1_556
O26 S11 1.465060 1_555
O26 Zn2 2.045465 1_556
O27 S12 1.477154 1_555
O27 Zn3 2.115946 1_555
O28 S13 1.470118 1_555
O28 Zn3 2.111239 1_555
O29 S14 1.467227 1_555
O29 Zn3 2.026111 1_555
O30 S14 1.470812 1_555
O30 Zn4 2.061328 1_555
O31 S12 1.468505 1_555
O31 Zn4 2.083536 1_555
O32 S13 1.469449 1_555
O32 Zn4 2.057710 1_555
O33 S10 1.472246 1_555
O33 Zn5 2.117488 1_555
O34 S11 1.479947 1_555
O34 Zn5 2.124627 1_555
O35 S9 1.471868 1_555
O35 Zn5 2.015668 1_555
O36 S14 1.506888 1_555
O37 S12 1.504331 1_555
O38 S13 1.509057 1_555
O39 S10 1.503279 1_555
O40 S11 1.505192 1_555
O41 S9 1.504574 1_555
O42 S5 1.481977 1_555
O42 Zn0 2.224749 1_645
O43 P1 1.526179 1_555
O43 Zn0 2.034010 1_545
O44 S6 1.481495 1_555
O44 Zn0 2.205133 1_655
O45 P2 1.557837 1_555
O45 Zn1 2.025641 1_655
O46 S7 1.480857 1_555
O46 Zn1 2.240650 1_645
O47 S8 1.466531 1_555
O47 Zn1 2.128106 1_545
O48 P0 1.584066 1_545
O49 S3 1.513684 1_555
O50 S4 1.487531 1_655
O51 S1 1.504093 1_555
O52 S2 1.507030 1_655
O53 S0 1.505451 1_545
O54 S9 1.503925 1_555
O55 S10 1.508486 1_655
O56 S11 1.506103 1_545
O57 S12 1.504569 1_545
O58 S13 1.507922 1_555
O59 S14 1.504487 1_655
O60 S8 1.485269 1_555
O60 Zn2 2.245058 1_555
O61 P2 1.526746 1_455
O61 Zn2 1.965885 1_555
O62 S7 1.484137 1_565
O62 Zn2 2.226786 1_555
O63 P1 1.557604 1_565
O63 Zn3 2.034484 1_555
O64 S6 1.481270 1_555
O64 Zn3 2.246169 1_555
O65 S5 1.465169 1_455
O65 Zn3 2.104632 1_555
O66 S0 1.476790 1_555
O66 Zn4 2.172864 1_555
O67 S1 1.476728 1_555
O67 Zn4 2.131039 1_555
O68 S2 1.480205 1_555
O68 Zn4 2.168395 1_555
O69 S3 1.467713 1_555
O69 Zn5 2.118179 1_555
O70 S4 1.486782 1_555
O70 Zn5 2.244585 1_555
O71 P0 1.561386 1_555
O71 Zn5 2.057360 1_555
