# generated using pymatgen
data_KTlF4
_symmetry_space_group_name_H-M   'P 1'
_cell_length_a   8.07226259
_cell_length_b   8.07224347
_cell_length_c   10.17799314
_cell_angle_alpha   89.99942524
_cell_angle_beta   90.00111425
_cell_angle_gamma   119.99882287
_symmetry_Int_Tables_number   1
_chemical_formula_structural   KTlF4
_chemical_formula_sum   'K6 Tl6 F24'
_cell_volume   574.36434165
_cell_formula_units_Z   6
loop_
 _symmetry_equiv_pos_site_id
 _symmetry_equiv_pos_as_xyz
  1  'x, y, z'
loop_
 _atom_site_type_symbol
 _atom_site_label
 _atom_site_symmetry_multiplicity
 _atom_site_fract_x
 _atom_site_fract_y
 _atom_site_fract_z
 _atom_site_occupancy
  K  K0  1  0.48295896  0.31430900  0.02021225  1
  K  K1  1  0.68577411  0.16864095  0.35351822  1
  K  K2  1  0.83136186  0.51712241  0.68688102  1
  K  K3  1  0.31863967  0.48650630  0.70956084  1
  K  K4  1  0.51348013  0.83218562  0.04287775  1
  K  K5  1  0.16784998  0.68132690  0.37621402  1
  Tl  Tl0  1  0.99335380  0.35734929  0.02968201  1
  Tl  Tl1  1  0.64265413  0.63602506  0.36301099  1
  Tl  Tl2  1  0.36399304  0.00661490  0.69633577  1
  Tl  Tl3  1  0.18020419  0.17478992  0.36038099  1
  Tl  Tl4  1  0.82520892  0.00538849  0.69370885  1
  Tl  Tl5  1  0.99459526  0.81981631  0.02703723  1
  F  F0  1  0.11771562  0.05746024  0.69310772  1
  F  F1  1  0.93978380  0.88228784  0.35978565  1
  F  F2  1  0.94247473  0.06021895  0.02643475  1
  F  F3  1  0.81913994  0.79503877  0.84195984  1
  F  F4  1  0.97587827  0.18084021  0.50861978  1
  F  F5  1  0.20496235  0.02416362  0.17526890  1
  F  F6  1  0.70856653  0.19951083  0.09854413  1
  F  F7  1  0.49096973  0.29141394  0.76522105  1
  F  F8  1  0.80046780  0.50901431  0.43187610  1
  F  F9  1  0.19474898  0.71981051  0.63574192  1
  F  F10  1  0.52500637  0.80521191  0.30240568  1
  F  F11  1  0.28015324  0.47491568  0.96906556  1
  F  F12  1  0.06298537  0.32262042  0.24455813  1
  F  F13  1  0.67737953  0.74038756  0.57788592  1
  F  F14  1  0.25961345  0.93702021  0.91121890  1
  F  F15  1  0.47488888  0.34548630  0.27194062  1
  F  F16  1  0.65453344  0.12937515  0.60525027  1
  F  F17  1  0.87063485  0.52515425  0.93858450  1
  F  F18  1  0.32872720  0.05494435  0.47281084  1
  F  F19  1  0.94502850  0.27375418  0.80612742  1
  F  F20  1  0.72624077  0.67128042  0.13948356  1
  F  F21  1  0.34557309  0.46483033  0.45722106  1
  F  F22  1  0.53518605  0.88071480  0.79057399  1
  F  F23  1  0.11926946  0.65446908  0.12389777  1
loop_
_geom_bond_atom_site_label_1
_geom_bond_atom_site_label_2
_geom_bond_distance
_geom_bond_site_symmetry_2
F0 Tl4 2.181624 1_455
F0 Tl2 2.222086 1_555
F0 K3 3.006071 1_555
F1 Tl3 2.181585 1_665
F1 Tl1 2.222124 1_555
F1 K5 3.005861 1_655
F2 Tl5 2.181598 1_545
F2 Tl0 2.222063 1_555
F2 K4 3.005702 1_545
F3 Tl4 2.253691 1_565
F3 Tl5 2.304559 1_556
F3 K2 2.784840 1_555
F4 Tl3 2.253855 1_655
F4 Tl4 2.304670 1_555
F4 K1 2.784783 1_555
F5 Tl5 2.253828 1_445
F5 Tl3 2.304584 1_555
F5 K0 2.785021 1_555
F6 Tl0 2.114368 1_555
F6 K0 2.549215 1_555
F6 K1 2.604761 1_555
F6 K4 2.631294 1_545
F7 Tl2 2.114494 1_555
F7 K2 2.549378 1_555
F7 K0 2.604972 1_556
F7 K3 2.631879 1_555
F8 Tl1 2.114542 1_555
F8 K1 2.549254 1_555
F8 K2 2.605078 1_555
F8 K5 2.631672 1_655
F9 Tl2 2.108063 1_565
F9 K2 2.598707 1_455
F9 K3 2.644757 1_555
F9 K5 2.655857 1_555
F10 Tl1 2.108196 1_555
F10 K1 2.598895 1_565
F10 K5 2.644514 1_555
F10 K4 2.655878 1_555
F11 Tl0 2.108098 1_456
F11 K0 2.598884 1_556
F11 K4 2.645269 1_556
F11 K3 2.655629 1_555
F12 Tl3 2.199560 1_555
F12 Tl0 2.309771 1_455
F12 K1 2.874373 1_455
F12 K5 2.906110 1_555
F13 Tl4 2.199330 1_565
F13 Tl1 2.309784 1_555
F13 K2 2.874679 1_555
F13 K3 2.906476 1_555
F14 Tl5 2.199413 1_456
F14 Tl2 2.309886 1_565
F14 K0 2.875045 1_566
F14 K4 2.906089 1_556
F15 Tl1 2.239995 1_555
F15 Tl3 2.256079 1_555
F15 K0 2.578430 1_555
F15 K1 2.838154 1_555
F16 Tl2 2.240092 1_555
F16 Tl4 2.255937 1_555
F16 K1 2.578495 1_555
F16 K2 2.838488 1_555
F17 Tl0 2.239999 1_556
F17 Tl5 2.255973 1_556
F17 K2 2.578203 1_555
F17 K0 2.838011 1_556
F18 Tl3 2.200567 1_555
F18 Tl2 2.349476 1_555
F18 K5 2.798652 1_545
F18 K1 2.824613 1_555
F19 Tl4 2.200543 1_555
F19 Tl0 2.349778 1_556
F19 K3 2.798538 1_655
F19 K2 2.824304 1_555
F20 Tl5 2.200644 1_555
F20 Tl1 2.349508 1_555
F20 K4 2.798944 1_555
F20 K0 2.823998 1_555
F21 Tl3 2.260476 1_555
F21 Tl1 2.294836 1_555
F21 K3 2.590788 1_555
F21 K5 2.880816 1_555
F22 Tl4 2.260486 1_565
F22 Tl2 2.294960 1_565
F22 K4 2.590341 1_556
F22 K3 2.880843 1_555
F23 Tl5 2.260394 1_455
F23 Tl0 2.295076 1_455
F23 K5 2.590510 1_555
F23 K4 2.880868 1_555
