# generated using pymatgen
data_Na10LaNb7(SiO4)12
_symmetry_space_group_name_H-M   'P 1'
_cell_length_a   18.25023374
_cell_length_b   9.13818908
_cell_length_c   22.62565882
_cell_angle_alpha   89.98398932
_cell_angle_beta   90.00049707
_cell_angle_gamma   120.14339915
_symmetry_Int_Tables_number   1
_chemical_formula_structural   Na10LaNb7(SiO4)12
_chemical_formula_sum   'Na30 La3 Nb21 Si36 O144'
_cell_volume   3263.10501186
_cell_formula_units_Z   3
loop_
 _symmetry_equiv_pos_site_id
 _symmetry_equiv_pos_as_xyz
  1  'x, y, z'
loop_
 _atom_site_type_symbol
 _atom_site_label
 _atom_site_symmetry_multiplicity
 _atom_site_fract_x
 _atom_site_fract_y
 _atom_site_fract_z
 _atom_site_occupancy
  Na  Na0  1  0.81331977  0.00619455  0.24909042  1
  Na  Na1  1  0.18670830  0.36971904  0.24835039  1
  Na  Na2  1  0.68619806  0.36760121  0.24852480  1
  Na  Na3  1  0.99780117  0.62329753  0.24917827  1
  Na  Na4  1  0.31399997  0.62063645  0.75007119  1
  Na  Na5  1  0.81433330  0.62114023  0.74925686  1
  Na  Na6  1  0.99571739  0.36936454  0.74913008  1
  Na  Na7  1  0.49576877  0.36855807  0.74933926  1
  Na  Na8  1  0.19025949  0.00981036  0.75030438  1
  Na  Na9  1  0.69029938  0.01040183  0.74934704  1
  Na  Na10  1  0.15460539  0.33913663  0.58265373  1
  Na  Na11  1  0.65601200  0.33901571  0.58156610  1
  Na  Na12  1  0.33146545  0.97148030  0.58134322  1
  Na  Na13  1  0.83195088  0.97319696  0.58110705  1
  Na  Na14  1  0.65007573  0.96412575  0.08398761  1
  Na  Na15  1  0.82992513  0.68931050  0.08160435  1
  Na  Na16  1  0.01942585  0.34146206  0.08079805  1
  Na  Na17  1  0.48393864  0.29952585  0.41650009  1
  Na  Na18  1  0.99988893  0.98972756  0.49757348  1
  Na  Na19  1  0.50176711  0.98180075  0.49839877  1
  Na  Na20  1  0.00686427  0.00037582  0.99855548  1
  Na  Na21  1  0.49322221  0.99977402  0.00013874  1
  Na  Na22  1  0.33274843  0.33278760  0.83628213  1
  Na  Na23  1  0.83361249  0.33324185  0.83504541  1
  Na  Na24  1  0.33337843  0.33279912  0.33175994  1
  Na  Na25  1  0.83261690  0.33189909  0.33427373  1
  Na  Na26  1  0.17665742  0.69011646  0.16367810  1
  Na  Na27  1  0.65541596  0.65109739  0.16562072  1
  Na  Na28  1  0.15896004  0.66577267  0.66468619  1
  Na  Na29  1  0.65949971  0.66648449  0.66426269  1
  La  La0  1  0.33515931  0.33580785  0.67858182  1
  La  La1  1  0.83543342  0.33653377  0.67745125  1
  La  La2  1  0.83201334  0.33272257  0.17888920  1
  Nb  Nb0  1  0.00263147  0.00311523  0.35730823  1
  Nb  Nb1  1  0.49637474  0.99321005  0.35472067  1
  Nb  Nb2  1  0.00007034  0.00093285  0.86010054  1
  Nb  Nb3  1  0.50020589  0.00024148  0.85952405  1
  Nb  Nb4  1  0.99957316  0.99622309  0.64564637  1
  Nb  Nb5  1  0.50014056  0.99719395  0.64570934  1
  Nb  Nb6  1  0.00389962  0.00164402  0.14513195  1
  Nb  Nb7  1  0.49558612  0.99652199  0.14437341  1
  Nb  Nb8  1  0.33713098  0.33411228  0.18708459  1
  Nb  Nb9  1  0.33254942  0.33285498  0.97761809  1
  Nb  Nb10  1  0.83390709  0.33474351  0.97947274  1
  Nb  Nb11  1  0.33073591  0.33527928  0.48016977  1
  Nb  Nb12  1  0.83419093  0.33377250  0.47908062  1
  Nb  Nb13  1  0.17330489  0.67633203  0.02007732  1
  Nb  Nb14  1  0.66086112  0.65857778  0.01705070  1
  Nb  Nb15  1  0.16420800  0.66602187  0.51443119  1
  Nb  Nb16  1  0.66556446  0.66855642  0.51427632  1
  Nb  Nb17  1  0.17001650  0.67167785  0.31188740  1
  Nb  Nb18  1  0.66393807  0.66600956  0.31185504  1
  Nb  Nb19  1  0.16678270  0.66643366  0.81533042  1
  Nb  Nb20  1  0.66689558  0.66680963  0.81482068  1
  Si  Si0  1  0.14624058  0.99981750  0.25129620  1
  Si  Si1  1  0.63893485  0.99025639  0.25016762  1
  Si  Si2  1  0.35517479  0.70929804  0.25010252  1
  Si  Si3  1  0.85575030  0.71892036  0.25152068  1
  Si  Si4  1  0.00390027  0.29102706  0.25194492  1
  Si  Si5  1  0.49855165  0.28513269  0.25085973  1
  Si  Si6  1  0.14019329  0.28963792  0.75240951  1
  Si  Si7  1  0.64087951  0.29037735  0.75220901  1
  Si  Si8  1  0.00437619  0.71925551  0.75401676  1
  Si  Si9  1  0.50459661  0.71935279  0.75374478  1
  Si  Si10  1  0.35494679  0.99124385  0.75247053  1
  Si  Si11  1  0.85523619  0.99209220  0.75279588  1
  Si  Si12  1  0.48615851  0.33648751  0.58269024  1
  Si  Si13  1  0.98563560  0.33636830  0.58382006  1
  Si  Si14  1  0.18133232  0.02679430  0.58338994  1
  Si  Si15  1  0.68244484  0.02912391  0.58307176  1
  Si  Si16  1  0.33259506  0.63648582  0.58268413  1
  Si  Si17  1  0.83295356  0.63455313  0.58184238  1
  Si  Si18  1  0.47654355  0.62218125  0.08206868  1
  Si  Si19  1  0.98603957  0.63606562  0.08316856  1
  Si  Si20  1  0.33366262  0.04820228  0.08255675  1
  Si  Si21  1  0.83244136  0.02986053  0.08285809  1
  Si  Si22  1  0.19212828  0.33892642  0.08445064  1
  Si  Si23  1  0.68041063  0.33096128  0.08275728  1
  Si  Si24  1  0.31263064  0.66273818  0.91636579  1
  Si  Si25  1  0.81120465  0.66331659  0.91726825  1
  Si  Si26  1  0.02231559  0.37888368  0.91965350  1
  Si  Si27  1  0.51679295  0.37329427  0.91421682  1
  Si  Si28  1  0.16849523  0.95951607  0.91644858  1
  Si  Si29  1  0.66809850  0.96102339  0.91764089  1
  Si  Si30  1  0.31192661  0.96176036  0.41640453  1
  Si  Si31  1  0.81306315  0.96112641  0.41437328  1
  Si  Si32  1  0.16852125  0.37639619  0.41498069  1
  Si  Si33  1  0.66920198  0.37480161  0.41376173  1
  Si  Si34  1  0.01931856  0.66152357  0.41259399  1
  Si  Si35  1  0.51857875  0.66681419  0.41508410  1
  O  O0  1  0.09942518  0.02425450  0.30845436  1
  O  O1  1  0.58522093  0.00878430  0.30546666  1
  O  O2  1  0.41035011  0.80596237  0.30902198  1
  O  O3  1  0.91802811  0.82619137  0.30630848  1
  O  O4  1  0.48583153  0.17363000  0.31080736  1
  O  O5  1  0.00022907  0.17583461  0.30804206  1
  O  O6  1  0.08832477  0.17210217  0.80849792  1
  O  O7  1  0.58868114  0.17243309  0.80801492  1
  O  O8  1  0.49793342  0.82122105  0.80996319  1
  O  O9  1  0.99777245  0.82187230  0.81013314  1
  O  O10  1  0.41383661  0.00334994  0.80810472  1
  O  O11  1  0.91355905  0.00361531  0.80870312  1
  O  O12  1  0.40203922  0.97627338  0.69110364  1
  O  O13  1  0.90206065  0.97623944  0.69149380  1
  O  O14  1  0.08560854  0.19632122  0.69109560  1
  O  O15  1  0.58574150  0.19708699  0.69096161  1
  O  O16  1  0.01174825  0.83396537  0.69407296  1
  O  O17  1  0.51183161  0.83412460  0.69401068  1
  O  O18  1  0.40413070  0.82871726  0.19299929  1
  O  O19  1  0.90185525  0.82912788  0.19048819  1
  O  O20  1  0.01234849  0.19589202  0.19163594  1
  O  O21  1  0.51370651  0.18816505  0.19500058  1
  O  O22  1  0.08281283  0.97210094  0.19420020  1
  O  O23  1  0.58789865  0.97793120  0.18892048  1
  O  O24  1  0.46203587  0.37592961  0.64659951  1
  O  O25  1  0.96367364  0.37665955  0.64841885  1
  O  O26  1  0.23224005  0.07353198  0.64514963  1
  O  O27  1  0.73212511  0.07266347  0.64550899  1
  O  O28  1  0.30391382  0.53385079  0.64420540  1
  O  O29  1  0.80370597  0.53517651  0.64416062  1
  O  O30  1  0.42952583  0.50305985  0.14043140  1
  O  O31  1  0.96189637  0.53878903  0.14587065  1
  O  O32  1  0.32118236  0.14299270  0.14061322  1
  O  O33  1  0.80559153  0.07414225  0.14531089  1
  O  O34  1  0.24767317  0.35974326  0.14426568  1
  O  O35  1  0.73040544  0.39007153  0.14490957  1
  O  O36  1  0.23835490  0.31068310  0.02723233  1
  O  O37  1  0.73869365  0.30587066  0.03222627  1
  O  O38  1  0.41782748  0.52565760  0.02493464  1
  O  O39  1  0.91423335  0.52549843  0.03226458  1
  O  O40  1  0.34633254  0.16693431  0.02532702  1
  O  O41  1  0.84771130  0.17202489  0.03216823  1
  O  O42  1  0.23892794  0.16888183  0.53169796  1
  O  O43  1  0.73823497  0.17034275  0.53203294  1
  O  O44  1  0.34393021  0.52208558  0.53041646  1
  O  O45  1  0.84437809  0.52139828  0.53031240  1
  O  O46  1  0.41761034  0.30834767  0.52959442  1
  O  O47  1  0.91428056  0.30647850  0.53332358  1
  O  O48  1  0.26399714  0.68710458  0.97263163  1
  O  O49  1  0.76071367  0.68447034  0.97292363  1
  O  O50  1  0.08241058  0.47027226  0.97666568  1
  O  O51  1  0.57842061  0.47909476  0.96927081  1
  O  O52  1  0.16017363  0.83584644  0.97109349  1
  O  O53  1  0.65426112  0.84234020  0.97528079  1
  O  O54  1  0.26606031  0.84683487  0.47402497  1
  O  O55  1  0.76482914  0.84091057  0.47133903  1
  O  O56  1  0.15953786  0.47329530  0.47234314  1
  O  O57  1  0.65362729  0.46970923  0.46977336  1
  O  O58  1  0.08171654  0.68311228  0.46783657  1
  O  O59  1  0.57935961  0.68680464  0.47089768  1
  O  O60  1  0.06615034  0.63823807  0.35366303  1
  O  O61  1  0.56723324  0.63600257  0.35883631  1
  O  O62  1  0.25141687  0.86068277  0.35900927  1
  O  O63  1  0.75217403  0.86403095  0.35645117  1
  O  O64  1  0.17989993  0.49406909  0.35644056  1
  O  O65  1  0.67963438  0.49252357  0.35526185  1
  O  O66  1  0.06910810  0.49732436  0.85976598  1
  O  O67  1  0.56624141  0.49190968  0.85527796  1
  O  O68  1  0.17941947  0.86501519  0.85652238  1
  O  O69  1  0.67944660  0.86262020  0.85900786  1
  O  O70  1  0.25332450  0.64171277  0.85713416  1
  O  O71  1  0.75222582  0.63943126  0.85754576  1
  O  O72  1  0.01107916  0.83056132  0.40884337  1
  O  O73  1  0.50797944  0.83233524  0.41084574  1
  O  O74  1  0.40730041  0.98809802  0.41185791  1
  O  O75  1  0.90716283  0.98182217  0.40922212  1
  O  O76  1  0.08547227  0.18786369  0.41196782  1
  O  O77  1  0.58158863  0.19029911  0.40869187  1
  O  O78  1  0.01030998  0.18984074  0.91213674  1
  O  O79  1  0.50982469  0.18909909  0.91133622  1
  O  O80  1  0.08398935  0.97726530  0.91240275  1
  O  O81  1  0.58527055  0.98294882  0.91129169  1
  O  O82  1  0.40581884  0.83197838  0.91160852  1
  O  O83  1  0.90496568  0.83102840  0.91234565  1
  O  O84  1  0.48855850  0.15791185  0.58517494  1
  O  O85  1  0.98841159  0.15815730  0.58587102  1
  O  O86  1  0.09325092  0.03152497  0.58711748  1
  O  O87  1  0.59299729  0.02956365  0.58758811  1
  O  O88  1  0.41894926  0.82106279  0.58676087  1
  O  O89  1  0.91853372  0.82127913  0.58701798  1
  O  O90  1  0.48784587  0.81109594  0.08954824  1
  O  O91  1  0.98694856  0.81707278  0.08681769  1
  O  O92  1  0.41763247  0.02852561  0.09158221  1
  O  O93  1  0.92128975  0.02463260  0.08644418  1
  O  O94  1  0.09566393  0.17092522  0.09160746  1
  O  O95  1  0.59123907  0.15081555  0.08603172  1
  O  O96  1  0.34504484  0.15651818  0.75329389  1
  O  O97  1  0.84502596  0.15694951  0.75344298  1
  O  O98  1  0.23312280  0.31023037  0.75272003  1
  O  O99  1  0.73365110  0.31043273  0.75239387  1
  O  O100  1  0.42176628  0.53424547  0.75312204  1
  O  O101  1  0.92117234  0.53437807  0.75329975  1
  O  O102  1  0.34216549  0.51902568  0.24558771  1
  O  O103  1  0.84588104  0.53400994  0.25346868  1
  O  O104  1  0.41644364  0.31036846  0.24344917  1
  O  O105  1  0.92005235  0.30623597  0.25365507  1
  O  O106  1  0.23772400  0.17222838  0.24407040  1
  O  O107  1  0.73171904  0.15668934  0.25434950  1
  O  O108  1  0.31933729  0.49295318  0.92169492  1
  O  O109  1  0.81935146  0.49403044  0.92520995  1
  O  O110  1  0.42499981  0.35803634  0.92044029  1
  O  O111  1  0.92913576  0.36365751  0.92652731  1
  O  O112  1  0.25233972  0.14565056  0.92237797  1
  O  O113  1  0.75382178  0.14563720  0.92501069  1
  O  O114  1  0.32388830  0.15139935  0.42322450  1
  O  O115  1  0.82088610  0.14580958  0.42490192  1
  O  O116  1  0.25365731  0.35927548  0.42364185  1
  O  O117  1  0.75216549  0.35530985  0.42395454  1
  O  O118  1  0.42805635  0.49093426  0.42346930  1
  O  O119  1  0.92697438  0.49334841  0.42426241  1
  O  O120  1  0.17636626  0.50049356  0.07871128  1
  O  O121  1  0.66814967  0.49257301  0.06805129  1
  O  O122  1  0.07774221  0.65409697  0.06951074  1
  O  O123  1  0.57375261  0.65377440  0.07758685  1
  O  O124  1  0.25104621  0.85828114  0.07706491  1
  O  O125  1  0.75195042  0.83974203  0.07001692  1
  O  O126  1  0.16856681  0.84180144  0.56857794  1
  O  O127  1  0.67032246  0.84338873  0.56842704  1
  O  O128  1  0.25338019  0.66701509  0.56931825  1
  O  O129  1  0.75352984  0.66550336  0.56778609  1
  O  O130  1  0.08185276  0.49063133  0.57049942  1
  O  O131  1  0.58277380  0.49040477  0.57029930  1
  O  O132  1  0.15112983  0.82538369  0.25479368  1
  O  O133  1  0.64887010  0.82087905  0.25616882  1
  O  O134  1  0.26020146  0.68871986  0.25494716  1
  O  O135  1  0.76175920  0.70469587  0.25484019  1
  O  O136  1  0.09064089  0.47904385  0.25379975  1
  O  O137  1  0.58706240  0.47015650  0.25576502  1
  O  O138  1  0.14548208  0.47559651  0.75498872  1
  O  O139  1  0.64684962  0.47709438  0.75449069  1
  O  O140  1  0.09145037  0.70693765  0.75464497  1
  O  O141  1  0.59236394  0.70921226  0.75447656  1
  O  O142  1  0.26158338  0.81609582  0.75447781  1
  O  O143  1  0.76167989  0.81664928  0.75489162  1
loop_
_geom_bond_atom_site_label_1
_geom_bond_atom_site_label_2
_geom_bond_distance
_geom_bond_site_symmetry_2
Na0 O135 2.426777 1_545
Na0 O105 2.441072 1_555
Na0 O33 2.450724 1_555
Na0 O107 2.486024 1_555
Na0 O133 2.606967 1_545
Na0 O63 2.715851 1_545
Na1 O106 2.412642 1_555
Na1 O136 2.417927 1_555
Na1 O102 2.454997 1_555
Na1 O134 2.528322 1_555
Na1 O34 2.625686 1_555
Na1 O64 2.726000 1_555
Na2 O137 2.425183 1_555
Na2 O35 2.454078 1_555
Na2 O107 2.455648 1_555
Na2 O103 2.523309 1_555
Na2 O135 2.673024 1_555
Na2 O65 2.699742 1_555
Na3 O31 2.445805 1_555
Na3 O132 2.463125 1_655
Na3 O103 2.467851 1_555
Na3 O105 2.507834 1_555
Na3 O136 2.619648 1_655
Na3 O60 2.644310 1_655
Na4 O142 2.414854 1_555
Na4 O98 2.454222 1_555
Na4 O100 2.460797 1_555
Na4 O28 2.500931 1_555
Na4 O138 2.670902 1_555
Na4 O70 2.710292 1_555
Na5 O143 2.419910 1_555
Na5 O101 2.447738 1_555
Na5 O99 2.456795 1_555
Na5 O29 2.481330 1_555
Na5 O139 2.654926 1_555
Na5 O71 2.739761 1_555
Na6 O25 2.361730 1_555
Na6 O138 2.401207 1_655
Na6 O97 2.445235 1_555
Na6 O101 2.488784 1_555
Na6 O140 2.677943 1_655
Na6 O66 2.802850 1_655
Na7 O24 2.414256 1_555
Na7 O139 2.419356 1_555
Na7 O96 2.444575 1_555
Na7 O100 2.485475 1_555
Na7 O67 2.686164 1_555
Na7 O141 2.701933 1_555
Na8 O140 2.430835 1_545
Na8 O96 2.445053 1_555
Na8 O98 2.448428 1_555
Na8 O26 2.477465 1_555
Na8 O142 2.674136 1_545
Na8 O68 2.702010 1_545
Na9 O141 2.417133 1_545
Na9 O99 2.443226 1_555
Na9 O97 2.444980 1_555
Na9 O27 2.447281 1_555
Na9 O143 2.676566 1_545
Na9 O69 2.783623 1_545
Na10 O130 2.366632 1_555
Na10 O86 2.450392 1_555
Na10 O128 2.625429 1_555
Na10 O85 2.627169 1_455
Na10 O56 2.761851 1_555
Na10 O14 2.767058 1_555
Na10 O28 2.768110 1_555
Na10 O42 2.919533 1_555
Na11 O131 2.371136 1_555
Na11 O87 2.464015 1_555
Na11 O129 2.613925 1_555
Na11 O84 2.646781 1_555
Na11 O29 2.762811 1_555
Na11 O15 2.789429 1_555
Na11 O57 2.806519 1_555
Na11 O43 2.864883 1_555
Na12 O128 2.421600 1_555
Na12 O84 2.494819 1_565
Na12 O88 2.580219 1_555
Na12 O126 2.605373 1_555
Na12 O54 2.693344 1_555
Na12 O12 2.787734 1_555
Na12 O26 2.816033 1_565
Na12 O46 2.907963 1_565
Na13 O129 2.450310 1_555
Na13 O85 2.484930 1_565
Na13 O89 2.577806 1_555
Na13 O127 2.583883 1_555
Na13 O55 2.764859 1_555
Na13 O13 2.800012 1_555
Na13 O27 2.816461 1_565
Na13 O47 2.846811 1_565
Na14 O95 2.430117 1_565
Na14 O123 2.457051 1_555
Na14 O90 2.564951 1_555
Na14 O125 2.640319 1_555
Na14 O23 2.661628 1_555
Na14 O53 2.716752 1_554
Na14 O33 2.850644 1_565
Na14 O37 2.943688 1_565
Na15 O125 2.438862 1_555
Na15 O91 2.495824 1_555
Na15 O121 2.590837 1_555
Na15 O93 2.655280 1_565
Na15 O49 2.754612 1_554
Na15 O19 2.782463 1_555
Na15 O35 2.799576 1_555
Na15 O39 2.858095 1_555
Na16 O120 2.477365 1_555
Na16 O122 2.511125 1_555
Na16 O93 2.529508 1_455
Na16 O94 2.569393 1_555
Na16 O50 2.626306 1_554
Na16 O20 2.810832 1_555
Na16 O31 2.902510 1_455
Na16 O41 2.925151 1_455
Na17 O118 2.432321 1_555
Na17 O77 2.447470 1_555
Na17 O74 2.463503 1_545
Na17 O114 2.533046 1_555
Na17 O4 2.661737 1_555
Na17 O46 2.849146 1_555
Na17 O57 2.936990 1_555
Na17 O61 2.961549 1_555
Na18 O89 2.524364 1_555
Na18 O72 2.547074 1_655
Na18 O86 2.549605 1_665
Na18 O76 2.574339 1_665
Na18 O85 2.594132 1_565
Na18 O75 2.596590 1_555
Na19 O73 2.441223 1_555
Na19 O88 2.491526 1_555
Na19 O87 2.511058 1_565
Na19 O84 2.625698 1_565
Na19 O74 2.628513 1_555
Na19 O77 2.661242 1_565
Na20 O80 2.474722 1_545
Na20 O91 2.512484 1_446
Na20 O78 2.591036 1_555
Na20 O83 2.601759 1_445
Na20 O93 2.605856 1_456
Na20 O94 2.636852 1_556
Na21 O95 2.530505 1_565
Na21 O82 2.540276 1_554
Na21 O79 2.567789 1_564
Na21 O92 2.572381 1_565
Na21 O90 2.627333 1_555
Na21 O81 2.673266 1_554
Na22 O110 2.474581 1_555
Na22 O108 2.509603 1_555
Na22 O112 2.519982 1_555
Na22 O96 2.556433 1_555
Na22 O98 2.558633 1_555
Na22 O100 2.561841 1_555
Na23 O97 2.527099 1_555
Na23 O101 2.530022 1_555
Na23 O99 2.546942 1_555
Na23 O113 2.587229 1_555
Na23 O109 2.602713 1_555
Na23 O111 2.629500 1_555
Na24 O102 2.539125 1_555
Na24 O106 2.562400 1_555
Na24 O104 2.577765 1_555
Na24 O114 2.601961 1_555
Na24 O116 2.617443 1_555
Na24 O118 2.621693 1_555
Na25 O107 2.502979 1_555
Na25 O105 2.510896 1_555
Na25 O103 2.522180 1_555
Na25 O117 2.575753 1_555
Na25 O119 2.595691 1_555
Na25 O115 2.602819 1_555
Na26 O124 2.438857 1_555
Na26 O132 2.564135 1_555
Na26 O134 2.570731 1_555
Na26 O120 2.586699 1_555
Na26 O136 2.701722 1_555
Na26 O122 2.703736 1_555
Na27 O123 2.495139 1_555
Na27 O137 2.525189 1_555
Na27 O133 2.608938 1_555
Na27 O135 2.669698 1_555
Na27 O121 2.714002 1_555
Na27 O125 2.775308 1_555
Na28 O140 2.503638 1_555
Na28 O130 2.612086 1_555
Na28 O138 2.612252 1_555
Na28 O142 2.634333 1_555
Na28 O126 2.657365 1_555
Na28 O128 2.757871 1_555
Na29 O141 2.510164 1_555
Na29 O131 2.609328 1_555
Na29 O139 2.610153 1_555
Na29 O143 2.645132 1_555
Na29 O127 2.651686 1_555
Na29 O129 2.779448 1_555
La0 O24 2.273094 1_555
La0 O28 2.289323 1_555
La0 O26 2.307424 1_555
La0 O100 2.398744 1_555
La0 O96 2.422735 1_555
La0 O98 2.428752 1_555
La1 O25 2.276286 1_555
La1 O29 2.291847 1_555
La1 O27 2.307900 1_555
La1 O101 2.413012 1_555
La1 O99 2.436676 1_555
La1 O97 2.442733 1_555
La2 O31 2.288915 1_555
La2 O33 2.291268 1_555
La2 O35 2.297861 1_555
La2 O103 2.414329 1_555
La2 O105 2.427360 1_555
La2 O107 2.427833 1_555
Nb0 O5 1.950414 1_555
Nb0 O3 1.955330 1_445
Nb0 O0 2.009194 1_555
Nb0 O76 2.025605 1_555
Nb0 O75 2.027961 1_445
Nb0 O72 2.028024 1_545
Nb1 O1 1.912975 1_565
Nb1 O2 1.940285 1_555
Nb1 O4 2.014980 1_565
Nb1 O73 2.032308 1_555
Nb1 O74 2.059084 1_555
Nb1 O77 2.083652 1_565
Nb2 O6 1.967938 1_555
Nb2 O11 1.970922 1_455
Nb2 O9 1.972168 1_445
Nb2 O78 2.019467 1_555
Nb2 O83 2.028057 1_445
Nb2 O80 2.031075 1_545
Nb3 O8 1.966791 1_545
Nb3 O10 1.970738 1_555
Nb3 O7 1.971972 1_555
Nb3 O81 2.013259 1_545
Nb3 O82 2.014740 1_545
Nb3 O79 2.019991 1_555
Nb4 O16 1.943809 1_655
Nb4 O13 1.987461 1_555
Nb4 O14 1.995966 1_665
Nb4 O89 2.032060 1_555
Nb4 O86 2.055840 1_665
Nb4 O85 2.088544 1_565
Nb5 O17 1.943921 1_555
Nb5 O12 1.988223 1_555
Nb5 O15 1.990112 1_565
Nb5 O88 2.042294 1_555
Nb5 O87 2.045736 1_565
Nb5 O84 2.094807 1_565
Nb6 O22 1.941612 1_545
Nb6 O20 2.001976 1_555
Nb6 O19 2.014244 1_445
Nb6 O94 2.015279 1_555
Nb6 O91 2.039237 1_445
Nb6 O93 2.097194 1_455
Nb7 O18 1.943258 1_555
Nb7 O21 1.976836 1_565
Nb7 O92 1.988429 1_565
Nb7 O23 2.042147 1_555
Nb7 O90 2.047107 1_555
Nb7 O95 2.074815 1_565
Nb8 O30 1.930191 1_555
Nb8 O32 1.931566 1_555
Nb8 O34 2.010674 1_555
Nb8 O104 2.020855 1_555
Nb8 O106 2.108479 1_555
Nb8 O102 2.112156 1_555
Nb9 O36 1.976483 1_556
Nb9 O40 1.977249 1_556
Nb9 O38 1.979791 1_556
Nb9 O112 2.029183 1_555
Nb9 O108 2.037834 1_555
Nb9 O110 2.045310 1_555
Nb10 O39 2.012218 1_556
Nb10 O37 2.013242 1_556
Nb10 O111 2.015927 1_555
Nb10 O41 2.017732 1_556
Nb10 O109 2.020887 1_555
Nb10 O113 2.026177 1_555
Nb11 O44 1.962849 1_555
Nb11 O42 1.979643 1_555
Nb11 O116 1.993064 1_555
Nb11 O46 2.053419 1_555
Nb11 O118 2.070108 1_555
Nb11 O114 2.071103 1_555
Nb12 O45 1.999719 1_555
Nb12 O119 2.012757 1_555
Nb12 O47 2.017624 1_555
Nb12 O115 2.023413 1_555
Nb12 O43 2.026058 1_555
Nb12 O117 2.032509 1_555
Nb13 O48 1.933375 1_554
Nb13 O52 1.939197 1_554
Nb13 O122 1.994475 1_555
Nb13 O124 2.017907 1_555
Nb13 O50 2.031280 1_554
Nb13 O120 2.105706 1_555
Nb14 O51 1.909197 1_554
Nb14 O121 1.962688 1_555
Nb14 O53 1.982379 1_554
Nb14 O49 1.985079 1_554
Nb14 O125 2.043888 1_555
Nb14 O123 2.082103 1_555
Nb15 O58 1.907437 1_555
Nb15 O56 1.966211 1_555
Nb15 O54 1.983854 1_555
Nb15 O126 1.990025 1_555
Nb15 O130 2.004158 1_555
Nb15 O128 2.043502 1_555
Nb16 O59 1.931218 1_555
Nb16 O55 1.959556 1_555
Nb16 O127 1.980629 1_555
Nb16 O57 1.991639 1_555
Nb16 O131 2.017033 1_555
Nb16 O129 2.022069 1_555
Nb17 O62 1.936695 1_555
Nb17 O64 1.993989 1_555
Nb17 O60 1.999531 1_555
Nb17 O134 2.033585 1_555
Nb17 O132 2.060488 1_555
Nb17 O136 2.089194 1_555
Nb18 O61 1.958001 1_555
Nb18 O63 1.990014 1_555
Nb18 O65 2.003785 1_555
Nb18 O133 2.013900 1_555
Nb18 O137 2.064337 1_555
Nb18 O135 2.083781 1_555
Nb19 O68 1.948197 1_555
Nb19 O70 1.948940 1_555
Nb19 O66 1.951673 1_555
Nb19 O138 2.092068 1_555
Nb19 O142 2.093324 1_555
Nb19 O140 2.103137 1_555
Nb20 O71 1.952790 1_555
Nb20 O67 1.953800 1_555
Nb20 O69 1.960392 1_555
Nb20 O143 2.079883 1_555
Nb20 O139 2.089727 1_555
Nb20 O141 2.096061 1_555
O0 Si0 1.626077 1_545
O1 Si1 1.649823 1_545
O2 Si2 1.636669 1_555
O3 Si3 1.634335 1_555
O4 Si5 1.641183 1_555
O5 Si4 1.628478 1_555
O6 Si6 1.624277 1_555
O7 Si7 1.622189 1_555
O8 Si9 1.616673 1_555
O9 Si8 1.618672 1_655
O10 Si10 1.622483 1_545
O11 Si11 1.622221 1_545
O12 Si10 1.674340 1_555
O13 Si11 1.673167 1_555
O14 Si6 1.670789 1_555
O15 Si7 1.672951 1_555
O16 Si8 1.677480 1_555
O17 Si9 1.674566 1_555
O18 Si2 1.636584 1_555
O19 Si3 1.666524 1_555
O20 Si4 1.666371 1_555
O21 Si5 1.644924 1_555
O22 Si0 1.666930 1_555
O23 Si1 1.641725 1_555
O24 Si12 1.604455 1_555
O25 Si13 1.606544 1_555
O26 Si14 1.612446 1_555
O27 Si15 1.616795 1_555
O28 Si16 1.611650 1_555
O29 Si17 1.615593 1_555
O30 Si18 1.651080 1_555
O31 Si19 1.613355 1_555
O32 Si20 1.651196 1_555
O33 Si21 1.612454 1_555
O34 Si22 1.643717 1_555
O35 Si23 1.614681 1_555
O36 Si22 1.635003 1_555
O37 Si23 1.654152 1_555
O38 Si18 1.627480 1_555
O39 Si19 1.653944 1_555
O40 Si20 1.629293 1_555
O41 Si21 1.648124 1_555
O42 Si14 1.669464 1_555
O43 Si15 1.647764 1_555
O44 Si16 1.658944 1_555
O45 Si17 1.639884 1_555
O46 Si12 1.658741 1_555
O47 Si13 1.648850 1_555
O48 Si24 1.629936 1_555
O49 Si25 1.628256 1_555
O50 Si26 1.626321 1_555
O51 Si27 1.630913 1_555
O52 Si28 1.629633 1_555
O53 Si29 1.632466 1_555
O54 Si30 1.618521 1_555
O55 Si31 1.634305 1_555
O56 Si32 1.625379 1_555
O57 Si33 1.639277 1_555
O58 Si34 1.634767 1_555
O59 Si35 1.629460 1_555
O60 Si34 1.654218 1_555
O61 Si35 1.654896 1_555
O62 Si30 1.653862 1_555
O63 Si31 1.658303 1_555
O64 Si32 1.651875 1_555
O65 Si33 1.654973 1_555
O66 Si26 1.675601 1_555
O67 Si27 1.668653 1_555
O68 Si28 1.672559 1_555
O69 Si29 1.673055 1_555
O70 Si24 1.672027 1_555
O71 Si25 1.672219 1_555
O72 Si34 1.627611 1_555
O73 Si35 1.621184 1_555
O74 Si30 1.636285 1_555
O75 Si31 1.634750 1_555
O76 Si32 1.627138 1_555
O77 Si33 1.644703 1_555
O78 Si26 1.637449 1_555
O79 Si27 1.624406 1_555
O80 Si28 1.632314 1_555
O81 Si29 1.627871 1_555
O82 Si24 1.629139 1_555
O83 Si25 1.629521 1_555
O84 Si12 1.655226 1_555
O85 Si13 1.655185 1_555
O86 Si14 1.631826 1_555
O87 Si15 1.637652 1_555
O88 Si16 1.633263 1_555
O89 Si17 1.639575 1_555
O90 Si18 1.641328 1_555
O91 Si19 1.647902 1_555
O92 Si20 1.642928 1_555
O93 Si21 1.648010 1_555
O94 Si22 1.663697 1_555
O95 Si23 1.634995 1_555
O96 Si10 1.608777 1_545
O97 Si11 1.608235 1_545
O98 Si6 1.609751 1_555
O99 Si7 1.608902 1_555
O100 Si9 1.605787 1_555
O101 Si8 1.607419 1_655
O102 Si2 1.635705 1_555
O103 Si3 1.607457 1_555
O104 Si5 1.635177 1_555
O105 Si4 1.605011 1_655
O106 Si0 1.629272 1_545
O107 Si1 1.613379 1_545
O108 Si24 1.620919 1_555
O109 Si25 1.636567 1_555
O110 Si27 1.615896 1_555
O111 Si26 1.642493 1_655
O112 Si28 1.624419 1_545
O113 Si29 1.634278 1_545
O114 Si30 1.641586 1_545
O115 Si31 1.638167 1_545
O116 Si32 1.649590 1_555
O117 Si33 1.627345 1_555
O118 Si35 1.637547 1_555
O119 Si34 1.634108 1_655
O120 Si22 1.644963 1_555
O121 Si23 1.635070 1_555
O122 Si19 1.626832 1_455
O123 Si18 1.651243 1_555
O124 Si20 1.634896 1_565
O125 Si21 1.642487 1_565
O126 Si14 1.621464 1_565
O127 Si15 1.631776 1_565
O128 Si16 1.632274 1_555
O129 Si17 1.641301 1_555
O130 Si13 1.635602 1_455
O131 Si12 1.635529 1_555
O132 Si0 1.642519 1_555
O133 Si1 1.651893 1_555
O134 Si2 1.650544 1_555
O135 Si3 1.655613 1_555
O136 Si4 1.651707 1_555
O137 Si5 1.654531 1_555
O138 Si6 1.654010 1_555
O139 Si7 1.655047 1_555
O140 Si8 1.648587 1_555
O141 Si9 1.650337 1_555
O142 Si10 1.651682 1_555
O143 Si11 1.654872 1_555
