# generated using pymatgen
data_NaIn2Ge2P3(SO8)3
_symmetry_space_group_name_H-M   'P 1'
_cell_length_a   8.63275095
_cell_length_b   8.63193352
_cell_length_c   22.47458073
_cell_angle_alpha   90.25266163
_cell_angle_beta   90.18739438
_cell_angle_gamma   120.18524887
_symmetry_Int_Tables_number   1
_chemical_formula_structural   NaIn2Ge2P3(SO8)3
_chemical_formula_sum   'Na3 In6 Ge6 P9 S9 O72'
_cell_volume   1447.61418575
_cell_formula_units_Z   3
loop_
 _symmetry_equiv_pos_site_id
 _symmetry_equiv_pos_as_xyz
  1  'x, y, z'
loop_
 _atom_site_type_symbol
 _atom_site_label
 _atom_site_symmetry_multiplicity
 _atom_site_fract_x
 _atom_site_fract_y
 _atom_site_fract_z
 _atom_site_occupancy
  Na  Na0  1  0.67968438  0.33507002  0.83441585  1
  Na  Na1  1  0.66272803  0.34116214  0.33224564  1
  Na  Na2  1  0.34476011  0.67421169  0.16668569  1
  In  In0  1  0.67418467  0.33571729  0.68608037  1
  In  In1  1  0.65482805  0.32880602  0.18450975  1
  In  In2  1  0.66556637  0.32445254  0.98720594  1
  In  In3  1  0.66506607  0.33720152  0.48343765  1
  In  In4  1  0.33637094  0.66904927  0.31028383  1
  In  In5  1  0.32925940  0.66857076  0.80831811  1
  Ge  Ge0  1  0.01412641  0.99260781  0.35497389  1
  Ge  Ge1  1  0.99208595  0.00265411  0.85497708  1
  Ge  Ge2  1  0.99258998  0.99187577  0.65080100  1
  Ge  Ge3  1  0.99844481  0.00006044  0.14658083  1
  Ge  Ge4  1  0.33309407  0.65358432  0.01916198  1
  Ge  Ge5  1  0.32194097  0.65758395  0.51112303  1
  P  P0  1  0.27886364  0.00010800  0.24907389  1
  P  P1  1  0.72707721  0.72396898  0.25015245  1
  P  P2  1  0.99636322  0.72465001  0.75151589  1
  P  P3  1  0.72140156  0.00111444  0.75063476  1
  P  P4  1  0.66730324  0.02519060  0.08364623  1
  P  P5  1  0.35838069  0.32889826  0.08342678  1
  P  P6  1  0.04490141  0.37180897  0.91539289  1
  P  P7  1  0.32271914  0.36812643  0.41466800  1
  P  P8  1  0.04428371  0.67174652  0.41546715  1
  S  S0  1  0.99676521  0.27711559  0.25027750  1
  S  S1  1  0.27993257  0.27660669  0.74988873  1
  S  S2  1  0.97562139  0.33257916  0.58331515  1
  S  S3  1  0.35871686  0.02449574  0.58372425  1
  S  S4  1  0.66334953  0.64084743  0.58374812  1
  S  S5  1  0.97189526  0.63868717  0.08365705  1
  S  S6  1  0.62983327  0.67197548  0.91598747  1
  S  S7  1  0.32368144  0.95620861  0.91629191  1
  S  S8  1  0.63176790  0.95582324  0.41736582  1
  O  O0  1  0.19910812  0.03079203  0.30753479  1
  O  O1  1  0.83516808  0.81291721  0.30916594  1
  O  O2  1  0.97437678  0.17284797  0.30519094  1
  O  O3  1  0.20093549  0.16820292  0.80438128  1
  O  O4  1  0.96977589  0.81327376  0.80841937  1
  O  O5  1  0.84034459  0.03848093  0.80740010  1
  O  O6  1  0.80729847  0.97813424  0.69244362  1
  O  O7  1  0.17242170  0.19603553  0.69383520  1
  O  O8  1  0.02541014  0.83443825  0.69299782  1
  O  O9  1  0.81236589  0.83558898  0.19335172  1
  O  O10  1  0.02059839  0.19633453  0.19485556  1
  O  O11  1  0.16661398  0.97906282  0.19262784  1
  O  O12  1  0.90233255  0.37490389  0.63625040  1
  O  O13  1  0.47470375  0.10291267  0.63698955  1
  O  O14  1  0.62503012  0.52583886  0.63654368  1
  O  O15  1  0.89840840  0.52299309  0.13612929  1
  O  O16  1  0.62143277  0.09931951  0.13863380  1
  O  O17  1  0.48082771  0.38369758  0.13808401  1
  O  O18  1  0.43519768  0.29318197  0.02747435  1
  O  O19  1  0.86179424  0.56531654  0.02964304  1
  O  O20  1  0.71111921  0.13975812  0.02816425  1
  O  O21  1  0.43455433  0.14040230  0.53123733  1
  O  O22  1  0.70669706  0.56714416  0.53140316  1
  O  O23  1  0.85784428  0.29021997  0.53091639  1
  O  O24  1  0.54845352  0.70472735  0.97026983  1
  O  O25  1  0.16660295  0.46235730  0.97233928  1
  O  O26  1  0.29697435  0.84528614  0.97033582  1
  O  O27  1  0.54509016  0.83934120  0.47215255  1
  O  O28  1  0.29128874  0.45558946  0.47303227  1
  O  O29  1  0.16537477  0.70840315  0.47355505  1
  O  O30  1  0.12245559  0.63624498  0.36088746  1
  O  O31  1  0.52075417  0.88510944  0.36403968  1
  O  O32  1  0.36550859  0.48602643  0.36085550  1
  O  O33  1  0.12351122  0.48334686  0.85995507  1
  O  O34  1  0.36184862  0.88357472  0.86276397  1
  O  O35  1  0.52111047  0.63904506  0.86222623  1
  O  O36  1  0.02967113  0.84317283  0.41029522  1
  O  O37  1  0.80748174  0.96920969  0.41156779  1
  O  O38  1  0.14704346  0.18447327  0.40727873  1
  O  O39  1  0.03435258  0.18479286  0.90845475  1
  O  O40  1  0.15690097  0.96717966  0.90922603  1
  O  O41  1  0.80938231  0.83906082  0.91061977  1
  O  O42  1  0.99641235  0.17277352  0.59358174  1
  O  O43  1  0.17847081  0.00732026  0.59311663  1
  O  O44  1  0.82770771  0.82218144  0.59281228  1
  O  O45  1  0.99252328  0.81755891  0.09268196  1
  O  O46  1  0.83033104  0.00041379  0.09492682  1
  O  O47  1  0.17240903  0.16386515  0.09521477  1
  O  O48  1  0.70520419  0.17016429  0.74693897  1
  O  O49  1  0.45677555  0.28997097  0.74529050  1
  O  O50  1  0.82231638  0.54165178  0.74785641  1
  O  O51  1  0.71613987  0.54103922  0.24757624  1
  O  O52  1  0.83567708  0.29475743  0.24663125  1
  O  O53  1  0.46518472  0.16821846  0.24853490  1
  O  O54  1  0.65317367  0.51539764  0.92320185  1
  O  O55  1  0.85764433  0.34762338  0.92297075  1
  O  O56  1  0.48006654  0.13952645  0.92177761  1
  O  O57  1  0.65163399  0.13450078  0.42595355  1
  O  O58  1  0.48250647  0.33989444  0.42390844  1
  O  O59  1  0.85884777  0.50693285  0.42394642  1
  O  O60  1  0.33639445  0.49875629  0.07416986  1
  O  O61  1  0.15426433  0.65908174  0.07456041  1
  O  O62  1  0.49273321  0.83564337  0.07159322  1
  O  O63  1  0.34271765  0.84558112  0.57357102  1
  O  O64  1  0.50379770  0.66052701  0.57279708  1
  O  O65  1  0.15533370  0.49632972  0.57340941  1
  O  O66  1  0.28956916  0.82827850  0.25021282  1
  O  O67  1  0.54141435  0.70723944  0.25148919  1
  O  O68  1  0.16017505  0.45554815  0.25129576  1
  O  O69  1  0.29626395  0.45230422  0.75277248  1
  O  O70  1  0.16211956  0.70866738  0.75347730  1
  O  O71  1  0.54310666  0.83028728  0.75450026  1
loop_
_geom_bond_atom_site_label_1
_geom_bond_atom_site_label_2
_geom_bond_distance
_geom_bond_site_symmetry_2
Na0 O55 2.478636 1_555
Na0 O48 2.496686 1_555
Na0 O50 2.513715 1_555
Na0 O54 2.605929 1_555
Na0 O56 2.607692 1_555
Na0 O49 2.661084 1_555
Na1 O51 2.458684 1_555
Na1 O53 2.463836 1_555
Na1 O58 2.582372 1_555
Na1 O59 2.583875 1_555
Na1 O52 2.589462 1_555
Na1 O57 2.736696 1_555
Na2 O67 2.466422 1_555
Na2 O66 2.478033 1_555
Na2 O62 2.528861 1_555
Na2 O60 2.546280 1_555
Na2 O68 2.597066 1_555
Na2 O61 2.601478 1_555
In0 O48 2.093879 1_555
In0 O50 2.098462 1_555
In0 O12 2.143722 1_555
In0 O13 2.170059 1_555
In0 O49 2.173701 1_555
In0 O14 2.196841 1_555
In1 O17 2.068650 1_555
In1 O53 2.103142 1_555
In1 O16 2.115642 1_555
In1 O51 2.154630 1_555
In1 O15 2.213647 1_555
In1 O52 2.218971 1_555
In2 O20 2.045659 1_556
In2 O18 2.078707 1_556
In2 O19 2.128902 1_556
In2 O55 2.135031 1_555
In2 O56 2.160588 1_555
In2 O54 2.234837 1_555
In3 O58 2.073058 1_555
In3 O59 2.073638 1_555
In3 O22 2.119470 1_555
In3 O57 2.125803 1_555
In3 O21 2.151854 1_555
In3 O23 2.177970 1_555
In4 O32 2.065080 1_555
In4 O30 2.067506 1_555
In4 O67 2.102452 1_555
In4 O66 2.108621 1_555
In4 O31 2.110412 1_555
In4 O68 2.148008 1_555
In5 O70 2.053076 1_555
In5 O33 2.057189 1_555
In5 O71 2.063420 1_555
In5 O34 2.115064 1_555
In5 O69 2.137028 1_555
In5 O35 2.165620 1_555
Ge0 O0 1.811189 1_565
Ge0 O36 1.847933 1_555
Ge0 O1 1.848867 1_455
Ge0 O38 1.872006 1_565
Ge0 O2 2.083234 1_465
Ge0 O37 2.120311 1_455
Ge1 O5 1.831957 1_555
Ge1 O39 1.858254 1_655
Ge1 O4 1.863135 1_545
Ge1 O41 1.958162 1_545
Ge1 O3 2.005647 1_655
Ge1 O40 2.008660 1_645
Ge2 O8 1.795358 1_655
Ge2 O6 1.807926 1_555
Ge2 O7 1.917072 1_665
Ge2 O44 1.935087 1_555
Ge2 O42 2.014765 1_565
Ge2 O43 2.018282 1_665
Ge3 O9 1.852512 1_545
Ge3 O46 1.856715 1_555
Ge3 O11 1.862227 1_645
Ge3 O47 1.864870 1_655
Ge3 O10 1.934090 1_655
Ge3 O45 1.963027 1_545
Ge4 O60 1.835203 1_555
Ge4 O25 1.867318 1_554
Ge4 O62 1.884845 1_555
Ge4 O61 2.005351 1_555
Ge4 O24 2.012720 1_554
Ge4 O26 2.138284 1_554
Ge5 O29 1.823225 1_555
Ge5 O28 1.834237 1_555
Ge5 O27 1.980779 1_555
Ge5 O65 1.995721 1_555
Ge5 O63 2.078689 1_555
Ge5 O64 2.081328 1_555
O0 P0 1.567392 1_555
O1 P1 1.575365 1_555
O2 S0 1.485592 1_555
O3 S1 1.488092 1_555
O4 P2 1.563103 1_555
O5 P3 1.562284 1_555
O6 P3 1.565751 1_565
O7 S1 1.505876 1_555
O8 P2 1.569980 1_455
O9 P1 1.550385 1_555
O10 S0 1.489403 1_455
O11 P0 1.547341 1_565
O12 S2 1.477389 1_555
O13 S3 1.482329 1_555
O14 S4 1.478382 1_555
O15 S5 1.472652 1_555
O16 P4 1.531187 1_555
O17 P5 1.527629 1_555
O18 P5 1.524388 1_555
O19 S5 1.469185 1_555
O20 P4 1.521092 1_555
O21 S3 1.475771 1_555
O22 S4 1.471209 1_555
O23 S2 1.472691 1_555
O24 S6 1.504693 1_555
O25 P6 1.584087 1_555
O26 S7 1.495094 1_555
O27 S8 1.532111 1_555
O28 P7 1.601183 1_555
O29 P8 1.597504 1_555
O30 P8 1.504679 1_555
O31 S8 1.457797 1_555
O32 P7 1.506850 1_555
O33 P6 1.516227 1_555
O34 S7 1.467168 1_555
O35 S6 1.463861 1_555
O36 P8 1.551833 1_555
O37 S8 1.468491 1_555
O38 P7 1.555334 1_555
O39 P6 1.577486 1_555
O40 S7 1.497626 1_555
O41 S6 1.500643 1_555
O42 S2 1.496593 1_555
O43 S3 1.502723 1_555
O44 S4 1.505556 1_555
O45 S5 1.475577 1_555
O46 P4 1.546466 1_555
O47 P5 1.543785 1_555
O48 P3 1.536870 1_555
O49 S1 1.476029 1_555
O50 P2 1.539765 1_555
O51 P1 1.534555 1_555
O52 S0 1.475157 1_555
O53 P0 1.531731 1_555
O54 S6 1.472821 1_555
O55 P6 1.532497 1_655
O56 S7 1.480102 1_545
O57 S8 1.475338 1_545
O58 P7 1.530321 1_555
O59 P8 1.528767 1_655
O60 P5 1.584720 1_555
O61 S5 1.508335 1_455
O62 P4 1.592296 1_565
O63 S3 1.496142 1_565
O64 S4 1.489974 1_555
O65 S2 1.501415 1_455
O66 P0 1.532091 1_565
O67 P1 1.535665 1_555
O68 S0 1.475593 1_455
O69 S1 1.451978 1_555
O70 P2 1.505558 1_455
O71 P3 1.506867 1_565
