# generated using pymatgen
data_Mg(TiS2)2
_symmetry_space_group_name_H-M   'P 1'
_cell_length_a   3.81232266
_cell_length_b   3.81232266
_cell_length_c   12.74047200
_cell_angle_alpha   90.00000000
_cell_angle_beta   90.00000000
_cell_angle_gamma   119.99733884
_symmetry_Int_Tables_number   1
_chemical_formula_structural   Mg(TiS2)2
_chemical_formula_sum   'Mg1 Ti2 S4'
_cell_volume   160.36407917
_cell_formula_units_Z   1
loop_
 _symmetry_equiv_pos_site_id
 _symmetry_equiv_pos_as_xyz
  1  'x, y, z'
loop_
 _atom_site_type_symbol
 _atom_site_label
 _atom_site_symmetry_multiplicity
 _atom_site_fract_x
 _atom_site_fract_y
 _atom_site_fract_z
 _atom_site_occupancy
  Mg  Mg0  1  0.00002700  0.99997300  0.25000000  1
  Ti  Ti0  1  0.66665100  0.33334900  0.75000000  1
  Ti  Ti1  1  0.33332600  0.66667400  0.25000000  1
  S  S0  1  0.66667900  0.33332100  0.13163500  1
  S  S1  1  0.33331900  0.66668100  0.86062800  1
  S  S2  1  0.33331900  0.66668100  0.63937200  1
  S  S3  1  0.66667900  0.33332100  0.36836500  1
loop_
_geom_bond_atom_site_label_1
_geom_bond_atom_site_label_2
_geom_bond_distance
_geom_bond_site_symmetry_2
Mg0 Ti1 2.200789 1_555
Mg0 Ti1 2.201218 1_565
Mg0 Ti1 2.201218 1_455
Mg0 S3 2.668106 1_455
Mg0 S3 2.668106 1_565
Mg0 S0 2.668106 1_565
Mg0 S0 2.668106 1_455
Mg0 S0 2.668153 1_465
Mg0 S3 2.668153 1_465
S0 Ti1 2.668093 1_545
S0 Ti1 2.668093 1_655
S0 Ti1 2.668180 1_555
S1 Ti0 2.613616 1_555
S1 Ti0 2.613702 1_565
S1 Ti0 2.613702 1_455
S2 Ti0 2.613616 1_555
S2 Ti0 2.613702 1_565
S2 Ti0 2.613702 1_455
S3 Ti1 2.668093 1_545
S3 Ti1 2.668093 1_655
S3 Ti1 2.668180 1_555
