# generated using pymatgen
data_MgMnZn2WO6
_symmetry_space_group_name_H-M   'P 1'
_cell_length_a   5.32236314
_cell_length_b   5.99797243
_cell_length_c   8.07241326
_cell_angle_alpha   99.81938046
_cell_angle_beta   131.18012491
_cell_angle_gamma   116.07752292
_symmetry_Int_Tables_number   1
_chemical_formula_structural   MgMnZn2WO6
_chemical_formula_sum   'Mg1 Mn1 Zn2 W1 O6'
_cell_volume   127.66574296
_cell_formula_units_Z   1
loop_
 _symmetry_equiv_pos_site_id
 _symmetry_equiv_pos_as_xyz
  1  'x, y, z'
loop_
 _atom_site_type_symbol
 _atom_site_label
 _atom_site_symmetry_multiplicity
 _atom_site_fract_x
 _atom_site_fract_y
 _atom_site_fract_z
 _atom_site_occupancy
  Mg  Mg0  1  0.00254700  0.29557900  0.34970800  1
  Mn  Mn0  1  0.99992000  0.91435600  0.53527300  1
  Zn  Zn0  1  0.01483600  0.63721100  0.18647500  1
  Zn  Zn1  1  0.99901100  0.45768000  0.76184800  1
  W  W0  1  0.00611600  0.99468400  0.99675100  1
  O  O0  1  0.72531500  0.83532100  0.10667400  1
  O  O1  1  0.36148300  0.15129700  0.95140500  1
  O  O2  1  0.28083200  0.43932000  0.24038600  1
  O  O3  1  0.33254600  0.78485200  0.57768000  1
  O  O4  1  0.62859400  0.10789000  0.38797500  1
  O  O5  1  0.65320400  0.49181600  0.76520600  1
loop_
_geom_bond_atom_site_label_1
_geom_bond_atom_site_label_2
_geom_bond_distance
_geom_bond_site_symmetry_2
Mg0 O4 2.069411 1_455
Mg0 O5 2.098100 1_555
Mg0 O0 2.099185 1_445
Mg0 O3 2.110366 1_555
Mg0 O2 2.138679 1_555
Mg0 O1 2.176453 1_454
Mn0 O3 2.087182 1_655
Mn0 O1 2.112283 1_665
Mn0 O2 2.129475 1_555
Mn0 O4 2.461787 1_565
Mn0 O5 2.500394 1_665
Mn0 O0 2.550244 1_555
O0 Zn1 1.950313 1_454
O0 W0 2.171257 1_654
O0 Zn0 2.182915 1_655
O1 W0 2.015127 1_545
O1 Zn0 2.168231 1_656
O2 W0 2.028356 1_544
O2 Zn0 2.108251 1_555
O3 Zn0 2.076999 1_555
O3 W0 2.119146 1_655
O4 Zn1 1.940503 1_555
O4 Zn0 2.148375 1_545
O4 W0 2.218920 1_544
O5 Zn1 1.955824 1_555
O5 W0 2.142919 1_655
O5 Zn0 2.218793 1_656
