# generated using pymatgen
data_Mg(MoO3)4
_symmetry_space_group_name_H-M   'P 1'
_cell_length_a   5.09267546
_cell_length_b   5.43267579
_cell_length_c   8.79432340
_cell_angle_alpha   77.24511299
_cell_angle_beta   84.44572570
_cell_angle_gamma   90.67819552
_symmetry_Int_Tables_number   1
_chemical_formula_structural   Mg(MoO3)4
_chemical_formula_sum   'Mg1 Mo4 O12'
_cell_volume   236.05480699
_cell_formula_units_Z   1
loop_
 _symmetry_equiv_pos_site_id
 _symmetry_equiv_pos_as_xyz
  1  'x, y, z'
loop_
 _atom_site_type_symbol
 _atom_site_label
 _atom_site_symmetry_multiplicity
 _atom_site_fract_x
 _atom_site_fract_y
 _atom_site_fract_z
 _atom_site_occupancy
  Mg  Mg0  1  0.11921374  0.69845594  0.28581055  1
  Mo  Mo0  1  0.95599610  0.02511901  0.94387217  1
  Mo  Mo1  1  0.41959202  0.52087812  0.94136824  1
  Mo  Mo2  1  0.56937278  0.70600758  0.49049255  1
  Mo  Mo3  1  0.01967799  0.19026643  0.49457789  1
  O  O0  1  0.23429424  0.91297040  0.44084548  1
  O  O1  1  0.33128086  0.44988163  0.44679551  1
  O  O2  1  0.34517189  0.59752268  0.74974010  1
  O  O3  1  0.09189090  0.09121704  0.74693000  1
  O  O4  1  0.79694488  0.47062687  0.57618608  1
  O  O5  1  0.69936657  0.96225421  0.57745906  1
  O  O6  1  0.73719824  0.80561817  0.29812341  1
  O  O7  1  0.93049505  0.33088181  0.30961293  1
  O  O8  1  0.19327191  0.74024586  0.05395591  1
  O  O9  1  0.17994980  0.22087248  0.03630171  1
  O  O10  1  0.71652991  0.75283355  0.95774566  1
  O  O11  1  0.69725310  0.25944821  0.94178674  1
loop_
_geom_bond_atom_site_label_1
_geom_bond_atom_site_label_2
_geom_bond_distance
_geom_bond_site_symmetry_2
Mg0 O8 1.999007 1_555
Mg0 O6 2.037013 1_455
Mg0 O0 2.097774 1_555
Mg0 O1 2.116761 1_555
Mg0 O7 2.164763 1_455
Mo0 O3 1.759290 1_655
Mo0 O11 1.841562 1_555
Mo0 O10 1.881242 1_545
Mo0 O9 1.903927 1_656
Mo0 O8 2.098018 1_646
Mo1 O2 1.724696 1_555
Mo1 O10 1.993153 1_555
Mo1 O9 1.999410 1_556
Mo1 O8 2.015369 1_556
Mo1 O11 2.015666 1_555
Mo2 O6 1.786133 1_555
Mo2 O4 1.823438 1_555
Mo2 O5 1.872827 1_555
Mo2 O1 1.959691 1_555
Mo2 O0 2.083185 1_555
Mo2 O2 2.394958 1_555
Mo3 O7 1.743085 1_455
Mo3 O0 1.985102 1_545
Mo3 O5 2.012453 1_445
Mo3 O1 2.059194 1_555
Mo3 O4 2.118390 1_455
Mo3 O3 2.232780 1_555
