# generated using pymatgen
data_MgCu10(P3O13)2
_symmetry_space_group_name_H-M   'P 1'
_cell_length_a   6.32195235
_cell_length_b   8.24099779
_cell_length_c   10.16678957
_cell_angle_alpha   90.82411238
_cell_angle_beta   91.94079595
_cell_angle_gamma   90.55195231
_symmetry_Int_Tables_number   1
_chemical_formula_structural   MgCu10(P3O13)2
_chemical_formula_sum   'Mg1 Cu10 P6 O26'
_cell_volume   529.29580378
_cell_formula_units_Z   1
loop_
 _symmetry_equiv_pos_site_id
 _symmetry_equiv_pos_as_xyz
  1  'x, y, z'
loop_
 _atom_site_type_symbol
 _atom_site_label
 _atom_site_symmetry_multiplicity
 _atom_site_fract_x
 _atom_site_fract_y
 _atom_site_fract_z
 _atom_site_occupancy
  Mg  Mg0  1  0.00000000  0.00000000  0.00000000  1
  Cu  Cu0  1  0.48660600  0.14419500  0.77444600  1
  Cu  Cu1  1  0.74816100  0.22269400  0.45132800  1
  Cu  Cu2  1  0.25183900  0.77730600  0.54867200  1
  Cu  Cu3  1  0.51339400  0.85580500  0.22555400  1
  Cu  Cu4  1  0.01901000  0.85212900  0.24954600  1
  Cu  Cu5  1  0.33463600  0.82652100  0.94253200  1
  Cu  Cu6  1  0.75645600  0.43083000  0.85571200  1
  Cu  Cu7  1  0.24354400  0.56917000  0.14428800  1
  Cu  Cu8  1  0.98099000  0.14787100  0.75045400  1
  Cu  Cu9  1  0.66536400  0.17347900  0.05746800  1
  P  P0  1  0.24400300  0.13923700  0.50174400  1
  P  P1  1  0.75599700  0.86076300  0.49825600  1
  P  P2  1  0.74802900  0.50330200  0.21661700  1
  P  P3  1  0.27298400  0.16455400  0.13564500  1
  P  P4  1  0.72701600  0.83544600  0.86435500  1
  P  P5  1  0.25197100  0.49669800  0.78338300  1
  O  O0  1  0.23672000  0.96456400  0.43582800  1
  O  O1  1  0.76287300  0.89425600  0.34254400  1
  O  O2  1  0.95321100  0.61548600  0.21267000  1
  O  O3  1  0.51954200  0.90595900  0.79756900  1
  O  O4  1  0.75656400  0.39413500  0.09048000  1
  O  O5  1  0.06193900  0.08756200  0.18400200  1
  O  O6  1  0.94696800  0.75854300  0.54075300  1
  O  O7  1  0.93806100  0.91243800  0.81599800  1
  O  O8  1  0.24343600  0.60586500  0.90952000  1
  O  O9  1  0.27902400  0.10179900  0.98582500  1
  O  O10  1  0.72612900  0.65505700  0.85364000  1
  O  O11  1  0.44704900  0.37839700  0.80175600  1
  O  O12  1  0.26903900  0.58737400  0.65661500  1
  O  O13  1  0.24382300  0.80231200  0.12653100  1
  O  O14  1  0.55295100  0.62160300  0.19824400  1
  O  O15  1  0.44527100  0.23491600  0.47547600  1
  O  O16  1  0.76328000  0.03543600  0.56417200  1
  O  O17  1  0.48045800  0.09404100  0.20243100  1
  O  O18  1  0.23712700  0.10574400  0.65745500  1
  O  O19  1  0.73096100  0.41262500  0.34338500  1
  O  O20  1  0.55472900  0.76508400  0.52452400  1
  O  O21  1  0.05303200  0.24145700  0.45924700  1
  O  O22  1  0.72097600  0.89820100  0.01417500  1
  O  O23  1  0.75617700  0.19768800  0.87346900  1
  O  O24  1  0.04678900  0.38451400  0.78733000  1
  O  O25  1  0.27387100  0.34494300  0.14636000  1
loop_
_geom_bond_atom_site_label_1
_geom_bond_atom_site_label_2
_geom_bond_distance
_geom_bond_site_symmetry_2
Mg0 O9 1.956620 1_554
Mg0 O22 1.956620 1_445
Mg0 O5 2.019826 1_555
Mg0 O7 2.019826 1_444
Mg0 O13 2.580575 1_545
Mg0 O23 2.580575 1_454
Cu0 O18 1.963452 1_555
Cu0 O11 1.965539 1_555
Cu0 O23 1.992177 1_555
Cu0 O3 1.992741 1_545
Cu0 O9 2.581947 1_555
Cu1 O19 1.926320 1_555
Cu1 O21 1.930952 1_655
Cu1 O16 1.937300 1_555
Cu1 O15 1.942148 1_555
Cu2 O12 1.926327 1_555
Cu2 O6 1.930952 1_455
Cu2 O0 1.937300 1_555
Cu2 O20 1.942148 1_555
Cu3 O1 1.963446 1_555
Cu3 O14 1.965539 1_555
Cu3 O13 1.992177 1_555
Cu3 O17 1.992741 1_565
Cu3 O22 2.581947 1_555
Cu4 O1 1.934336 1_455
Cu4 O13 1.967119 1_555
Cu4 O2 2.017313 1_455
Cu4 O5 2.078795 1_565
Cu4 O0 2.467408 1_555
Cu5 O8 1.923766 1_555
Cu5 O13 1.987492 1_556
Cu5 O3 2.024071 1_555
Cu5 O9 2.336847 1_565
Cu5 O22 2.585389 1_556
Cu6 O10 1.859957 1_555
Cu6 O23 1.932359 1_555
Cu6 O24 2.022444 1_655
Cu6 O11 2.053778 1_555
Cu6 O4 2.410206 1_556
Cu7 O25 1.859957 1_555
Cu7 O13 1.932359 1_555
Cu7 O2 2.022444 1_455
Cu7 O14 2.053778 1_555
Cu7 O8 2.410206 1_554
Cu8 O18 1.934341 1_655
Cu8 O23 1.967119 1_555
Cu8 O24 2.017313 1_655
Cu8 O7 2.078795 1_545
Cu8 O16 2.467408 1_555
Cu9 O4 1.923766 1_555
Cu9 O23 1.987492 1_554
Cu9 O17 2.024071 1_555
Cu9 O22 2.336847 1_545
Cu9 O9 2.585389 1_554
O0 P0 1.578674 1_565
O1 P1 1.612840 1_555
O2 P2 1.587581 1_555
O3 P4 1.576333 1_555
O4 P2 1.558614 1_555
O5 P3 1.568920 1_555
O6 P1 1.532525 1_555
O7 P4 1.568920 1_555
O8 P5 1.558614 1_555
O9 P3 1.603334 1_556
O10 P4 1.488951 1_555
O11 P5 1.587174 1_555
O12 P5 1.505549 1_555
O14 P2 1.587174 1_555
O15 P0 1.523746 1_555
O16 P1 1.578674 1_545
O17 P3 1.576333 1_555
O18 P0 1.612830 1_555
O19 P2 1.505553 1_555
O20 P1 1.523746 1_555
O21 P0 1.532525 1_555
O22 P4 1.603334 1_554
O24 P5 1.587581 1_555
O25 P3 1.488951 1_555
