# generated using pymatgen
data_Na9Mg2Ta4Si6(PO12)3
_symmetry_space_group_name_H-M   'P 1'
_cell_length_a   15.68769888
_cell_length_b   26.99668460
_cell_length_c   9.01143642
_cell_angle_alpha   90.10297043
_cell_angle_beta   124.80018637
_cell_angle_gamma   89.97177469
_symmetry_Int_Tables_number   1
_chemical_formula_structural   Na9Mg2Ta4Si6(PO12)3
_chemical_formula_sum   'Na36 Mg8 Ta16 Si24 P12 O144'
_cell_volume   3133.89184772
_cell_formula_units_Z   4
loop_
 _symmetry_equiv_pos_site_id
 _symmetry_equiv_pos_as_xyz
  1  'x, y, z'
loop_
 _atom_site_type_symbol
 _atom_site_label
 _atom_site_symmetry_multiplicity
 _atom_site_fract_x
 _atom_site_fract_y
 _atom_site_fract_z
 _atom_site_occupancy
  Na  Na0  1  0.25618326  0.24538081  0.02517698  1
  Na  Na1  1  0.24906181  0.59104765  0.01753378  1
  Na  Na2  1  0.25888078  0.91310439  0.01895865  1
  Na  Na3  1  0.75093441  0.25207209  0.50399279  1
  Na  Na4  1  0.74584559  0.58134173  0.50156665  1
  Na  Na5  1  0.75715151  0.91643586  0.52015112  1
  Na  Na6  1  0.74906181  0.09104765  0.01753378  1
  Na  Na7  1  0.75888078  0.41310439  0.01895865  1
  Na  Na8  1  0.75618326  0.74538081  0.02517698  1
  Na  Na9  1  0.24584559  0.08134173  0.50156665  1
  Na  Na10  1  0.25715151  0.41643586  0.52015112  1
  Na  Na11  1  0.25093441  0.75207209  0.50399279  1
  Na  Na12  1  0.48467315  0.02579060  0.71315662  1
  Na  Na13  1  0.48955882  0.36914788  0.74372498  1
  Na  Na14  1  0.48464475  0.69625270  0.72099798  1
  Na  Na15  1  0.49068632  0.29491249  0.25603057  1
  Na  Na16  1  0.49983223  0.62632061  0.26886611  1
  Na  Na17  1  0.50209540  0.95735036  0.27925002  1
  Na  Na18  1  0.98464475  0.19625270  0.72099798  1
  Na  Na19  1  0.98467315  0.52579060  0.71315662  1
  Na  Na20  1  0.98955882  0.86914788  0.74372498  1
  Na  Na21  1  0.99983223  0.12632061  0.26886611  1
  Na  Na22  1  0.00209540  0.45735036  0.27925002  1
  Na  Na23  1  0.99068632  0.79491249  0.25603057  1
  Na  Na24  1  0.81566892  0.98059496  0.20792844  1
  Na  Na25  1  0.20890158  0.30929032  0.29707034  1
  Na  Na26  1  0.19952934  0.97484743  0.27914336  1
  Na  Na27  1  0.20186354  0.35887288  0.79107028  1
  Na  Na28  1  0.81840928  0.01942287  0.71541208  1
  Na  Na29  1  0.81495482  0.69501527  0.68362225  1
  Na  Na30  1  0.31566892  0.48059496  0.20792844  1
  Na  Na31  1  0.69952934  0.47484743  0.27914336  1
  Na  Na32  1  0.70890158  0.80929032  0.29707034  1
  Na  Na33  1  0.70186354  0.85887288  0.79107028  1
  Na  Na34  1  0.31495482  0.19501527  0.68362225  1
  Na  Na35  1  0.31840928  0.51942287  0.71541208  1
  Mg  Mg0  1  0.89621326  0.91700702  0.93870167  1
  Mg  Mg1  1  0.89501164  0.08546220  0.43423724  1
  Mg  Mg2  1  0.89692220  0.41611363  0.44507632  1
  Mg  Mg3  1  0.89647899  0.74851524  0.43546298  1
  Mg  Mg4  1  0.39621326  0.41700702  0.93870167  1
  Mg  Mg5  1  0.39647899  0.24851524  0.43546298  1
  Mg  Mg6  1  0.39501164  0.58546220  0.43423724  1
  Mg  Mg7  1  0.39692220  0.91611363  0.44507632  1
  Ta  Ta0  1  0.10442002  0.24994982  0.57683652  1
  Ta  Ta1  1  0.10614555  0.58418111  0.56749039  1
  Ta  Ta2  1  0.10603747  0.91577753  0.56691284  1
  Ta  Ta3  1  0.89107965  0.24974446  0.93312066  1
  Ta  Ta4  1  0.89615186  0.58252779  0.94046792  1
  Ta  Ta5  1  0.10556720  0.08441819  0.06003385  1
  Ta  Ta6  1  0.10449367  0.41716914  0.06089537  1
  Ta  Ta7  1  0.10571549  0.75062804  0.06208259  1
  Ta  Ta8  1  0.60614555  0.08418111  0.56749039  1
  Ta  Ta9  1  0.60603747  0.41577753  0.56691284  1
  Ta  Ta10  1  0.60442002  0.74994982  0.57683652  1
  Ta  Ta11  1  0.39615186  0.08252779  0.94046792  1
  Ta  Ta12  1  0.39107965  0.74974446  0.93312066  1
  Ta  Ta13  1  0.60571549  0.25062804  0.06208259  1
  Ta  Ta14  1  0.60556720  0.58441819  0.06003385  1
  Ta  Ta15  1  0.60449367  0.91716914  0.06089537  1
  Si  Si0  1  0.99484941  0.32099460  0.74421509  1
  Si  Si1  1  0.49484941  0.82099460  0.74421509  1
  Si  Si2  1  0.35319850  0.29862042  0.75237554  1
  Si  Si3  1  0.35338011  0.63047282  0.75176200  1
  Si  Si4  1  0.35103652  0.96368747  0.74547716  1
  Si  Si5  1  0.63981812  0.29762351  0.73101666  1
  Si  Si6  1  0.64524562  0.63099535  0.73608130  1
  Si  Si7  1  0.64548561  0.96694146  0.73828984  1
  Si  Si8  1  0.64771783  0.03438660  0.24737840  1
  Si  Si9  1  0.64350569  0.70064532  0.24690979  1
  Si  Si10  1  0.35302064  0.03583505  0.25554530  1
  Si  Si11  1  0.35007437  0.36988105  0.24670551  1
  Si  Si12  1  0.35235342  0.70340985  0.25712583  1
  Si  Si13  1  0.85338011  0.13047282  0.75176200  1
  Si  Si14  1  0.85103652  0.46368747  0.74547716  1
  Si  Si15  1  0.85319850  0.79862042  0.75237554  1
  Si  Si16  1  0.14524562  0.13099535  0.73608130  1
  Si  Si17  1  0.14548561  0.46694146  0.73828984  1
  Si  Si18  1  0.13981812  0.79762351  0.73101666  1
  Si  Si19  1  0.14350569  0.20064532  0.24690979  1
  Si  Si20  1  0.14771783  0.53438660  0.24737840  1
  Si  Si21  1  0.85235342  0.20340985  0.25712583  1
  Si  Si22  1  0.85302064  0.53583505  0.25554530  1
  Si  Si23  1  0.85007437  0.86988105  0.24670551  1
  P  P0  1  0.00166961  0.65405937  0.74778870  1
  P  P1  1  0.00222116  0.98679111  0.74329860  1
  P  P2  1  0.00253422  0.01245922  0.24352836  1
  P  P3  1  0.00095925  0.34602578  0.25057209  1
  P  P4  1  0.00174730  0.68062568  0.24814182  1
  P  P5  1  0.50166961  0.15405937  0.74778870  1
  P  P6  1  0.50222116  0.48679111  0.74329860  1
  P  P7  1  0.50174730  0.18062568  0.24814182  1
  P  P8  1  0.50253422  0.51245922  0.24352836  1
  P  P9  1  0.50095925  0.84602578  0.25057209  1
  P  P10  1  0.64014392  0.36693763  0.23870028  1
  P  P11  1  0.14014392  0.86693763  0.23870028  1
  O  O0  1  0.14986277  0.19282889  0.74712624  1
  O  O1  1  0.14647952  0.52948963  0.74415115  1
  O  O2  1  0.14438207  0.85972478  0.73693952  1
  O  O3  1  0.84653996  0.19062133  0.77489694  1
  O  O4  1  0.84874232  0.52502521  0.77944865  1
  O  O5  1  0.84267581  0.85793637  0.75661158  1
  O  O6  1  0.84946790  0.14438676  0.25003943  1
  O  O7  1  0.84293901  0.47667001  0.24231021  1
  O  O8  1  0.84166290  0.81065636  0.25454767  1
  O  O9  1  0.14304582  0.13877115  0.23895739  1
  O  O10  1  0.13843981  0.47301919  0.24166657  1
  O  O11  1  0.14621414  0.80818188  0.24551782  1
  O  O12  1  0.64647952  0.02948963  0.74415115  1
  O  O13  1  0.64438207  0.35972478  0.73693952  1
  O  O14  1  0.64986277  0.69282889  0.74712624  1
  O  O15  1  0.34874232  0.02502521  0.77944865  1
  O  O16  1  0.34267581  0.35793637  0.75661158  1
  O  O17  1  0.34653996  0.69062133  0.77489694  1
  O  O18  1  0.34166290  0.31065636  0.25454767  1
  O  O19  1  0.34946790  0.64438676  0.25003943  1
  O  O20  1  0.34293901  0.97667001  0.24231021  1
  O  O21  1  0.64621414  0.30818188  0.24551782  1
  O  O22  1  0.64304582  0.63877115  0.23895739  1
  O  O23  1  0.63843981  0.97301919  0.24166657  1
  O  O24  1  0.43066692  0.18412713  0.58205864  1
  O  O25  1  0.43575364  0.51869932  0.57758503  1
  O  O26  1  0.42843238  0.85386850  0.57236837  1
  O  O27  1  0.56503203  0.18751992  0.92131884  1
  O  O28  1  0.56742783  0.52027865  0.91985018  1
  O  O29  1  0.57122963  0.85571331  0.93129633  1
  O  O30  1  0.56180184  0.14518557  0.41612840  1
  O  O31  1  0.56698456  0.47722406  0.41326998  1
  O  O32  1  0.56591192  0.81233629  0.42322320  1
  O  O33  1  0.44601244  0.14705878  0.07708445  1
  O  O34  1  0.44139455  0.48206831  0.07272791  1
  O  O35  1  0.44763779  0.81190999  0.08317627  1
  O  O36  1  0.93575364  0.01869932  0.57758503  1
  O  O37  1  0.92843238  0.35386850  0.57236837  1
  O  O38  1  0.93066692  0.68412713  0.58205864  1
  O  O39  1  0.06742783  0.02027865  0.91985018  1
  O  O40  1  0.07122963  0.35571331  0.93129633  1
  O  O41  1  0.06503203  0.68751992  0.92131884  1
  O  O42  1  0.06591192  0.31233629  0.42322320  1
  O  O43  1  0.06180184  0.64518557  0.41612840  1
  O  O44  1  0.06698456  0.97722406  0.41326998  1
  O  O45  1  0.94763779  0.31190999  0.08317627  1
  O  O46  1  0.94601244  0.64705878  0.07708445  1
  O  O47  1  0.94139455  0.98206831  0.07272791  1
  O  O48  1  0.25359443  0.27245817  0.74506846  1
  O  O49  1  0.25371851  0.60473551  0.73907034  1
  O  O50  1  0.25213616  0.93827576  0.73185894  1
  O  O51  1  0.75017645  0.27822224  0.77120314  1
  O  O52  1  0.75650906  0.61495145  0.76844492  1
  O  O53  1  0.74774593  0.94857721  0.75416660  1
  O  O54  1  0.74578562  0.05154370  0.25066523  1
  O  O55  1  0.73344435  0.39097661  0.25825020  1
  O  O56  1  0.73751165  0.72560358  0.25504056  1
  O  O57  1  0.25188802  0.06035074  0.24025465  1
  O  O58  1  0.25421875  0.39733667  0.25039187  1
  O  O59  1  0.25117662  0.72990663  0.23716279  1
  O  O60  1  0.75371851  0.10473551  0.73907034  1
  O  O61  1  0.75213616  0.43827576  0.73185894  1
  O  O62  1  0.75359443  0.77245817  0.74506846  1
  O  O63  1  0.25650906  0.11495145  0.76844492  1
  O  O64  1  0.24774593  0.44857721  0.75416660  1
  O  O65  1  0.25017645  0.77822224  0.77120314  1
  O  O66  1  0.23751165  0.22560358  0.25504056  1
  O  O67  1  0.24578562  0.55154370  0.25066523  1
  O  O68  1  0.23344435  0.89097661  0.25825020  1
  O  O69  1  0.75117662  0.22990663  0.23716279  1
  O  O70  1  0.75188802  0.56035074  0.24025465  1
  O  O71  1  0.75421875  0.89733667  0.25039187  1
  O  O72  1  0.35116733  0.28028290  0.58186349  1
  O  O73  1  0.36120460  0.62099433  0.58698917  1
  O  O74  1  0.35016449  0.96162119  0.56773204  1
  O  O75  1  0.63132652  0.28392680  0.90580737  1
  O  O76  1  0.63775424  0.61625855  0.91030999  1
  O  O77  1  0.64397620  0.95273754  0.92273003  1
  O  O78  1  0.64440077  0.04949198  0.42577226  1
  O  O79  1  0.63545739  0.38061004  0.40689081  1
  O  O80  1  0.64058602  0.71393676  0.42683428  1
  O  O81  1  0.35768218  0.05780640  0.08880971  1
  O  O82  1  0.34145432  0.38890822  0.07086542  1
  O  O83  1  0.35707953  0.72469297  0.09111140  1
  O  O84  1  0.86120460  0.12099433  0.58698917  1
  O  O85  1  0.85016449  0.46162119  0.56773204  1
  O  O86  1  0.85116733  0.78028290  0.58186349  1
  O  O87  1  0.13775424  0.11625855  0.91030999  1
  O  O88  1  0.14397620  0.45273754  0.92273003  1
  O  O89  1  0.13132652  0.78392680  0.90580737  1
  O  O90  1  0.14058602  0.21393676  0.42683428  1
  O  O91  1  0.14440077  0.54949198  0.42577226  1
  O  O92  1  0.13545739  0.88061004  0.40689081  1
  O  O93  1  0.85707953  0.22469297  0.09111140  1
  O  O94  1  0.85768218  0.55780640  0.08880971  1
  O  O95  1  0.84145432  0.88890822  0.07086542  1
  O  O96  1  0.46105101  0.27410798  0.93907603  1
  O  O97  1  0.46056067  0.60619085  0.93779755  1
  O  O98  1  0.46094870  0.94182521  0.92620247  1
  O  O99  1  0.54164171  0.27741310  0.54779661  1
  O  O100  1  0.54637996  0.61101266  0.55356380  1
  O  O101  1  0.53938724  0.94759886  0.56441964  1
  O  O102  1  0.53559386  0.05546165  0.07366989  1
  O  O103  1  0.53906751  0.38260107  0.06613679  1
  O  O104  1  0.53019369  0.71847721  0.07221212  1
  O  O105  1  0.46221262  0.05777405  0.43831882  1
  O  O106  1  0.46146930  0.39283680  0.43076890  1
  O  O107  1  0.46117190  0.72535454  0.44378120  1
  O  O108  1  0.96056067  0.10619085  0.93779755  1
  O  O109  1  0.96094870  0.44182521  0.92620247  1
  O  O110  1  0.96105101  0.77410798  0.93907603  1
  O  O111  1  0.04637996  0.11101266  0.55356380  1
  O  O112  1  0.03938724  0.44759886  0.56441964  1
  O  O113  1  0.04164171  0.77741310  0.54779661  1
  O  O114  1  0.03019369  0.21847721  0.07221212  1
  O  O115  1  0.03559386  0.55546165  0.07366989  1
  O  O116  1  0.03906751  0.88260107  0.06613679  1
  O  O117  1  0.96117190  0.22535454  0.44378120  1
  O  O118  1  0.96221262  0.55777405  0.43831882  1
  O  O119  1  0.96146930  0.89283680  0.43076890  1
  O  O120  1  0.08491033  0.28741983  0.74365248  1
  O  O121  1  0.08230912  0.62190718  0.74346628  1
  O  O122  1  0.08464811  0.95475292  0.73861981  1
  O  O123  1  0.92717195  0.27983059  0.77089392  1
  O  O124  1  0.93137932  0.61748243  0.77002340  1
  O  O125  1  0.93289577  0.95089668  0.76211152  1
  O  O126  1  0.92998837  0.04677436  0.25826207  1
  O  O127  1  0.92448684  0.38002059  0.24984223  1
  O  O128  1  0.92348353  0.71325037  0.24792391  1
  O  O129  1  0.08916283  0.04382922  0.24786614  1
  O  O130  1  0.08518320  0.37725620  0.24847499  1
  O  O131  1  0.08373191  0.71266495  0.24564140  1
  O  O132  1  0.58230912  0.12190718  0.74346628  1
  O  O133  1  0.58464811  0.45475292  0.73861981  1
  O  O134  1  0.58491033  0.78741983  0.74365248  1
  O  O135  1  0.43137932  0.11748243  0.77002340  1
  O  O136  1  0.43289577  0.45089668  0.76211152  1
  O  O137  1  0.42717195  0.77983059  0.77089392  1
  O  O138  1  0.42348353  0.21325037  0.24792391  1
  O  O139  1  0.42998837  0.54677436  0.25826207  1
  O  O140  1  0.42448684  0.88002059  0.24984223  1
  O  O141  1  0.58373191  0.21266495  0.24564140  1
  O  O142  1  0.58916283  0.54382922  0.24786614  1
  O  O143  1  0.58518320  0.87725620  0.24847499  1
loop_
_geom_bond_atom_site_label_1
_geom_bond_atom_site_label_2
_geom_bond_distance
_geom_bond_site_symmetry_2
Na0 O66 2.314791 1_555
Na0 O138 2.379194 1_555
Na0 O18 2.449785 1_555
Na0 O0 2.508434 1_554
Na0 O48 2.607122 1_554
Na0 O120 2.677730 1_554
Na1 O19 2.273519 1_555
Na1 O67 2.384310 1_555
Na1 O121 2.503536 1_554
Na1 O49 2.579022 1_554
Na1 O1 2.623618 1_554
Na1 O139 2.677406 1_555
Na2 O20 2.386445 1_555
Na2 O140 2.389696 1_555
Na2 O68 2.480528 1_555
Na2 O2 2.557469 1_554
Na2 O50 2.619211 1_554
Na2 O122 2.691228 1_554
Na3 O21 2.461962 1_555
Na3 O69 2.478925 1_555
Na3 O51 2.514620 1_555
Na3 O123 2.528967 1_555
Na3 O141 2.540794 1_555
Na3 O3 2.606552 1_555
Na4 O142 2.423619 1_555
Na4 O70 2.474898 1_555
Na4 O52 2.483582 1_555
Na4 O22 2.501866 1_555
Na4 O4 2.566158 1_555
Na4 O124 2.689452 1_555
Na5 O53 2.360140 1_555
Na5 O5 2.362527 1_555
Na5 O71 2.458698 1_555
Na5 O125 2.520805 1_555
Na5 O23 2.603056 1_555
Na5 O143 2.616325 1_555
Na6 O6 2.273519 1_555
Na6 O54 2.384310 1_555
Na6 O132 2.503536 1_554
Na6 O60 2.579022 1_554
Na6 O12 2.623618 1_554
Na6 O126 2.677406 1_555
Na7 O7 2.386445 1_555
Na7 O127 2.389696 1_555
Na7 O55 2.480528 1_555
Na7 O13 2.557469 1_554
Na7 O61 2.619211 1_554
Na7 O133 2.691228 1_554
Na8 O56 2.314791 1_555
Na8 O128 2.379194 1_555
Na8 O8 2.449785 1_555
Na8 O14 2.508434 1_554
Na8 O62 2.607122 1_554
Na8 O134 2.677730 1_554
Na9 O129 2.423619 1_555
Na9 O57 2.474898 1_555
Na9 O63 2.483582 1_555
Na9 O9 2.501866 1_555
Na9 O15 2.566158 1_555
Na9 O135 2.689452 1_555
Na10 O64 2.360140 1_555
Na10 O16 2.362527 1_555
Na10 O58 2.458698 1_555
Na10 O136 2.520805 1_555
Na10 O10 2.603056 1_555
Na10 O130 2.616325 1_555
Na11 O11 2.461962 1_555
Na11 O59 2.478925 1_555
Na11 O65 2.514620 1_555
Na11 O137 2.528967 1_555
Na11 O131 2.540794 1_555
Na11 O17 2.606552 1_555
Na12 O12 2.392112 1_555
Na12 O74 2.451560 1_545
Na12 O105 2.452539 1_555
Na12 O15 2.521657 1_555
Na12 O135 2.751639 1_555
Na12 O101 2.879311 1_545
Na12 O77 2.884961 1_545
Na12 O132 2.945783 1_555
Na12 O102 2.977101 1_556
Na13 O16 2.391848 1_555
Na13 O136 2.419318 1_555
Na13 O13 2.477192 1_555
Na13 O103 2.568507 1_556
Na13 O106 2.672883 1_555
Na13 O133 2.765946 1_555
Na14 O107 2.439309 1_555
Na14 O14 2.466808 1_555
Na14 O17 2.480862 1_555
Na14 O137 2.561869 1_555
Na14 O73 2.581089 1_555
Na14 O134 2.865107 1_555
Na14 O104 2.880912 1_556
Na14 O76 2.945228 1_555
Na15 O99 2.319513 1_555
Na15 O18 2.368477 1_555
Na15 O138 2.427115 1_555
Na15 O21 2.520933 1_555
Na15 O96 2.677380 1_554
Na15 O141 2.687317 1_555
Na16 O100 2.269607 1_555
Na16 O19 2.318037 1_555
Na16 O139 2.388185 1_555
Na16 O22 2.434232 1_555
Na16 O142 2.693943 1_555
Na16 O97 2.733515 1_554
Na16 O80 2.983654 1_555
Na17 O101 2.302528 1_555
Na17 O140 2.354367 1_555
Na17 O20 2.380650 1_555
Na17 O23 2.386826 1_555
Na17 O143 2.618974 1_555
Na17 O98 2.892310 1_554
Na18 O117 2.439309 1_555
Na18 O0 2.466808 1_655
Na18 O3 2.480862 1_555
Na18 O123 2.561869 1_555
Na18 O84 2.581089 1_555
Na18 O120 2.865107 1_655
Na18 O114 2.880912 1_656
Na18 O87 2.945228 1_655
Na19 O1 2.392112 1_655
Na19 O85 2.451560 1_555
Na19 O118 2.452539 1_555
Na19 O4 2.521657 1_555
Na19 O124 2.751639 1_555
Na19 O112 2.879311 1_655
Na19 O88 2.884961 1_655
Na19 O121 2.945783 1_655
Na19 O115 2.977101 1_656
Na20 O5 2.391848 1_555
Na20 O125 2.419318 1_555
Na20 O2 2.477192 1_655
Na20 O116 2.568507 1_656
Na20 O119 2.672883 1_555
Na20 O122 2.765946 1_655
Na21 O111 2.269607 1_655
Na21 O6 2.318037 1_555
Na21 O126 2.388185 1_555
Na21 O9 2.434232 1_655
Na21 O129 2.693943 1_655
Na21 O108 2.733515 1_554
Na21 O90 2.983654 1_655
Na22 O112 2.302528 1_555
Na22 O127 2.354367 1_455
Na22 O7 2.380650 1_455
Na22 O10 2.386826 1_555
Na22 O130 2.618974 1_555
Na22 O109 2.892310 1_454
Na23 O113 2.319513 1_655
Na23 O8 2.368477 1_555
Na23 O128 2.427115 1_555
Na23 O11 2.520933 1_655
Na23 O110 2.677380 1_554
Na23 O131 2.687317 1_655
Na24 O54 2.344375 1_565
Na24 O126 2.384496 1_565
Na24 O77 2.553264 1_554
Na24 O71 2.560112 1_555
Na25 O18 2.323143 1_555
Na25 O66 2.374686 1_555
Na25 O72 2.376624 1_555
Na25 O130 2.520838 1_555
Na25 O58 2.584353 1_555
Na26 O74 2.337252 1_555
Na26 O68 2.357308 1_555
Na26 O129 2.446825 1_565
Na26 O20 2.454907 1_555
Na26 O57 2.541476 1_565
Na26 O39 2.938534 1_564
Na26 O44 2.942253 1_555
Na27 O82 2.345694 1_556
Na27 O16 2.399941 1_555
Na27 O120 2.524974 1_555
Na27 O48 2.579064 1_555
Na27 O64 2.602163 1_555
Na28 O53 2.335648 1_545
Na28 O125 2.441731 1_545
Na28 O60 2.573481 1_555
Na28 O78 2.606911 1_555
Na28 O36 2.746162 1_555
Na28 O47 2.833030 1_546
Na28 O12 2.865669 1_555
Na29 O80 2.424055 1_555
Na29 O38 2.472666 1_555
Na29 O62 2.491284 1_555
Na29 O124 2.588855 1_555
Na29 O52 2.627677 1_555
Na29 O86 2.658201 1_555
Na30 O67 2.344375 1_555
Na30 O139 2.384496 1_555
Na30 O88 2.553264 1_554
Na30 O58 2.560112 1_555
Na31 O85 2.337252 1_555
Na31 O55 2.357308 1_555
Na31 O142 2.446825 1_555
Na31 O7 2.454907 1_555
Na31 O70 2.541476 1_555
Na31 O28 2.938534 1_554
Na31 O31 2.942253 1_555
Na32 O8 2.323143 1_555
Na32 O56 2.374686 1_555
Na32 O86 2.376624 1_555
Na32 O143 2.520838 1_555
Na32 O71 2.584353 1_555
Na33 O95 2.345694 1_556
Na33 O5 2.399941 1_555
Na33 O134 2.524974 1_555
Na33 O62 2.579064 1_555
Na33 O53 2.602163 1_555
Na34 O90 2.424055 1_555
Na34 O24 2.472666 1_555
Na34 O48 2.491284 1_555
Na34 O135 2.588855 1_555
Na34 O63 2.627677 1_555
Na34 O72 2.658201 1_555
Na35 O64 2.335648 1_555
Na35 O136 2.441731 1_555
Na35 O49 2.573481 1_555
Na35 O91 2.606911 1_555
Na35 O25 2.746162 1_555
Na35 O34 2.833030 1_556
Na35 O1 2.865669 1_555
Mg0 O95 1.975735 1_556
Mg0 O47 2.015599 1_556
Mg0 O116 2.065931 1_656
Mg0 O5 2.088032 1_555
Mg0 O53 2.121012 1_555
Mg0 O125 2.179810 1_555
Mg1 O84 1.980978 1_555
Mg1 O111 2.086927 1_655
Mg1 O36 2.095369 1_555
Mg1 O6 2.109723 1_555
Mg1 O54 2.152138 1_555
Mg1 O126 2.212090 1_555
Mg2 O37 1.934638 1_555
Mg2 O112 2.032030 1_655
Mg2 O85 2.046645 1_555
Mg2 O55 2.222912 1_555
Mg2 O7 2.229719 1_555
Mg2 O127 2.256882 1_555
Mg3 O86 2.011730 1_555
Mg3 O113 2.046199 1_655
Mg3 O38 2.062274 1_555
Mg3 O56 2.148264 1_555
Mg3 O8 2.149398 1_555
Mg3 O128 2.180127 1_555
Mg4 O82 1.975735 1_556
Mg4 O34 2.015599 1_556
Mg4 O103 2.065931 1_556
Mg4 O16 2.088032 1_555
Mg4 O64 2.121012 1_555
Mg4 O136 2.179810 1_555
Mg5 O72 2.011730 1_555
Mg5 O99 2.046199 1_555
Mg5 O24 2.062274 1_555
Mg5 O66 2.148264 1_555
Mg5 O18 2.149398 1_555
Mg5 O138 2.180127 1_555
Mg6 O73 1.980978 1_555
Mg6 O100 2.086927 1_555
Mg6 O25 2.095369 1_555
Mg6 O19 2.109723 1_555
Mg6 O67 2.152138 1_555
Mg6 O139 2.212090 1_555
Mg7 O26 1.934638 1_555
Mg7 O101 2.032030 1_555
Mg7 O74 2.046645 1_555
Mg7 O68 2.222912 1_555
Mg7 O20 2.229719 1_555
Mg7 O140 2.256882 1_555
O0 Si16 1.671230 1_555
O0 Ta0 1.999950 1_555
O1 Si17 1.689126 1_555
O1 Ta1 1.993112 1_555
O2 Si18 1.677545 1_555
O2 Ta2 1.988654 1_555
O3 Si13 1.647994 1_555
O3 Ta3 1.981053 1_555
O4 Si14 1.687532 1_555
O4 Ta4 1.956963 1_555
O5 Si15 1.612356 1_555
O6 Si21 1.594222 1_555
O7 Si22 1.602657 1_555
O8 Si23 1.609364 1_555
O9 Si19 1.671648 1_555
O9 Ta5 2.002194 1_555
O10 Si20 1.661302 1_555
O10 Ta6 2.052409 1_555
O11 P11 1.588216 1_555
O11 Ta7 2.084053 1_555
O12 Si7 1.689126 1_545
O12 Ta8 1.993112 1_555
O13 Si5 1.677545 1_555
O13 Ta9 1.988654 1_555
O14 Si6 1.671230 1_555
O14 Ta10 1.999950 1_555
O15 Si4 1.687532 1_545
O15 Ta11 1.956963 1_555
O16 Si2 1.612356 1_555
O17 Si3 1.647994 1_555
O17 Ta12 1.981053 1_555
O18 Si11 1.609364 1_555
O19 Si12 1.594222 1_555
O20 Si10 1.602657 1_565
O21 P10 1.588216 1_555
O21 Ta13 2.084053 1_555
O22 Si9 1.671648 1_555
O22 Ta14 2.002194 1_555
O23 Si8 1.661302 1_565
O23 Ta15 2.052409 1_555
O24 P5 1.494896 1_555
O25 P6 1.511853 1_555
O26 Si1 1.560024 1_555
O27 P5 1.571929 1_555
O27 Ta13 1.997056 1_556
O28 P6 1.591549 1_555
O28 Ta14 2.020523 1_556
O29 Si1 1.687036 1_555
O29 Ta15 1.920188 1_556
O30 P7 1.571944 1_555
O30 Ta8 1.995149 1_555
O31 P8 1.582983 1_555
O31 Ta9 2.020677 1_555
O32 P9 1.575030 1_555
O32 Ta10 2.042216 1_555
O33 P7 1.555367 1_555
O33 Ta11 2.014181 1_554
O34 P8 1.507739 1_555
O35 P9 1.542388 1_555
O35 Ta12 2.013987 1_554
O36 P1 1.511853 1_645
O37 Si0 1.560024 1_555
O38 P0 1.494896 1_655
O39 P1 1.591549 1_545
O39 Ta5 2.020523 1_556
O40 Si0 1.687036 1_455
O40 Ta6 1.920188 1_556
O41 P0 1.571929 1_555
O41 Ta7 1.997056 1_556
O42 P3 1.575030 1_555
O42 Ta0 2.042216 1_555
O43 P4 1.571944 1_555
O43 Ta1 1.995149 1_555
O44 P2 1.582983 1_565
O44 Ta2 2.020677 1_555
O45 P3 1.542388 1_655
O45 Ta3 2.013987 1_554
O46 P4 1.555367 1_655
O46 Ta4 2.014181 1_554
O47 P2 1.507739 1_665
O48 Si2 1.681742 1_555
O48 Ta0 2.023024 1_555
O49 Si3 1.654373 1_555
O49 Ta1 1.992630 1_555
O50 Si4 1.635948 1_555
O50 Ta2 1.985165 1_555
O51 Si5 1.639185 1_555
O51 Ta3 1.981679 1_555
O52 Si6 1.654683 1_555
O52 Ta4 2.023627 1_555
O53 Si7 1.605398 1_555
O54 Si8 1.590884 1_555
O55 P10 1.516814 1_555
O56 Si9 1.584827 1_555
O57 Si10 1.650421 1_555
O57 Ta5 2.018887 1_555
O58 Si11 1.693401 1_555
O58 Ta6 2.035569 1_555
O59 Si12 1.654321 1_555
O59 Ta7 1.975317 1_555
O60 Si13 1.654373 1_555
O60 Ta8 1.992630 1_555
O61 Si14 1.635948 1_555
O61 Ta9 1.985165 1_555
O62 Si15 1.681742 1_555
O62 Ta10 2.023024 1_555
O63 Si16 1.654683 1_555
O63 Ta11 2.023627 1_555
O64 Si17 1.605398 1_555
O65 Si18 1.639185 1_555
O65 Ta12 1.981679 1_555
O66 Si19 1.584827 1_555
O67 Si20 1.590884 1_555
O68 P11 1.516814 1_555
O69 Si21 1.654321 1_555
O69 Ta13 1.975317 1_555
O70 Si22 1.650421 1_555
O70 Ta14 2.018887 1_555
O71 Si23 1.693401 1_555
O71 Ta15 2.035569 1_555
O72 Si2 1.596402 1_555
O73 Si3 1.578587 1_555
O74 Si4 1.594846 1_555
O75 Si5 1.696203 1_555
O75 Ta13 1.898288 1_556
O76 Si6 1.688211 1_555
O76 Ta14 1.896443 1_556
O77 Si7 1.719681 1_555
O77 Ta15 1.934170 1_556
O78 Si8 1.687140 1_555
O78 Ta8 1.933415 1_555
O79 P10 1.601237 1_555
O79 Ta9 1.986994 1_555
O80 Si9 1.685936 1_555
O80 Ta10 1.991092 1_555
O81 Si10 1.656331 1_555
O81 Ta11 1.876443 1_554
O82 Si11 1.597274 1_555
O83 Si12 1.644223 1_555
O83 Ta12 1.907744 1_554
O84 Si13 1.578587 1_555
O85 Si14 1.594846 1_555
O86 Si15 1.596402 1_555
O87 Si16 1.688211 1_555
O87 Ta5 1.896443 1_556
O88 Si17 1.719681 1_555
O88 Ta6 1.934170 1_556
O89 Si18 1.696203 1_555
O89 Ta7 1.898288 1_556
O90 Si19 1.685936 1_555
O90 Ta0 1.991092 1_555
O91 Si20 1.687140 1_555
O91 Ta1 1.933415 1_555
O92 P11 1.601237 1_555
O92 Ta2 1.986994 1_555
O93 Si21 1.644223 1_555
O93 Ta3 1.907744 1_554
O94 Si22 1.656331 1_555
O94 Ta4 1.876443 1_554
O95 Si23 1.597274 1_555
O96 Si2 1.698506 1_555
O96 Ta13 1.977530 1_556
O97 Si3 1.689008 1_555
O97 Ta14 1.968374 1_556
O98 Si4 1.664610 1_555
O98 Ta15 1.966949 1_556
O99 Si5 1.578245 1_555
O100 Si6 1.577220 1_555
O101 Si7 1.587187 1_555
O102 Si8 1.651487 1_555
O102 Ta11 1.940214 1_554
O103 P10 1.516073 1_555
O104 Si9 1.636344 1_555
O104 Ta12 1.981423 1_554
O105 Si10 1.665820 1_555
O105 Ta8 1.990018 1_555
O106 Si11 1.696456 1_555
O106 Ta9 1.963412 1_555
O107 Si12 1.677596 1_555
O107 Ta10 1.962558 1_555
O108 Si13 1.689008 1_555
O108 Ta5 1.968374 1_656
O109 Si14 1.664610 1_555
O109 Ta6 1.966949 1_656
O110 Si15 1.698506 1_555
O110 Ta7 1.977530 1_656
O111 Si16 1.577220 1_555
O112 Si17 1.587187 1_555
O113 Si18 1.578245 1_555
O114 Si19 1.636344 1_555
O114 Ta3 1.981423 1_454
O115 Si20 1.651487 1_555
O115 Ta4 1.940214 1_454
O116 P11 1.516073 1_555
O117 Si21 1.677596 1_555
O117 Ta0 1.962558 1_655
O118 Si22 1.665820 1_555
O118 Ta1 1.990018 1_655
O119 Si23 1.696456 1_555
O119 Ta2 1.963412 1_655
O120 Si0 1.680666 1_455
O120 Ta0 1.973853 1_555
O121 P0 1.552525 1_555
O121 Ta1 2.088673 1_555
O122 P1 1.575738 1_555
O122 Ta2 2.049485 1_555
O123 Si0 1.647257 1_555
O123 Ta3 2.016671 1_555
O124 P0 1.576427 1_655
O124 Ta4 2.128296 1_555
O125 P1 1.537081 1_655
O126 P2 1.530376 1_655
O127 P3 1.507135 1_655
O128 P4 1.509758 1_655
O129 P2 1.583039 1_555
O129 Ta5 2.153162 1_555
O130 P3 1.576909 1_555
O130 Ta6 2.168295 1_555
O131 P4 1.561115 1_555
O131 Ta7 2.136127 1_555
O132 P5 1.552525 1_555
O132 Ta8 2.088673 1_555
O133 P6 1.575738 1_555
O133 Ta9 2.049485 1_555
O134 Si1 1.680666 1_555
O134 Ta10 1.973853 1_555
O135 P5 1.576427 1_555
O135 Ta11 2.128296 1_555
O136 P6 1.537081 1_555
O137 Si1 1.647257 1_555
O137 Ta12 2.016671 1_555
O138 P7 1.509758 1_555
O139 P8 1.530376 1_555
O140 P9 1.507135 1_555
O141 P7 1.561115 1_555
O141 Ta13 2.136127 1_555
O142 P8 1.583039 1_555
O142 Ta14 2.153162 1_555
O143 P9 1.576909 1_555
O143 Ta15 2.168295 1_555
