# generated using pymatgen
data_SmFeAsO
_symmetry_space_group_name_H-M   'P 1'
_cell_length_a   4.02649200
_cell_length_b   4.02649200
_cell_length_c   9.04675500
_cell_angle_alpha   90.00000000
_cell_angle_beta   90.00000000
_cell_angle_gamma   90.00000000
_symmetry_Int_Tables_number   1
_chemical_formula_structural   SmFeAsO
_chemical_formula_sum   'Sm2 Fe2 As2 O2'
_cell_volume   146.67176232
_cell_formula_units_Z   2
loop_
 _symmetry_equiv_pos_site_id
 _symmetry_equiv_pos_as_xyz
  1  'x, y, z'
loop_
 _atom_site_type_symbol
 _atom_site_label
 _atom_site_symmetry_multiplicity
 _atom_site_fract_x
 _atom_site_fract_y
 _atom_site_fract_z
 _atom_site_occupancy
  Sm  Sm0  1  0.50000000  0.00000000  0.87426800  1
  Sm  Sm1  1  0.00000000  0.50000000  0.12573200  1
  Fe  Fe0  1  0.00000000  0.00000000  0.50000000  1
  Fe  Fe1  1  0.50000000  0.50000000  0.50000000  1
  As  As0  1  0.50000000  0.00000000  0.32134100  1
  As  As1  1  0.00000000  0.50000000  0.67865900  1
  O  O0  1  0.00000000  0.00000000  0.00000000  1
  O  O1  1  0.50000000  0.50000000  0.00000000  1
loop_
_geom_bond_atom_site_label_1
_geom_bond_atom_site_label_2
_geom_bond_distance
_geom_bond_site_symmetry_2
As0 Fe1 2.581770 1_545
As0 Fe0 2.581770 1_555
As0 Fe0 2.581770 1_655
As0 Fe1 2.581770 1_555
As0 Sm1 3.352297 1_655
As0 Sm1 3.352297 1_555
As0 Sm1 3.352297 1_545
As0 Sm1 3.352297 1_645
As1 Fe1 2.581770 1_455
As1 Fe0 2.581770 1_555
As1 Fe0 2.581770 1_565
As1 Fe1 2.581770 1_555
As1 Sm0 3.352297 1_455
As1 Sm0 3.352297 1_465
As1 Sm0 3.352297 1_555
As1 Sm0 3.352297 1_565
O0 Sm0 2.312356 1_554
O0 Sm0 2.312356 1_454
O0 Sm1 2.312356 1_555
O0 Sm1 2.312356 1_545
O1 Sm0 2.312356 1_554
O1 Sm0 2.312356 1_564
O1 Sm1 2.312356 1_555
O1 Sm1 2.312356 1_655
