# generated using pymatgen
data_MgV2S4(N3Cl2)2
_symmetry_space_group_name_H-M   'P 1'
_cell_length_a   5.82992381
_cell_length_b   7.54238422
_cell_length_c   8.39176530
_cell_angle_alpha   93.86912929
_cell_angle_beta   98.64564997
_cell_angle_gamma   111.54358909
_symmetry_Int_Tables_number   1
_chemical_formula_structural   MgV2S4(N3Cl2)2
_chemical_formula_sum   'Mg1 V2 S4 N6 Cl4'
_cell_volume   336.28677055
_cell_formula_units_Z   1
loop_
 _symmetry_equiv_pos_site_id
 _symmetry_equiv_pos_as_xyz
  1  'x, y, z'
loop_
 _atom_site_type_symbol
 _atom_site_label
 _atom_site_symmetry_multiplicity
 _atom_site_fract_x
 _atom_site_fract_y
 _atom_site_fract_z
 _atom_site_occupancy
  Mg  Mg0  1  0.64157600  0.49059100  0.47878700  1
  V  V0  1  0.24911200  0.01468700  0.11874100  1
  V  V1  1  0.73440400  0.99554600  0.87968000  1
  S  S0  1  0.25029000  0.29054700  0.81780200  1
  S  S1  1  0.19374700  0.76979900  0.40836200  1
  S  S2  1  0.73101400  0.71853900  0.17893800  1
  S  S3  1  0.80410300  0.21815800  0.58035400  1
  N  N0  1  0.88448600  0.66866500  0.33836300  1
  N  N1  1  0.65712100  0.09210700  0.70470100  1
  N  N2  1  0.32546000  0.91062500  0.29157800  1
  N  N3  1  0.90020100  0.87930600  0.09076900  1
  N  N4  1  0.10361500  0.33433800  0.65948000  1
  N  N5  1  0.08713600  0.13326900  0.91194000  1
  Cl  Cl0  1  0.72129300  0.69495200  0.71822400  1
  Cl  Cl1  1  0.67168300  0.21914400  0.07398700  1
  Cl  Cl2  1  0.26992500  0.30307200  0.29684900  1
  Cl  Cl3  1  0.31650200  0.79165500  0.92644400  1
loop_
_geom_bond_atom_site_label_1
_geom_bond_atom_site_label_2
_geom_bond_distance
_geom_bond_site_symmetry_2
Mg0 N0 2.125197 1_555
Mg0 S3 2.696270 1_555
N0 S2 1.639246 1_555
N0 S1 1.669935 1_655
N1 S3 1.591044 1_555
N1 V1 1.753847 1_545
N2 S1 1.563970 1_555
N2 V0 1.770293 1_565
N3 S2 1.566128 1_555
N3 V0 1.879917 1_665
N3 V1 2.271126 1_554
N4 S0 1.590772 1_555
N4 S3 1.645268 1_455
N5 S0 1.568347 1_555
N5 V1 1.899204 1_445
N5 V0 2.245085 1_556
Cl0 Mg0 2.324711 1_555
Cl0 V1 2.531562 1_555
Cl1 V1 2.428514 1_544
Cl1 V0 2.480818 1_555
Cl2 Mg0 2.342953 1_555
Cl2 V0 2.508522 1_555
Cl3 V0 2.428544 1_566
Cl3 V1 2.464127 1_555
