# generated using pymatgen
data_Na21Ta4Zn8Si3(P5O24)3
_symmetry_space_group_name_H-M   'P 1'
_cell_length_a   9.06579921
_cell_length_b   9.05222813
_cell_length_c   22.01804838
_cell_angle_alpha   89.75802180
_cell_angle_beta   90.11333737
_cell_angle_gamma   119.84115901
_symmetry_Int_Tables_number   1
_chemical_formula_structural   Na21Ta4Zn8Si3(P5O24)3
_chemical_formula_sum   'Na21 Ta4 Zn8 Si3 P15 O72'
_cell_volume   1567.32862586
_cell_formula_units_Z   1
loop_
 _symmetry_equiv_pos_site_id
 _symmetry_equiv_pos_as_xyz
  1  'x, y, z'
loop_
 _atom_site_type_symbol
 _atom_site_label
 _atom_site_symmetry_multiplicity
 _atom_site_fract_x
 _atom_site_fract_y
 _atom_site_fract_z
 _atom_site_occupancy
  Na  Na0  1  0.65328394  0.01759746  0.24248062  1
  Na  Na1  1  0.98478934  0.63267701  0.24240595  1
  Na  Na2  1  0.65050698  0.63453367  0.74561526  1
  Na  Na3  1  0.98245950  0.34736158  0.74695291  1
  Na  Na4  1  0.36666970  0.01686447  0.74604448  1
  Na  Na5  1  0.29293186  0.33553417  0.58532394  1
  Na  Na6  1  0.04603591  0.70956757  0.58217918  1
  Na  Na7  1  0.66269219  0.95320118  0.58260121  1
  Na  Na8  1  0.29173341  0.95738862  0.08481180  1
  Na  Na9  1  0.66513684  0.70588016  0.08452628  1
  Na  Na10  1  0.04592431  0.33699508  0.08175928  1
  Na  Na11  1  0.97670960  0.68114454  0.91462430  1
  Na  Na12  1  0.97607601  0.28867435  0.40872436  1
  Na  Na13  1  0.30986428  0.01884794  0.41112541  1
  Na  Na14  1  0.71630097  0.69549661  0.41188158  1
  Na  Na15  1  0.99455714  0.99363790  0.49656444  1
  Na  Na16  1  0.00215758  0.01922688  0.99411638  1
  Na  Na17  1  0.65809637  0.32148439  0.83065270  1
  Na  Na18  1  0.65500994  0.33439303  0.32065836  1
  Na  Na19  1  0.33359946  0.65294036  0.15802458  1
  Na  Na20  1  0.33501581  0.66819732  0.65927002  1
  Ta  Ta0  1  0.66541087  0.32965968  0.97877622  1
  Ta  Ta1  1  0.66900610  0.33309742  0.47956910  1
  Ta  Ta2  1  0.33165825  0.66615410  0.31522275  1
  Ta  Ta3  1  0.33186206  0.66438894  0.81895725  1
  Zn  Zn0  1  0.99544662  0.99474373  0.34594781  1
  Zn  Zn1  1  0.00078852  0.01407415  0.85131068  1
  Zn  Zn2  1  0.99906015  0.00115920  0.65563115  1
  Zn  Zn3  1  0.00293524  0.00394910  0.15364200  1
  Zn  Zn4  1  0.66730368  0.33301207  0.68047455  1
  Zn  Zn5  1  0.66017479  0.33340244  0.18085325  1
  Zn  Zn6  1  0.33137180  0.65924707  0.01206099  1
  Zn  Zn7  1  0.33658544  0.67382746  0.51099142  1
  Si  Si0  1  0.03473136  0.36257863  0.92189345  1
  Si  Si1  1  0.63003068  0.96152687  0.42006753  1
  Si  Si2  1  0.03869360  0.66879038  0.42036196  1
  P  P0  1  0.29723804  0.99937732  0.25173156  1
  P  P1  1  0.69915985  0.70052805  0.25050135  1
  P  P2  1  0.00407341  0.29903899  0.25050981  1
  P  P3  1  0.29717549  0.29915969  0.74965517  1
  P  P4  1  0.00465984  0.70575019  0.75139159  1
  P  P5  1  0.69966897  0.99574569  0.74901866  1
  P  P6  1  0.96215636  0.33352712  0.58550973  1
  P  P7  1  0.37261523  0.04003100  0.58560449  1
  P  P8  1  0.66466308  0.62563745  0.58508580  1
  P  P9  1  0.95894047  0.62636809  0.08479892  1
  P  P10  1  0.66501321  0.03860737  0.08526976  1
  P  P11  1  0.37643345  0.33469651  0.08407159  1
  P  P12  1  0.63007549  0.66575104  0.91992759  1
  P  P13  1  0.33459092  0.96185227  0.91932525  1
  P  P14  1  0.33600366  0.37615335  0.42053466  1
  O  O0  1  0.21645063  0.01828990  0.30974060  1
  O  O1  1  0.80455345  0.78011917  0.30825906  1
  O  O2  1  0.97857392  0.19186171  0.30789255  1
  O  O3  1  0.21094335  0.17759795  0.80189472  1
  O  O4  1  0.97717441  0.78784167  0.80705509  1
  O  O5  1  0.81772984  0.02556506  0.80179151  1
  O  O6  1  0.76297205  0.95333952  0.68937306  1
  O  O7  1  0.19035009  0.24000779  0.69021064  1
  O  O8  1  0.04374800  0.81496221  0.69269988  1
  O  O9  1  0.76994559  0.81552062  0.19367789  1
  O  O10  1  0.03166168  0.22418532  0.19225726  1
  O  O11  1  0.18559884  0.95925840  0.19460406  1
  O  O12  1  0.88065193  0.35893141  0.64224293  1
  O  O13  1  0.47768114  0.12301292  0.64259501  1
  O  O14  1  0.64397325  0.52173984  0.64265171  1
  O  O15  1  0.87916066  0.51840473  0.14192799  1
  O  O16  1  0.63919104  0.11649568  0.14319276  1
  O  O17  1  0.48608775  0.36254579  0.13977075  1
  O  O18  1  0.47828380  0.31836925  0.02729864  1
  O  O19  1  0.83965038  0.52258427  0.02784666  1
  O  O20  1  0.67919537  0.16174844  0.02963646  1
  O  O21  1  0.47649125  0.15780999  0.52848612  1
  O  O22  1  0.67829273  0.52124461  0.52815719  1
  O  O23  1  0.84157575  0.31943753  0.52839987  1
  O  O24  1  0.55242753  0.69122142  0.97754440  1
  O  O25  1  0.13523507  0.45388452  0.98235708  1
  O  O26  1  0.31269593  0.85819387  0.97672071  1
  O  O27  1  0.55736707  0.84815119  0.48016236  1
  O  O28  1  0.30480966  0.44728520  0.47838213  1
  O  O29  1  0.14600677  0.69650543  0.48100999  1
  O  O30  1  0.13344424  0.62946552  0.36192583  1
  O  O31  1  0.49704785  0.86187570  0.36174339  1
  O  O32  1  0.36727411  0.50108233  0.36584089  1
  O  O33  1  0.13843472  0.50062883  0.86225313  1
  O  O34  1  0.36394500  0.86764822  0.86252354  1
  O  O35  1  0.50872421  0.64404548  0.86348536  1
  O  O36  1  0.01122003  0.82970585  0.41113196  1
  O  O37  1  0.82192355  0.00055500  0.41071056  1
  O  O38  1  0.18866667  0.19754643  0.41012618  1
  O  O39  1  0.00666584  0.17746778  0.91243146  1
  O  O40  1  0.17631625  0.97306223  0.90826649  1
  O  O41  1  0.81008449  0.80591049  0.90984791  1
  O  O42  1  0.96451528  0.16458763  0.58242736  1
  O  O43  1  0.19989845  0.03475825  0.58269157  1
  O  O44  1  0.83139094  0.79808275  0.58202854  1
  O  O45  1  0.96268586  0.79880899  0.08259370  1
  O  O46  1  0.83226357  0.03403043  0.08241960  1
  O  O47  1  0.20314599  0.16812568  0.08284163  1
  O  O48  1  0.67026589  0.15051538  0.74538396  1
  O  O49  1  0.48139528  0.33141794  0.74557058  1
  O  O50  1  0.85298450  0.52155209  0.74692254  1
  O  O51  1  0.68332046  0.52436141  0.24522002  1
  O  O52  1  0.84954032  0.32863046  0.24802786  1
  O  O53  1  0.48272637  0.14338921  0.24756825  1
  O  O54  1  0.63242735  0.49156900  0.92160990  1
  O  O55  1  0.84909718  0.36744928  0.92165773  1
  O  O56  1  0.50128261  0.14073891  0.92144442  1
  O  O57  1  0.62915111  0.14729196  0.42322773  1
  O  O58  1  0.50734738  0.36940826  0.42299875  1
  O  O59  1  0.84780836  0.48898034  0.42302220  1
  O  O60  1  0.35673005  0.49426205  0.07900945  1
  O  O61  1  0.13918685  0.65075283  0.07997585  1
  O  O62  1  0.50658118  0.86130903  0.07808651  1
  O  O63  1  0.35431157  0.86232509  0.58165995  1
  O  O64  1  0.50429927  0.64176550  0.58044780  1
  O  O65  1  0.13961217  0.48989043  0.57960991  1
  O  O66  1  0.30970667  0.82546067  0.25824145  1
  O  O67  1  0.51671005  0.68482907  0.25955288  1
  O  O68  1  0.16914592  0.48346624  0.25795855  1
  O  O69  1  0.31636166  0.48442128  0.76026894  1
  O  O70  1  0.17375545  0.68999790  0.75856865  1
  O  O71  1  0.51578256  0.83059899  0.75846484  1
loop_
_geom_bond_atom_site_label_1
_geom_bond_atom_site_label_2
_geom_bond_distance
_geom_bond_site_symmetry_2
Na0 O53 2.335388 1_555
Na0 O16 2.386028 1_555
Na0 O52 2.474766 1_555
Na0 O67 2.651182 1_545
Na0 O66 2.730423 1_545
Na0 O9 2.750605 1_545
Na0 O2 2.938053 1_555
Na0 O31 2.980809 1_545
Na1 O52 2.394395 1_555
Na1 O51 2.401685 1_555
Na1 O15 2.430344 1_555
Na1 O66 2.594046 1_655
Na1 O68 2.641107 1_655
Na1 O11 2.790496 1_655
Na1 O1 2.957994 1_555
Na1 O30 2.960857 1_655
Na2 O49 2.385969 1_555
Na2 O14 2.478790 1_555
Na2 O50 2.506829 1_555
Na2 O71 2.623886 1_555
Na2 O69 2.651563 1_555
Na2 O6 2.819222 1_555
Na2 O4 2.904530 1_555
Na2 O35 2.918947 1_555
Na3 O50 2.388740 1_555
Na3 O48 2.483537 1_555
Na3 O12 2.502789 1_555
Na3 O69 2.655273 1_655
Na3 O70 2.710148 1_655
Na3 O5 2.796725 1_555
Na3 O7 2.810629 1_655
Na3 O33 2.903871 1_655
Na4 O48 2.392787 1_555
Na4 O13 2.480425 1_555
Na4 O49 2.498421 1_555
Na4 O70 2.595137 1_545
Na4 O71 2.647309 1_545
Na4 O3 2.772831 1_555
Na4 O8 2.823136 1_545
Na4 O34 2.887954 1_545
Na5 O65 2.414712 1_555
Na5 O43 2.417348 1_555
Na5 O64 2.465714 1_555
Na5 O7 2.477351 1_555
Na5 O28 2.540034 1_555
Na5 O42 2.584230 1_455
Na6 O63 2.424241 1_555
Na6 O29 2.431917 1_555
Na6 O44 2.445469 1_455
Na6 O65 2.521371 1_555
Na6 O43 2.554414 1_565
Na6 O8 2.621419 1_555
Na7 O42 2.436795 1_565
Na7 O64 2.446246 1_555
Na7 O27 2.451383 1_555
Na7 O63 2.490845 1_555
Na7 O6 2.518670 1_555
Na7 O44 2.539350 1_555
Na8 O47 2.410358 1_565
Na8 O61 2.410448 1_555
Na8 O62 2.502057 1_555
Na8 O26 2.587711 1_554
Na8 O45 2.588473 1_455
Na8 O11 2.606864 1_555
Na9 O45 2.393309 1_555
Na9 O62 2.464981 1_555
Na9 O60 2.484368 1_555
Na9 O24 2.543304 1_554
Na9 O46 2.577140 1_565
Na9 O9 2.595448 1_555
Na10 O25 2.387502 1_554
Na10 O60 2.444932 1_555
Na10 O46 2.446751 1_455
Na10 O61 2.528344 1_555
Na10 O47 2.556725 1_555
Na10 O10 2.612972 1_555
Na11 O41 2.294505 1_555
Na11 O40 2.348629 1_655
Na11 O55 2.480637 1_555
Na11 O4 2.553266 1_555
Na11 O54 2.716547 1_555
Na11 O19 2.833011 1_556
Na11 O33 2.925133 1_655
Na11 O26 2.976527 1_655
Na12 O37 2.264766 1_555
Na12 O2 2.394546 1_555
Na12 O38 2.444933 1_655
Na12 O59 2.616048 1_555
Na12 O57 2.761617 1_555
Na12 O30 2.865802 1_655
Na12 O23 2.977338 1_555
Na12 O28 3.006276 1_655
Na13 O38 2.364923 1_555
Na13 O36 2.376649 1_545
Na13 O0 2.385103 1_555
Na13 O57 2.540025 1_555
Na13 O58 2.773969 1_555
Na13 O31 2.915661 1_545
Na13 O21 2.943221 1_555
Na13 O29 2.957364 1_545
Na14 O36 2.322105 1_655
Na14 O1 2.411428 1_555
Na14 O37 2.431293 1_565
Na14 O58 2.606252 1_555
Na14 O59 2.681300 1_555
Na14 O27 2.872891 1_555
Na14 O22 2.930823 1_555
Na14 O32 2.932157 1_555
Na15 O36 2.451754 1_655
Na15 O37 2.472150 1_565
Na15 O44 2.497934 1_555
Na15 O42 2.547383 1_565
Na15 O43 2.550016 1_665
Na15 O38 2.622400 1_665
Na16 O39 2.282226 1_555
Na16 O46 2.527819 1_456
Na16 O47 2.552888 1_556
Na16 O41 2.621956 1_445
Na16 O40 2.629766 1_545
Na16 O45 2.676493 1_446
Na17 O48 2.475380 1_555
Na17 O49 2.492741 1_555
Na17 O56 2.522509 1_555
Na17 O55 2.542204 1_555
Na17 O50 2.569162 1_555
Na17 O54 2.611499 1_555
Na18 O51 2.306575 1_555
Na18 O53 2.311891 1_555
Na18 O52 2.402855 1_555
Na18 O58 2.722186 1_555
Na18 O57 2.756524 1_555
Na18 O59 2.769480 1_555
Na19 O60 2.335866 1_555
Na19 O61 2.452257 1_555
Na19 O62 2.480738 1_555
Na19 O68 2.669474 1_555
Na19 O67 2.711127 1_555
Na19 O66 2.778929 1_555
Na20 O63 2.389274 1_555
Na20 O64 2.409150 1_555
Na20 O65 2.446596 1_555
Na20 O71 2.689307 1_555
Na20 O70 2.694410 1_555
Na20 O69 2.726104 1_555
O0 P0 1.525586 1_545
O0 Zn0 2.067652 1_445
O1 P1 1.538544 1_555
O1 Zn0 2.029783 1_555
O2 P2 1.535784 1_655
O2 Zn0 2.041545 1_545
O3 P3 1.510556 1_555
O3 Zn1 2.047632 1_555
O4 P4 1.519730 1_655
O4 Zn1 2.183798 1_665
O5 P5 1.509564 1_545
O5 Zn1 2.029155 1_655
O6 P5 1.558170 1_555
O6 Zn2 2.098061 1_565
O7 P3 1.556454 1_555
O7 Zn2 2.130499 1_455
O8 P4 1.554118 1_555
O8 Zn2 2.082744 1_465
O9 P1 1.545351 1_555
O9 Zn3 2.134750 1_665
O10 P2 1.531025 1_555
O10 Zn3 2.064464 1_555
O11 P0 1.539939 1_555
O11 Zn3 2.092157 1_565
O12 P6 1.527885 1_555
O12 Zn4 2.014403 1_555
O13 P7 1.528815 1_555
O13 Zn4 2.004998 1_555
O14 P8 1.530219 1_555
O14 Zn4 2.000953 1_555
O15 P9 1.533051 1_555
O15 Zn5 2.041157 1_555
O16 P10 1.533452 1_555
O16 Zn5 2.054378 1_555
O17 P11 1.517960 1_555
O17 Zn5 1.945597 1_555
O18 P11 1.605909 1_555
O18 Ta0 1.965584 1_554
O19 P9 1.618052 1_555
O19 Ta0 1.994052 1_554
O20 P10 1.614316 1_555
O20 Ta0 1.937545 1_554
O21 P7 1.612248 1_555
O21 Ta1 1.990187 1_555
O22 P8 1.614387 1_555
O22 Ta1 1.981073 1_555
O23 P6 1.627760 1_555
O23 Ta1 1.950283 1_555
O24 P12 1.524988 1_555
O24 Zn6 2.025948 1_556
O25 Si0 1.593955 1_555
O25 Zn6 1.939425 1_556
O26 P13 1.523983 1_555
O26 Zn6 2.041695 1_556
O27 Si1 1.599119 1_555
O27 Zn7 1.951963 1_555
O28 P14 1.518696 1_555
O28 Zn7 2.056119 1_555
O29 Si2 1.596053 1_555
O29 Zn7 1.952012 1_555
O30 Si2 1.683034 1_555
O30 Ta2 1.951234 1_555
O31 Si1 1.684539 1_555
O31 Ta2 1.949834 1_555
O32 P14 1.574890 1_555
O32 Ta2 2.010945 1_555
O33 Si0 1.729664 1_555
O33 Ta3 1.894454 1_555
O34 P13 1.611936 1_555
O34 Ta3 1.967581 1_555
O35 P12 1.604644 1_555
O35 Ta3 1.962684 1_555
O36 Si2 1.607330 1_555
O36 Zn0 2.122718 1_455
O37 Si1 1.607120 1_545
O37 Zn0 2.145387 1_545
O38 P14 1.517698 1_555
O38 Zn0 2.290686 1_445
O39 Si0 1.579378 1_555
O39 Zn1 1.984862 1_555
O40 P13 1.507249 1_555
O40 Zn1 2.195180 1_565
O41 P12 1.503551 1_555
O41 Zn1 2.224217 1_665
O42 P6 1.541813 1_555
O42 Zn2 2.307280 1_555
O43 P7 1.543833 1_555
O43 Zn2 2.333065 1_455
O44 P8 1.541863 1_555
O44 Zn2 2.355999 1_565
O45 P9 1.544917 1_555
O45 Zn3 2.318753 1_665
O46 P10 1.538704 1_555
O46 Zn3 2.309435 1_655
O47 P11 1.544370 1_555
O47 Zn3 2.289189 1_555
O48 P5 1.552714 1_545
O48 Zn4 2.190077 1_555
O49 P3 1.548426 1_555
O49 Zn4 2.209140 1_555
O50 P4 1.549127 1_655
O50 Zn4 2.244818 1_555
O51 P1 1.533238 1_555
O51 Zn5 2.167760 1_555
O52 P2 1.552576 1_655
O52 Zn5 2.280332 1_555
O53 P0 1.534139 1_545
O53 Zn5 2.222278 1_555
O54 P12 1.587729 1_555
O54 Ta0 2.059344 1_555
O55 Si0 1.705287 1_655
O55 Ta0 1.977248 1_555
O56 P13 1.572609 1_545
O56 Ta0 2.051956 1_555
O57 Si1 1.687299 1_545
O57 Ta1 1.977240 1_555
O58 P14 1.585450 1_555
O58 Ta1 2.067871 1_555
O59 Si2 1.686383 1_655
O59 Ta1 1.971218 1_555
O60 P11 1.544676 1_555
O60 Zn6 2.185861 1_555
O61 P9 1.540043 1_455
O61 Zn6 2.270165 1_555
O62 P10 1.539798 1_565
O62 Zn6 2.259204 1_555
O63 P7 1.535662 1_565
O63 Zn7 2.259866 1_555
O64 P8 1.534885 1_555
O64 Zn7 2.271781 1_555
O65 P6 1.530228 1_455
O65 Zn7 2.296568 1_555
O66 P0 1.639202 1_555
O66 Ta2 1.990628 1_555
O67 P1 1.600919 1_555
O67 Ta2 2.017337 1_555
O68 P2 1.602673 1_555
O68 Ta2 2.020076 1_555
O69 P3 1.615596 1_555
O69 Ta3 2.032920 1_555
O70 P4 1.616090 1_555
O70 Ta3 2.048597 1_555
O71 P5 1.604930 1_555
O71 Ta3 2.076812 1_555
