# generated using pymatgen
data_LaAl4
_symmetry_space_group_name_H-M   'P 1'
_cell_length_a   8.87297470
_cell_length_b   8.87297470
_cell_length_c   8.87297470
_cell_angle_alpha   151.70200830
_cell_angle_beta   101.89642323
_cell_angle_gamma   85.02983056
_symmetry_Int_Tables_number   1
_chemical_formula_structural   LaAl4
_chemical_formula_sum   'La3 Al12'
_cell_volume   317.19841316
_cell_formula_units_Z   3
loop_
 _symmetry_equiv_pos_site_id
 _symmetry_equiv_pos_as_xyz
  1  'x, y, z'
loop_
 _atom_site_type_symbol
 _atom_site_label
 _atom_site_symmetry_multiplicity
 _atom_site_fract_x
 _atom_site_fract_y
 _atom_site_fract_z
 _atom_site_occupancy
  La  La0  1  0.00075310  -0.00000000  0.00075310  1
  La  La1  1  0.33412884  0.33340587  0.00072297  1
  La  La2  1  0.66731710  0.66659413  0.00072297  1
  Al  Al0  1  0.61554043  -0.00000000  0.61554043  1
  Al  Al1  1  0.38554284  0.00000000  0.38554284  1
  Al  Al2  1  0.24986357  0.50000000  0.74986357  1
  Al  Al3  1  0.75137198  0.50000000  0.25137198  1
  Al  Al4  1  0.58388351  0.83357642  0.75030808  1
  Al  Al5  1  0.91673266  0.16642358  0.75030808  1
  Al  Al6  1  0.28266347  0.66694597  0.61571750  1
  Al  Al7  1  0.94877153  0.33305403  0.61571750  1
  Al  Al8  1  0.05261241  0.66669455  0.38591786  1
  Al  Al9  1  0.71922130  0.33330545  0.38591786  1
  Al  Al10  1  0.08453715  0.83323901  0.25129914  1
  Al  Al11  1  0.41805913  0.16676099  0.25129914  1
loop_
_geom_bond_atom_site_label_1
_geom_bond_atom_site_label_2
_geom_bond_distance
_geom_bond_site_symmetry_2
Al0 Al1 2.571453 1_555
Al0 Al4 2.647501 1_545
Al0 Al5 2.647507 1_555
Al0 Al3 2.647757 1_556
Al0 Al3 2.647757 1_545
Al0 La1 3.331800 1_545
Al0 La2 3.331800 1_556
Al0 La1 3.331800 1_556
Al0 La2 3.331800 1_545
Al1 Al2 2.646781 1_544
Al1 Al2 2.646781 1_555
Al1 Al11 2.647802 1_555
Al1 Al10 2.647813 1_545
Al1 La1 3.333365 1_545
Al1 La1 3.333365 1_556
Al1 La2 3.333365 1_545
Al1 La2 3.333365 1_556
Al2 Al7 2.649180 1_455
Al2 Al6 2.649180 1_555
Al2 La0 3.530064 1_555
Al2 La0 3.530064 1_566
Al2 La2 3.551759 1_556
Al2 La1 3.551759 1_556
Al3 Al8 2.649005 1_655
Al3 Al9 2.649010 1_555
Al3 La0 3.532452 1_666
Al3 La0 3.532452 1_655
Al3 La2 3.549902 1_555
Al3 La1 3.549902 1_555
Al4 Al9 2.646333 1_555
Al4 Al9 2.646336 1_566
Al4 Al6 2.648591 1_555
Al4 La1 3.534247 1_566
Al4 La1 3.534250 1_555
Al4 La0 3.546740 1_666
Al4 La2 3.550957 1_556
Al5 Al8 2.646333 1_645
Al5 Al8 2.646336 1_656
Al5 Al7 2.648597 1_555
Al5 La2 3.534256 1_545
Al5 La2 3.534259 1_556
Al5 La0 3.546732 1_656
Al5 La1 3.550948 1_656
Al6 Al8 2.569242 1_555
Al6 La1 3.331416 1_555
Al6 La1 3.331416 1_566
Al6 La0 3.335445 1_555
Al6 La0 3.335445 1_566
Al7 Al9 2.569253 1_555
Al7 La2 3.331416 1_545
Al7 La2 3.331416 1_556
Al7 La0 3.335445 1_655
Al7 La0 3.335445 1_666
Al8 La0 3.332736 1_566
Al8 La0 3.332736 1_555
Al8 La1 3.332750 1_566
Al8 La1 3.332750 1_555
Al9 La2 3.332743 1_556
Al9 La0 3.332746 1_666
Al9 La2 3.332749 1_545
Al9 La0 3.332752 1_655
Al10 Al7 2.646151 1_465
Al10 Al7 2.646155 1_454
Al10 Al8 2.647850 1_555
Al10 La1 3.532833 1_566
Al10 La1 3.532835 1_555
Al10 La2 3.549658 1_455
Al10 La0 3.550333 1_565
Al11 Al6 2.646151 1_555
Al11 Al6 2.646155 1_544
Al11 Al9 2.647844 1_555
Al11 La2 3.532833 1_556
Al11 La2 3.532835 1_545
Al11 La1 3.549666 1_555
Al11 La0 3.550325 1_555
