# generated using pymatgen
data_MgTl4V4(TeO5)4
_symmetry_space_group_name_H-M   'P 1'
_cell_length_a   7.06985946
_cell_length_b   8.24980249
_cell_length_c   9.27915161
_cell_angle_alpha   86.50146034
_cell_angle_beta   91.60447253
_cell_angle_gamma   89.86483378
_symmetry_Int_Tables_number   1
_chemical_formula_structural   MgTl4V4(TeO5)4
_chemical_formula_sum   'Mg1 Tl4 V4 Te4 O20'
_cell_volume   539.98110161
_cell_formula_units_Z   1
loop_
 _symmetry_equiv_pos_site_id
 _symmetry_equiv_pos_as_xyz
  1  'x, y, z'
loop_
 _atom_site_type_symbol
 _atom_site_label
 _atom_site_symmetry_multiplicity
 _atom_site_fract_x
 _atom_site_fract_y
 _atom_site_fract_z
 _atom_site_occupancy
  Mg  Mg0  1  0.44502500  0.05342600  0.66645600  1
  Tl  Tl0  1  0.99281900  0.92296300  0.90976900  1
  Tl  Tl1  1  0.54673400  0.74868300  0.57536300  1
  Tl  Tl2  1  0.52053200  0.40069500  0.36460000  1
  Tl  Tl3  1  0.01947000  0.41141600  0.11950900  1
  V  V0  1  0.30280400  0.80753700  0.25470600  1
  V  V1  1  0.19128500  0.32040200  0.76860700  1
  V  V2  1  0.80324900  0.78872000  0.24106200  1
  V  V3  1  0.70166700  0.30720200  0.74495000  1
  Te  Te0  1  0.97111000  0.08584200  0.48699000  1
  Te  Te1  1  0.02792300  0.59850600  0.53035700  1
  Te  Te2  1  0.52735100  0.59271800  0.97229500  1
  Te  Te3  1  0.49593300  0.10060400  0.03473400  1
  O  O0  1  0.95127600  0.26396700  0.81760500  1
  O  O1  1  0.15690200  0.02600200  0.63355100  1
  O  O2  1  0.07600500  0.76168200  0.18798200  1
  O  O3  1  0.87390500  0.56348300  0.36590900  1
  O  O4  1  0.27949000  0.98641900  0.32851400  1
  O  O5  1  0.55555800  0.74619700  0.31667000  1
  O  O6  1  0.88702900  0.86894200  0.44974200  1
  O  O7  1  0.21342600  0.50889000  0.82363800  1
  O  O8  1  0.42466900  0.28411500  0.68775700  1
  O  O9  1  0.62702000  0.37697200  0.94068000  1
  O  O10  1  0.26142400  0.17327100  0.93300900  1
  O  O11  1  0.37456100  0.53060300  0.12667900  1
  O  O12  1  0.75447300  0.65142900  0.07633100  1
  O  O13  1  0.39395500  0.88139000  0.06471700  1
  O  O14  1  0.74250800  0.13440100  0.59461300  1
  O  O15  1  0.71855500  0.49495600  0.65399200  1
  O  O16  1  0.60998200  0.05628400  0.85732400  1
  O  O17  1  0.77686700  0.98229700  0.16032900  1
  O  O18  1  0.26005400  0.64789000  0.42876200  1
  O  O19  1  0.09679500  0.37009600  0.56851500  1
loop_
_geom_bond_atom_site_label_1
_geom_bond_atom_site_label_2
_geom_bond_distance
_geom_bond_site_symmetry_2
Mg0 O8 1.930784 1_555
Mg0 O1 2.066280 1_555
Mg0 O16 2.094508 1_555
Mg0 O14 2.311873 1_555
Mg0 Tl1 2.799454 1_545
O0 V1 1.823131 1_655
O0 V3 1.896566 1_555
O0 Tl0 2.901762 1_545
O1 Te0 1.906178 1_455
O1 Tl0 2.922817 1_445
O2 V0 1.753085 1_555
O2 V2 2.018771 1_455
O2 Tl0 2.876254 1_454
O3 Te1 1.886766 1_655
O3 V2 2.178267 1_555
O4 V0 1.674085 1_555
O5 V0 1.918984 1_555
O5 V2 1.929619 1_555
O5 Tl1 2.404344 1_555
O6 Te0 1.934865 1_565
O6 V2 2.152302 1_555
O6 Te1 2.504683 1_655
O6 Tl1 2.856267 1_555
O7 V1 1.672372 1_555
O8 V1 1.862611 1_555
O8 V3 2.027043 1_555
O9 Te2 1.954451 1_555
O9 V3 2.021944 1_555
O9 Te3 2.575131 1_556
O10 V1 1.942987 1_555
O10 Te3 1.959023 1_556
O10 Tl0 2.822554 1_445
O11 Te2 1.865828 1_554
O11 Tl2 2.581856 1_555
O11 V0 2.692179 1_555
O11 Tl3 2.698861 1_555
O12 Te2 1.928419 1_554
O12 V2 1.980374 1_555
O12 Tl3 2.726678 1_655
O13 Te3 1.955442 1_565
O13 V0 1.956738 1_555
O14 Te0 1.976358 1_555
O14 V3 2.079659 1_555
O15 V3 1.724172 1_555
O15 Tl1 2.478186 1_555
O15 Te1 2.619049 1_655
O16 Te3 1.907943 1_556
O16 V3 2.360764 1_555
O16 Tl0 2.935833 1_545
O17 V2 1.729471 1_555
O17 Te3 2.445004 1_565
O17 Tl0 2.882754 1_554
O18 Te1 1.947031 1_555
O18 V0 2.050392 1_555
O18 Tl1 2.577093 1_555
O19 Te1 1.953912 1_555
O19 V1 1.974326 1_555
