# generated using pymatgen
data_Bi4Se3
_symmetry_space_group_name_H-M   'P 1'
_cell_length_a   14.10220626
_cell_length_b   14.10220626
_cell_length_c   14.10220621
_cell_angle_alpha   17.47809370
_cell_angle_beta   17.47809370
_cell_angle_gamma   17.47808968
_symmetry_Int_Tables_number   1
_chemical_formula_structural   Bi4Se3
_chemical_formula_sum   'Bi4 Se3'
_cell_volume   220.78809995
_cell_formula_units_Z   1
loop_
 _symmetry_equiv_pos_site_id
 _symmetry_equiv_pos_as_xyz
  1  'x, y, z'
loop_
 _atom_site_type_symbol
 _atom_site_label
 _atom_site_symmetry_multiplicity
 _atom_site_fract_x
 _atom_site_fract_y
 _atom_site_fract_z
 _atom_site_occupancy
  Bi  Bi0  1  0.71132622  0.71132622  0.71132622  1
  Bi  Bi1  1  0.28867378  0.28867378  0.28867378  1
  Bi  Bi2  1  0.85404364  0.85404364  0.85404364  1
  Bi  Bi3  1  0.14595636  0.14595636  0.14595636  1
  Se  Se0  1  0.00000000  0.00000000  0.00000000  1
  Se  Se1  1  0.58595448  0.58595448  0.58595448  1
  Se  Se2  1  0.41404552  0.41404552  0.41404552  1
loop_
_geom_bond_atom_site_label_1
_geom_bond_atom_site_label_2
_geom_bond_distance
_geom_bond_site_symmetry_2
Bi0 Se2 2.894109 1_655
Bi0 Se2 2.894109 1_565
Bi0 Se2 2.894110 1_556
Bi0 Se0 3.095315 1_656
Bi0 Se0 3.095315 1_566
Bi0 Se0 3.095316 1_665
Bi1 Se1 2.894109 1_455
Bi1 Se1 2.894109 1_545
Bi1 Se1 2.894110 1_554
Bi1 Se0 3.095315 1_565
Bi1 Se0 3.095315 1_655
Bi1 Se0 3.095316 1_556
Bi2 Bi3 3.016175 1_656
Bi2 Bi3 3.016175 1_566
Bi2 Bi3 3.016175 1_665
