# generated using pymatgen
data_MgCr2Fe3Ni(PO4)6
_symmetry_space_group_name_H-M   'P 1'
_cell_length_a   8.57793100
_cell_length_b   8.57816640
_cell_length_c   8.57804226
_cell_angle_alpha   60.47543516
_cell_angle_beta   60.46508358
_cell_angle_gamma   60.47206408
_symmetry_Int_Tables_number   1
_chemical_formula_structural   MgCr2Fe3Ni(PO4)6
_chemical_formula_sum   'Mg1 Cr2 Fe3 Ni1 P6 O24'
_cell_volume   451.07436698
_cell_formula_units_Z   1
loop_
 _symmetry_equiv_pos_site_id
 _symmetry_equiv_pos_as_xyz
  1  'x, y, z'
loop_
 _atom_site_type_symbol
 _atom_site_label
 _atom_site_symmetry_multiplicity
 _atom_site_fract_x
 _atom_site_fract_y
 _atom_site_fract_z
 _atom_site_occupancy
  Mg  Mg0  1  0.74931500  0.74935100  0.75009700  1
  Cr  Cr0  1  0.00452000  0.00441000  0.00446400  1
  Cr  Cr1  1  0.49571500  0.49583900  0.49603100  1
  Fe  Fe0  1  0.14880700  0.14882200  0.14895100  1
  Fe  Fe1  1  0.35126800  0.35123900  0.35138700  1
  Fe  Fe2  1  0.62868400  0.62866500  0.62854700  1
  Ni  Ni0  1  0.87096100  0.87089100  0.87122200  1
  P  P0  1  0.05172200  0.74994900  0.44981500  1
  P  P1  1  0.44963600  0.05179100  0.75001300  1
  P  P2  1  0.74990600  0.44954900  0.05200200  1
  P  P3  1  0.24631400  0.54537000  0.95782200  1
  P  P4  1  0.54539400  0.95764100  0.24647800  1
  P  P5  1  0.95764100  0.24626500  0.54557000  1
  O  O0  1  0.09677200  0.34238900  0.48773000  1
  O  O1  1  0.34237700  0.48744600  0.09696000  1
  O  O2  1  0.06836200  0.90774200  0.24877100  1
  O  O3  1  0.48752900  0.09676500  0.34262700  1
  O  O4  1  0.99881400  0.80953900  0.61620100  1
  O  O5  1  0.25322200  0.59324000  0.43112400  1
  O  O6  1  0.24861900  0.06838100  0.90787400  1
  O  O7  1  0.43093400  0.25323800  0.59339100  1
  O  O8  1  0.14929300  0.40569900  0.02064900  1
  O  O9  1  0.59321900  0.43098000  0.25343100  1
  O  O10  1  0.10309900  0.75266200  0.94941100  1
  O  O11  1  0.40563600  0.02039900  0.14959300  1
  O  O12  1  0.61588900  0.99883800  0.80979700  1
  O  O13  1  0.90773100  0.24860100  0.06854900  1
  O  O14  1  0.38904400  0.55131900  0.75113200  1
  O  O15  1  0.80960900  0.61589400  0.99903800  1
  O  O16  1  0.55134300  0.75096200  0.38921900  1
  O  O17  1  0.75269700  0.94917700  0.10331400  1
  O  O18  1  0.75096100  0.38899800  0.55155200  1
  O  O19  1  0.02043300  0.14928900  0.40584900  1
  O  O20  1  0.49987300  0.88876100  0.68710900  1
  O  O21  1  0.94912200  0.10307100  0.75291000  1
  O  O22  1  0.68680600  0.49992600  0.88903600  1
  O  O23  1  0.88873000  0.68690800  0.50014800  1
loop_
_geom_bond_atom_site_label_1
_geom_bond_atom_site_label_2
_geom_bond_distance
_geom_bond_site_symmetry_2
Mg0 O15 2.057654 1_555
Mg0 O12 2.059205 1_555
Mg0 O4 2.060916 1_555
Mg0 O22 2.067214 1_555
Mg0 O20 2.069088 1_555
Mg0 O23 2.070431 1_555
Cr0 O6 2.084689 1_554
Cr0 O13 2.085669 1_455
Cr0 O2 2.085781 1_545
Cr0 O21 2.100706 1_454
Cr0 O10 2.100739 1_544
Cr0 O17 2.101576 1_445
Cr1 O5 2.074871 1_555
Cr1 O9 2.075147 1_555
Cr1 O7 2.075208 1_555
Cr1 O14 2.115507 1_555
Cr1 O16 2.116290 1_555
Cr1 O18 2.116729 1_555
Fe0 O19 1.918522 1_555
Fe0 O11 1.918551 1_555
Fe0 O8 1.918635 1_555
Fe0 O6 2.136389 1_554
Fe0 O13 2.136416 1_455
Fe0 O2 2.136566 1_545
Fe1 O3 1.922775 1_555
Fe1 O1 1.922813 1_555
Fe1 O0 1.923008 1_555
Fe1 O9 2.143575 1_555
Fe1 O7 2.143713 1_555
Fe1 O5 2.143827 1_555
Fe2 O16 2.071096 1_555
Fe2 O18 2.071921 1_555
Fe2 O14 2.072954 1_555
Fe2 O23 2.138337 1_555
Fe2 O20 2.139782 1_555
Fe2 O22 2.141170 1_555
Ni0 O17 2.024539 1_556
Ni0 O10 2.024659 1_655
Ni0 O21 2.024716 1_565
Ni0 O4 2.113222 1_555
Ni0 O15 2.113270 1_555
Ni0 O12 2.114028 1_555
O0 P5 1.527552 1_455
O1 P3 1.527080 1_554
O2 P0 1.572805 1_555
O3 P4 1.527581 1_545
O4 P0 1.534969 1_655
O5 P0 1.571387 1_555
O6 P1 1.572639 1_555
O7 P1 1.570967 1_555
O8 P3 1.524080 1_554
O9 P2 1.570834 1_555
O10 P3 1.576083 1_555
O11 P4 1.524103 1_545
O12 P1 1.534937 1_565
O13 P2 1.572372 1_555
O14 P3 1.573966 1_555
O15 P2 1.535188 1_556
O16 P4 1.574161 1_555
O17 P4 1.575795 1_555
O18 P5 1.573997 1_555
O19 P5 1.524192 1_455
O20 P1 1.533990 1_565
O21 P5 1.576261 1_555
O22 P2 1.534260 1_556
O23 P0 1.534153 1_655
