# generated using pymatgen
data_Gd2MgCr2O8
_symmetry_space_group_name_H-M   'P 1'
_cell_length_a   6.10226196
_cell_length_b   6.25521093
_cell_length_c   6.24183644
_cell_angle_alpha   107.92148244
_cell_angle_beta   105.14727880
_cell_angle_gamma   117.17321495
_symmetry_Int_Tables_number   1
_chemical_formula_structural   Gd2MgCr2O8
_chemical_formula_sum   'Gd2 Mg1 Cr2 O8'
_cell_volume   177.50300603
_cell_formula_units_Z   1
loop_
 _symmetry_equiv_pos_site_id
 _symmetry_equiv_pos_as_xyz
  1  'x, y, z'
loop_
 _atom_site_type_symbol
 _atom_site_label
 _atom_site_symmetry_multiplicity
 _atom_site_fract_x
 _atom_site_fract_y
 _atom_site_fract_z
 _atom_site_occupancy
  Gd  Gd0  1  0.13949100  0.88576800  0.29252600  1
  Gd  Gd1  1  0.86445400  0.14872200  0.74544900  1
  Mg  Mg0  1  0.98279200  0.71915700  0.73195500  1
  Cr  Cr0  1  0.39693100  0.61848000  0.75328500  1
  Cr  Cr1  1  0.60110000  0.35163100  0.21373100  1
  O  O0  1  0.79033200  0.72868800  0.42903500  1
  O  O1  1  0.35777600  0.81739400  0.60521100  1
  O  O2  1  0.76106800  0.77773000  0.91552300  1
  O  O3  1  0.82462400  0.38527900  0.07777000  1
  O  O4  1  0.65103300  0.26275600  0.46852300  1
  O  O5  1  0.17236400  0.25425200  0.56078100  1
  O  O6  1  0.23693600  0.14467800  0.01077300  1
  O  O7  1  0.21068600  0.64157700  0.94196900  1
loop_
_geom_bond_atom_site_label_1
_geom_bond_atom_site_label_2
_geom_bond_distance
_geom_bond_site_symmetry_2
Gd0 O5 2.276754 1_565
Gd0 O1 2.332788 1_555
Gd0 O0 2.404794 1_455
Gd0 O3 2.422167 1_455
Gd0 O2 2.466342 1_454
Gd0 O7 2.521063 1_554
Gd0 O4 2.530229 1_565
Gd0 O6 2.736629 1_565
Gd1 O3 2.292231 1_556
Gd1 O4 2.371407 1_555
Gd1 O5 2.400437 1_655
Gd1 O7 2.417009 1_655
Gd1 O6 2.453742 1_656
Gd1 O1 2.497517 1_545
Gd1 O0 2.502527 1_545
Gd1 O2 2.727490 1_545
Mg0 O0 1.982609 1_555
Mg0 O7 1.985708 1_655
Mg0 O2 2.069387 1_555
Mg0 O6 2.118261 1_666
Mg0 O4 2.246112 1_555
Mg0 O1 2.490079 1_655
Cr0 O5 1.765078 1_555
Cr0 O2 1.771113 1_555
Cr0 O1 1.823008 1_555
Cr0 O7 1.855901 1_555
Cr1 O3 1.754324 1_555
Cr1 O6 1.763789 1_555
Cr1 O4 1.837600 1_555
Cr1 O0 1.858239 1_555
