# generated using pymatgen
data_U2Co3Si5
_symmetry_space_group_name_H-M   'P 1'
_cell_length_a   7.82942973
_cell_length_b   7.82942973
_cell_length_c   7.82942973
_cell_angle_alpha   138.28321208
_cell_angle_beta   104.37254099
_cell_angle_gamma   90.30545099
_symmetry_Int_Tables_number   1
_chemical_formula_structural   U2Co3Si5
_chemical_formula_sum   'U4 Co6 Si10'
_cell_volume   295.54662737
_cell_formula_units_Z   2
loop_
 _symmetry_equiv_pos_site_id
 _symmetry_equiv_pos_as_xyz
  1  'x, y, z'
loop_
 _atom_site_type_symbol
 _atom_site_label
 _atom_site_symmetry_multiplicity
 _atom_site_fract_x
 _atom_site_fract_y
 _atom_site_fract_z
 _atom_site_occupancy
  U  U0  1  0.86800600  0.63445400  0.23355200  1
  U  U1  1  0.13199400  0.36554600  0.76644800  1
  U  U2  1  0.59909800  0.86554600  0.73355200  1
  U  U3  1  0.40090200  0.13445400  0.26644800  1
  Co  Co0  1  0.00000000  0.25000000  0.25000000  1
  Co  Co1  1  0.75338200  0.13867200  0.61471100  1
  Co  Co2  1  0.52396100  0.63867200  0.88528900  1
  Co  Co3  1  0.47603900  0.36132800  0.11471100  1
  Co  Co4  1  0.00000000  0.75000000  0.75000000  1
  Co  Co5  1  0.24661800  0.86132800  0.38528900  1
  Si  Si0  1  0.05082500  0.89747400  0.15335100  1
  Si  Si1  1  0.94917500  0.10252600  0.84664900  1
  Si  Si2  1  0.25587700  0.60252600  0.65335100  1
  Si  Si3  1  0.74412300  0.39747400  0.34664900  1
  Si  Si4  1  0.22893600  0.97893600  0.75000000  1
  Si  Si5  1  0.77106400  0.52106400  0.75000000  1
  Si  Si6  1  0.77106400  0.02106400  0.25000000  1
  Si  Si7  1  0.50000000  0.25000000  0.75000000  1
  Si  Si8  1  0.50000000  0.75000000  0.25000000  1
  Si  Si9  1  0.22893600  0.47893600  0.25000000  1
loop_
_geom_bond_atom_site_label_1
_geom_bond_atom_site_label_2
_geom_bond_distance
_geom_bond_site_symmetry_2
Co0 Si1 2.322108 1_454
Co0 Si2 2.322108 1_555
Co0 Si0 2.322108 1_545
Co0 Si3 2.322108 1_455
Co0 Si9 2.528125 1_555
Co0 Si6 2.528125 1_455
Co1 Si1 2.262193 1_555
Co1 Si5 2.300675 1_555
Co1 Si6 2.300678 1_555
Co1 Si7 2.345348 1_555
Co1 Si8 2.345351 1_545
Co1 U1 2.898088 1_655
Co1 U0 3.012536 1_556
Co1 U0 3.012541 1_545
Co2 Si2 2.262189 1_555
Co2 Si6 2.300675 1_566
Co2 Si5 2.300675 1_555
Co2 Si8 2.345356 1_556
Co2 Si7 2.345356 1_555
Co2 U2 2.898081 1_555
Co2 U3 3.012537 1_566
Co2 U3 3.012537 1_555
Co3 Si3 2.262189 1_555
Co3 Si9 2.300675 1_555
Co3 Si4 2.300675 1_544
Co3 Si8 2.345356 1_555
Co3 Si7 2.345356 1_554
Co3 U3 2.898081 1_555
Co3 U2 3.012537 1_555
Co3 U2 3.012537 1_544
Co4 Si1 2.322108 1_465
Co4 Si2 2.322108 1_555
Co4 Si3 2.322108 1_455
Co4 Si0 2.322108 1_556
Co4 Si4 2.528125 1_555
Co4 Si5 2.528125 1_455
Co5 Si0 2.262193 1_555
Co5 Si9 2.300675 1_555
Co5 Si4 2.300678 1_555
Co5 Si8 2.345348 1_555
Co5 Si7 2.345351 1_565
Co5 U0 2.898088 1_455
Co5 U1 3.012536 1_554
Co5 U1 3.012541 1_565
Si0 Si6 2.461499 1_465
Si0 Si5 2.461499 1_454
Si0 U3 2.833259 1_565
Si0 U0 3.004834 1_455
Si0 U1 3.012429 1_565
Si0 U1 3.012429 1_554
Si1 Si4 2.461499 1_645
Si1 Si9 2.461499 1_656
Si1 U2 2.833259 1_545
Si1 U1 3.004834 1_655
Si1 U0 3.012429 1_545
Si1 U0 3.012429 1_556
Si2 Si4 2.461499 1_555
Si2 Si9 2.461499 1_555
Si2 U1 2.833259 1_555
Si2 U2 3.004834 1_555
Si2 U3 3.012429 1_566
Si2 U3 3.012429 1_555
Si3 Si6 2.461499 1_555
Si3 Si5 2.461499 1_555
Si3 U0 2.833259 1_555
Si3 U3 3.004834 1_555
Si3 U2 3.012429 1_555
Si3 U2 3.012429 1_544
Si4 Si9 2.787743 1_555
Si4 Si9 2.787743 1_566
Si4 U2 3.040739 1_555
Si4 U1 3.040739 1_565
Si4 U3 3.094327 1_566
Si4 U0 3.094327 1_455
Si5 Si6 2.787743 1_555
Si5 Si6 2.787743 1_566
Si5 U0 3.040739 1_556
Si5 U3 3.040739 1_555
Si5 U2 3.094327 1_555
Si5 U1 3.094327 1_655
Si6 U0 3.040739 1_545
Si6 U3 3.040739 1_555
Si6 U2 3.094327 1_544
Si6 U1 3.094327 1_655
Si7 U0 3.028998 1_556
Si7 U1 3.028998 1_555
Si7 U3 3.028998 1_555
Si7 U2 3.028998 1_545
Si8 U0 3.028998 1_555
Si8 U1 3.028998 1_554
Si8 U2 3.028998 1_555
Si8 U3 3.028998 1_565
Si9 U2 3.040739 1_555
Si9 U1 3.040739 1_554
Si9 U3 3.094327 1_555
Si9 U0 3.094327 1_455
