# generated using pymatgen
data_LiFe(GeO3)2
_symmetry_space_group_name_H-M   'P 1'
_cell_length_a   8.93717800
_cell_length_b   5.45541100
_cell_length_c   9.75078461
_cell_angle_alpha   76.94526811
_cell_angle_beta   90.00000000
_cell_angle_gamma   90.00000000
_symmetry_Int_Tables_number   1
_chemical_formula_structural   LiFe(GeO3)2
_chemical_formula_sum   'Li4 Fe4 Ge8 O24'
_cell_volume   463.12197853
_cell_formula_units_Z   4
loop_
 _symmetry_equiv_pos_site_id
 _symmetry_equiv_pos_as_xyz
  1  'x, y, z'
loop_
 _atom_site_type_symbol
 _atom_site_label
 _atom_site_symmetry_multiplicity
 _atom_site_fract_x
 _atom_site_fract_y
 _atom_site_fract_z
 _atom_site_occupancy
  Li  Li0  1  0.01121300  0.03664300  0.74212600  1
  Li  Li1  1  0.51121300  0.46335700  0.25787400  1
  Li  Li2  1  0.98878700  0.96335700  0.25787400  1
  Li  Li3  1  0.48878700  0.53664300  0.74212600  1
  Fe  Fe0  1  0.84920900  0.53650800  0.74927000  1
  Fe  Fe1  1  0.34920900  0.96349200  0.25073000  1
  Fe  Fe2  1  0.15079100  0.46349200  0.25073000  1
  Fe  Fe3  1  0.65079100  0.03650800  0.74927000  1
  Ge  Ge0  1  0.15803900  0.26621100  0.95442600  1
  Ge  Ge1  1  0.65803900  0.23378900  0.04557400  1
  Ge  Ge2  1  0.84196100  0.73378900  0.04557400  1
  Ge  Ge3  1  0.34196100  0.76621100  0.95442600  1
  Ge  Ge4  1  0.66020500  0.82160100  0.44820200  1
  Ge  Ge5  1  0.16020500  0.67839900  0.55179800  1
  Ge  Ge6  1  0.33979500  0.17839900  0.55179800  1
  Ge  Ge7  1  0.83979500  0.32160100  0.44820200  1
  O  O0  1  0.16818200  0.18357500  0.14154100  1
  O  O1  1  0.66818200  0.31642500  0.85845900  1
  O  O2  1  0.83181800  0.81642500  0.85845900  1
  O  O3  1  0.33181800  0.68357500  0.14154100  1
  O  O4  1  0.97986800  0.32791300  0.88516300  1
  O  O5  1  0.47986800  0.17208700  0.11483700  1
  O  O6  1  0.02013200  0.67208700  0.11483700  1
  O  O7  1  0.52013200  0.82791300  0.88516300  1
  O  O8  1  0.20937900  0.00433400  0.88274900  1
  O  O9  1  0.70937900  0.49566600  0.11725100  1
  O  O10  1  0.79062100  0.99566600  0.11725100  1
  O  O11  1  0.29062100  0.50433400  0.88274900  1
  O  O12  1  0.66825100  0.75673100  0.63613500  1
  O  O13  1  0.16825100  0.74326900  0.36386500  1
  O  O14  1  0.33174900  0.24326900  0.36386500  1
  O  O15  1  0.83174900  0.25673100  0.63613500  1
  O  O16  1  0.49663900  0.74642200  0.37067100  1
  O  O17  1  0.99663900  0.75357800  0.62932900  1
  O  O18  1  0.50336100  0.25357800  0.62932900  1
  O  O19  1  0.00336100  0.24642200  0.37067100  1
  O  O20  1  0.80922500  0.65298300  0.38752500  1
  O  O21  1  0.30922500  0.84701700  0.61247500  1
  O  O22  1  0.19077500  0.34701700  0.61247500  1
  O  O23  1  0.69077500  0.15298300  0.38752500  1
loop_
_geom_bond_atom_site_label_1
_geom_bond_atom_site_label_2
_geom_bond_distance
_geom_bond_site_symmetry_2
Li0 O17 2.092514 1_445
Li0 O15 2.126414 1_455
Li0 O2 2.164465 1_445
Li0 O8 2.222303 1_555
Li0 O4 2.355811 1_455
Li0 O22 2.464441 1_555
Li1 O16 2.092514 1_555
Li1 O14 2.126414 1_555
Li1 O3 2.164465 1_555
Li1 O9 2.222303 1_555
Li1 O5 2.355811 1_555
Li1 O23 2.464441 1_555
Li2 O19 2.092514 1_665
Li2 O13 2.126414 1_655
Li2 O0 2.164465 1_665
Li2 O10 2.222303 1_555
Li2 O6 2.355811 1_655
Li2 O20 2.464441 1_555
Li3 O18 2.092514 1_555
Li3 O12 2.126414 1_555
Li3 O1 2.164465 1_555
Li3 O11 2.222303 1_555
Li3 O7 2.355811 1_555
Li3 O21 2.464441 1_555
Fe0 O4 1.932134 1_555
Fe0 O17 1.969908 1_555
Fe0 O2 2.055263 1_555
Fe0 O15 2.081236 1_555
Fe0 O1 2.148279 1_555
Fe0 O12 2.162660 1_555
Fe1 O5 1.932134 1_565
Fe1 O16 1.969908 1_555
Fe1 O3 2.055263 1_555
Fe1 O14 2.081236 1_565
Fe1 O0 2.148279 1_565
Fe1 O13 2.162660 1_555
Fe2 O6 1.932134 1_555
Fe2 O19 1.969908 1_555
Fe2 O0 2.055263 1_555
Fe2 O13 2.081236 1_555
Fe2 O3 2.148279 1_555
Fe2 O14 2.162660 1_555
Fe3 O7 1.932134 1_545
Fe3 O18 1.969908 1_555
Fe3 O1 2.055263 1_555
Fe3 O12 2.081236 1_545
Fe3 O2 2.148279 1_545
Fe3 O15 2.162660 1_555
Ge0 O4 1.732712 1_455
Ge0 O0 1.780094 1_556
Ge0 O11 1.780412 1_555
Ge0 O8 1.786369 1_555
Ge1 O5 1.732712 1_555
Ge1 O1 1.780094 1_554
Ge1 O10 1.780412 1_545
Ge1 O9 1.786369 1_555
Ge2 O6 1.732712 1_655
Ge2 O2 1.780094 1_554
Ge2 O9 1.780412 1_555
Ge2 O10 1.786369 1_555
Ge3 O7 1.732712 1_555
Ge3 O3 1.780094 1_556
Ge3 O8 1.780412 1_565
Ge3 O11 1.786369 1_555
Ge4 O16 1.736868 1_555
Ge4 O12 1.787589 1_555
Ge4 O23 1.791569 1_565
Ge4 O20 1.793276 1_555
Ge5 O17 1.736868 1_455
Ge5 O13 1.787589 1_555
Ge5 O22 1.791569 1_555
Ge5 O21 1.793276 1_555
Ge6 O18 1.736868 1_555
Ge6 O14 1.787589 1_555
Ge6 O21 1.791569 1_545
Ge6 O22 1.793276 1_555
Ge7 O19 1.736868 1_655
Ge7 O15 1.787589 1_555
Ge7 O20 1.791569 1_555
Ge7 O23 1.793276 1_555
