# generated using pymatgen
data_Na6Nb2Al2Si5SO24
_symmetry_space_group_name_H-M   'P 1'
_cell_length_a   8.92894487
_cell_length_b   8.91650740
_cell_length_c   22.15177282
_cell_angle_alpha   90.34884831
_cell_angle_beta   89.51995938
_cell_angle_gamma   120.10430736
_symmetry_Int_Tables_number   1
_chemical_formula_structural   Na6Nb2Al2Si5SO24
_chemical_formula_sum   'Na18 Nb6 Al6 Si15 S3 O72'
_cell_volume   1525.66901857
_cell_formula_units_Z   3
loop_
 _symmetry_equiv_pos_site_id
 _symmetry_equiv_pos_as_xyz
  1  'x, y, z'
loop_
 _atom_site_type_symbol
 _atom_site_label
 _atom_site_symmetry_multiplicity
 _atom_site_fract_x
 _atom_site_fract_y
 _atom_site_fract_z
 _atom_site_occupancy
  Na  Na0  1  0.63771953  0.00917937  0.24752170  1
  Na  Na1  1  0.36635857  0.35869640  0.25072643  1
  Na  Na2  1  0.99473897  0.63031064  0.24765678  1
  Na  Na3  1  0.99630949  0.36178826  0.74989777  1
  Na  Na4  1  0.29948912  0.33942455  0.58037957  1
  Na  Na5  1  0.66405374  0.96467641  0.58058986  1
  Na  Na6  1  0.66504511  0.70116038  0.07719822  1
  Na  Na7  1  0.02481845  0.33472966  0.08096646  1
  Na  Na8  1  0.95930495  0.66423275  0.91425696  1
  Na  Na9  1  0.70848190  0.03529376  0.91885812  1
  Na  Na10  1  0.33090517  0.30310998  0.91492609  1
  Na  Na11  1  0.69884127  0.67068748  0.41676067  1
  Na  Na12  1  0.00731265  0.00814377  0.49461457  1
  Na  Na13  1  0.99518261  0.99628556  0.99703677  1
  Na  Na14  1  0.66448039  0.33841556  0.83310602  1
  Na  Na15  1  0.66107951  0.32135555  0.33156937  1
  Na  Na16  1  0.32976076  0.68287351  0.16127226  1
  Na  Na17  1  0.33067884  0.67509086  0.66211228  1
  Nb  Nb0  1  0.99723626  0.99277110  0.64591730  1
  Nb  Nb1  1  0.99425467  0.99261492  0.14668341  1
  Nb  Nb2  1  0.66458541  0.33414731  0.68812339  1
  Nb  Nb3  1  0.65582357  0.32045024  0.47899677  1
  Nb  Nb4  1  0.34329370  0.67066084  0.31324183  1
  Nb  Nb5  1  0.33535992  0.65405948  0.81003948  1
  Al  Al0  1  0.00293742  0.01897365  0.35142018  1
  Al  Al1  1  0.98564149  0.00061679  0.85024882  1
  Al  Al2  1  0.68076954  0.32811534  0.18774091  1
  Al  Al3  1  0.69548892  0.35060484  0.98203691  1
  Al  Al4  1  0.33450644  0.67452000  0.01879734  1
  Al  Al5  1  0.34255365  0.66223978  0.52191682  1
  Si  Si0  1  0.29063815  0.00813279  0.25258637  1
  Si  Si1  1  0.71667344  0.70493500  0.25338811  1
  Si  Si2  1  0.99508712  0.28743686  0.25094684  1
  Si  Si3  1  0.28410600  0.27302049  0.75371457  1
  Si  Si4  1  0.00057453  0.71742321  0.75537079  1
  Si  Si5  1  0.71034358  0.99912421  0.75265095  1
  Si  Si6  1  0.96678485  0.34580528  0.58196896  1
  Si  Si7  1  0.37012867  0.02851687  0.58308615  1
  Si  Si8  1  0.66582674  0.62426890  0.58082177  1
  Si  Si9  1  0.96102113  0.61840394  0.08270005  1
  Si  Si10  1  0.65322813  0.04497212  0.08163553  1
  Si  Si11  1  0.62651872  0.66436749  0.92162981  1
  Si  Si12  1  0.04351886  0.37303595  0.92069013  1
  Si  Si13  1  0.63247803  0.95598193  0.41943784  1
  Si  Si14  1  0.32043662  0.36648299  0.41965062  1
  S  S0  1  0.38297439  0.33301966  0.08232371  1
  S  S1  1  0.33428953  0.95654723  0.91908896  1
  S  S2  1  0.04930373  0.67070175  0.41879648  1
  O  O0  1  0.19209002  0.03676704  0.30822214  1
  O  O1  1  0.83833531  0.79642578  0.31063127  1
  O  O2  1  0.95721879  0.15843528  0.30612196  1
  O  O3  1  0.19241540  0.16426043  0.81366120  1
  O  O4  1  0.97429518  0.80771066  0.81435439  1
  O  O5  1  0.83124733  0.03780783  0.81105708  1
  O  O6  1  0.79554065  0.96861090  0.69104349  1
  O  O7  1  0.16655460  0.20030924  0.69238740  1
  O  O8  1  0.02918748  0.83431407  0.69418656  1
  O  O9  1  0.79576650  0.83286685  0.19245405  1
  O  O10  1  0.04071354  0.20889020  0.18927075  1
  O  O11  1  0.16200347  0.96643156  0.19246335  1
  O  O12  1  0.87105026  0.36526485  0.64307334  1
  O  O13  1  0.50141755  0.13005501  0.63981813  1
  O  O14  1  0.63404717  0.49635268  0.63867664  1
  O  O15  1  0.86791510  0.50118193  0.14272817  1
  O  O16  1  0.63766957  0.13491599  0.14371800  1
  O  O17  1  0.48519701  0.35792604  0.13756902  1
  O  O18  1  0.46286021  0.30817653  0.02739136  1
  O  O19  1  0.83501829  0.54225816  0.02388426  1
  O  O20  1  0.69409737  0.17061656  0.02271649  1
  O  O21  1  0.46307800  0.16612212  0.52573019  1
  O  O22  1  0.69967805  0.53632704  0.52123140  1
  O  O23  1  0.82754053  0.30097195  0.52661046  1
  O  O24  1  0.53070936  0.70059235  0.97797491  1
  O  O25  1  0.17308005  0.47215891  0.97692338  1
  O  O26  1  0.30421640  0.84343446  0.97203631  1
  O  O27  1  0.53181658  0.83144136  0.47612134  1
  O  O28  1  0.30661744  0.46891799  0.47758664  1
  O  O29  1  0.15475688  0.68952104  0.47054047  1
  O  O30  1  0.12549597  0.64284819  0.36111323  1
  O  O31  1  0.50576853  0.86757068  0.35830631  1
  O  O32  1  0.35961018  0.49815799  0.35920122  1
  O  O33  1  0.13139544  0.49975773  0.86013754  1
  O  O34  1  0.36635540  0.87965267  0.86401496  1
  O  O35  1  0.49712822  0.63374049  0.86228443  1
  O  O36  1  0.02563618  0.82231700  0.41264678  1
  O  O37  1  0.81618532  0.96390339  0.40896943  1
  O  O38  1  0.15618840  0.17717392  0.40935728  1
  O  O39  1  0.02626912  0.18126416  0.91208257  1
  O  O40  1  0.17776674  0.97336836  0.91436985  1
  O  O41  1  0.81852045  0.83711648  0.91167664  1
  O  O42  1  0.97689896  0.16610772  0.58821205  1
  O  O43  1  0.18925230  0.03006651  0.58843864  1
  O  O44  1  0.83564155  0.81740715  0.58700926  1
  O  O45  1  0.97667034  0.81415102  0.08881939  1
  O  O46  1  0.83698117  0.02775112  0.08776745  1
  O  O47  1  0.20295610  0.17790726  0.08587797  1
  O  O48  1  0.69645438  0.17401003  0.74486822  1
  O  O49  1  0.47898287  0.30625473  0.74598302  1
  O  O50  1  0.83358251  0.52113976  0.74585572  1
  O  O51  1  0.68473629  0.51234860  0.24011784  1
  O  O52  1  0.82791462  0.31218372  0.24364166  1
  O  O53  1  0.48240123  0.17500264  0.24147091  1
  O  O54  1  0.63581866  0.48384682  0.92616556  1
  O  O55  1  0.84970608  0.35421507  0.92365243  1
  O  O56  1  0.48932896  0.13255348  0.92487197  1
  O  O57  1  0.64876739  0.14893717  0.42119442  1
  O  O58  1  0.50928405  0.36689983  0.42074042  1
  O  O59  1  0.87107422  0.51138771  0.42052669  1
  O  O60  1  0.36170389  0.48912484  0.07853217  1
  O  O61  1  0.15130088  0.63569028  0.07403850  1
  O  O62  1  0.49403066  0.84401522  0.07500853  1
  O  O63  1  0.36088797  0.84691792  0.57312106  1
  O  O64  1  0.49493071  0.64260562  0.57764233  1
  O  O65  1  0.15723378  0.51020879  0.57465604  1
  O  O66  1  0.30621244  0.83020116  0.25650177  1
  O  O67  1  0.52313299  0.69141997  0.25556524  1
  O  O68  1  0.16896314  0.48229043  0.25686168  1
  O  O69  1  0.30101326  0.46910953  0.75657986  1
  O  O70  1  0.16902744  0.68819481  0.75847205  1
  O  O71  1  0.51701287  0.83000984  0.75836204  1
loop_
_geom_bond_atom_site_label_1
_geom_bond_atom_site_label_2
_geom_bond_distance
_geom_bond_site_symmetry_2
Na0 O52 2.364007 1_555
Na0 O53 2.487954 1_555
Na0 O67 2.490234 1_545
Na0 O16 2.564421 1_555
Na0 O66 2.569697 1_545
Na0 O31 2.738952 1_545
Na0 O2 2.797688 1_555
Na0 O9 2.850313 1_545
Na1 O53 2.343748 1_555
Na1 O51 2.469686 1_555
Na1 O68 2.506412 1_555
Na1 O67 2.570048 1_555
Na1 O32 2.712982 1_555
Na1 O17 2.715096 1_555
Na1 O0 2.795305 1_555
Na1 O10 2.870551 1_555
Na2 O51 2.425082 1_555
Na2 O66 2.445840 1_655
Na2 O52 2.456312 1_555
Na2 O68 2.504346 1_655
Na2 O15 2.591180 1_555
Na2 O30 2.758062 1_655
Na2 O1 2.847338 1_555
Na2 O11 2.869040 1_655
Na3 O48 2.343069 1_555
Na3 O69 2.394380 1_655
Na3 O50 2.492534 1_555
Na3 O70 2.525970 1_655
Na3 O12 2.632772 1_555
Na3 O33 2.730552 1_655
Na3 O5 2.845322 1_555
Na3 O7 2.854403 1_655
Na4 O64 2.371657 1_555
Na4 O43 2.426697 1_555
Na4 O65 2.427708 1_555
Na4 O42 2.498903 1_455
Na4 O28 2.545196 1_555
Na4 O7 2.759511 1_555
Na4 O21 2.863338 1_555
Na4 O14 2.898067 1_555
Na5 O63 2.368880 1_555
Na5 O42 2.455326 1_565
Na5 O44 2.473046 1_555
Na5 O64 2.486095 1_555
Na5 O27 2.601153 1_555
Na5 O6 2.715129 1_555
Na5 O13 2.845566 1_565
Na5 O23 2.859299 1_565
Na6 O60 2.402874 1_555
Na6 O62 2.430974 1_555
Na6 O45 2.453613 1_555
Na6 O24 2.511533 1_554
Na6 O46 2.530758 1_565
Na6 O19 2.795046 1_555
Na6 O9 2.810392 1_555
Na6 O17 2.969391 1_555
Na7 O61 2.337130 1_555
Na7 O46 2.392353 1_455
Na7 O47 2.594790 1_555
Na7 O60 2.605849 1_555
Na7 O25 2.630942 1_554
Na7 O10 2.689462 1_555
Na7 O15 2.840125 1_455
Na7 O20 2.869234 1_455
Na8 O41 2.430206 1_555
Na8 O55 2.435598 1_555
Na8 O40 2.451342 1_655
Na8 O54 2.516231 1_555
Na8 O4 2.531753 1_555
Na8 O19 2.662321 1_556
Na8 O33 2.856109 1_655
Na8 O26 2.963204 1_655
Na9 O41 2.418416 1_545
Na9 O39 2.461390 1_655
Na9 O55 2.467638 1_555
Na9 O56 2.509072 1_555
Na9 O5 2.614707 1_555
Na9 O20 2.623372 1_556
Na9 O24 2.898554 1_545
Na9 O34 2.919366 1_545
Na10 O39 2.370795 1_555
Na10 O54 2.382540 1_555
Na10 O40 2.545821 1_545
Na10 O56 2.555297 1_555
Na10 O3 2.563339 1_555
Na10 O18 2.755225 1_556
Na10 O35 2.806655 1_555
Na10 O25 2.866566 1_555
Na11 O37 2.284185 1_555
Na11 O58 2.368753 1_555
Na11 O36 2.527867 1_655
Na11 O59 2.565998 1_555
Na11 O22 2.614178 1_555
Na11 O1 2.630117 1_555
Na11 O27 2.845404 1_555
Na11 O32 2.921211 1_555
Na12 O38 2.363936 1_555
Na12 O37 2.457059 1_445
Na12 O36 2.509857 1_545
Na12 O42 2.587482 1_455
Na12 O43 2.594224 1_555
Na12 O44 2.608773 1_445
Na13 O41 2.418552 1_555
Na13 O39 2.430787 1_665
Na13 O40 2.516455 1_655
Na13 O46 2.541000 1_566
Na13 O45 2.561970 1_556
Na13 O47 2.635496 1_666
Na14 O49 2.473973 1_555
Na14 O50 2.488269 1_555
Na14 O54 2.507599 1_555
Na14 O48 2.535070 1_555
Na14 O55 2.568392 1_555
Na14 O56 2.657025 1_555
Na15 O52 2.468031 1_555
Na15 O53 2.482894 1_555
Na15 O57 2.486200 1_555
Na15 O58 2.530072 1_555
Na15 O51 2.592817 1_555
Na15 O59 2.665347 1_555
Na16 O62 2.395769 1_555
Na16 O61 2.412345 1_555
Na16 O66 2.540824 1_555
Na16 O60 2.621467 1_555
Na16 O68 2.676389 1_555
Na16 O67 2.697480 1_555
Na17 O63 2.432994 1_555
Na17 O65 2.458573 1_555
Na17 O64 2.471761 1_555
Na17 O70 2.601492 1_555
Na17 O71 2.634423 1_555
Na17 O69 2.715134 1_555
Nb0 O8 1.910179 1_655
Nb0 O6 1.967809 1_555
Nb0 O7 1.991506 1_665
Nb0 O44 1.993266 1_555
Nb0 O43 2.016905 1_665
Nb0 O42 2.089305 1_565
Nb1 O9 1.911279 1_555
Nb1 O11 1.924969 1_655
Nb1 O45 1.981842 1_555
Nb1 O10 1.990674 1_665
Nb1 O46 2.061666 1_565
Nb1 O47 2.216537 1_665
Nb2 O14 1.945717 1_555
Nb2 O13 1.980408 1_555
Nb2 O12 1.982634 1_555
Nb2 O49 2.001462 1_555
Nb2 O48 2.033533 1_555
Nb2 O50 2.043273 1_555
Nb3 O21 1.881209 1_555
Nb3 O23 1.946775 1_555
Nb3 O57 1.965467 1_555
Nb3 O22 1.990438 1_555
Nb3 O58 2.031582 1_555
Nb3 O59 2.229957 1_555
Nb4 O31 1.905667 1_555
Nb4 O32 1.915695 1_555
Nb4 O67 1.978756 1_555
Nb4 O68 2.046505 1_555
Nb4 O66 2.052866 1_555
Nb4 O30 2.110155 1_555
Nb5 O69 1.921188 1_555
Nb5 O35 1.936915 1_555
Nb5 O71 1.959758 1_555
Nb5 O33 1.977976 1_555
Nb5 O70 2.022221 1_555
Nb5 O34 2.229379 1_555
Al0 O2 1.803088 1_455
Al0 O0 1.870646 1_555
Al0 O38 1.892204 1_555
Al0 O37 1.948705 1_445
Al0 O1 1.997225 1_445
Al0 O36 2.312006 1_545
Al1 O5 1.801753 1_555
Al1 O4 1.846874 1_545
Al1 O3 1.865890 1_655
Al1 O39 1.999386 1_655
Al1 O41 2.002869 1_545
Al1 O40 2.341484 1_645
Al2 O16 1.840504 1_555
Al2 O52 1.869867 1_555
Al2 O15 1.889946 1_555
Al2 O51 1.991243 1_555
Al2 O53 1.994092 1_555
Al2 O17 2.203864 1_555
Al3 O19 1.787755 1_556
Al3 O20 1.839891 1_556
Al3 O55 1.869768 1_555
Al3 O54 1.972574 1_555
Al3 O18 2.156003 1_556
Al3 O56 2.278377 1_555
Al4 O24 1.873058 1_554
Al4 O25 1.893867 1_554
Al4 O61 1.922681 1_555
Al4 O62 1.926323 1_555
Al4 O26 1.961339 1_554
Al4 O60 2.230988 1_555
Al5 O28 1.862369 1_555
Al5 O27 1.895624 1_555
Al5 O64 1.917106 1_555
Al5 O65 1.917615 1_555
Al5 O63 1.932581 1_555
Al5 O29 2.147247 1_555
O0 Si0 1.600537 1_555
O1 Si1 1.604677 1_555
O2 Si2 1.597269 1_555
O3 Si3 1.604714 1_555
O4 Si4 1.606828 1_655
O5 Si5 1.613301 1_545
O6 Si5 1.643432 1_555
O7 Si3 1.642583 1_555
O8 Si4 1.653118 1_555
O9 Si1 1.678260 1_555
O10 Si2 1.669827 1_455
O11 Si0 1.680010 1_565
O12 Si6 1.649089 1_555
O13 Si7 1.649057 1_555
O14 Si8 1.646487 1_555
O15 Si9 1.636615 1_555
O16 Si10 1.627541 1_555
O17 S0 1.480582 1_555
O18 S0 1.476231 1_555
O19 Si9 1.634551 1_555
O20 Si10 1.640554 1_555
O21 Si7 1.669818 1_555
O22 Si8 1.633150 1_555
O23 Si6 1.652389 1_555
O24 Si11 1.627397 1_555
O25 Si12 1.629783 1_555
O26 S1 1.484053 1_555
O27 Si13 1.616925 1_555
O28 Si14 1.610175 1_555
O29 S2 1.444233 1_555
O30 S2 1.519313 1_555
O31 Si13 1.689149 1_555
O32 Si14 1.700950 1_555
O33 Si12 1.674226 1_555
O34 S1 1.490409 1_555
O35 Si11 1.685856 1_555
O36 S2 1.476518 1_555
O37 Si13 1.620799 1_555
O38 Si14 1.603014 1_555
O39 Si12 1.648114 1_555
O40 S1 1.483098 1_555
O41 Si11 1.645924 1_555
O42 Si6 1.656088 1_555
O43 Si7 1.625345 1_555
O44 Si8 1.632401 1_555
O45 Si9 1.684350 1_555
O46 Si10 1.729367 1_555
O47 S0 1.507252 1_555
O48 Si5 1.635349 1_545
O49 Si3 1.619651 1_555
O50 Si4 1.647335 1_655
O51 Si1 1.618805 1_555
O52 Si2 1.624142 1_555
O53 Si0 1.627257 1_555
O54 Si11 1.656514 1_555
O55 Si12 1.653527 1_655
O56 S1 1.488908 1_545
O57 Si13 1.652572 1_545
O58 Si14 1.684722 1_555
O59 S2 1.511228 1_655
O60 S0 1.499142 1_555
O61 Si9 1.636876 1_455
O62 Si10 1.642565 1_565
O63 Si7 1.593539 1_565
O64 Si8 1.616274 1_555
O65 Si6 1.601401 1_455
O66 Si0 1.663470 1_565
O67 Si1 1.671223 1_555
O68 Si2 1.655557 1_455
O69 Si3 1.678646 1_555
O70 Si4 1.652318 1_555
O71 Si5 1.630075 1_555
