# generated using pymatgen
data_Tb(GeRu)2
_symmetry_space_group_name_H-M   'P 1'
_cell_length_a   4.23796335
_cell_length_b   4.23796289
_cell_length_c   5.75957947
_cell_angle_alpha   111.58649315
_cell_angle_beta   111.58650269
_cell_angle_gamma   89.99999953
_symmetry_Int_Tables_number   1
_chemical_formula_structural   Tb(GeRu)2
_chemical_formula_sum   'Tb1 Ge2 Ru2'
_cell_volume   88.33963533
_cell_formula_units_Z   1
loop_
 _symmetry_equiv_pos_site_id
 _symmetry_equiv_pos_as_xyz
  1  'x, y, z'
loop_
 _atom_site_type_symbol
 _atom_site_label
 _atom_site_symmetry_multiplicity
 _atom_site_fract_x
 _atom_site_fract_y
 _atom_site_fract_z
 _atom_site_occupancy
  Tb  Tb0  1  0.00000000  0.00000000  0.00000000  1
  Ge  Ge0  1  0.36911036  0.36911036  0.73822273  1
  Ge  Ge1  1  0.63088964  0.63088964  0.26177727  1
  Ru  Ru0  1  0.25000000  0.75000000  0.50000000  1
  Ru  Ru1  1  0.75000000  0.25000000  0.50000000  1
loop_
_geom_bond_atom_site_label_1
_geom_bond_atom_site_label_2
_geom_bond_distance
_geom_bond_site_symmetry_2
Ge0 Ru0 2.421363 1_545
Ge0 Ru1 2.421363 1_455
Ge0 Ru0 2.421370 1_555
Ge0 Ru1 2.421370 1_555
Ge0 Ge1 2.575154 1_556
Ge0 Tb0 3.261592 1_556
Ge0 Tb0 3.261598 1_656
Ge0 Tb0 3.261598 1_566
Ge0 Tb0 3.261604 1_666
Ge1 Ru1 2.421363 1_565
Ge1 Ru0 2.421363 1_655
Ge1 Ru1 2.421370 1_555
Ge1 Ru0 2.421370 1_555
Ge1 Tb0 3.261592 1_665
Ge1 Tb0 3.261598 1_565
Ge1 Tb0 3.261598 1_655
Ge1 Tb0 3.261604 1_555
Ru0 Tb0 3.246264 1_565
Ru0 Tb0 3.246264 1_566
Ru0 Tb0 3.246265 1_666
Ru0 Tb0 3.246265 1_555
Ru1 Tb0 3.246264 1_656
Ru1 Tb0 3.246264 1_655
Ru1 Tb0 3.246265 1_555
Ru1 Tb0 3.246265 1_666
