# generated using pymatgen
data_YMgMo3O8
_symmetry_space_group_name_H-M   'P 1'
_cell_length_a   6.64570528
_cell_length_b   6.55059037
_cell_length_c   5.46563839
_cell_angle_alpha   114.47298246
_cell_angle_beta   64.72567087
_cell_angle_gamma   122.77266935
_symmetry_Int_Tables_number   1
_chemical_formula_structural   YMgMo3O8
_chemical_formula_sum   'Y1 Mg1 Mo3 O8'
_cell_volume   175.58517584
_cell_formula_units_Z   1
loop_
 _symmetry_equiv_pos_site_id
 _symmetry_equiv_pos_as_xyz
  1  'x, y, z'
loop_
 _atom_site_type_symbol
 _atom_site_label
 _atom_site_symmetry_multiplicity
 _atom_site_fract_x
 _atom_site_fract_y
 _atom_site_fract_z
 _atom_site_occupancy
  Y  Y0  1  0.28355306  0.70734921  0.54837083  1
  Mg  Mg0  1  0.55215612  0.44826218  0.80282648  1
  Mo  Mo0  1  0.84120309  0.66424986  0.26799121  1
  Mo  Mo1  1  0.84693858  0.15400316  0.24580001  1
  Mo  Mo2  1  0.33604020  0.15921367  0.27405895  1
  O  O0  1  0.48346274  0.09117379  0.50731186  1
  O  O1  1  0.72718374  0.29684504  0.05493874  1
  O  O2  1  0.69821777  0.77706967  0.08781532  1
  O  O3  1  0.18689634  0.79085335  0.00787250  1
  O  O4  1  0.90544760  0.51884882  0.50482488  1
  O  O5  1  0.94210700  0.03101146  0.47362628  1
  O  O6  1  0.22328301  0.31164718  0.09917752  1
  O  O7  1  0.48600775  0.53072059  0.53949542  1
loop_
_geom_bond_atom_site_label_1
_geom_bond_atom_site_label_2
_geom_bond_distance
_geom_bond_site_symmetry_2
Mg0 O7 1.999495 1_555
Mg0 O2 2.062916 1_556
Mg0 O6 2.064419 1_556
Mg0 O4 2.135979 1_555
Mg0 O0 2.152220 1_555
Mo0 O3 2.027847 1_655
Mo0 O5 2.036443 1_565
Mo0 O1 2.044404 1_555
Mo0 O7 2.094811 1_555
Mo0 O2 2.140383 1_555
Mo0 O4 2.167658 1_555
Mo1 O2 2.034544 1_545
Mo1 O6 2.035190 1_655
Mo1 O0 2.123712 1_555
Mo1 O4 2.127913 1_555
Mo1 O5 2.157550 1_555
Mo1 O1 2.218332 1_555
Mo2 O3 2.157551 1_545
Mo2 O6 2.164411 1_555
Mo2 O5 2.165438 1_455
Mo2 O1 2.168697 1_555
Mo2 O7 2.168891 1_555
Mo2 O0 2.189497 1_555
O0 Y0 2.175683 1_545
O2 Y0 2.793868 1_555
O3 Y0 2.209961 1_554
O4 Y0 2.191691 1_655
O6 Y0 2.711091 1_555
O7 Y0 2.175866 1_555
