# generated using pymatgen
data_Ba2(Ni3B2)3
_symmetry_space_group_name_H-M   'P 1'
_cell_length_a   7.54455162
_cell_length_b   7.54455162
_cell_length_c   7.54455126
_cell_angle_alpha   83.41998816
_cell_angle_beta   83.41998816
_cell_angle_gamma   83.41998320
_symmetry_Int_Tables_number   1
_chemical_formula_structural   Ba2(Ni3B2)3
_chemical_formula_sum   'Ba4 Ni18 B12'
_cell_volume   421.55317235
_cell_formula_units_Z   2
loop_
 _symmetry_equiv_pos_site_id
 _symmetry_equiv_pos_as_xyz
  1  'x, y, z'
loop_
 _atom_site_type_symbol
 _atom_site_label
 _atom_site_symmetry_multiplicity
 _atom_site_fract_x
 _atom_site_fract_y
 _atom_site_fract_z
 _atom_site_occupancy
  Ba  Ba0  1  0.62287100  0.62287100  0.62287100  1
  Ba  Ba1  1  0.87712900  0.87712900  0.87712900  1
  Ba  Ba2  1  0.37712900  0.37712900  0.37712900  1
  Ba  Ba3  1  0.12287100  0.12287100  0.12287100  1
  Ni  Ni0  1  0.42387700  0.93269000  0.39149000  1
  Ni  Ni1  1  0.07612300  0.10851000  0.56731000  1
  Ni  Ni2  1  0.93269000  0.39149000  0.42387700  1
  Ni  Ni3  1  0.56731000  0.07612300  0.10851000  1
  Ni  Ni4  1  0.60851000  0.57612300  0.06731000  1
  Ni  Ni5  1  0.57612300  0.06731000  0.60851000  1
  Ni  Ni6  1  0.06731000  0.60851000  0.57612300  1
  Ni  Ni7  1  0.92387700  0.89149000  0.43269000  1
  Ni  Ni8  1  0.89149000  0.43269000  0.92387700  1
  Ni  Ni9  1  0.43269000  0.92387700  0.89149000  1
  Ni  Ni10  1  0.75000000  0.28450100  0.21549900  1
  Ni  Ni11  1  0.21549900  0.75000000  0.28450100  1
  Ni  Ni12  1  0.28450100  0.21549900  0.75000000  1
  Ni  Ni13  1  0.25000000  0.71549900  0.78450100  1
  Ni  Ni14  1  0.78450100  0.25000000  0.71549900  1
  Ni  Ni15  1  0.71549900  0.78450100  0.25000000  1
  Ni  Ni16  1  0.10851000  0.56731000  0.07612300  1
  Ni  Ni17  1  0.39149000  0.42387700  0.93269000  1
  B  B0  1  0.53451300  0.18777100  0.84746600  1
  B  B1  1  0.84746600  0.53451300  0.18777100  1
  B  B2  1  0.18777100  0.84746600  0.53451300  1
  B  B3  1  0.96548700  0.65253400  0.31222900  1
  B  B4  1  0.46548700  0.81222900  0.15253400  1
  B  B5  1  0.15253400  0.46548700  0.81222900  1
  B  B6  1  0.81222900  0.15253400  0.46548700  1
  B  B7  1  0.03451300  0.34746600  0.68777100  1
  B  B8  1  0.68777100  0.03451300  0.34746600  1
  B  B9  1  0.34746600  0.68777100  0.03451300  1
  B  B10  1  0.31222900  0.96548700  0.65253400  1
  B  B11  1  0.65253400  0.31222900  0.96548700  1
loop_
_geom_bond_atom_site_label_1
_geom_bond_atom_site_label_2
_geom_bond_distance
_geom_bond_site_symmetry_2
Ba0 Ni14 2.974511 1_555
Ba0 Ni15 2.974511 1_555
Ba0 Ni13 2.974511 1_555
Ba0 Ni2 3.102611 1_555
Ba0 Ni0 3.102611 1_555
Ba0 Ni17 3.102611 1_555
Ba1 Ni13 2.974511 1_655
Ba1 Ni15 2.974511 1_556
Ba1 Ni14 2.974511 1_565
Ba1 Ni16 3.102611 1_656
Ba1 Ni3 3.102611 1_566
Ba1 Ni1 3.102611 1_665
Ba2 Ni11 2.974511 1_555
Ba2 Ni12 2.974511 1_555
Ba2 Ni10 2.974511 1_555
Ba2 Ni6 3.102611 1_555
Ba2 Ni5 3.102611 1_555
Ba2 Ni4 3.102611 1_555
Ba3 Ni10 2.974511 1_455
Ba3 Ni12 2.974511 1_554
Ba3 Ni11 2.974511 1_545
Ba3 Ni8 3.102611 1_454
Ba3 Ni9 3.102611 1_544
Ba3 Ni7 3.102611 1_445
B0 B11 1.741349 1_555
B0 Ni3 2.081644 1_556
B0 Ni12 2.081954 1_555
B0 Ni5 2.086879 1_555
B0 Ni17 2.100906 1_555
B0 Ni14 2.105784 1_555
B0 Ni9 2.192006 1_545
B1 B3 1.741349 1_555
B1 Ni16 2.081645 1_655
B1 Ni10 2.081954 1_555
B1 Ni4 2.086879 1_555
B1 Ni2 2.100906 1_555
B1 Ni15 2.105784 1_555
B1 Ni8 2.192006 1_554
B2 Ni1 2.081644 1_565
B2 Ni11 2.081954 1_555
B2 Ni6 2.086879 1_555
B2 Ni0 2.100906 1_555
B2 Ni13 2.105784 1_555
B2 Ni7 2.192006 1_455
B3 Ni2 2.081645 1_555
B3 Ni11 2.081954 1_655
B3 Ni7 2.086879 1_555
B3 Ni16 2.100906 1_655
B3 Ni15 2.105784 1_555
B3 Ni6 2.192006 1_655
B4 B9 1.741349 1_555
B4 Ni9 2.081644 1_554
B4 Ni15 2.081954 1_555
B4 Ni0 2.086879 1_555
B4 Ni4 2.100906 1_555
B4 Ni11 2.105784 1_555
B4 Ni3 2.192006 1_565
B5 B7 1.741349 1_555
B5 Ni8 2.081645 1_455
B5 Ni13 2.081954 1_555
B5 Ni17 2.086879 1_555
B5 Ni6 2.100906 1_555
B5 Ni12 2.105784 1_555
B5 Ni16 2.192006 1_556
B6 B8 1.741349 1_555
B6 Ni7 2.081644 1_545
B6 Ni14 2.081954 1_555
B6 Ni2 2.086879 1_555
B6 Ni5 2.100906 1_555
B6 Ni10 2.105784 1_555
B6 Ni1 2.192006 1_655
B7 Ni6 2.081645 1_555
B7 Ni14 2.081954 1_455
B7 Ni1 2.086879 1_555
B7 Ni8 2.100906 1_455
B7 Ni12 2.105784 1_555
B7 Ni2 2.192006 1_455
B8 Ni5 2.081644 1_555
B8 Ni15 2.081954 1_545
B8 Ni3 2.086879 1_555
B8 Ni7 2.100906 1_545
B8 Ni10 2.105784 1_555
B8 Ni0 2.192006 1_545
B9 Ni4 2.081644 1_555
B9 Ni13 2.081954 1_554
B9 Ni16 2.086879 1_555
B9 Ni9 2.100906 1_554
B9 Ni11 2.105784 1_555
B9 Ni17 2.192006 1_554
B10 B2 1.741349 1_555
B10 Ni0 2.081644 1_555
B10 Ni12 2.081954 1_565
B10 Ni9 2.086879 1_555
B10 Ni1 2.100906 1_565
B10 Ni13 2.105784 1_555
B10 Ni5 2.192006 1_565
B11 Ni17 2.081644 1_555
B11 Ni10 2.081954 1_556
B11 Ni8 2.086879 1_555
B11 Ni3 2.100906 1_556
B11 Ni14 2.105784 1_555
B11 Ni4 2.192006 1_556
