# generated using pymatgen
data_Ba2DyMgSbO6
_symmetry_space_group_name_H-M   'P 1'
_cell_length_a   6.62573279
_cell_length_b   6.62573272
_cell_length_c   6.27710200
_cell_angle_alpha   61.72583443
_cell_angle_beta   61.72583477
_cell_angle_gamma   55.33681702
_symmetry_Int_Tables_number   1
_chemical_formula_structural   Ba2DyMgSbO6
_chemical_formula_sum   'Ba2 Dy1 Mg1 Sb1 O6'
_cell_volume   191.51245076
_cell_formula_units_Z   1
loop_
 _symmetry_equiv_pos_site_id
 _symmetry_equiv_pos_as_xyz
  1  'x, y, z'
loop_
 _atom_site_type_symbol
 _atom_site_label
 _atom_site_symmetry_multiplicity
 _atom_site_fract_x
 _atom_site_fract_y
 _atom_site_fract_z
 _atom_site_occupancy
  Ba  Ba0  1  0.80706300  0.80706300  0.69293700  1
  Ba  Ba1  1  0.19293700  0.19293700  0.30706300  1
  Dy  Dy0  1  0.00000000  0.00000000  0.00000000  1
  Mg  Mg0  1  0.50000000  0.50000000  0.00000000  1
  Sb  Sb0  1  0.50000000  0.50000000  0.50000000  1
  O  O0  1  0.26657200  0.73342800  0.76782600  1
  O  O1  1  0.26657200  0.73342800  0.23217400  1
  O  O2  1  0.73342800  0.26657200  0.76782600  1
  O  O3  1  0.24203900  0.24203900  0.75796100  1
  O  O4  1  0.73342800  0.26657200  0.23217400  1
  O  O5  1  0.75796100  0.75796100  0.24203900  1
loop_
_geom_bond_atom_site_label_1
_geom_bond_atom_site_label_2
_geom_bond_distance
_geom_bond_site_symmetry_2
Ba0 O4 3.029435 1_565
Ba0 O2 3.029435 1_565
Ba0 O1 3.029435 1_655
Ba0 O0 3.029435 1_655
Ba0 Mg0 3.044966 1_556
Ba0 O3 3.143527 1_655
Ba0 O3 3.143527 1_565
Ba0 O5 3.176097 1_556
Ba0 O5 3.176097 1_555
Ba1 O0 3.029435 1_545
Ba1 O1 3.029435 1_545
Ba1 O2 3.029435 1_455
Ba1 O4 3.029435 1_455
Ba1 Mg0 3.044966 1_555
Ba1 O5 3.143527 1_455
Ba1 O5 3.143527 1_545
Ba1 O3 3.176097 1_555
Ba1 O3 3.176097 1_554
Dy0 O1 2.194218 1_545
Dy0 O4 2.194218 1_455
Dy0 O2 2.194218 1_454
Dy0 O0 2.194218 1_544
Dy0 O3 2.400160 1_554
Dy0 O5 2.400160 1_445
Mg0 O1 2.046243 1_555
Mg0 O4 2.046243 1_555
Mg0 O0 2.046243 1_554
Mg0 O2 2.046243 1_554
O0 Sb0 2.211219 1_555
O1 Sb0 2.211219 1_555
O2 Sb0 2.211219 1_555
O3 Sb0 2.558050 1_555
O4 Sb0 2.211219 1_555
O5 Sb0 2.558050 1_555
