# generated using pymatgen
data_Dy(GePt)2
_symmetry_space_group_name_H-M   'P 1'
_cell_length_a   4.38571000
_cell_length_b   4.38571000
_cell_length_c   5.82452776
_cell_angle_alpha   112.11620608
_cell_angle_beta   112.11620608
_cell_angle_gamma   90.00000000
_symmetry_Int_Tables_number   1
_chemical_formula_structural   Dy(GePt)2
_chemical_formula_sum   'Dy1 Ge2 Pt2'
_cell_volume   94.83169664
_cell_formula_units_Z   1
loop_
 _symmetry_equiv_pos_site_id
 _symmetry_equiv_pos_as_xyz
  1  'x, y, z'
loop_
 _atom_site_type_symbol
 _atom_site_label
 _atom_site_symmetry_multiplicity
 _atom_site_fract_x
 _atom_site_fract_y
 _atom_site_fract_z
 _atom_site_occupancy
  Dy  Dy0  1  0.00000000  0.00000000  0.00000000  1
  Ge  Ge0  1  0.62441400  0.62441400  0.24882800  1
  Ge  Ge1  1  0.37558600  0.37558600  0.75117200  1
  Pt  Pt0  1  0.25000000  0.75000000  0.50000000  1
  Pt  Pt1  1  0.75000000  0.25000000  0.50000000  1
loop_
_geom_bond_atom_site_label_1
_geom_bond_atom_site_label_2
_geom_bond_distance
_geom_bond_site_symmetry_2
Dy0 Pt1 3.299331 1_455
Dy0 Pt1 3.299331 1_454
Dy0 Pt0 3.299331 1_544
Dy0 Pt0 3.299331 1_545
Dy0 Pt0 3.299331 1_444
Dy0 Pt1 3.299331 1_444
Dy0 Pt0 3.299331 1_555
Dy0 Pt1 3.299331 1_555
Dy0 Ge0 3.335005 1_445
Dy0 Ge0 3.335005 1_545
Dy0 Ge0 3.335005 1_455
Dy0 Ge1 3.335005 1_544
Dy0 Ge1 3.335005 1_444
Dy0 Ge1 3.335005 1_554
Dy0 Ge0 3.335005 1_555
Dy0 Ge1 3.335005 1_454
Ge0 Ge1 2.453595 1_554
Ge0 Pt1 2.518359 1_565
Ge0 Pt0 2.518359 1_655
Ge0 Pt0 2.518359 1_555
Ge0 Pt1 2.518359 1_555
Ge1 Pt1 2.518359 1_455
Ge1 Pt1 2.518359 1_555
Ge1 Pt0 2.518359 1_555
Ge1 Pt0 2.518359 1_545
