# generated using pymatgen
data_NaTaZnSi(SO6)2
_symmetry_space_group_name_H-M   'P 1'
_cell_length_a   8.80290422
_cell_length_b   8.80290393
_cell_length_c   22.79816173
_cell_angle_alpha   89.35835880
_cell_angle_beta   90.64164120
_cell_angle_gamma   119.59129371
_symmetry_Int_Tables_number   1
_chemical_formula_structural   NaTaZnSi(SO6)2
_chemical_formula_sum   'Na6 Ta6 Zn6 Si6 S12 O72'
_cell_volume   1536.10125157
_cell_formula_units_Z   6
loop_
 _symmetry_equiv_pos_site_id
 _symmetry_equiv_pos_as_xyz
  1  'x, y, z'
loop_
 _atom_site_type_symbol
 _atom_site_label
 _atom_site_symmetry_multiplicity
 _atom_site_fract_x
 _atom_site_fract_y
 _atom_site_fract_z
 _atom_site_occupancy
  Na  Na0  1  0.98327216  0.99202695  0.49194627  1
  Na  Na1  1  0.00797305  0.01672784  0.99194627  1
  Na  Na2  1  0.67518704  0.31981891  0.82449136  1
  Na  Na3  1  0.68018109  0.32481296  0.32449136  1
  Na  Na4  1  0.32982536  0.64763839  0.15932220  1
  Na  Na5  1  0.35236161  0.67017464  0.65932220  1
  Ta  Ta0  1  0.98052720  0.98892533  0.64574156  1
  Ta  Ta1  1  0.01107467  0.01947280  0.14574156  1
  Ta  Ta2  1  0.66541559  0.33191346  0.97929794  1
  Ta  Ta3  1  0.66808654  0.33458441  0.47929794  1
  Ta  Ta4  1  0.33623701  0.67072317  0.31269977  1
  Ta  Ta5  1  0.32927683  0.66376299  0.81269977  1
  Zn  Zn0  1  0.97632924  0.00746087  0.35189537  1
  Zn  Zn1  1  0.99253913  0.02367076  0.85189537  1
  Zn  Zn2  1  0.66186385  0.32758662  0.68479233  1
  Zn  Zn3  1  0.67241338  0.33813615  0.18479233  1
  Zn  Zn4  1  0.32507505  0.63783506  0.01955801  1
  Zn  Zn5  1  0.36216493  0.67492495  0.51955801  1
  Si  Si0  1  0.99244168  0.29796368  0.25161534  1
  Si  Si1  1  0.70203632  0.00755832  0.75161534  1
  Si  Si2  1  0.65608896  0.61127725  0.58738877  1
  Si  Si3  1  0.38872275  0.34391104  0.08738877  1
  Si  Si4  1  0.04184426  0.36971306  0.91895004  1
  Si  Si5  1  0.63028694  0.95815574  0.41895004  1
  S  S0  1  0.28379728  0.99813058  0.25321314  1
  S  S1  1  0.71152300  0.71169937  0.25173217  1
  S  S2  1  0.28830063  0.28847700  0.75173217  1
  S  S3  1  0.00186942  0.71620272  0.75321314  1
  S  S4  1  0.96114114  0.33678869  0.58368070  1
  S  S5  1  0.37241552  0.04249593  0.58388108  1
  S  S6  1  0.95750407  0.62758448  0.08388108  1
  S  S7  1  0.66321131  0.03885886  0.08368070  1
  S  S8  1  0.62502128  0.66744333  0.91802448  1
  S  S9  1  0.33356286  0.95285572  0.91828007  1
  S  S10  1  0.33255667  0.37497872  0.41802448  1
  S  S11  1  0.04714428  0.66643714  0.41828007  1
  O  O0  1  0.19698475  0.01105871  0.30475934  1
  O  O1  1  0.81419209  0.78777189  0.30418261  1
  O  O2  1  0.97549254  0.18571685  0.30734602  1
  O  O3  1  0.21222811  0.18580791  0.80418261  1
  O  O4  1  0.98894129  0.80301525  0.80475934  1
  O  O5  1  0.81428315  0.02450746  0.80734602  1
  O  O6  1  0.80280566  0.97410894  0.69187275  1
  O  O7  1  0.17852070  0.20852034  0.69765647  1
  O  O8  1  0.03174239  0.82867747  0.69768708  1
  O  O9  1  0.79147966  0.82147930  0.19765647  1
  O  O10  1  0.02589106  0.19719434  0.19187275  1
  O  O11  1  0.17132253  0.96825761  0.19768708  1
  O  O12  1  0.88222278  0.35400114  0.63638421  1
  O  O13  1  0.47816004  0.11521023  0.63588688  1
  O  O14  1  0.65133321  0.50753441  0.64448586  1
  O  O15  1  0.88478977  0.52183996  0.13588688  1
  O  O16  1  0.64599886  0.11777722  0.13638421  1
  O  O17  1  0.49246559  0.34866679  0.14448586  1
  O  O18  1  0.47796690  0.30896678  0.02723131  1
  O  O19  1  0.84265862  0.53572625  0.02979807  1
  O  O20  1  0.70109161  0.15793933  0.02982182  1
  O  O21  1  0.46427375  0.15734138  0.52979807  1
  O  O22  1  0.69103322  0.52203310  0.52723131  1
  O  O23  1  0.84206067  0.29890839  0.52982182  1
  O  O24  1  0.55013138  0.69780263  0.96982168  1
  O  O25  1  0.14927817  0.46547322  0.97505159  1
  O  O26  1  0.31997439  0.85548220  0.97115096  1
  O  O27  1  0.53452678  0.85072183  0.47505159  1
  O  O28  1  0.30219737  0.44986862  0.46982168  1
  O  O29  1  0.14451780  0.68002561  0.47115096  1
  O  O30  1  0.12878244  0.63328016  0.36410894  1
  O  O31  1  0.50067934  0.86071969  0.35898401  1
  O  O32  1  0.36071018  0.48968090  0.36402142  1
  O  O33  1  0.13928031  0.49932066  0.85898401  1
  O  O34  1  0.36671984  0.87121756  0.86410894  1
  O  O35  1  0.51031910  0.63928982  0.86402142  1
  O  O36  1  0.02348161  0.81676621  0.40775942  1
  O  O37  1  0.82207578  0.98325117  0.41442473  1
  O  O38  1  0.19545950  0.19635998  0.40902959  1
  O  O39  1  0.01674883  0.17792422  0.91442473  1
  O  O40  1  0.18323379  0.97651839  0.90775942  1
  O  O41  1  0.80364002  0.80454050  0.90902959  1
  O  O42  1  0.97864936  0.17122453  0.58820293  1
  O  O43  1  0.20175265  0.04530625  0.58815606  1
  O  O44  1  0.84593877  0.81294926  0.59224323  1
  O  O45  1  0.95469375  0.79824735  0.08815606  1
  O  O46  1  0.82877547  0.02135064  0.08820293  1
  O  O47  1  0.18705074  0.15406123  0.09224323  1
  O  O48  1  0.67439716  0.17125639  0.74077205  1
  O  O49  1  0.46717024  0.32388186  0.74549231  1
  O  O50  1  0.85684504  0.54164335  0.74576997  1
  O  O51  1  0.67611814  0.53282976  0.24549231  1
  O  O52  1  0.82874361  0.32560284  0.24077205  1
  O  O53  1  0.45835665  0.14315496  0.24576997  1
  O  O54  1  0.62656863  0.49394741  0.92297137  1
  O  O55  1  0.84353796  0.35812348  0.92494973  1
  O  O56  1  0.49994370  0.13368845  0.92212143  1
  O  O57  1  0.64187652  0.15646204  0.42494973  1
  O  O58  1  0.50605259  0.37343137  0.42297137  1
  O  O59  1  0.86631155  0.50005630  0.42212143  1
  O  O60  1  0.35493626  0.50550291  0.08237405  1
  O  O61  1  0.13691695  0.66636627  0.07508372  1
  O  O62  1  0.51366221  0.86837559  0.07267331  1
  O  O63  1  0.33363373  0.86308305  0.57508372  1
  O  O64  1  0.49449709  0.64506374  0.58237405  1
  O  O65  1  0.13162441  0.48633779  0.57267331  1
  O  O66  1  0.29343306  0.82820657  0.25589338  1
  O  O67  1  0.53128661  0.70278258  0.25686408  1
  O  O68  1  0.17955836  0.49030981  0.25845703  1
  O  O69  1  0.29721742  0.46871339  0.75686408  1
  O  O70  1  0.17179343  0.70656694  0.75589338  1
  O  O71  1  0.50969019  0.82044164  0.75845703  1
loop_
_geom_bond_atom_site_label_1
_geom_bond_atom_site_label_2
_geom_bond_distance
_geom_bond_site_symmetry_2
Na0 O37 2.231964 1_555
Na0 O36 2.609622 1_655
Na0 O38 2.642441 1_665
Na0 O44 2.697045 1_555
Na0 O42 2.729228 1_565
Na0 O43 2.787048 1_665
Na1 O39 2.231964 1_555
Na1 O40 2.609622 1_545
Na1 O41 2.642441 1_445
Na1 O47 2.697045 1_556
Na1 O46 2.729228 1_456
Na1 O45 2.787048 1_446
Na2 O48 2.323768 1_555
Na2 O50 2.548141 1_555
Na2 O49 2.566611 1_555
Na2 O55 2.646323 1_555
Na2 O56 2.741795 1_555
Na2 O54 2.884445 1_555
Na3 O52 2.323768 1_555
Na3 O53 2.548141 1_555
Na3 O51 2.566611 1_555
Na3 O57 2.646323 1_555
Na3 O59 2.741795 1_555
Na3 O58 2.884445 1_555
Na4 O60 2.241174 1_555
Na4 O61 2.606821 1_555
Na4 O68 2.638826 1_555
Na4 O62 2.678989 1_555
Na4 O67 2.722416 1_555
Na4 O66 2.841399 1_555
Na5 O64 2.241174 1_555
Na5 O63 2.606821 1_555
Na5 O71 2.638826 1_555
Na5 O65 2.678989 1_555
Na5 O69 2.722416 1_555
Na5 O70 2.841399 1_555
O0 S0 1.444630 1_545
O0 Zn0 2.216751 1_455
O1 S1 1.446078 1_555
O1 Zn0 2.060734 1_565
O2 Si0 1.563151 1_555
O2 Zn0 1.862641 1_555
O3 S2 1.446078 1_555
O3 Zn1 2.060734 1_455
O4 S3 1.444630 1_655
O4 Zn1 2.216751 1_565
O5 Si1 1.563151 1_555
O5 Zn1 1.862642 1_555
O6 Si1 1.738588 1_565
O6 Ta0 1.844697 1_555
O7 S2 1.506700 1_555
O7 Ta0 2.202936 1_445
O8 S3 1.540838 1_555
O8 Ta0 2.043133 1_455
O9 S1 1.506700 1_555
O9 Ta1 2.202936 1_665
O10 Si0 1.738588 1_455
O10 Ta1 1.844697 1_555
O11 S0 1.540838 1_555
O11 Ta1 2.043133 1_565
O12 S4 1.440840 1_555
O12 Zn2 2.152112 1_555
O13 S5 1.444220 1_555
O13 Zn2 2.091370 1_555
O14 Si2 1.570681 1_555
O14 Zn2 1.863536 1_555
O15 S6 1.444220 1_555
O15 Zn3 2.091370 1_555
O16 S7 1.440840 1_555
O16 Zn3 2.152112 1_555
O17 Si3 1.570681 1_555
O17 Zn3 1.863536 1_555
O18 Si3 1.692634 1_555
O18 Ta2 1.914173 1_554
O19 S6 1.543776 1_555
O19 Ta2 2.054319 1_554
O20 S7 1.533900 1_555
O20 Ta2 2.048954 1_554
O21 S5 1.543776 1_555
O21 Ta3 2.054319 1_555
O22 Si2 1.692634 1_555
O22 Ta3 1.914173 1_555
O23 S4 1.533900 1_555
O23 Ta3 2.048954 1_555
O24 S8 1.448799 1_555
O24 Zn4 2.119757 1_556
O25 Si4 1.565432 1_555
O25 Zn4 1.845772 1_556
O26 S9 1.442485 1_555
O26 Zn4 2.219730 1_556
O27 Si5 1.565432 1_555
O27 Zn5 1.845772 1_555
O28 S10 1.448799 1_555
O28 Zn5 2.119757 1_555
O29 S11 1.442485 1_555
O29 Zn5 2.219730 1_555
O30 S11 1.536879 1_555
O30 Ta4 2.064493 1_555
O31 Si5 1.712088 1_555
O31 Ta4 1.902741 1_555
O32 S10 1.525965 1_555
O32 Ta4 2.060814 1_555
O33 Si4 1.712088 1_555
O33 Ta5 1.902741 1_555
O34 S9 1.536879 1_555
O34 Ta5 2.064493 1_555
O35 S8 1.525965 1_555
O35 Ta5 2.060814 1_555
O36 S11 1.454695 1_555
O36 Zn0 2.289255 1_465
O37 Si5 1.595256 1_555
O37 Zn0 1.916300 1_565
O38 S10 1.448597 1_555
O38 Zn0 2.237644 1_455
O39 Si4 1.595256 1_555
O39 Zn1 1.916300 1_455
O40 S9 1.454695 1_555
O40 Zn1 2.289255 1_465
O41 S8 1.448597 1_555
O41 Zn1 2.237644 1_565
O42 S4 1.541640 1_555
O42 Ta0 2.067572 1_545
O43 S5 1.518928 1_555
O43 Ta0 2.202374 1_445
O44 Si2 1.739828 1_555
O44 Ta0 1.867704 1_555
O45 S6 1.518928 1_555
O45 Ta1 2.202374 1_665
O46 S7 1.541640 1_555
O46 Ta1 2.067572 1_655
O47 Si3 1.739828 1_555
O47 Ta1 1.867704 1_555
O48 Si1 1.591786 1_555
O48 Zn2 1.908462 1_555
O49 S2 1.454651 1_555
O49 Zn2 2.202352 1_555
O50 S3 1.443393 1_655
O50 Zn2 2.289173 1_555
O51 S1 1.454651 1_555
O51 Zn3 2.202352 1_555
O52 Si0 1.591786 1_555
O52 Zn3 1.908462 1_555
O53 S0 1.443393 1_545
O53 Zn3 2.289173 1_555
O54 S8 1.536914 1_555
O54 Ta2 2.057028 1_555
O55 Si4 1.704591 1_655
O55 Ta2 1.930511 1_555
O56 S9 1.544167 1_545
O56 Ta2 2.089004 1_555
O57 Si5 1.704591 1_545
O57 Ta3 1.930511 1_555
O58 S10 1.536914 1_555
O58 Ta3 2.057028 1_555
O59 S11 1.544167 1_655
O59 Ta3 2.089004 1_555
O60 Si3 1.593236 1_555
O60 Zn4 1.932257 1_555
O61 S6 1.457461 1_455
O61 Zn4 2.207698 1_555
O62 S7 1.448487 1_565
O62 Zn4 2.241328 1_555
O63 S5 1.457461 1_565
O63 Zn5 2.207698 1_555
O64 Si2 1.593236 1_555
O64 Zn5 1.932257 1_555
O65 S4 1.448487 1_455
O65 Zn5 2.241328 1_555
O66 S0 1.539989 1_555
O66 Ta4 2.050811 1_555
O67 S1 1.555029 1_555
O67 Ta4 2.051948 1_555
O68 Si0 1.688234 1_455
O68 Ta4 1.948399 1_555
O69 S2 1.555029 1_555
O69 Ta5 2.051948 1_555
O70 S3 1.539989 1_555
O70 Ta5 2.050811 1_555
O71 Si1 1.688234 1_565
O71 Ta5 1.948399 1_555
