# generated using pymatgen
data_Li3Mn2(PO4)3
_symmetry_space_group_name_H-M   'P 1'
_cell_length_a   8.77885553
_cell_length_b   8.77885553
_cell_length_c   6.19253655
_cell_angle_alpha   75.00310620
_cell_angle_beta   75.00310620
_cell_angle_gamma   99.29819596
_symmetry_Int_Tables_number   1
_chemical_formula_structural   Li3Mn2(PO4)3
_chemical_formula_sum   'Li6 Mn4 P6 O24'
_cell_volume   431.72798880
_cell_formula_units_Z   2
loop_
 _symmetry_equiv_pos_site_id
 _symmetry_equiv_pos_as_xyz
  1  'x, y, z'
loop_
 _atom_site_type_symbol
 _atom_site_label
 _atom_site_symmetry_multiplicity
 _atom_site_fract_x
 _atom_site_fract_y
 _atom_site_fract_z
 _atom_site_occupancy
  Li  Li0  1  0.69842200  0.30157800  0.25000000  1
  Li  Li1  1  0.98197600  0.01802400  0.25000000  1
  Li  Li2  1  0.50000000  0.50000000  0.50000000  1
  Li  Li3  1  0.01802400  0.98197600  0.75000000  1
  Li  Li4  1  0.30157800  0.69842200  0.75000000  1
  Li  Li5  1  0.50000000  0.50000000  0.00000000  1
  Mn  Mn0  1  0.05443800  0.36386700  0.37959600  1
  Mn  Mn1  1  0.36386700  0.05443800  0.87959600  1
  Mn  Mn2  1  0.63613300  0.94556200  0.12040400  1
  Mn  Mn3  1  0.94556200  0.63613300  0.62040400  1
  P  P0  1  0.67105000  0.86203400  0.63105200  1
  P  P1  1  0.86203400  0.67105000  0.13105200  1
  P  P2  1  0.70854100  0.29145900  0.75000000  1
  P  P3  1  0.29145900  0.70854100  0.25000000  1
  P  P4  1  0.32895000  0.13796600  0.36894800  1
  P  P5  1  0.13796600  0.32895000  0.86894800  1
  O  O0  1  0.98131600  0.66475000  0.89781200  1
  O  O1  1  0.85323300  0.85580800  0.58801600  1
  O  O2  1  0.62183700  0.95136800  0.81825400  1
  O  O3  1  0.66475000  0.98131600  0.39781200  1
  O  O4  1  0.01868400  0.33525000  0.10218800  1
  O  O5  1  0.14676700  0.14419200  0.41198400  1
  O  O6  1  0.37816300  0.04863200  0.18174600  1
  O  O7  1  0.33525000  0.01868400  0.60218800  1
  O  O8  1  0.14419200  0.14676700  0.91198400  1
  O  O9  1  0.04863200  0.37816300  0.68174600  1
  O  O10  1  0.44877000  0.30208000  0.29268000  1
  O  O11  1  0.25744500  0.53286700  0.23356200  1
  O  O12  1  0.30208000  0.44877000  0.79268000  1
  O  O13  1  0.27366100  0.81856900  0.02042000  1
  O  O14  1  0.53286700  0.25744500  0.73356200  1
  O  O15  1  0.18143100  0.72633900  0.47958000  1
  O  O16  1  0.81856900  0.27366100  0.52042000  1
  O  O17  1  0.46713300  0.74255500  0.26643800  1
  O  O18  1  0.72633900  0.18143100  0.97958000  1
  O  O19  1  0.69792000  0.55123000  0.20732000  1
  O  O20  1  0.74255500  0.46713300  0.76643800  1
  O  O21  1  0.55123000  0.69792000  0.70732000  1
  O  O22  1  0.95136800  0.62183700  0.31825400  1
  O  O23  1  0.85580800  0.85323300  0.08801600  1
loop_
_geom_bond_atom_site_label_1
_geom_bond_atom_site_label_2
_geom_bond_distance
_geom_bond_site_symmetry_2
Li0 O10 2.139435 1_555
Li0 O19 2.139435 1_555
Li0 O18 2.182211 1_554
Li0 O16 2.182211 1_555
Li1 O1 2.097527 1_545
Li1 O8 2.097527 1_654
Li1 O23 2.265853 1_545
Li1 O5 2.265853 1_655
Li2 O19 2.049872 1_555
Li2 O12 2.049872 1_555
Li2 O17 2.351582 1_555
Li2 O14 2.351582 1_555
Li2 O21 2.463779 1_555
Li2 O10 2.463779 1_555
Li3 O5 2.097527 1_565
Li3 O23 2.097527 1_456
Li3 O1 2.265853 1_455
Li3 O8 2.265853 1_565
Li4 O21 2.139435 1_555
Li4 O12 2.139435 1_555
Li4 O15 2.182211 1_555
Li4 O13 2.182211 1_556
Li5 O10 2.049872 1_555
Li5 O21 2.049872 1_554
Li5 O20 2.351582 1_554
Li5 O11 2.351582 1_555
Li5 O12 2.463779 1_554
Li5 O19 2.463779 1_555
Mn0 O4 1.894623 1_555
Mn0 O9 1.895656 1_555
Mn0 O11 1.952487 1_555
Mn0 O16 1.963012 1_455
Mn0 O5 2.192117 1_555
Mn0 O22 2.546891 1_455
Mn1 O7 1.894623 1_555
Mn1 O6 1.895656 1_556
Mn1 O14 1.952487 1_555
Mn1 O13 1.963012 1_546
Mn1 O8 2.192117 1_555
Mn1 O2 2.546891 1_545
Mn2 O3 1.894623 1_555
Mn2 O2 1.895656 1_554
Mn2 O17 1.952487 1_555
Mn2 O18 1.963012 1_564
Mn2 O23 2.192117 1_555
Mn2 O6 2.546891 1_565
Mn3 O0 1.894623 1_555
Mn3 O22 1.895656 1_555
Mn3 O20 1.952487 1_555
Mn3 O15 1.963012 1_655
Mn3 O1 2.192117 1_555
Mn3 O9 2.546891 1_655
O0 P1 1.569410 1_556
O1 P0 1.564338 1_555
O2 P0 1.570470 1_555
O3 P0 1.569410 1_555
O4 P5 1.569410 1_554
O5 P4 1.564338 1_555
O6 P4 1.570470 1_555
O7 P4 1.569410 1_555
O8 P5 1.564338 1_555
O9 P5 1.570470 1_555
O10 P4 1.518633 1_555
O11 P3 1.557602 1_555
O12 P5 1.518633 1_555
O13 P3 1.559369 1_555
O14 P2 1.557602 1_555
O15 P3 1.559369 1_555
O16 P2 1.559369 1_555
O17 P3 1.557602 1_555
O18 P2 1.559369 1_555
O19 P1 1.518633 1_555
O20 P2 1.557602 1_555
O21 P0 1.518633 1_555
O22 P1 1.570470 1_555
O23 P1 1.564338 1_555
