# generated using pymatgen
data_Zr2Ni2Sn
_symmetry_space_group_name_H-M   'P 1'
_cell_length_a   7.13211400
_cell_length_b   7.13211400
_cell_length_c   3.43447500
_cell_angle_alpha   90.00000000
_cell_angle_beta   90.00000000
_cell_angle_gamma   90.00000000
_symmetry_Int_Tables_number   1
_chemical_formula_structural   Zr2Ni2Sn
_chemical_formula_sum   'Zr4 Ni4 Sn2'
_cell_volume   174.70161192
_cell_formula_units_Z   2
loop_
 _symmetry_equiv_pos_site_id
 _symmetry_equiv_pos_as_xyz
  1  'x, y, z'
loop_
 _atom_site_type_symbol
 _atom_site_label
 _atom_site_symmetry_multiplicity
 _atom_site_fract_x
 _atom_site_fract_y
 _atom_site_fract_z
 _atom_site_occupancy
  Zr  Zr0  1  0.83060700  0.66939300  0.50000000  1
  Zr  Zr1  1  0.33060700  0.83060700  0.50000000  1
  Zr  Zr2  1  0.66939300  0.16939300  0.50000000  1
  Zr  Zr3  1  0.16939300  0.33060700  0.50000000  1
  Ni  Ni0  1  0.12469200  0.62469200  0.00000000  1
  Ni  Ni1  1  0.62469200  0.87530800  0.00000000  1
  Ni  Ni2  1  0.87530800  0.37530800  0.00000000  1
  Ni  Ni3  1  0.37530800  0.12469200  0.00000000  1
  Sn  Sn0  1  0.50000000  0.50000000  0.00000000  1
  Sn  Sn1  1  0.00000000  0.00000000  0.00000000  1
loop_
_geom_bond_atom_site_label_1
_geom_bond_atom_site_label_2
_geom_bond_distance
_geom_bond_site_symmetry_2
Ni0 Ni2 2.515370 1_455
Ni0 Zr1 2.694908 1_555
Ni0 Zr1 2.694908 1_554
Ni0 Zr0 2.729438 1_454
Ni0 Zr3 2.729438 1_554
Ni0 Zr3 2.729438 1_555
Ni0 Zr0 2.729438 1_455
Ni0 Sn1 2.820606 1_565
Ni0 Sn0 2.820606 1_555
Ni1 Ni3 2.515370 1_565
Ni1 Zr0 2.694908 1_555
Ni1 Zr0 2.694908 1_554
Ni1 Zr2 2.729438 1_565
Ni1 Zr2 2.729438 1_564
Ni1 Zr1 2.729438 1_555
Ni1 Zr1 2.729438 1_554
Ni1 Sn0 2.820606 1_555
Ni1 Sn1 2.820606 1_665
Ni2 Zr2 2.694908 1_554
Ni2 Zr2 2.694908 1_555
Ni2 Zr3 2.729438 1_655
Ni2 Zr3 2.729438 1_654
Ni2 Zr0 2.729438 1_555
Ni2 Zr0 2.729438 1_554
Ni2 Sn0 2.820606 1_555
Ni2 Sn1 2.820606 1_655
Ni3 Zr3 2.694908 1_555
Ni3 Zr3 2.694908 1_554
Ni3 Zr2 2.729438 1_554
Ni3 Zr1 2.729438 1_544
Ni3 Zr2 2.729438 1_555
Ni3 Zr1 2.729438 1_545
Ni3 Sn1 2.820606 1_555
Ni3 Sn0 2.820606 1_555
Sn0 Zr2 3.157262 1_555
Sn0 Zr3 3.157262 1_554
Sn0 Zr3 3.157262 1_555
Sn0 Zr0 3.157262 1_555
Sn0 Zr0 3.157262 1_554
Sn0 Zr1 3.157262 1_555
Sn0 Zr1 3.157262 1_554
Sn0 Zr2 3.157262 1_554
Sn1 Zr3 3.157262 1_554
Sn1 Zr1 3.157262 1_544
Sn1 Zr3 3.157262 1_555
Sn1 Zr0 3.157262 1_444
Sn1 Zr1 3.157262 1_545
Sn1 Zr2 3.157262 1_455
Sn1 Zr2 3.157262 1_454
Sn1 Zr0 3.157262 1_445
