# generated using pymatgen
data_NaMnP
_symmetry_space_group_name_H-M   'P 1'
_cell_length_a   3.77609661
_cell_length_b   3.77609661
_cell_length_c   7.10894707
_cell_angle_alpha   90.00000000
_cell_angle_beta   90.00000000
_cell_angle_gamma   90.00000000
_symmetry_Int_Tables_number   1
_chemical_formula_structural   NaMnP
_chemical_formula_sum   'Na2 Mn2 P2'
_cell_volume   101.36580524
_cell_formula_units_Z   2
loop_
 _symmetry_equiv_pos_site_id
 _symmetry_equiv_pos_as_xyz
  1  'x, y, z'
loop_
 _atom_site_type_symbol
 _atom_site_label
 _atom_site_symmetry_multiplicity
 _atom_site_fract_x
 _atom_site_fract_y
 _atom_site_fract_z
 _atom_site_occupancy
  Na  Na0  1  0.25000000  0.25000000  0.64302677  1
  Na  Na1  1  0.75000000  0.75000000  0.35697323  1
  Mn  Mn0  1  0.25000000  0.75000000  0.00000000  1
  Mn  Mn1  1  0.75000000  0.25000000  0.00000000  1
  P  P0  1  0.25000000  0.25000000  0.19612032  1
  P  P1  1  0.75000000  0.75000000  0.80387968  1
loop_
_geom_bond_atom_site_label_1
_geom_bond_atom_site_label_2
_geom_bond_distance
_geom_bond_site_symmetry_2
Na0 P1 2.904657 1_445
Na0 P1 2.904657 1_555
Na0 P1 2.904657 1_455
Na0 P1 2.904657 1_545
Na0 P0 3.177034 1_555
Na1 P0 2.904657 1_555
Na1 P0 2.904657 1_565
Na1 P0 2.904657 1_665
Na1 P0 2.904657 1_655
Na1 P1 3.177034 1_555
Mn0 P0 2.347029 1_555
Mn0 P1 2.347029 1_554
Mn0 P0 2.347029 1_565
Mn0 P1 2.347029 1_454
Mn1 P0 2.347029 1_555
Mn1 P0 2.347029 1_655
Mn1 P1 2.347029 1_544
Mn1 P1 2.347029 1_554
