# generated using pymatgen
data_Na3CaZr3P5SO24
_symmetry_space_group_name_H-M   'P 1'
_cell_length_a   9.06128999
_cell_length_b   9.03090144
_cell_length_c   23.34315679
_cell_angle_alpha   89.93695851
_cell_angle_beta   90.10516095
_cell_angle_gamma   119.95033960
_symmetry_Int_Tables_number   1
_chemical_formula_structural   Na3CaZr3P5SO24
_chemical_formula_sum   'Na9 Ca3 Zr9 P15 S3 O72'
_cell_volume   1655.11325913
_cell_formula_units_Z   3
loop_
 _symmetry_equiv_pos_site_id
 _symmetry_equiv_pos_as_xyz
  1  'x, y, z'
loop_
 _atom_site_type_symbol
 _atom_site_label
 _atom_site_symmetry_multiplicity
 _atom_site_fract_x
 _atom_site_fract_y
 _atom_site_fract_z
 _atom_site_occupancy
  Na  Na0  1  0.99146420  0.36542330  0.74575290  1
  Na  Na1  1  0.31608159  0.97697135  0.08507641  1
  Na  Na2  1  0.32581246  0.03335400  0.41121107  1
  Na  Na3  1  0.98352257  0.99965162  0.49629442  1
  Na  Na4  1  0.98874009  0.00086991  0.99904429  1
  Na  Na5  1  0.65409098  0.33331154  0.82886259  1
  Na  Na6  1  0.66596521  0.33359331  0.32690676  1
  Na  Na7  1  0.33298209  0.65913191  0.16777546  1
  Na  Na8  1  0.34397141  0.66935483  0.66612987  1
  Ca  Ca0  1  0.99413281  0.00013012  0.35411760  1
  Ca  Ca1  1  0.66126948  0.33773681  0.68559814  1
  Ca  Ca2  1  0.66581396  0.33183048  0.18225009  1
  Zr  Zr0  1  0.00114614  0.99768290  0.85456860  1
  Zr  Zr1  1  0.99309439  0.99607086  0.64796556  1
  Zr  Zr2  1  0.00170981  0.99838137  0.14807053  1
  Zr  Zr3  1  0.67054874  0.33537157  0.98100543  1
  Zr  Zr4  1  0.68165583  0.34640651  0.48179081  1
  Zr  Zr5  1  0.33334956  0.66091466  0.01616114  1
  Zr  Zr6  1  0.33310455  0.65810803  0.51907016  1
  Zr  Zr7  1  0.33319614  0.67106627  0.31517007  1
  Zr  Zr8  1  0.33890903  0.67197636  0.81464676  1
  P  P0  1  0.29599903  0.99711167  0.25250887  1
  P  P1  1  0.28572930  0.28913150  0.75200379  1
  P  P2  1  0.00572347  0.71296205  0.75165070  1
  P  P3  1  0.70941977  0.99524220  0.75185807  1
  P  P4  1  0.96427257  0.33219109  0.58560524  1
  P  P5  1  0.66862638  0.63250114  0.58338293  1
  P  P6  1  0.96477802  0.62989891  0.08268495  1
  P  P7  1  0.66757871  0.03596734  0.08182902  1
  P  P8  1  0.37074059  0.33343525  0.08275464  1
  P  P9  1  0.62551040  0.66520512  0.91648470  1
  P  P10  1  0.03924412  0.37460011  0.91483568  1
  P  P11  1  0.33567551  0.96086951  0.91782770  1
  P  P12  1  0.61987552  0.95946243  0.41931930  1
  P  P13  1  0.34060436  0.37794118  0.41719813  1
  P  P14  1  0.04399725  0.66265697  0.41799914  1
  S  S0  1  0.70152849  0.70641305  0.25043007  1
  S  S1  1  0.00546087  0.29888742  0.25018388  1
  S  S2  1  0.36869672  0.03640572  0.58149730  1
  O  O0  1  0.21157940  0.01032392  0.30695323  1
  O  O1  1  0.79772812  0.78791598  0.30210211  1
  O  O2  1  0.98635805  0.20054774  0.30184249  1
  O  O3  1  0.18880327  0.18160896  0.80515919  1
  O  O4  1  0.99122347  0.80708230  0.80468521  1
  O  O5  1  0.82067112  0.01069408  0.80423562  1
  O  O6  1  0.79557755  0.97277943  0.69693583  1
  O  O7  1  0.17263343  0.20193802  0.69787779  1
  O  O8  1  0.02428302  0.82031777  0.69708037  1
  O  O9  1  0.78927455  0.81544272  0.19829898  1
  O  O10  1  0.02193233  0.20824289  0.19807796  1
  O  O11  1  0.18060534  0.97824410  0.19743877  1
  O  O12  1  0.89741847  0.36128390  0.64122243  1
  O  O13  1  0.47059808  0.10905432  0.63263489  1
  O  O14  1  0.63303578  0.52867314  0.63697373  1
  O  O15  1  0.89852233  0.52883706  0.13677996  1
  O  O16  1  0.62032437  0.10059278  0.13437070  1
  O  O17  1  0.47124559  0.36770426  0.13701758  1
  O  O18  1  0.45880068  0.29983791  0.03066609  1
  O  O19  1  0.84923645  0.54176787  0.02962744  1
  O  O20  1  0.69526265  0.15361059  0.02904528  1
  O  O21  1  0.45105555  0.14195590  0.52915124  1
  O  O22  1  0.69047558  0.53851582  0.53015982  1
  O  O23  1  0.84506449  0.30994773  0.53321556  1
  O  O24  1  0.53857645  0.69048787  0.96926414  1
  O  O25  1  0.15366577  0.46499275  0.96713835  1
  O  O26  1  0.31123711  0.85352087  0.97209215  1
  O  O27  1  0.52239337  0.84921541  0.47123791  1
  O  O28  1  0.32386174  0.47083995  0.47017268  1
  O  O29  1  0.15425036  0.67835252  0.47019460  1
  O  O30  1  0.13004541  0.63972370  0.36324630  1
  O  O31  1  0.50705603  0.87246052  0.36446686  1
  O  O32  1  0.36007742  0.48738148  0.36309900  1
  O  O33  1  0.12349965  0.48233063  0.86030365  1
  O  O34  1  0.35819466  0.86897546  0.86513355  1
  O  O35  1  0.51386953  0.64137816  0.86302675  1
  O  O36  1  0.03210469  0.82436892  0.41589160  1
  O  O37  1  0.79572180  0.98141243  0.41690671  1
  O  O38  1  0.18720240  0.19787283  0.41621008  1
  O  O39  1  0.02002642  0.19495541  0.91054737  1
  O  O40  1  0.17544685  0.97890331  0.91110390  1
  O  O41  1  0.80375346  0.82525746  0.91084063  1
  O  O42  1  0.98216678  0.16894788  0.58786164  1
  O  O43  1  0.19690932  0.02090346  0.58660701  1
  O  O44  1  0.83412260  0.81083859  0.58718908  1
  O  O45  1  0.98715254  0.81516645  0.08830845  1
  O  O46  1  0.82856550  0.01750606  0.08951518  1
  O  O47  1  0.19144001  0.16401994  0.08862743  1
  O  O48  1  0.69994296  0.15844116  0.74897610  1
  O  O49  1  0.46102215  0.30941702  0.75040820  1
  O  O50  1  0.85355027  0.53200045  0.75042889  1
  O  O51  1  0.68017120  0.53631925  0.24500321  1
  O  O52  1  0.86079873  0.32640003  0.24474225  1
  O  O53  1  0.47409225  0.14929074  0.24679095  1
  O  O54  1  0.64216576  0.50399634  0.92368244  1
  O  O55  1  0.86212926  0.35819709  0.92297418  1
  O  O56  1  0.49632242  0.13947858  0.92356054  1
  O  O57  1  0.62314221  0.13419021  0.42470512  1
  O  O58  1  0.50351486  0.36072223  0.42361036  1
  O  O59  1  0.86551297  0.49898933  0.42292329  1
  O  O60  1  0.33851365  0.48368949  0.07105910  1
  O  O61  1  0.15046816  0.66606930  0.07163114  1
  O  O62  1  0.50861710  0.85618969  0.07003149  1
  O  O63  1  0.34333211  0.86086432  0.57407374  1
  O  O64  1  0.51620452  0.66292620  0.57298270  1
  O  O65  1  0.14383474  0.48903077  0.57421021  1
  O  O66  1  0.30378811  0.82504427  0.25424724  1
  O  O67  1  0.52950708  0.69496502  0.25294253  1
  O  O68  1  0.16903705  0.46845091  0.25274043  1
  O  O69  1  0.29051270  0.46560231  0.75688536  1
  O  O70  1  0.17056677  0.69755854  0.75655867  1
  O  O71  1  0.53088136  0.83251513  0.75677175  1
loop_
_geom_bond_atom_site_label_1
_geom_bond_atom_site_label_2
_geom_bond_distance
_geom_bond_site_symmetry_2
Na0 O48 2.355350 1_555
Na0 O50 2.390531 1_555
Na0 O69 2.403939 1_655
Na0 O12 2.577267 1_555
Na0 O70 2.614178 1_655
Na0 O33 2.903349 1_655
Na0 O7 2.924746 1_655
Na1 O61 2.454976 1_555
Na1 O47 2.457949 1_565
Na1 O62 2.502003 1_555
Na1 O45 2.583851 1_455
Na1 O16 2.662446 1_565
Na1 O18 2.831986 1_565
Na1 O26 2.856216 1_554
Na1 O11 2.900456 1_555
Na2 O36 2.375313 1_545
Na2 O38 2.379660 1_555
Na2 O57 2.394768 1_555
Na2 O58 2.581449 1_555
Na2 O0 2.610464 1_555
Na2 O31 2.896859 1_545
Na2 O21 2.951689 1_555
Na3 O37 2.463004 1_555
Na3 O38 2.609965 1_665
Na3 O36 2.632017 1_655
Na3 O42 2.632962 1_565
Na3 O44 2.634348 1_555
Na3 O43 2.799161 1_665
Na4 O46 2.611283 1_556
Na4 O41 2.627607 1_545
Na4 O39 2.630230 1_655
Na4 O45 2.668883 1_546
Na4 O47 2.684751 1_656
Na4 O40 2.732092 1_645
Na5 O49 2.464394 1_555
Na5 O50 2.570045 1_555
Na5 O48 2.609326 1_555
Na5 O54 2.731579 1_555
Na5 O56 2.738397 1_555
Na5 O55 2.827217 1_555
Na6 O53 2.529038 1_555
Na6 O51 2.604149 1_555
Na6 O52 2.631895 1_555
Na6 O58 2.774177 1_555
Na6 O59 2.796392 1_555
Na6 O57 2.810985 1_555
Na7 O68 2.560252 1_555
Na7 O67 2.577071 1_555
Na7 O66 2.606496 1_555
Na7 O60 2.774433 1_555
Na7 O61 2.804546 1_555
Na7 O62 2.842920 1_555
Na8 O71 2.649223 1_555
Na8 O69 2.685855 1_555
Na8 O64 2.696296 1_555
Na8 O70 2.720772 1_555
Na8 O65 2.754875 1_555
Na8 O63 2.758747 1_555
Ca0 O2 2.211805 1_555
Ca0 O1 2.214961 1_545
Ca0 O0 2.220245 1_655
Ca0 O37 2.261596 1_545
Ca0 O38 2.286359 1_655
Ca0 O36 2.292527 1_645
Ca1 O14 2.182245 1_555
Ca1 O49 2.278696 1_555
Ca1 O13 2.283344 1_555
Ca1 O12 2.291365 1_555
Ca1 O50 2.312533 1_555
Ca1 O48 2.343663 1_555
Ca2 O17 2.211530 1_555
Ca2 O16 2.218998 1_555
Ca2 O15 2.235272 1_555
Ca2 O53 2.269355 1_555
Ca2 O52 2.308447 1_555
Ca2 O51 2.310511 1_555
O0 P0 1.519743 1_545
O1 S0 1.453944 1_555
O2 S1 1.455241 1_655
O3 P1 1.550381 1_555
O3 Zr0 2.040457 1_545
O4 P2 1.544926 1_655
O4 Zr0 2.043611 1_655
O5 P3 1.544662 1_545
O5 Zr0 2.062306 1_645
O6 P3 1.567386 1_555
O6 Zr1 2.045797 1_555
O7 P1 1.567899 1_555
O7 Zr1 2.106749 1_445
O8 P2 1.557624 1_555
O8 Zr1 2.087161 1_455
O9 S0 1.517152 1_555
O9 Zr2 2.153639 1_655
O10 S1 1.515475 1_555
O10 Zr2 2.155339 1_545
O11 P0 1.610134 1_555
O11 Zr2 2.067819 1_555
O12 P4 1.511323 1_555
O13 S2 1.449404 1_555
O14 P5 1.498372 1_555
O15 P6 1.497025 1_555
O16 P7 1.510385 1_555
O17 P8 1.498271 1_555
O18 P8 1.566308 1_555
O18 Zr3 2.126220 1_554
O19 P6 1.558499 1_555
O19 Zr3 2.090111 1_554
O20 P7 1.562684 1_555
O20 Zr3 2.089058 1_554
O21 S2 1.499710 1_555
O21 Zr4 2.269184 1_555
O22 P5 1.572949 1_555
O22 Zr4 2.038800 1_555
O23 P4 1.575359 1_555
O23 Zr4 2.054571 1_555
O24 P9 1.540892 1_555
O24 Zr5 2.058849 1_556
O25 P10 1.544158 1_555
O25 Zr5 2.052365 1_556
O26 P11 1.541878 1_555
O26 Zr5 2.113583 1_556
O27 P12 1.537359 1_555
O27 Zr6 2.052867 1_555
O28 P13 1.544698 1_555
O28 Zr6 2.008104 1_555
O29 P14 1.535316 1_555
O29 Zr6 2.061604 1_555
O30 P14 1.565206 1_555
O30 Zr7 2.052988 1_555
O31 P12 1.580286 1_555
O31 Zr7 2.061790 1_555
O32 P13 1.557779 1_555
O32 Zr7 2.112152 1_555
O33 P10 1.552095 1_555
O33 Zr8 2.131826 1_555
O34 P11 1.554226 1_555
O34 Zr8 2.068333 1_555
O35 P9 1.550955 1_555
O35 Zr8 2.072517 1_555
O36 P14 1.517820 1_555
O37 P12 1.505422 1_555
O38 P13 1.523182 1_555
O39 P10 1.546150 1_555
O39 Zr0 2.147249 1_545
O40 P11 1.547358 1_555
O40 Zr0 2.127014 1_555
O41 P9 1.544193 1_555
O41 Zr0 2.138347 1_655
O42 P4 1.562340 1_555
O42 Zr1 2.136525 1_545
O43 S2 1.496638 1_555
O43 Zr1 2.260089 1_445
O44 P5 1.561681 1_555
O44 Zr1 2.116066 1_555
O45 P6 1.587259 1_555
O45 Zr2 2.118417 1_655
O46 P7 1.558765 1_555
O46 Zr2 2.149839 1_645
O47 P8 1.586692 1_555
O47 Zr2 2.134251 1_545
O48 P3 1.519940 1_545
O49 P1 1.505839 1_555
O50 P2 1.524075 1_655
O51 S0 1.454859 1_555
O52 S1 1.456247 1_655
O53 P0 1.515477 1_545
O54 P9 1.545734 1_555
O54 Zr3 2.135648 1_555
O55 P10 1.548348 1_655
O55 Zr3 2.131153 1_555
O56 P11 1.547237 1_545
O56 Zr3 2.151490 1_555
O57 P12 1.568564 1_545
O57 Zr4 2.172149 1_555
O58 P13 1.566536 1_555
O58 Zr4 2.160262 1_555
O59 P14 1.557873 1_655
O59 Zr4 2.067510 1_555
O60 P8 1.547778 1_555
O60 Zr5 2.067865 1_555
O61 P6 1.567485 1_455
O61 Zr5 2.123663 1_555
O62 P7 1.565564 1_565
O62 Zr5 2.101081 1_555
O63 S2 1.494211 1_565
O63 Zr6 2.201194 1_555
O64 P5 1.555481 1_555
O64 Zr6 2.063673 1_555
O65 P4 1.556898 1_455
O65 Zr6 2.078111 1_555
O66 P0 1.590807 1_555
O66 Zr7 2.095560 1_555
O67 S0 1.511026 1_555
O67 Zr7 2.224023 1_555
O68 S1 1.509630 1_555
O68 Zr7 2.228166 1_555
O69 P1 1.576744 1_555
O69 Zr8 2.161279 1_555
O70 P2 1.571752 1_555
O70 Zr8 2.135987 1_555
O71 P3 1.554497 1_555
O71 Zr8 2.106932 1_555
