# generated using pymatgen
data_Th11(Ru2C3)6
_symmetry_space_group_name_H-M   'P 1'
_cell_length_a   9.35637009
_cell_length_b   9.35637009
_cell_length_c   9.35637009
_cell_angle_alpha   109.47122063
_cell_angle_beta   109.47122063
_cell_angle_gamma   109.47122063
_symmetry_Int_Tables_number   1
_chemical_formula_structural   Th11(Ru2C3)6
_chemical_formula_sum   'Th11 Ru12 C18'
_cell_volume   630.52205892
_cell_formula_units_Z   1
loop_
 _symmetry_equiv_pos_site_id
 _symmetry_equiv_pos_as_xyz
  1  'x, y, z'
loop_
 _atom_site_type_symbol
 _atom_site_label
 _atom_site_symmetry_multiplicity
 _atom_site_fract_x
 _atom_site_fract_y
 _atom_site_fract_z
 _atom_site_occupancy
  Th  Th0  1  0.59472720  0.59472720  0.59472720  1
  Th  Th1  1  -0.00000000  0.40527280  0.00000000  1
  Th  Th2  1  0.40527280  0.00000000  -0.00000000  1
  Th  Th3  1  -0.00000000  0.00000000  0.40527280  1
  Th  Th4  1  0.75000000  0.50000000  0.25000000  1
  Th  Th5  1  0.25000000  0.75000000  0.50000000  1
  Th  Th6  1  0.75000000  0.25000000  0.50000000  1
  Th  Th7  1  0.50000000  0.25000000  0.75000000  1
  Th  Th8  1  0.50000000  0.75000000  0.25000000  1
  Th  Th9  1  0.25000000  0.50000000  0.75000000  1
  Th  Th10  1  0.00000000  -0.00000000  -0.00000000  1
  Ru  Ru0  1  0.83041707  0.19859949  0.19859949  1
  Ru  Ru1  1  0.19859949  0.83041707  0.19859949  1
  Ru  Ru2  1  0.80140051  -0.00000000  0.63181759  1
  Ru  Ru3  1  0.00000000  0.80140051  0.63181759  1
  Ru  Ru4  1  0.36818241  0.36818241  0.16958293  1
  Ru  Ru5  1  0.00000000  0.63181759  0.80140051  1
  Ru  Ru6  1  0.63181759  -0.00000000  0.80140051  1
  Ru  Ru7  1  0.80140051  0.63181759  -0.00000000  1
  Ru  Ru8  1  0.63181759  0.80140051  0.00000000  1
  Ru  Ru9  1  0.19859949  0.19859949  0.83041707  1
  Ru  Ru10  1  0.36818241  0.16958293  0.36818241  1
  Ru  Ru11  1  0.16958293  0.36818241  0.36818241  1
  C  C0  1  -0.00000000  0.43445819  0.43445819  1
  C  C1  1  0.00000000  0.56554181  0.56554181  1
  C  C2  1  0.56554181  0.00000000  0.56554181  1
  C  C3  1  0.43445819  -0.00000000  0.43445819  1
  C  C4  1  0.56554181  0.56554181  -0.00000000  1
  C  C5  1  0.43445819  0.43445819  -0.00000000  1
  C  C6  1  0.31030868  0.31030868  0.52321296  1
  C  C7  1  -0.00000000  0.21290428  0.68969132  1
  C  C8  1  0.21290428  0.00000000  0.68969132  1
  C  C9  1  0.78709572  0.47678704  0.78709572  1
  C  C10  1  0.47678704  0.78709572  0.78709572  1
  C  C11  1  0.68969132  0.00000000  0.21290428  1
  C  C12  1  0.31030868  0.52321296  0.31030868  1
  C  C13  1  0.21290428  0.68969132  0.00000000  1
  C  C14  1  -0.00000000  0.68969132  0.21290428  1
  C  C15  1  0.68969132  0.21290428  -0.00000000  1
  C  C16  1  0.78709572  0.78709572  0.47678704  1
  C  C17  1  0.52321296  0.31030868  0.31030868  1
loop_
_geom_bond_atom_site_label_1
_geom_bond_atom_site_label_2
_geom_bond_distance
_geom_bond_site_symmetry_2
Ru0 Th10 3.324512 1_655
Ru1 Th10 3.324512 1_565
Ru2 Th10 3.324512 1_656
Ru3 Th10 3.324512 1_566
Ru4 Th10 3.324512 1_555
Ru5 Th10 3.324512 1_566
Ru6 Th10 3.324512 1_656
Ru7 Th10 3.324512 1_665
Ru8 Th10 3.324512 1_665
Ru9 Th10 3.324512 1_556
Ru10 Th10 3.324512 1_555
Ru11 Th10 3.324512 1_555
C0 C1 1.416202 1_555
C0 Ru0 2.083776 1_455
C0 Ru11 2.083776 1_555
C0 Th5 2.792229 1_555
C0 Th9 2.792229 1_555
C0 Th4 2.792229 1_455
C0 Th6 2.792229 1_455
C1 Ru5 2.083776 1_555
C1 Ru3 2.083776 1_555
C1 Th5 2.792229 1_555
C1 Th9 2.792229 1_555
C1 Th4 2.792229 1_455
C1 Th6 2.792229 1_455
C2 C3 1.416202 1_555
C2 Ru6 2.083776 1_555
C2 Ru2 2.083776 1_555
C2 Th8 2.792229 1_545
C2 Th5 2.792229 1_545
C2 Th6 2.792229 1_555
C2 Th7 2.792229 1_555
C3 Ru1 2.083776 1_545
C3 Ru10 2.083776 1_555
C3 Th7 2.792229 1_555
C3 Th8 2.792229 1_545
C3 Th5 2.792229 1_545
C3 Th6 2.792229 1_555
C4 C5 1.416202 1_555
C4 Ru7 2.083776 1_555
C4 Ru8 2.083776 1_555
C4 Th7 2.792229 1_554
C4 Th9 2.792229 1_554
C4 Th4 2.792229 1_555
C4 Th8 2.792229 1_555
C5 Ru9 2.083776 1_554
C5 Ru4 2.083776 1_555
C5 Th7 2.792229 1_554
C5 Th9 2.792229 1_554
C5 Th4 2.792229 1_555
C5 Th8 2.792229 1_555
C6 Ru10 1.963814 1_555
C6 Ru11 1.963814 1_555
C6 Th7 2.631743 1_555
C6 Th9 2.631743 1_555
C6 Th0 2.741478 1_555
C6 Th3 2.860990 1_555
C7 Ru9 1.963814 1_555
C7 Ru2 1.963814 1_455
C7 Th9 2.631743 1_555
C7 Th6 2.631743 1_455
C7 Th3 2.741478 1_555
C7 Th1 2.860990 1_556
C8 Ru9 1.963814 1_555
C8 Ru3 1.963814 1_545
C8 Th5 2.631743 1_545
C8 Th7 2.631743 1_555
C8 Th3 2.741478 1_555
C8 Th2 2.860990 1_556
C9 Ru7 1.963814 1_556
C9 Ru5 1.963814 1_655
C9 Th6 2.631743 1_555
C9 Th7 2.631743 1_555
C9 Th1 2.741478 1_656
C9 Th0 2.860990 1_555
C10 Ru8 1.963814 1_556
C10 Ru6 1.963814 1_565
C10 Th9 2.631743 1_555
C10 Th5 2.631743 1_555
C10 Th2 2.741478 1_566
C10 Th0 2.860990 1_555
C11 Ru0 1.963814 1_555
C11 Ru8 1.963814 1_545
C11 Th8 2.631743 1_545
C11 Th6 2.631743 1_555
C11 Th2 2.741478 1_555
C11 Th3 2.860990 1_655
C12 Ru4 1.963814 1_555
C12 Ru11 1.963814 1_555
C12 Th5 2.631743 1_555
C12 Th8 2.631743 1_555
C12 Th0 2.741478 1_555
C12 Th1 2.860990 1_555
C13 Ru1 1.963814 1_555
C13 Ru5 1.963814 1_554
C13 Th9 2.631743 1_554
C13 Th8 2.631743 1_555
C13 Th1 2.741478 1_555
C13 Th2 2.860990 1_565
C14 Ru1 1.963814 1_555
C14 Ru7 1.963814 1_455
C14 Th4 2.631743 1_455
C14 Th5 2.631743 1_555
C14 Th1 2.741478 1_555
C14 Th3 2.860990 1_565
C15 Ru0 1.963814 1_555
C15 Ru6 1.963814 1_554
C15 Th4 2.631743 1_555
C15 Th7 2.631743 1_554
C15 Th2 2.741478 1_555
C15 Th1 2.860990 1_655
C16 Ru3 1.963814 1_655
C16 Ru2 1.963814 1_565
C16 Th4 2.631743 1_555
C16 Th8 2.631743 1_555
C16 Th3 2.741478 1_665
C16 Th0 2.860990 1_555
C17 Ru4 1.963814 1_555
C17 Ru10 1.963814 1_555
C17 Th4 2.631743 1_555
C17 Th6 2.631743 1_555
C17 Th0 2.741478 1_555
C17 Th2 2.860990 1_555
