# generated using pymatgen
data_Mo6PbSe8
_symmetry_space_group_name_H-M   'P 1'
_cell_length_a   6.89929053
_cell_length_b   6.89929053
_cell_length_c   6.89929066
_cell_angle_alpha   89.15505924
_cell_angle_beta   89.15505924
_cell_angle_gamma   89.15506038
_symmetry_Int_Tables_number   1
_chemical_formula_structural   Mo6PbSe8
_chemical_formula_sum   'Mo6 Pb1 Se8'
_cell_volume   328.30159671
_cell_formula_units_Z   1
loop_
 _symmetry_equiv_pos_site_id
 _symmetry_equiv_pos_as_xyz
  1  'x, y, z'
loop_
 _atom_site_type_symbol
 _atom_site_label
 _atom_site_symmetry_multiplicity
 _atom_site_fract_x
 _atom_site_fract_y
 _atom_site_fract_z
 _atom_site_occupancy
  Mo  Mo0  1  0.75964300  0.57792900  0.43950100  1
  Mo  Mo1  1  0.43950100  0.75964300  0.57792900  1
  Mo  Mo2  1  0.57792900  0.43950100  0.75964300  1
  Mo  Mo3  1  0.24035700  0.42207100  0.56049900  1
  Mo  Mo4  1  0.56049900  0.24035700  0.42207100  1
  Mo  Mo5  1  0.42207100  0.56049900  0.24035700  1
  Pb  Pb0  1  0.00000000  0.00000000  0.00000000  1
  Se  Se0  1  0.75677800  0.75677800  0.75677800  1
  Se  Se1  1  0.24322200  0.24322200  0.24322200  1
  Se  Se2  1  0.25415900  0.61861200  0.87787000  1
  Se  Se3  1  0.87787000  0.25415900  0.61861200  1
  Se  Se4  1  0.61861200  0.87787000  0.25415900  1
  Se  Se5  1  0.74584100  0.38138800  0.12213000  1
  Se  Se6  1  0.12213000  0.74584100  0.38138800  1
  Se  Se7  1  0.38138800  0.12213000  0.74584100  1
loop_
_geom_bond_atom_site_label_1
_geom_bond_atom_site_label_2
_geom_bond_distance
_geom_bond_site_symmetry_2
Mo0 Se0 2.528301 1_555
Mo0 Se5 2.596115 1_555
Mo0 Se4 2.600674 1_555
Mo0 Se3 2.660217 1_555
Mo0 Se6 2.792759 1_655
Mo1 Se0 2.528301 1_555
Mo1 Se6 2.596115 1_555
Mo1 Se2 2.600674 1_555
Mo1 Se4 2.660217 1_555
Mo1 Se7 2.792760 1_565
Mo2 Se0 2.528301 1_555
Mo2 Se7 2.596115 1_555
Mo2 Se3 2.600674 1_555
Mo2 Se2 2.660217 1_555
Mo2 Se5 2.792760 1_556
Mo3 Se1 2.528301 1_555
Mo3 Se2 2.596115 1_555
Mo3 Se7 2.600674 1_555
Mo3 Se6 2.660217 1_555
Mo3 Se3 2.792759 1_455
Mo4 Se1 2.528301 1_555
Mo4 Se3 2.596115 1_555
Mo4 Se5 2.600674 1_555
Mo4 Se7 2.660217 1_555
Mo4 Se4 2.792760 1_545
Mo5 Se1 2.528301 1_555
Mo5 Se4 2.596115 1_555
Mo5 Se6 2.600674 1_555
Mo5 Se5 2.660217 1_555
Mo5 Se2 2.792760 1_554
Pb0 Se1 2.949033 1_555
Pb0 Se0 2.949033 1_444
Pb0 Se4 3.254892 1_445
Pb0 Se7 3.254892 1_554
Pb0 Se2 3.254892 1_544
Pb0 Se5 3.254892 1_455
Pb0 Se3 3.254892 1_454
Pb0 Se6 3.254892 1_545
