# generated using pymatgen
data_Na10La4Nb4Si9(SO16)3
_symmetry_space_group_name_H-M   'P 1'
_cell_length_a   19.01889231
_cell_length_b   9.42436840
_cell_length_c   23.04345385
_cell_angle_alpha   90.29907717
_cell_angle_beta   88.26759972
_cell_angle_gamma   119.88501830
_symmetry_Int_Tables_number   1
_chemical_formula_structural   Na10La4Nb4Si9(SO16)3
_chemical_formula_sum   'Na30 La12 Nb12 Si27 S9 O144'
_cell_volume   3579.24259384
_cell_formula_units_Z   3
loop_
 _symmetry_equiv_pos_site_id
 _symmetry_equiv_pos_as_xyz
  1  'x, y, z'
loop_
 _atom_site_type_symbol
 _atom_site_label
 _atom_site_symmetry_multiplicity
 _atom_site_fract_x
 _atom_site_fract_y
 _atom_site_fract_z
 _atom_site_occupancy
  Na  Na0  1  0.17961801  0.34879816  0.23988030  1
  Na  Na1  1  0.67976939  0.35018238  0.23953287  1
  Na  Na2  1  0.17944452  0.01167601  0.73835953  1
  Na  Na3  1  0.67659923  0.00815748  0.73910490  1
  Na  Na4  1  0.65581997  0.34779282  0.58096100  1
  Na  Na5  1  0.01789105  0.69853337  0.57315750  1
  Na  Na6  1  0.51255676  0.67132065  0.58025973  1
  Na  Na7  1  0.32299659  0.98470940  0.58552404  1
  Na  Na8  1  0.15538726  0.97084789  0.08158939  1
  Na  Na9  1  0.65545736  0.97077994  0.08098033  1
  Na  Na10  1  0.32318418  0.66651407  0.08278120  1
  Na  Na11  1  0.82361504  0.66785253  0.08238653  1
  Na  Na12  1  0.01794199  0.35878472  0.08070406  1
  Na  Na13  1  0.51788287  0.35920369  0.08052561  1
  Na  Na14  1  0.49265126  0.68311332  0.91083305  1
  Na  Na15  1  0.99245089  0.68232050  0.91242383  1
  Na  Na16  1  0.34791714  0.65922100  0.40694589  1
  Na  Na17  1  0.84658374  0.67266004  0.40580864  1
  Na  Na18  1  0.02505330  0.04374893  0.49859316  1
  Na  Na19  1  0.52128266  0.01560952  0.49571079  1
  Na  Na20  1  0.01768207  0.04302717  0.99300977  1
  Na  Na21  1  0.51808846  0.04363601  0.99237655  1
  Na  Na22  1  0.34828762  0.33432836  0.83323732  1
  Na  Na23  1  0.84651415  0.33097111  0.83558016  1
  Na  Na24  1  0.35203633  0.33618711  0.33642602  1
  Na  Na25  1  0.85563049  0.33554575  0.33184415  1
  Na  Na26  1  0.16707263  0.68592069  0.16463745  1
  Na  Na27  1  0.66735121  0.68646235  0.16323099  1
  Na  Na28  1  0.18044769  0.64676423  0.66714620  1
  Na  Na29  1  0.67595944  0.66919976  0.66169575  1
  La  La0  1  0.00394592  0.99789413  0.35272992  1
  La  La1  1  0.50161161  0.99643169  0.35230603  1
  La  La2  1  0.99585000  0.01255323  0.85105029  1
  La  La3  1  0.49691907  0.01488820  0.85061675  1
  La  La4  1  0.33964687  0.34399871  0.68538383  1
  La  La5  1  0.83808611  0.33427922  0.68690627  1
  La  La6  1  0.34069531  0.34162430  0.18661308  1
  La  La7  1  0.84039116  0.34139022  0.18579701  1
  La  La8  1  0.16793065  0.66556584  0.00848375  1
  La  La9  1  0.66805169  0.66574219  0.00797148  1
  La  La10  1  0.16552097  0.66395265  0.51334621  1
  La  La11  1  0.66653649  0.67700131  0.51450422  1
  Nb  Nb0  1  0.99224440  0.97500422  0.64820867  1
  Nb  Nb1  1  0.48860153  0.97756743  0.64266249  1
  Nb  Nb2  1  0.98969858  -0.00016476  0.14413770  1
  Nb  Nb3  1  0.48916865  0.00007542  0.14370606  1
  Nb  Nb4  1  0.33393691  0.32274547  0.98308732  1
  Nb  Nb5  1  0.83376616  0.32244844  0.98317299  1
  Nb  Nb6  1  0.33472507  0.34016545  0.48429623  1
  Nb  Nb7  1  0.82630464  0.34372000  0.47816515  1
  Nb  Nb8  1  0.15895746  0.63290328  0.31468287  1
  Nb  Nb9  1  0.65806392  0.63903136  0.31364070  1
  Nb  Nb10  1  0.16106518  0.68509991  0.81545616  1
  Nb  Nb11  1  0.65912469  0.68392509  0.81372069  1
  Si  Si0  1  0.34368422  0.71234928  0.25467877  1
  Si  Si1  1  0.84434254  0.71210367  0.25518533  1
  Si  Si2  1  0.00492268  0.29963739  0.25043994  1
  Si  Si3  1  0.50469630  0.29969327  0.25069678  1
  Si  Si4  1  0.00412986  0.70444802  0.75566923  1
  Si  Si5  1  0.50297333  0.71070690  0.75395874  1
  Si  Si6  1  0.34277850  0.97809061  0.75013150  1
  Si  Si7  1  0.84284366  0.97691788  0.75130600  1
  Si  Si8  1  0.47912036  0.31739908  0.57991918  1
  Si  Si9  1  0.18068928  0.04646627  0.58694690  1
  Si  Si10  1  0.67974815  0.04531969  0.58813258  1
  Si  Si11  1  0.33460344  0.63502021  0.58317819  1
  Si  Si12  1  0.83709864  0.63695775  0.58294290  1
  Si  Si13  1  0.48069699  0.64070186  0.07815638  1
  Si  Si14  1  0.98066418  0.64092164  0.07808400  1
  Si  Si15  1  0.33505954  0.03592926  0.08276930  1
  Si  Si16  1  0.83522603  0.03552189  0.08285995  1
  Si  Si17  1  0.18140866  0.31896329  0.08738545  1
  Si  Si18  1  0.68131912  0.31926958  0.08749172  1
  Si  Si19  1  0.01114070  0.37559573  0.92169417  1
  Si  Si20  1  0.51125307  0.37644092  0.92157819  1
  Si  Si21  1  0.17426392  0.98720583  0.92063901  1
  Si  Si22  1  0.67413137  0.98625803  0.92017471  1
  Si  Si23  1  0.17682182  0.36124112  0.41801963  1
  Si  Si24  1  0.67073465  0.36793835  0.41952939  1
  Si  Si25  1  0.01208769  0.64458551  0.42096645  1
  Si  Si26  1  0.51127813  0.64624786  0.42096129  1
  S  S0  1  0.14296483  0.97219188  0.24418284  1
  S  S1  1  0.64355282  0.97263174  0.24530159  1
  S  S2  1  0.14077175  0.30775888  0.74649320  1
  S  S3  1  0.64477095  0.31650367  0.74588807  1
  S  S4  1  0.97759823  0.30687386  0.58046960  1
  S  S5  1  0.31343602  0.64077128  0.91604499  1
  S  S6  1  0.81388693  0.64059396  0.91661952  1
  S  S7  1  0.30991756  0.97662954  0.41603732  1
  S  S8  1  0.81147870  0.98131477  0.41392646  1
  O  O0  1  0.10484905  0.98766331  0.29802892  1
  O  O1  1  0.60503096  0.98831152  0.29894488  1
  O  O2  1  0.39021203  0.77954616  0.31354201  1
  O  O3  1  0.89068879  0.78079525  0.31398807  1
  O  O4  1  0.51069651  0.20946717  0.30621349  1
  O  O5  1  0.00918788  0.20699690  0.30584361  1
  O  O6  1  0.10863930  0.22164518  0.80221897  1
  O  O7  1  0.60848984  0.21798607  0.79881593  1
  O  O8  1  0.50746270  0.79900814  0.81370691  1
  O  O9  1  0.00362909  0.79103557  0.81455670  1
  O  O10  1  0.39611529  0.00755675  0.80477712  1
  O  O11  1  0.89468323  0.00936374  0.80702847  1
  O  O12  1  0.39785893  0.96397146  0.69065139  1
  O  O13  1  0.90290652  0.96812139  0.69384285  1
  O  O14  1  0.08713730  0.20995628  0.69780035  1
  O  O15  1  0.59630698  0.23153297  0.69397266  1
  O  O16  1  0.01265609  0.83276342  0.69759450  1
  O  O17  1  0.51276478  0.83799444  0.69632148  1
  O  O18  1  0.40291638  0.84150341  0.19676040  1
  O  O19  1  0.90328625  0.84068601  0.19718923  1
  O  O20  1  0.01464093  0.19810392  0.19122505  1
  O  O21  1  0.51476539  0.19846528  0.19149888  1
  O  O22  1  0.09418499  0.96438220  0.19253671  1
  O  O23  1  0.59550355  0.96289757  0.19337987  1
  O  O24  1  0.44611098  0.36819299  0.63606467  1
  O  O25  1  0.94345355  0.32402617  0.63617997  1
  O  O26  1  0.23089550  0.10706337  0.64503325  1
  O  O27  1  0.72453513  0.11848968  0.64728554  1
  O  O28  1  0.31836965  0.53303630  0.64076021  1
  O  O29  1  0.83024559  0.52609113  0.63638285  1
  O  O30  1  0.44542530  0.51665781  0.13239622  1
  O  O31  1  0.94540731  0.51680392  0.13230606  1
  O  O32  1  0.30881345  0.10437240  0.13686289  1
  O  O33  1  0.80859458  0.10372722  0.13690830  1
  O  O34  1  0.23012340  0.35411385  0.14596290  1
  O  O35  1  0.72978876  0.35418213  0.14624559  1
  O  O36  1  0.24150657  0.30249895  0.03287709  1
  O  O37  1  0.74152359  0.30254708  0.03316076  1
  O  O38  1  0.41683299  0.53852999  0.02295370  1
  O  O39  1  0.91690775  0.53828689  0.02286026  1
  O  O40  1  0.35099604  0.16878381  0.02606860  1
  O  O41  1  0.85100312  0.16870314  0.02623498  1
  O  O42  1  0.23965591  0.17588022  0.53137236  1
  O  O43  1  0.74042405  0.17865145  0.53164546  1
  O  O44  1  0.34824624  0.53327513  0.52593430  1
  O  O45  1  0.84912635  0.53530676  0.52321137  1
  O  O46  1  0.41244274  0.29905359  0.52730138  1
  O  O47  1  0.92705337  0.29843723  0.53132278  1
  O  O48  1  0.28647360  0.65731689  0.97523363  1
  O  O49  1  0.78657808  0.65645391  0.97578105  1
  O  O50  1  0.05077742  0.44552859  0.98320483  1
  O  O51  1  0.55084811  0.44536762  0.98322160  1
  O  O52  1  0.16503777  0.88996294  0.97949278  1
  O  O53  1  0.66556851  0.89030860  0.97931534  1
  O  O54  1  0.27921870  0.90306422  0.47452521  1
  O  O55  1  0.78153011  0.89739566  0.47025705  1
  O  O56  1  0.17286038  0.46201972  0.47228436  1
  O  O57  1  0.67299811  0.45658761  0.47861926  1
  O  O58  1  0.05533316  0.67084663  0.48158493  1
  O  O59  1  0.55458901  0.67202967  0.48160406  1
  O  O60  1  0.07399132  0.63543950  0.36618541  1
  O  O61  1  0.57447018  0.64123945  0.36527400  1
  O  O62  1  0.25514932  0.87088654  0.37008727  1
  O  O63  1  0.75800979  0.88500820  0.36613561  1
  O  O64  1  0.18005930  0.48759710  0.35830859  1
  O  O65  1  0.67930133  0.49632618  0.36228443  1
  O  O66  1  0.07542052  0.51438434  0.86754291  1
  O  O67  1  0.57491331  0.51479718  0.86738422  1
  O  O68  1  0.18047270  0.86590498  0.86281398  1
  O  O69  1  0.67963005  0.86560553  0.86223285  1
  O  O70  1  0.25973851  0.64428845  0.87129613  1
  O  O71  1  0.76097308  0.64419526  0.87162938  1
  O  O72  1  0.98473996  0.77960712  0.41305458  1
  O  O73  1  0.48726715  0.78723605  0.41411639  1
  O  O74  1  0.39136236  0.99368034  0.40980495  1
  O  O75  1  0.89427282  0.00664381  0.40627736  1
  O  O76  1  0.10175191  0.17954895  0.41581496  1
  O  O77  1  0.59962905  0.18329472  0.41610802  1
  O  O78  1  0.99431645  0.19203034  0.91707925  1
  O  O79  1  0.49427698  0.19286160  0.91690432  1
  O  O80  1  0.09321388  0.99707666  0.91297930  1
  O  O81  1  0.59329249  0.99769727  0.91346950  1
  O  O82  1  0.39840194  0.77634001  0.90908686  1
  O  O83  1  0.89907529  0.77634118  0.91031126  1
  O  O84  1  0.47332732  0.13412391  0.58790290  1
  O  O85  1  0.98431717  0.15442616  0.58250211  1
  O  O86  1  0.08927522  0.03677024  0.59467071  1
  O  O87  1  0.59206324  0.05367229  0.59073708  1
  O  O88  1  0.43054294  0.80552035  0.58859677  1
  O  O89  1  0.92819381  0.81364668  0.58994140  1
  O  O90  1  0.47495722  0.81298802  0.09073883  1
  O  O91  1  0.97469758  0.81270757  0.09053502  1
  O  O92  1  0.42818244  0.05226232  0.09026037  1
  O  O93  1  0.92808528  0.05144653  0.09051323  1
  O  O94  1  0.09283792  0.13846573  0.09147421  1
  O  O95  1  0.59289977  0.13847655  0.09170837  1
  O  O96  1  0.31587470  0.11442613  0.74480950  1
  O  O97  1  0.81515082  0.11195007  0.74494509  1
  O  O98  1  0.22200761  0.32609197  0.73927611  1
  O  O99  1  0.72749439  0.33926447  0.74116444  1
  O  O100  1  0.43029213  0.52660725  0.75237287  1
  O  O101  1  0.93329036  0.52006659  0.75021805  1
  O  O102  1  0.31857648  0.52379921  0.24545121  1
  O  O103  1  0.81922339  0.52284360  0.24654449  1
  O  O104  1  0.43112347  0.33511477  0.25170363  1
  O  O105  1  0.93128500  0.33521631  0.25080435  1
  O  O106  1  0.22418401  0.11972123  0.24087728  1
  O  O107  1  0.72515463  0.11923257  0.24212370  1
  O  O108  1  0.31379904  0.48222822  0.91328031  1
  O  O109  1  0.81456359  0.48210137  0.91398424  1
  O  O110  1  0.42538934  0.38576723  0.92044251  1
  O  O111  1  0.92546564  0.38517559  0.92034458  1
  O  O112  1  0.26168659  0.16326661  0.92324769  1
  O  O113  1  0.76164987  0.16314808  0.92320797  1
  O  O114  1  0.31550183  0.14007892  0.41486981  1
  O  O115  1  0.81515943  0.14445880  0.41694967  1
  O  O116  1  0.26669349  0.37060256  0.41936351  1
  O  O117  1  0.76313473  0.37327800  0.42002423  1
  O  O118  1  0.42339448  0.46837604  0.42305806  1
  O  O119  1  0.92294722  0.46327373  0.42593498  1
  O  O120  1  0.16250347  0.46629725  0.07673258  1
  O  O121  1  0.66249832  0.46668316  0.07691355  1
  O  O122  1  0.07556984  0.69125740  0.07347853  1
  O  O123  1  0.57562504  0.69102756  0.07344167  1
  O  O124  1  0.27148259  0.84444956  0.07443608  1
  O  O125  1  0.77119386  0.84423544  0.07451389  1
  O  O126  1  0.16028920  0.85884351  0.57707877  1
  O  O127  1  0.65420837  0.85539036  0.58180916  1
  O  O128  1  0.27352939  0.70552097  0.57648593  1
  O  O129  1  0.76130985  0.66491916  0.57940941  1
  O  O130  1  0.06030047  0.45300847  0.57589419  1
  O  O131  1  0.57293414  0.45802353  0.57273300  1
  O  O132  1  0.14824566  0.81995325  0.24682654  1
  O  O133  1  0.64902173  0.81962638  0.24863366  1
  O  O134  1  0.25446680  0.71290631  0.26090531  1
  O  O135  1  0.75456233  0.71057886  0.26141764  1
  O  O136  1  0.09542565  0.48392450  0.25408247  1
  O  O137  1  0.59561101  0.48471802  0.25455623  1
  O  O138  1  0.14541848  0.47067662  0.74896902  1
  O  O139  1  0.64876178  0.47844091  0.75186369  1
  O  O140  1  0.09656745  0.71086285  0.75661740  1
  O  O141  1  0.59509783  0.70995213  0.75554139  1
  O  O142  1  0.25409164  0.79650772  0.75987015  1
  O  O143  1  0.75436266  0.79720780  0.75978108  1
loop_
_geom_bond_atom_site_label_1
_geom_bond_atom_site_label_2
_geom_bond_distance
_geom_bond_site_symmetry_2
Na0 O102 2.322901 1_555
Na0 O34 2.331597 1_555
Na0 O136 2.507762 1_555
Na0 O106 2.684219 1_555
Na1 O35 2.317094 1_555
Na1 O103 2.330408 1_555
Na1 O137 2.504725 1_555
Na1 O107 2.713434 1_555
Na2 O96 2.282641 1_555
Na2 O26 2.325278 1_555
Na2 O140 2.493574 1_545
Na2 O98 2.654459 1_555
Na2 O16 2.936234 1_545
Na3 O27 2.313178 1_555
Na3 O97 2.317352 1_555
Na3 O141 2.465554 1_545
Na3 O99 2.769077 1_555
Na3 O17 2.905600 1_545
Na4 O131 2.291784 1_555
Na4 O87 2.417658 1_555
Na4 O57 2.522792 1_555
Na4 O129 2.642028 1_555
Na4 O15 2.806974 1_555
Na5 O58 2.261961 1_555
Na5 O126 2.358242 1_555
Na5 O89 2.456986 1_455
Na5 O86 2.821651 1_565
Na6 O127 2.369910 1_555
Na6 O59 2.385843 1_555
Na6 O88 2.452501 1_555
Na6 O131 2.770231 1_555
Na6 O24 2.784659 1_555
Na7 O128 2.321827 1_555
Na7 O84 2.481346 1_565
Na7 O54 2.701372 1_555
Na7 O126 2.719745 1_555
Na7 O26 2.851231 1_565
Na7 O46 2.889931 1_565
Na7 O12 2.902531 1_555
Na8 O122 2.303987 1_555
Na8 O94 2.411444 1_565
Na8 O52 2.498874 1_554
Na8 O22 2.765117 1_555
Na8 O32 2.875643 1_565
Na8 O36 2.921635 1_565
Na8 O124 2.986385 1_555
Na8 O91 2.988286 1_455
Na9 O123 2.304041 1_555
Na9 O95 2.413797 1_565
Na9 O53 2.489977 1_554
Na9 O23 2.784459 1_555
Na9 O33 2.878724 1_565
Na9 O37 2.914881 1_565
Na9 O125 2.980606 1_555
Na9 O90 2.986037 1_555
Na10 O124 2.339651 1_555
Na10 O90 2.515938 1_555
Na10 O48 2.584351 1_554
Na10 O120 2.682449 1_555
Na10 O38 2.915953 1_555
Na10 O34 2.935406 1_555
Na11 O125 2.335756 1_555
Na11 O91 2.505271 1_555
Na11 O49 2.562980 1_554
Na11 O121 2.689159 1_555
Na11 O39 2.918080 1_555
Na11 O35 2.952690 1_555
Na12 O50 2.351945 1_554
Na12 O120 2.409122 1_555
Na12 O93 2.532177 1_455
Na12 O31 2.732117 1_455
Na12 O122 2.760251 1_555
Na12 O20 2.952805 1_555
Na13 O51 2.346637 1_554
Na13 O121 2.410091 1_555
Na13 O92 2.528723 1_555
Na13 O30 2.729362 1_555
Na13 O123 2.753975 1_555
Na13 O21 2.963003 1_555
Na14 O82 2.358144 1_555
Na14 O110 2.440363 1_555
Na14 O8 2.441784 1_555
Na14 O81 2.609076 1_555
Na14 O67 2.885880 1_555
Na14 O38 2.909418 1_556
Na14 O108 2.954681 1_555
Na15 O83 2.348434 1_555
Na15 O111 2.436108 1_555
Na15 O9 2.441091 1_655
Na15 O80 2.609261 1_655
Na15 O39 2.873071 1_556
Na15 O66 2.904752 1_655
Na15 O109 2.939325 1_555
Na16 O73 2.311905 1_555
Na16 O2 2.361648 1_555
Na16 O116 2.379289 1_555
Na16 O118 2.836463 1_555
Na17 O3 2.298348 1_555
Na17 O72 2.309448 1_555
Na17 O117 2.470382 1_555
Na17 O75 2.808092 1_565
Na18 O76 2.324048 1_555
Na18 O85 2.473970 1_455
Na18 O86 2.577384 1_555
Na18 O89 2.891266 1_445
Na18 O72 2.967864 1_445
Na19 O77 2.366615 1_555
Na19 O87 2.534679 1_555
Na19 O73 2.688827 1_545
Na19 O84 2.732357 1_555
Na19 O88 2.809932 1_545
Na20 O78 2.434217 1_455
Na20 O80 2.470540 1_545
Na20 O94 2.625629 1_556
Na20 O93 2.803496 1_456
Na20 O91 2.932891 1_446
Na21 O79 2.432154 1_555
Na21 O81 2.447651 1_545
Na21 O95 2.640239 1_556
Na21 O92 2.814512 1_556
Na21 O90 2.949159 1_546
Na22 O110 2.425496 1_555
Na22 O100 2.496312 1_555
Na22 O108 2.566374 1_555
Na22 O112 2.606953 1_555
Na22 O96 2.754253 1_555
Na23 O111 2.394460 1_555
Na23 O109 2.536005 1_555
Na23 O113 2.544869 1_555
Na23 O101 2.584239 1_555
Na23 O97 2.789594 1_555
Na24 O118 2.414971 1_555
Na24 O114 2.417706 1_555
Na24 O104 2.431341 1_555
Na24 O116 2.592852 1_555
Na25 O105 2.323702 1_555
Na25 O115 2.499176 1_555
Na25 O119 2.528628 1_555
Na25 O117 2.783838 1_555
Na25 O103 2.965693 1_555
Na26 O132 2.386525 1_555
Na26 O136 2.648617 1_555
Na26 O124 2.705946 1_555
Na26 O134 2.746678 1_555
Na26 O122 2.784431 1_555
Na26 O120 2.860505 1_555
Na27 O133 2.436831 1_555
Na27 O125 2.674322 1_555
Na27 O137 2.681106 1_555
Na27 O123 2.760471 1_555
Na27 O135 2.787086 1_555
Na27 O121 2.834189 1_555
Na28 O138 2.368087 1_555
Na28 O128 2.572285 1_555
Na28 O142 2.588141 1_555
Na28 O140 2.812318 1_555
Na28 O130 3.011621 1_555
Na28 O126 3.050318 1_555
Na29 O129 2.471926 1_555
Na29 O139 2.619937 1_555
Na29 O143 2.677718 1_555
Na29 O127 2.728025 1_555
Na29 O141 2.751001 1_555
Na29 O131 2.883918 1_555
La0 O5 2.209228 1_565
La0 O0 2.306043 1_555
La0 O3 2.308326 1_455
La0 O76 2.338450 1_565
La0 O72 2.355468 1_455
La0 O75 2.427940 1_465
La1 O4 2.203271 1_565
La1 O2 2.290098 1_555
La1 O1 2.321508 1_555
La1 O73 2.336645 1_555
La1 O77 2.367536 1_565
La1 O74 2.435380 1_555
La2 O11 2.189083 1_555
La2 O78 2.279597 1_555
La2 O9 2.317186 1_645
La2 O6 2.327155 1_655
La2 O80 2.432665 1_645
La2 O83 2.450478 1_545
La3 O10 2.187646 1_555
La3 O79 2.280714 1_555
La3 O8 2.298069 1_545
La3 O7 2.326899 1_555
La3 O81 2.437707 1_545
La3 O82 2.462029 1_545
La4 O24 2.201591 1_555
La4 O28 2.271078 1_555
La4 O100 2.343776 1_555
La4 O26 2.370832 1_555
La4 O96 2.404030 1_555
La4 O98 2.456512 1_555
La5 O29 2.224089 1_555
La5 O27 2.314411 1_555
La5 O25 2.332755 1_555
La5 O101 2.333768 1_555
La5 O97 2.335051 1_555
La5 O99 2.434812 1_555
La6 O30 2.201409 1_555
La6 O32 2.312057 1_555
La6 O104 2.339537 1_555
La6 O102 2.371475 1_555
La6 O34 2.383411 1_555
La6 O106 2.467618 1_555
La7 O31 2.196251 1_555
La7 O33 2.305802 1_555
La7 O105 2.343820 1_555
La7 O35 2.374831 1_555
La7 O103 2.381804 1_555
La7 O107 2.480993 1_555
La8 O52 2.248249 1_554
La8 O50 2.250686 1_554
La8 O122 2.376631 1_555
La8 O48 2.397023 1_554
La8 O120 2.416333 1_555
La8 O124 2.424068 1_555
La9 O53 2.243544 1_554
La9 O51 2.249132 1_554
La9 O123 2.382482 1_555
La9 O49 2.394652 1_554
La9 O121 2.424442 1_555
La9 O125 2.428084 1_555
La10 O56 2.185059 1_555
La10 O58 2.271684 1_555
La10 O54 2.366962 1_555
La10 O126 2.384412 1_555
La10 O128 2.421348 1_555
La10 O130 2.434195 1_555
La11 O59 2.260070 1_555
La11 O57 2.290025 1_555
La11 O131 2.334935 1_555
La11 O55 2.344664 1_555
La11 O127 2.372855 1_555
La11 O129 2.422429 1_555
Nb0 O13 1.944176 1_555
Nb0 O16 1.950397 1_655
Nb0 O89 1.957241 1_555
Nb0 O86 2.016378 1_665
Nb0 O85 2.338611 1_565
Nb0 O14 2.362631 1_665
Nb1 O88 1.917919 1_555
Nb1 O12 1.970651 1_555
Nb1 O17 2.030781 1_555
Nb1 O87 2.068398 1_565
Nb1 O84 2.079019 1_565
Nb1 O15 2.560047 1_565
Nb2 O93 1.948974 1_555
Nb2 O19 1.971381 1_545
Nb2 O20 2.005124 1_655
Nb2 O91 2.052902 1_545
Nb2 O94 2.084757 1_655
Nb2 O22 2.470642 1_645
Nb3 O92 1.940410 1_555
Nb3 O18 1.968199 1_545
Nb3 O21 2.012345 1_555
Nb3 O90 2.047968 1_545
Nb3 O95 2.082838 1_555
Nb3 O23 2.524535 1_545
Nb4 O40 1.922282 1_556
Nb4 O36 1.997282 1_556
Nb4 O112 2.020743 1_555
Nb4 O110 2.071119 1_555
Nb4 O38 2.082846 1_556
Nb4 O108 2.372656 1_555
Nb5 O41 1.923440 1_556
Nb5 O37 1.997987 1_556
Nb5 O113 2.021249 1_555
Nb5 O111 2.077503 1_555
Nb5 O39 2.082589 1_556
Nb5 O109 2.355223 1_555
Nb6 O44 1.956839 1_555
Nb6 O42 1.988074 1_555
Nb6 O46 1.995055 1_555
Nb6 O118 2.034345 1_555
Nb6 O116 2.118173 1_555
Nb6 O114 2.359191 1_555
Nb7 O117 1.936678 1_555
Nb7 O45 1.937192 1_555
Nb7 O119 1.978153 1_555
Nb7 O43 1.993207 1_555
Nb7 O115 2.270477 1_555
Nb7 O47 2.513245 1_555
Nb8 O64 1.906155 1_555
Nb8 O136 1.942244 1_555
Nb8 O134 1.978025 1_555
Nb8 O60 1.985605 1_555
Nb8 O132 2.449484 1_555
Nb8 O62 2.455537 1_555
Nb9 O137 1.932683 1_555
Nb9 O65 1.952646 1_555
Nb9 O61 1.965216 1_555
Nb9 O135 1.978094 1_555
Nb9 O133 2.346102 1_555
Nb9 O63 2.483757 1_555
Nb10 O68 1.899698 1_555
Nb10 O140 1.950079 1_555
Nb10 O142 1.974641 1_555
Nb10 O66 1.993175 1_555
Nb10 O138 2.432179 1_555
Nb10 O70 2.489168 1_555
Nb11 O69 1.916879 1_555
Nb11 O141 1.933947 1_555
Nb11 O143 1.978960 1_555
Nb11 O67 1.997941 1_555
Nb11 O139 2.329954 1_555
Nb11 O71 2.560716 1_555
O0 S0 1.461304 1_555
O1 S1 1.462134 1_555
O2 Si0 1.590322 1_555
O3 Si1 1.589510 1_555
O4 Si3 1.577833 1_555
O5 Si2 1.577106 1_555
O6 S2 1.466373 1_555
O7 S3 1.465677 1_555
O8 Si5 1.587372 1_555
O9 Si4 1.582016 1_555
O10 Si6 1.576276 1_545
O11 Si7 1.576810 1_545
O12 Si6 1.744682 1_555
O13 Si7 1.751265 1_555
O14 S2 1.506842 1_555
O15 S3 1.497711 1_555
O16 Si4 1.757251 1_555
O17 Si5 1.736895 1_555
O18 Si0 1.758270 1_555
O19 Si1 1.756081 1_555
O20 Si2 1.720194 1_555
O21 Si3 1.720559 1_555
O22 S0 1.510054 1_555
O23 S1 1.502149 1_555
O24 Si8 1.594076 1_555
O25 S4 1.465578 1_555
O26 Si9 1.598563 1_555
O27 Si10 1.591899 1_555
O28 Si11 1.572439 1_555
O29 Si12 1.578975 1_555
O30 Si13 1.600595 1_555
O31 Si14 1.600635 1_555
O32 Si15 1.579195 1_555
O33 Si16 1.580772 1_555
O34 Si17 1.598521 1_555
O35 Si18 1.599883 1_555
O36 Si17 1.730925 1_555
O37 Si18 1.730445 1_555
O38 Si13 1.713408 1_555
O39 Si14 1.713757 1_555
O40 Si15 1.726747 1_555
O41 Si16 1.728046 1_555
O42 Si9 1.718046 1_555
O43 Si10 1.756758 1_555
O44 Si11 1.714887 1_555
O45 Si12 1.746482 1_555
O46 Si8 1.726410 1_555
O47 S4 1.483825 1_555
O48 S5 1.477397 1_555
O49 S6 1.477523 1_555
O50 Si19 1.603583 1_555
O51 Si20 1.604488 1_555
O52 Si21 1.596331 1_555
O53 Si22 1.598168 1_555
O54 S7 1.482168 1_555
O55 S8 1.466959 1_555
O56 Si23 1.588893 1_555
O57 Si24 1.584212 1_555
O58 Si25 1.597482 1_555
O59 Si26 1.599045 1_555
O60 Si25 1.731243 1_555
O61 Si26 1.748135 1_555
O62 S7 1.490141 1_555
O63 S8 1.486003 1_555
O64 Si23 1.803886 1_555
O65 Si24 1.742951 1_555
O66 Si19 1.758925 1_555
O67 Si20 1.754426 1_555
O68 Si21 1.790376 1_555
O69 Si22 1.783476 1_555
O70 S5 1.484977 1_555
O71 S6 1.478584 1_555
O72 Si25 1.609570 1_655
O73 Si26 1.615593 1_555
O74 S7 1.478026 1_555
O75 S8 1.475351 1_545
O76 Si23 1.593841 1_555
O77 Si24 1.588425 1_555
O78 Si19 1.598454 1_655
O79 Si20 1.597704 1_555
O80 Si21 1.604835 1_555
O81 Si22 1.605929 1_555
O82 S5 1.482714 1_555
O83 S6 1.484918 1_555
O84 Si8 1.685775 1_555
O85 S4 1.505562 1_555
O86 Si9 1.698788 1_555
O87 Si10 1.707524 1_555
O88 Si11 1.736917 1_555
O89 Si12 1.714539 1_555
O90 Si13 1.703570 1_555
O91 Si14 1.700745 1_555
O92 Si15 1.713710 1_555
O93 Si16 1.710874 1_555
O94 Si17 1.696079 1_555
O95 Si18 1.696180 1_555
O96 Si6 1.608839 1_545
O97 Si7 1.610255 1_545
O98 S2 1.470827 1_555
O99 S3 1.478762 1_555
O100 Si5 1.592112 1_555
O101 Si4 1.589161 1_655
O102 Si0 1.608556 1_555
O103 Si1 1.613133 1_555
O104 Si3 1.591662 1_555
O105 Si2 1.594099 1_655
O106 S0 1.476071 1_545
O107 S1 1.476573 1_545
O108 S5 1.498634 1_555
O109 S6 1.501044 1_555
O110 Si20 1.679539 1_555
O111 Si19 1.677469 1_655
O112 Si21 1.666447 1_545
O113 Si22 1.671891 1_545
O114 S7 1.490666 1_545
O115 S8 1.505214 1_545
O116 Si23 1.668295 1_555
O117 Si24 1.733208 1_555
O118 Si26 1.676295 1_555
O119 Si25 1.706049 1_655
O120 Si17 1.619866 1_555
O121 Si18 1.619265 1_555
O122 Si14 1.621724 1_455
O123 Si13 1.622246 1_555
O124 Si15 1.609791 1_565
O125 Si16 1.610200 1_565
O126 Si9 1.626758 1_565
O127 Si10 1.611295 1_565
O128 Si11 1.611041 1_555
O129 Si12 1.593612 1_555
O130 S4 1.488179 1_455
O131 Si8 1.611004 1_555
O132 S0 1.489025 1_555
O133 S1 1.499039 1_555
O134 Si0 1.701161 1_555
O135 Si1 1.702116 1_555
O136 Si2 1.736195 1_555
O137 Si3 1.743957 1_555
O138 S2 1.494215 1_555
O139 S3 1.495620 1_555
O140 Si4 1.729538 1_555
O141 Si5 1.757140 1_555
O142 Si6 1.711323 1_555
O143 Si7 1.697602 1_555
