# generated using pymatgen
data_MgV(TeO3)4
_symmetry_space_group_name_H-M   'P 1'
_cell_length_a   6.03388543
_cell_length_b   13.94912872
_cell_length_c   12.67870830
_cell_angle_alpha   22.34836457
_cell_angle_beta   41.94522319
_cell_angle_gamma   46.37820911
_symmetry_Int_Tables_number   1
_chemical_formula_structural   MgV(TeO3)4
_chemical_formula_sum   'Mg1 V1 Te4 O12'
_cell_volume   271.21251505
_cell_formula_units_Z   1
loop_
 _symmetry_equiv_pos_site_id
 _symmetry_equiv_pos_as_xyz
  1  'x, y, z'
loop_
 _atom_site_type_symbol
 _atom_site_label
 _atom_site_symmetry_multiplicity
 _atom_site_fract_x
 _atom_site_fract_y
 _atom_site_fract_z
 _atom_site_occupancy
  Mg  Mg0  1  0.68164411  0.49846871  0.65810788  1
  V  V0  1  0.32068894  0.01867072  0.28826080  1
  Te  Te0  1  0.03904268  0.95581180  0.00249093  1
  Te  Te1  1  0.95259006  0.52122479  0.98045519  1
  Te  Te2  1  0.48343528  0.98902771  0.53026537  1
  Te  Te3  1  0.55632260  0.47721514  0.42357783  1
  O  O0  1  0.35997738  0.31416762  0.07246644  1
  O  O1  1  0.14633175  0.11361469  0.60329517  1
  O  O2  1  0.12910076  0.34537408  0.70140310  1
  O  O3  1  0.86890089  0.19993709  0.24960185  1
  O  O4  1  0.44722582  0.81636098  0.07621356  1
  O  O5  1  0.70146498  0.37092942  0.33560118  1
  O  O6  1  0.19027589  0.68208297  0.61650250  1
  O  O7  1  0.52323345  0.17946318  0.95118229  1
  O  O8  1  0.13074778  0.80745672  0.70256352  1
  O  O9  1  0.87821466  0.66477562  0.28889247  1
  O  O10  1  0.76474240  0.85830259  0.32287379  1
  O  O11  1  0.54160957  0.68711518  0.91030614  1
loop_
_geom_bond_atom_site_label_1
_geom_bond_atom_site_label_2
_geom_bond_distance
_geom_bond_site_symmetry_2
Mg0 O9 2.037449 1_555
Mg0 O2 2.057192 1_655
Mg0 O10 2.085667 1_555
Mg0 O7 2.126409 1_555
Mg0 O0 2.170140 1_556
Mg0 O6 2.231193 1_555
O0 Te1 1.995590 1_454
O0 V0 2.013595 1_555
O1 Te2 1.819990 1_545
O1 Te0 2.713830 1_546
O2 Te3 1.867042 1_555
O2 Te0 2.648319 1_546
O3 V0 2.061401 1_655
O3 Te1 2.062762 1_554
O3 Te2 2.119423 1_545
O4 Te3 1.919811 1_555
O4 Te0 2.043127 1_555
O5 Te1 1.933415 1_554
O5 Te3 2.005888 1_555
O6 Te1 1.956452 1_455
O6 V0 2.016241 1_565
O7 V0 1.752225 1_556
O7 Te0 2.388099 1_646
O8 Te1 1.943487 1_455
O8 V0 2.159232 1_565
O8 Te2 2.450025 1_555
O9 Te0 1.879838 1_655
O10 Te0 1.993643 1_655
O10 V0 2.009692 1_565
O11 Te1 1.962491 1_555
O11 Te2 2.004076 1_555
