# generated using pymatgen
data_NaIn2Ga2PS5O24
_symmetry_space_group_name_H-M   'P 1'
_cell_length_a   8.65072790
_cell_length_b   8.65089416
_cell_length_c   22.82027055
_cell_angle_alpha   89.89437033
_cell_angle_beta   90.25705056
_cell_angle_gamma   119.77270182
_symmetry_Int_Tables_number   1
_chemical_formula_structural   NaIn2Ga2PS5O24
_chemical_formula_sum   'Na3 In6 Ga6 P3 S15 O72'
_cell_volume   1482.35021034
_cell_formula_units_Z   3
loop_
 _symmetry_equiv_pos_site_id
 _symmetry_equiv_pos_as_xyz
  1  'x, y, z'
loop_
 _atom_site_type_symbol
 _atom_site_label
 _atom_site_symmetry_multiplicity
 _atom_site_fract_x
 _atom_site_fract_y
 _atom_site_fract_z
 _atom_site_occupancy
  Na  Na0  1  0.99860262  0.98904626  0.99592042  1
  Na  Na1  1  0.65494736  0.33134355  0.83726924  1
  Na  Na2  1  0.67439767  0.33180595  0.33411234  1
  In  In0  1  0.99899354  0.99200642  0.84939756  1
  In  In1  1  0.00071855  0.00533405  0.15444337  1
  In  In2  1  0.67358787  0.33433184  0.18840136  1
  In  In3  1  0.66040528  0.33395612  0.98075185  1
  In  In4  1  0.33888237  0.67229824  0.01613722  1
  In  In5  1  0.34064058  0.67297115  0.81227735  1
  Ga  Ga0  1  0.99719575  0.00542103  0.35367822  1
  Ga  Ga1  1  0.00112597  0.00056668  0.64564599  1
  Ga  Ga2  1  0.66533271  0.33276041  0.67952379  1
  Ga  Ga3  1  0.66626893  0.33319348  0.48437751  1
  Ga  Ga4  1  0.33295067  0.66742550  0.51811078  1
  Ga  Ga5  1  0.32710426  0.65935906  0.31631394  1
  P  P0  1  0.00658054  0.29783600  0.25708962  1
  P  P1  1  0.63203838  0.66737199  0.91507022  1
  P  P2  1  0.33300814  0.96477102  0.91517721  1
  S  S0  1  0.28995269  0.99194521  0.25696747  1
  S  S1  1  0.70144917  0.70975150  0.25689469  1
  S  S2  1  0.29702041  0.28883570  0.74376831  1
  S  S3  1  0.98987019  0.69813176  0.74276866  1
  S  S4  1  0.71393165  0.01184336  0.74304583  1
  S  S5  1  0.95870720  0.33430769  0.58211815  1
  S  S6  1  0.37539634  0.04151089  0.58221657  1
  S  S7  1  0.66596722  0.62473833  0.58222244  1
  S  S8  1  0.96623527  0.63419593  0.08420319  1
  S  S9  1  0.66902410  0.03655796  0.08406390  1
  S  S10  1  0.36660019  0.33181458  0.08546975  1
  S  S11  1  0.03690240  0.36974142  0.91525732  1
  S  S12  1  0.62047136  0.95507925  0.41751604  1
  S  S13  1  0.33636878  0.37711695  0.41836628  1
  S  S14  1  0.04144307  0.66739606  0.41758488  1
  O  O0  1  0.19966930  0.02046500  0.30733433  1
  O  O1  1  0.82469418  0.79511251  0.30702334  1
  O  O2  1  0.97095279  0.17164396  0.30978443  1
  O  O3  1  0.22678253  0.18288053  0.79787847  1
  O  O4  1  0.95196111  0.76595901  0.79702786  1
  O  O5  1  0.81914230  0.04726509  0.79760193  1
  O  O6  1  0.80430753  0.98666438  0.69194401  1
  O  O7  1  0.18297416  0.19941416  0.69200948  1
  O  O8  1  0.01726099  0.81553987  0.69178983  1
  O  O9  1  0.77166854  0.80579366  0.20105388  1
  O  O10  1  0.03701876  0.22671072  0.19927911  1
  O  O11  1  0.18965086  0.95855007  0.20136260  1
  O  O12  1  0.88019255  0.37286626  0.63415601  1
  O  O13  1  0.49281462  0.11953387  0.63454047  1
  O  O14  1  0.62739333  0.50757071  0.63444312  1
  O  O15  1  0.88309875  0.53230020  0.13816936  1
  O  O16  1  0.65060116  0.12041739  0.13786973  1
  O  O17  1  0.47162730  0.35151843  0.13919970  1
  O  O18  1  0.44738420  0.30461200  0.03262029  1
  O  O19  1  0.85650917  0.55292463  0.03137232  1
  O  O20  1  0.69564250  0.14564281  0.03138830  1
  O  O21  1  0.45370320  0.15950471  0.52999393  1
  O  O22  1  0.70514066  0.54566772  0.53003970  1
  O  O23  1  0.84016882  0.29464155  0.52957482  1
  O  O24  1  0.54981799  0.68391689  0.97219529  1
  O  O25  1  0.13778455  0.44794452  0.96960858  1
  O  O26  1  0.30343872  0.85759551  0.97150149  1
  O  O27  1  0.54061701  0.84475519  0.47087109  1
  O  O28  1  0.30355543  0.45721495  0.47121299  1
  O  O29  1  0.15329788  0.69965693  0.47100755  1
  O  O30  1  0.11981991  0.62910845  0.36589376  1
  O  O31  1  0.50479697  0.87630291  0.36540952  1
  O  O32  1  0.37511198  0.49299058  0.36631775  1
  O  O33  1  0.11802050  0.47354156  0.86166982  1
  O  O34  1  0.34900034  0.88009415  0.85810285  1
  O  O35  1  0.52252349  0.63688200  0.85874811  1
  O  O36  1  0.02225872  0.82610109  0.40807009  1
  O  O37  1  0.79753112  0.97150104  0.40959853  1
  O  O38  1  0.17945962  0.19916216  0.40953822  1
  O  O39  1  0.01964370  0.19182846  0.91114355  1
  O  O40  1  0.17073258  0.99284476  0.91260536  1
  O  O41  1  0.81198425  0.84127440  0.91188034  1
  O  O42  1  0.97732096  0.17516962  0.59182242  1
  O  O43  1  0.19811922  0.02323867  0.59198014  1
  O  O44  1  0.82435536  0.80163019  0.59218571  1
  O  O45  1  0.98363180  0.81413585  0.08879731  1
  O  O46  1  0.83042765  0.01713939  0.08743976  1
  O  O47  1  0.18904234  0.16800601  0.08881139  1
  O  O48  1  0.69560048  0.17375572  0.73504702  1
  O  O49  1  0.47737660  0.30710927  0.73589371  1
  O  O50  1  0.82773588  0.51990378  0.73419134  1
  O  O51  1  0.67755232  0.52710742  0.25285843  1
  O  O52  1  0.83681737  0.31661800  0.25355976  1
  O  O53  1  0.46720012  0.15642799  0.25237152  1
  O  O54  1  0.66086121  0.50575491  0.91729318  1
  O  O55  1  0.85891362  0.35218234  0.91903735  1
  O  O56  1  0.50624459  0.14527782  0.91815583  1
  O  O57  1  0.63977719  0.13721609  0.42518952  1
  O  O58  1  0.50000783  0.35908071  0.42660932  1
  O  O59  1  0.86073771  0.50458424  0.42569092  1
  O  O60  1  0.34680575  0.48957936  0.08041270  1
  O  O61  1  0.14102924  0.64804199  0.07927623  1
  O  O62  1  0.50920709  0.86117456  0.08048715  1
  O  O63  1  0.35861418  0.86423059  0.57245013  1
  O  O64  1  0.50569125  0.64223236  0.57224622  1
  O  O65  1  0.13567326  0.49380547  0.57215541  1
  O  O66  1  0.31363054  0.83691528  0.26618000  1
  O  O67  1  0.52893478  0.69950627  0.26627486  1
  O  O68  1  0.17261377  0.48026583  0.26659368  1
  O  O69  1  0.31232187  0.46530680  0.74883750  1
  O  O70  1  0.14827871  0.67812808  0.74859432  1
  O  O71  1  0.53693600  0.85246126  0.74722976  1
loop_
_geom_bond_atom_site_label_1
_geom_bond_atom_site_label_2
_geom_bond_distance
_geom_bond_site_symmetry_2
Na0 O40 2.410345 1_655
Na0 O41 2.418710 1_555
Na0 O39 2.554769 1_665
Na0 O45 2.567984 1_556
Na0 O46 2.630152 1_566
Na0 O47 2.655601 1_666
Na1 O54 2.355141 1_555
Na1 O56 2.367884 1_555
Na1 O55 2.506681 1_555
Na1 O49 2.721319 1_555
Na1 O48 2.814088 1_555
Na1 O50 2.832702 1_555
Na2 O52 2.361763 1_555
Na2 O51 2.497312 1_555
Na2 O53 2.504759 1_555
Na2 O57 2.595230 1_555
Na2 O59 2.605472 1_555
Na2 O58 2.677865 1_555
In0 O40 2.063479 1_655
In0 O41 2.066266 1_555
In0 O4 2.152187 1_555
In0 O39 2.169240 1_665
In0 O5 2.183191 1_565
In0 O3 2.184951 1_665
In1 O10 2.054312 1_555
In1 O47 2.148247 1_555
In1 O11 2.149679 1_545
In1 O46 2.155728 1_455
In1 O9 2.156985 1_445
In1 O45 2.183166 1_445
In2 O52 2.103227 1_555
In2 O16 2.105750 1_555
In2 O15 2.112037 1_555
In2 O17 2.138904 1_555
In2 O51 2.213088 1_555
In2 O53 2.230147 1_555
In3 O54 2.071777 1_555
In3 O56 2.076754 1_555
In3 O18 2.101243 1_556
In3 O20 2.136622 1_556
In3 O19 2.144686 1_556
In3 O55 2.170066 1_555
In4 O24 2.044320 1_554
In4 O26 2.044607 1_554
In4 O25 2.135077 1_554
In4 O62 2.143762 1_555
In4 O61 2.171150 1_555
In4 O60 2.180105 1_555
In5 O35 2.041907 1_555
In5 O34 2.046194 1_555
In5 O33 2.160644 1_555
In5 O71 2.212139 1_555
In5 O70 2.221460 1_555
In5 O69 2.225439 1_555
Ga0 O2 1.854591 1_555
Ga0 O1 1.991746 1_545
Ga0 O0 1.998261 1_655
Ga0 O37 2.052559 1_545
Ga0 O38 2.070139 1_655
Ga0 O36 2.078136 1_645
Ga1 O6 1.960092 1_445
Ga1 O7 1.964063 1_555
Ga1 O8 1.976042 1_545
Ga1 O43 2.031812 1_555
Ga1 O42 2.032825 1_455
Ga1 O44 2.041064 1_445
Ga2 O50 1.970785 1_555
Ga2 O48 1.978475 1_555
Ga2 O14 1.984225 1_555
Ga2 O13 1.985667 1_555
Ga2 O49 2.001782 1_555
Ga2 O12 2.005611 1_555
Ga3 O23 1.980207 1_555
Ga3 O22 1.991871 1_555
Ga3 O21 1.997530 1_555
Ga3 O58 2.039230 1_555
Ga3 O59 2.087531 1_555
Ga3 O57 2.090691 1_555
Ga4 O27 2.004273 1_555
Ga4 O28 2.015564 1_555
Ga4 O29 2.015626 1_555
Ga4 O64 2.027951 1_555
Ga4 O63 2.028685 1_555
Ga4 O65 2.038595 1_555
Ga5 O68 1.846729 1_555
Ga5 O66 1.962643 1_555
Ga5 O67 1.971604 1_555
Ga5 O30 2.028574 1_555
Ga5 O32 2.032064 1_555
Ga5 O31 2.065818 1_555
O0 S0 1.480680 1_545
O1 S1 1.483545 1_555
O2 P0 1.548261 1_655
O3 S2 1.477687 1_555
O4 S3 1.477304 1_555
O5 S4 1.478688 1_555
O6 S4 1.482177 1_565
O7 S2 1.483863 1_555
O8 S3 1.483325 1_455
O9 S1 1.478164 1_555
O10 P0 1.534718 1_555
O11 S0 1.479532 1_555
O12 S5 1.488788 1_555
O13 S6 1.491404 1_555
O14 S7 1.490664 1_555
O15 S8 1.478260 1_555
O16 S9 1.476212 1_555
O17 S10 1.481522 1_555
O18 S10 1.473167 1_555
O19 S8 1.476110 1_555
O20 S9 1.473441 1_555
O21 S6 1.495693 1_555
O22 S7 1.495872 1_555
O23 S5 1.499346 1_555
O24 P1 1.528363 1_555
O25 S11 1.471294 1_555
O26 P2 1.529763 1_555
O27 S12 1.489656 1_555
O28 S13 1.488819 1_555
O29 S14 1.490945 1_555
O30 S14 1.480719 1_555
O31 S12 1.481467 1_555
O32 S13 1.481034 1_555
O33 S11 1.473791 1_555
O34 P2 1.535546 1_555
O35 P1 1.536627 1_555
O36 S14 1.478010 1_555
O37 S12 1.478245 1_555
O38 S13 1.475279 1_555
O39 S11 1.473822 1_555
O40 P2 1.539766 1_555
O41 P1 1.538380 1_555
O42 S5 1.479508 1_555
O43 S6 1.479417 1_555
O44 S7 1.478843 1_555
O45 S8 1.491503 1_555
O46 S9 1.488496 1_555
O47 S10 1.487360 1_555
O48 S4 1.496588 1_555
O49 S2 1.499670 1_555
O50 S3 1.494581 1_555
O51 S1 1.491210 1_555
O52 P0 1.557391 1_655
O53 S0 1.490263 1_545
O54 P1 1.537970 1_555
O55 S11 1.473145 1_655
O56 P2 1.537635 1_545
O57 S12 1.510177 1_545
O58 S13 1.510133 1_555
O59 S14 1.508878 1_655
O60 S10 1.461737 1_555
O61 S8 1.461172 1_455
O62 S9 1.461605 1_565
O63 S6 1.484126 1_565
O64 S7 1.484101 1_555
O65 S5 1.484361 1_455
O66 S0 1.468408 1_555
O67 S1 1.467071 1_555
O68 P0 1.532313 1_555
O69 S2 1.470148 1_555
O70 S3 1.469444 1_455
O71 S4 1.469288 1_565
