# generated using pymatgen
data_Y3Mg
_symmetry_space_group_name_H-M   'P 1'
_cell_length_a   13.33962454
_cell_length_b   13.34090802
_cell_length_c   13.34090802
_cell_angle_alpha   146.15797501
_cell_angle_beta   131.80709580
_cell_angle_gamma   60.18608431
_symmetry_Int_Tables_number   1
_chemical_formula_structural   Y3Mg
_chemical_formula_sum   'Y24 Mg8'
_cell_volume   976.38458331
_cell_formula_units_Z   8
loop_
 _symmetry_equiv_pos_site_id
 _symmetry_equiv_pos_as_xyz
  1  'x, y, z'
loop_
 _atom_site_type_symbol
 _atom_site_label
 _atom_site_symmetry_multiplicity
 _atom_site_fract_x
 _atom_site_fract_y
 _atom_site_fract_z
 _atom_site_occupancy
  Y  Y0_0  1  0.45728430  0.25001880  0.20726550  1
  Y  Y0_1  1  0.45728430  0.25001880  0.70726550  1
  Y  Y0_2  1  0.45728430  0.75001880  0.20726550  1
  Y  Y0_3  1  0.45728430  0.75001880  0.70726550  1
  Y  Y0_4  1  0.95728430  0.25001880  0.20726550  1
  Y  Y0_5  1  0.95728430  0.25001880  0.70726550  1
  Y  Y0_6  1  0.95728430  0.75001880  0.20726550  1
  Y  Y0_7  1  0.95728430  0.75001880  0.70726550  1
  Y  Y1_0  1  0.09750380  0.13771174  0.45979257  1
  Y  Y1_1  1  0.09750380  0.13771174  0.95979257  1
  Y  Y1_2  1  0.09750380  0.63771174  0.45979257  1
  Y  Y1_3  1  0.09750380  0.63771174  0.95979257  1
  Y  Y1_4  1  0.59750380  0.13771174  0.45979257  1
  Y  Y1_5  1  0.59750380  0.13771174  0.95979256  1
  Y  Y1_6  1  0.59750380  0.63771174  0.45979257  1
  Y  Y1_7  1  0.59750380  0.63771174  0.95979257  1
  Y  Y2_0  1  0.32221852  0.36230132  0.45991720  1
  Y  Y2_1  1  0.32221852  0.36230132  0.95991720  1
  Y  Y2_2  1  0.32221852  0.86230132  0.45991720  1
  Y  Y2_3  1  0.32221852  0.86230133  0.95991720  1
  Y  Y2_4  1  0.82221852  0.36230133  0.45991720  1
  Y  Y2_5  1  0.82221852  0.36230133  0.95991720  1
  Y  Y2_6  1  0.82221852  0.86230133  0.45991720  1
  Y  Y2_7  1  0.82221852  0.86230133  0.95991720  1
  Mg  Mg0_0  1  0.20632689  0.99996864  0.20635825  1
  Mg  Mg0_1  1  0.20632689  0.99996864  0.70635824  1
  Mg  Mg0_2  1  0.20632689  0.49996864  0.20635825  1
  Mg  Mg0_3  1  0.20632689  0.49996864  0.70635825  1
  Mg  Mg0_4  1  0.70632689  0.99996864  0.20635825  1
  Mg  Mg0_5  1  0.70632689  0.99996864  0.70635824  1
  Mg  Mg0_6  1  0.70632689  0.49996864  0.20635825  1
  Mg  Mg0_7  1  0.70632689  0.49996864  0.70635825  1
loop_
_geom_bond_atom_site_label_1
_geom_bond_atom_site_label_2
_geom_bond_distance
_geom_bond_site_symmetry_2
Y0_0 Y1_5 3.724663 1_554
Y0_0 Y1_6 3.724665 1_555
Y0_0 Y2_3 3.725169 1_544
Y0_0 Y2_0 3.725169 1_555
Y0_0 Y2_1 3.738950 1_554
Y0_0 Y1_1 3.739819 1_554
Y0_0 Y1_4 3.780200 1_555
Y0_0 Y2_4 3.780284 1_555
Y0_0 Y0_3 3.882912 1_555
Y0_0 Y0_3 3.882912 1_544
Y0_1 Y1_4 3.724663 1_555
Y0_1 Y1_7 3.724665 1_555
Y0_1 Y2_2 3.725169 1_545
Y0_1 Y2_1 3.725169 1_555
Y0_1 Y2_0 3.738950 1_555
Y0_1 Y1_0 3.739819 1_555
Y0_1 Y1_5 3.780200 1_555
Y0_1 Y2_5 3.780284 1_555
Y0_1 Y0_2 3.882912 1_556
Y0_1 Y0_2 3.882912 1_545
Y0_2 Y1_7 3.724663 1_554
Y0_2 Y1_4 3.724665 1_565
Y0_2 Y2_1 3.725169 1_554
Y0_2 Y2_2 3.725169 1_555
Y0_2 Y2_3 3.738950 1_554
Y0_2 Y1_3 3.739819 1_554
Y0_2 Y1_6 3.780200 1_555
Y0_2 Y2_6 3.780284 1_555
Y0_3 Y1_6 3.724663 1_555
Y0_3 Y1_5 3.724665 1_565
Y0_3 Y2_0 3.725169 1_555
Y0_3 Y2_3 3.725169 1_555
Y0_3 Y2_2 3.738950 1_555
Y0_3 Y1_2 3.739819 1_555
Y0_3 Y1_7 3.780200 1_555
Y0_3 Y2_7 3.780284 1_555
Y0_4 Y1_1 3.724663 1_654
Y0_4 Y1_2 3.724665 1_655
Y0_4 Y2_7 3.725169 1_544
Y0_4 Y2_4 3.725169 1_555
Y0_4 Y2_5 3.738950 1_554
Y0_4 Y1_5 3.739819 1_554
Y0_4 Y1_0 3.780200 1_655
Y0_4 Y2_0 3.780284 1_655
Y0_4 Y0_7 3.882912 1_555
Y0_4 Y0_7 3.882912 1_544
Y0_5 Y1_0 3.724663 1_655
Y0_5 Y1_3 3.724665 1_655
Y0_5 Y2_6 3.725169 1_545
Y0_5 Y2_5 3.725169 1_555
Y0_5 Y2_4 3.738950 1_555
Y0_5 Y1_4 3.739819 1_555
Y0_5 Y1_1 3.780200 1_655
Y0_5 Y2_1 3.780284 1_655
Y0_5 Y0_6 3.882912 1_556
Y0_5 Y0_6 3.882912 1_545
Y0_6 Y1_3 3.724663 1_654
Y0_6 Y1_0 3.724665 1_665
Y0_6 Y2_5 3.725169 1_554
Y0_6 Y2_6 3.725169 1_555
Y0_6 Y2_7 3.738950 1_554
Y0_6 Y1_7 3.739819 1_554
Y0_6 Y1_2 3.780200 1_655
Y0_6 Y2_2 3.780284 1_655
Y0_7 Y1_2 3.724663 1_655
Y0_7 Y1_1 3.724665 1_665
Y0_7 Y2_4 3.725169 1_555
Y0_7 Y2_7 3.725169 1_555
Y0_7 Y2_6 3.738950 1_555
Y0_7 Y1_6 3.739819 1_555
Y0_7 Y1_3 3.780200 1_655
Y0_7 Y2_3 3.780284 1_655
Y1_0 Y2_4 3.394336 1_455
Y1_0 Y2_7 3.394338 1_444
Y1_0 Y2_1 3.396646 1_555
Y1_0 Y2_2 3.396649 1_545
Y1_0 Y1_3 3.882912 1_544
Y1_0 Y1_3 3.882912 1_555
Y1_1 Y2_5 3.394336 1_455
Y1_1 Y2_6 3.394338 1_445
Y1_1 Y2_0 3.396646 1_556
Y1_1 Y2_3 3.396649 1_545
Y1_1 Y1_2 3.882912 1_545
Y1_1 Y1_2 3.882912 1_556
Y1_2 Y2_6 3.394336 1_455
Y1_2 Y2_5 3.394338 1_454
Y1_2 Y2_3 3.396646 1_555
Y1_2 Y2_0 3.396649 1_555
Y1_3 Y2_7 3.394336 1_455
Y1_3 Y2_4 3.394338 1_455
Y1_3 Y2_2 3.396646 1_556
Y1_3 Y2_1 3.396649 1_555
Y1_4 Y2_0 3.394336 1_555
Y1_4 Y2_3 3.394338 1_544
Y1_4 Y2_5 3.396646 1_555
Y1_4 Y2_6 3.396649 1_545
Y1_4 Y1_7 3.882912 1_555
Y1_4 Y1_7 3.882912 1_544
Y1_5 Y2_1 3.394336 1_555
Y1_5 Y2_2 3.394338 1_545
Y1_5 Y2_4 3.396646 1_556
Y1_5 Y2_7 3.396649 1_545
Y1_5 Y1_6 3.882912 1_556
Y1_5 Y1_6 3.882912 1_545
Y1_6 Y2_2 3.394336 1_555
Y1_6 Y2_1 3.394338 1_554
Y1_6 Y2_7 3.396646 1_555
Y1_6 Y2_4 3.396649 1_555
Y1_7 Y2_3 3.394336 1_555
Y1_7 Y2_0 3.394338 1_555
Y1_7 Y2_6 3.396646 1_556
Y1_7 Y2_5 3.396649 1_555
Y2_0 Y2_3 3.882912 1_544
Y2_0 Y2_3 3.882912 1_555
Y2_1 Y2_2 3.882912 1_556
Y2_1 Y2_2 3.882912 1_545
Y2_4 Y2_7 3.882912 1_544
Y2_4 Y2_7 3.882912 1_555
Y2_5 Y2_6 3.882912 1_556
Y2_5 Y2_6 3.882912 1_545
Mg0_0 Y1_3 3.238198 1_554
Mg0_0 Y1_0 3.238200 1_565
Mg0_0 Y2_3 3.239602 1_554
Mg0_0 Y2_0 3.239602 1_565
Mg0_0 Y0_7 3.336401 1_454
Mg0_0 Y0_4 3.336401 1_465
Mg0_0 Y0_2 3.352495 1_555
Mg0_0 Y0_1 3.352495 1_565
Mg0_1 Y1_2 3.238198 1_555
Mg0_1 Y1_1 3.238200 1_565
Mg0_1 Y2_2 3.239602 1_555
Mg0_1 Y2_1 3.239602 1_565
Mg0_1 Y0_5 3.336401 1_465
Mg0_1 Y0_6 3.336401 1_455
Mg0_1 Y0_3 3.352495 1_555
Mg0_1 Y0_0 3.352495 1_566
Mg0_2 Y1_1 3.238198 1_554
Mg0_2 Y1_2 3.238200 1_555
Mg0_2 Y2_1 3.239602 1_554
Mg0_2 Y2_2 3.239602 1_555
Mg0_2 Y0_6 3.336401 1_455
Mg0_2 Y0_5 3.336401 1_454
Mg0_2 Y0_3 3.352495 1_555
Mg0_2 Y0_0 3.352495 1_555
Mg0_3 Y1_0 3.238198 1_555
Mg0_3 Y1_3 3.238200 1_555
Mg0_3 Y2_0 3.239602 1_555
Mg0_3 Y2_3 3.239602 1_555
Mg0_3 Y0_7 3.336401 1_455
Mg0_3 Y0_4 3.336401 1_455
Mg0_3 Y0_1 3.352495 1_555
Mg0_3 Y0_2 3.352495 1_556
Mg0_4 Y1_7 3.238198 1_554
Mg0_4 Y1_4 3.238200 1_565
Mg0_4 Y2_7 3.239602 1_554
Mg0_4 Y2_4 3.239602 1_565
Mg0_4 Y0_3 3.336401 1_554
Mg0_4 Y0_0 3.336401 1_565
Mg0_4 Y0_6 3.352495 1_555
Mg0_4 Y0_5 3.352495 1_565
Mg0_5 Y1_6 3.238198 1_555
Mg0_5 Y1_5 3.238200 1_565
Mg0_5 Y2_6 3.239602 1_555
Mg0_5 Y2_5 3.239602 1_565
Mg0_5 Y0_1 3.336401 1_565
Mg0_5 Y0_2 3.336401 1_555
Mg0_5 Y0_4 3.352495 1_566
Mg0_5 Y0_7 3.352495 1_555
Mg0_6 Y1_5 3.238198 1_554
Mg0_6 Y1_6 3.238200 1_555
Mg0_6 Y2_5 3.239602 1_554
Mg0_6 Y2_6 3.239602 1_555
Mg0_6 Y0_2 3.336401 1_555
Mg0_6 Y0_1 3.336401 1_554
Mg0_6 Y0_4 3.352495 1_555
Mg0_6 Y0_7 3.352495 1_555
Mg0_7 Y1_4 3.238198 1_555
Mg0_7 Y1_7 3.238200 1_555
Mg0_7 Y2_4 3.239602 1_555
Mg0_7 Y2_7 3.239602 1_555
Mg0_7 Y0_3 3.336401 1_555
Mg0_7 Y0_0 3.336401 1_555
Mg0_7 Y0_5 3.352495 1_555
Mg0_7 Y0_6 3.352495 1_556
