# generated using pymatgen
data_Na2Al4Si3Sn4(S3O16)3
_symmetry_space_group_name_H-M   'P 1'
_cell_length_a   17.15506566
_cell_length_b   8.62035487
_cell_length_c   22.46341850
_cell_angle_alpha   89.69952240
_cell_angle_beta   89.86379519
_cell_angle_gamma   120.21621968
_symmetry_Int_Tables_number   1
_chemical_formula_structural   Na2Al4Si3Sn4(S3O16)3
_chemical_formula_sum   'Na6 Al12 Si9 Sn12 S27 O144'
_cell_volume   2870.51856624
_cell_formula_units_Z   3
loop_
 _symmetry_equiv_pos_site_id
 _symmetry_equiv_pos_as_xyz
  1  'x, y, z'
loop_
 _atom_site_type_symbol
 _atom_site_label
 _atom_site_symmetry_multiplicity
 _atom_site_fract_x
 _atom_site_fract_y
 _atom_site_fract_z
 _atom_site_occupancy
  Na  Na0  1  0.99573863  0.00565375  0.49999288  1
  Na  Na1  1  0.49663034  0.98801937  0.00429062  1
  Na  Na2  1  0.32981685  0.32458429  0.84042587  1
  Na  Na3  1  0.82861851  0.33177347  0.83342099  1
  Na  Na4  1  0.33152711  0.32823550  0.33180389  1
  Na  Na5  1  0.82096556  0.32196357  0.33616736  1
  Al  Al0  1  0.00286964  0.00058917  0.34887254  1
  Al  Al1  1  0.50412999  0.00596893  0.85051633  1
  Al  Al2  1  0.99601922  0.00572466  0.64290366  1
  Al  Al3  1  0.50218672  0.97256923  0.14763480  1
  Al  Al4  1  0.33169843  0.32987494  0.98229077  1
  Al  Al5  1  0.83502800  0.33888318  0.98489867  1
  Al  Al6  1  0.33846009  0.33255084  0.47958887  1
  Al  Al7  1  0.83237676  0.32621130  0.47721938  1
  Al  Al8  1  0.16654828  0.67214223  0.30813328  1
  Al  Al9  1  0.66717228  0.65866636  0.31045141  1
  Al  Al10  1  0.17015968  0.68713868  0.81756020  1
  Al  Al11  1  0.66430518  0.65585383  0.81001390  1
  Si  Si0  1  0.14593194  0.99755010  0.25512371  1
  Si  Si1  1  0.64499883  0.98340493  0.24842131  1
  Si  Si2  1  0.64629014  0.29524238  0.75479070  1
  Si  Si3  1  0.47684863  0.33368217  0.57956077  1
  Si  Si4  1  0.97182431  0.32305981  0.58087278  1
  Si  Si5  1  0.47015898  0.62174637  0.07983933  1
  Si  Si6  1  0.97409423  0.61769107  0.08112479  1
  Si  Si7  1  0.17607026  0.97076058  0.91541205  1
  Si  Si8  1  0.67424768  0.38444945  0.41406528  1
  Sn  Sn0  1  0.51215439  0.01755970  0.35393042  1
  Sn  Sn1  1  0.00419815  0.99768611  0.85602397  1
  Sn  Sn2  1  0.50508084  0.02165808  0.64435009  1
  Sn  Sn3  1  0.00415270  0.98746594  0.14550764  1
  Sn  Sn4  1  0.33738082  0.33568784  0.68446482  1
  Sn  Sn5  1  0.83101739  0.33247786  0.68460821  1
  Sn  Sn6  1  0.33294822  0.33111215  0.18634477  1
  Sn  Sn7  1  0.83354986  0.33316975  0.18802199  1
  Sn  Sn8  1  0.16232453  0.67487649  0.02191945  1
  Sn  Sn9  1  0.65956244  0.66235966  0.02128315  1
  Sn  Sn10  1  0.16034587  0.65856764  0.51923000  1
  Sn  Sn11  1  0.66303474  0.65323178  0.51839778  1
  S  S0  1  0.35388225  0.71672183  0.25195704  1
  S  S1  1  0.85433675  0.71682984  0.25401174  1
  S  S2  1  0.00426277  0.29043235  0.25409612  1
  S  S3  1  0.50244123  0.28865341  0.24796513  1
  S  S4  1  0.14500426  0.29871879  0.74803378  1
  S  S5  1  0.00479714  0.71602473  0.74823313  1
  S  S6  1  0.50161397  0.71445698  0.75401796  1
  S  S7  1  0.35101898  0.98824072  0.75402303  1
  S  S8  1  0.85499347  0.99174552  0.75134987  1
  S  S9  1  0.18599129  0.04621955  0.58189342  1
  S  S10  1  0.68958473  0.04128985  0.57940810  1
  S  S11  1  0.33395728  0.62182428  0.58082494  1
  S  S12  1  0.83791090  0.63182809  0.58264505  1
  S  S13  1  0.33887384  0.04635660  0.08276758  1
  S  S14  1  0.83489216  0.04669077  0.08032668  1
  S  S15  1  0.18950686  0.33575867  0.07963253  1
  S  S16  1  0.68610796  0.32620475  0.08052749  1
  S  S17  1  0.31430602  0.67093528  0.91288251  1
  S  S18  1  0.80636613  0.65804995  0.91614820  1
  S  S19  1  0.01874598  0.37940606  0.91420292  1
  S  S20  1  0.52121933  0.37192146  0.91323576  1
  S  S21  1  0.66714524  0.96071209  0.91322704  1
  S  S22  1  0.30831800  0.95538682  0.41568422  1
  S  S23  1  0.81650384  0.96104613  0.41418945  1
  S  S24  1  0.16737067  0.37237209  0.41401323  1
  S  S25  1  0.02100329  0.66998890  0.41308710  1
  S  S26  1  0.51625403  0.65866595  0.41565825  1
  O  O0  1  0.09838847  0.03737715  0.31019287  1
  O  O1  1  0.61241345  0.04345669  0.30801766  1
  O  O2  1  0.40936620  0.79292029  0.30646551  1
  O  O3  1  0.91283096  0.80528572  0.30528531  1
  O  O4  1  0.47739444  0.17407126  0.30332986  1
  O  O5  1  0.98551048  0.16895765  0.30563768  1
  O  O6  1  0.11024999  0.18515802  0.80292193  1
  O  O7  1  0.59800398  0.15881262  0.80991685  1
  O  O8  1  0.48359226  0.79866092  0.80532039  1
  O  O9  1  0.98245756  0.78689816  0.80288807  1
  O  O10  1  0.41082151  0.02174723  0.80526917  1
  O  O11  1  0.91285256  0.03137067  0.80588408  1
  O  O12  1  0.38711578  0.95951805  0.69772463  1
  O  O13  1  0.89811730  0.96401772  0.69868130  1
  O  O14  1  0.08959650  0.20804953  0.69567244  1
  O  O15  1  0.59128250  0.21809632  0.69250136  1
  O  O16  1  0.01650525  0.83008384  0.69594514  1
  O  O17  1  0.51383392  0.81074768  0.69682797  1
  O  O18  1  0.39375957  0.82727202  0.19791666  1
  O  O19  1  0.88897746  0.82145076  0.19743976  1
  O  O20  1  0.01677943  0.21816031  0.19709803  1
  O  O21  1  0.51136723  0.20038619  0.19527622  1
  O  O22  1  0.09196049  0.96474673  0.19230098  1
  O  O23  1  0.58468327  0.96762413  0.19117103  1
  O  O24  1  0.44278296  0.37442546  0.64402963  1
  O  O25  1  0.93732031  0.36823154  0.64331032  1
  O  O26  1  0.23850809  0.11654223  0.63816877  1
  O  O27  1  0.73866625  0.10884663  0.63688794  1
  O  O28  1  0.31051548  0.51159564  0.63727880  1
  O  O29  1  0.81545647  0.52205886  0.63837330  1
  O  O30  1  0.43568333  0.50514173  0.14151102  1
  O  O31  1  0.93544220  0.50173322  0.14323433  1
  O  O32  1  0.31479434  0.11216045  0.13691303  1
  O  O33  1  0.81311742  0.11247908  0.13492857  1
  O  O34  1  0.23949254  0.36600027  0.13614596  1
  O  O35  1  0.73989665  0.36208466  0.13511578  1
  O  O36  1  0.23104253  0.30073210  0.02840378  1
  O  O37  1  0.72765936  0.29280565  0.02721097  1
  O  O38  1  0.41068703  0.52096134  0.02183642  1
  O  O39  1  0.91267263  0.52112353  0.02376955  1
  O  O40  1  0.35014002  0.15634105  0.02926958  1
  O  O41  1  0.84424252  0.15519276  0.02651457  1
  O  O42  1  0.22675542  0.16368177  0.52937030  1
  O  O43  1  0.73221886  0.16308546  0.52886458  1
  O  O44  1  0.34385808  0.53139392  0.52862077  1
  O  O45  1  0.85219187  0.54781715  0.53052124  1
  O  O46  1  0.41015836  0.30407288  0.52544406  1
  O  O47  1  0.91019690  0.30094008  0.52381530  1
  O  O48  1  0.27838894  0.70482319  0.96848748  1
  O  O49  1  0.76949121  0.69204932  0.97151074  1
  O  O50  1  0.07434802  0.44731603  0.96813049  1
  O  O51  1  0.57803866  0.43887048  0.96822499  1
  O  O52  1  0.15065221  0.84439622  0.97374506  1
  O  O53  1  0.65058752  0.85290317  0.96901726  1
  O  O54  1  0.27174229  0.84827974  0.47260686  1
  O  O55  1  0.78152173  0.85745687  0.47127311  1
  O  O56  1  0.15044452  0.44556344  0.47021979  1
  O  O57  1  0.65289054  0.45554855  0.47546301  1
  O  O58  1  0.07713919  0.71757295  0.46919299  1
  O  O59  1  0.57150705  0.70147135  0.47042459  1
  O  O60  1  0.06675064  0.63784712  0.36348108  1
  O  O61  1  0.55864354  0.62810793  0.36369470  1
  O  O62  1  0.24990253  0.86483119  0.36489313  1
  O  O63  1  0.75743262  0.87476094  0.36314498  1
  O  O64  1  0.18311716  0.49130601  0.36275025  1
  O  O65  1  0.68506698  0.51082249  0.35724268  1
  O  O66  1  0.06339204  0.49241011  0.86068331  1
  O  O67  1  0.56656597  0.49527892  0.86261913  1
  O  O68  1  0.18803112  0.87565209  0.85690788  1
  O  O69  1  0.68239351  0.87384392  0.86158378  1
  O  O70  1  0.25413853  0.63891647  0.86086801  1
  O  O71  1  0.75091964  0.63721176  0.86393963  1
  O  O72  1  0.00865742  0.82760572  0.40544343  1
  O  O73  1  0.49951010  0.80949257  0.40955020  1
  O  O74  1  0.39800490  0.97529032  0.40905415  1
  O  O75  1  0.90800861  0.98012436  0.40571390  1
  O  O76  1  0.08508958  0.19342115  0.40828527  1
  O  O77  1  0.58131006  0.18935984  0.41381418  1
  O  O78  1  0.00489715  0.19616036  0.90701070  1
  O  O79  1  0.50923506  0.18960902  0.90532711  1
  O  O80  1  0.08510230  0.98671509  0.91070743  1
  O  O81  1  0.58411685  0.97361983  0.90747131  1
  O  O82  1  0.40545536  0.83583094  0.90324691  1
  O  O83  1  0.89702098  0.82004211  0.91013348  1
  O  O84  1  0.47754897  0.14540755  0.58328687  1
  O  O85  1  0.98442002  0.14851934  0.59149524  1
  O  O86  1  0.09528475  0.02286098  0.59135198  1
  O  O87  1  0.59752669  0.01341136  0.58541416  1
  O  O88  1  0.41840011  0.79269616  0.58947020  1
  O  O89  1  0.92277190  0.80637920  0.59245947  1
  O  O90  1  0.47993308  0.81878428  0.08766939  1
  O  O91  1  0.97849011  0.81066438  0.08382949  1
  O  O92  1  0.42248535  0.04118094  0.09153588  1
  O  O93  1  0.91917343  0.04348336  0.08740165  1
  O  O94  1  0.09724220  0.18067958  0.08530495  1
  O  O95  1  0.59519640  0.17053761  0.08746499  1
  O  O96  1  0.34061824  0.15240119  0.74996394  1
  O  O97  1  0.84714514  0.15472028  0.74608961  1
  O  O98  1  0.23805559  0.31721416  0.74255780  1
  O  O99  1  0.74717411  0.31077511  0.74829246  1
  O  O100  1  0.41729448  0.52983607  0.75116348  1
  O  O101  1  0.92341284  0.53446652  0.74463994  1
  O  O102  1  0.34524642  0.53663712  0.24650012  1
  O  O103  1  0.84867650  0.53879668  0.25004137  1
  O  O104  1  0.42210467  0.31404732  0.24544371  1
  O  O105  1  0.92310939  0.31112295  0.25097510  1
  O  O106  1  0.24633452  0.18334990  0.24846485  1
  O  O107  1  0.74653745  0.17088895  0.24466700  1
  O  O108  1  0.32354250  0.51106544  0.91898886  1
  O  O109  1  0.81373047  0.49414332  0.92244703  1
  O  O110  1  0.43373414  0.36012341  0.92158822  1
  O  O111  1  0.92816225  0.36148534  0.92136249  1
  O  O112  1  0.26327163  0.16812518  0.92680476  1
  O  O113  1  0.74874077  0.14126266  0.92192343  1
  O  O114  1  0.31386117  0.13308347  0.42288014  1
  O  O115  1  0.82574885  0.14067763  0.42138219  1
  O  O116  1  0.24941765  0.35639400  0.42333412  1
  O  O117  1  0.76280264  0.36240465  0.42549645  1
  O  O118  1  0.42523504  0.49249347  0.42370832  1
  O  O119  1  0.93349880  0.50579497  0.42253855  1
  O  O120  1  0.18561359  0.50147877  0.07166595  1
  O  O121  1  0.68254639  0.49342296  0.07266365  1
  O  O122  1  0.07145120  0.62845542  0.08113163  1
  O  O123  1  0.57152742  0.64624373  0.07624238  1
  O  O124  1  0.26196712  0.86087962  0.07674370  1
  O  O125  1  0.75754751  0.86232586  0.07315980  1
  O  O126  1  0.18047433  0.87095750  0.57468935  1
  O  O127  1  0.68505001  0.86803509  0.57201910  1
  O  O128  1  0.25687699  0.65156082  0.57430567  1
  O  O129  1  0.76275462  0.66646615  0.57675196  1
  O  O130  1  0.07343137  0.50035843  0.57641620  1
  O  O131  1  0.57416567  0.51538978  0.57955790  1
  O  O132  1  0.15669384  0.82590316  0.26504237  1
  O  O133  1  0.65524121  0.81287368  0.26436078  1
  O  O134  1  0.26370483  0.69235302  0.26158154  1
  O  O135  1  0.76465884  0.69489382  0.26094170  1
  O  O136  1  0.08532893  0.46503560  0.26422689  1
  O  O137  1  0.58387276  0.46408231  0.25690631  1
  O  O138  1  0.15432159  0.47439650  0.75831153  1
  O  O139  1  0.65759484  0.48874169  0.76498019  1
  O  O140  1  0.08513562  0.69964163  0.75782353  1
  O  O141  1  0.58145093  0.69763617  0.76398621  1
  O  O142  1  0.26226916  0.82641946  0.76155941  1
  O  O143  1  0.76597571  0.83471296  0.76171886  1
loop_
_geom_bond_atom_site_label_1
_geom_bond_atom_site_label_2
_geom_bond_distance
_geom_bond_site_symmetry_2
Na0 O85 2.458591 1_555
Na0 O75 2.546638 1_545
Na0 O89 2.572563 1_545
Na0 O76 2.581880 1_655
Na0 O86 2.629616 1_655
Na0 O72 2.700026 1_645
Na1 O90 2.294896 1_555
Na1 O95 2.488688 1_565
Na1 O92 2.500620 1_565
Na1 O81 2.678228 1_554
Na1 O82 2.702265 1_554
Na1 O79 2.754557 1_564
Na2 O112 2.302084 1_555
Na2 O108 2.431719 1_555
Na2 O110 2.463229 1_555
Na2 O96 2.583305 1_555
Na2 O100 2.584401 1_555
Na2 O98 2.689329 1_555
Na3 O99 2.324536 1_555
Na3 O113 2.492970 1_555
Na3 O109 2.531881 1_555
Na3 O111 2.542705 1_555
Na3 O101 2.600561 1_555
Na3 O97 2.606854 1_555
Na4 O106 2.323963 1_555
Na4 O104 2.524338 1_555
Na4 O102 2.547713 1_555
Na4 O114 2.560341 1_555
Na4 O116 2.570242 1_555
Na4 O118 2.570341 1_555
Na5 O117 2.343425 1_555
Na5 O107 2.432670 1_555
Na5 O115 2.492305 1_555
Na5 O103 2.554631 1_555
Na5 O105 2.625313 1_555
Na5 O119 2.640699 1_555
Al0 O0 1.734338 1_555
Al0 O5 1.886824 1_455
Al0 O3 1.893669 1_445
Al0 O72 1.994516 1_545
Al0 O75 2.002131 1_445
Al0 O76 2.050885 1_555
Al1 O7 1.733753 1_555
Al1 O8 1.932739 1_545
Al1 O10 1.959411 1_555
Al1 O82 1.973050 1_545
Al1 O79 1.977638 1_555
Al1 O81 1.996814 1_545
Al2 O85 1.766668 1_555
Al2 O89 1.915660 1_545
Al2 O13 1.974189 1_545
Al2 O86 1.999593 1_655
Al2 O14 2.058318 1_655
Al2 O16 2.086690 1_645
Al3 O23 1.740115 1_555
Al3 O90 1.797062 1_555
Al3 O18 1.983592 1_555
Al3 O95 2.123659 1_565
Al3 O92 2.149805 1_565
Al3 O21 2.176786 1_565
Al4 O38 1.764394 1_556
Al4 O112 1.803719 1_555
Al4 O36 1.915709 1_556
Al4 O40 1.978111 1_556
Al4 O110 2.125295 1_555
Al4 O108 2.163059 1_555
Al5 O39 1.708313 1_556
Al5 O41 1.908775 1_556
Al5 O37 1.924879 1_556
Al5 O111 2.073791 1_555
Al5 O109 2.089927 1_555
Al5 O113 2.142790 1_555
Al6 O46 1.715069 1_555
Al6 O118 1.897313 1_555
Al6 O44 2.005084 1_555
Al6 O114 2.013112 1_555
Al6 O42 2.051038 1_555
Al6 O116 2.072421 1_555
Al7 O47 1.795070 1_555
Al7 O117 1.802626 1_555
Al7 O43 1.953726 1_555
Al7 O115 1.995704 1_555
Al7 O119 2.044881 1_555
Al7 O45 2.137947 1_555
Al8 O132 1.713267 1_555
Al8 O134 1.897200 1_555
Al8 O136 1.903350 1_555
Al8 O60 2.010185 1_555
Al8 O62 2.017342 1_555
Al8 O64 2.108010 1_555
Al9 O133 1.772393 1_555
Al9 O65 1.790134 1_555
Al9 O135 1.895556 1_555
Al9 O137 1.979674 1_555
Al9 O63 2.096989 1_555
Al9 O61 2.111562 1_555
Al10 O68 1.740955 1_555
Al10 O142 1.893680 1_555
Al10 O70 1.949342 1_555
Al10 O66 1.997696 1_555
Al10 O140 2.026278 1_555
Al10 O138 2.175825 1_555
Al11 O139 1.720687 1_555
Al11 O141 1.933242 1_555
Al11 O67 1.939374 1_555
Al11 O143 1.965449 1_555
Al11 O71 1.986931 1_555
Al11 O69 2.099309 1_555
O0 Si0 1.610860 1_545
O1 Si1 1.633298 1_545
O1 Sn0 1.916884 1_555
O2 S0 1.490433 1_555
O2 Sn0 2.142373 1_565
O3 S1 1.469535 1_555
O4 S3 1.504788 1_555
O4 Sn0 2.065141 1_555
O5 S2 1.478841 1_655
O6 S4 1.493450 1_555
O6 Sn1 2.086778 1_545
O7 Si2 1.613084 1_555
O8 S6 1.477672 1_555
O9 S5 1.506244 1_655
O9 Sn1 2.051412 1_655
O10 S7 1.473755 1_545
O11 S8 1.507144 1_545
O11 Sn1 2.066753 1_645
O12 S7 1.482567 1_555
O12 Sn2 2.170358 1_565
O13 S8 1.476813 1_555
O14 S4 1.471412 1_555
O15 Si2 1.635538 1_555
O15 Sn2 1.931476 1_555
O16 S5 1.474680 1_555
O17 S6 1.481805 1_555
O17 Sn2 2.229555 1_565
O18 S0 1.475643 1_555
O19 S1 1.492110 1_555
O19 Sn3 2.106735 1_655
O20 S2 1.488392 1_555
O20 Sn3 2.221833 1_545
O21 S3 1.459147 1_555
O22 Si0 1.635731 1_555
O22 Sn3 1.927341 1_555
O23 Si1 1.615401 1_555
O24 Si3 1.664344 1_555
O24 Sn4 1.894022 1_555
O25 Si4 1.644065 1_555
O25 Sn5 1.924700 1_555
O26 S9 1.496977 1_555
O26 Sn4 2.081126 1_555
O27 S10 1.494922 1_555
O27 Sn5 2.081119 1_555
O28 S11 1.507692 1_555
O28 Sn4 2.079483 1_555
O29 S12 1.493082 1_555
O29 Sn5 2.059941 1_555
O30 Si5 1.631718 1_555
O30 Sn6 1.919764 1_555
O31 Si6 1.642944 1_555
O31 Sn7 1.897056 1_555
O32 S13 1.487442 1_555
O32 Sn6 2.079521 1_555
O33 S14 1.477809 1_555
O33 Sn7 2.125827 1_555
O34 S15 1.482738 1_555
O34 Sn6 2.103032 1_555
O35 S16 1.474070 1_555
O35 Sn7 2.113019 1_555
O36 S15 1.462692 1_555
O37 S16 1.493835 1_555
O38 Si5 1.618454 1_555
O39 Si6 1.611840 1_555
O40 S13 1.477485 1_555
O41 S14 1.482558 1_555
O42 S9 1.475532 1_555
O43 S10 1.461844 1_555
O44 S11 1.467526 1_555
O45 S12 1.463408 1_555
O46 Si3 1.602435 1_555
O47 Si4 1.613365 1_555
O48 S17 1.485438 1_555
O48 Sn8 2.222556 1_556
O49 S18 1.489762 1_555
O49 Sn9 2.091197 1_556
O50 S19 1.473404 1_555
O50 Sn8 2.153934 1_556
O51 S20 1.502000 1_555
O51 Sn9 2.099556 1_556
O52 Si7 1.611827 1_555
O52 Sn8 1.904099 1_556
O53 S21 1.495116 1_555
O53 Sn9 2.082140 1_556
O54 S22 1.510593 1_555
O54 Sn10 2.061601 1_555
O55 S23 1.498922 1_555
O55 Sn11 2.172554 1_555
O56 S24 1.505837 1_555
O56 Sn10 2.078607 1_555
O57 Si8 1.626213 1_555
O57 Sn11 1.893138 1_555
O58 S25 1.515810 1_555
O58 Sn10 2.071724 1_555
O59 S26 1.485384 1_555
O59 Sn11 2.111918 1_555
O60 S25 1.467085 1_555
O61 S26 1.467222 1_555
O62 S22 1.463816 1_555
O63 S23 1.466538 1_555
O64 S24 1.468856 1_555
O65 Si8 1.622112 1_555
O66 S19 1.487712 1_555
O67 S20 1.476229 1_555
O68 Si7 1.618878 1_555
O69 S21 1.476417 1_555
O70 S17 1.493033 1_555
O71 S18 1.465599 1_555
O72 S25 1.485871 1_555
O73 S26 1.471741 1_555
O73 Sn0 2.099698 1_565
O74 S22 1.466901 1_555
O74 Sn0 2.183193 1_565
O75 S23 1.505282 1_555
O76 S24 1.483217 1_555
O77 Si8 1.634500 1_555
O77 Sn0 1.915813 1_555
O78 S19 1.484230 1_555
O78 Sn1 2.058919 1_545
O79 S20 1.490515 1_555
O80 Si7 1.637711 1_555
O80 Sn1 1.892927 1_555
O81 S21 1.489342 1_555
O82 S17 1.506792 1_555
O83 S18 1.482571 1_555
O83 Sn1 2.082999 1_655
O84 Si3 1.630787 1_555
O84 Sn2 1.933251 1_555
O85 Si4 1.640478 1_555
O86 S9 1.479753 1_555
O87 S10 1.478737 1_555
O87 Sn2 2.092219 1_555
O88 S11 1.470544 1_555
O88 Sn2 2.169495 1_565
O89 S12 1.494063 1_555
O90 Si5 1.631162 1_555
O91 Si6 1.628318 1_555
O91 Sn3 1.945760 1_655
O92 S13 1.471000 1_555
O93 S14 1.468942 1_555
O93 Sn3 2.184752 1_645
O94 S15 1.475171 1_555
O94 Sn3 2.107644 1_545
O95 S16 1.465431 1_555
O96 S7 1.515119 1_545
O96 Sn4 2.174540 1_555
O97 S8 1.481404 1_545
O97 Sn5 2.176769 1_555
O98 S4 1.526899 1_555
O98 Sn4 2.084660 1_555
O99 Si2 1.673262 1_555
O99 Sn5 1.966442 1_555
O100 S6 1.521094 1_555
O100 Sn4 2.156843 1_555
O101 S5 1.485855 1_655
O101 Sn5 2.149318 1_555
O102 S0 1.489126 1_555
O102 Sn6 2.158625 1_555
O103 S1 1.491374 1_555
O103 Sn7 2.171387 1_555
O104 S3 1.501468 1_555
O104 Sn6 2.087453 1_555
O105 S2 1.491707 1_655
O105 Sn7 2.167453 1_555
O106 Si0 1.665511 1_545
O106 Sn6 1.960610 1_555
O107 Si1 1.678581 1_545
O107 Sn7 1.916960 1_555
O108 S17 1.470066 1_555
O109 S18 1.486613 1_555
O110 S20 1.463836 1_555
O111 S19 1.490461 1_655
O112 Si7 1.625604 1_545
O113 S21 1.493850 1_545
O114 S22 1.495882 1_545
O115 S23 1.484799 1_545
O116 S24 1.496716 1_555
O117 Si8 1.643727 1_555
O118 S26 1.505781 1_555
O119 S25 1.469225 1_655
O120 S15 1.473329 1_555
O120 Sn8 2.056294 1_555
O121 S16 1.482846 1_555
O121 Sn9 2.042274 1_555
O122 Si6 1.625445 1_455
O122 Sn8 1.927760 1_555
O123 Si5 1.644599 1_555
O123 Sn9 1.898017 1_555
O124 S13 1.481641 1_565
O124 Sn8 2.069197 1_555
O125 S14 1.481040 1_565
O125 Sn9 2.066121 1_555
O126 S9 1.475276 1_565
O126 Sn10 2.100716 1_555
O127 S10 1.466258 1_565
O127 Sn11 2.084198 1_555
O128 S11 1.475595 1_555
O128 Sn10 2.094336 1_555
O129 S12 1.468636 1_555
O129 Sn11 2.115086 1_555
O130 Si4 1.643279 1_455
O130 Sn10 1.912877 1_555
O131 Si3 1.615116 1_555
O131 Sn11 1.942485 1_555
O132 Si0 1.595247 1_555
O133 Si1 1.604636 1_555
O134 S0 1.467963 1_555
O135 S1 1.460308 1_555
O136 S2 1.466121 1_555
O137 S3 1.468649 1_555
O138 S4 1.460299 1_555
O139 Si2 1.597170 1_555
O140 S5 1.470657 1_555
O141 S6 1.465606 1_555
O142 S7 1.466695 1_555
O143 S8 1.460494 1_555
