# generated using pymatgen
data_Na5MgSiSn3P5O24
_symmetry_space_group_name_H-M   'P 1'
_cell_length_a   8.91843208
_cell_length_b   8.89337159
_cell_length_c   22.45403741
_cell_angle_alpha   90.06529156
_cell_angle_beta   89.89949867
_cell_angle_gamma   119.88709775
_symmetry_Int_Tables_number   1
_chemical_formula_structural   Na5MgSiSn3P5O24
_chemical_formula_sum   'Na15 Mg3 Si3 Sn9 P15 O72'
_cell_volume   1544.08888578
_cell_formula_units_Z   3
loop_
 _symmetry_equiv_pos_site_id
 _symmetry_equiv_pos_as_xyz
  1  'x, y, z'
loop_
 _atom_site_type_symbol
 _atom_site_label
 _atom_site_symmetry_multiplicity
 _atom_site_fract_x
 _atom_site_fract_y
 _atom_site_fract_z
 _atom_site_occupancy
  Na  Na0  1  0.64094717  0.01084063  0.24399317  1
  Na  Na1  1  0.37107150  0.36043461  0.24413784  1
  Na  Na2  1  0.98946511  0.62992033  0.24451050  1
  Na  Na3  1  0.63412291  0.62454524  0.74869943  1
  Na  Na4  1  0.99143588  0.36557748  0.74900762  1
  Na  Na5  1  0.37692174  0.01099263  0.74411998  1
  Na  Na6  1  0.66195387  0.97477855  0.58334010  1
  Na  Na7  1  0.33265790  0.30678018  0.92321805  1
  Na  Na8  1  0.32535449  0.03219417  0.41566234  1
  Na  Na9  1  0.00232574  0.00061355  0.49482852  1
  Na  Na10  1  0.98459471  0.99071307  0.00222261  1
  Na  Na11  1  0.67899999  0.33820231  0.83926538  1
  Na  Na12  1  0.67647665  0.34253712  0.33138304  1
  Na  Na13  1  0.33365338  0.66699786  0.15976523  1
  Na  Na14  1  0.32427983  0.66262729  0.66099249  1
  Mg  Mg0  1  0.99332070  0.99927557  0.35306005  1
  Mg  Mg1  1  0.66443627  0.33078243  0.68042809  1
  Mg  Mg2  1  0.66827559  0.33407077  0.17980563  1
  Si  Si0  1  0.37204999  0.03900542  0.58398108  1
  Si  Si1  1  0.62843708  0.66578943  0.91774604  1
  Si  Si2  1  0.03542991  0.37365181  0.91643298  1
  Sn  Sn0  1  0.99346962  0.99599268  0.85617577  1
  Sn  Sn1  1  0.00761152  0.00007718  0.64490959  1
  Sn  Sn2  1  0.99947316  0.00112578  0.14686815  1
  Sn  Sn3  1  0.67449357  0.33738906  0.98403674  1
  Sn  Sn4  1  0.66783400  0.33742222  0.48311241  1
  Sn  Sn5  1  0.33437154  0.66539630  0.02019619  1
  Sn  Sn6  1  0.32921514  0.66282964  0.51868380  1
  Sn  Sn7  1  0.33233909  0.66461471  0.31749567  1
  Sn  Sn8  1  0.33180827  0.66392995  0.82084974  1
  P  P0  1  0.29201574  0.00014417  0.25297952  1
  P  P1  1  0.70910288  0.70855170  0.25186134  1
  P  P2  1  0.99989117  0.29142479  0.25186178  1
  P  P3  1  0.29174971  0.29315085  0.75090024  1
  P  P4  1  0.00245494  0.70823378  0.75061421  1
  P  P5  1  0.70693764  0.99963479  0.74920035  1
  P  P6  1  0.96017446  0.33514833  0.58599896  1
  P  P7  1  0.66587655  0.62635613  0.58568145  1
  P  P8  1  0.96382945  0.63043213  0.08605453  1
  P  P9  1  0.66508330  0.03797091  0.08575937  1
  P  P10  1  0.37178619  0.33191111  0.08535893  1
  P  P11  1  0.33533768  0.96118248  0.91677941  1
  P  P12  1  0.63134063  0.96291683  0.41772177  1
  P  P13  1  0.33416896  0.37128248  0.41685374  1
  P  P14  1  0.03510306  0.66452739  0.41646428  1
  O  O0  1  0.21184687  0.02759550  0.30899723  1
  O  O1  1  0.82363513  0.79252395  0.30553373  1
  O  O2  1  0.97076141  0.17708933  0.30552712  1
  O  O3  1  0.21157813  0.17793533  0.80672876  1
  O  O4  1  0.96805249  0.79191669  0.80524958  1
  O  O5  1  0.82728645  0.03207580  0.80273919  1
  O  O6  1  0.78306833  0.95908529  0.69255982  1
  O  O7  1  0.16744282  0.21096562  0.69703343  1
  O  O8  1  0.04229958  0.82759924  0.69542483  1
  O  O9  1  0.78232932  0.82713355  0.19544022  1
  O  O10  1  0.04480683  0.21813985  0.19523662  1
  O  O11  1  0.17105271  0.95754547  0.19769066  1
  O  O12  1  0.88584521  0.36361650  0.64286618  1
  O  O13  1  0.48726819  0.11332395  0.64320643  1
  O  O14  1  0.64254303  0.52593549  0.64254346  1
  O  O15  1  0.88608788  0.52775066  0.14273054  1
  O  O16  1  0.64366928  0.11715065  0.14279875  1
  O  O17  1  0.47638091  0.35303868  0.14101850  1
  O  O18  1  0.45113591  0.30493130  0.02668018  1
  O  O19  1  0.85267112  0.55003463  0.02926525  1
  O  O20  1  0.69333457  0.14895408  0.02894287  1
  O  O21  1  0.45508982  0.15054837  0.52226454  1
  O  O22  1  0.70227481  0.55010454  0.52918493  1
  O  O23  1  0.84439320  0.29907157  0.52994727  1
  O  O24  1  0.53817677  0.70432747  0.97275304  1
  O  O25  1  0.16974739  0.46223787  0.97075594  1
  O  O26  1  0.30038254  0.84200853  0.96951027  1
  O  O27  1  0.54398181  0.85145445  0.47396029  1
  O  O28  1  0.30754689  0.46021797  0.47152320  1
  O  O29  1  0.15725501  0.69744590  0.47007993  1
  O  O30  1  0.11102031  0.62866016  0.35837200  1
  O  O31  1  0.50957055  0.88377734  0.36159492  1
  O  O32  1  0.36777837  0.48174401  0.35898789  1
  O  O33  1  0.10535158  0.48006035  0.85215448  1
  O  O34  1  0.36814019  0.89149377  0.85636735  1
  O  O35  1  0.51696537  0.62436700  0.85379958  1
  O  O36  1  0.02568434  0.83017820  0.41134742  1
  O  O37  1  0.80769286  0.97979613  0.41176154  1
  O  O38  1  0.17803285  0.18962719  0.41235269  1
  O  O39  1  0.03839665  0.19074368  0.91102472  1
  O  O40  1  0.17536589  0.98488937  0.91047181  1
  O  O41  1  0.81997718  0.83430923  0.91335194  1
  O  O42  1  0.96607495  0.16165472  0.58898284  1
  O  O43  1  0.17889960  0.01906062  0.58487876  1
  O  O44  1  0.82209242  0.81720219  0.58850452  1
  O  O45  1  0.98284673  0.81510926  0.08852898  1
  O  O46  1  0.83031814  0.01818407  0.08757729  1
  O  O47  1  0.18773944  0.16604215  0.08750780  1
  O  O48  1  0.68895120  0.16153987  0.74514824  1
  O  O49  1  0.47223642  0.31488619  0.74448054  1
  O  O50  1  0.84341426  0.52785999  0.74460653  1
  O  O51  1  0.68214488  0.52485508  0.24397602  1
  O  O52  1  0.84319061  0.31776508  0.24431611  1
  O  O53  1  0.47407486  0.15735538  0.24469649  1
  O  O54  1  0.62892370  0.48252153  0.92316297  1
  O  O55  1  0.84359329  0.34784988  0.92179623  1
  O  O56  1  0.49356942  0.14405709  0.92326307  1
  O  O57  1  0.63653832  0.14153289  0.42169998  1
  O  O58  1  0.50211948  0.35708727  0.42093204  1
  O  O59  1  0.85681473  0.49754127  0.42299349  1
  O  O60  1  0.35399341  0.49732042  0.08094362  1
  O  O61  1  0.14659934  0.64910292  0.07916447  1
  O  O62  1  0.49882105  0.85649161  0.07984381  1
  O  O63  1  0.36117852  0.84712557  0.57772473  1
  O  O64  1  0.50306360  0.64757891  0.57815716  1
  O  O65  1  0.14426611  0.49210948  0.57811411  1
  O  O66  1  0.30964146  0.83016066  0.25613709  1
  O  O67  1  0.52258432  0.69198606  0.25648313  1
  O  O68  1  0.16950889  0.47808295  0.25582792  1
  O  O69  1  0.30640346  0.47665317  0.75405018  1
  O  O70  1  0.17227881  0.69648094  0.75507394  1
  O  O71  1  0.52385241  0.83278930  0.75529774  1
loop_
_geom_bond_atom_site_label_1
_geom_bond_atom_site_label_2
_geom_bond_distance
_geom_bond_site_symmetry_2
Na0 O52 2.407801 1_555
Na0 O53 2.417722 1_555
Na0 O16 2.457499 1_555
Na0 O67 2.500345 1_545
Na0 O66 2.579403 1_545
Na0 O9 2.737113 1_545
Na0 O31 2.880828 1_545
Na0 O2 2.902165 1_555
Na1 O53 2.399877 1_555
Na1 O51 2.406654 1_555
Na1 O68 2.503438 1_555
Na1 O17 2.510237 1_555
Na1 O67 2.574056 1_555
Na1 O10 2.759027 1_555
Na1 O32 2.800036 1_555
Na1 O0 2.951774 1_555
Na2 O52 2.408206 1_555
Na2 O51 2.415190 1_555
Na2 O15 2.462995 1_555
Na2 O66 2.515358 1_655
Na2 O68 2.574759 1_655
Na2 O11 2.741531 1_655
Na2 O30 2.780956 1_655
Na2 O1 2.876756 1_555
Na3 O49 2.390592 1_555
Na3 O50 2.414647 1_555
Na3 O71 2.496587 1_555
Na3 O69 2.540642 1_555
Na3 O14 2.552773 1_555
Na3 O35 2.578891 1_555
Na3 O6 2.875648 1_555
Na3 O4 2.878953 1_555
Na4 O48 2.387414 1_555
Na4 O50 2.394775 1_555
Na4 O69 2.472793 1_655
Na4 O33 2.530799 1_655
Na4 O70 2.559273 1_655
Na4 O12 2.560988 1_555
Na4 O7 2.803131 1_655
Na4 O5 2.840851 1_555
Na5 O49 2.395274 1_555
Na5 O48 2.413340 1_555
Na5 O13 2.456708 1_555
Na5 O70 2.475394 1_545
Na5 O71 2.522601 1_545
Na5 O34 2.722220 1_545
Na5 O8 2.813959 1_545
Na5 O3 2.919742 1_555
Na6 O63 2.337992 1_555
Na6 O42 2.375512 1_565
Na6 O44 2.452059 1_555
Na6 O64 2.525776 1_555
Na6 O27 2.682317 1_555
Na6 O6 2.713097 1_555
Na6 O13 2.766615 1_565
Na6 O23 2.779743 1_565
Na7 O54 2.304039 1_555
Na7 O39 2.308682 1_555
Na7 O56 2.494677 1_555
Na7 O40 2.498449 1_545
Na7 O18 2.557295 1_556
Na7 O25 2.674843 1_555
Na7 O3 2.844410 1_555
Na7 O35 2.912581 1_555
Na8 O38 2.350740 1_555
Na8 O36 2.365423 1_545
Na8 O57 2.444922 1_555
Na8 O58 2.511622 1_555
Na8 O0 2.594184 1_555
Na8 O21 2.639406 1_555
Na8 O31 2.840024 1_545
Na8 O29 2.856103 1_545
Na9 O38 2.466295 1_555
Na9 O36 2.482222 1_545
Na9 O37 2.493307 1_445
Na9 O43 2.519561 1_555
Na9 O44 2.655501 1_445
Na9 O42 2.660352 1_455
Na10 O46 2.439400 1_565
Na10 O41 2.457851 1_554
Na10 O45 2.485411 1_555
Na10 O47 2.563384 1_665
Na10 O39 2.596612 1_664
Na10 O40 2.686443 1_654
Na11 O55 2.340933 1_555
Na11 O54 2.440988 1_555
Na11 O56 2.534608 1_555
Na11 O50 2.654264 1_555
Na11 O48 2.659534 1_555
Na11 O49 2.757667 1_555
Na12 O52 2.529129 1_555
Na12 O51 2.531549 1_555
Na12 O59 2.552251 1_555
Na12 O58 2.582010 1_555
Na12 O53 2.608014 1_555
Na12 O57 2.608886 1_555
Na13 O60 2.389143 1_555
Na13 O62 2.398746 1_555
Na13 O61 2.414350 1_555
Na13 O66 2.671139 1_555
Na13 O68 2.676648 1_555
Na13 O67 2.691353 1_555
Na14 O63 2.400634 1_555
Na14 O65 2.432703 1_555
Na14 O64 2.494292 1_555
Na14 O70 2.605046 1_555
Na14 O69 2.621249 1_555
Na14 O71 2.695112 1_555
Mg0 O2 2.000502 1_565
Mg0 O1 2.009474 1_555
Mg0 O37 2.053076 1_555
Mg0 O0 2.084515 1_665
Mg0 O36 2.120418 1_655
Mg0 O38 2.139019 1_665
Mg1 O13 1.972531 1_555
Mg1 O14 2.028698 1_555
Mg1 O12 2.028752 1_555
Mg1 O48 2.181551 1_555
Mg1 O49 2.185643 1_555
Mg1 O50 2.216001 1_555
Mg2 O17 2.002282 1_555
Mg2 O16 2.008817 1_555
Mg2 O15 2.023970 1_555
Mg2 O51 2.180869 1_555
Mg2 O52 2.187827 1_555
Mg2 O53 2.208248 1_555
O0 P0 1.524146 1_555
O1 P1 1.515102 1_555
O2 P2 1.513901 1_555
O3 P3 1.549920 1_555
O3 Sn0 2.120016 1_445
O4 P4 1.541805 1_655
O4 Sn0 2.058907 1_555
O5 P5 1.541293 1_545
O5 Sn0 2.054350 1_545
O6 P5 1.564762 1_555
O6 Sn1 2.133960 1_665
O7 P3 1.556079 1_555
O7 Sn1 2.062956 1_555
O8 P4 1.553827 1_555
O8 Sn1 2.052625 1_565
O9 P1 1.567618 1_555
O9 Sn2 2.084291 1_565
O10 P2 1.567919 1_455
O10 Sn2 2.070502 1_455
O11 P0 1.563610 1_565
O11 Sn2 2.095769 1_465
O12 P6 1.515770 1_555
O13 Si0 1.608472 1_555
O14 P7 1.512454 1_555
O15 P8 1.517470 1_555
O16 P9 1.517828 1_555
O17 P10 1.515353 1_555
O18 P10 1.568314 1_555
O18 Sn3 2.095023 1_554
O19 P8 1.554342 1_555
O19 Sn3 2.034527 1_554
O20 P9 1.555361 1_555
O20 Sn3 2.034308 1_554
O21 Si0 1.649334 1_555
O21 Sn4 1.997446 1_555
O22 P7 1.546124 1_555
O22 Sn4 2.039573 1_555
O23 P6 1.557783 1_555
O23 Sn4 2.059992 1_555
O24 Si1 1.600469 1_555
O24 Sn5 1.981251 1_556
O25 Si2 1.614279 1_555
O25 Sn5 2.002475 1_556
O26 P11 1.514819 1_555
O26 Sn5 2.081820 1_556
O27 P12 1.553699 1_555
O27 Sn6 2.070310 1_555
O28 P13 1.540372 1_555
O28 Sn6 2.013679 1_555
O29 P14 1.551712 1_555
O29 Sn6 2.028536 1_555
O30 P14 1.572522 1_555
O30 Sn7 2.050841 1_555
O31 P12 1.582431 1_555
O31 Sn7 2.051507 1_555
O32 P13 1.565641 1_555
O32 Sn7 2.032149 1_555
O33 Si2 1.667155 1_555
O33 Sn8 1.988302 1_555
O34 P11 1.577072 1_555
O34 Sn8 2.044634 1_555
O35 Si1 1.680640 1_555
O35 Sn8 1.995475 1_555
O36 P14 1.521284 1_555
O37 P12 1.509343 1_555
O38 P13 1.522291 1_555
O39 Si2 1.644364 1_555
O39 Sn0 1.995595 1_445
O40 P11 1.549362 1_555
O40 Sn0 2.072341 1_455
O41 Si1 1.619344 1_555
O41 Sn0 1.972279 1_555
O42 P6 1.571336 1_555
O42 Sn1 2.077338 1_655
O43 Si0 1.641522 1_555
O43 Sn1 1.978719 1_555
O44 P7 1.571383 1_555
O44 Sn1 2.075480 1_665
O45 P8 1.565745 1_555
O45 Sn2 2.055721 1_565
O46 P9 1.569361 1_555
O46 Sn2 2.075302 1_555
O47 P10 1.568256 1_555
O47 Sn2 2.071056 1_455
O48 P5 1.528988 1_545
O49 P3 1.529153 1_555
O50 P4 1.528376 1_655
O51 P1 1.538222 1_555
O52 P2 1.537476 1_555
O53 P0 1.537166 1_555
O54 Si1 1.636701 1_555
O54 Sn3 2.056252 1_555
O55 Si2 1.613185 1_655
O55 Sn3 2.022192 1_555
O56 P11 1.539683 1_545
O56 Sn3 2.158595 1_555
O57 P12 1.568364 1_545
O57 Sn4 2.127367 1_555
O58 P13 1.567434 1_555
O58 Sn4 2.104655 1_555
O59 P14 1.549708 1_655
O59 Sn4 2.072491 1_555
O60 P10 1.559490 1_555
O60 Sn5 2.095631 1_555
O61 P8 1.561382 1_455
O61 Sn5 2.080721 1_555
O62 P9 1.560899 1_565
O62 Sn5 2.085846 1_555
O63 Si0 1.666059 1_565
O63 Sn6 2.013919 1_555
O64 P7 1.564172 1_555
O64 Sn6 2.103068 1_555
O65 P6 1.546287 1_455
O65 Sn6 2.075511 1_555
O66 P0 1.597548 1_565
O66 Sn7 2.099840 1_555
O67 P1 1.598358 1_555
O67 Sn7 2.096628 1_555
O68 P2 1.596713 1_455
O68 Sn7 2.092647 1_555
O69 P3 1.572443 1_555
O69 Sn8 2.166676 1_555
O70 P4 1.572633 1_555
O70 Sn8 2.169831 1_555
O71 P5 1.572174 1_555
O71 Sn8 2.188166 1_555
