# generated using pymatgen
data_Eu(FeAs)2
_symmetry_space_group_name_H-M   'P 1'
_cell_length_a   3.93980950
_cell_length_b   3.93980945
_cell_length_c   6.13265848
_cell_angle_alpha   108.73644416
_cell_angle_beta   108.73645277
_cell_angle_gamma   89.99999221
_symmetry_Int_Tables_number   1
_chemical_formula_structural   Eu(FeAs)2
_chemical_formula_sum   'Eu1 Fe2 As2'
_cell_volume   84.80302334
_cell_formula_units_Z   1
loop_
 _symmetry_equiv_pos_site_id
 _symmetry_equiv_pos_as_xyz
  1  'x, y, z'
loop_
 _atom_site_type_symbol
 _atom_site_label
 _atom_site_symmetry_multiplicity
 _atom_site_fract_x
 _atom_site_fract_y
 _atom_site_fract_z
 _atom_site_occupancy
  Eu  Eu0  1  -0.00000000  -0.00000000  -0.00000000  1
  Fe  Fe0  1  0.75000000  0.25000000  0.50000000  1
  Fe  Fe1  1  0.25000000  0.75000000  0.50000000  1
  As  As0  1  0.64402491  0.64402491  0.28804981  1
  As  As1  1  0.35597509  0.35597509  0.71195019  1
loop_
_geom_bond_atom_site_label_1
_geom_bond_atom_site_label_2
_geom_bond_distance
_geom_bond_site_symmetry_2
Eu0 Fe1 3.367883 1_545
Eu0 Fe0 3.367883 1_454
Eu0 Fe0 3.367883 1_555
Eu0 Fe1 3.367883 1_444
Eu0 Fe0 3.367883 1_455
Eu0 Fe1 3.367883 1_544
Eu0 Fe0 3.367883 1_444
Eu0 Fe1 3.367883 1_555
As0 Fe0 2.285039 1_555
As0 Fe1 2.285039 1_655
As0 Fe0 2.285039 1_565
As0 Fe1 2.285039 1_555
As0 Eu0 3.199633 1_565
As0 Eu0 3.199634 1_655
As0 Eu0 3.199634 1_665
As0 Eu0 3.199634 1_555
As1 Fe1 2.285039 1_555
As1 Fe0 2.285039 1_455
As1 Fe1 2.285039 1_545
As1 Fe0 2.285039 1_555
As1 Eu0 3.199633 1_656
As1 Eu0 3.199634 1_566
As1 Eu0 3.199634 1_556
As1 Eu0 3.199634 1_666
