# generated using pymatgen
data_La4MgTi3O12
_symmetry_space_group_name_H-M   'P 1'
_cell_length_a   5.59734346
_cell_length_b   5.65855225
_cell_length_c   7.93595519
_cell_angle_alpha   90.11089969
_cell_angle_beta   90.00118672
_cell_angle_gamma   90.16779695
_symmetry_Int_Tables_number   1
_chemical_formula_structural   La4MgTi3O12
_chemical_formula_sum   'La4 Mg1 Ti3 O12'
_cell_volume   251.35285210
_cell_formula_units_Z   1
loop_
 _symmetry_equiv_pos_site_id
 _symmetry_equiv_pos_as_xyz
  1  'x, y, z'
loop_
 _atom_site_type_symbol
 _atom_site_label
 _atom_site_symmetry_multiplicity
 _atom_site_fract_x
 _atom_site_fract_y
 _atom_site_fract_z
 _atom_site_occupancy
  La  La0  1  0.00665700  0.03860400  0.25347700  1
  La  La1  1  0.49258100  0.54341400  0.25404400  1
  La  La2  1  0.50741900  0.45658600  0.74595600  1
  La  La3  1  0.99334300  0.96139600  0.74652300  1
  Mg  Mg0  1  0.50000000  0.00000000  0.50000000  1
  Ti  Ti0  1  0.00000000  0.50000000  0.00000000  1
  Ti  Ti1  1  0.00000000  0.50000000  0.50000000  1
  Ti  Ti2  1  0.50000000  0.00000000  0.00000000  1
  O  O0  1  0.07615000  0.51786500  0.74858200  1
  O  O1  1  0.21592400  0.78460500  0.04000400  1
  O  O2  1  0.19886300  0.78910400  0.45725100  1
  O  O3  1  0.28644400  0.28475600  0.04221400  1
  O  O4  1  0.28953900  0.30226200  0.45901800  1
  O  O5  1  0.41824200  0.02232100  0.75483500  1
  O  O6  1  0.58175800  0.97767900  0.24516500  1
  O  O7  1  0.71046100  0.69773800  0.54098200  1
  O  O8  1  0.71355600  0.71524400  0.95778600  1
  O  O9  1  0.80113700  0.21089600  0.54274900  1
  O  O10  1  0.78407600  0.21539500  0.95999600  1
  O  O11  1  0.92385000  0.48213500  0.25141800  1
loop_
_geom_bond_atom_site_label_1
_geom_bond_atom_site_label_2
_geom_bond_distance
_geom_bond_site_symmetry_2
La0 O6 2.403049 1_445
La0 O2 2.404881 1_545
La0 O1 2.511634 1_545
La0 O11 2.553602 1_455
La0 O3 2.683263 1_555
La0 O4 2.714826 1_555
La0 O9 2.746241 1_455
La0 O10 2.827299 1_454
La1 O4 2.408174 1_555
La1 O11 2.439826 1_555
La1 O3 2.505997 1_555
La1 O6 2.507187 1_555
La1 O1 2.677158 1_555
La1 O2 2.690928 1_555
La1 O7 2.724174 1_555
La1 O8 2.829274 1_554
La2 O7 2.408174 1_555
La2 O0 2.439826 1_555
La2 O8 2.505997 1_555
La2 O5 2.507187 1_555
La2 O10 2.677158 1_555
La2 O9 2.690928 1_555
La2 O4 2.724174 1_555
La2 O3 2.829274 1_556
La3 O5 2.403049 1_665
La3 O9 2.404881 1_565
La3 O10 2.511634 1_565
La3 O0 2.553602 1_655
La3 O8 2.683263 1_555
La3 O7 2.714826 1_555
La3 O2 2.746241 1_655
La3 O1 2.827299 1_656
Mg0 O6 2.077186 1_545
Mg0 O5 2.077186 1_555
Mg0 O2 2.089732 1_545
Mg0 O9 2.089732 1_555
Mg0 O4 2.105422 1_555
Mg0 O7 2.105422 1_545
O0 Ti1 2.020526 1_555
O0 Ti0 2.042903 1_556
O1 Ti2 2.026034 1_565
O1 Ti0 2.035108 1_555
O2 Ti1 2.005441 1_555
O3 Ti2 2.036320 1_555
O3 Ti0 2.044340 1_555
O4 Ti1 1.998368 1_555
O5 Ti2 2.003013 1_556
O6 Ti2 2.003013 1_565
O7 Ti1 1.998368 1_655
O8 Ti2 2.036320 1_566
O8 Ti0 2.044340 1_656
O9 Ti1 2.005441 1_655
O10 Ti2 2.026034 1_556
O10 Ti0 2.035108 1_656
O11 Ti1 2.020526 1_655
O11 Ti0 2.042903 1_655
