# generated using pymatgen
data_GaN
_symmetry_space_group_name_H-M   'P 1'
_cell_length_a   5.77090400
_cell_length_b   2.88489700
_cell_length_c   5.01624300
_cell_angle_alpha   90.00000000
_cell_angle_beta   90.00000000
_cell_angle_gamma   90.00000000
_symmetry_Int_Tables_number   1
_chemical_formula_structural   GaN
_chemical_formula_sum   'Ga4 N4'
_cell_volume   83.51273918
_cell_formula_units_Z   4
loop_
 _symmetry_equiv_pos_site_id
 _symmetry_equiv_pos_as_xyz
  1  'x, y, z'
loop_
 _atom_site_type_symbol
 _atom_site_label
 _atom_site_symmetry_multiplicity
 _atom_site_fract_x
 _atom_site_fract_y
 _atom_site_fract_z
 _atom_site_occupancy
  Ga  Ga0  1  0.00000000  0.75051800  0.99541600  1
  Ga  Ga1  1  0.50000000  0.75051800  0.99541600  1
  Ga  Ga2  1  0.25000000  0.24948200  0.49541600  1
  Ga  Ga3  1  0.75000000  0.24948200  0.49541600  1
  N  N0  1  0.00000000  0.74968700  0.38958400  1
  N  N1  1  0.50000000  0.74968700  0.38958400  1
  N  N2  1  0.25000000  0.25031300  0.88958400  1
  N  N3  1  0.75000000  0.25031300  0.88958400  1
loop_
_geom_bond_atom_site_label_1
_geom_bond_atom_site_label_2
_geom_bond_distance
_geom_bond_site_symmetry_2
Ga0 N0 1.977244 1_556
Ga0 N3 2.107663 1_465
Ga0 N2 2.107663 1_565
Ga0 N3 2.108472 1_455
Ga0 N2 2.108472 1_555
Ga1 N1 1.977244 1_556
Ga1 N2 2.107663 1_565
Ga1 N3 2.107663 1_565
Ga1 N2 2.108472 1_555
Ga1 N3 2.108472 1_555
Ga2 N2 1.977244 1_555
Ga2 N1 2.107663 1_545
Ga2 N0 2.107663 1_545
Ga2 N0 2.108472 1_555
Ga2 N1 2.108472 1_555
Ga3 N3 1.977244 1_555
Ga3 N1 2.107663 1_545
Ga3 N0 2.107663 1_645
Ga3 N0 2.108472 1_655
Ga3 N1 2.108472 1_555
