# generated using pymatgen
data_Na6NbIn3Si4(SO12)2
_symmetry_space_group_name_H-M   'P 1'
_cell_length_a   9.21631926
_cell_length_b   9.24439096
_cell_length_c   22.62950006
_cell_angle_alpha   89.64603821
_cell_angle_beta   90.28186657
_cell_angle_gamma   120.12111681
_symmetry_Int_Tables_number   1
_chemical_formula_structural   Na6NbIn3Si4(SO12)2
_chemical_formula_sum   'Na18 Nb3 In9 Si12 S6 O72'
_cell_volume   1667.63432868
_cell_formula_units_Z   3
loop_
 _symmetry_equiv_pos_site_id
 _symmetry_equiv_pos_as_xyz
  1  'x, y, z'
loop_
 _atom_site_type_symbol
 _atom_site_label
 _atom_site_symmetry_multiplicity
 _atom_site_fract_x
 _atom_site_fract_y
 _atom_site_fract_z
 _atom_site_occupancy
  Na  Na0  1  0.62287152  0.99900721  0.25269876  1
  Na  Na1  1  0.64353450  0.62706332  0.75277891  1
  Na  Na2  1  0.00475250  0.36486498  0.74108351  1
  Na  Na3  1  0.29707417  0.34918082  0.58483376  1
  Na  Na4  1  0.02348396  0.69076916  0.59095349  1
  Na  Na5  1  0.67902337  0.95979759  0.57244573  1
  Na  Na6  1  0.29701958  0.94597970  0.08771642  1
  Na  Na7  1  0.66898469  0.71227772  0.07343457  1
  Na  Na8  1  0.02986462  0.33980351  0.08114364  1
  Na  Na9  1  0.97903379  0.68777461  0.91312214  1
  Na  Na10  1  0.32442847  0.29111368  0.91001988  1
  Na  Na11  1  0.67784808  0.67260127  0.41381982  1
  Na  Na12  1  0.00210855  0.03329280  0.49362526  1
  Na  Na13  1  0.97666948  0.99102313  0.99206794  1
  Na  Na14  1  0.64839458  0.32069114  0.82802129  1
  Na  Na15  1  0.62290377  0.30462866  0.33063131  1
  Na  Na16  1  0.31074938  0.67957716  0.16952338  1
  Na  Na17  1  0.32605881  0.65515713  0.66514124  1
  Nb  Nb0  1  0.68203782  0.33139711  0.97560357  1
  Nb  Nb1  1  0.67269662  0.33552150  0.47906831  1
  Nb  Nb2  1  0.32665537  0.66414037  0.81951381  1
  In  In0  1  0.01977682  0.01596937  0.35170290  1
  In  In1  1  0.00270684  0.99923990  0.85004577  1
  In  In2  1  0.00655013  0.00310218  0.65007309  1
  In  In3  1  0.00414053  0.98922223  0.14755420  1
  In  In4  1  0.67099831  0.34734805  0.68479099  1
  In  In5  1  0.66005769  0.32310061  0.18455874  1
  In  In6  1  0.33432849  0.67363888  0.01503010  1
  In  In7  1  0.33831564  0.65852157  0.51272656  1
  In  In8  1  0.33990329  0.67627491  0.31949494  1
  Si  Si0  1  0.29810928  0.99503130  0.24750762  1
  Si  Si1  1  0.30069126  0.30365309  0.75072672  1
  Si  Si2  1  0.00614284  0.70388546  0.74984371  1
  Si  Si3  1  0.96386410  0.33667889  0.58613411  1
  Si  Si4  1  0.66803313  0.63423006  0.58386437  1
  Si  Si5  1  0.95648886  0.62208328  0.08362835  1
  Si  Si6  1  0.66838707  0.03651535  0.08584611  1
  Si  Si7  1  0.62947396  0.66489551  0.92015488  1
  Si  Si8  1  0.04061859  0.36634167  0.92021166  1
  Si  Si9  1  0.33722307  0.96471884  0.92009636  1
  Si  Si10  1  0.64013213  0.97079379  0.41605322  1
  Si  Si11  1  0.33421798  0.36774820  0.42040364  1
  S  S0  1  0.70017476  0.70001654  0.25035527  1
  S  S1  1  0.00211846  0.29980797  0.24837967  1
  S  S2  1  0.69508200  0.99388156  0.74922502  1
  S  S3  1  0.38064004  0.04666773  0.58110508  1
  S  S4  1  0.37581653  0.33402226  0.08081964  1
  S  S5  1  0.03095237  0.66221329  0.41930900  1
  O  O0  1  0.19744905  0.00904131  0.30282844  1
  O  O1  1  0.79724029  0.78467544  0.30410505  1
  O  O2  1  0.97307345  0.18666991  0.29913732  1
  O  O3  1  0.21121818  0.20078068  0.80983825  1
  O  O4  1  0.96020740  0.78413514  0.80493352  1
  O  O5  1  0.80635322  0.02448745  0.79986500  1
  O  O6  1  0.76551534  0.96491619  0.69375656  1
  O  O7  1  0.18194937  0.23079413  0.69082193  1
  O  O8  1  0.03040360  0.80556510  0.68738387  1
  O  O9  1  0.77984198  0.80357666  0.19581578  1
  O  O10  1  0.01705554  0.22382334  0.19185351  1
  O  O11  1  0.20790005  0.98269262  0.18253860  1
  O  O12  1  0.88202938  0.35222731  0.64758108  1
  O  O13  1  0.48012928  0.11650938  0.63520216  1
  O  O14  1  0.62660533  0.52122937  0.64340651  1
  O  O15  1  0.86110725  0.50523890  0.13961528  1
  O  O16  1  0.62663320  0.10555975  0.14497253  1
  O  O17  1  0.47363159  0.35631407  0.13494409  1
  O  O18  1  0.46104997  0.31729764  0.02747657  1
  O  O19  1  0.83915235  0.52239372  0.02307448  1
  O  O20  1  0.68562973  0.16667580  0.02879324  1
  O  O21  1  0.46974309  0.15051967  0.52835621  1
  O  O22  1  0.68127245  0.52233443  0.52756970  1
  O  O23  1  0.83242322  0.31944317  0.53176889  1
  O  O24  1  0.55124326  0.68364655  0.98109273  1
  O  O25  1  0.14785376  0.44381321  0.97964997  1
  O  O26  1  0.29467411  0.85819790  0.98068492  1
  O  O27  1  0.55318849  0.85794280  0.47558016  1
  O  O28  1  0.30922265  0.43574694  0.48381783  1
  O  O29  1  0.12560973  0.68434528  0.47460561  1
  O  O30  1  0.10962111  0.63657242  0.36716321  1
  O  O31  1  0.52781474  0.90135083  0.35665459  1
  O  O32  1  0.38022318  0.50547990  0.36759760  1
  O  O33  1  0.13928643  0.49774792  0.86340797  1
  O  O34  1  0.35793680  0.85515484  0.86520642  1
  O  O35  1  0.50116213  0.63990945  0.86324819  1
  O  O36  1  0.99428620  0.79896571  0.41376811  1
  O  O37  1  0.81960592  0.97386235  0.41054211  1
  O  O38  1  0.18183625  0.17836730  0.41485346  1
  O  O39  1  0.01284382  0.18372531  0.91044787  1
  O  O40  1  0.17943575  0.99316130  0.91085321  1
  O  O41  1  0.81942191  0.81659533  0.91180519  1
  O  O42  1  0.97908384  0.16656953  0.58373630  1
  O  O43  1  0.21670607  0.04300500  0.58249709  1
  O  O44  1  0.84735395  0.81369651  0.58394098  1
  O  O45  1  0.96633522  0.80507925  0.08136977  1
  O  O46  1  0.84984186  0.03982790  0.08617834  1
  O  O47  1  0.20636751  0.17902922  0.08222347  1
  O  O48  1  0.67049159  0.13995968  0.74420968  1
  O  O49  1  0.49002420  0.33010892  0.74731896  1
  O  O50  1  0.84985908  0.50761662  0.74967652  1
  O  O51  1  0.68388802  0.53239488  0.24707597  1
  O  O52  1  0.84986813  0.31740939  0.24734763  1
  O  O53  1  0.49044258  0.16263251  0.24867457  1
  O  O54  1  0.63174152  0.48320806  0.92270704  1
  O  O55  1  0.86036673  0.36883121  0.92141412  1
  O  O56  1  0.50999620  0.15082201  0.92267805  1
  O  O57  1  0.66558726  0.16148307  0.42885800  1
  O  O58  1  0.51460654  0.35831084  0.42566202  1
  O  O59  1  0.85926317  0.50365703  0.42349002  1
  O  O60  1  0.35324132  0.48204332  0.07823502  1
  O  O61  1  0.14256323  0.63959023  0.08159098  1
  O  O62  1  0.50999715  0.84698567  0.07906094  1
  O  O63  1  0.35047945  0.87377839  0.57484232  1
  O  O64  1  0.50946474  0.66832984  0.58045096  1
  O  O65  1  0.14456927  0.51213815  0.57936162  1
  O  O66  1  0.32337116  0.82880152  0.25241227  1
  O  O67  1  0.53066093  0.68444621  0.25188175  1
  O  O68  1  0.15602538  0.46590474  0.25476221  1
  O  O69  1  0.32544195  0.49836398  0.75821736  1
  O  O70  1  0.17812250  0.68678894  0.75946534  1
  O  O71  1  0.52962209  0.83713481  0.75715352  1
loop_
_geom_bond_atom_site_label_1
_geom_bond_atom_site_label_2
_geom_bond_distance
_geom_bond_site_symmetry_2
Na0 O53 2.374038 1_565
Na0 O66 2.394968 1_555
Na0 O31 2.513337 1_555
Na0 O67 2.588202 1_555
Na0 O16 2.617473 1_565
Na0 O52 2.621625 1_565
Na1 O49 2.378497 1_555
Na1 O69 2.554650 1_555
Na1 O71 2.633049 1_555
Na1 O50 2.636245 1_555
Na1 O14 2.642026 1_555
Na1 O4 2.784469 1_555
Na1 O35 2.859632 1_555
Na2 O12 2.370002 1_455
Na2 O50 2.390365 1_455
Na2 O69 2.596647 1_555
Na2 O70 2.611292 1_555
Na2 O48 2.718458 1_455
Na2 O7 2.750270 1_555
Na3 O28 2.401759 1_555
Na3 O65 2.526125 1_555
Na3 O43 2.541645 1_555
Na3 O42 2.544347 1_455
Na3 O64 2.597687 1_555
Na3 O7 2.627409 1_555
Na3 O14 2.940857 1_555
Na4 O44 2.407950 1_455
Na4 O8 2.418975 1_555
Na4 O65 2.428762 1_555
Na4 O63 2.638832 1_555
Na4 O29 2.811401 1_555
Na4 O43 2.826045 1_565
Na5 O64 2.346404 1_555
Na5 O27 2.437421 1_555
Na5 O42 2.461788 1_565
Na5 O44 2.528502 1_555
Na5 O63 2.718143 1_555
Na5 O6 2.848864 1_555
Na6 O11 2.387528 1_555
Na6 O61 2.454429 1_555
Na6 O26 2.555693 1_554
Na6 O62 2.556867 1_555
Na6 O45 2.649416 1_455
Na6 O47 2.675281 1_565
Na6 O16 2.927535 1_565
Na7 O24 2.304449 1_554
Na7 O62 2.355671 1_555
Na7 O45 2.432255 1_555
Na7 O60 2.606506 1_555
Na7 O46 2.640211 1_565
Na7 O9 2.926003 1_555
Na8 O46 2.415769 1_455
Na8 O61 2.422910 1_555
Na8 O25 2.515939 1_554
Na8 O60 2.585227 1_555
Na8 O47 2.698418 1_555
Na8 O10 2.698655 1_555
Na9 O41 2.310919 1_555
Na9 O40 2.479871 1_655
Na9 O55 2.585222 1_555
Na9 O4 2.634686 1_555
Na9 O54 2.791918 1_555
Na9 O19 2.862993 1_556
Na9 O26 2.944201 1_655
Na9 O33 3.029470 1_655
Na10 O40 2.382888 1_545
Na10 O3 2.459916 1_555
Na10 O54 2.491604 1_555
Na10 O39 2.524081 1_555
Na10 O56 2.627878 1_555
Na10 O18 2.894487 1_556
Na10 O35 2.978875 1_555
Na11 O37 2.411442 1_555
Na11 O58 2.526650 1_555
Na11 O36 2.539821 1_555
Na11 O32 2.596817 1_555
Na11 O1 2.701729 1_555
Na11 O59 2.809909 1_555
Na11 O27 2.868797 1_555
Na11 O22 2.925012 1_555
Na12 O38 2.343037 1_555
Na12 O37 2.391660 1_445
Na12 O42 2.453348 1_455
Na12 O44 2.721001 1_445
Na12 O43 2.783747 1_555
Na12 O36 2.802449 1_445
Na13 O41 2.379963 1_555
Na13 O39 2.462802 1_665
Na13 O46 2.582829 1_566
Na13 O45 2.615785 1_556
Na13 O40 2.620421 1_655
Na13 O47 2.823664 1_666
Na14 O49 2.360622 1_555
Na14 O50 2.520132 1_555
Na14 O56 2.579966 1_555
Na14 O48 2.610457 1_555
Na14 O54 2.673244 1_555
Na14 O55 2.753112 1_555
Na15 O53 2.247794 1_555
Na15 O58 2.529536 1_555
Na15 O51 2.664202 1_555
Na15 O57 2.706347 1_555
Na15 O52 2.780189 1_555
Na15 O59 2.919973 1_555
Na16 O66 2.302969 1_555
Na16 O61 2.429516 1_555
Na16 O68 2.609369 1_555
Na16 O62 2.665221 1_555
Na16 O67 2.730501 1_555
Na16 O60 2.920243 1_555
Na17 O65 2.468620 1_555
Na17 O64 2.523371 1_555
Na17 O69 2.547831 1_555
Na17 O70 2.633830 1_555
Na17 O71 2.742719 1_555
Na17 O63 2.794228 1_555
Nb0 O55 1.941257 1_555
Nb0 O20 1.948384 1_556
Nb0 O19 1.952012 1_556
Nb0 O56 2.021042 1_555
Nb0 O54 2.060091 1_555
Nb0 O18 2.301794 1_556
Nb1 O57 1.949324 1_555
Nb1 O23 1.952319 1_555
Nb1 O58 1.978756 1_555
Nb1 O22 2.019627 1_555
Nb1 O59 2.066161 1_555
Nb1 O21 2.110431 1_555
Nb2 O33 1.914878 1_555
Nb2 O34 1.943978 1_555
Nb2 O35 1.989849 1_555
Nb2 O70 2.007526 1_555
Nb2 O69 2.069219 1_555
Nb2 O71 2.245829 1_555
In0 O0 2.008147 1_555
In0 O38 2.069269 1_555
In0 O37 2.150552 1_445
In0 O2 2.178051 1_455
In0 O1 2.354523 1_445
In0 O36 2.355325 1_445
In1 O4 2.095040 1_455
In1 O3 2.096387 1_565
In1 O40 2.149060 1_555
In1 O39 2.157143 1_565
In1 O41 2.188381 1_455
In1 O5 2.240372 1_465
In2 O8 2.116114 1_545
In2 O7 2.118551 1_555
In2 O44 2.211444 1_445
In2 O42 2.225610 1_455
In2 O6 2.294975 1_445
In2 O43 2.351828 1_555
In3 O11 2.062888 1_555
In3 O45 2.166433 1_455
In3 O46 2.193268 1_465
In3 O9 2.202216 1_455
In3 O47 2.334732 1_565
In3 O10 2.342898 1_565
In4 O14 2.065422 1_555
In4 O12 2.102716 1_555
In4 O49 2.136153 1_555
In4 O50 2.149477 1_555
In4 O13 2.269380 1_555
In4 O48 2.332984 1_555
In5 O15 2.041782 1_555
In5 O16 2.083125 1_555
In5 O53 2.101828 1_555
In5 O17 2.193893 1_555
In5 O52 2.269120 1_555
In5 O51 2.323236 1_555
In6 O26 2.062806 1_554
In6 O24 2.103232 1_554
In6 O25 2.109815 1_554
In6 O62 2.165733 1_555
In6 O61 2.225630 1_555
In6 O60 2.342931 1_555
In7 O28 2.049819 1_555
In7 O27 2.088064 1_555
In7 O64 2.163205 1_555
In7 O65 2.206714 1_555
In7 O29 2.257148 1_555
In7 O63 2.399438 1_555
In8 O32 2.092742 1_555
In8 O31 2.103891 1_555
In8 O66 2.121963 1_555
In8 O30 2.244668 1_555
In8 O67 2.308544 1_555
In8 O68 2.345805 1_555
O0 Si0 1.605822 1_545
O1 S0 1.480072 1_555
O2 S1 1.480561 1_655
O3 Si1 1.606793 1_555
O4 Si2 1.617273 1_655
O5 S2 1.464982 1_545
O6 S2 1.501761 1_555
O7 Si1 1.657067 1_555
O8 Si2 1.645322 1_555
O9 S0 1.505889 1_555
O10 S1 1.502830 1_555
O11 Si0 1.661516 1_555
O12 Si3 1.626229 1_555
O13 S3 1.469965 1_555
O14 Si4 1.624774 1_555
O15 Si5 1.608017 1_555
O16 Si6 1.614887 1_555
O17 S4 1.470074 1_555
O18 S4 1.493875 1_555
O19 Si5 1.702132 1_555
O20 Si6 1.711978 1_555
O21 S3 1.491692 1_555
O22 Si4 1.688860 1_555
O23 Si3 1.673454 1_555
O24 Si7 1.609249 1_555
O25 Si8 1.608503 1_555
O26 Si9 1.613809 1_555
O27 Si10 1.642944 1_555
O28 Si11 1.633177 1_555
O29 S5 1.477176 1_555
O30 S5 1.469252 1_555
O31 Si10 1.618776 1_555
O32 Si11 1.635007 1_555
O33 Si8 1.684772 1_555
O34 Si9 1.678437 1_555
O35 Si7 1.680685 1_555
O36 S5 1.467819 1_655
O37 Si10 1.645375 1_555
O38 Si11 1.608225 1_555
O39 Si8 1.592048 1_555
O40 Si9 1.614845 1_555
O41 Si7 1.613381 1_555
O42 Si3 1.648659 1_555
O43 S3 1.494647 1_555
O44 Si4 1.652848 1_555
O45 Si5 1.648499 1_555
O46 Si6 1.657170 1_555
O47 S4 1.498993 1_555
O48 S2 1.480828 1_545
O49 Si1 1.638106 1_555
O50 Si2 1.656426 1_655
O51 S0 1.482242 1_555
O52 S1 1.491557 1_655
O53 Si0 1.669416 1_545
O54 Si7 1.690803 1_555
O55 Si8 1.673283 1_655
O56 Si9 1.658187 1_545
O57 Si10 1.684357 1_545
O58 Si11 1.711502 1_555
O59 S5 1.527464 1_655
O60 S4 1.484509 1_555
O61 Si5 1.640548 1_455
O62 Si6 1.630469 1_565
O63 S3 1.486033 1_565
O64 Si4 1.643787 1_555
O65 Si3 1.648117 1_455
O66 Si0 1.668734 1_555
O67 S0 1.495809 1_555
O68 S1 1.485023 1_555
O69 Si1 1.706459 1_555
O70 Si2 1.682937 1_555
O71 S2 1.496334 1_555
