# generated using pymatgen
data_Sb6S2O15
_symmetry_space_group_name_H-M   'P 1'
_cell_length_a   11.19772093
_cell_length_b   11.19772093
_cell_length_c   5.88556429
_cell_angle_alpha   90.00000000
_cell_angle_beta   90.00000000
_cell_angle_gamma   114.39326326
_symmetry_Int_Tables_number   1
_chemical_formula_structural   Sb6S2O15
_chemical_formula_sum   'Sb12 S4 O30'
_cell_volume   672.10649419
_cell_formula_units_Z   2
loop_
 _symmetry_equiv_pos_site_id
 _symmetry_equiv_pos_as_xyz
  1  'x, y, z'
loop_
 _atom_site_type_symbol
 _atom_site_label
 _atom_site_symmetry_multiplicity
 _atom_site_fract_x
 _atom_site_fract_y
 _atom_site_fract_z
 _atom_site_occupancy
  Sb  Sb0  1  0.11736925  0.69993116  0.87416688  1
  Sb  Sb1  1  0.88263075  0.30006884  0.87416688  1
  Sb  Sb2  1  0.30006884  0.88263075  0.37416688  1
  Sb  Sb3  1  0.69993116  0.11736925  0.37416688  1
  Sb  Sb4  1  0.37692673  0.24589447  0.39197720  1
  Sb  Sb5  1  0.62307327  0.75410553  0.39197720  1
  Sb  Sb6  1  0.75410553  0.62307327  0.89197720  1
  Sb  Sb7  1  0.24589447  0.37692673  0.89197720  1
  Sb  Sb8  1  0.95871789  0.82526387  0.50605075  1
  Sb  Sb9  1  0.04128211  0.17473613  0.50605075  1
  Sb  Sb10  1  0.17473613  0.04128211  0.00605075  1
  Sb  Sb11  1  0.82526387  0.95871789  0.00605075  1
  S  S0  1  0.78670413  0.47729298  0.34016285  1
  S  S1  1  0.21329587  0.52270702  0.34016285  1
  S  S2  1  0.52270702  0.21329587  0.84016285  1
  S  S3  1  0.47729298  0.78670413  0.84016285  1
  O  O0  1  0.66184366  0.48840365  0.33826142  1
  O  O1  1  0.33815634  0.51159635  0.33826142  1
  O  O2  1  0.51159635  0.33815634  0.83826142  1
  O  O3  1  0.48840365  0.66184366  0.83826142  1
  O  O4  1  0.77078828  0.34134545  0.28758860  1
  O  O5  1  0.22921172  0.65865455  0.28758860  1
  O  O6  1  0.65865455  0.22921172  0.78758860  1
  O  O7  1  0.34134545  0.77078828  0.78758860  1
  O  O8  1  0.87053943  0.56246035  0.14968458  1
  O  O9  1  0.12946057  0.43753965  0.14968458  1
  O  O10  1  0.43753965  0.12946057  0.64968458  1
  O  O11  1  0.56246035  0.87053943  0.64968458  1
  O  O12  1  -0.00000000  0.00000000  0.15051534  1
  O  O13  1  -0.00000000  0.00000000  0.65051534  1
  O  O14  1  0.75722902  0.75999379  0.11763521  1
  O  O15  1  0.24277098  0.24000621  0.11763521  1
  O  O16  1  0.24000621  0.24277098  0.61763521  1
  O  O17  1  0.75999379  0.75722902  0.61763521  1
  O  O18  1  0.05124826  0.25609295  0.82821259  1
  O  O19  1  0.94875174  0.74390705  0.82821259  1
  O  O20  1  0.74390705  0.94875174  0.32821259  1
  O  O21  1  0.25609295  0.05124826  0.32821259  1
  O  O22  1  0.82704104  0.15718008  0.10662250  1
  O  O23  1  0.17295896  0.84281992  0.10662250  1
  O  O24  1  0.84281992  0.17295896  0.60662250  1
  O  O25  1  0.15718008  0.82704104  0.60662250  1
  O  O26  1  0.85810763  0.52161159  0.55420874  1
  O  O27  1  0.14189237  0.47838841  0.55420874  1
  O  O28  1  0.47838841  0.14189237  0.05420874  1
  O  O29  1  0.52161159  0.85810763  0.05420874  1
loop_
_geom_bond_atom_site_label_1
_geom_bond_atom_site_label_2
_geom_bond_distance
_geom_bond_site_symmetry_2
O0 S0 1.454000 1_555
O1 S1 1.454000 1_555
O2 S2 1.454000 1_555
O3 S3 1.454000 1_555
O4 S0 1.490240 1_555
O4 Sb3 2.352802 1_555
O5 S1 1.490240 1_555
O5 Sb2 2.352802 1_555
O6 S2 1.490240 1_555
O6 Sb1 2.352802 1_555
O7 S3 1.490240 1_555
O7 Sb0 2.352802 1_555
O8 S0 1.519240 1_555
O8 Sb6 2.278602 1_554
O9 S1 1.519240 1_555
O9 Sb7 2.278602 1_554
O10 S2 1.519240 1_555
O10 Sb4 2.278602 1_555
O11 S3 1.519240 1_555
O11 Sb5 2.278602 1_555
O12 Sb10 2.004491 1_555
O12 Sb11 2.004491 1_445
O13 Sb8 2.004491 1_445
O13 Sb9 2.004491 1_555
O14 Sb6 2.017806 1_554
O14 Sb11 2.136159 1_555
O14 Sb5 2.187778 1_555
O15 Sb7 2.017806 1_554
O15 Sb10 2.136159 1_555
O15 Sb4 2.187778 1_555
O16 Sb4 2.017806 1_555
O16 Sb9 2.136159 1_555
O16 Sb7 2.187778 1_555
O17 Sb5 2.017806 1_555
O17 Sb8 2.136159 1_555
O17 Sb6 2.187778 1_555
O18 Sb7 2.070335 1_555
O18 Sb9 2.086535 1_555
O18 Sb1 2.156077 1_455
O19 Sb6 2.070335 1_555
O19 Sb8 2.086535 1_555
O19 Sb0 2.156077 1_655
O20 Sb5 2.070335 1_555
O20 Sb11 2.086535 1_555
O20 Sb3 2.156077 1_565
O21 Sb4 2.070335 1_555
O21 Sb10 2.086535 1_555
O21 Sb2 2.156077 1_545
O22 Sb1 1.999170 1_554
O22 Sb3 2.044516 1_555
O22 Sb11 2.291934 1_545
O23 Sb0 1.999170 1_554
O23 Sb2 2.044516 1_555
O23 Sb10 2.291934 1_565
O24 Sb3 1.999170 1_555
O24 Sb1 2.044516 1_555
O24 Sb9 2.291934 1_655
O25 Sb2 1.999170 1_555
O25 Sb0 2.044516 1_555
O25 Sb8 2.291934 1_455
O26 S0 1.464537 1_555
O27 S1 1.464537 1_555
O28 S2 1.464537 1_554
O29 S3 1.464537 1_554
