# generated using pymatgen
data_Na6ZnGe7(PO4)12
_symmetry_space_group_name_H-M   'P 1'
_cell_length_a   16.87637654
_cell_length_b   8.44128540
_cell_length_c   21.75569222
_cell_angle_alpha   90.03225124
_cell_angle_beta   89.94194374
_cell_angle_gamma   120.00128345
_symmetry_Int_Tables_number   1
_chemical_formula_structural   Na6ZnGe7(PO4)12
_chemical_formula_sum   'Na18 Zn3 Ge21 P36 O144'
_cell_volume   2684.01839614
_cell_formula_units_Z   3
loop_
 _symmetry_equiv_pos_site_id
 _symmetry_equiv_pos_as_xyz
  1  'x, y, z'
loop_
 _atom_site_type_symbol
 _atom_site_label
 _atom_site_symmetry_multiplicity
 _atom_site_fract_x
 _atom_site_fract_y
 _atom_site_fract_z
 _atom_site_occupancy
  Na  Na0  1  0.68541444  0.36552659  0.24809751  1
  Na  Na1  1  0.99708097  0.62813836  0.24796659  1
  Na  Na2  1  0.99601669  0.36483804  0.74657088  1
  Na  Na3  1  0.49610451  0.36498154  0.74649732  1
  Na  Na4  1  0.18571411  0.00526921  0.74659196  1
  Na  Na5  1  0.68576878  0.00533239  0.74671697  1
  Na  Na6  1  0.99988718  0.99983566  0.50009010  1
  Na  Na7  1  0.49993197  0.99980068  0.50003953  1
  Na  Na8  1  0.99948219  0.99904609  0.00068222  1
  Na  Na9  1  0.50052894  0.00075816  0.00067805  1
  Na  Na10  1  0.33297390  0.33975126  0.83299193  1
  Na  Na11  1  0.83289185  0.33959274  0.83344088  1
  Na  Na12  1  0.33331935  0.33409132  0.33435378  1
  Na  Na13  1  0.83298534  0.32510543  0.33342640  1
  Na  Na14  1  0.16859116  0.66560551  0.16581265  1
  Na  Na15  1  0.66767261  0.67446649  0.16527317  1
  Na  Na16  1  0.16985630  0.66583514  0.66264252  1
  Na  Na17  1  0.66984323  0.66578452  0.66267594  1
  Zn  Zn0  1  0.33293409  0.33867756  0.68111363  1
  Zn  Zn1  1  0.83294219  0.33870951  0.68115982  1
  Zn  Zn2  1  0.83301366  0.32525884  0.18326296  1
  Ge  Ge0  1  0.00142952  0.00345603  0.35499806  1
  Ge  Ge1  1  0.49816132  0.99677901  0.35441794  1
  Ge  Ge2  1  0.99962981  0.99897348  0.85501127  1
  Ge  Ge3  1  0.50006558  0.99917286  0.85499524  1
  Ge  Ge4  1  0.99911078  0.99842082  0.64321274  1
  Ge  Ge5  1  0.49917387  0.99852188  0.64322135  1
  Ge  Ge6  1  0.99849550  0.00105621  0.14544364  1
  Ge  Ge7  1  0.50071787  0.99917200  0.14615236  1
  Ge  Ge8  1  0.33336359  0.33534060  0.18600666  1
  Ge  Ge9  1  0.33348365  0.33337124  0.98075912  1
  Ge  Ge10  1  0.83337417  0.33301107  0.98242136  1
  Ge  Ge11  1  0.33340961  0.33404537  0.48172830  1
  Ge  Ge12  1  0.83342821  0.33419902  0.48160620  1
  Ge  Ge13  1  0.16657926  0.66704515  0.02044327  1
  Ge  Ge14  1  0.66743558  0.66666583  0.02015057  1
  Ge  Ge15  1  0.16694611  0.66667531  0.51921517  1
  Ge  Ge16  1  0.66687625  0.66702518  0.51924004  1
  Ge  Ge17  1  0.16980936  0.66553173  0.31476246  1
  Ge  Ge18  1  0.66592914  0.67261237  0.31569690  1
  Ge  Ge19  1  0.16862484  0.66571957  0.81584516  1
  Ge  Ge20  1  0.66891299  0.66606885  0.81598661  1
  P  P0  1  0.14537627  0.00435889  0.24997367  1
  P  P1  1  0.64147625  0.99355476  0.25159436  1
  P  P2  1  0.35673011  0.71319516  0.24970806  1
  P  P3  1  0.85601297  0.72012239  0.25177445  1
  P  P4  1  0.00160385  0.28513694  0.25158591  1
  P  P5  1  0.49747869  0.28565542  0.25027055  1
  P  P6  1  0.14343138  0.28855985  0.75145017  1
  P  P7  1  0.64353637  0.28885609  0.75140119  1
  P  P8  1  0.99857136  0.71463248  0.75160407  1
  P  P9  1  0.49862099  0.71463779  0.75160163  1
  P  P10  1  0.35656074  0.99227728  0.75132066  1
  P  P11  1  0.85651081  0.99239159  0.75122992  1
  P  P12  1  0.47996361  0.33501544  0.58292831  1
  P  P13  1  0.97996926  0.33503942  0.58294878  1
  P  P14  1  0.18767248  0.04006857  0.58303008  1
  P  P15  1  0.68771368  0.04024688  0.58304398  1
  P  P16  1  0.33236253  0.62421972  0.58237481  1
  P  P17  1  0.83230084  0.62409031  0.58231968  1
  P  P18  1  0.47702966  0.62065898  0.08323579  1
  P  P19  1  0.97991736  0.62601042  0.08326209  1
  P  P20  1  0.33355392  0.04643357  0.08351243  1
  P  P21  1  0.83272604  0.04070641  0.08241063  1
  P  P22  1  0.18967665  0.33348411  0.08322652  1
  P  P23  1  0.68714273  0.33382962  0.08334257  1
  P  P24  1  0.31082629  0.66626628  0.91782251  1
  P  P25  1  0.81125861  0.66538208  0.91745284  1
  P  P26  1  0.02185258  0.37778682  0.91734075  1
  P  P27  1  0.52210657  0.37816183  0.91725202  1
  P  P28  1  0.16703774  0.95618614  0.91719378  1
  P  P29  1  0.66710618  0.95595475  0.91749320  1
  P  P30  1  0.31054073  0.95560415  0.41672577  1
  P  P31  1  0.81109818  0.95656105  0.41729112  1
  P  P32  1  0.16745969  0.37845260  0.41724784  1
  P  P33  1  0.66672916  0.37805572  0.41651055  1
  P  P34  1  0.02234135  0.66610793  0.41653444  1
  P  P35  1  0.52180820  0.66534140  0.41724932  1
  O  O0  1  0.10453098  0.03842629  0.30814736  1
  O  O1  1  0.59825265  0.03495640  0.30826474  1
  O  O2  1  0.41519392  0.79206055  0.30787797  1
  O  O3  1  0.91904787  0.80301486  0.30843467  1
  O  O4  1  0.48022288  0.16806523  0.30796555  1
  O  O5  1  0.98509584  0.16714525  0.30923269  1
  O  O6  1  0.10015263  0.16574199  0.80897890  1
  O  O7  1  0.60022350  0.16591258  0.80896225  1
  O  O8  1  0.48435168  0.80101493  0.80979529  1
  O  O9  1  0.98457074  0.80124854  0.80975189  1
  O  O10  1  0.41780679  0.03425148  0.80895654  1
  O  O11  1  0.91779959  0.03455432  0.80880606  1
  O  O12  1  0.39737806  0.95803128  0.69310992  1
  O  O13  1  0.89741208  0.95800822  0.69305195  1
  O  O14  1  0.08092151  0.20855374  0.69415590  1
  O  O15  1  0.58088960  0.20855325  0.69415044  1
  O  O16  1  0.02264166  0.83908729  0.69414578  1
  O  O17  1  0.52258674  0.83906361  0.69418186  1
  O  O18  1  0.39681072  0.83288070  0.19176295  1
  O  O19  1  0.89682820  0.83497980  0.19289226  1
  O  O20  1  0.02133183  0.20628465  0.19288124  1
  O  O21  1  0.52073836  0.20724033  0.19275350  1
  O  O22  1  0.08274248  0.95761370  0.19275211  1
  O  O23  1  0.58228973  0.95746767  0.19287219  1
  O  O24  1  0.44695065  0.37347248  0.64286499  1
  O  O25  1  0.94695527  0.37348221  0.64287628  1
  O  O26  1  0.24022820  0.10503341  0.64285794  1
  O  O27  1  0.74027991  0.10523908  0.64285438  1
  O  O28  1  0.31181449  0.51611840  0.64080894  1
  O  O29  1  0.81179643  0.51602247  0.64074335  1
  O  O30  1  0.43655715  0.50091063  0.14111919  1
  O  O31  1  0.94656272  0.51936972  0.14233875  1
  O  O32  1  0.31428567  0.12800428  0.14129312  1
  O  O33  1  0.81129839  0.10787947  0.14065981  1
  O  O34  1  0.24954617  0.37252434  0.14107494  1
  O  O35  1  0.74066922  0.37486021  0.14240265  1
  O  O36  1  0.23019555  0.29460205  0.02518826  1
  O  O37  1  0.72867617  0.29484412  0.02521347  1
  O  O38  1  0.41699294  0.53982135  0.02528036  1
  O  O39  1  0.91912032  0.54273747  0.02515820  1
  O  O40  1  0.35261206  0.16536836  0.02526612  1
  O  O41  1  0.85259893  0.16194402  0.02410168  1
  O  O42  1  0.22949404  0.16358646  0.52559626  1
  O  O43  1  0.72941764  0.16371765  0.52556014  1
  O  O44  1  0.35260654  0.54304658  0.52420641  1
  O  O45  1  0.85259307  0.54293784  0.52410484  1
  O  O46  1  0.41824304  0.29556017  0.52555750  1
  O  O47  1  0.91829753  0.29559679  0.52555284  1
  O  O48  1  0.26923524  0.70495517  0.97468769  1
  O  O49  1  0.76965222  0.70485788  0.97364620  1
  O  O50  1  0.08383964  0.46188798  0.97354425  1
  O  O51  1  0.58293917  0.46277289  0.97347379  1
  O  O52  1  0.14859844  0.83434872  0.97348023  1
  O  O53  1  0.64732261  0.83221517  0.97354182  1
  O  O54  1  0.26983255  0.83451041  0.47350936  1
  O  O55  1  0.76952820  0.83454209  0.47376879  1
  O  O56  1  0.14765475  0.46059024  0.47387177  1
  O  O57  1  0.64782558  0.46207247  0.47298973  1
  O  O58  1  0.08319976  0.70435677  0.47304542  1
  O  O59  1  0.58274301  0.70473879  0.47378226  1
  O  O60  1  0.06235691  0.62981947  0.35674887  1
  O  O61  1  0.56201891  0.62651929  0.35867117  1
  O  O62  1  0.25113448  0.87452392  0.35819981  1
  O  O63  1  0.75168237  0.87596805  0.35868314  1
  O  O64  1  0.18637407  0.49639210  0.35863573  1
  O  O65  1  0.68501112  0.49472760  0.35671440  1
  O  O66  1  0.06172811  0.49470306  0.85753830  1
  O  O67  1  0.56136167  0.49424470  0.85742766  1
  O  O68  1  0.18567562  0.87723203  0.85735501  1
  O  O69  1  0.68531117  0.87668244  0.85741620  1
  O  O70  1  0.25150519  0.62733578  0.85923644  1
  O  O71  1  0.75174901  0.62706710  0.85877461  1
  O  O72  1  0.01316670  0.83887442  0.40919992  1
  O  O73  1  0.51257168  0.83770573  0.40969283  1
  O  O74  1  0.40612655  0.97348999  0.40922413  1
  O  O75  1  0.90630543  0.97412403  0.40997233  1
  O  O76  1  0.08116743  0.18735005  0.41017893  1
  O  O77  1  0.58026540  0.18733037  0.40909674  1
  O  O78  1  0.01291821  0.18738723  0.90988062  1
  O  O79  1  0.51252057  0.18722206  0.90997766  1
  O  O80  1  0.08104360  0.97456843  0.91015387  1
  O  O81  1  0.58065459  0.97384883  0.91023680  1
  O  O82  1  0.40600855  0.83833072  0.91049209  1
  O  O83  1  0.90635885  0.83839042  0.91002874  1
  O  O84  1  0.48893548  0.16053524  0.58826555  1
  O  O85  1  0.98896304  0.16053517  0.58829739  1
  O  O86  1  0.09161535  0.02310022  0.58848707  1
  O  O87  1  0.59160476  0.02316800  0.58851283  1
  O  O88  1  0.41984659  0.81673530  0.58794988  1
  O  O89  1  0.91980322  0.81659853  0.58789852  1
  O  O90  1  0.48603625  0.81140001  0.09032828  1
  O  O91  1  0.99012477  0.81937818  0.08845921  1
  O  O92  1  0.41920155  0.02667755  0.09085184  1
  O  O93  1  0.92023325  0.02326254  0.08775752  1
  O  O94  1  0.09459765  0.16246700  0.09053092  1
  O  O95  1  0.59045219  0.15828903  0.08843062  1
  O  O96  1  0.34449159  0.15922701  0.74801019  1
  O  O97  1  0.84447343  0.15932879  0.74790687  1
  O  O98  1  0.23657786  0.30652458  0.74789223  1
  O  O99  1  0.73657022  0.30656876  0.74783515  1
  O  O100  1  0.41800311  0.52334055  0.74824302  1
  O  O101  1  0.91805050  0.52338569  0.74822735  1
  O  O102  1  0.34636435  0.52111605  0.24231374  1
  O  O103  1  0.84470593  0.52984579  0.24801230  1
  O  O104  1  0.41280343  0.30683657  0.24248790  1
  O  O105  1  0.91985535  0.31277027  0.24805146  1
  O  O106  1  0.24071182  0.17441160  0.24240141  1
  O  O107  1  0.73450561  0.16372385  0.24801667  1
  O  O108  1  0.32036109  0.49443151  0.92435319  1
  O  O109  1  0.82075456  0.49376591  0.92415633  1
  O  O110  1  0.42658658  0.35949735  0.92364227  1
  O  O111  1  0.92689316  0.36003206  0.92365748  1
  O  O112  1  0.25323498  0.14697791  0.92367995  1
  O  O113  1  0.75290183  0.14634907  0.92378790  1
  O  O114  1  0.32071528  0.14673343  0.42374853  1
  O  O115  1  0.82066127  0.14744014  0.42419641  1
  O  O116  1  0.25306642  0.35871874  0.42389910  1
  O  O117  1  0.75272749  0.35937751  0.42331063  1
  O  O118  1  0.42650139  0.49344021  0.42371056  1
  O  O119  1  0.92693660  0.49441918  0.42336559  1
  O  O120  1  0.18036540  0.50575448  0.07582791  1
  O  O121  1  0.67561543  0.50325111  0.07350507  1
  O  O122  1  0.07622233  0.64588075  0.07369811  1
  O  O123  1  0.57222509  0.64041855  0.07581385  1
  O  O124  1  0.24794205  0.85525860  0.07607295  1
  O  O125  1  0.74716816  0.84805267  0.07323623  1
  O  O126  1  0.17639866  0.84824641  0.57335937  1
  O  O127  1  0.67643218  0.84836511  0.57352108  1
  O  O128  1  0.24770131  0.64732441  0.57310201  1
  O  O129  1  0.74760061  0.64704793  0.57302125  1
  O  O130  1  0.07573933  0.50511374  0.57353382  1
  O  O131  1  0.57576258  0.50487300  0.57347888  1
  O  O132  1  0.15327505  0.82841019  0.25697220  1
  O  O133  1  0.64897738  0.81903618  0.25793045  1
  O  O134  1  0.26099765  0.69424834  0.25684592  1
  O  O135  1  0.75856856  0.69642463  0.25774657  1
  O  O136  1  0.08907780  0.48118868  0.25731258  1
  O  O137  1  0.58571756  0.47608814  0.25720019  1
  O  O138  1  0.14910706  0.47837070  0.75814974  1
  O  O139  1  0.64902737  0.47842233  0.75813797  1
  O  O140  1  0.08837593  0.69919901  0.75767714  1
  O  O141  1  0.58832856  0.69916587  0.75768364  1
  O  O142  1  0.25923754  0.82056003  0.75775500  1
  O  O143  1  0.75920468  0.82065575  0.75763683  1
loop_
_geom_bond_atom_site_label_1
_geom_bond_atom_site_label_2
_geom_bond_distance
_geom_bond_site_symmetry_2
Na0 O107 2.235968 1_555
Na0 O137 2.304465 1_555
Na0 O103 2.328468 1_555
Na0 O135 2.433423 1_555
Na0 O35 2.466919 1_555
Na0 O65 2.603446 1_555
Na0 O21 2.692602 1_555
Na0 O1 2.749386 1_555
Na1 O103 2.273215 1_555
Na1 O105 2.305596 1_555
Na1 O132 2.321426 1_655
Na1 O136 2.432572 1_655
Na1 O31 2.463632 1_555
Na1 O60 2.608513 1_655
Na1 O22 2.692091 1_655
Na1 O3 2.753611 1_555
Na2 O97 2.261445 1_555
Na2 O138 2.276373 1_655
Na2 O101 2.298839 1_555
Na2 O25 2.417553 1_555
Na2 O140 2.460603 1_655
Na2 O14 2.641834 1_655
Na2 O66 2.654520 1_655
Na2 O11 2.769292 1_555
Na3 O96 2.262792 1_555
Na3 O139 2.274024 1_555
Na3 O100 2.299457 1_555
Na3 O24 2.416587 1_555
Na3 O141 2.459400 1_555
Na3 O15 2.640533 1_555
Na3 O67 2.651132 1_555
Na3 O10 2.774536 1_555
Na4 O98 2.240848 1_555
Na4 O140 2.277580 1_545
Na4 O96 2.321142 1_555
Na4 O26 2.423201 1_555
Na4 O142 2.442417 1_545
Na4 O68 2.641427 1_545
Na4 O16 2.643377 1_545
Na4 O6 2.777083 1_555
Na5 O99 2.240846 1_555
Na5 O141 2.278203 1_545
Na5 O97 2.319997 1_555
Na5 O27 2.425986 1_555
Na5 O143 2.440424 1_545
Na5 O69 2.640834 1_545
Na5 O17 2.645656 1_545
Na5 O7 2.776049 1_555
Na6 O89 2.403328 1_555
Na6 O85 2.408975 1_565
Na6 O86 2.415582 1_665
Na6 O76 2.457648 1_665
Na6 O75 2.459313 1_555
Na6 O72 2.471227 1_655
Na7 O88 2.404571 1_555
Na7 O84 2.409913 1_565
Na7 O87 2.416137 1_565
Na7 O73 2.463561 1_555
Na7 O77 2.471907 1_565
Na7 O74 2.472518 1_555
Na8 O93 2.384752 1_565
Na8 O91 2.394785 1_555
Na8 O83 2.463855 1_554
Na8 O94 2.467685 1_665
Na8 O80 2.468757 1_654
Na8 O78 2.474578 1_664
Na9 O95 2.387669 1_555
Na9 O90 2.455695 1_545
Na9 O81 2.460264 1_544
Na9 O92 2.464682 1_555
Na9 O82 2.467838 1_544
Na9 O79 2.469062 1_554
Na10 O100 2.373661 1_555
Na10 O98 2.387909 1_555
Na10 O108 2.444378 1_555
Na10 O96 2.463825 1_555
Na10 O110 2.481070 1_555
Na10 O112 2.481910 1_555
Na11 O101 2.382724 1_555
Na11 O99 2.396063 1_555
Na11 O109 2.427660 1_555
Na11 O97 2.471826 1_555
Na11 O111 2.476073 1_555
Na11 O113 2.478459 1_555
Na12 O116 2.438954 1_555
Na12 O118 2.439140 1_555
Na12 O114 2.448498 1_555
Na12 O104 2.479796 1_555
Na12 O106 2.481530 1_555
Na12 O102 2.491090 1_555
Na13 O105 2.399369 1_555
Na13 O107 2.410379 1_555
Na13 O115 2.425426 1_555
Na13 O119 2.474317 1_555
Na13 O117 2.475495 1_555
Na13 O103 2.477926 1_555
Na14 O120 2.440719 1_555
Na14 O124 2.454017 1_555
Na14 O134 2.457937 1_555
Na14 O136 2.468959 1_555
Na14 O122 2.494035 1_555
Na14 O132 2.497965 1_555
Na15 O125 2.447085 1_555
Na15 O123 2.451110 1_555
Na15 O133 2.456286 1_555
Na15 O135 2.481213 1_555
Na15 O121 2.506526 1_555
Na15 O137 2.529599 1_555
Na16 O128 2.396843 1_555
Na16 O130 2.443364 1_555
Na16 O126 2.447249 1_555
Na16 O142 2.509188 1_555
Na16 O138 2.528276 1_555
Na16 O140 2.574065 1_555
Na17 O129 2.398650 1_555
Na17 O131 2.445030 1_555
Na17 O127 2.445690 1_555
Na17 O143 2.506626 1_555
Na17 O139 2.526790 1_555
Na17 O141 2.573991 1_555
Ge0 O5 1.832907 1_455
Ge0 O3 1.862906 1_445
Ge0 O76 1.890474 1_555
Ge0 O0 1.907006 1_555
Ge0 O72 1.907188 1_545
Ge0 O75 1.915156 1_445
Ge1 O1 1.848764 1_565
Ge1 O2 1.884980 1_555
Ge1 O74 1.887846 1_555
Ge1 O73 1.907171 1_555
Ge1 O4 1.908802 1_565
Ge1 O77 1.922142 1_565
Ge2 O9 1.842369 1_555
Ge2 O11 1.850890 1_565
Ge2 O6 1.863470 1_665
Ge2 O83 1.900543 1_555
Ge2 O78 1.909587 1_665
Ge2 O80 1.912096 1_655
Ge3 O8 1.841286 1_555
Ge3 O10 1.852649 1_565
Ge3 O7 1.860135 1_565
Ge3 O81 1.906344 1_555
Ge3 O79 1.912981 1_565
Ge3 O82 1.914030 1_555
Ge4 O89 1.882040 1_555
Ge4 O85 1.888379 1_565
Ge4 O86 1.889273 1_665
Ge4 O13 1.910206 1_555
Ge4 O16 1.931638 1_655
Ge4 O14 1.957727 1_665
Ge5 O88 1.881408 1_555
Ge5 O87 1.888165 1_565
Ge5 O84 1.888974 1_565
Ge5 O12 1.911962 1_555
Ge5 O17 1.931720 1_555
Ge5 O15 1.956674 1_565
Ge6 O20 1.883063 1_655
Ge6 O19 1.888758 1_545
Ge6 O93 1.898907 1_555
Ge6 O91 1.921035 1_545
Ge6 O94 1.924085 1_655
Ge6 O22 1.933921 1_645
Ge7 O23 1.881505 1_555
Ge7 O18 1.888520 1_555
Ge7 O21 1.905802 1_565
Ge7 O95 1.907438 1_565
Ge7 O90 1.911654 1_555
Ge7 O92 1.927954 1_565
Ge8 O34 1.871398 1_555
Ge8 O30 1.871882 1_555
Ge8 O32 1.883692 1_555
Ge8 O102 1.913704 1_555
Ge8 O106 1.915570 1_555
Ge8 O104 1.921311 1_555
Ge9 O38 1.872465 1_556
Ge9 O36 1.872525 1_556
Ge9 O40 1.874290 1_556
Ge9 O108 1.925322 1_555
Ge9 O110 1.926486 1_555
Ge9 O112 1.929262 1_555
Ge10 O41 1.866367 1_556
Ge10 O37 1.876231 1_556
Ge10 O39 1.879259 1_556
Ge10 O109 1.945518 1_555
Ge10 O111 1.952845 1_555
Ge10 O113 1.953350 1_555
Ge11 O44 1.870485 1_555
Ge11 O42 1.879207 1_555
Ge11 O46 1.879551 1_555
Ge11 O116 1.936715 1_555
Ge11 O118 1.937968 1_555
Ge11 O114 1.948486 1_555
Ge12 O45 1.868971 1_555
Ge12 O43 1.881095 1_555
Ge12 O47 1.881911 1_555
Ge12 O115 1.936582 1_555
Ge12 O119 1.946395 1_555
Ge12 O117 1.949822 1_555
Ge13 O122 1.850348 1_555
Ge13 O48 1.880738 1_554
Ge13 O52 1.887133 1_554
Ge13 O50 1.890121 1_554
Ge13 O120 1.918037 1_555
Ge13 O124 1.921954 1_555
Ge14 O125 1.851926 1_555
Ge14 O121 1.860596 1_555
Ge14 O49 1.882551 1_554
Ge14 O53 1.890222 1_554
Ge14 O51 1.890366 1_554
Ge14 O123 1.933330 1_555
Ge15 O128 1.866690 1_555
Ge15 O126 1.875097 1_555
Ge15 O130 1.877375 1_555
Ge15 O56 1.880891 1_555
Ge15 O54 1.883841 1_555
Ge15 O58 1.886910 1_555
Ge16 O129 1.867244 1_555
Ge16 O127 1.874896 1_555
Ge16 O131 1.877155 1_555
Ge16 O55 1.878212 1_555
Ge16 O59 1.884316 1_555
Ge16 O57 1.884513 1_555
Ge17 O64 1.851733 1_555
Ge17 O62 1.862361 1_555
Ge17 O134 1.907368 1_555
Ge17 O60 1.914150 1_555
Ge17 O136 1.928973 1_555
Ge17 O132 1.983751 1_555
Ge18 O61 1.848094 1_555
Ge18 O63 1.852631 1_555
Ge18 O133 1.882834 1_555
Ge18 O65 1.907988 1_555
Ge18 O135 1.938089 1_555
Ge18 O137 1.989835 1_555
Ge19 O70 1.846289 1_555
Ge19 O66 1.885478 1_555
Ge19 O68 1.889724 1_555
Ge19 O142 1.908705 1_555
Ge19 O138 1.913826 1_555
Ge19 O140 1.975376 1_555
Ge20 O71 1.841875 1_555
Ge20 O69 1.885844 1_555
Ge20 O67 1.891162 1_555
Ge20 O143 1.909365 1_555
Ge20 O139 1.916387 1_555
Ge20 O141 1.979984 1_555
O0 P0 1.534825 1_555
O1 P1 1.557862 1_545
O2 P2 1.537190 1_555
O3 P3 1.548574 1_555
O4 P5 1.535313 1_555
O5 P4 1.538090 1_655
O6 P6 1.554702 1_555
O7 P7 1.555805 1_555
O8 P9 1.538320 1_555
O9 P8 1.536837 1_555
O10 P10 1.549860 1_545
O11 P11 1.549040 1_545
O12 P10 1.535854 1_555
O13 P11 1.536513 1_555
O14 P6 1.553041 1_555
O15 P7 1.553589 1_555
O16 P8 1.550798 1_455
O17 P9 1.550127 1_555
O18 P2 1.543938 1_555
O19 P3 1.545072 1_555
O20 P4 1.550750 1_555
O21 P5 1.554334 1_555
O22 P0 1.551703 1_565
O23 P1 1.555789 1_555
O24 P12 1.514935 1_555
O24 Zn0 1.978141 1_555
O25 P13 1.514724 1_555
O25 Zn1 1.978471 1_555
O26 P14 1.515483 1_555
O26 Zn0 1.986270 1_555
O27 P15 1.515244 1_555
O27 Zn1 1.985631 1_555
O28 P16 1.501012 1_555
O28 Zn0 1.917133 1_555
O29 P17 1.500735 1_555
O29 Zn1 1.917559 1_555
O30 P18 1.543814 1_555
O31 P19 1.507372 1_555
O31 Zn2 2.001960 1_555
O32 P20 1.543427 1_555
O33 P21 1.503840 1_555
O33 Zn2 1.920088 1_555
O34 P22 1.543536 1_555
O35 P23 1.508605 1_555
O35 Zn2 2.012470 1_555
O36 P22 1.546567 1_555
O37 P23 1.557990 1_555
O38 P18 1.546672 1_555
O39 P19 1.557290 1_555
O40 P20 1.547528 1_555
O41 P21 1.557694 1_555
O42 P14 1.552514 1_555
O43 P15 1.552980 1_555
O44 P16 1.555621 1_555
O45 P17 1.556704 1_555
O46 P12 1.552093 1_555
O47 P13 1.552081 1_555
O48 P24 1.535211 1_555
O49 P25 1.526576 1_555
O50 P26 1.533748 1_555
O51 P27 1.525929 1_555
O52 P28 1.527969 1_555
O53 P29 1.530108 1_555
O54 P30 1.529836 1_555
O55 P31 1.529657 1_555
O56 P32 1.529692 1_555
O57 P33 1.529396 1_555
O58 P34 1.530071 1_555
O59 P35 1.530000 1_555
O60 P34 1.564062 1_555
O61 P35 1.553124 1_555
O62 P30 1.552479 1_555
O63 P31 1.553535 1_555
O64 P32 1.549786 1_555
O65 P33 1.566607 1_555
O66 P26 1.566873 1_555
O67 P27 1.563178 1_555
O68 P28 1.563883 1_555
O69 P29 1.566608 1_555
O70 P24 1.551744 1_555
O71 P25 1.555702 1_555
O72 P34 1.549971 1_555
O73 P35 1.547712 1_555
O74 P30 1.551642 1_555
O75 P31 1.546053 1_555
O76 P32 1.548409 1_555
O77 P33 1.548579 1_555
O78 P26 1.545844 1_555
O79 P27 1.545331 1_555
O80 P28 1.542530 1_555
O81 P29 1.548312 1_555
O82 P24 1.543332 1_555
O83 P25 1.546128 1_555
O84 P12 1.558493 1_555
O85 P13 1.558924 1_555
O86 P14 1.558842 1_555
O87 P15 1.559330 1_555
O88 P16 1.560817 1_555
O89 P17 1.560920 1_555
O90 P18 1.547371 1_555
O91 P19 1.557373 1_555
O92 P20 1.544055 1_555
O93 P21 1.560128 1_555
O94 P22 1.538575 1_555
O95 P23 1.566026 1_555
O96 P10 1.523127 1_545
O96 Zn0 2.179290 1_555
O97 P11 1.522716 1_545
O97 Zn1 2.176486 1_555
O98 P6 1.503818 1_555
O98 Zn0 2.093553 1_555
O99 P7 1.502834 1_555
O99 Zn1 2.092212 1_555
O100 P9 1.505642 1_555
O100 Zn0 2.094650 1_555
O101 P8 1.504796 1_555
O101 Zn1 2.093964 1_555
O102 P2 1.549682 1_555
O103 P3 1.521940 1_555
O103 Zn2 2.159344 1_555
O104 P5 1.535821 1_555
O105 P4 1.511863 1_655
O105 Zn2 2.074758 1_555
O106 P0 1.538314 1_555
O107 P1 1.509604 1_545
O107 Zn2 2.082821 1_555
O108 P24 1.543937 1_555
O109 P25 1.542084 1_555
O110 P27 1.545437 1_555
O111 P26 1.539145 1_655
O112 P28 1.545023 1_545
O113 P29 1.539882 1_545
O114 P30 1.542253 1_545
O115 P31 1.544187 1_545
O116 P32 1.541771 1_555
O117 P33 1.543514 1_555
O118 P35 1.542125 1_555
O119 P34 1.543072 1_655
O120 P22 1.547283 1_555
O121 P23 1.551642 1_555
O122 P19 1.561951 1_455
O123 P18 1.538322 1_555
O124 P20 1.544804 1_565
O125 P21 1.556072 1_565
O126 P14 1.547245 1_565
O127 P15 1.547256 1_565
O128 P16 1.549009 1_555
O129 P17 1.549003 1_555
O130 P13 1.547420 1_455
O131 P12 1.547061 1_555
O132 P0 1.563700 1_565
O133 P1 1.546607 1_555
O134 P2 1.549525 1_555
O135 P3 1.559462 1_555
O136 P4 1.578155 1_555
O137 P5 1.559048 1_555
O138 P6 1.563299 1_555
O139 P7 1.562730 1_555
O140 P8 1.590371 1_455
O141 P9 1.588941 1_555
O142 P10 1.561175 1_555
O143 P11 1.561016 1_555
