# generated using pymatgen
data_Na3CaYSi(SO6)2
_symmetry_space_group_name_H-M   'P 1'
_cell_length_a   9.41849949
_cell_length_b   9.44516892
_cell_length_c   23.43748291
_cell_angle_alpha   90.26875541
_cell_angle_beta   90.00000000
_cell_angle_gamma   119.90663973
_symmetry_Int_Tables_number   1
_chemical_formula_structural   Na3CaYSi(SO6)2
_chemical_formula_sum   'Na18 Ca6 Y6 Si6 S12 O72'
_cell_volume   1807.31764301
_cell_formula_units_Z   6
loop_
 _symmetry_equiv_pos_site_id
 _symmetry_equiv_pos_as_xyz
  1  'x, y, z'
loop_
 _atom_site_type_symbol
 _atom_site_label
 _atom_site_symmetry_multiplicity
 _atom_site_fract_x
 _atom_site_fract_y
 _atom_site_fract_z
 _atom_site_occupancy
  Na  Na0  1  0.62798927  0.00228592  0.25549899  1
  Na  Na1  1  0.01139411  0.64881258  0.23467066  1
  Na  Na2  1  0.63741847  0.64881258  0.73467066  1
  Na  Na3  1  0.37429665  0.00228592  0.75549899  1
  Na  Na4  1  0.33197447  0.35976721  0.58654460  1
  Na  Na5  1  0.64917465  0.93903432  0.57625455  1
  Na  Na6  1  0.28986067  0.93903432  0.07625455  1
  Na  Na7  1  0.02779374  0.35976721  0.08654460  1
  Na  Na8  1  0.99700515  0.69071265  0.92805901  1
  Na  Na9  1  0.68199512  0.02515006  0.90083829  1
  Na  Na10  1  0.34315394  0.02515006  0.40083829  1
  Na  Na11  1  0.69370650  0.69071265  0.42805901  1
  Na  Na12  1  0.96034529  0.98113905  0.49615696  1
  Na  Na13  1  0.02079375  0.98113905  0.99615696  1
  Na  Na14  1  0.65436659  0.29273071  0.83014715  1
  Na  Na15  1  0.63836512  0.29273071  0.33014715  1
  Na  Na16  1  0.31905278  0.66957638  0.16349902  1
  Na  Na17  1  0.35052260  0.66957638  0.66349902  1
  Ca  Ca0  1  0.00852486  0.01256036  0.34876379  1
  Ca  Ca1  1  0.00403551  0.01256036  0.84876379  1
  Ca  Ca2  1  0.67890331  0.33620597  0.68264563  1
  Ca  Ca3  1  0.65730366  0.33620597  0.18264563  1
  Ca  Ca4  1  0.33522344  0.67164659  0.01468391  1
  Ca  Ca5  1  0.33642215  0.67164659  0.51468391  1
  Y  Y0  1  0.97848349  0.98381782  0.65050477  1
  Y  Y1  1  0.00533433  0.98381782  0.15050477  1
  Y  Y2  1  0.65948912  0.33777957  0.98457607  1
  Y  Y3  1  0.67829145  0.33777957  0.48457607  1
  Y  Y4  1  0.33637422  0.67388786  0.31837753  1
  Y  Y5  1  0.33751264  0.67388786  0.81837753  1
  Si  Si0  1  0.30786596  0.99504910  0.25353582  1
  Si  Si1  1  0.68718314  0.99504910  0.75353582  1
  Si  Si2  1  0.66243016  0.63584087  0.58444080  1
  Si  Si3  1  0.97341170  0.63584087  0.08444080  1
  Si  Si4  1  0.33502843  0.97591536  0.91853436  1
  Si  Si5  1  0.64088594  0.97591536  0.41853436  1
  S  S0  1  0.70083880  0.70284400  0.25307277  1
  S  S1  1  0.99872875  0.30142811  0.24692822  1
  S  S2  1  0.30269936  0.30142811  0.74692822  1
  S  S3  1  0.00200520  0.70284400  0.75307277  1
  S  S4  1  0.97298384  0.32938396  0.58442917  1
  S  S5  1  0.36575413  0.03931775  0.58389392  1
  S  S6  1  0.67356463  0.03931775  0.08389392  1
  S  S7  1  0.35640112  0.32938396  0.08442917  1
  S  S8  1  0.63602711  0.66485981  0.91539625  1
  S  S9  1  0.02797845  0.36576500  0.91947750  1
  S  S10  1  0.33778555  0.36576500  0.41947750  1
  S  S11  1  0.02883171  0.66485981  0.41539625  1
  O  O0  1  0.22306560  0.00324251  0.31267994  1
  O  O1  1  0.79365340  0.78119273  0.30553864  1
  O  O2  1  0.97980887  0.19731030  0.29591195  1
  O  O3  1  0.21750144  0.19731030  0.79591195  1
  O  O4  1  0.98753933  0.78119273  0.80553864  1
  O  O5  1  0.78017691  0.00324251  0.81267994  1
  O  O6  1  0.78532865  0.97550936  0.69759305  1
  O  O7  1  0.21232004  0.22455525  0.69281202  1
  O  O8  1  0.02964823  0.81221667  0.70306620  1
  O  O9  1  0.78256844  0.81221667  0.20306620  1
  O  O10  1  0.01223520  0.22455525  0.19281202  1
  O  O11  1  0.19018071  0.97550936  0.19759305  1
  O  O12  1  0.89489207  0.34545522  0.63597339  1
  O  O13  1  0.46675737  0.11516003  0.63540622  1
  O  O14  1  0.65043321  0.53517909  0.64218988  1
  O  O15  1  0.88474688  0.53517909  0.14218988  1
  O  O16  1  0.64840367  0.11516003  0.13540622  1
  O  O17  1  0.45056415  0.34545522  0.13597339  1
  O  O18  1  0.43711903  0.30431685  0.03337422  1
  O  O19  1  0.86877141  0.53926309  0.02633300  1
  O  O20  1  0.68809967  0.13992832  0.03258944  1
  O  O21  1  0.45182965  0.13992832  0.53258944  1
  O  O22  1  0.67049268  0.53926309  0.52633300  1
  O  O23  1  0.86719882  0.30431685  0.53337422  1
  O  O24  1  0.54692298  0.67388005  0.96533131  1
  O  O25  1  0.11898185  0.43863844  0.97276646  1
  O  O26  1  0.31795660  0.87078740  0.97599888  1
  O  O27  1  0.55282980  0.87078740  0.47599888  1
  O  O28  1  0.31965559  0.43863844  0.47276646  1
  O  O29  1  0.12695607  0.67388005  0.46533131  1
  O  O30  1  0.10453724  0.64503493  0.36231704  1
  O  O31  1  0.52378689  0.87921419  0.36130403  1
  O  O32  1  0.34665129  0.46706056  0.36972170  1
  O  O33  1  0.12040827  0.46706056  0.86972170  1
  O  O34  1  0.35542630  0.87921419  0.86130403  1
  O  O35  1  0.54049669  0.64503493  0.86231704  1
  O  O36  1  0.01725111  0.81687337  0.41368243  1
  O  O37  1  0.81717998  0.98175393  0.41446581  1
  O  O38  1  0.20171158  0.19516892  0.41474261  1
  O  O39  1  0.99345734  0.19516892  0.91474261  1
  O  O40  1  0.16457395  0.98175393  0.91446581  1
  O  O41  1  0.79962226  0.81687337  0.91368243  1
  O  O42  1  0.99121230  0.17949534  0.58712602  1
  O  O43  1  0.20644245  0.03749767  0.58794054  1
  O  O44  1  0.82285351  0.82555591  0.58297510  1
  O  O45  1  0.00270240  0.82555591  0.08297510  1
  O  O46  1  0.83105522  0.03749767  0.08794054  1
  O  O47  1  0.18828304  0.17949534  0.08712602  1
  O  O48  1  0.65164303  0.14755067  0.74926900  1
  O  O49  1  0.47087021  0.32170187  0.74543043  1
  O  O50  1  0.85083602  0.54374729  0.74613332  1
  O  O51  1  0.69291227  0.54374729  0.24613332  1
  O  O52  1  0.85083266  0.32170187  0.24543043  1
  O  O53  1  0.49590865  0.14755067  0.24926900  1
  O  O54  1  0.66454099  0.52255235  0.91859427  1
  O  O55  1  0.86553478  0.36205414  0.91965910  1
  O  O56  1  0.51141765  0.15224021  0.91906900  1
  O  O57  1  0.64082356  0.15224021  0.41906900  1
  O  O58  1  0.49652036  0.36205414  0.41965910  1
  O  O59  1  0.85801236  0.52255235  0.41859427  1
  O  O60  1  0.33383777  0.47250125  0.07822646  1
  O  O61  1  0.15751923  0.65196944  0.08424162  1
  O  O62  1  0.53172514  0.87196630  0.07848024  1
  O  O63  1  0.34024016  0.87196630  0.57848024  1
  O  O64  1  0.49444921  0.65196944  0.58424162  1
  O  O65  1  0.13866248  0.47250125  0.57822646  1
  O  O66  1  0.31441341  0.81893180  0.25054913  1
  O  O67  1  0.53265873  0.68201748  0.25540453  1
  O  O68  1  0.14694333  0.46766604  0.25217329  1
  O  O69  1  0.32072172  0.46766604  0.75217329  1
  O  O70  1  0.14935775  0.68201748  0.75540453  1
  O  O71  1  0.50451740  0.81893180  0.75054913  1
loop_
_geom_bond_atom_site_label_1
_geom_bond_atom_site_label_2
_geom_bond_distance
_geom_bond_site_symmetry_2
Na0 O53 2.270523 1_555
Na0 O66 2.575478 1_545
Na0 O67 2.692266 1_545
Na0 O52 2.693553 1_555
Na0 O31 2.711697 1_545
Na1 O15 2.444270 1_455
Na1 O66 2.507409 1_555
Na1 O68 2.628744 1_555
Na1 O51 2.662496 1_455
Na1 O52 2.691552 1_455
Na1 O11 2.820653 1_555
Na2 O14 2.444272 1_555
Na2 O71 2.507417 1_555
Na2 O69 2.628752 1_555
Na2 O50 2.662505 1_555
Na2 O49 2.691552 1_555
Na2 O6 2.820653 1_555
Na3 O48 2.270531 1_555
Na3 O71 2.575470 1_545
Na3 O70 2.692268 1_545
Na3 O49 2.693551 1_555
Na3 O34 2.711695 1_545
Na4 O64 2.398253 1_555
Na4 O65 2.534151 1_555
Na4 O43 2.660162 1_555
Na4 O7 2.774704 1_555
Na4 O42 2.784052 1_455
Na4 O28 2.790051 1_555
Na4 O14 2.909752 1_555
Na5 O64 2.361134 1_555
Na5 O44 2.366295 1_555
Na5 O27 2.482484 1_555
Na5 O63 2.651917 1_555
Na5 O42 2.880939 1_565
Na6 O61 2.361133 1_555
Na6 O45 2.366304 1_555
Na6 O26 2.482479 1_554
Na6 O62 2.651899 1_555
Na6 O47 2.880946 1_565
Na7 O61 2.398254 1_555
Na7 O60 2.534133 1_555
Na7 O46 2.660163 1_455
Na7 O10 2.774702 1_555
Na7 O47 2.784044 1_555
Na7 O25 2.790048 1_554
Na7 O15 2.909752 1_455
Na8 O40 2.414740 1_655
Na8 O19 2.668000 1_556
Na8 O41 2.683712 1_555
Na8 O55 2.714700 1_555
Na8 O54 2.722922 1_555
Na8 O26 2.854518 1_655
Na8 O4 3.013834 1_555
Na9 O5 2.313860 1_555
Na9 O56 2.474445 1_555
Na9 O39 2.566717 1_555
Na9 O41 2.714171 1_545
Na9 O55 2.794687 1_555
Na9 O34 2.824773 1_545
Na10 O0 2.313856 1_555
Na10 O57 2.474462 1_555
Na10 O38 2.566709 1_555
Na10 O36 2.714164 1_545
Na10 O58 2.794686 1_555
Na10 O31 2.824773 1_545
Na11 O37 2.414740 1_555
Na11 O22 2.668003 1_555
Na11 O36 2.683721 1_655
Na11 O58 2.714698 1_555
Na11 O59 2.722938 1_555
Na11 O27 2.854518 1_555
Na11 O1 3.013836 1_555
Na12 O37 2.343494 1_555
Na12 O44 2.471287 1_555
Na12 O36 2.689241 1_655
Na12 O42 2.749498 1_565
Na12 O38 2.889494 1_665
Na12 O43 3.007046 1_665
Na13 O40 2.343494 1_555
Na13 O45 2.471287 1_556
Na13 O41 2.689241 1_455
Na13 O47 2.749498 1_566
Na13 O39 2.889494 1_465
Na13 O46 3.007046 1_466
Na14 O48 2.326961 1_555
Na14 O56 2.482221 1_555
Na14 O55 2.733908 1_555
Na14 O49 2.735112 1_555
Na14 O50 2.931128 1_555
Na14 O54 2.961205 1_555
Na15 O53 2.326961 1_555
Na15 O57 2.482221 1_555
Na15 O58 2.733908 1_555
Na15 O52 2.735112 1_555
Na15 O51 2.931128 1_555
Na15 O59 2.961205 1_555
Na16 O61 2.353250 1_555
Na16 O66 2.487765 1_555
Na16 O68 2.745629 1_555
Na16 O60 2.775266 1_555
Na16 O62 2.802592 1_555
Na16 O67 2.909138 1_555
Na17 O64 2.353250 1_555
Na17 O71 2.487765 1_555
Na17 O69 2.745629 1_555
Na17 O65 2.775266 1_555
Na17 O63 2.802592 1_555
Na17 O70 2.909138 1_555
Ca0 O0 2.232184 1_555
Ca0 O2 2.267921 1_455
Ca0 O37 2.277078 1_445
Ca0 O1 2.338100 1_445
Ca0 O38 2.349972 1_555
Ca0 O36 2.432256 1_545
Ca1 O5 2.232184 1_455
Ca1 O3 2.267921 1_555
Ca1 O40 2.277078 1_545
Ca1 O4 2.338100 1_445
Ca1 O39 2.349972 1_455
Ca1 O41 2.432256 1_445
Ca2 O14 2.240999 1_555
Ca2 O12 2.272932 1_555
Ca2 O48 2.291102 1_555
Ca2 O13 2.322850 1_555
Ca2 O50 2.342283 1_555
Ca2 O49 2.399469 1_555
Ca3 O15 2.240999 1_555
Ca3 O17 2.272932 1_555
Ca3 O53 2.291102 1_555
Ca3 O16 2.322850 1_555
Ca3 O51 2.342283 1_555
Ca3 O52 2.399469 1_555
Ca4 O26 2.169653 1_554
Ca4 O61 2.277330 1_555
Ca4 O24 2.296147 1_554
Ca4 O25 2.338120 1_554
Ca4 O62 2.392169 1_555
Ca4 O60 2.399570 1_555
Ca5 O27 2.169653 1_555
Ca5 O64 2.277330 1_555
Ca5 O29 2.296147 1_555
Ca5 O28 2.338120 1_555
Ca5 O63 2.392169 1_555
Ca5 O65 2.399570 1_555
O0 Si0 1.620508 1_545
O1 S0 1.473185 1_555
O2 S1 1.467217 1_555
O3 S2 1.467217 1_555
O4 S3 1.473185 1_655
O5 Si1 1.620508 1_545
O6 Si1 1.665992 1_555
O6 Y0 2.095759 1_555
O7 S2 1.495172 1_555
O7 Y0 2.447267 1_445
O8 S3 1.500591 1_555
O8 Y0 2.274731 1_455
O9 S0 1.500591 1_555
O9 Y1 2.274731 1_655
O10 S1 1.495172 1_455
O10 Y1 2.447267 1_545
O11 Si0 1.665992 1_555
O11 Y1 2.095759 1_555
O12 S4 1.460496 1_555
O13 S5 1.479219 1_555
O14 Si2 1.628992 1_555
O15 Si3 1.628992 1_555
O16 S6 1.479219 1_555
O17 S7 1.460496 1_555
O18 S7 1.497567 1_555
O18 Y2 2.266659 1_554
O19 Si3 1.658329 1_555
O19 Y2 2.169494 1_554
O20 S6 1.499552 1_555
O20 Y2 2.313655 1_554
O21 S5 1.499552 1_555
O21 Y3 2.313655 1_555
O22 Si2 1.658329 1_555
O22 Y3 2.169494 1_555
O23 S4 1.497567 1_555
O23 Y3 2.266659 1_555
O24 S8 1.466850 1_555
O25 S9 1.473754 1_555
O26 Si4 1.636789 1_555
O27 Si5 1.636789 1_555
O28 S10 1.473754 1_555
O29 S11 1.466850 1_555
O30 S11 1.490662 1_555
O30 Y4 2.304775 1_555
O31 Si5 1.683388 1_555
O31 Y4 2.111195 1_555
O32 S10 1.487635 1_555
O32 Y4 2.341865 1_555
O33 S9 1.487635 1_555
O33 Y5 2.341865 1_555
O34 Si4 1.683388 1_555
O34 Y5 2.111195 1_555
O35 S8 1.490662 1_555
O35 Y5 2.304775 1_555
O36 S11 1.493893 1_555
O37 Si5 1.636425 1_555
O38 S10 1.479947 1_555
O39 S9 1.479950 1_655
O40 Si4 1.636416 1_555
O41 S8 1.493899 1_555
O42 S4 1.510283 1_555
O42 Y0 2.332719 1_545
O43 S5 1.494997 1_555
O43 Y0 2.436895 1_445
O44 Si2 1.672060 1_555
O44 Y0 2.163550 1_555
O45 Si3 1.672063 1_455
O45 Y1 2.163550 1_555
O46 S6 1.494987 1_555
O46 Y1 2.436895 1_645
O47 S7 1.510288 1_555
O47 Y1 2.332719 1_545
O48 Si1 1.636750 1_545
O49 S2 1.498102 1_555
O50 S3 1.475109 1_655
O51 S0 1.475113 1_555
O52 S1 1.498093 1_555
O53 Si0 1.636756 1_545
O54 S8 1.498431 1_555
O54 Y2 2.319922 1_555
O55 S9 1.512812 1_655
O55 Y2 2.386037 1_555
O56 Si4 1.665709 1_545
O56 Y2 2.216056 1_555
O57 Si5 1.665699 1_545
O57 Y3 2.216056 1_555
O58 S10 1.512831 1_555
O58 Y3 2.386037 1_555
O59 S11 1.498419 1_655
O59 Y3 2.319922 1_555
O60 S7 1.477116 1_555
O61 Si3 1.663322 1_455
O62 S6 1.480443 1_565
O63 S5 1.480436 1_565
O64 Si2 1.663341 1_555
O65 S4 1.477104 1_455
O66 Si0 1.696170 1_555
O66 Y4 2.179405 1_555
O67 S0 1.496710 1_555
O67 Y4 2.336982 1_555
O68 S1 1.497227 1_455
O68 Y4 2.427152 1_555
O69 S2 1.497231 1_555
O69 Y5 2.427152 1_555
O70 S3 1.496701 1_555
O70 Y5 2.336982 1_555
O71 Si1 1.696175 1_555
O71 Y5 2.179406 1_555
