# generated using pymatgen
data_Zn(InTe2)2
_symmetry_space_group_name_H-M   'P 1'
_cell_length_a   6.20930516
_cell_length_b   6.20930563
_cell_length_c   7.63616275
_cell_angle_alpha   113.98969705
_cell_angle_beta   113.98969226
_cell_angle_gamma   89.99999810
_symmetry_Int_Tables_number   1
_chemical_formula_structural   Zn(InTe2)2
_chemical_formula_sum   'Zn1 In2 Te4'
_cell_volume   240.88146830
_cell_formula_units_Z   1
loop_
 _symmetry_equiv_pos_site_id
 _symmetry_equiv_pos_as_xyz
  1  'x, y, z'
loop_
 _atom_site_type_symbol
 _atom_site_label
 _atom_site_symmetry_multiplicity
 _atom_site_fract_x
 _atom_site_fract_y
 _atom_site_fract_z
 _atom_site_occupancy
  Zn  Zn0  1  0.00000000  0.00000000  0.00000000  1
  In  In0  1  0.50000000  0.50000000  0.00000000  1
  In  In1  1  0.25000000  0.75000000  0.50000000  1
  Te  Te0  1  0.39257577  0.34779789  0.26182249  1
  Te  Te1  1  0.08597541  0.60742423  0.73817751  1
  Te  Te2  1  0.65220211  0.13075428  0.73817751  1
  Te  Te3  1  0.86924572  0.91402459  0.26182249  1
loop_
_geom_bond_atom_site_label_1
_geom_bond_atom_site_label_2
_geom_bond_distance
_geom_bond_site_symmetry_2
In0 Te2 2.820672 1_554
In0 Te3 2.820672 1_555
In0 Te0 2.820675 1_555
In0 Te1 2.820675 1_554
In1 Te1 2.818594 1_555
In1 Te0 2.818594 1_555
In1 Te3 2.818597 1_455
In1 Te2 2.818597 1_565
Te0 Zn0 2.670064 1_555
Te1 Zn0 2.670064 1_566
Te2 Zn0 2.670067 1_656
Te3 Zn0 2.670067 1_665
