# generated using pymatgen
data_MgFe6(O5F)2
_symmetry_space_group_name_H-M   'P 1'
_cell_length_a   5.10203865
_cell_length_b   7.54617147
_cell_length_c   5.68681135
_cell_angle_alpha   97.24221303
_cell_angle_beta   97.51312271
_cell_angle_gamma   84.72407733
_symmetry_Int_Tables_number   1
_chemical_formula_structural   MgFe6(O5F)2
_chemical_formula_sum   'Mg1 Fe6 O10 F2'
_cell_volume   214.70079632
_cell_formula_units_Z   1
loop_
 _symmetry_equiv_pos_site_id
 _symmetry_equiv_pos_as_xyz
  1  'x, y, z'
loop_
 _atom_site_type_symbol
 _atom_site_label
 _atom_site_symmetry_multiplicity
 _atom_site_fract_x
 _atom_site_fract_y
 _atom_site_fract_z
 _atom_site_occupancy
  Mg  Mg0  1  0.50092514  0.17131750  0.17288593  1
  Fe  Fe0  1  0.54756014  0.68671561  0.14455682  1
  Fe  Fe1  1  0.42658660  0.97405157  0.56882779  1
  Fe  Fe2  1  0.55965821  0.36324543  0.77592128  1
  Fe  Fe3  1  0.98798912  0.67171867  0.68492411  1
  Fe  Fe4  1  0.99482491  0.34043587  0.34574199  1
  Fe  Fe5  1  0.98672043  0.98759349  0.01488320  1
  O  O0  1  0.84799827  0.43579402  0.63634725  1
  O  O1  1  0.82439061  0.76274721  0.97973058  1
  O  O2  1  0.86889395  0.10507531  0.30111820  1
  O  O3  1  0.64225009  0.10484939  0.84278344  1
  O  O4  1  0.66683938  0.76417592  0.48236131  1
  O  O5  1  0.66467158  0.42260489  0.13307550  1
  O  O6  1  0.33065211  0.57890754  0.85479296  1
  O  O7  1  0.35350551  0.23837832  0.49581274  1
  O  O8  1  0.33851558  0.92360320  0.20326667  1
  O  O9  1  0.14333187  0.90549586  0.72142712  1
  F  F0  1  0.15114051  0.24647131  0.02255205  1
  F  F1  1  0.14965800  0.57515090  0.36899106  1
loop_
_geom_bond_atom_site_label_1
_geom_bond_atom_site_label_2
_geom_bond_distance
_geom_bond_site_symmetry_2
Mg0 O2 1.966610 1_555
Mg0 O7 2.061833 1_555
Mg0 O3 2.084596 1_554
Mg0 O8 2.148125 1_545
Mg0 O5 2.189532 1_555
Fe0 O1 1.957929 1_554
Fe0 O4 1.969510 1_555
Fe0 O6 1.988117 1_554
Fe0 O8 2.009109 1_555
Fe0 O5 2.022824 1_555
Fe1 O9 1.920391 1_555
Fe1 O4 1.963889 1_555
Fe1 O3 1.993948 1_565
Fe1 O8 2.063057 1_555
Fe1 O7 2.078856 1_565
Fe2 O0 1.912317 1_555
Fe2 O6 1.954009 1_555
Fe2 O7 1.974145 1_555
Fe2 O3 2.029330 1_555
Fe2 O5 2.035468 1_556
Fe3 O0 1.953015 1_555
Fe3 O9 1.976147 1_655
Fe3 O1 1.987304 1_555
Fe3 O6 1.995979 1_655
Fe3 O4 1.999324 1_555
Fe4 O2 1.919694 1_555
Fe4 O0 1.932590 1_555
Fe4 O5 2.036849 1_555
Fe4 O7 2.041684 1_655
Fe5 O2 1.894993 1_565
Fe5 O1 1.932461 1_554
Fe5 O9 1.950452 1_654
Fe5 O8 2.017580 1_655
Fe5 O3 2.076568 1_564
F0 Mg0 1.942807 1_555
F0 Fe4 2.113652 1_455
F0 Fe5 2.189121 1_445
F1 Fe4 1.987369 1_455
F1 Fe3 2.094337 1_455
