# generated using pymatgen
data_Na3SiSe4
_symmetry_space_group_name_H-M   'P 1'
_cell_length_a   16.98413645
_cell_length_b   7.29579518
_cell_length_c   13.73423539
_cell_angle_alpha   80.99156096
_cell_angle_beta   90.00000000
_cell_angle_gamma   90.00000000
_symmetry_Int_Tables_number   1
_chemical_formula_structural   Na3SiSe4
_chemical_formula_sum   'Na24 Si8 Se32'
_cell_volume   1680.85550528
_cell_formula_units_Z   8
loop_
 _symmetry_equiv_pos_site_id
 _symmetry_equiv_pos_as_xyz
  1  'x, y, z'
loop_
 _atom_site_type_symbol
 _atom_site_label
 _atom_site_symmetry_multiplicity
 _atom_site_fract_x
 _atom_site_fract_y
 _atom_site_fract_z
 _atom_site_occupancy
  Na  Na0  1  0.94855867  0.04973695  0.28175000  1
  Na  Na1  1  0.44855867  0.95026305  0.21825000  1
  Na  Na2  1  0.05144133  0.95026305  0.71825000  1
  Na  Na3  1  0.55144133  0.04973695  0.78175000  1
  Na  Na4  1  0.67331558  0.57486776  0.76607623  1
  Na  Na5  1  0.17331558  0.42513224  0.73392377  1
  Na  Na6  1  0.32668442  0.42513224  0.23392377  1
  Na  Na7  1  0.82668442  0.57486776  0.26607623  1
  Na  Na8  1  0.70039223  0.98073515  0.28544760  1
  Na  Na9  1  0.20039223  0.01926485  0.21455240  1
  Na  Na10  1  0.29960777  0.01926485  0.71455240  1
  Na  Na11  1  0.79960777  0.98073515  0.78544760  1
  Na  Na12  1  0.61086162  0.42435931  0.02073258  1
  Na  Na13  1  0.11086162  0.57564069  0.47926742  1
  Na  Na14  1  0.38913838  0.57564069  0.97926742  1
  Na  Na15  1  0.88913838  0.42435931  0.52073258  1
  Na  Na16  1  0.67047602  0.29621119  0.50803830  1
  Na  Na17  1  0.93355946  0.75395614  0.00206016  1
  Na  Na18  1  0.56644054  0.75395614  0.50206016  1
  Na  Na19  1  0.06644054  0.24604386  0.99793984  1
  Na  Na20  1  0.82952398  0.29621119  0.00803830  1
  Na  Na21  1  0.32952398  0.70378881  0.49196170  1
  Na  Na22  1  0.17047602  0.70378881  0.99196170  1
  Na  Na23  1  0.43355946  0.24604386  0.49793984  1
  Si  Si0  1  0.02625785  0.60394304  0.23132125  1
  Si  Si1  1  0.52625785  0.39605696  0.26867875  1
  Si  Si2  1  0.97374215  0.39605696  0.76867875  1
  Si  Si3  1  0.47374215  0.60394304  0.73132125  1
  Si  Si4  1  0.77600377  0.88613502  0.52743093  1
  Si  Si5  1  0.27600377  0.11386498  0.97256907  1
  Si  Si6  1  0.22399623  0.11386498  0.47256907  1
  Si  Si7  1  0.72399623  0.88613502  0.02743093  1
  Se  Se0  1  0.96706885  0.67236363  0.36622332  1
  Se  Se1  1  0.10767592  0.19849171  0.38460092  1
  Se  Se2  1  0.39232408  0.19849171  0.88460092  1
  Se  Se3  1  0.89232408  0.80150829  0.61539908  1
  Se  Se4  1  0.06612742  0.85657135  0.12795408  1
  Se  Se5  1  0.56612742  0.14342865  0.37204592  1
  Se  Se6  1  0.93387258  0.14342865  0.87204592  1
  Se  Se7  1  0.43387258  0.85657135  0.62795408  1
  Se  Se8  1  0.73381512  0.66369257  0.44395064  1
  Se  Se9  1  0.23381512  0.33630743  0.05604936  1
  Se  Se10  1  0.26618488  0.33630743  0.55604936  1
  Se  Se11  1  0.76618488  0.66369257  0.94395064  1
  Se  Se12  1  0.15008154  0.47767600  0.28119038  1
  Se  Se13  1  0.65008154  0.52232400  0.21880962  1
  Se  Se14  1  0.84991846  0.52232400  0.71880962  1
  Se  Se15  1  0.34991846  0.47767600  0.78119038  1
  Se  Se16  1  0.60767592  0.80150829  0.11539908  1
  Se  Se17  1  0.46706885  0.32763637  0.13377668  1
  Se  Se18  1  0.03293115  0.32763637  0.63377668  1
  Se  Se19  1  0.53293115  0.67236363  0.86622332  1
  Se  Se20  1  0.81681978  0.94271145  0.13636170  1
  Se  Se21  1  0.31681978  0.05728855  0.36363830  1
  Se  Se22  1  0.18318022  0.05728855  0.86363830  1
  Se  Se23  1  0.68318022  0.94271145  0.63636170  1
  Se  Se24  1  0.81857909  0.13786442  0.42472778  1
  Se  Se25  1  0.31857909  0.86213558  0.07527222  1
  Se  Se26  1  0.18142091  0.86213558  0.57527222  1
  Se  Se27  1  0.68142091  0.13786442  0.92472778  1
  Se  Se28  1  0.45697031  0.59487195  0.34605959  1
  Se  Se29  1  0.95697031  0.40512805  0.15394041  1
  Se  Se30  1  0.54302969  0.40512805  0.65394041  1
  Se  Se31  1  0.04302969  0.59487195  0.84605959  1
loop_
_geom_bond_atom_site_label_1
_geom_bond_atom_site_label_2
_geom_bond_distance
_geom_bond_site_symmetry_2
Na0 Se0 2.832818 1_545
Na0 Se29 2.898159 1_555
Na0 Se24 3.088418 1_555
Na0 Se20 3.176705 1_545
Na0 Se1 3.310083 1_655
Na0 Se4 3.371534 1_645
Na1 Se17 2.832818 1_565
Na1 Se28 2.898159 1_555
Na1 Se25 3.088418 1_555
Na1 Se21 3.176705 1_565
Na1 Se16 3.310083 1_555
Na1 Se5 3.371534 1_565
Na2 Se18 2.832818 1_565
Na2 Se31 2.898159 1_555
Na2 Se26 3.088418 1_555
Na2 Se22 3.176705 1_565
Na2 Se3 3.310083 1_455
Na2 Se6 3.371534 1_465
Na3 Se19 2.832818 1_545
Na3 Se30 2.898159 1_555
Na3 Se27 3.088418 1_555
Na3 Se23 3.176705 1_545
Na3 Se2 3.310083 1_555
Na3 Se7 3.371534 1_545
Na4 Se19 2.896398 1_555
Na4 Se23 2.984456 1_555
Na4 Se11 3.061329 1_555
Na4 Se30 3.065817 1_555
Na4 Se14 3.105317 1_555
Na5 Se18 2.896398 1_555
Na5 Se22 2.984456 1_555
Na5 Se10 3.061329 1_555
Na5 Se31 3.065817 1_555
Na5 Se15 3.105317 1_555
Na6 Se17 2.896398 1_555
Na6 Se21 2.984456 1_555
Na6 Se9 3.061329 1_555
Na6 Se28 3.065817 1_555
Na6 Se12 3.105317 1_555
Na7 Se0 2.896398 1_555
Na7 Se20 2.984456 1_555
Na7 Se8 3.061329 1_555
Na7 Se29 3.065817 1_555
Na7 Se13 3.105317 1_555
Na8 Se20 2.890955 1_555
Na8 Se5 2.909587 1_565
Na8 Se8 2.972315 1_555
Na8 Se24 3.112780 1_565
Na8 Se16 3.255822 1_555
Na9 Se21 2.890955 1_555
Na9 Se4 2.909587 1_545
Na9 Se9 2.972315 1_555
Na9 Se25 3.112780 1_545
Na9 Se1 3.255822 1_555
Na10 Se22 2.890955 1_555
Na10 Se7 2.909587 1_545
Na10 Se10 2.972315 1_555
Na10 Se26 3.112780 1_545
Na10 Se2 3.255822 1_555
Na11 Se23 2.890955 1_555
Na11 Se6 2.909587 1_565
Na11 Se11 2.972315 1_555
Na11 Se27 3.112780 1_565
Na11 Se3 3.255822 1_555
Na12 Se19 2.885568 1_554
Na12 Se27 2.899443 1_554
Na12 Se17 2.920562 1_555
Na12 Se13 2.994032 1_555
Na12 Se16 3.222582 1_555
Na12 Se11 3.247089 1_554
Na13 Se18 2.885568 1_555
Na13 Se26 2.899443 1_555
Na13 Se0 2.920562 1_455
Na13 Se12 2.994032 1_555
Na13 Se1 3.222582 1_555
Na13 Se10 3.247089 1_555
Na14 Se17 2.885568 1_556
Na14 Se25 2.899443 1_556
Na14 Se19 2.920562 1_555
Na14 Se15 2.994032 1_555
Na14 Se2 3.222582 1_555
Na14 Se9 3.247089 1_556
Na15 Se0 2.885568 1_555
Na15 Se24 2.899443 1_555
Na15 Se18 2.920562 1_655
Na15 Se14 2.994032 1_555
Na15 Se3 3.222582 1_555
Na15 Se8 3.247089 1_555
Na16 Se23 2.894964 1_545
Na16 Se8 2.895016 1_555
Na16 Se5 2.919573 1_555
Na16 Se24 3.063503 1_555
Na16 Se30 3.135423 1_555
Na17 Se4 3.004163 1_655
Na17 Se11 3.052251 1_554
Na17 Se29 3.053483 1_555
Na17 Se6 3.110273 1_564
Na17 Se20 3.166292 1_555
Na17 Se31 3.189545 1_654
Na18 Se7 3.004163 1_555
Na18 Se8 3.052251 1_555
Na18 Se30 3.053483 1_555
Na18 Se5 3.110273 1_565
Na18 Se23 3.166292 1_555
Na18 Se28 3.189545 1_555
Na19 Se6 3.004163 1_455
Na19 Se9 3.052251 1_556
Na19 Se31 3.053483 1_555
Na19 Se4 3.110273 1_546
Na19 Se22 3.166292 1_555
Na19 Se29 3.189545 1_456
Na20 Se20 2.894964 1_545
Na20 Se11 2.895016 1_554
Na20 Se6 2.919573 1_554
Na20 Se27 3.063503 1_554
Na20 Se29 3.135423 1_555
Na21 Se21 2.894964 1_565
Na21 Se10 2.895016 1_555
Na21 Se7 2.919573 1_555
Na21 Se26 3.063503 1_555
Na21 Se28 3.135423 1_555
Na22 Se22 2.894964 1_565
Na22 Se9 2.895016 1_556
Na22 Se4 2.919573 1_556
Na22 Se25 3.063503 1_556
Na22 Se31 3.135423 1_555
Na23 Se5 3.004163 1_555
Na23 Se10 3.052251 1_555
Na23 Se28 3.053483 1_555
Na23 Se7 3.110273 1_545
Na23 Se21 3.166292 1_555
Na23 Se30 3.189545 1_555
Se0 Si0 2.232078 1_655
Se1 Si6 2.347400 1_555
Se1 Se12 2.403909 1_555
Se2 Si5 2.347400 1_555
Se3 Si4 2.347400 1_555
Se4 Si0 2.247594 1_555
Se5 Si1 2.247594 1_555
Se6 Si2 2.247594 1_555
Se7 Si3 2.247594 1_555
Se8 Si4 2.245988 1_555
Se9 Si5 2.245988 1_554
Se10 Si6 2.245988 1_555
Se11 Si7 2.245988 1_556
Se12 Si0 2.354343 1_555
Se13 Si1 2.354343 1_555
Se13 Se16 2.403909 1_555
Se14 Si2 2.354343 1_555
Se14 Se3 2.403909 1_555
Se15 Si3 2.354343 1_555
Se15 Se2 2.403909 1_555
Se16 Si7 2.347400 1_555
Se17 Si1 2.232078 1_555
Se18 Si2 2.232078 1_455
Se19 Si3 2.232078 1_555
Se20 Si7 2.255541 1_555
Se21 Si6 2.255541 1_555
Se22 Si5 2.255541 1_555
Se23 Si4 2.255541 1_555
Se24 Si4 2.252608 1_545
Se25 Si5 2.252608 1_564
Se26 Si6 2.252608 1_565
Se27 Si7 2.252608 1_546
Se28 Si1 2.258550 1_555
Se29 Si0 2.258550 1_655
Se30 Si3 2.258550 1_555
Se31 Si2 2.258550 1_455
