# generated using pymatgen
data_Dy(CuSi)2
_symmetry_space_group_name_H-M   'P 1'
_cell_length_a   3.94749568
_cell_length_b   3.94749534
_cell_length_c   5.69535354
_cell_angle_alpha   110.27669016
_cell_angle_beta   110.27670270
_cell_angle_gamma   89.99998632
_symmetry_Int_Tables_number   1
_chemical_formula_structural   Dy(CuSi)2
_chemical_formula_sum   'Dy1 Cu2 Si2'
_cell_volume   77.35951903
_cell_formula_units_Z   1
loop_
 _symmetry_equiv_pos_site_id
 _symmetry_equiv_pos_as_xyz
  1  'x, y, z'
loop_
 _atom_site_type_symbol
 _atom_site_label
 _atom_site_symmetry_multiplicity
 _atom_site_fract_x
 _atom_site_fract_y
 _atom_site_fract_z
 _atom_site_occupancy
  Dy  Dy0  1  0.00000000  0.00000000  0.00000000  1
  Cu  Cu0  1  0.25000000  0.75000000  0.50000000  1
  Cu  Cu1  1  0.75000000  0.25000000  0.50000000  1
  Si  Si0  1  0.61791255  0.61791255  0.23582411  1
  Si  Si1  1  0.38208745  0.38208745  0.76417589  1
loop_
_geom_bond_atom_site_label_1
_geom_bond_atom_site_label_2
_geom_bond_distance
_geom_bond_site_symmetry_2
Dy0 Si1 3.026874 1_554
Dy0 Si0 3.026874 1_445
Dy0 Si1 3.026876 1_454
Dy0 Si0 3.026876 1_545
Dy0 Si0 3.026876 1_455
Dy0 Si1 3.026876 1_544
Dy0 Si0 3.026879 1_555
Dy0 Si1 3.026879 1_444
Cu0 Si0 2.369740 1_455
Cu0 Si1 2.369740 1_565
Cu0 Si1 2.369743 1_555
Cu0 Si0 2.369744 1_555
Cu0 Cu1 2.791301 1_555
Cu0 Cu1 2.791301 1_465
Cu0 Cu1 2.791301 1_565
Cu0 Cu1 2.791301 1_455
Cu0 Dy0 3.171293 1_666
Cu0 Dy0 3.171293 1_565
Cu0 Dy0 3.171293 1_555
Cu0 Dy0 3.171294 1_566
Cu1 Si1 2.369740 1_655
Cu1 Si0 2.369740 1_545
Cu1 Si0 2.369743 1_555
Cu1 Si1 2.369744 1_555
Cu1 Dy0 3.171293 1_555
Cu1 Dy0 3.171293 1_656
Cu1 Dy0 3.171293 1_666
Cu1 Dy0 3.171294 1_655
Si0 Si1 2.341470 1_554
