# generated using pymatgen
data_MgZr4(CuS4)2
_symmetry_space_group_name_H-M   'P 1'
_cell_length_a   7.67911554
_cell_length_b   7.67911608
_cell_length_c   7.67911700
_cell_angle_alpha   60.00000034
_cell_angle_beta   59.99999801
_cell_angle_gamma   59.99999852
_symmetry_Int_Tables_number   1
_chemical_formula_structural   MgZr4(CuS4)2
_chemical_formula_sum   'Mg1 Zr4 Cu2 S8'
_cell_volume   320.19807071
_cell_formula_units_Z   1
loop_
 _symmetry_equiv_pos_site_id
 _symmetry_equiv_pos_as_xyz
  1  'x, y, z'
loop_
 _atom_site_type_symbol
 _atom_site_label
 _atom_site_symmetry_multiplicity
 _atom_site_fract_x
 _atom_site_fract_y
 _atom_site_fract_z
 _atom_site_occupancy
  Mg  Mg0  1  0.62500000  0.62500000  0.62500000  1
  Zr  Zr0  1  0.47960800  0.47960800  0.06117600  1
  Zr  Zr1  1  0.47960800  0.47960800  0.47960800  1
  Zr  Zr2  1  0.06117600  0.47960800  0.47960800  1
  Zr  Zr3  1  0.47960800  0.06117600  0.47960800  1
  Cu  Cu0  1  0.87500000  0.87500000  0.87500000  1
  Cu  Cu1  1  0.12500000  0.12500000  0.12500000  1
  S  S0  1  0.74727800  0.74727800  0.74727800  1
  S  S1  1  0.24785800  0.24785800  0.75642600  1
  S  S2  1  0.24785800  0.75642600  0.24785800  1
  S  S3  1  0.75642600  0.24785800  0.24785800  1
  S  S4  1  0.74727800  0.25816500  0.74727800  1
  S  S5  1  0.25816500  0.74727800  0.74727800  1
  S  S6  1  0.24785800  0.24785800  0.24785800  1
  S  S7  1  0.74727800  0.74727800  0.25816500  1
loop_
_geom_bond_atom_site_label_1
_geom_bond_atom_site_label_2
_geom_bond_distance
_geom_bond_site_symmetry_2
Mg0 S0 2.300039 1_555
Mg0 S5 2.300045 1_555
Mg0 S4 2.300045 1_555
Mg0 S7 2.300045 1_555
Cu0 S5 2.402434 1_655
Cu0 S4 2.402434 1_565
Cu0 S7 2.402434 1_556
Cu0 S0 2.402440 1_555
Cu1 S3 2.310948 1_455
Cu1 S2 2.310949 1_545
Cu1 S6 2.310949 1_555
Cu1 S1 2.310949 1_554
S0 Zr0 2.928468 1_556
S0 Zr2 2.928468 1_655
S0 Zr3 2.928468 1_565
S1 Zr1 2.540468 1_555
S1 Zr3 2.540468 1_555
S1 Zr2 2.540468 1_555
S2 Zr2 2.540468 1_555
S2 Zr0 2.540468 1_555
S2 Zr1 2.540468 1_555
S3 Zr3 2.540467 1_555
S3 Zr0 2.540468 1_555
S3 Zr1 2.540468 1_555
S4 Zr1 2.928467 1_555
S4 Zr2 2.928473 1_655
S4 Zr0 2.928473 1_556
S5 Zr1 2.928467 1_555
S5 Zr3 2.928473 1_565
S5 Zr0 2.928473 1_556
S6 Zr0 2.540467 1_555
S6 Zr3 2.540468 1_555
S6 Zr2 2.540468 1_555
S7 Zr1 2.928467 1_555
S7 Zr2 2.928473 1_655
S7 Zr3 2.928473 1_565
