# generated using pymatgen
data_Ce5Ge2Ru
_symmetry_space_group_name_H-M   'P 1'
_cell_length_a   7.82736300
_cell_length_b   8.79183300
_cell_length_c   11.75955600
_cell_angle_alpha   90.00000000
_cell_angle_beta   90.00000000
_cell_angle_gamma   90.00000000
_symmetry_Int_Tables_number   1
_chemical_formula_structural   Ce5Ge2Ru
_chemical_formula_sum   'Ce20 Ge8 Ru4'
_cell_volume   809.25581683
_cell_formula_units_Z   4
loop_
 _symmetry_equiv_pos_site_id
 _symmetry_equiv_pos_as_xyz
  1  'x, y, z'
loop_
 _atom_site_type_symbol
 _atom_site_label
 _atom_site_symmetry_multiplicity
 _atom_site_fract_x
 _atom_site_fract_y
 _atom_site_fract_z
 _atom_site_occupancy
  Ce  Ce0  1  0.70041900  0.46444000  0.93252100  1
  Ce  Ce1  1  0.20041900  0.96444100  0.56747900  1
  Ce  Ce2  1  0.70041900  0.03556000  0.93252100  1
  Ce  Ce3  1  0.79958100  0.46444000  0.43252100  1
  Ce  Ce4  1  0.97458100  0.75000000  0.99764400  1
  Ce  Ce5  1  0.47458100  0.25000000  0.50235600  1
  Ce  Ce6  1  0.02541900  0.25000000  0.00235600  1
  Ce  Ce7  1  0.52541900  0.75000000  0.49764400  1
  Ce  Ce8  1  0.29958100  0.53555900  0.06747900  1
  Ce  Ce9  1  0.79958100  0.03556000  0.43252100  1
  Ce  Ce10  1  0.29958100  0.96444100  0.06747900  1
  Ce  Ce11  1  0.20041900  0.53555900  0.56747900  1
  Ce  Ce12  1  0.36937500  0.75000000  0.79486600  1
  Ce  Ce13  1  0.86937500  0.25000000  0.70513400  1
  Ce  Ce14  1  0.63062500  0.25000000  0.20513400  1
  Ce  Ce15  1  0.13062500  0.75000000  0.29486600  1
  Ce  Ce16  1  0.84664200  0.75000000  0.71134300  1
  Ce  Ce17  1  0.34664200  0.25000000  0.78865700  1
  Ce  Ce18  1  0.15335800  0.25000000  0.28865700  1
  Ce  Ce19  1  0.65335800  0.75000000  0.21134300  1
  Ge  Ge0  1  0.57812800  0.49521500  0.67299300  1
  Ge  Ge1  1  0.92187200  0.00478500  0.17299300  1
  Ge  Ge2  1  0.42187200  0.99521500  0.32700700  1
  Ge  Ge3  1  0.07812800  0.50478500  0.82700700  1
  Ge  Ge4  1  0.42187200  0.50478500  0.32700700  1
  Ge  Ge5  1  0.07812800  0.99521500  0.82700700  1
  Ge  Ge6  1  0.57812800  0.00478500  0.67299300  1
  Ge  Ge7  1  0.92187200  0.49521500  0.17299300  1
  Ru  Ru0  1  0.57860400  0.75000000  0.97712600  1
  Ru  Ru1  1  0.07860400  0.25000000  0.52287400  1
  Ru  Ru2  1  0.42139600  0.25000000  0.02287400  1
  Ru  Ru3  1  0.92139600  0.75000000  0.47712600  1
loop_
_geom_bond_atom_site_label_1
_geom_bond_atom_site_label_2
_geom_bond_distance
_geom_bond_site_symmetry_2
Ce0 Ru0 2.736306 1_555
Ce0 Ru2 3.074619 1_556
Ce0 Ge0 3.209949 1_555
Ce0 Ge3 3.225846 1_655
Ce0 Ge7 3.327846 1_556
Ce1 Ru1 2.736298 1_565
Ce1 Ru3 3.074624 1_455
Ce1 Ge5 3.209948 1_555
Ce1 Ge6 3.225845 1_565
Ce1 Ge2 3.327845 1_555
Ce2 Ru0 2.736306 1_545
Ce2 Ru2 3.074619 1_556
Ce2 Ge6 3.209949 1_555
Ce2 Ge5 3.225846 1_645
Ce2 Ge1 3.327846 1_556
Ce3 Ru3 2.736306 1_555
Ce3 Ru1 3.074619 1_655
Ce3 Ge7 3.209949 1_555
Ce3 Ge4 3.225846 1_555
Ce3 Ge0 3.327846 1_555
Ce4 Ge5 3.054713 1_655
Ce4 Ge3 3.054713 1_655
Ce4 Ge1 3.072440 1_566
Ce4 Ge7 3.072440 1_556
Ce4 Ru0 3.108833 1_555
Ce5 Ge6 3.054713 1_555
Ce5 Ge0 3.054713 1_555
Ce5 Ge4 3.072440 1_555
Ce5 Ge2 3.072440 1_545
Ce5 Ru1 3.108833 1_555
Ce6 Ge1 3.054713 1_455
Ce6 Ge7 3.054713 1_455
Ce6 Ge3 3.072440 1_554
Ce6 Ge5 3.072440 1_544
Ce6 Ru2 3.108833 1_555
Ce7 Ge4 3.054713 1_555
Ce7 Ge2 3.054713 1_555
Ce7 Ge0 3.072440 1_555
Ce7 Ge6 3.072440 1_565
Ce7 Ru3 3.108833 1_555
Ce8 Ru2 2.736298 1_555
Ce8 Ru0 3.074624 1_554
Ce8 Ge4 3.209948 1_555
Ce8 Ge7 3.225845 1_455
Ce8 Ge3 3.327845 1_554
Ce9 Ru3 2.736306 1_545
Ce9 Ru1 3.074619 1_655
Ce9 Ge1 3.209949 1_555
Ce9 Ge2 3.225846 1_545
Ce9 Ge6 3.327846 1_555
Ce10 Ru2 2.736298 1_565
Ce10 Ru0 3.074624 1_554
Ce10 Ge2 3.209948 1_555
Ce10 Ge1 3.225845 1_465
Ce10 Ge5 3.327845 1_554
Ce11 Ru1 2.736298 1_555
Ce11 Ru3 3.074624 1_455
Ce11 Ge3 3.209948 1_555
Ce11 Ge0 3.225845 1_555
Ce11 Ge4 3.327845 1_555
Ce12 Ru0 2.697373 1_555
Ce12 Ge6 3.121156 1_565
Ce12 Ge0 3.121156 1_555
Ce12 Ge5 3.160337 1_555
Ce12 Ge3 3.160337 1_555
Ce13 Ru1 2.697373 1_655
Ce13 Ge5 3.121156 1_645
Ce13 Ge3 3.121156 1_655
Ce13 Ge0 3.160337 1_555
Ce13 Ge6 3.160337 1_555
Ce14 Ru2 2.697373 1_555
Ce14 Ge4 3.121156 1_555
Ce14 Ge2 3.121156 1_545
Ce14 Ge1 3.160337 1_555
Ce14 Ge7 3.160337 1_555
Ce15 Ru3 2.697373 1_455
Ce15 Ge1 3.121156 1_465
Ce15 Ge7 3.121156 1_455
Ce15 Ge2 3.160337 1_555
Ce15 Ge4 3.160337 1_555
Ce16 Ru3 2.815755 1_555
Ce16 Ge0 3.104591 1_555
Ce16 Ge6 3.104591 1_565
Ce16 Ge5 3.127452 1_655
Ce16 Ge3 3.127452 1_655
Ce17 Ru2 2.815755 1_556
Ce17 Ge5 3.104591 1_545
Ce17 Ge3 3.104591 1_555
Ce17 Ge0 3.127452 1_555
Ce17 Ge6 3.127452 1_555
Ce18 Ru1 2.815755 1_555
Ce18 Ge4 3.104591 1_555
Ce18 Ge2 3.104591 1_545
Ce18 Ge1 3.127452 1_455
Ce18 Ge7 3.127452 1_455
Ce19 Ru0 2.815755 1_554
Ce19 Ge7 3.104591 1_555
Ce19 Ge1 3.104591 1_565
Ce19 Ge4 3.127452 1_555
Ce19 Ge2 3.127452 1_555
