# generated using pymatgen
data_MgMn4Zn2O8
_symmetry_space_group_name_H-M   'P 1'
_cell_length_a   6.24108666
_cell_length_b   6.43873749
_cell_length_c   6.26745488
_cell_angle_alpha   58.81472977
_cell_angle_beta   61.71714949
_cell_angle_gamma   56.24561300
_symmetry_Int_Tables_number   1
_chemical_formula_structural   MgMn4Zn2O8
_chemical_formula_sum   'Mg1 Mn4 Zn2 O8'
_cell_volume   172.89982267
_cell_formula_units_Z   1
loop_
 _symmetry_equiv_pos_site_id
 _symmetry_equiv_pos_as_xyz
  1  'x, y, z'
loop_
 _atom_site_type_symbol
 _atom_site_label
 _atom_site_symmetry_multiplicity
 _atom_site_fract_x
 _atom_site_fract_y
 _atom_site_fract_z
 _atom_site_occupancy
  Mg  Mg0  1  0.08084210  0.57301193  0.70668650  1
  Mn  Mn0  1  0.27206770  0.25320780  0.27219609  1
  Mn  Mn1  1  0.57740065  0.08476865  0.70033457  1
  Mn  Mn2  1  0.61333634  0.59013671  0.18966383  1
  Mn  Mn3  1  0.58731978  0.60982346  0.68110698  1
  Zn  Zn0  1  0.00306142  0.05935158  0.79682876  1
  Zn  Zn1  1  0.04993060  0.00803185  0.21139007  1
  O  O0  1  0.36138358  0.36599354  0.44558736  1
  O  O1  1  0.38429973  0.34024538  0.89419726  1
  O  O2  1  0.32707254  0.88335176  0.39640250  1
  O  O3  1  0.90202470  0.34375473  0.44471700  1
  O  O4  1  0.33430046  0.85468076  0.92344083  1
  O  O5  1  0.86464340  0.34478794  0.94587620  1
  O  O6  1  0.80208140  0.85555392  0.49289695  1
  O  O7  1  0.82982161  0.83329798  0.90909309  1
loop_
_geom_bond_atom_site_label_1
_geom_bond_atom_site_label_2
_geom_bond_distance
_geom_bond_site_symmetry_2
Mg0 O5 2.057305 1_455
Mg0 O7 2.067127 1_455
Mg0 O6 2.073460 1_455
Mg0 O1 2.084488 1_555
Mg0 O0 2.114344 1_555
Mg0 O2 2.586944 1_555
Mn0 O3 1.906003 1_455
Mn0 O2 1.954447 1_545
Mn0 O0 1.964748 1_555
Mn0 O1 1.976358 1_554
Mn1 O7 1.933940 1_545
Mn1 O6 1.947923 1_545
Mn1 O0 1.994628 1_555
Mn1 O1 2.028235 1_555
Mn1 O4 2.189513 1_545
Mn1 O3 2.713641 1_555
Mn2 O7 2.148718 1_554
Mn2 O5 2.182980 1_554
Mn2 O0 2.205136 1_555
Mn2 O2 2.241978 1_555
Mn2 O4 2.287375 1_554
Mn2 O3 2.290204 1_555
Mn3 O6 2.148685 1_555
Mn3 O4 2.174020 1_555
Mn3 O1 2.200363 1_555
Mn3 O3 2.262595 1_555
Mn3 O5 2.273407 1_555
Mn3 O2 2.288446 1_555
O2 Zn1 2.091497 1_565
O3 Zn0 2.114599 1_655
O4 Zn0 2.020941 1_565
O4 Zn1 2.060217 1_566
O5 Zn1 2.026921 1_656
O5 Zn0 2.060460 1_655
O6 Zn1 1.943440 1_665
O7 Zn0 1.936452 1_665
