# generated using pymatgen
data_Na2Nb8Si9(SO16)3
_symmetry_space_group_name_H-M   'P 1'
_cell_length_a   17.85567540
_cell_length_b   8.91467253
_cell_length_c   23.04772690
_cell_angle_alpha   89.98136724
_cell_angle_beta   89.96247859
_cell_angle_gamma   119.88814618
_symmetry_Int_Tables_number   1
_chemical_formula_structural   Na2Nb8Si9(SO16)3
_chemical_formula_sum   'Na6 Nb24 Si27 S9 O144'
_cell_volume   3180.74305951
_cell_formula_units_Z   3
loop_
 _symmetry_equiv_pos_site_id
 _symmetry_equiv_pos_as_xyz
  1  'x, y, z'
loop_
 _atom_site_type_symbol
 _atom_site_label
 _atom_site_symmetry_multiplicity
 _atom_site_fract_x
 _atom_site_fract_y
 _atom_site_fract_z
 _atom_site_occupancy
  Na  Na0  1  0.00021327  0.00017253  0.50023370  1
  Na  Na1  1  0.50200785  0.00151617  0.99763542  1
  Na  Na2  1  0.33499205  0.33661677  0.83050688  1
  Na  Na3  1  0.83169538  0.32717230  0.83308780  1
  Na  Na4  1  0.33201492  0.33531147  0.33792085  1
  Na  Na5  1  0.83480726  0.33138233  0.33536845  1
  Nb  Nb0  1  0.00615483  0.01659520  0.35929494  1
  Nb  Nb1  1  0.49509439  0.99622848  0.35977703  1
  Nb  Nb2  1  0.99477097  0.99380044  0.85744367  1
  Nb  Nb3  1  0.50694622  0.99731364  0.85783342  1
  Nb  Nb4  1  0.99412460  0.98408471  0.64137827  1
  Nb  Nb5  1  0.50575813  0.00502174  0.64192835  1
  Nb  Nb6  1  0.00333437  0.00308115  0.14333862  1
  Nb  Nb7  1  0.50038355  0.00402948  0.14546892  1
  Nb  Nb8  1  0.33687458  0.34092511  0.68192776  1
  Nb  Nb9  1  0.83838789  0.34746194  0.69242476  1
  Nb  Nb10  1  0.33876007  0.34219073  0.19495899  1
  Nb  Nb11  1  0.83770375  0.33407679  0.18218254  1
  Nb  Nb12  1  0.33857194  0.34738812  0.97239129  1
  Nb  Nb13  1  0.83332533  0.32469129  0.98116673  1
  Nb  Nb14  1  0.33413272  0.34373247  0.48193586  1
  Nb  Nb15  1  0.84130283  0.34325526  0.47484679  1
  Nb  Nb16  1  0.16068215  0.66230525  0.01767823  1
  Nb  Nb17  1  0.65891939  0.66241682  0.02728033  1
  Nb  Nb18  1  0.15823143  0.65543644  0.52796692  1
  Nb  Nb19  1  0.66578914  0.65759812  0.52101483  1
  Nb  Nb20  1  0.15946658  0.64928270  0.30533430  1
  Nb  Nb21  1  0.66363688  0.65839412  0.31606266  1
  Nb  Nb22  1  0.16358464  0.66817758  0.81369661  1
  Nb  Nb23  1  0.66072353  0.67090963  0.80434588  1
  Si  Si0  1  0.14206246  0.99871973  0.25031192  1
  Si  Si1  1  0.35761818  0.72165841  0.25099870  1
  Si  Si2  1  0.99398347  0.27758136  0.24968809  1
  Si  Si3  1  0.50431725  0.28878212  0.25114262  1
  Si  Si4  1  0.64308328  0.28574528  0.75003901  1
  Si  Si5  1  0.00334734  0.72011725  0.75032144  1
  Si  Si6  1  0.49371646  0.70978935  0.74938927  1
  Si  Si7  1  0.85746851  0.00044147  0.74971915  1
  Si  Si8  1  0.47843571  0.33385468  0.58131085  1
  Si  Si9  1  0.97246171  0.32547722  0.58457083  1
  Si  Si10  1  0.19027698  0.04760127  0.58343182  1
  Si  Si11  1  0.33407158  0.62883024  0.58320093  1
  Si  Si12  1  0.82968735  0.61267987  0.58289668  1
  Si  Si13  1  0.47259295  0.61950930  0.08420895  1
  Si  Si14  1  0.97881449  0.62391236  0.08134379  1
  Si  Si15  1  0.83393649  0.04013052  0.08301685  1
  Si  Si16  1  0.69029600  0.33384012  0.08345380  1
  Si  Si17  1  0.30937012  0.67448182  0.91614438  1
  Si  Si18  1  0.02024378  0.37659089  0.91569788  1
  Si  Si19  1  0.52840069  0.38284556  0.91573168  1
  Si  Si20  1  0.16610295  0.95600541  0.91641394  1
  Si  Si21  1  0.67075065  0.95178145  0.91676772  1
  Si  Si22  1  0.80874132  0.95128514  0.41657279  1
  Si  Si23  1  0.17115311  0.39003017  0.41714069  1
  Si  Si24  1  0.66702235  0.37585721  0.41732905  1
  Si  Si25  1  0.02785339  0.67288999  0.41580310  1
  Si  Si26  1  0.52190226  0.66354253  0.41833915  1
  S  S0  1  0.64375617  0.00144562  0.25073196  1
  S  S1  1  0.85628597  0.71314938  0.25019694  1
  S  S2  1  0.14352931  0.28632400  0.75078982  1
  S  S3  1  0.35640791  0.99915012  0.75041186  1
  S  S4  1  0.69227221  0.04800787  0.58324333  1
  S  S5  1  0.33214159  0.04581416  0.08330045  1
  S  S6  1  0.19174364  0.33500557  0.08330388  1
  S  S7  1  0.80812096  0.66373630  0.91648835  1
  S  S8  1  0.30769829  0.95251258  0.41631590  1
  O  O0  1  0.09650056  0.03272425  0.30640578  1
  O  O1  1  0.60370377  0.02959749  0.30234178  1
  O  O2  1  0.41971454  0.80599340  0.30680801  1
  O  O3  1  0.90989053  0.78935824  0.30201865  1
  O  O4  1  0.48634220  0.16247660  0.30622568  1
  O  O5  1  0.98165299  0.16088600  0.30699359  1
  O  O6  1  0.10387807  0.17941874  0.80322288  1
  O  O7  1  0.59461589  0.16063052  0.80666954  1
  O  O8  1  0.48173912  0.80229136  0.80736967  1
  O  O9  1  0.98793222  0.81173234  0.80683885  1
  O  O10  1  0.40954771  0.02865573  0.80267501  1
  O  O11  1  0.91899510  0.03165843  0.80696187  1
  O  O12  1  0.39533421  0.97437471  0.69759921  1
  O  O13  1  0.90640000  0.97536406  0.69350203  1
  O  O14  1  0.09217258  0.21057108  0.69818863  1
  O  O15  1  0.58257054  0.19328493  0.69333304  1
  O  O16  1  0.01642210  0.83633331  0.69290885  1
  O  O17  1  0.50918961  0.83282779  0.69344567  1
  O  O18  1  0.40659076  0.83654350  0.19315875  1
  O  O19  1  0.89622430  0.81706164  0.19710132  1
  O  O20  1  0.00948259  0.18623413  0.19325576  1
  O  O21  1  0.51466362  0.19428828  0.19276919  1
  O  O22  1  0.08275489  0.97195514  0.19301247  1
  O  O23  1  0.59064163  0.97616548  0.19736049  1
  O  O24  1  0.43111080  0.36427997  0.63935113  1
  O  O25  1  0.92635529  0.35615114  0.64053534  1
  O  O26  1  0.25039890  0.13987566  0.64120179  1
  O  O27  1  0.74310980  0.12586404  0.63592691  1
  O  O28  1  0.31813230  0.49984037  0.63956776  1
  O  O29  1  0.81824361  0.49728999  0.64066872  1
  O  O30  1  0.42493645  0.49392959  0.13982839  1
  O  O31  1  0.93222541  0.49878352  0.13913994  1
  O  O32  1  0.32018496  0.12523901  0.13601549  1
  O  O33  1  0.81843340  0.13731375  0.13943651  1
  O  O34  1  0.24422935  0.35813819  0.13543085  1
  O  O35  1  0.74934289  0.35878279  0.14123962  1
  O  O36  1  0.23001313  0.30338993  0.03103300  1
  O  O37  1  0.73571892  0.30010668  0.02697343  1
  O  O38  1  0.41238539  0.52312542  0.02724105  1
  O  O39  1  0.91658319  0.52889431  0.02619253  1
  O  O40  1  0.34643535  0.15398930  0.03120398  1
  O  O41  1  0.85106885  0.16829223  0.02715359  1
  O  O42  1  0.23653350  0.17198937  0.52682805  1
  O  O43  1  0.72901835  0.15500724  0.53108269  1
  O  O44  1  0.35141977  0.53527547  0.52721421  1
  O  O45  1  0.84547619  0.52037179  0.52636337  1
  O  O46  1  0.41523305  0.30131122  0.52610562  1
  O  O47  1  0.91422335  0.29782562  0.52643795  1
  O  O48  1  0.26354640  0.69419415  0.97488618  1
  O  O49  1  0.77202604  0.69461767  0.96904554  1
  O  O50  1  0.08267147  0.46984083  0.97290729  1
  O  O51  1  0.58419636  0.46947089  0.97416132  1
  O  O52  1  0.15146839  0.83214560  0.97341096  1
  O  O53  1  0.65495534  0.83211609  0.97400943  1
  O  O54  1  0.27224782  0.85008161  0.46878439  1
  O  O55  1  0.76337107  0.83212302  0.47333288  1
  O  O56  1  0.15527168  0.47861766  0.47385886  1
  O  O57  1  0.64984295  0.46624519  0.47307127  1
  O  O58  1  0.08454205  0.69981477  0.47376444  1
  O  O59  1  0.58363885  0.69769474  0.47359713  1
  O  O60  1  0.07165460  0.63947103  0.35907637  1
  O  O61  1  0.56931143  0.63673764  0.35983627  1
  O  O62  1  0.25761546  0.87617002  0.36365689  1
  O  O63  1  0.74945532  0.86123519  0.35827973  1
  O  O64  1  0.18272128  0.50296773  0.35880117  1
  O  O65  1  0.68273396  0.50134450  0.36003524  1
  O  O66  1  0.06985365  0.50310114  0.85992188  1
  O  O67  1  0.56952800  0.50370345  0.85939100  1
  O  O68  1  0.18412378  0.86459213  0.86041354  1
  O  O69  1  0.68272972  0.86233505  0.85909930  1
  O  O70  1  0.24937530  0.63711804  0.85912518  1
  O  O71  1  0.75730920  0.63779362  0.86403113  1
  O  O72  1  0.01102145  0.83591329  0.40684412  1
  O  O73  1  0.51259064  0.83416652  0.40418721  1
  O  O74  1  0.39735084  0.97256513  0.40908188  1
  O  O75  1  0.90448405  0.97164317  0.40705418  1
  O  O76  1  0.08342088  0.19482764  0.41055004  1
  O  O77  1  0.58194430  0.18920902  0.40346030  1
  O  O78  1  0.01351932  0.19072073  0.90512588  1
  O  O79  1  0.50998496  0.18530718  0.90774122  1
  O  O80  1  0.08250875  0.97575312  0.90446370  1
  O  O81  1  0.58342693  0.97294061  0.91059873  1
  O  O82  1  0.40550590  0.83928897  0.90910687  1
  O  O83  1  0.89736306  0.82183660  0.90912287  1
  O  O84  1  0.48667490  0.16393260  0.59536119  1
  O  O85  1  0.98825437  0.16204690  0.59246751  1
  O  O86  1  0.09560846  0.02978933  0.59268286  1
  O  O87  1  0.60341984  0.02908199  0.59070461  1
  O  O88  1  0.41916821  0.81319090  0.59607972  1
  O  O89  1  0.91749414  0.80529376  0.58940031  1
  O  O90  1  0.48556568  0.81304606  0.09195150  1
  O  O91  1  0.98786493  0.81064993  0.09517581  1
  O  O92  1  0.41208224  0.02924403  0.08929271  1
  O  O93  1  0.91908885  0.02508778  0.09589409  1
  O  O94  1  0.10396358  0.17975124  0.09047667  1
  O  O95  1  0.59389844  0.16182469  0.09276105  1
  O  O96  1  0.34484799  0.15472721  0.74429653  1
  O  O97  1  0.84495658  0.16853154  0.74105880  1
  O  O98  1  0.23166027  0.30508773  0.74544732  1
  O  O99  1  0.73760989  0.30151926  0.74159231  1
  O  O100  1  0.40976045  0.51286624  0.74375558  1
  O  O101  1  0.91707856  0.52690582  0.74451292  1
  O  O102  1  0.34556821  0.52488645  0.24104442  1
  O  O103  1  0.84531266  0.53519096  0.24308509  1
  O  O104  1  0.41628401  0.30585268  0.24167513  1
  O  O105  1  0.90987192  0.30655705  0.24298928  1
  O  O106  1  0.23804442  0.17040755  0.23749531  1
  O  O107  1  0.73066341  0.15846109  0.24382090  1
  O  O108  1  0.31867895  0.49775037  0.92481478  1
  O  O109  1  0.82157884  0.51209018  0.92266341  1
  O  O110  1  0.42911004  0.35909441  0.92631201  1
  O  O111  1  0.92673869  0.36253733  0.92342335  1
  O  O112  1  0.25160780  0.14482888  0.92872469  1
  O  O113  1  0.75259884  0.14982150  0.92417268  1
  O  O114  1  0.32139358  0.13093655  0.42167924  1
  O  O115  1  0.81870222  0.14287861  0.42466321  1
  O  O116  1  0.25278706  0.35510272  0.42332991  1
  O  O117  1  0.75135071  0.35428315  0.42509728  1
  O  O118  1  0.42660807  0.49124090  0.42310006  1
  O  O119  1  0.93046161  0.49855137  0.42279447  1
  O  O120  1  0.18181823  0.48886224  0.07600883  1
  O  O121  1  0.68123079  0.50286070  0.07191711  1
  O  O122  1  0.07399798  0.64182026  0.07297825  1
  O  O123  1  0.56730390  0.63811577  0.07598356  1
  O  O124  1  0.25682048  0.87160305  0.07597051  1
  O  O125  1  0.75011562  0.85464790  0.07128036  1
  O  O126  1  0.18222854  0.86119556  0.57171844  1
  O  O127  1  0.67986824  0.87304086  0.57606374  1
  O  O128  1  0.24999547  0.64543844  0.57123470  1
  O  O129  1  0.74845675  0.64291682  0.57302536  1
  O  O130  1  0.06729197  0.49878281  0.57591497  1
  O  O131  1  0.57141952  0.50550392  0.57282554  1
  O  O132  1  0.15639118  0.83598084  0.26231483  1
  O  O133  1  0.65271317  0.84649949  0.25664056  1
  O  O134  1  0.26329823  0.69836618  0.26057248  1
  O  O135  1  0.76970149  0.69545610  0.25685518  1
  O  O136  1  0.08014851  0.46843664  0.25697427  1
  O  O137  1  0.58667154  0.48147746  0.25947989  1
  O  O138  1  0.15420465  0.46174313  0.75896497  1
  O  O139  1  0.65516250  0.47554105  0.76294366  1
  O  O140  1  0.08691637  0.69348715  0.76068320  1
  O  O141  1  0.58037761  0.69288359  0.75715961  1
  O  O142  1  0.26949124  0.84350409  0.75790675  1
  O  O143  1  0.76420911  0.82922664  0.76174714  1
loop_
_geom_bond_atom_site_label_1
_geom_bond_atom_site_label_2
_geom_bond_distance
_geom_bond_site_symmetry_2
Na0 O89 2.619062 1_445
Na0 O76 2.629699 1_555
Na0 O85 2.637319 1_455
Na0 O86 2.658586 1_555
Na0 O72 2.664116 1_545
Na0 O75 2.677763 1_445
Na1 O81 2.562818 1_545
Na1 O82 2.597451 1_545
Na1 O79 2.600418 1_555
Na1 O90 2.671996 1_546
Na1 O95 2.685340 1_556
Na1 O92 2.737406 1_556
Na2 O100 2.480451 1_555
Na2 O98 2.610514 1_555
Na2 O96 2.625680 1_555
Na2 O108 2.700167 1_555
Na2 O110 2.722053 1_555
Na2 O112 2.778553 1_555
Na3 O113 2.582624 1_555
Na3 O111 2.605014 1_555
Na3 O97 2.624889 1_555
Na3 O99 2.635054 1_555
Na3 O101 2.636358 1_555
Na3 O109 2.703856 1_555
Na4 O116 2.480458 1_555
Na4 O118 2.511054 1_555
Na4 O114 2.595166 1_555
Na4 O102 2.736642 1_555
Na4 O104 2.764682 1_555
Na4 O106 2.807625 1_555
Na5 O115 2.580214 1_555
Na5 O119 2.582228 1_555
Na5 O105 2.582799 1_555
Na5 O117 2.615060 1_555
Na5 O107 2.727015 1_555
Na5 O103 2.741781 1_555
Nb0 O76 1.908439 1_555
Nb0 O5 1.964579 1_455
Nb0 O0 1.968522 1_555
Nb0 O75 1.984935 1_445
Nb0 O72 1.985305 1_545
Nb0 O3 2.309822 1_445
Nb1 O73 1.918796 1_555
Nb1 O77 1.929372 1_565
Nb1 O2 1.976524 1_555
Nb1 O4 1.993519 1_565
Nb1 O74 2.003033 1_555
Nb1 O1 2.241231 1_565
Nb2 O11 1.937833 1_565
Nb2 O9 1.952819 1_555
Nb2 O78 1.953857 1_665
Nb2 O80 1.976840 1_655
Nb2 O83 2.032901 1_555
Nb2 O6 2.208588 1_665
Nb3 O7 1.919843 1_565
Nb3 O81 1.920619 1_555
Nb3 O8 1.949373 1_555
Nb3 O79 2.011318 1_565
Nb3 O82 2.028526 1_555
Nb3 O10 2.281594 1_565
Nb4 O89 1.917722 1_555
Nb4 O13 1.943943 1_555
Nb4 O16 1.956065 1_655
Nb4 O85 1.990822 1_565
Nb4 O86 1.992588 1_665
Nb4 O14 2.310382 1_665
Nb5 O84 1.937896 1_555
Nb5 O88 1.949312 1_545
Nb5 O15 1.952135 1_555
Nb5 O17 1.965351 1_545
Nb5 O87 2.026097 1_555
Nb5 O12 2.251250 1_545
Nb6 O91 1.944403 1_445
Nb6 O22 1.947519 1_545
Nb6 O93 1.947596 1_455
Nb6 O20 1.955573 1_555
Nb6 O94 2.090199 1_555
Nb6 O19 2.185829 1_445
Nb7 O21 1.923738 1_555
Nb7 O18 1.935616 1_545
Nb7 O95 1.974329 1_555
Nb7 O90 2.010711 1_545
Nb7 O23 2.119125 1_545
Nb7 O92 2.137398 1_555
Nb8 O24 1.867127 1_555
Nb8 O28 1.882594 1_555
Nb8 O26 1.929366 1_555
Nb8 O100 2.022265 1_555
Nb8 O96 2.253007 1_555
Nb8 O98 2.274346 1_555
Nb9 O101 1.933350 1_555
Nb9 O25 1.944127 1_555
Nb9 O29 1.953106 1_555
Nb9 O99 1.988081 1_555
Nb9 O97 2.000002 1_555
Nb9 O27 2.268812 1_555
Nb10 O102 1.897240 1_555
Nb10 O104 1.904986 1_555
Nb10 O30 1.932340 1_555
Nb10 O106 1.947404 1_555
Nb10 O34 2.234650 1_555
Nb10 O32 2.249251 1_555
Nb11 O31 1.875010 1_555
Nb11 O33 1.888348 1_555
Nb11 O35 1.943288 1_555
Nb11 O105 2.000499 1_555
Nb11 O103 2.227607 1_555
Nb11 O107 2.266060 1_555
Nb12 O110 1.892560 1_555
Nb12 O108 1.897200 1_555
Nb12 O38 1.932668 1_556
Nb12 O112 1.973206 1_555
Nb12 O36 2.230788 1_556
Nb12 O40 2.251566 1_556
Nb13 O41 1.899312 1_556
Nb13 O37 1.953673 1_556
Nb13 O39 1.976608 1_556
Nb13 O113 1.999441 1_555
Nb13 O111 2.025598 1_555
Nb13 O109 2.236315 1_555
Nb14 O44 1.891111 1_555
Nb14 O42 1.946560 1_555
Nb14 O46 1.955459 1_555
Nb14 O116 2.023282 1_555
Nb14 O118 2.031365 1_555
Nb14 O114 2.269617 1_555
Nb15 O119 1.920986 1_555
Nb15 O45 1.947419 1_555
Nb15 O47 1.949473 1_555
Nb15 O115 1.993738 1_555
Nb15 O117 2.015894 1_555
Nb15 O43 2.271082 1_555
Nb16 O50 1.889450 1_554
Nb16 O52 1.899440 1_554
Nb16 O122 1.941408 1_555
Nb16 O48 1.975880 1_554
Nb16 O120 2.218417 1_555
Nb16 O124 2.246253 1_555
Nb17 O123 1.904524 1_555
Nb17 O121 1.950542 1_555
Nb17 O125 1.959314 1_555
Nb17 O53 1.976528 1_554
Nb17 O51 1.988445 1_554
Nb17 O49 2.319705 1_554
Nb18 O130 1.882775 1_555
Nb18 O126 1.945109 1_555
Nb18 O128 1.958249 1_555
Nb18 O56 1.990220 1_555
Nb18 O58 1.992235 1_555
Nb18 O54 2.343140 1_555
Nb19 O57 1.931209 1_555
Nb19 O131 1.955248 1_555
Nb19 O129 1.956438 1_555
Nb19 O55 1.989708 1_555
Nb19 O59 1.999544 1_555
Nb19 O127 2.209627 1_555
Nb20 O136 1.890753 1_555
Nb20 O132 1.961184 1_555
Nb20 O60 1.964945 1_555
Nb20 O134 1.970215 1_555
Nb20 O64 1.982846 1_555
Nb20 O62 2.332675 1_555
Nb21 O61 1.888222 1_555
Nb21 O65 1.891782 1_555
Nb21 O63 1.950956 1_555
Nb21 O137 1.979975 1_555
Nb21 O135 2.220517 1_555
Nb21 O133 2.247334 1_555
Nb22 O66 1.908864 1_555
Nb22 O68 1.929116 1_555
Nb22 O140 1.930725 1_555
Nb22 O70 1.985980 1_555
Nb22 O138 2.168081 1_555
Nb22 O142 2.173046 1_555
Nb23 O141 1.887130 1_555
Nb23 O143 1.941101 1_555
Nb23 O139 1.944889 1_555
Nb23 O69 1.998198 1_555
Nb23 O67 2.014939 1_555
Nb23 O71 2.337512 1_555
O0 Si0 1.633959 1_545
O1 S0 1.472168 1_555
O2 Si1 1.618901 1_555
O3 S1 1.469071 1_555
O4 Si3 1.618928 1_555
O5 Si2 1.626521 1_555
O6 S2 1.481747 1_555
O7 Si4 1.652912 1_555
O8 Si6 1.639387 1_555
O9 Si5 1.632119 1_655
O10 S3 1.474245 1_545
O11 Si7 1.649969 1_555
O12 S3 1.471580 1_555
O13 Si7 1.638745 1_565
O14 S2 1.466810 1_555
O15 Si4 1.633991 1_555
O16 Si5 1.623714 1_555
O17 Si6 1.624342 1_555
O18 Si1 1.641859 1_555
O19 S1 1.484567 1_555
O20 Si2 1.629785 1_455
O21 Si3 1.645988 1_555
O22 Si0 1.634817 1_555
O23 S0 1.500688 1_565
O24 Si8 1.674584 1_555
O25 Si9 1.624640 1_555
O26 Si10 1.650578 1_555
O27 S4 1.467712 1_555
O28 Si11 1.662345 1_555
O29 Si12 1.631595 1_555
O30 Si13 1.633673 1_555
O31 Si14 1.668385 1_555
O32 S5 1.474420 1_555
O33 Si15 1.660534 1_555
O34 S6 1.474184 1_555
O35 Si16 1.644142 1_555
O36 S6 1.479465 1_555
O37 Si16 1.638516 1_555
O38 Si13 1.643142 1_555
O39 Si14 1.622484 1_555
O40 S5 1.479983 1_555
O41 Si15 1.645249 1_555
O42 Si10 1.642748 1_555
O43 S4 1.469724 1_555
O44 Si11 1.647489 1_555
O45 Si12 1.638834 1_555
O46 Si8 1.628635 1_555
O47 Si9 1.638244 1_555
O48 Si17 1.635636 1_555
O49 S7 1.460991 1_555
O50 Si18 1.658700 1_555
O51 Si19 1.624224 1_555
O52 Si20 1.650517 1_555
O53 Si21 1.629980 1_555
O54 S8 1.455707 1_555
O55 Si22 1.623624 1_555
O56 Si23 1.623668 1_555
O57 Si24 1.624932 1_555
O58 Si25 1.620679 1_555
O59 Si26 1.611663 1_555
O60 Si25 1.625090 1_555
O61 Si26 1.670953 1_555
O62 S8 1.459893 1_555
O63 Si22 1.650982 1_555
O64 Si23 1.629645 1_555
O65 Si24 1.661212 1_555
O66 Si18 1.646529 1_555
O67 Si19 1.611077 1_555
O68 Si20 1.641635 1_555
O69 Si21 1.618161 1_555
O70 Si17 1.622363 1_555
O71 S7 1.459750 1_555
O72 Si25 1.637142 1_555
O73 Si26 1.642996 1_555
O74 S8 1.528651 1_555
O75 Si22 1.641312 1_555
O76 Si23 1.670011 1_555
O77 Si24 1.631059 1_555
O78 Si18 1.619063 1_555
O79 Si19 1.632887 1_555
O80 Si20 1.611578 1_555
O81 Si21 1.667443 1_555
O82 Si17 1.617869 1_555
O83 S7 1.521727 1_555
O84 Si8 1.625721 1_555
O85 Si9 1.626229 1_555
O86 Si10 1.630960 1_555
O87 S4 1.519189 1_555
O88 Si11 1.615582 1_555
O89 Si12 1.657245 1_555
O90 Si13 1.632231 1_555
O91 Si14 1.622125 1_555
O92 S5 1.512855 1_555
O93 Si15 1.619140 1_555
O94 S6 1.495694 1_555
O95 Si16 1.651959 1_555
O96 S3 1.507060 1_545
O97 Si7 1.633604 1_555
O98 S2 1.502290 1_555
O99 Si4 1.633853 1_555
O100 Si6 1.650326 1_555
O101 Si5 1.647314 1_655
O102 Si1 1.673373 1_555
O103 S1 1.507473 1_555
O104 Si3 1.667467 1_555
O105 Si2 1.653203 1_555
O106 Si0 1.658868 1_545
O107 S0 1.492471 1_555
O108 Si17 1.676483 1_555
O109 S7 1.493065 1_555
O110 Si19 1.694923 1_555
O111 Si18 1.620520 1_655
O112 Si20 1.638462 1_545
O113 Si21 1.646494 1_545
O114 S8 1.489155 1_545
O115 Si22 1.637419 1_545
O116 Si23 1.641507 1_555
O117 Si24 1.620259 1_555
O118 Si26 1.631416 1_555
O119 Si25 1.664763 1_655
O120 S6 1.477518 1_555
O121 Si16 1.615580 1_555
O122 Si14 1.637171 1_455
O123 Si13 1.625843 1_555
O124 S5 1.472441 1_565
O125 Si15 1.606781 1_565
O126 Si10 1.617799 1_565
O127 S4 1.471480 1_565
O128 Si11 1.604283 1_555
O129 Si12 1.618084 1_555
O130 Si9 1.638908 1_455
O131 Si8 1.613603 1_555
O132 Si0 1.617546 1_555
O133 S0 1.473828 1_565
O134 Si1 1.605964 1_555
O135 S1 1.481642 1_555
O136 Si2 1.637618 1_455
O137 Si3 1.622731 1_555
O138 S2 1.490128 1_555
O139 Si4 1.623099 1_555
O140 Si5 1.641179 1_555
O141 Si6 1.637674 1_555
O142 S3 1.488974 1_555
O143 Si7 1.626502 1_565
