# generated using pymatgen
data_LiCrP2O7
_symmetry_space_group_name_H-M   'P 1'
_cell_length_a   6.32298200
_cell_length_b   6.34424554
_cell_length_c   6.83570504
_cell_angle_alpha   85.40592957
_cell_angle_beta   66.77470710
_cell_angle_gamma   82.23791790
_symmetry_Int_Tables_number   1
_chemical_formula_structural   LiCrP2O7
_chemical_formula_sum   'Li2 Cr2 P4 O14'
_cell_volume   249.57219738
_cell_formula_units_Z   2
loop_
 _symmetry_equiv_pos_site_id
 _symmetry_equiv_pos_as_xyz
  1  'x, y, z'
loop_
 _atom_site_type_symbol
 _atom_site_label
 _atom_site_symmetry_multiplicity
 _atom_site_fract_x
 _atom_site_fract_y
 _atom_site_fract_z
 _atom_site_occupancy
  Li  Li0  1  0.70955700  0.00473600  0.83158300  1
  Li  Li1  1  0.29044300  0.99526400  0.16841700  1
  Cr  Cr0  1  0.09234200  0.64208500  0.78404400  1
  Cr  Cr1  1  0.90765800  0.35791500  0.21595600  1
  P  P0  1  0.34723700  0.39395400  0.35235700  1
  P  P1  1  0.65276300  0.60604600  0.64764300  1
  P  P2  1  0.21705100  0.13077900  0.76554500  1
  P  P3  1  0.78294900  0.86922100  0.23445500  1
  O  O0  1  0.22379700  0.59710600  0.47514800  1
  O  O1  1  0.60928500  0.94980600  0.14049100  1
  O  O2  1  0.39071500  0.05019400  0.85950900  1
  O  O3  1  0.93495400  0.03652700  0.24458600  1
  O  O4  1  0.35500500  0.20760200  0.52625700  1
  O  O5  1  0.21905800  0.31462000  0.22866100  1
  O  O6  1  0.05057500  0.33191000  0.88092600  1
  O  O7  1  0.64499500  0.79239800  0.47374300  1
  O  O8  1  0.77620300  0.40289400  0.52485200  1
  O  O9  1  0.59931500  0.40792200  0.20627400  1
  O  O10  1  0.40068500  0.59207800  0.79372600  1
  O  O11  1  0.94942500  0.66809000  0.11907400  1
  O  O12  1  0.78094200  0.68538000  0.77133900  1
  O  O13  1  0.06504600  0.96347300  0.75541400  1
loop_
_geom_bond_atom_site_label_1
_geom_bond_atom_site_label_2
_geom_bond_distance
_geom_bond_site_symmetry_2
Li0 O2 1.931900 1_555
Li0 O1 1.966773 1_546
Li0 O12 2.053855 1_545
Li0 O13 2.081313 1_645
Li1 O1 1.931900 1_555
Li1 O2 1.966773 1_564
Li1 O5 2.053855 1_565
Li1 O3 2.081313 1_465
Cr0 O10 1.958949 1_555
Cr0 O0 1.969534 1_555
Cr0 O12 1.986156 1_455
Cr0 O13 2.023147 1_555
Cr0 O6 2.043121 1_555
Cr0 O11 2.115823 1_456
Cr1 O9 1.958949 1_555
Cr1 O8 1.969534 1_555
Cr1 O5 1.986156 1_655
Cr1 O3 2.023147 1_555
Cr1 O11 2.043121 1_555
Cr1 O6 2.115823 1_654
O0 P0 1.536138 1_555
O1 P3 1.493898 1_555
O2 P2 1.493898 1_555
O3 P3 1.547588 1_545
O4 P2 1.592409 1_555
O4 P0 1.618168 1_555
O5 P0 1.531012 1_555
O6 P2 1.581751 1_555
O7 P3 1.592409 1_555
O7 P1 1.618168 1_555
O8 P1 1.536138 1_555
O9 P0 1.521235 1_555
O10 P1 1.521235 1_555
O11 P3 1.581751 1_555
O12 P1 1.531012 1_555
O13 P2 1.547588 1_565
