# generated using pymatgen
data_MgTi2Zn2O6
_symmetry_space_group_name_H-M   'P 1'
_cell_length_a   15.69788385
_cell_length_b   11.05361786
_cell_length_c   11.20307908
_cell_angle_alpha   152.80562183
_cell_angle_beta   165.43886048
_cell_angle_gamma   18.64201724
_symmetry_Int_Tables_number   1
_chemical_formula_structural   MgTi2Zn2O6
_chemical_formula_sum   'Mg1 Ti2 Zn2 O6'
_cell_volume   146.69606187
_cell_formula_units_Z   1
loop_
 _symmetry_equiv_pos_site_id
 _symmetry_equiv_pos_as_xyz
  1  'x, y, z'
loop_
 _atom_site_type_symbol
 _atom_site_label
 _atom_site_symmetry_multiplicity
 _atom_site_fract_x
 _atom_site_fract_y
 _atom_site_fract_z
 _atom_site_occupancy
  Mg  Mg0  1  0.50005770  0.49997474  0.00007977  1
  Ti  Ti0  1  0.82947185  0.91222640  0.63474875  1
  Ti  Ti1  1  0.17049894  0.08777796  0.36519896  1
  Zn  Zn0  1  0.11106990  0.55175495  0.97156084  1
  Zn  Zn1  1  0.88901956  0.44822929  0.02854337  1
  O  O0  1  0.74443002  0.13045318  0.55358702  1
  O  O1  1  0.44660842  0.36207781  0.62538205  1
  O  O2  1  0.87072477  0.59133127  0.51755826  1
  O  O3  1  0.25560272  0.86953915  0.44644354  1
  O  O4  1  0.55324866  0.63799585  0.37449603  1
  O  O5  1  0.12926946  0.40864140  0.48240042  1
loop_
_geom_bond_atom_site_label_1
_geom_bond_atom_site_label_2
_geom_bond_distance
_geom_bond_site_symmetry_2
Mg0 O2 1.976863 1_555
Mg0 O5 1.976972 1_554
Mg0 O3 2.188740 1_645
Mg0 O0 2.188841 1_464
Mg0 O4 2.206727 1_555
Mg0 O1 2.207237 1_554
O0 Zn0 1.958357 1_554
O0 Ti0 1.969033 1_545
O0 Zn1 2.069811 1_556
O1 Ti0 1.982687 1_545
O1 Ti1 2.027789 1_656
O1 Zn1 2.113818 1_455
O2 Ti0 1.932140 1_555
O2 Zn0 1.994811 1_655
O2 Ti1 2.247142 1_655
O3 Zn1 1.958487 1_556
O3 Ti1 1.969092 1_565
O3 Zn0 2.069659 1_554
O4 Ti1 1.982360 1_565
O4 Ti0 2.027519 1_454
O4 Zn0 2.114421 1_655
O5 Ti1 1.932018 1_555
O5 Zn1 1.994582 1_455
O5 Ti0 2.247183 1_455
