# generated using pymatgen
data_Zn(InS2)2
_symmetry_space_group_name_H-M   'P 1'
_cell_length_a   3.92356082
_cell_length_b   3.92356082
_cell_length_c   26.60876900
_cell_angle_alpha   90.00000000
_cell_angle_beta   90.00000000
_cell_angle_gamma   119.99998006
_symmetry_Int_Tables_number   1
_chemical_formula_structural   Zn(InS2)2
_chemical_formula_sum   'Zn2 In4 S8'
_cell_volume   354.74499749
_cell_formula_units_Z   2
loop_
 _symmetry_equiv_pos_site_id
 _symmetry_equiv_pos_as_xyz
  1  'x, y, z'
loop_
 _atom_site_type_symbol
 _atom_site_label
 _atom_site_symmetry_multiplicity
 _atom_site_fract_x
 _atom_site_fract_y
 _atom_site_fract_z
 _atom_site_occupancy
  Zn  Zn0  1  0.33333300  0.66666700  0.57836900  1
  Zn  Zn1  1  0.66666700  0.33333300  0.42163100  1
  In  In0  1  0.33333300  0.66666700  0.10612400  1
  In  In1  1  0.66666700  0.33333300  0.89387600  1
  In  In2  1  0.00000000  0.00000000  0.74242300  1
  In  In3  1  0.00000000  0.00000000  0.25757700  1
  S  S0  1  0.66666700  0.33333300  0.57183200  1
  S  S1  1  0.33333300  0.66666700  0.19673100  1
  S  S2  1  0.66666700  0.33333300  0.06332300  1
  S  S3  1  0.33333300  0.66666700  0.93667700  1
  S  S4  1  0.66666700  0.33333300  0.80326900  1
  S  S5  1  0.66666700  0.33333300  0.30305100  1
  S  S6  1  0.33333300  0.66666700  0.42816800  1
  S  S7  1  0.33333300  0.66666700  0.69694900  1
loop_
_geom_bond_atom_site_label_1
_geom_bond_atom_site_label_2
_geom_bond_distance
_geom_bond_site_symmetry_2
In0 S1 2.410941 1_555
In0 S2 2.535446 1_455
In0 S2 2.535446 1_565
In0 S2 2.535452 1_555
In1 S4 2.410941 1_555
In1 S3 2.535446 1_545
In1 S3 2.535446 1_655
In1 S3 2.535452 1_555
In2 S7 2.568180 1_545
In2 S7 2.568184 1_555
In2 S7 2.568184 1_445
In2 S4 2.784369 1_455
In2 S4 2.784373 1_555
In2 S4 2.784373 1_445
In3 S5 2.568180 1_455
In3 S5 2.568184 1_445
In3 S5 2.568184 1_555
In3 S1 2.784369 1_545
In3 S1 2.784373 1_555
In3 S1 2.784373 1_445
S0 Zn0 2.271935 1_545
S0 Zn0 2.271935 1_655
S0 Zn0 2.271942 1_555
S6 Zn1 2.271935 1_455
S6 Zn1 2.271935 1_565
S6 Zn1 2.271942 1_555
