# generated using pymatgen
data_MgNi2(BiO3)4
_symmetry_space_group_name_H-M   'P 1'
_cell_length_a   5.51444349
_cell_length_b   5.51444349
_cell_length_c   9.66936952
_cell_angle_alpha   89.23524903
_cell_angle_beta   89.23524903
_cell_angle_gamma   76.85925143
_symmetry_Int_Tables_number   1
_chemical_formula_structural   MgNi2(BiO3)4
_chemical_formula_sum   'Mg1 Ni2 Bi4 O12'
_cell_volume   286.29564536
_cell_formula_units_Z   1
loop_
 _symmetry_equiv_pos_site_id
 _symmetry_equiv_pos_as_xyz
  1  'x, y, z'
loop_
 _atom_site_type_symbol
 _atom_site_label
 _atom_site_symmetry_multiplicity
 _atom_site_fract_x
 _atom_site_fract_y
 _atom_site_fract_z
 _atom_site_occupancy
  Mg  Mg0  1  0.80070382  0.80070382  0.14816153  1
  Ni  Ni0  1  0.07431775  0.07431775  0.98774428  1
  Ni  Ni1  1  0.50859120  0.50859120  0.50344749  1
  Bi  Bi0  1  0.08326299  0.08326299  0.34986308  1
  Bi  Bi1  1  0.92761466  0.92761466  0.67323935  1
  Bi  Bi2  1  0.46247699  0.46247699  0.16874184  1
  Bi  Bi3  1  0.49528569  0.49528569  0.82770082  1
  O  O0  1  0.16224481  0.79144090  0.15093353  1
  O  O1  1  0.18901909  0.81938818  0.84055659  1
  O  O2  1  0.20358190  0.80881134  0.51435701  1
  O  O3  1  0.30782397  0.30782397  0.99625826  1
  O  O4  1  0.33475030  0.33475030  0.35583164  1
  O  O5  1  0.35432128  0.35432128  0.66318991  1
  O  O6  1  0.65059337  0.65059337  0.30481760  1
  O  O7  1  0.68412540  0.68412540  0.66837171  1
  O  O8  1  0.64164637  0.64164637  0.00343822  1
  O  O9  1  0.80881134  0.20358190  0.51435701  1
  O  O10  1  0.79144090  0.16224481  0.15093353  1
  O  O11  1  0.81938818  0.18901909  0.84055659  1
loop_
_geom_bond_atom_site_label_1
_geom_bond_atom_site_label_2
_geom_bond_distance
_geom_bond_site_symmetry_2
Mg0 O6 1.977259 1_555
Mg0 O8 1.977944 1_555
Mg0 O10 1.983240 1_565
Mg0 O0 1.983240 1_655
Ni0 O1 2.006724 1_545
Ni0 O11 2.006724 1_455
Ni0 O3 2.020509 1_555
Ni0 O0 2.183830 1_546
Ni0 O10 2.183830 1_456
Ni1 O5 2.022906 1_555
Ni1 O2 2.077201 1_555
Ni1 O9 2.077201 1_555
Ni1 O4 2.089546 1_555
Ni1 O7 2.219346 1_555
Ni1 O6 2.261348 1_555
Bi0 O4 2.174530 1_555
Bi0 O9 2.183561 1_455
Bi0 O2 2.183561 1_545
Bi0 O10 2.494165 1_455
Bi0 O0 2.494165 1_545
Bi1 O7 2.105008 1_555
Bi1 O2 2.148587 1_655
Bi1 O9 2.148587 1_565
Bi1 O1 2.167224 1_655
Bi1 O11 2.167224 1_565
Bi2 O4 2.102942 1_555
Bi2 O6 2.108465 1_555
Bi2 O3 2.154725 1_554
Bi2 O0 2.166834 1_555
Bi2 O10 2.166834 1_555
Bi2 O8 2.206068 1_555
Bi3 O5 2.019817 1_555
Bi3 O8 2.135354 1_556
Bi3 O11 2.165621 1_555
Bi3 O1 2.165621 1_555
Bi3 O7 2.224792 1_555
Bi3 O3 2.278070 1_555
