# generated using pymatgen
data_Ba7(ClF6)2
_symmetry_space_group_name_H-M   'P 1'
_cell_length_a   10.68440051
_cell_length_b   10.68440682
_cell_length_c   4.18291008
_cell_angle_alpha   89.99999535
_cell_angle_beta   90.00001096
_cell_angle_gamma   120.00006870
_symmetry_Int_Tables_number   1
_chemical_formula_structural   Ba7(ClF6)2
_chemical_formula_sum   'Ba7 Cl2 F12'
_cell_volume   413.53229812
_cell_formula_units_Z   1
loop_
 _symmetry_equiv_pos_site_id
 _symmetry_equiv_pos_as_xyz
  1  'x, y, z'
loop_
 _atom_site_type_symbol
 _atom_site_label
 _atom_site_symmetry_multiplicity
 _atom_site_fract_x
 _atom_site_fract_y
 _atom_site_fract_z
 _atom_site_occupancy
  Ba  Ba0  1  0.95470304  0.21972258  0.50000011  1
  Ba  Ba1  1  0.78027749  0.73498028  0.49999992  1
  Ba  Ba2  1  0.26501981  0.04529767  0.50000012  1
  Ba  Ba3  1  0.07629374  0.63298284  -0.00000041  1
  Ba  Ba4  1  0.36701759  0.44331122  0.00000006  1
  Ba  Ba5  1  0.55668951  0.92370572  0.00000047  1
  Ba  Ba6  1  0.66666727  0.33333354  0.00000004  1
  Cl  Cl0  1  0.33333385  0.66666671  0.50000015  1
  Cl  Cl1  1  -0.00000015  0.00000017  -0.00000011  1
  F  F0  1  0.71627993  0.94624902  0.49999996  1
  F  F1  1  0.05374961  0.77003016  0.50000002  1
  F  F2  1  0.22997019  0.28371963  0.50000037  1
  F  F3  1  0.88217518  0.43140046  0.49999986  1
  F  F4  1  0.56859889  0.45077430  0.50000018  1
  F  F5  1  0.54922477  0.11782361  0.49999989  1
  F  F6  1  0.09728465  0.39568764  -0.00000016  1
  F  F7  1  0.60431192  0.70159691  -0.00000007  1
  F  F8  1  0.29840291  0.90271560  -0.00000024  1
  F  F9  1  0.78778876  0.17746702  0.00000034  1
  F  F10  1  0.82253318  0.61032240  -0.00000041  1
  F  F11  1  0.38967885  0.21221151  -0.00000007  1
loop_
_geom_bond_atom_site_label_1
_geom_bond_atom_site_label_2
_geom_bond_distance
_geom_bond_site_symmetry_2
Ba0 F9 2.636910 1_555
Ba0 F9 2.636912 1_556
Ba0 F2 2.665780 1_655
Ba0 F6 2.713948 1_656
Ba0 F6 2.713950 1_655
Ba0 F3 2.732794 1_555
Ba0 F0 2.753817 1_545
Ba0 Cl1 3.354969 1_656
Ba0 Cl1 3.354971 1_655
Ba1 F10 2.636906 1_556
Ba1 F10 2.636909 1_555
Ba1 F0 2.665773 1_555
Ba1 F7 2.713952 1_555
Ba1 F7 2.713953 1_556
Ba1 F4 2.732795 1_555
Ba1 F1 2.753806 1_655
Ba1 Cl1 3.354970 1_666
Ba1 Cl1 3.354971 1_665
Ba2 F11 2.636909 1_556
Ba2 F11 2.636910 1_555
Ba2 F1 2.665783 1_545
Ba2 F8 2.713950 1_546
Ba2 F8 2.713953 1_545
Ba2 F5 2.732789 1_555
Ba2 F2 2.753803 1_555
Ba2 Cl1 3.354972 1_556
Ba2 Cl1 3.354972 1_555
Ba3 F10 2.598695 1_455
Ba3 F1 2.632295 1_554
Ba3 F1 2.632299 1_555
Ba3 F6 2.654611 1_555
Ba3 F8 2.664212 1_555
Ba3 F3 2.974487 1_454
Ba3 F3 2.974489 1_455
Ba3 Cl0 3.325295 1_554
Ba3 Cl0 3.325298 1_555
Ba4 F11 2.598698 1_555
Ba4 F2 2.632295 1_554
Ba4 F2 2.632298 1_555
Ba4 F7 2.654601 1_555
Ba4 F6 2.664214 1_555
Ba4 F4 2.974483 1_554
Ba4 F4 2.974483 1_555
Ba4 Cl0 3.325291 1_554
Ba4 Cl0 3.325292 1_555
Ba5 F9 2.598694 1_565
Ba5 F0 2.632290 1_555
Ba5 F0 2.632294 1_554
Ba5 F8 2.654618 1_555
Ba5 F7 2.664203 1_555
Ba5 F5 2.974487 1_565
Ba5 F5 2.974490 1_564
Ba5 Cl0 3.325287 1_555
Ba5 Cl0 3.325289 1_554
Ba6 F9 2.569674 1_555
Ba6 F11 2.569674 1_555
Ba6 F10 2.569679 1_555
Ba6 F3 2.891586 1_555
Ba6 F3 2.891587 1_554
Ba6 F4 2.891595 1_554
Ba6 F4 2.891596 1_555
Ba6 F5 2.891600 1_555
Ba6 F5 2.891601 1_554
