# generated using pymatgen
data_Na6Hf3MgSi2(PO6)4
_symmetry_space_group_name_H-M   'P 1'
_cell_length_a   15.72973839
_cell_length_b   9.04802494
_cell_length_c   9.09058287
_cell_angle_alpha   90.50669161
_cell_angle_beta   124.69542418
_cell_angle_gamma   89.91285501
_symmetry_Int_Tables_number   1
_chemical_formula_structural   Na6Hf3MgSi2(PO6)4
_chemical_formula_sum   'Na12 Hf6 Mg2 Si4 P8 O48'
_cell_volume   1063.69716145
_cell_formula_units_Z   2
loop_
 _symmetry_equiv_pos_site_id
 _symmetry_equiv_pos_as_xyz
  1  'x, y, z'
loop_
 _atom_site_type_symbol
 _atom_site_label
 _atom_site_symmetry_multiplicity
 _atom_site_fract_x
 _atom_site_fract_y
 _atom_site_fract_z
 _atom_site_occupancy
  Na  Na0  1  0.25010192  0.74878696  0.99938809  1
  Na  Na1  1  0.74234700  0.74622544  0.47738887  1
  Na  Na2  1  0.75010192  0.24878696  0.99938809  1
  Na  Na3  1  0.24234700  0.24622544  0.47738887  1
  Na  Na4  1  0.51023641  0.09128511  0.76950262  1
  Na  Na5  1  0.49734904  0.88593926  0.23358465  1
  Na  Na6  1  0.01023641  0.59128511  0.76950262  1
  Na  Na7  1  0.99734904  0.38593926  0.23358465  1
  Na  Na8  1  0.79736720  0.92596076  0.20771644  1
  Na  Na9  1  0.18526683  0.08142517  0.81140298  1
  Na  Na10  1  0.29736720  0.42596076  0.20771644  1
  Na  Na11  1  0.68526683  0.58142517  0.81140298  1
  Hf  Hf0  1  0.10460376  0.74875416  0.55834650  1
  Hf  Hf1  1  0.89451641  0.75483063  0.93464496  1
  Hf  Hf2  1  0.89611421  0.25290145  0.44219938  1
  Hf  Hf3  1  0.60460376  0.24875416  0.55834650  1
  Hf  Hf4  1  0.39451641  0.25483063  0.93464496  1
  Hf  Hf5  1  0.39611421  0.75290145  0.44219938  1
  Mg  Mg0  1  0.10405665  0.24447866  0.06061856  1
  Mg  Mg1  1  0.60405665  0.74447866  0.06061856  1
  Si  Si0  1  0.64965614  0.89885960  0.75147048  1
  Si  Si1  1  0.35091064  0.10100551  0.25178519  1
  Si  Si2  1  0.14965614  0.39885960  0.75147048  1
  Si  Si3  1  0.85091064  0.60100551  0.25178519  1
  P  P0  1  0.99835181  0.95841609  0.74694279  1
  P  P1  1  0.00226971  0.04584722  0.25573060  1
  P  P2  1  0.49835181  0.45841609  0.74694279  1
  P  P3  1  0.50226971  0.54584722  0.25573060  1
  P  P4  1  0.35725899  0.89552878  0.76539379  1
  P  P5  1  0.64548750  0.10583099  0.24049380  1
  P  P6  1  0.85725899  0.39552878  0.76539379  1
  P  P7  1  0.14548750  0.60583099  0.24049380  1
  O  O0  1  0.15693876  0.57966892  0.73785640  1
  O  O1  1  0.85364901  0.56913716  0.75713430  1
  O  O2  1  0.84930248  0.41813108  0.25727333  1
  O  O3  1  0.15030438  0.43643395  0.24694812  1
  O  O4  1  0.65693876  0.07966892  0.73785640  1
  O  O5  1  0.35364901  0.06913716  0.75713430  1
  O  O6  1  0.34930248  0.91813108  0.25727333  1
  O  O7  1  0.65030438  0.93643395  0.24694812  1
  O  O8  1  0.43004294  0.54754868  0.57147424  1
  O  O9  1  0.56219564  0.55991940  0.90769758  1
  O  O10  1  0.56541529  0.45279569  0.42675393  1
  O  O11  1  0.44257155  0.43733042  0.09272906  1
  O  O12  1  0.93004294  0.04754868  0.57147424  1
  O  O13  1  0.06219564  0.05991940  0.90769758  1
  O  O14  1  0.06541529  0.95279569  0.42675393  1
  O  O15  1  0.94257155  0.93733042  0.09272906  1
  O  O16  1  0.25658313  0.84409029  0.74323913  1
  O  O17  1  0.74509112  0.81649927  0.75638385  1
  O  O18  1  0.74168072  0.16717110  0.25273069  1
  O  O19  1  0.25824731  0.18324424  0.24433971  1
  O  O20  1  0.75658313  0.34409029  0.74323913  1
  O  O21  1  0.24509112  0.31649927  0.75638385  1
  O  O22  1  0.24168072  0.66717110  0.25273069  1
  O  O23  1  0.75824731  0.68324424  0.24433971  1
  O  O24  1  0.35951104  0.84729554  0.60200796  1
  O  O25  1  0.64883594  0.86558409  0.92424669  1
  O  O26  1  0.64489540  0.16246872  0.40101620  1
  O  O27  1  0.35445983  0.13909678  0.07559637  1
  O  O28  1  0.85951104  0.34729554  0.60200796  1
  O  O29  1  0.14883594  0.36558409  0.92424669  1
  O  O30  1  0.14489540  0.66246872  0.40101620  1
  O  O31  1  0.85445983  0.63909678  0.07559637  1
  O  O32  1  0.45218948  0.84003082  0.93870474  1
  O  O33  1  0.54077791  0.83097775  0.57229305  1
  O  O34  1  0.54652563  0.16254826  0.06579422  1
  O  O35  1  0.46416890  0.15931485  0.42631635  1
  O  O36  1  0.95218948  0.34003082  0.93870474  1
  O  O37  1  0.04077791  0.33097775  0.57229305  1
  O  O38  1  0.04652563  0.66254826  0.06579422  1
  O  O39  1  0.96416890  0.65931485  0.42631635  1
  O  O40  1  0.07821729  0.86169617  0.73603872  1
  O  O41  1  0.92806330  0.84587068  0.75847504  1
  O  O42  1  0.91466540  0.12994356  0.25625242  1
  O  O43  1  0.06977329  0.15712676  0.24208820  1
  O  O44  1  0.57821729  0.36169617  0.73603872  1
  O  O45  1  0.42806330  0.34587068  0.75847504  1
  O  O46  1  0.41466540  0.62994356  0.25625242  1
  O  O47  1  0.56977329  0.65712676  0.24208820  1
loop_
_geom_bond_atom_site_label_1
_geom_bond_atom_site_label_2
_geom_bond_distance
_geom_bond_site_symmetry_2
Na0 O6 2.461243 1_556
Na0 O0 2.473360 1_555
Na0 O22 2.498900 1_556
Na0 O46 2.542464 1_556
Na0 O16 2.545999 1_555
Na0 O40 2.598289 1_555
Na1 O23 2.336019 1_555
Na1 O47 2.441304 1_555
Na1 O7 2.459634 1_555
Na1 O17 2.585640 1_555
Na1 O1 2.663563 1_555
Na1 O41 2.710231 1_555
Na2 O2 2.461243 1_556
Na2 O4 2.473360 1_555
Na2 O18 2.498900 1_556
Na2 O42 2.542464 1_556
Na2 O20 2.545999 1_555
Na2 O44 2.598289 1_555
Na3 O19 2.336019 1_555
Na3 O43 2.441304 1_555
Na3 O3 2.459634 1_555
Na3 O21 2.585640 1_555
Na3 O5 2.663563 1_555
Na3 O45 2.710231 1_555
Na4 O5 2.409437 1_555
Na4 O4 2.484603 1_555
Na4 O34 2.493276 1_556
Na4 O45 2.614264 1_555
Na4 O25 2.729122 1_545
Na4 O44 2.759295 1_555
Na4 O35 2.845327 1_555
Na4 O24 2.942758 1_545
Na5 O47 2.342079 1_555
Na5 O32 2.382508 1_554
Na5 O7 2.383632 1_555
Na5 O6 2.474255 1_555
Na5 O46 2.724289 1_555
Na5 O33 2.797508 1_555
Na5 O27 2.954457 1_565
Na6 O1 2.409437 1_455
Na6 O0 2.484603 1_555
Na6 O38 2.493276 1_556
Na6 O41 2.614264 1_455
Na6 O29 2.729122 1_555
Na6 O40 2.759295 1_555
Na6 O39 2.845327 1_455
Na6 O28 2.942758 1_455
Na7 O43 2.342079 1_655
Na7 O36 2.382508 1_554
Na7 O3 2.383632 1_655
Na7 O2 2.474255 1_555
Na7 O42 2.724289 1_555
Na7 O37 2.797508 1_655
Na7 O31 2.954457 1_555
Na8 O25 2.349987 1_554
Na8 O23 2.358524 1_555
Na8 O42 2.464657 1_565
Na8 O18 2.466650 1_565
Na8 O7 2.534813 1_555
Na9 O27 2.414273 1_556
Na9 O40 2.435186 1_545
Na9 O21 2.494059 1_555
Na9 O13 2.546590 1_555
Na9 O16 2.648438 1_545
Na10 O29 2.349987 1_554
Na10 O19 2.358524 1_555
Na10 O46 2.464657 1_555
Na10 O22 2.466650 1_555
Na10 O3 2.534813 1_555
Na11 O31 2.414273 1_556
Na11 O44 2.435186 1_555
Na11 O17 2.494059 1_555
Na11 O9 2.546590 1_555
Na11 O20 2.648438 1_555
Hf0 O39 1.986219 1_455
Hf0 O30 2.016778 1_555
Hf0 O0 2.047480 1_555
Hf0 O14 2.101304 1_555
Hf0 O40 2.135087 1_555
Hf0 O16 2.165735 1_555
Hf1 O31 2.019949 1_556
Hf1 O15 2.021982 1_556
Hf1 O17 2.034142 1_555
Hf1 O41 2.123314 1_555
Hf1 O38 2.145229 1_656
Hf1 O1 2.148146 1_555
Hf2 O37 2.000539 1_655
Hf2 O28 2.024900 1_555
Hf2 O2 2.057954 1_555
Hf2 O12 2.107079 1_555
Hf2 O18 2.165228 1_555
Hf2 O42 2.169676 1_555
Hf3 O35 1.986219 1_555
Hf3 O26 2.016778 1_555
Hf3 O4 2.047480 1_555
Hf3 O10 2.101304 1_555
Hf3 O44 2.135087 1_555
Hf3 O20 2.165735 1_555
Hf4 O27 2.019949 1_556
Hf4 O11 2.021982 1_556
Hf4 O21 2.034142 1_555
Hf4 O45 2.123314 1_555
Hf4 O34 2.145229 1_556
Hf4 O5 2.148146 1_555
Hf5 O33 2.000539 1_555
Hf5 O24 2.024900 1_555
Hf5 O6 2.057954 1_555
Hf5 O8 2.107079 1_555
Hf5 O22 2.165228 1_555
Hf5 O46 2.169676 1_555
Mg0 O13 2.018623 1_554
Mg0 O29 2.062557 1_554
Mg0 O19 2.092754 1_555
Mg0 O43 2.161942 1_555
Mg0 O36 2.163088 1_454
Mg0 O3 2.227975 1_555
Mg1 O9 2.018623 1_554
Mg1 O25 2.062557 1_554
Mg1 O23 2.092754 1_555
Mg1 O47 2.161942 1_555
Mg1 O32 2.163088 1_554
Mg1 O7 2.227975 1_555
O0 Si2 1.650793 1_555
O1 P6 1.572665 1_555
O2 Si3 1.656511 1_555
O3 P7 1.534456 1_555
O4 Si0 1.650793 1_545
O5 P4 1.572665 1_545
O6 Si1 1.656511 1_565
O7 P5 1.534456 1_565
O8 P2 1.555068 1_555
O9 P2 1.515220 1_555
O10 P3 1.541147 1_555
O11 P3 1.560297 1_555
O12 P0 1.555068 1_545
O13 P0 1.515220 1_445
O14 P1 1.541147 1_565
O15 P1 1.560297 1_665
O16 P4 1.549993 1_555
O17 Si0 1.652777 1_555
O18 P5 1.555541 1_555
O19 Si1 1.602515 1_555
O20 P6 1.549993 1_555
O21 Si2 1.652777 1_555
O22 P7 1.555541 1_555
O23 Si3 1.602515 1_555
O24 P4 1.564012 1_555
O25 Si0 1.609086 1_555
O26 P5 1.547359 1_555
O27 Si1 1.672970 1_555
O28 P6 1.564012 1_555
O29 Si2 1.609086 1_555
O30 P7 1.547359 1_555
O31 Si3 1.672970 1_555
O32 P4 1.515767 1_555
O33 Si0 1.665288 1_555
O34 P5 1.551211 1_555
O35 Si1 1.655196 1_555
O36 P6 1.515767 1_555
O37 Si2 1.665288 1_555
O38 P7 1.551211 1_555
O39 Si3 1.655196 1_555
O40 P0 1.578211 1_455
O41 P0 1.551649 1_555
O42 P1 1.575453 1_655
O43 P1 1.520516 1_555
O44 P2 1.578211 1_555
O45 P2 1.551649 1_555
O46 P3 1.575453 1_555
O47 P3 1.520516 1_555
