# generated using pymatgen
data_Na2MgZrP2SO12
_symmetry_space_group_name_H-M   'P 1'
_cell_length_a   8.98159519
_cell_length_b   8.92713431
_cell_length_c   22.82586483
_cell_angle_alpha   90.09146712
_cell_angle_beta   90.00000000
_cell_angle_gamma   120.20201223
_symmetry_Int_Tables_number   1
_chemical_formula_structural   Na2MgZrP2SO12
_chemical_formula_sum   'Na12 Mg6 Zr6 P12 S6 O72'
_cell_volume   1581.73971785
_cell_formula_units_Z   6
loop_
 _symmetry_equiv_pos_site_id
 _symmetry_equiv_pos_as_xyz
  1  'x, y, z'
loop_
 _atom_site_type_symbol
 _atom_site_label
 _atom_site_symmetry_multiplicity
 _atom_site_fract_x
 _atom_site_fract_y
 _atom_site_fract_z
 _atom_site_occupancy
  Na  Na0  1  0.99550168  0.63097013  0.24518707  1
  Na  Na1  1  0.63546844  0.63097013  0.74518707  1
  Na  Na2  1  0.66216868  0.96430313  0.57852007  1
  Na  Na3  1  0.30213544  0.96430313  0.07852007  1
  Na  Na4  1  0.32883468  0.29763713  0.91185407  1
  Na  Na5  1  0.96880144  0.29763713  0.41185407  1
  Na  Na6  1  0.99785222  0.97978326  0.49380717  1
  Na  Na7  1  0.98193104  0.97978326  0.99380717  1
  Na  Na8  1  0.66451922  0.31311626  0.82714017  1
  Na  Na9  1  0.64859804  0.31311626  0.32714017  1
  Na  Na10  1  0.33118522  0.64645026  0.16047417  1
  Na  Na11  1  0.31526404  0.64645026  0.66047417  1
  Mg  Mg0  1  0.00045735  0.99696594  0.35105839  1
  Mg  Mg1  1  0.99650859  0.99696594  0.85105839  1
  Mg  Mg2  1  0.66712435  0.33029894  0.68439139  1
  Mg  Mg3  1  0.66317559  0.33029894  0.18439139  1
  Mg  Mg4  1  0.33379035  0.66363294  0.01772539  1
  Mg  Mg5  1  0.32984159  0.66363294  0.51772539  1
  Zr  Zr0  1  0.00193395  0.01021968  0.64786268  1
  Zr  Zr1  1  0.00828573  0.01021968  0.14786268  1
  Zr  Zr2  1  0.66860095  0.34355268  0.98119568  1
  Zr  Zr3  1  0.67495273  0.34355268  0.48119568  1
  Zr  Zr4  1  0.33526695  0.67688668  0.31452968  1
  Zr  Zr5  1  0.34161873  0.67688668  0.81452968  1
  P  P0  1  0.29692467  0.01004902  0.25141446  1
  P  P1  1  0.99396617  0.29179182  0.25396319  1
  P  P2  1  0.29782565  0.29179182  0.75396319  1
  P  P3  1  0.71312435  0.01004902  0.75141446  1
  P  P4  1  0.96359167  0.34338202  0.58474746  1
  P  P5  1  0.66063317  0.62512482  0.58729619  1
  P  P6  1  0.96449265  0.62512482  0.08729619  1
  P  P7  1  0.37979135  0.34338202  0.08474746  1
  P  P8  1  0.63025767  0.67671602  0.91808146  1
  P  P9  1  0.32729917  0.95845882  0.92063019  1
  P  P10  1  0.63115865  0.95845882  0.42063019  1
  P  P11  1  0.04645735  0.67671602  0.41808146  1
  S  S0  1  0.70855694  0.70704043  0.25078524  1
  S  S1  1  0.99848349  0.70704043  0.75078524  1
  S  S2  1  0.37522394  0.04037343  0.58411824  1
  S  S3  1  0.66515049  0.04037343  0.08411824  1
  S  S4  1  0.04188994  0.37370743  0.91745224  1
  S  S5  1  0.33181649  0.37370743  0.41745224  1
  O  O0  1  0.20196479  0.02278861  0.30380174  1
  O  O1  1  0.81480679  0.79005344  0.30242204  1
  O  O2  1  0.97485227  0.18834952  0.30914601  1
  O  O3  1  0.21349725  0.18834952  0.80914601  1
  O  O4  1  0.97524666  0.79005344  0.80242204  1
  O  O5  1  0.82082382  0.02278861  0.80380174  1
  O  O6  1  0.78975223  0.97033308  0.69437481  1
  O  O7  1  0.18212692  0.20087697  0.69869588  1
  O  O8  1  0.02595212  0.81391481  0.69719969  1
  O  O9  1  0.78796270  0.81391481  0.19719969  1
  O  O10  1  0.01875005  0.20087697  0.19869588  1
  O  O11  1  0.18058085  0.97033308  0.19437481  1
  O  O12  1  0.86863179  0.35612161  0.63713474  1
  O  O13  1  0.48147379  0.12338644  0.63575504  1
  O  O14  1  0.64151927  0.52168252  0.64247901  1
  O  O15  1  0.88016425  0.52168252  0.14247901  1
  O  O16  1  0.64191366  0.12338644  0.13575504  1
  O  O17  1  0.48749082  0.35612161  0.13713474  1
  O  O18  1  0.45641923  0.30366608  0.02770781  1
  O  O19  1  0.84879392  0.53420997  0.03202888  1
  O  O20  1  0.69261912  0.14724781  0.03053269  1
  O  O21  1  0.45462970  0.14724781  0.53053269  1
  O  O22  1  0.68541705  0.53420997  0.53202888  1
  O  O23  1  0.84724785  0.30366608  0.52770781  1
  O  O24  1  0.53529779  0.68945561  0.97046874  1
  O  O25  1  0.14813979  0.45672044  0.96908904  1
  O  O26  1  0.30818527  0.85501652  0.97581301  1
  O  O27  1  0.54683025  0.85501652  0.47581301  1
  O  O28  1  0.30857966  0.45672044  0.46908904  1
  O  O29  1  0.15415682  0.68945561  0.47046874  1
  O  O30  1  0.12308523  0.63700008  0.36104181  1
  O  O31  1  0.51545992  0.86754397  0.36536288  1
  O  O32  1  0.35928512  0.48058181  0.36386669  1
  O  O33  1  0.12129570  0.48058181  0.86386669  1
  O  O34  1  0.35208305  0.86754397  0.86536288  1
  O  O35  1  0.51391385  0.63700008  0.86104181  1
  O  O36  1  0.02044955  0.83057948  0.40979524  1
  O  O37  1  0.81457119  0.98998180  0.41233647  1
  O  O38  1  0.17564077  0.20124429  0.41084641  1
  O  O39  1  0.02560352  0.20124429  0.91084641  1
  O  O40  1  0.17541061  0.98998180  0.91233647  1
  O  O41  1  0.81012993  0.83057948  0.90979524  1
  O  O42  1  0.97264241  0.16914912  0.58881102  1
  O  O43  1  0.20018016  0.02049328  0.58892852  1
  O  O44  1  0.82996580  0.81011532  0.58956394  1
  O  O45  1  0.98014952  0.81011532  0.08956394  1
  O  O46  1  0.82031313  0.02049328  0.08892852  1
  O  O47  1  0.19650671  0.16914912  0.08881102  1
  O  O48  1  0.68711655  0.16391248  0.74312824  1
  O  O49  1  0.48123819  0.32331480  0.74566947  1
  O  O50  1  0.84230777  0.53457729  0.74417941  1
  O  O51  1  0.69227052  0.53457729  0.24417941  1
  O  O52  1  0.84207761  0.32331480  0.24566947  1
  O  O53  1  0.47679693  0.16391248  0.24312824  1
  O  O54  1  0.63930941  0.50248212  0.92214402  1
  O  O55  1  0.86684716  0.35382628  0.92226152  1
  O  O56  1  0.49663280  0.14344832  0.92289694  1
  O  O57  1  0.64681652  0.14344832  0.42289694  1
  O  O58  1  0.48698013  0.35382628  0.42226152  1
  O  O59  1  0.86317371  0.50248212  0.42214402  1
  O  O60  1  0.35378255  0.49724648  0.07646224  1
  O  O61  1  0.14790419  0.65664880  0.07900347  1
  O  O62  1  0.50897377  0.86791129  0.07751341  1
  O  O63  1  0.35893652  0.86791129  0.57751341  1
  O  O64  1  0.50874361  0.65664880  0.57900347  1
  O  O65  1  0.14346293  0.49724648  0.57646224  1
  O  O66  1  0.30597541  0.83581612  0.25547802  1
  O  O67  1  0.53351316  0.68716028  0.25559552  1
  O  O68  1  0.16329880  0.47678232  0.25623094  1
  O  O69  1  0.31348252  0.47678232  0.75623094  1
  O  O70  1  0.15364613  0.68716028  0.75559552  1
  O  O71  1  0.52983971  0.83581612  0.75547802  1
loop_
_geom_bond_atom_site_label_1
_geom_bond_atom_site_label_2
_geom_bond_distance
_geom_bond_site_symmetry_2
Na0 O52 2.373714 1_555
Na0 O51 2.408422 1_555
Na0 O66 2.458336 1_655
Na0 O68 2.513500 1_655
Na0 O15 2.548930 1_555
Na0 O11 2.868982 1_655
Na0 O30 2.871720 1_655
Na0 O1 2.944567 1_555
Na1 O49 2.373714 1_555
Na1 O50 2.408430 1_555
Na1 O71 2.458343 1_555
Na1 O69 2.513508 1_555
Na1 O14 2.548932 1_555
Na1 O6 2.868982 1_555
Na1 O35 2.871724 1_555
Na1 O4 2.944567 1_555
Na2 O64 2.373706 1_555
Na2 O63 2.408432 1_555
Na2 O42 2.458336 1_565
Na2 O44 2.513500 1_555
Na2 O27 2.548909 1_555
Na2 O23 2.868982 1_565
Na2 O6 2.871720 1_555
Na2 O13 2.944567 1_565
Na3 O61 2.373706 1_555
Na3 O62 2.408415 1_555
Na3 O47 2.458343 1_565
Na3 O45 2.513508 1_455
Na3 O26 2.548905 1_554
Na3 O18 2.868982 1_565
Na3 O11 2.871724 1_555
Na3 O16 2.944567 1_565
Na4 O40 2.373714 1_545
Na4 O39 2.408422 1_555
Na4 O54 2.458339 1_555
Na4 O56 2.513513 1_555
Na4 O3 2.548930 1_555
Na4 O35 2.868982 1_555
Na4 O18 2.871704 1_556
Na4 O25 2.944567 1_555
Na5 O37 2.373714 1_545
Na5 O38 2.408430 1_655
Na5 O59 2.458326 1_555
Na5 O57 2.513498 1_555
Na5 O2 2.548932 1_555
Na5 O30 2.868982 1_655
Na5 O23 2.871697 1_555
Na5 O28 2.944567 1_655
Na6 O36 2.399272 1_655
Na6 O37 2.515493 1_555
Na6 O38 2.622993 1_665
Na6 O44 2.656694 1_555
Na6 O43 2.735260 1_665
Na6 O42 2.825779 1_565
Na7 O41 2.399272 1_555
Na7 O40 2.515493 1_655
Na7 O39 2.622993 1_665
Na7 O45 2.656694 1_556
Na7 O46 2.735260 1_566
Na7 O47 2.825779 1_666
Na8 O48 2.399272 1_555
Na8 O49 2.515493 1_555
Na8 O50 2.622993 1_555
Na8 O56 2.656694 1_555
Na8 O55 2.735260 1_555
Na8 O54 2.825779 1_555
Na9 O53 2.399272 1_555
Na9 O52 2.515493 1_555
Na9 O51 2.622993 1_555
Na9 O57 2.656694 1_555
Na9 O58 2.735260 1_555
Na9 O59 2.825779 1_555
Na10 O60 2.399272 1_555
Na10 O61 2.515493 1_555
Na10 O62 2.622993 1_555
Na10 O68 2.656694 1_555
Na10 O67 2.735260 1_555
Na10 O66 2.825779 1_555
Na11 O65 2.399272 1_555
Na11 O64 2.515493 1_555
Na11 O63 2.622993 1_555
Na11 O69 2.656694 1_555
Na11 O70 2.735260 1_555
Na11 O71 2.825779 1_555
Mg0 O0 2.018242 1_565
Mg0 O2 2.070667 1_465
Mg0 O36 2.076234 1_555
Mg0 O1 2.078319 1_455
Mg0 O37 2.154827 1_455
Mg0 O38 2.183786 1_565
Mg1 O5 2.018242 1_565
Mg1 O3 2.070667 1_665
Mg1 O41 2.076234 1_555
Mg1 O4 2.078319 1_555
Mg1 O40 2.154827 1_655
Mg1 O39 2.183786 1_665
Mg2 O12 2.018242 1_555
Mg2 O14 2.070667 1_555
Mg2 O48 2.076234 1_555
Mg2 O13 2.078319 1_555
Mg2 O49 2.154827 1_555
Mg2 O50 2.183786 1_555
Mg3 O17 2.018242 1_555
Mg3 O15 2.070667 1_555
Mg3 O53 2.076234 1_555
Mg3 O16 2.078319 1_555
Mg3 O52 2.154827 1_555
Mg3 O51 2.183786 1_555
Mg4 O24 2.018242 1_554
Mg4 O26 2.070667 1_554
Mg4 O60 2.076234 1_555
Mg4 O25 2.078319 1_554
Mg4 O61 2.154827 1_555
Mg4 O62 2.183786 1_555
Mg5 O29 2.018242 1_555
Mg5 O27 2.070667 1_555
Mg5 O65 2.076234 1_555
Mg5 O28 2.078319 1_555
Mg5 O64 2.154827 1_555
Mg5 O63 2.183786 1_555
O0 P0 1.505794 1_555
O1 S0 1.461090 1_555
O2 P1 1.520860 1_555
O3 P2 1.520860 1_555
O4 S1 1.461090 1_555
O5 P3 1.505794 1_555
O6 P3 1.593286 1_565
O6 Zr0 2.050426 1_665
O7 P2 1.574230 1_555
O7 Zr0 2.021087 1_555
O8 S1 1.494693 1_455
O8 Zr0 2.184597 1_565
O9 S0 1.494693 1_555
O9 Zr1 2.184597 1_665
O10 P1 1.574230 1_455
O10 Zr1 2.021087 1_555
O11 P0 1.593286 1_565
O11 Zr1 2.050426 1_565
O12 P4 1.505794 1_555
O13 S2 1.461090 1_555
O14 P5 1.520860 1_555
O15 P6 1.520860 1_555
O16 S3 1.461090 1_555
O17 P7 1.505794 1_555
O18 P7 1.593286 1_555
O18 Zr2 2.050426 1_554
O19 P6 1.574230 1_555
O19 Zr2 2.021087 1_554
O20 S3 1.494693 1_555
O20 Zr2 2.184597 1_554
O21 S2 1.494693 1_555
O21 Zr3 2.184597 1_555
O22 P5 1.574230 1_555
O22 Zr3 2.021087 1_555
O23 P4 1.593286 1_555
O23 Zr3 2.050426 1_555
O24 P8 1.505794 1_555
O25 S4 1.461090 1_555
O26 P9 1.520860 1_555
O27 P10 1.520860 1_555
O28 S5 1.461090 1_555
O29 P11 1.505794 1_555
O30 P11 1.593286 1_555
O30 Zr4 2.050426 1_555
O31 P10 1.574230 1_555
O31 Zr4 2.021087 1_555
O32 S5 1.494693 1_555
O32 Zr4 2.184597 1_555
O33 S4 1.494693 1_555
O33 Zr5 2.184597 1_555
O34 P9 1.574230 1_555
O34 Zr5 2.021087 1_555
O35 P8 1.593286 1_555
O35 Zr5 2.050426 1_555
O36 P11 1.516787 1_555
O37 P10 1.537048 1_555
O38 S5 1.478908 1_555
O39 S4 1.478912 1_555
O40 P9 1.537039 1_555
O41 P8 1.516793 1_555
O42 P4 1.600673 1_555
O42 Zr0 2.068974 1_655
O43 S2 1.494865 1_555
O43 Zr0 2.196486 1_555
O44 P5 1.586115 1_555
O44 Zr0 2.136347 1_665
O45 P6 1.586118 1_555
O45 Zr1 2.136347 1_665
O46 S3 1.494856 1_555
O46 Zr1 2.196486 1_655
O47 P7 1.600677 1_555
O47 Zr1 2.068974 1_555
O48 P3 1.516787 1_555
O49 P2 1.537048 1_555
O50 S1 1.478908 1_555
O51 S0 1.478912 1_555
O52 P1 1.537039 1_555
O53 P0 1.516793 1_555
O54 P8 1.600685 1_555
O54 Zr2 2.068974 1_555
O55 S4 1.494850 1_655
O55 Zr2 2.196486 1_555
O56 P9 1.586113 1_545
O56 Zr2 2.136347 1_555
O57 P10 1.586105 1_545
O57 Zr3 2.136347 1_555
O58 S5 1.494868 1_555
O58 Zr3 2.196486 1_555
O59 P11 1.600675 1_655
O59 Zr3 2.068974 1_555
O60 P7 1.516799 1_555
O61 P6 1.537033 1_455
O62 S3 1.478905 1_565
O63 S2 1.478897 1_565
O64 P5 1.537050 1_555
O65 P4 1.516788 1_455
O66 P0 1.600673 1_565
O66 Zr4 2.068974 1_555
O67 S0 1.494865 1_555
O67 Zr4 2.196486 1_555
O68 P1 1.586115 1_455
O68 Zr4 2.136347 1_555
O69 P2 1.586118 1_555
O69 Zr5 2.136347 1_555
O70 S1 1.494856 1_455
O70 Zr5 2.196486 1_555
O71 P3 1.600677 1_565
O71 Zr5 2.068974 1_555
