# generated using pymatgen
data_MgFe4(NiO4)2
_symmetry_space_group_name_H-M   'P 1'
_cell_length_a   5.93415009
_cell_length_b   6.33158400
_cell_length_c   5.93797675
_cell_angle_alpha   62.01692958
_cell_angle_beta   59.93016805
_cell_angle_gamma   62.04876893
_symmetry_Int_Tables_number   1
_chemical_formula_structural   MgFe4(NiO4)2
_chemical_formula_sum   'Mg1 Fe4 Ni2 O8'
_cell_volume   162.34311488
_cell_formula_units_Z   1
loop_
 _symmetry_equiv_pos_site_id
 _symmetry_equiv_pos_as_xyz
  1  'x, y, z'
loop_
 _atom_site_type_symbol
 _atom_site_label
 _atom_site_symmetry_multiplicity
 _atom_site_fract_x
 _atom_site_fract_y
 _atom_site_fract_z
 _atom_site_occupancy
  Mg  Mg0  1  0.12500000  0.62500000  0.12500000  1
  Fe  Fe0  1  0.97057400  0.09772900  0.96440500  1
  Fe  Fe1  1  0.27942600  0.15227100  0.28559500  1
  Fe  Fe2  1  0.62500000  0.12500000  0.62500000  1
  Fe  Fe3  1  0.62500000  0.62500000  0.62500000  1
  Ni  Ni0  1  0.12500000  0.62500000  0.62500000  1
  Ni  Ni1  1  0.62500000  0.62500000  0.12500000  1
  O  O0  1  0.38485600  0.36869600  0.38492400  1
  O  O1  1  0.38169700  0.38162200  0.86985000  1
  O  O2  1  0.40346800  0.79805600  0.40230500  1
  O  O3  1  0.87086500  0.38148200  0.38106600  1
  O  O4  1  0.37913500  0.86851800  0.86893400  1
  O  O5  1  0.84653200  0.45194400  0.84769500  1
  O  O6  1  0.86830300  0.86837800  0.38015000  1
  O  O7  1  0.86514400  0.88130400  0.86507600  1
loop_
_geom_bond_atom_site_label_1
_geom_bond_atom_site_label_2
_geom_bond_distance
_geom_bond_site_symmetry_2
Mg0 O3 2.155319 1_455
Mg0 O4 2.155319 1_554
Mg0 O1 2.160579 1_554
Mg0 O6 2.160579 1_455
Mg0 O0 2.254377 1_555
Mg0 O7 2.254377 1_454
Fe0 O5 1.886017 1_555
Fe0 O4 2.098067 1_645
Fe0 O6 2.128872 1_546
Fe0 O7 2.132837 1_545
Fe1 O2 1.886017 1_545
Fe1 O3 2.098067 1_455
Fe1 O1 2.128872 1_554
Fe1 O0 2.132837 1_555
Fe2 O7 2.086660 1_545
Fe2 O0 2.086660 1_555
Fe2 O1 2.180048 1_555
Fe2 O6 2.180048 1_545
Fe2 O4 2.181711 1_545
Fe2 O3 2.181711 1_555
Fe3 O5 1.925988 1_555
Fe3 O2 1.925988 1_555
Fe3 O6 2.110118 1_555
Fe3 O1 2.110118 1_555
Fe3 O3 2.115011 1_555
Fe3 O4 2.115011 1_555
Ni0 O2 1.956471 1_555
Ni0 O5 1.956471 1_455
Ni0 O7 2.160046 1_455
Ni0 O0 2.160046 1_555
Ni0 O6 2.173768 1_455
Ni0 O1 2.173768 1_555
Ni1 O2 1.952885 1_555
Ni1 O5 1.952885 1_554
Ni1 O0 2.158658 1_555
Ni1 O7 2.158658 1_554
Ni1 O3 2.175360 1_555
Ni1 O4 2.175360 1_554
