# generated using pymatgen
data_Ca2Os2O7
_symmetry_space_group_name_H-M   'P 1'
_cell_length_a   7.25656304
_cell_length_b   7.25734390
_cell_length_c   7.25688061
_cell_angle_alpha   120.42103760
_cell_angle_beta   118.39185371
_cell_angle_gamma   91.04550926
_symmetry_Int_Tables_number   1
_chemical_formula_structural   Ca2Os2O7
_chemical_formula_sum   'Ca4 Os4 O14'
_cell_volume   272.49425491
_cell_formula_units_Z   2
loop_
 _symmetry_equiv_pos_site_id
 _symmetry_equiv_pos_as_xyz
  1  'x, y, z'
loop_
 _atom_site_type_symbol
 _atom_site_label
 _atom_site_symmetry_multiplicity
 _atom_site_fract_x
 _atom_site_fract_y
 _atom_site_fract_z
 _atom_site_occupancy
  Ca  Ca0  1  0.50000000  0.50000000  0.00000000  1
  Ca  Ca1  1  0.00000000  -0.00000000  0.00000000  1
  Ca  Ca2  1  0.50000000  0.50000000  0.50000000  1
  Ca  Ca3  1  0.50000000  -0.00000000  0.00000000  1
  Os  Os0  1  0.00000000  0.50000000  0.00000000  1
  Os  Os1  1  0.00000000  -0.00000000  0.50000000  1
  Os  Os2  1  0.00000000  0.50000000  0.50000000  1
  Os  Os3  1  0.50000000  -0.00000000  0.50000000  1
  O  O0  1  0.94774327  0.58436830  0.76840577  1
  O  O1  1  0.05223960  0.82063449  0.63653449  1
  O  O2  1  0.68419449  0.91582553  0.36367318  1
  O  O3  1  0.31582847  0.67943983  0.23166715  1
  O  O4  1  0.05225673  0.41563170  0.23159423  1
  O  O5  1  0.94776040  0.17936551  0.36346551  1
  O  O6  1  0.31580551  0.08417447  0.63632682  1
  O  O7  1  0.68417153  0.32056017  0.76833285  1
  O  O8  1  0.09986377  0.25013328  0.84971610  1
  O  O9  1  0.90013623  0.74986672  0.15028390  1
  O  O10  1  0.36510414  0.09574619  0.26933929  1
  O  O11  1  0.63489586  0.90425381  0.73066071  1
  O  O12  1  0.67352768  0.40423150  0.26928311  1
  O  O13  1  0.32647232  0.59576850  0.73071689  1
loop_
_geom_bond_atom_site_label_1
_geom_bond_atom_site_label_2
_geom_bond_distance
_geom_bond_site_symmetry_2
Ca0 O13 2.225906 1_554
Ca0 O12 2.225906 1_555
Ca0 O2 2.508239 1_555
Ca0 O6 2.508239 1_554
Ca0 O7 2.508275 1_554
Ca0 O3 2.508275 1_555
Ca0 O8 2.775297 1_554
Ca0 O9 2.775297 1_555
Ca1 O11 2.226033 1_444
Ca1 O10 2.226033 1_555
Ca1 O4 2.507040 1_555
Ca1 O0 2.507040 1_444
Ca1 O1 2.507403 1_544
Ca1 O5 2.507403 1_455
Ca1 O9 2.778191 1_445
Ca1 O8 2.778191 1_554
Ca2 O12 2.393820 1_555
Ca2 O13 2.393820 1_555
Ca2 O10 2.393963 1_555
Ca2 O11 2.393963 1_555
Ca2 O4 2.725164 1_555
Ca2 O0 2.725164 1_555
Ca2 O3 2.725885 1_555
Ca2 O7 2.725885 1_555
Ca3 O12 2.393759 1_555
Ca3 O13 2.393759 1_544
Ca3 O10 2.393806 1_555
Ca3 O11 2.393806 1_544
Ca3 O5 2.725293 1_555
Ca3 O1 2.725293 1_544
Ca3 O2 2.726273 1_545
Ca3 O6 2.726273 1_554
O0 Os0 1.946225 1_656
O0 Os2 1.953383 1_655
O1 Os1 1.945980 1_565
O1 Os2 1.953429 1_555
O2 Os1 1.945365 1_665
O2 Os3 1.952885 1_565
O3 Os0 1.945378 1_555
O3 Os3 1.952973 1_565
O4 Os0 1.946225 1_555
O4 Os2 1.953383 1_555
O5 Os1 1.945980 1_655
O5 Os2 1.953429 1_655
O6 Os1 1.945365 1_555
O6 Os3 1.952885 1_555
O7 Os0 1.945378 1_656
O7 Os3 1.952973 1_555
O8 Os1 1.949021 1_555
O8 Os0 1.949262 1_556
O9 Os1 1.949021 1_665
O9 Os0 1.949262 1_655
O10 Os3 1.971644 1_555
O11 Os3 1.971644 1_565
O12 Os2 1.971827 1_655
O13 Os2 1.971827 1_555
