# generated using pymatgen
data_In(Mo3Se4)2
_symmetry_space_group_name_H-M   'P 1'
_cell_length_a   6.90812890
_cell_length_b   6.90812890
_cell_length_c   6.90812893
_cell_angle_alpha   89.05162693
_cell_angle_beta   89.05162693
_cell_angle_gamma   89.05162894
_symmetry_Int_Tables_number   1
_chemical_formula_structural   In(Mo3Se4)2
_chemical_formula_sum   'In1 Mo6 Se8'
_cell_volume   329.53741705
_cell_formula_units_Z   1
loop_
 _symmetry_equiv_pos_site_id
 _symmetry_equiv_pos_as_xyz
  1  'x, y, z'
loop_
 _atom_site_type_symbol
 _atom_site_label
 _atom_site_symmetry_multiplicity
 _atom_site_fract_x
 _atom_site_fract_y
 _atom_site_fract_z
 _atom_site_occupancy
  In  In0  1  0.00000000  0.00000000  0.00000000  1
  Mo  Mo0  1  0.56094700  0.24017600  0.42108400  1
  Mo  Mo1  1  0.24017600  0.42108400  0.56094700  1
  Mo  Mo2  1  0.42108400  0.56094700  0.24017600  1
  Mo  Mo3  1  0.43905300  0.75982400  0.57891600  1
  Mo  Mo4  1  0.75982400  0.57891600  0.43905300  1
  Mo  Mo5  1  0.57891600  0.43905300  0.75982400  1
  Se  Se0  1  0.38518200  0.12095500  0.74294900  1
  Se  Se1  1  0.12095500  0.74294900  0.38518200  1
  Se  Se2  1  0.74294900  0.38518200  0.12095500  1
  Se  Se3  1  0.61481800  0.87904500  0.25705100  1
  Se  Se4  1  0.87904500  0.25705100  0.61481800  1
  Se  Se5  1  0.25705100  0.61481800  0.87904500  1
  Se  Se6  1  0.24368900  0.24368900  0.24368900  1
  Se  Se7  1  0.75631100  0.75631100  0.75631100  1
loop_
_geom_bond_atom_site_label_1
_geom_bond_atom_site_label_2
_geom_bond_distance
_geom_bond_site_symmetry_2
In0 Se6 2.963663 1_555
In0 Se7 2.963663 1_444
In0 Se0 3.286309 1_554
In0 Se3 3.286309 1_445
In0 Se4 3.286309 1_454
In0 Se1 3.286309 1_545
In0 Se2 3.286309 1_455
In0 Se5 3.286309 1_544
Mo0 Se6 2.528219 1_555
Mo0 Se4 2.597033 1_555
Mo0 Se2 2.601841 1_555
Mo0 Se0 2.641894 1_555
Mo0 Se3 2.774015 1_545
Mo1 Se6 2.528219 1_555
Mo1 Se5 2.597033 1_555
Mo1 Se0 2.601841 1_555
Mo1 Se1 2.641894 1_555
Mo1 Se4 2.774015 1_455
Mo2 Se6 2.528219 1_555
Mo2 Se3 2.597033 1_555
Mo2 Se1 2.601841 1_555
Mo2 Se2 2.641894 1_555
Mo2 Se5 2.774015 1_554
Mo3 Se7 2.528219 1_555
Mo3 Se1 2.597033 1_555
Mo3 Se5 2.601841 1_555
Mo3 Se3 2.641894 1_555
Mo3 Se0 2.774015 1_565
Mo4 Se7 2.528219 1_555
Mo4 Se2 2.597033 1_555
Mo4 Se3 2.601841 1_555
Mo4 Se4 2.641894 1_555
Mo4 Se1 2.774015 1_655
Mo5 Se7 2.528219 1_555
Mo5 Se0 2.597033 1_555
Mo5 Se4 2.601841 1_555
Mo5 Se5 2.641894 1_555
Mo5 Se2 2.774015 1_556
