# generated using pymatgen
data_Na12Ca2Ta4(SiO4)9
_symmetry_space_group_name_H-M   'P 1'
_cell_length_a   9.24816595
_cell_length_b   9.24816562
_cell_length_c   22.66108547
_cell_angle_alpha   90.00000000
_cell_angle_beta   90.00000000
_cell_angle_gamma   120.00000121
_symmetry_Int_Tables_number   1
_chemical_formula_structural   Na12Ca2Ta4(SiO4)9
_chemical_formula_sum   'Na24 Ca4 Ta8 Si18 O72'
_cell_volume   1678.50464789
_cell_formula_units_Z   2
loop_
 _symmetry_equiv_pos_site_id
 _symmetry_equiv_pos_as_xyz
  1  'x, y, z'
loop_
 _atom_site_type_symbol
 _atom_site_label
 _atom_site_symmetry_multiplicity
 _atom_site_fract_x
 _atom_site_fract_y
 _atom_site_fract_z
 _atom_site_occupancy
  Na  Na0  1  0.64467883  0.02262938  0.24672452  1
  Na  Na1  1  0.37795055  0.35532117  0.24672452  1
  Na  Na2  1  0.97737062  0.62204945  0.24672452  1
  Na  Na3  1  0.64467883  0.62204945  0.74672452  1
  Na  Na4  1  0.97737062  0.35532117  0.74672452  1
  Na  Na5  1  0.37795055  0.02262938  0.74672452  1
  Na  Na6  1  0.31091907  0.33548302  0.58665136  1
  Na  Na7  1  0.02456495  0.68908093  0.58665136  1
  Na  Na8  1  0.66451698  0.97543505  0.58665136  1
  Na  Na9  1  0.31091907  0.97543505  0.08665136  1
  Na  Na10  1  0.66451698  0.68908093  0.08665136  1
  Na  Na11  1  0.02456495  0.33548302  0.08665136  1
  Na  Na12  1  0.96515961  0.68386820  0.90889769  1
  Na  Na13  1  0.71870759  0.03484039  0.90889769  1
  Na  Na14  1  0.31613180  0.28129241  0.90889769  1
  Na  Na15  1  0.96515961  0.28129241  0.40889769  1
  Na  Na16  1  0.31613180  0.03484039  0.40889769  1
  Na  Na17  1  0.71870759  0.68386820  0.40889769  1
  Na  Na18  1  -0.00000000  0.00000000  0.49519501  1
  Na  Na19  1  -0.00000000  0.00000000  0.99519501  1
  Na  Na20  1  0.66666700  0.33333300  0.82141634  1
  Na  Na21  1  0.66666700  0.33333300  0.32141634  1
  Na  Na22  1  0.33333300  0.66666700  0.16902646  1
  Na  Na23  1  0.33333300  0.66666700  0.66902646  1
  Ca  Ca0  1  -0.00000000  0.00000000  0.35378081  1
  Ca  Ca1  1  -0.00000000  0.00000000  0.85378081  1
  Ca  Ca2  1  0.66666700  0.33333300  0.67887771  1
  Ca  Ca3  1  0.66666700  0.33333300  0.17887771  1
  Ta  Ta0  1  -0.00000000  0.00000000  0.64991504  1
  Ta  Ta1  1  -0.00000000  0.00000000  0.14991504  1
  Ta  Ta2  1  0.66666700  0.33333300  0.98049291  1
  Ta  Ta3  1  0.66666700  0.33333300  0.48049291  1
  Ta  Ta4  1  0.33333300  0.66666700  0.01822395  1
  Ta  Ta5  1  0.33333300  0.66666700  0.51822395  1
  Ta  Ta6  1  0.33333300  0.66666700  0.31202927  1
  Ta  Ta7  1  0.33333300  0.66666700  0.81202927  1
  Si  Si0  1  0.29396015  0.99503163  0.25298020  1
  Si  Si1  1  0.70107148  0.70603985  0.25298020  1
  Si  Si2  1  0.00496837  0.29892852  0.25298020  1
  Si  Si3  1  0.29396015  0.29892852  0.75298020  1
  Si  Si4  1  0.00496837  0.70603985  0.75298020  1
  Si  Si5  1  0.70107148  0.99503163  0.75298020  1
  Si  Si6  1  0.96676978  0.33291013  0.58251060  1
  Si  Si7  1  0.36614135  0.03323022  0.58251060  1
  Si  Si8  1  0.66708987  0.63385865  0.58251060  1
  Si  Si9  1  0.96676978  0.63385865  0.08251060  1
  Si  Si10  1  0.66708987  0.03323022  0.08251060  1
  Si  Si11  1  0.36614135  0.33291013  0.08251060  1
  Si  Si12  1  0.61567658  0.65594899  0.91766501  1
  Si  Si13  1  0.04027141  0.38432342  0.91766501  1
  Si  Si14  1  0.34405101  0.95972859  0.91766501  1
  Si  Si15  1  0.61567658  0.95972859  0.41766501  1
  Si  Si16  1  0.34405101  0.38432342  0.41766501  1
  Si  Si17  1  0.04027141  0.65594899  0.41766501  1
  O  O0  1  0.22172310  0.02664962  0.31206913  1
  O  O1  1  0.80492652  0.77827690  0.31206913  1
  O  O2  1  0.97335038  0.19507348  0.31206913  1
  O  O3  1  0.22172310  0.19507348  0.81206913  1
  O  O4  1  0.97335038  0.77827690  0.81206913  1
  O  O5  1  0.80492652  0.02664962  0.81206913  1
  O  O6  1  0.80589630  0.97148084  0.69383214  1
  O  O7  1  0.16558454  0.19410370  0.69383214  1
  O  O8  1  0.02851916  0.83441546  0.69383214  1
  O  O9  1  0.80589630  0.83441546  0.19383214  1
  O  O10  1  0.02851916  0.19410370  0.19383214  1
  O  O11  1  0.16558454  0.97148084  0.19383214  1
  O  O12  1  0.91283515  0.38956761  0.64054235  1
  O  O13  1  0.47673345  0.08716485  0.64054235  1
  O  O14  1  0.61043239  0.52326655  0.64054235  1
  O  O15  1  0.91283515  0.52326655  0.14054235  1
  O  O16  1  0.61043239  0.08716485  0.14054235  1
  O  O17  1  0.47673345  0.38956761  0.14054235  1
  O  O18  1  0.47073057  0.30309877  0.02714332  1
  O  O19  1  0.83236920  0.52926943  0.02714332  1
  O  O20  1  0.69690123  0.16763080  0.02714332  1
  O  O21  1  0.47073057  0.16763080  0.52714332  1
  O  O22  1  0.69690123  0.52926943  0.52714332  1
  O  O23  1  0.83236920  0.30309877  0.52714332  1
  O  O24  1  0.51081751  0.66744173  0.97383471  1
  O  O25  1  0.15662322  0.48918249  0.97383471  1
  O  O26  1  0.33255827  0.84337678  0.97383471  1
  O  O27  1  0.51081751  0.84337678  0.47383471  1
  O  O28  1  0.33255827  0.48918249  0.47383471  1
  O  O29  1  0.15662322  0.66744173  0.47383471  1
  O  O30  1  0.13621482  0.63250187  0.35914740  1
  O  O31  1  0.49628606  0.86378518  0.35914740  1
  O  O32  1  0.36749813  0.50371394  0.35914740  1
  O  O33  1  0.13621482  0.50371394  0.85914740  1
  O  O34  1  0.36749813  0.86378518  0.85914740  1
  O  O35  1  0.49628606  0.63250187  0.85914740  1
  O  O36  1  0.02100490  0.81802259  0.42161881  1
  O  O37  1  0.79701769  0.97899510  0.42161881  1
  O  O38  1  0.18197741  0.20298231  0.42161881  1
  O  O39  1  0.02100490  0.20298231  0.92161881  1
  O  O40  1  0.18197741  0.97899510  0.92161881  1
  O  O41  1  0.79701769  0.81802259  0.92161881  1
  O  O42  1  0.97602553  0.15864184  0.58858768  1
  O  O43  1  0.18261631  0.02397447  0.58858768  1
  O  O44  1  0.84135816  0.81738369  0.58858768  1
  O  O45  1  0.97602553  0.81738369  0.08858768  1
  O  O46  1  0.84135816  0.02397447  0.08858768  1
  O  O47  1  0.18261631  0.15864184  0.08858768  1
  O  O48  1  0.66928931  0.14876085  0.74482437  1
  O  O49  1  0.47947254  0.33071069  0.74482437  1
  O  O50  1  0.85123915  0.52052746  0.74482437  1
  O  O51  1  0.66928931  0.52052746  0.24482437  1
  O  O52  1  0.85123915  0.33071069  0.24482437  1
  O  O53  1  0.47947254  0.14876085  0.24482437  1
  O  O54  1  0.62567553  0.48168902  0.92442598  1
  O  O55  1  0.85601449  0.37432447  0.92442598  1
  O  O56  1  0.51831098  0.14398551  0.92442598  1
  O  O57  1  0.62567553  0.14398551  0.42442598  1
  O  O58  1  0.51831098  0.37432447  0.42442598  1
  O  O59  1  0.85601449  0.48168902  0.42442598  1
  O  O60  1  0.33053836  0.48916253  0.07003475  1
  O  O61  1  0.15862317  0.66946164  0.07003475  1
  O  O62  1  0.51083747  0.84137683  0.07003475  1
  O  O63  1  0.33053836  0.84137683  0.57003475  1
  O  O64  1  0.51083747  0.66946164  0.57003475  1
  O  O65  1  0.15862317  0.48916253  0.57003475  1
  O  O66  1  0.29281159  0.81261824  0.25552413  1
  O  O67  1  0.51980565  0.70718841  0.25552413  1
  O  O68  1  0.18738176  0.48019435  0.25552413  1
  O  O69  1  0.29281159  0.48019435  0.75552413  1
  O  O70  1  0.18738176  0.70718841  0.75552413  1
  O  O71  1  0.51980565  0.81261824  0.75552413  1
loop_
_geom_bond_atom_site_label_1
_geom_bond_atom_site_label_2
_geom_bond_distance
_geom_bond_site_symmetry_2
Na0 O53 2.340748 1_555
Na0 O52 2.515188 1_555
Na0 O16 2.536802 1_555
Na0 O67 2.552412 1_545
Na0 O66 2.842726 1_545
Na1 O51 2.340756 1_555
Na1 O53 2.515195 1_555
Na1 O17 2.536804 1_555
Na1 O68 2.552420 1_555
Na1 O67 2.842727 1_555
Na2 O52 2.340756 1_555
Na2 O51 2.515186 1_555
Na2 O15 2.536804 1_555
Na2 O66 2.552413 1_655
Na2 O68 2.842719 1_655
Na3 O49 2.340756 1_555
Na3 O50 2.515195 1_555
Na3 O14 2.536804 1_555
Na3 O71 2.552420 1_555
Na3 O69 2.842727 1_555
Na4 O50 2.340748 1_555
Na4 O48 2.515188 1_555
Na4 O12 2.536802 1_555
Na4 O69 2.552412 1_655
Na4 O70 2.842726 1_655
Na5 O48 2.340757 1_555
Na5 O49 2.515186 1_555
Na5 O13 2.536804 1_555
Na5 O70 2.552413 1_545
Na5 O71 2.842719 1_545
Na6 O65 2.479371 1_555
Na6 O43 2.508185 1_555
Na6 O42 2.683977 1_455
Na6 O14 2.714689 1_555
Na6 O64 2.718370 1_555
Na6 O7 2.767300 1_555
Na6 O28 2.883056 1_555
Na6 O21 2.950740 1_555
Na7 O63 2.479355 1_555
Na7 O44 2.508194 1_455
Na7 O43 2.683977 1_565
Na7 O12 2.714689 1_455
Na7 O65 2.718355 1_555
Na7 O8 2.767302 1_555
Na7 O29 2.883047 1_555
Na7 O22 2.950740 1_455
Na8 O64 2.479355 1_555
Na8 O42 2.508186 1_565
Na8 O44 2.683969 1_555
Na8 O13 2.714690 1_565
Na8 O63 2.718372 1_555
Na8 O6 2.767297 1_555
Na8 O27 2.883052 1_555
Na8 O23 2.950740 1_565
Na9 O61 2.479355 1_555
Na9 O47 2.508194 1_565
Na9 O45 2.683977 1_455
Na9 O16 2.714690 1_565
Na9 O62 2.718355 1_555
Na9 O11 2.767302 1_555
Na9 O26 2.883047 1_554
Na9 O18 2.950740 1_565
Na10 O62 2.479371 1_555
Na10 O45 2.508185 1_555
Na10 O46 2.683977 1_565
Na10 O17 2.714689 1_555
Na10 O60 2.718370 1_555
Na10 O9 2.767300 1_555
Na10 O24 2.883056 1_554
Na10 O19 2.950740 1_555
Na11 O60 2.479355 1_555
Na11 O46 2.508186 1_455
Na11 O47 2.683969 1_555
Na11 O15 2.714690 1_455
Na11 O61 2.718372 1_555
Na11 O10 2.767297 1_555
Na11 O25 2.883052 1_554
Na11 O20 2.950740 1_455
Na12 O4 2.348746 1_555
Na12 O41 2.443297 1_555
Na12 O40 2.465858 1_655
Na12 O55 2.539334 1_555
Na12 O54 2.758017 1_555
Na12 O19 2.996103 1_556
Na12 O33 3.030698 1_655
Na13 O5 2.348749 1_555
Na13 O39 2.443304 1_655
Na13 O41 2.465865 1_545
Na13 O56 2.539317 1_555
Na13 O55 2.758014 1_555
Na13 O20 2.996098 1_556
Na13 O34 3.030698 1_545
Na14 O3 2.348747 1_555
Na14 O40 2.443305 1_545
Na14 O39 2.465856 1_555
Na14 O54 2.539331 1_555
Na14 O56 2.758031 1_555
Na14 O18 2.996106 1_556
Na14 O35 3.030698 1_555
Na15 O2 2.348749 1_555
Na15 O37 2.443304 1_545
Na15 O38 2.465865 1_655
Na15 O59 2.539317 1_555
Na15 O57 2.758015 1_555
Na15 O23 2.996098 1_555
Na15 O30 3.030698 1_655
Na16 O0 2.348746 1_555
Na16 O38 2.443297 1_555
Na16 O36 2.465858 1_545
Na16 O57 2.539334 1_555
Na16 O58 2.758016 1_555
Na16 O21 2.996103 1_555
Na16 O31 3.030698 1_545
Na17 O1 2.348747 1_555
Na17 O36 2.443305 1_655
Na17 O37 2.465856 1_555
Na17 O58 2.539331 1_555
Na17 O59 2.758031 1_555
Na17 O22 2.996106 1_555
Na17 O32 3.030698 1_555
Na18 O38 2.444780 1_555
Na18 O36 2.444780 1_545
Na18 O37 2.444780 1_445
Na18 O44 2.646891 1_445
Na18 O42 2.646891 1_455
Na18 O43 2.646891 1_555
Na19 O39 2.444780 1_555
Na19 O41 2.444780 1_445
Na19 O40 2.444780 1_545
Na19 O45 2.646891 1_446
Na19 O47 2.646891 1_556
Na19 O46 2.646891 1_456
Na20 O50 2.442986 1_555
Na20 O48 2.442986 1_555
Na20 O49 2.442986 1_555
Na20 O56 2.827594 1_555
Na20 O54 2.827594 1_555
Na20 O55 2.827594 1_555
Na21 O51 2.442986 1_555
Na21 O53 2.442986 1_555
Na21 O52 2.442986 1_555
Na21 O57 2.827594 1_555
Na21 O59 2.827594 1_555
Na21 O58 2.827594 1_555
Na22 O68 2.512029 1_555
Na22 O66 2.512029 1_555
Na22 O67 2.512029 1_555
Na22 O60 2.772233 1_555
Na22 O62 2.772233 1_555
Na22 O61 2.772233 1_555
Na23 O69 2.512029 1_555
Na23 O71 2.512029 1_555
Na23 O70 2.512029 1_555
Na23 O65 2.772233 1_555
Na23 O63 2.772233 1_555
Na23 O64 2.772233 1_555
Ca0 O1 2.157200 1_445
Ca0 O2 2.157200 1_455
Ca0 O0 2.157200 1_555
Ca0 O38 2.358017 1_555
Ca0 O36 2.358017 1_545
Ca0 O37 2.358017 1_445
Ca1 O4 2.157200 1_445
Ca1 O3 2.157200 1_555
Ca1 O5 2.157200 1_455
Ca1 O39 2.358017 1_555
Ca1 O41 2.358017 1_445
Ca1 O40 2.358017 1_545
Ca2 O13 2.241447 1_555
Ca2 O12 2.241447 1_555
Ca2 O14 2.241447 1_555
Ca2 O50 2.277932 1_555
Ca2 O48 2.277932 1_555
Ca2 O49 2.277932 1_555
Ca3 O16 2.241447 1_555
Ca3 O15 2.241447 1_555
Ca3 O17 2.241447 1_555
Ca3 O51 2.277932 1_555
Ca3 O53 2.277932 1_555
Ca3 O52 2.277932 1_555
O0 Si0 1.587491 1_545
O1 Si1 1.587491 1_555
O2 Si2 1.587491 1_655
O3 Si3 1.587491 1_555
O4 Si4 1.587491 1_655
O5 Si5 1.587491 1_545
O6 Si5 1.730594 1_555
O6 Ta0 1.951651 1_665
O7 Si3 1.730594 1_555
O7 Ta0 1.951651 1_555
O8 Si4 1.730594 1_555
O8 Ta0 1.951651 1_565
O9 Si1 1.730594 1_555
O9 Ta1 1.951651 1_665
O10 Si2 1.730594 1_555
O10 Ta1 1.951651 1_555
O11 Si0 1.730594 1_555
O11 Ta1 1.951651 1_565
O12 Si6 1.585591 1_555
O13 Si7 1.585591 1_555
O14 Si8 1.585591 1_555
O15 Si9 1.585591 1_555
O16 Si10 1.585591 1_555
O17 Si11 1.585591 1_555
O18 Si11 1.688935 1_555
O18 Ta2 1.993141 1_554
O19 Si9 1.688935 1_555
O19 Ta2 1.993141 1_554
O20 Si10 1.688935 1_555
O20 Ta2 1.993141 1_554
O21 Si7 1.688935 1_555
O21 Ta3 1.993141 1_555
O22 Si8 1.688935 1_555
O22 Ta3 1.993141 1_555
O23 Si6 1.688935 1_555
O23 Ta3 1.993141 1_555
O24 Si12 1.635537 1_555
O24 Ta4 1.922071 1_556
O25 Si13 1.635537 1_555
O25 Ta4 1.922071 1_556
O26 Si14 1.635537 1_555
O26 Ta4 1.922071 1_556
O27 Si15 1.635537 1_555
O27 Ta5 1.922071 1_555
O28 Si16 1.635537 1_555
O28 Ta5 1.922071 1_555
O29 Si17 1.635537 1_555
O29 Ta5 1.922071 1_555
O30 Si17 1.668891 1_555
O30 Ta6 1.996793 1_555
O31 Si15 1.668891 1_555
O31 Ta6 1.996793 1_555
O32 Si16 1.668891 1_555
O32 Ta6 1.996793 1_555
O33 Si13 1.668891 1_555
O33 Ta7 1.996793 1_555
O34 Si14 1.668891 1_555
O34 Ta7 1.996793 1_555
O35 Si12 1.668891 1_555
O35 Ta7 1.996793 1_555
O36 Si17 1.597967 1_555
O37 Si15 1.597976 1_555
O38 Si16 1.597972 1_555
O39 Si13 1.597976 1_555
O40 Si14 1.597967 1_555
O41 Si12 1.597972 1_555
O42 Si6 1.661837 1_555
O42 Ta0 2.111483 1_655
O43 Si7 1.661846 1_555
O43 Ta0 2.111484 1_555
O44 Si8 1.661842 1_555
O44 Ta0 2.111483 1_665
O45 Si9 1.661846 1_555
O45 Ta1 2.111483 1_665
O46 Si10 1.661837 1_555
O46 Ta1 2.111484 1_655
O47 Si11 1.661842 1_555
O47 Ta1 2.111483 1_555
O48 Si5 1.599906 1_545
O49 Si3 1.599915 1_555
O50 Si4 1.599912 1_655
O51 Si1 1.599915 1_555
O52 Si2 1.599906 1_655
O53 Si0 1.599912 1_545
O54 Si12 1.666811 1_555
O54 Ta2 2.039742 1_555
O55 Si13 1.666792 1_655
O55 Ta2 2.039742 1_555
O56 Si14 1.666801 1_545
O56 Ta2 2.039742 1_555
O57 Si15 1.666792 1_545
O57 Ta3 2.039742 1_555
O58 Si16 1.666811 1_555
O58 Ta3 2.039742 1_555
O59 Si17 1.666801 1_655
O59 Ta3 2.039742 1_555
O60 Si11 1.659008 1_555
O60 Ta4 2.007871 1_555
O61 Si9 1.658990 1_455
O61 Ta4 2.007871 1_555
O62 Si10 1.658996 1_565
O62 Ta4 2.007871 1_555
O63 Si7 1.658990 1_565
O63 Ta5 2.007871 1_555
O64 Si8 1.659008 1_555
O64 Ta5 2.007871 1_555
O65 Si6 1.658996 1_455
O65 Ta5 2.007871 1_555
O66 Si0 1.682691 1_555
O66 Ta6 2.026764 1_555
O67 Si1 1.682700 1_555
O67 Ta6 2.026764 1_555
O68 Si2 1.682696 1_555
O68 Ta6 2.026764 1_555
O69 Si3 1.682700 1_555
O69 Ta7 2.026764 1_555
O70 Si4 1.682691 1_555
O70 Ta7 2.026764 1_555
O71 Si5 1.682696 1_555
O71 Ta7 2.026764 1_555
