# generated using pymatgen
data_MgNb2(PO5)2
_symmetry_space_group_name_H-M   'P 1'
_cell_length_a   4.28544845
_cell_length_b   6.59708500
_cell_length_c   6.85823734
_cell_angle_alpha   90.00000000
_cell_angle_beta   93.52140953
_cell_angle_gamma   90.00000000
_symmetry_Int_Tables_number   1
_chemical_formula_structural   MgNb2(PO5)2
_chemical_formula_sum   'Mg1 Nb2 P2 O10'
_cell_volume   193.52635012
_cell_formula_units_Z   1
loop_
 _symmetry_equiv_pos_site_id
 _symmetry_equiv_pos_as_xyz
  1  'x, y, z'
loop_
 _atom_site_type_symbol
 _atom_site_label
 _atom_site_symmetry_multiplicity
 _atom_site_fract_x
 _atom_site_fract_y
 _atom_site_fract_z
 _atom_site_occupancy
  Mg  Mg0  1  0.15319100  0.25000000  0.98042700  1
  Nb  Nb0  1  0.23237500  0.75000000  0.73152100  1
  Nb  Nb1  1  0.70969600  0.25000000  0.27809500  1
  P  P0  1  0.48002600  0.75000000  0.24605700  1
  P  P1  1  0.53136400  0.25000000  0.73671500  1
  O  O0  1  0.68994100  0.55618900  0.25283700  1
  O  O1  1  0.68994100  0.94381100  0.25283700  1
  O  O2  1  0.20175800  0.25000000  0.26055100  1
  O  O3  1  0.81435200  0.75000000  0.72952800  1
  O  O4  1  0.70946600  0.25000000  0.94462200  1
  O  O5  1  0.75509400  0.25000000  0.57723000  1
  O  O6  1  0.28632200  0.75000000  0.42799300  1
  O  O7  1  0.30674000  0.06767300  0.75166600  1
  O  O8  1  0.30674000  0.43232700  0.75166600  1
  O  O9  1  0.28924500  0.75000000  0.04700200  1
loop_
_geom_bond_atom_site_label_1
_geom_bond_atom_site_label_2
_geom_bond_distance
_geom_bond_site_symmetry_2
Mg0 O4 1.902333 1_455
Mg0 O2 1.919647 1_556
Mg0 O8 2.113776 1_555
Mg0 O7 2.113776 1_555
Mg0 O4 2.411458 1_555
Nb0 O3 1.790628 1_455
Nb0 O6 2.108531 1_555
Nb0 O7 2.123032 1_565
Nb0 O8 2.123032 1_555
Nb0 O9 2.162400 1_556
Nb0 O3 2.494909 1_555
Nb1 O0 2.028692 1_555
Nb1 O1 2.028692 1_545
Nb1 O5 2.048812 1_555
Nb1 O2 2.119502 1_655
Nb1 O2 2.172673 1_555
Nb1 O4 2.286977 1_554
O0 P0 1.562387 1_555
O1 P0 1.562387 1_555
O4 P1 1.575429 1_555
O5 P1 1.498152 1_555
O6 P0 1.540527 1_555
O7 P1 1.547921 1_555
O8 P1 1.547921 1_555
O9 P0 1.547582 1_555
