# generated using pymatgen
data_LiFe(PO3)4
_symmetry_space_group_name_H-M   'P 1'
_cell_length_a   13.71821500
_cell_length_b   5.24260400
_cell_length_c   7.35350992
_cell_angle_alpha   81.84171430
_cell_angle_beta   90.00000000
_cell_angle_gamma   90.00000000
_symmetry_Int_Tables_number   1
_chemical_formula_structural   LiFe(PO3)4
_chemical_formula_sum   'Li2 Fe2 P8 O24'
_cell_volume   523.50617457
_cell_formula_units_Z   2
loop_
 _symmetry_equiv_pos_site_id
 _symmetry_equiv_pos_as_xyz
  1  'x, y, z'
loop_
 _atom_site_type_symbol
 _atom_site_label
 _atom_site_symmetry_multiplicity
 _atom_site_fract_x
 _atom_site_fract_y
 _atom_site_fract_z
 _atom_site_occupancy
  Li  Li0  1  0.50783900  0.36218100  0.11379200  1
  Li  Li1  1  0.00783900  0.63781900  0.88620800  1
  Fe  Fe0  1  0.23499500  0.50671600  0.49600900  1
  Fe  Fe1  1  0.73499500  0.49328400  0.50399100  1
  P  P0  1  0.17582200  0.85648100  0.10390100  1
  P  P1  1  0.59706600  0.97794200  0.55633200  1
  P  P2  1  0.87471300  0.00678300  0.44612400  1
  P  P3  1  0.09706600  0.02205800  0.44366800  1
  P  P4  1  0.67582200  0.14351900  0.89609900  1
  P  P5  1  0.37471300  0.99321700  0.55387600  1
  P  P6  1  0.81934200  0.78037300  0.11578500  1
  P  P7  1  0.31934200  0.21962700  0.88421500  1
  O  O0  1  0.21715900  0.62698100  0.22778000  1
  O  O1  1  0.36095800  0.99586900  0.76981000  1
  O  O2  1  0.86095800  0.00413100  0.23019000  1
  O  O3  1  0.26630700  0.04697900  0.05209700  1
  O  O4  1  0.10937800  0.02713900  0.22622500  1
  O  O5  1  0.48691800  0.07424600  0.51688700  1
  O  O6  1  0.61766300  0.18497700  0.05904400  1
  O  O7  1  0.65760900  0.19031100  0.45209600  1
  O  O8  1  0.31810900  0.20953100  0.44346600  1
  O  O9  1  0.86022900  0.27574200  0.48951000  1
  O  O10  1  0.10850100  0.29061800  0.48939800  1
  O  O11  1  0.71715900  0.37301900  0.77222000  1
  O  O12  1  0.24469700  0.37645900  0.76504400  1
  O  O13  1  0.40184900  0.35241600  0.96132900  1
  O  O14  1  0.60937800  0.97286100  0.77377500  1
  O  O15  1  0.74469700  0.62354100  0.23495600  1
  O  O16  1  0.90184900  0.64758400  0.03867100  1
  O  O17  1  0.60850100  0.70938200  0.51060200  1
  O  O18  1  0.36022900  0.72425800  0.51049000  1
  O  O19  1  0.81810900  0.79046900  0.55653400  1
  O  O20  1  0.15760900  0.80968900  0.54790400  1
  O  O21  1  0.11766300  0.81502300  0.94095600  1
  O  O22  1  0.98691800  0.92575400  0.48311300  1
  O  O23  1  0.76630700  0.95302100  0.94790300  1
loop_
_geom_bond_atom_site_label_1
_geom_bond_atom_site_label_2
_geom_bond_distance
_geom_bond_site_symmetry_2
Li0 O13 1.841184 1_554
Li0 O6 1.844207 1_555
Li1 O16 1.841184 1_456
Li1 O21 1.844207 1_555
Fe0 O20 1.991873 1_555
Fe0 O0 1.998724 1_555
Fe0 O12 2.003619 1_555
Fe0 O8 2.011859 1_555
Fe0 O18 2.073161 1_555
Fe0 O10 2.076695 1_555
Fe1 O7 1.991873 1_555
Fe1 O11 1.998724 1_555
Fe1 O15 2.003619 1_555
Fe1 O19 2.011859 1_555
Fe1 O9 2.073161 1_555
Fe1 O17 2.076695 1_555
O0 P0 1.512599 1_555
O1 P5 1.601064 1_555
O1 P7 1.640082 1_565
O2 P2 1.601064 1_555
O2 P6 1.640082 1_545
O3 P7 1.598588 1_554
O3 P0 1.604793 1_545
O4 P3 1.604322 1_555
O4 P0 1.633654 1_545
O5 P1 1.606456 1_545
O5 P5 1.609641 1_545
O6 P4 1.481022 1_554
O7 P1 1.508211 1_545
O8 P5 1.512247 1_545
O9 P2 1.502389 1_555
O10 P3 1.501466 1_555
O11 P4 1.512599 1_555
O12 P7 1.512628 1_555
O13 P7 1.483009 1_555
O14 P1 1.604322 1_555
O14 P4 1.633654 1_565
O15 P6 1.512628 1_555
O16 P6 1.483009 1_555
O17 P1 1.501466 1_555
O18 P5 1.502389 1_555
O19 P2 1.512247 1_565
O20 P3 1.508211 1_565
O21 P0 1.481022 1_556
O22 P3 1.606456 1_665
O22 P2 1.609641 1_565
O23 P6 1.598588 1_556
O23 P4 1.604793 1_565
