# generated using pymatgen
data_Th3Al2
_symmetry_space_group_name_H-M   'P 1'
_cell_length_a   3.77942930
_cell_length_b   8.55634710
_cell_length_c   8.55634710
_cell_angle_alpha   90.00134997
_cell_angle_beta   90.00000000
_cell_angle_gamma   90.00000000
_symmetry_Int_Tables_number   1
_chemical_formula_structural   Th3Al2
_chemical_formula_sum   'Th6 Al4'
_cell_volume   276.69608453
_cell_formula_units_Z   2
loop_
 _symmetry_equiv_pos_site_id
 _symmetry_equiv_pos_as_xyz
  1  'x, y, z'
loop_
 _atom_site_type_symbol
 _atom_site_label
 _atom_site_symmetry_multiplicity
 _atom_site_fract_x
 _atom_site_fract_y
 _atom_site_fract_z
 _atom_site_occupancy
  Th  Th0  1  0.00000000  0.00000000  0.00000000  1
  Th  Th1  1  0.00000000  0.50000000  0.50000000  1
  Th  Th2  1  0.50000000  0.18211733  0.68211733  1
  Th  Th3  1  0.50000000  0.31795254  0.18204746  1
  Th  Th4  1  0.50000000  0.68204746  0.81795254  1
  Th  Th5  1  0.50000000  0.81788267  0.31788267  1
  Al  Al0  1  0.00000000  0.38814218  0.88814218  1
  Al  Al1  1  0.00000000  0.11187819  0.38812181  1
  Al  Al2  1  -0.00000000  0.88812181  0.61187819  1
  Al  Al3  1  0.00000000  0.61185782  0.11185782  1
loop_
_geom_bond_atom_site_label_1
_geom_bond_atom_site_label_2
_geom_bond_distance
_geom_bond_site_symmetry_2
Al0 Al3 2.707040 1_556
Al0 Th2 3.128249 1_555
Al0 Th2 3.128249 1_455
Al0 Th3 3.202463 1_556
Al0 Th3 3.202463 1_456
Al0 Th4 3.202463 1_455
Al0 Th4 3.202463 1_555
Al0 Th0 3.456262 1_556
Al0 Th1 3.456262 1_555
Al1 Al2 2.707596 1_545
Al1 Th3 3.128774 1_555
Al1 Th3 3.128774 1_455
Al1 Th2 3.203127 1_555
Al1 Th2 3.203127 1_455
Al1 Th5 3.203127 1_445
Al1 Th5 3.203127 1_545
Al1 Th1 3.456099 1_555
Al1 Th0 3.456099 1_555
Al2 Th4 3.128774 1_455
Al2 Th4 3.128774 1_555
Al2 Th5 3.203127 1_555
Al2 Th5 3.203127 1_455
Al2 Th2 3.203127 1_565
Al2 Th2 3.203127 1_465
Al2 Th1 3.456099 1_555
Al2 Th0 3.456099 1_566
Al3 Th5 3.128249 1_455
Al3 Th5 3.128249 1_555
Al3 Th4 3.202463 1_554
Al3 Th4 3.202463 1_454
Al3 Th3 3.202463 1_555
Al3 Th3 3.202463 1_455
Al3 Th0 3.456262 1_565
Al3 Th1 3.456262 1_555
