# generated using pymatgen
data_Na8MgMo2(NO)4
_symmetry_space_group_name_H-M   'P 1'
_cell_length_a   6.00370503
_cell_length_b   5.80101516
_cell_length_c   9.60183392
_cell_angle_alpha   84.28862458
_cell_angle_beta   70.03533362
_cell_angle_gamma   70.84129450
_symmetry_Int_Tables_number   1
_chemical_formula_structural   Na8MgMo2(NO)4
_chemical_formula_sum   'Na8 Mg1 Mo2 N4 O4'
_cell_volume   296.87348586
_cell_formula_units_Z   1
loop_
 _symmetry_equiv_pos_site_id
 _symmetry_equiv_pos_as_xyz
  1  'x, y, z'
loop_
 _atom_site_type_symbol
 _atom_site_label
 _atom_site_symmetry_multiplicity
 _atom_site_fract_x
 _atom_site_fract_y
 _atom_site_fract_z
 _atom_site_occupancy
  Na  Na0  1  0.14697512  0.58488060  0.95450880  1
  Na  Na1  1  0.75732834  0.25079661  0.00253932  1
  Na  Na2  1  0.11753080  0.74980551  0.40437571  1
  Na  Na3  1  0.98205768  0.23759061  0.58033718  1
  Na  Na4  1  0.49009552  0.71461254  0.58630145  1
  Na  Na5  1  0.53706670  0.23914380  0.45827134  1
  Na  Na6  1  0.73539078  0.79261452  0.22486590  1
  Na  Na7  1  0.43113057  0.23639403  0.79254106  1
  Mg  Mg0  1  0.41320056  0.82324921  0.03451006  1
  Mo  Mo0  1  0.84604404  0.72840869  0.75123746  1
  Mo  Mo1  1  0.14440484  0.29360179  0.24712136  1
  N  N0  1  0.33685218  0.06183434  0.34156692  1
  N  N1  1  0.16056788  0.50918760  0.66955863  1
  N  N2  1  0.83281536  0.44530515  0.37346284  1
  N  N3  1  0.74932401  0.95317750  0.61889700  1
  O  O0  1  0.56335891  0.58607273  0.84394791  1
  O  O1  1  0.18495452  0.17033920  0.03819844  1
  O  O2  1  0.26920405  0.58200979  0.15822486  1
  O  O3  1  0.76003116  0.84305878  0.96953376  1
loop_
_geom_bond_atom_site_label_1
_geom_bond_atom_site_label_2
_geom_bond_distance
_geom_bond_site_symmetry_2
Na0 O3 2.278402 1_455
Na0 O2 2.308810 1_556
Na0 O0 2.360910 1_555
Na0 O1 2.420992 1_556
Na1 O3 2.411597 1_544
Na1 O0 2.567606 1_554
Na1 O1 2.590035 1_655
Na1 O2 2.898057 1_555
Na2 O2 2.401919 1_555
Na4 O0 2.651451 1_555
Na6 O3 2.399185 1_554
Na6 O2 2.891085 1_655
Na7 O1 2.388758 1_556
Na7 O0 2.551957 1_555
Mg0 O2 1.969473 1_555
Mg0 O3 1.998485 1_554
Mg0 O1 2.025627 1_565
Mg0 O0 2.148067 1_554
Mo0 N3 1.824598 1_555
Mo0 N1 1.846355 1_655
Mo0 O0 2.023947 1_555
Mo0 O3 2.101262 1_555
Mo1 N2 1.824226 1_455
Mo1 N0 1.848831 1_555
Mo1 O2 2.047174 1_555
Mo1 O1 2.105353 1_555
N0 Na6 2.341881 1_545
N0 Na5 2.391501 1_555
N0 Na2 2.485714 1_545
N0 Na3 2.556920 1_455
N1 Na7 2.405822 1_555
N1 Na4 2.500200 1_555
N1 Na3 2.523640 1_455
N1 Na5 2.618398 1_555
N1 Na0 2.783618 1_555
N1 Na2 2.829063 1_555
N2 Na5 2.336388 1_555
N2 Na6 2.379357 1_555
N2 Na3 2.496153 1_555
N2 Na4 2.550461 1_555
N2 Na2 2.926237 1_655
N3 Na7 2.332089 1_565
N3 Na3 2.418645 1_565
N3 Na2 2.486727 1_655
N3 Na5 2.489957 1_565
N3 Na4 2.503579 1_555
