# generated using pymatgen
data_MgMn6(O5F)2
_symmetry_space_group_name_H-M   'P 1'
_cell_length_a   5.13108559
_cell_length_b   7.58601163
_cell_length_c   5.74180005
_cell_angle_alpha   98.63878988
_cell_angle_beta   80.98480842
_cell_angle_gamma   96.13916515
_symmetry_Int_Tables_number   1
_chemical_formula_structural   MgMn6(O5F)2
_chemical_formula_sum   'Mg1 Mn6 O10 F2'
_cell_volume   217.43377653
_cell_formula_units_Z   1
loop_
 _symmetry_equiv_pos_site_id
 _symmetry_equiv_pos_as_xyz
  1  'x, y, z'
loop_
 _atom_site_type_symbol
 _atom_site_label
 _atom_site_symmetry_multiplicity
 _atom_site_fract_x
 _atom_site_fract_y
 _atom_site_fract_z
 _atom_site_occupancy
  Mg  Mg0  1  0.98803525  0.84209153  0.34982715  1
  Mn  Mn0  1  0.49339594  0.00366908  0.50951607  1
  Mn  Mn1  1  0.53579334  0.65447399  0.15240277  1
  Mn  Mn2  1  0.51364488  0.32354719  0.82772184  1
  Mn  Mn3  1  0.09098482  0.62383786  0.73449024  1
  Mn  Mn4  1  0.93620133  0.33090051  0.30569471  1
  Mn  Mn5  1  0.94703089  0.01863118  0.94410528  1
  O  O0  1  0.83877110  0.40977672  0.63605105  1
  O  O1  1  0.86201869  0.76547669  0.01206642  1
  O  O2  1  0.82774019  0.07505868  0.29757325  1
  O  O3  1  0.63930602  0.08533391  0.78968104  1
  O  O4  1  0.61593068  0.76312851  0.45586001  1
  O  O5  1  0.66309129  0.42917338  0.12643993  1
  O  O6  1  0.39081383  0.55811195  0.87425055  1
  O  O7  1  0.37985942  0.23021542  0.54262628  1
  O  O8  1  0.15840332  0.23897522  0.01212529  1
  O  O9  1  0.15146608  0.90267670  0.65659741  1
  F  F0  1  0.34926027  0.89805639  0.18908727  1
  F  F1  1  0.14602665  0.58793510  0.33387944  1
loop_
_geom_bond_atom_site_label_1
_geom_bond_atom_site_label_2
_geom_bond_distance
_geom_bond_site_symmetry_2
Mg0 O4 1.968641 1_555
Mg0 O9 2.038210 1_655
Mg0 O2 2.106502 1_565
Mg0 O1 2.119195 1_555
Mn0 O7 1.846709 1_555
Mn0 O3 1.873746 1_555
Mn0 O9 1.954699 1_545
Mn0 O4 1.958498 1_545
Mn0 O2 2.015519 1_555
Mn1 O5 1.871288 1_555
Mn1 O6 1.882490 1_554
Mn1 O4 1.898684 1_555
Mn1 O1 1.907859 1_555
Mn2 O7 1.884728 1_555
Mn2 O6 1.918122 1_555
Mn2 O3 1.953336 1_555
Mn2 O0 1.956940 1_555
Mn2 O5 2.009928 1_556
Mn2 O8 2.050436 1_556
Mn3 O6 1.982563 1_555
Mn3 O0 2.033525 1_455
Mn3 O1 2.060012 1_456
Mn3 O9 2.207039 1_555
Mn4 O0 1.905726 1_555
Mn4 O2 1.956679 1_555
Mn4 O8 1.960142 1_655
Mn4 O5 2.117751 1_555
Mn5 O8 1.916175 1_656
Mn5 O9 1.953899 1_645
Mn5 O1 2.005795 1_546
Mn5 O2 2.020562 1_556
Mn5 O3 2.068764 1_555
F0 Mg0 1.969957 1_455
F0 Mn0 2.104932 1_565
F0 Mn1 2.138468 1_555
F1 Mn4 2.120874 1_455
F1 Mn1 2.151572 1_555
F1 Mg0 2.154271 1_455
F1 Mn3 2.251587 1_555
