# generated using pymatgen
data_Yb4MgTi2O10
_symmetry_space_group_name_H-M   'P 1'
_cell_length_a   5.34398800
_cell_length_b   6.44268423
_cell_length_c   7.14693740
_cell_angle_alpha   77.03696126
_cell_angle_beta   90.00000000
_cell_angle_gamma   65.49748454
_symmetry_Int_Tables_number   1
_chemical_formula_structural   Yb4MgTi2O10
_chemical_formula_sum   'Yb4 Mg1 Ti2 O10'
_cell_volume   216.99593418
_cell_formula_units_Z   1
loop_
 _symmetry_equiv_pos_site_id
 _symmetry_equiv_pos_as_xyz
  1  'x, y, z'
loop_
 _atom_site_type_symbol
 _atom_site_label
 _atom_site_symmetry_multiplicity
 _atom_site_fract_x
 _atom_site_fract_y
 _atom_site_fract_z
 _atom_site_occupancy
  Yb  Yb0  1  0.76144200  0.47552300  0.90694400  1
  Yb  Yb1  1  0.69764900  0.71872100  0.30065800  1
  Yb  Yb2  1  0.23696600  0.52447700  0.59305600  1
  Yb  Yb3  1  0.41637100  0.28127900  0.19934200  1
  Mg  Mg0  1  0.56880200  0.00000000  0.75000000  1
  Ti  Ti0  1  0.99073900  0.10453000  0.47938900  1
  Ti  Ti1  1  0.09526900  0.89547000  0.02061100  1
  O  O0  1  0.84884800  0.76865100  0.98717000  1
  O  O1  1  0.32307100  0.83413600  0.45265900  1
  O  O2  1  0.77230600  0.71196600  0.62855600  1
  O  O3  1  0.48427200  0.28803400  0.87144400  1
  O  O4  1  0.41922400  0.63761500  0.10884500  1
  O  O5  1  0.05683900  0.36238500  0.39115500  1
  O  O6  1  0.61749800  0.23134900  0.51283000  1
  O  O7  1  0.14855000  0.00000000  0.75000000  1
  O  O8  1  0.15720500  0.16586400  0.04734100  1
  O  O9  1  0.87994900  0.00000000  0.25000000  1
loop_
_geom_bond_atom_site_label_1
_geom_bond_atom_site_label_2
_geom_bond_distance
_geom_bond_site_symmetry_2
Mg0 O6 2.085842 1_555
Mg0 O0 2.085844 1_545
Mg0 O2 2.104368 1_545
Mg0 O3 2.104368 1_555
Mg0 O7 2.245822 1_555
O0 Ti1 1.854435 1_656
O0 Yb0 2.308892 1_555
O0 Yb1 2.380829 1_556
O1 Ti0 1.951520 1_465
O1 Yb1 2.206309 1_555
O1 Yb2 2.249904 1_555
O2 Yb0 2.235190 1_555
O2 Yb2 2.310625 1_655
O2 Yb1 2.364898 1_555
O3 Yb2 2.235189 1_555
O3 Yb0 2.310621 1_555
O3 Yb3 2.364898 1_556
O4 Ti1 1.816323 1_555
O4 Yb3 2.247651 1_555
O4 Yb1 2.309215 1_555
O4 Yb0 2.368378 1_554
O5 Ti0 1.816324 1_455
O5 Yb1 2.247653 1_455
O5 Yb3 2.309219 1_555
O5 Yb2 2.368381 1_555
O6 Ti0 1.854439 1_555
O6 Yb2 2.308886 1_555
O6 Yb3 2.380825 1_555
O7 Ti0 1.962097 1_455
O7 Ti1 1.962097 1_546
O8 Ti1 1.951514 1_545
O8 Yb3 2.206321 1_555
O8 Yb0 2.249900 1_454
O9 Ti1 2.077949 1_645
O9 Ti0 2.077949 1_555
O9 Yb3 2.352490 1_555
O9 Yb1 2.352494 1_545
