# generated using pymatgen
data_Na14La4Al4Si7S5O48
_symmetry_space_group_name_H-M   'P 1'
_cell_length_a   18.45981308
_cell_length_b   9.19031089
_cell_length_c   22.74774386
_cell_angle_alpha   89.91786070
_cell_angle_beta   90.10438645
_cell_angle_gamma   119.93756024
_symmetry_Int_Tables_number   1
_chemical_formula_structural   Na14La4Al4Si7S5O48
_chemical_formula_sum   'Na42 La12 Al12 Si21 S15 O144'
_cell_volume   3344.24872778
_cell_formula_units_Z   3
loop_
 _symmetry_equiv_pos_site_id
 _symmetry_equiv_pos_as_xyz
  1  'x, y, z'
loop_
 _atom_site_type_symbol
 _atom_site_label
 _atom_site_symmetry_multiplicity
 _atom_site_fract_x
 _atom_site_fract_y
 _atom_site_fract_z
 _atom_site_occupancy
  Na  Na0  1  0.81225944  0.99189408  0.23960515  1
  Na  Na1  1  0.18522329  0.36595635  0.26429294  1
  Na  Na2  1  0.69122677  0.36673398  0.25741349  1
  Na  Na3  1  0.99354400  0.64037822  0.23926298  1
  Na  Na4  1  0.50967890  0.66022588  0.24989640  1
  Na  Na5  1  0.31424673  0.63937253  0.75203190  1
  Na  Na6  1  0.00840428  0.35547740  0.75435637  1
  Na  Na7  1  0.49698636  0.34971077  0.74708259  1
  Na  Na8  1  0.18541204  0.00806010  0.76355269  1
  Na  Na9  1  0.68746158  0.00634740  0.76687033  1
  Na  Na10  1  0.14043779  0.33528944  0.58296621  1
  Na  Na11  1  0.63671308  0.33457912  0.58424262  1
  Na  Na12  1  0.33577456  0.97043131  0.57736647  1
  Na  Na13  1  0.83755467  0.97541577  0.57822441  1
  Na  Na14  1  0.13251305  0.93721300  0.08626637  1
  Na  Na15  1  0.64862155  0.95372043  0.08609040  1
  Na  Na16  1  0.33686103  0.69949765  0.07847179  1
  Na  Na17  1  0.83691552  0.71906966  0.07686996  1
  Na  Na18  1  0.49101468  0.69424349  0.92433567  1
  Na  Na19  1  0.99129631  0.67901191  0.92589445  1
  Na  Na20  1  0.33798346  0.00845090  0.91347859  1
  Na  Na21  1  0.84383867  0.02712862  0.92208504  1
  Na  Na22  1  0.16722797  0.30051102  0.90546616  1
  Na  Na23  1  0.67800394  0.32233612  0.90857868  1
  Na  Na24  1  0.49364468  0.30226892  0.41801371  1
  Na  Na25  1  0.98868339  0.28556243  0.42002656  1
  Na  Na26  1  0.17196380  0.02952108  0.40078693  1
  Na  Na27  1  0.66895163  0.03505244  0.40196442  1
  Na  Na28  1  0.34520720  0.66848140  0.40771196  1
  Na  Na29  1  0.83836104  0.66858481  0.40860295  1
  Na  Na30  1  0.99594910  0.01194465  0.49086346  1
  Na  Na31  1  0.49815809  0.01690840  0.49019628  1
  Na  Na32  1  0.98582364  0.97998480  0.99816423  1
  Na  Na33  1  0.49990666  0.98344281  0.99287074  1
  Na  Na34  1  0.32573537  0.32626715  0.83428162  1
  Na  Na35  1  0.82286954  0.32954725  0.84229385  1
  Na  Na36  1  0.32479587  0.31982291  0.33813632  1
  Na  Na37  1  0.82566312  0.32617803  0.32761390  1
  Na  Na38  1  0.16333363  0.68339368  0.17280751  1
  Na  Na39  1  0.66620878  0.68785891  0.16610543  1
  Na  Na40  1  0.15594501  0.64246532  0.67430548  1
  Na  Na41  1  0.66615268  0.64717335  0.67501654  1
  La  La0  1  0.00086311  0.01539405  0.65286519  1
  La  La1  1  0.49291760  0.00458815  0.64970087  1
  La  La2  1  0.98881665  0.98858144  0.14619366  1
  La  La3  1  0.50196348  0.98617479  0.15183339  1
  La  La4  1  0.83624459  0.33881393  0.69352184  1
  La  La5  1  0.33615045  0.33093170  0.19316097  1
  La  La6  1  0.15674808  0.66477376  0.00833156  1
  La  La7  1  0.67260781  0.68994633  0.01313529  1
  La  La8  1  0.16802415  0.66123849  0.50897327  1
  La  La9  1  0.65861625  0.65003073  0.50719560  1
  La  La10  1  0.18026423  0.68828408  0.32211820  1
  La  La11  1  0.68169130  0.67218902  0.82517772  1
  Al  Al0  1  0.99401777  0.98704075  0.34847552  1
  Al  Al1  1  0.50459770  0.00688905  0.34698952  1
  Al  Al2  1  0.00479246  0.00002538  0.84728095  1
  Al  Al3  1  0.49540916  0.01031824  0.85096347  1
  Al  Al4  1  0.33302563  0.31806739  0.69209153  1
  Al  Al5  1  0.83378305  0.33527646  0.18400774  1
  Al  Al6  1  0.33194856  0.34948044  0.97473853  1
  Al  Al7  1  0.83215861  0.33672104  0.98637032  1
  Al  Al8  1  0.33291051  0.31924281  0.48289825  1
  Al  Al9  1  0.83238955  0.31550048  0.47420896  1
  Al  Al10  1  0.68998221  0.68808249  0.32017237  1
  Al  Al11  1  0.18796820  0.68933563  0.82049289  1
  Si  Si0  1  0.13897610  0.99791776  0.25355838  1
  Si  Si1  1  0.65348624  0.99027386  0.25566938  1
  Si  Si2  1  0.35629942  0.71025540  0.25443796  1
  Si  Si3  1  0.84745102  0.69343507  0.25461777  1
  Si  Si4  1  0.15619453  0.31686084  0.75189948  1
  Si  Si5  1  0.64099856  0.28520804  0.75433808  1
  Si  Si6  1  0.34645208  0.99817042  0.75409605  1
  Si  Si7  1  0.85615173  0.00036642  0.75409009  1
  Si  Si8  1  0.46840782  0.34374497  0.58573849  1
  Si  Si9  1  0.97683520  0.33650630  0.57619872  1
  Si  Si10  1  0.47509155  0.61669223  0.07622234  1
  Si  Si11  1  0.97100320  0.59911436  0.08519616  1
  Si  Si12  1  0.83454744  0.06872544  0.08227283  1
  Si  Si13  1  0.32382110  0.67502854  0.91464031  1
  Si  Si14  1  0.83594321  0.66807859  0.92070038  1
  Si  Si15  1  0.16663692  0.97905597  0.91332161  1
  Si  Si16  1  0.66376123  0.99924061  0.91558767  1
  Si  Si17  1  0.33517216  0.99660431  0.42255216  1
  Si  Si18  1  0.82392242  0.97318159  0.41566469  1
  Si  Si19  1  0.16688798  0.33234584  0.41872755  1
  Si  Si20  1  0.66679105  0.35396539  0.41483125  1
  S  S0  1  0.99392820  0.29343331  0.25503691  1
  S  S1  1  0.51167629  0.30885088  0.26186119  1
  S  S2  1  0.01207401  0.71290729  0.76078640  1
  S  S3  1  0.49177256  0.68795849  0.75199568  1
  S  S4  1  0.20036892  0.06351425  0.58553432  1
  S  S5  1  0.68989439  0.05061134  0.57487519  1
  S  S6  1  0.33254779  0.59961073  0.58328313  1
  S  S7  1  0.83432157  0.62507701  0.57474725  1
  S  S8  1  0.33411468  0.04408438  0.07406660  1
  S  S9  1  0.19158626  0.33039310  0.07457067  1
  S  S10  1  0.69941374  0.33786942  0.08477756  1
  S  S11  1  0.01386991  0.35034604  0.90678548  1
  S  S12  1  0.50245739  0.34368177  0.91621954  1
  S  S13  1  0.00134779  0.66149505  0.41677265  1
  S  S14  1  0.50969934  0.67155862  0.41059464  1
  O  O0  1  0.07909953  0.00051039  0.30614800  1
  O  O1  1  0.59798861  0.01851018  0.30591030  1
  O  O2  1  0.41588098  0.84060820  0.30552712  1
  O  O3  1  0.91138851  0.79722866  0.30851781  1
  O  O4  1  0.50511511  0.19836445  0.31050420  1
  O  O5  1  0.98725997  0.18784292  0.30653376  1
  O  O6  1  0.10320685  0.17587697  0.80211837  1
  O  O7  1  0.57760166  0.15828712  0.80404260  1
  O  O8  1  0.48199059  0.77357689  0.80285640  1
  O  O9  1  0.00696599  0.81241283  0.80877909  1
  O  O10  1  0.41247046  0.02763602  0.80648270  1
  O  O11  1  0.91989159  0.99416180  0.80267900  1
  O  O12  1  0.37164294  0.94281351  0.69231645  1
  O  O13  1  0.88616293  0.98485809  0.68751457  1
  O  O14  1  0.10409136  0.26430463  0.68944172  1
  O  O15  1  0.60538414  0.21812335  0.68717040  1
  O  O16  1  0.02187010  0.79796669  0.70345485  1
  O  O17  1  0.50591167  0.78573438  0.69745769  1
  O  O18  1  0.38772763  0.79081764  0.18898842  1
  O  O19  1  0.87287069  0.80360021  0.19414521  1
  O  O20  1  0.01003559  0.22806953  0.20099542  1
  O  O21  1  0.52067230  0.24153040  0.20492933  1
  O  O22  1  0.10368667  0.99865886  0.18754244  1
  O  O23  1  0.60009914  0.93764173  0.19365711  1
  O  O24  1  0.41750244  0.33187034  0.64711010  1
  O  O25  1  0.93748619  0.33818253  0.64017758  1
  O  O26  1  0.24304264  0.15311604  0.64029006  1
  O  O27  1  0.73072375  0.12647524  0.63105968  1
  O  O28  1  0.33122744  0.51108087  0.63795550  1
  O  O29  1  0.83050024  0.54017252  0.63056641  1
  O  O30  1  0.43425768  0.53670784  0.14024214  1
  O  O31  1  0.92116548  0.51167171  0.14712101  1
  O  O32  1  0.33029561  0.12077651  0.13005067  1
  O  O33  1  0.82990203  0.15988381  0.14396038  1
  O  O34  1  0.23336451  0.33801894  0.13061868  1
  O  O35  1  0.74196325  0.33613328  0.14021180  1
  O  O36  1  0.24058418  0.32706789  0.02322710  1
  O  O37  1  0.74356792  0.33838659  0.03105503  1
  O  O38  1  0.41540184  0.50239880  0.02109826  1
  O  O39  1  0.92286840  0.49578945  0.02658563  1
  O  O40  1  0.32968871  0.13590680  0.02263495  1
  O  O41  1  0.82697944  0.15521612  0.02145664  1
  O  O42  1  0.24473867  0.15369662  0.53177040  1
  O  O43  1  0.73935658  0.15357481  0.52390080  1
  O  O44  1  0.32813147  0.50838367  0.52866327  1
  O  O45  1  0.83008177  0.52516896  0.52314864  1
  O  O46  1  0.41852155  0.35241086  0.52818665  1
  O  O47  1  0.91673073  0.33130100  0.52118178  1
  O  O48  1  0.29159646  0.72278525  0.97446244  1
  O  O49  1  0.80046287  0.72707484  0.97665339  1
  O  O50  1  0.06334032  0.40800626  0.96181998  1
  O  O51  1  0.56185622  0.42320735  0.96510329  1
  O  O52  1  0.13597520  0.87032381  0.97453354  1
  O  O53  1  0.63343057  0.86194862  0.96939424  1
  O  O54  1  0.30201447  0.87421725  0.48095836  1
  O  O55  1  0.79326054  0.86375779  0.47636207  1
  O  O56  1  0.13946218  0.40927384  0.47394864  1
  O  O57  1  0.63529931  0.39719824  0.47674324  1
  O  O58  1  0.05913716  0.70060096  0.46696385  1
  O  O59  1  0.55964221  0.71234057  0.46543872  1
  O  O60  1  0.03585444  0.62135563  0.36479305  1
  O  O61  1  0.55242357  0.63705357  0.36293133  1
  O  O62  1  0.25883347  0.91700939  0.37464465  1
  O  O63  1  0.75314074  0.86830018  0.36566793  1
  O  O64  1  0.19606055  0.46534298  0.36393895  1
  O  O65  1  0.68569357  0.50917127  0.36850259  1
  O  O66  1  0.06022778  0.47170222  0.85900567  1
  O  O67  1  0.53480045  0.44708494  0.86255759  1
  O  O68  1  0.18604225  0.86479969  0.86574923  1
  O  O69  1  0.68953966  0.92098185  0.86018594  1
  O  O70  1  0.25457150  0.63816022  0.86295697  1
  O  O71  1  0.76312041  0.59379264  0.86995474  1
  O  O72  1  0.99104508  0.81044315  0.40939533  1
  O  O73  1  0.49994336  0.82194274  0.40061272  1
  O  O74  1  0.42361202  0.00674706  0.40425365  1
  O  O75  1  0.91665722  0.99857308  0.39961088  1
  O  O76  1  0.08315935  0.14909273  0.40537224  1
  O  O77  1  0.58838900  0.16818670  0.39852123  1
  O  O78  1  0.00360813  0.18011773  0.89698462  1
  O  O79  1  0.49108483  0.17213335  0.90951035  1
  O  O80  1  0.08952940  0.00996830  0.89645869  1
  O  O81  1  0.58055298  0.01864594  0.90330861  1
  O  O82  1  0.41623854  0.83520376  0.89847179  1
  O  O83  1  0.92508892  0.83651357  0.90328671  1
  O  O84  1  0.47397889  0.16690218  0.57884293  1
  O  O85  1  0.98455687  0.16303757  0.57078755  1
  O  O86  1  0.11637149  0.04636026  0.58281040  1
  O  O87  1  0.60650701  0.03720195  0.57129850  1
  O  O88  1  0.40712635  0.76983399  0.57981719  1
  O  O89  1  0.91055716  0.79326025  0.57255490  1
  O  O90  1  0.48239594  0.80547231  0.07077968  1
  O  O91  1  0.97898381  0.78804576  0.07849012  1
  O  O92  1  0.41053103  0.02940632  0.07189856  1
  O  O93  1  0.91501755  0.03970414  0.07561530  1
  O  O94  1  0.10889503  0.17736014  0.07124194  1
  O  O95  1  0.61607070  0.18328153  0.08240769  1
  O  O96  1  0.33830242  0.17030964  0.74696533  1
  O  O97  1  0.85862063  0.18106597  0.76306544  1
  O  O98  1  0.24914545  0.32780744  0.74204434  1
  O  O99  1  0.73098435  0.29292086  0.76260203  1
  O  O100  1  0.41226401  0.52016762  0.74658091  1
  O  O101  1  0.93662466  0.54505942  0.76259250  1
  O  O102  1  0.35964975  0.53563275  0.26364176  1
  O  O103  1  0.84022040  0.50564632  0.24634283  1
  O  O104  1  0.43592548  0.32533934  0.26340680  1
  O  O105  1  0.91491410  0.29976275  0.25116503  1
  O  O106  1  0.23037592  0.16862055  0.26319467  1
  O  O107  1  0.74483667  0.16487223  0.24698186  1
  O  O108  1  0.33117929  0.50246326  0.92059392  1
  O  O109  1  0.84739479  0.50513960  0.93310616  1
  O  O110  1  0.41795810  0.32200942  0.92682436  1
  O  O111  1  0.93070195  0.33359754  0.91305641  1
  O  O112  1  0.25312295  0.16567465  0.92219261  1
  O  O113  1  0.74738819  0.18162195  0.92990375  1
  O  O114  1  0.34955860  0.18617146  0.43149878  1
  O  O115  1  0.83165567  0.16074272  0.42109884  1
  O  O116  1  0.25048780  0.31592165  0.43412677  1
  O  O117  1  0.75304327  0.34043089  0.42326206  1
  O  O118  1  0.42445386  0.52330635  0.41881702  1
  O  O119  1  0.91685944  0.51327587  0.42705081  1
  O  O120  1  0.18549278  0.48499044  0.07283124  1
  O  O121  1  0.69190260  0.49086772  0.08572737  1
  O  O122  1  0.06940404  0.63852013  0.08863843  1
  O  O123  1  0.57038632  0.64772428  0.07748502  1
  O  O124  1  0.25869405  0.87051768  0.07629122  1
  O  O125  1  0.75061270  0.87558078  0.08691678  1
  O  O126  1  0.19475797  0.89648546  0.58637562  1
  O  O127  1  0.68353160  0.88367678  0.57316202  1
  O  O128  1  0.25615267  0.61984449  0.58574640  1
  O  O129  1  0.75861238  0.64691291  0.57690172  1
  O  O130  1  0.07366951  0.49673388  0.57704121  1
  O  O131  1  0.56677720  0.49722375  0.58736799  1
  O  O132  1  0.14016351  0.82037865  0.25585151  1
  O  O133  1  0.66358198  0.82335633  0.27059335  1
  O  O134  1  0.25666588  0.65677505  0.25271021  1
  O  O135  1  0.75335446  0.66448252  0.26675493  1
  O  O136  1  0.06510794  0.46640327  0.26217087  1
  O  O137  1  0.58649035  0.47905422  0.26860494  1
  O  O138  1  0.16688569  0.50409302  0.76697493  1
  O  O139  1  0.64237097  0.46449734  0.75629606  1
  O  O140  1  0.08708387  0.69164704  0.76704680  1
  O  O141  1  0.56324604  0.65796357  0.75852342  1
  O  O142  1  0.25265634  0.83878909  0.76583050  1
  O  O143  1  0.75696747  0.85323500  0.75349267  1
loop_
_geom_bond_atom_site_label_1
_geom_bond_atom_site_label_2
_geom_bond_distance
_geom_bond_site_symmetry_2
Na0 O107 2.465931 1_565
Na0 O133 2.487870 1_555
Na0 O105 2.512852 1_565
Na0 O33 2.591216 1_565
Na0 O19 2.694011 1_555
Na0 O135 2.710968 1_555
Na1 O134 2.330919 1_555
Na1 O106 2.343802 1_555
Na1 O64 2.415417 1_555
Na1 O102 2.790714 1_555
Na1 O136 2.795257 1_555
Na2 O135 2.390977 1_555
Na2 O103 2.398930 1_555
Na2 O107 2.512354 1_555
Na2 O137 2.619737 1_555
Na2 O65 2.872937 1_555
Na2 O35 2.887626 1_555
Na2 O1 2.986678 1_555
Na2 O21 3.006026 1_555
Na3 O132 2.394502 1_655
Na3 O31 2.448894 1_555
Na3 O103 2.464347 1_555
Na3 O136 2.583893 1_655
Na3 O105 2.728220 1_555
Na4 O102 2.432279 1_555
Na4 O133 2.507310 1_555
Na4 O23 2.583361 1_555
Na4 O104 2.690143 1_555
Na4 O137 2.704833 1_555
Na4 O61 2.727316 1_555
Na4 O30 2.804811 1_555
Na5 O138 2.384868 1_555
Na5 O98 2.502212 1_555
Na5 O100 2.543446 1_555
Na5 O142 2.613936 1_555
Na5 O70 2.752898 1_555
Na5 O12 2.791059 1_555
Na5 O28 2.933077 1_555
Na5 O8 2.936903 1_555
Na6 O97 2.414769 1_455
Na6 O138 2.552739 1_555
Na6 O66 2.588849 1_555
Na6 O101 2.670696 1_455
Na6 O140 2.694464 1_555
Na6 O14 2.737329 1_555
Na6 O25 2.875104 1_455
Na7 O139 2.352059 1_555
Na7 O141 2.476239 1_555
Na7 O96 2.545290 1_555
Na7 O24 2.664634 1_555
Na7 O100 2.710251 1_555
Na7 O67 2.750404 1_555
Na7 O10 2.899690 1_555
Na8 O142 2.427047 1_545
Na8 O96 2.476516 1_555
Na8 O140 2.547281 1_545
Na8 O98 2.608838 1_555
Na8 O68 2.672906 1_545
Na8 O6 2.792094 1_555
Na9 O69 2.268893 1_545
Na9 O99 2.340696 1_555
Na9 O143 2.350243 1_545
Na9 O97 2.739612 1_555
Na9 O141 2.866623 1_545
Na10 O130 2.358567 1_555
Na10 O128 2.414580 1_555
Na10 O86 2.463908 1_555
Na10 O14 2.511321 1_555
Na10 O85 2.512900 1_455
Na10 O56 2.572895 1_555
Na11 O131 2.415112 1_555
Na11 O57 2.514442 1_555
Na11 O15 2.518317 1_555
Na11 O87 2.519428 1_555
Na11 O84 2.606291 1_555
Na11 O129 2.623722 1_555
Na12 O84 2.274240 1_565
Na12 O54 2.330314 1_555
Na12 O126 2.348617 1_555
Na12 O12 2.738579 1_555
Na12 O88 2.749495 1_555
Na12 O128 2.801865 1_555
Na13 O85 2.386669 1_565
Na13 O55 2.500633 1_555
Na13 O127 2.532695 1_555
Na13 O129 2.616871 1_555
Na13 O89 2.624533 1_555
Na13 O13 2.628339 1_555
Na14 O122 2.388186 1_555
Na14 O91 2.462480 1_455
Na14 O94 2.477007 1_565
Na14 O22 2.493529 1_555
Na14 O52 2.624186 1_554
Na14 O124 2.698165 1_555
Na15 O125 2.325959 1_555
Na15 O123 2.445269 1_555
Na15 O95 2.466514 1_565
Na15 O23 2.585788 1_555
Na15 O90 2.686618 1_555
Na15 O53 2.757605 1_554
Na16 O90 2.363544 1_555
Na16 O120 2.492361 1_555
Na16 O48 2.551799 1_554
Na16 O124 2.611138 1_555
Na16 O92 2.636008 1_565
Na16 O18 2.667799 1_555
Na17 O91 2.370945 1_555
Na17 O49 2.387173 1_554
Na17 O121 2.449920 1_555
Na17 O93 2.553852 1_565
Na17 O125 2.636047 1_555
Na17 O19 2.765097 1_555
Na18 O82 2.389445 1_555
Na18 O53 2.507587 1_555
Na18 O108 2.574553 1_555
Na18 O81 2.632407 1_565
Na18 O38 2.728655 1_556
Na18 O8 2.882598 1_555
Na19 O109 2.323973 1_555
Na19 O83 2.369544 1_555
Na19 O52 2.599292 1_655
Na19 O80 2.735218 1_665
Na19 O39 2.748432 1_556
Na19 O111 2.805536 1_555
Na19 O9 2.885083 1_655
Na20 O79 2.452689 1_555
Na20 O110 2.516044 1_555
Na20 O112 2.615772 1_555
Na20 O82 2.652823 1_545
Na20 O68 2.661914 1_545
Na20 O48 2.701895 1_545
Na20 O10 2.759471 1_555
Na20 O40 2.783858 1_556
Na21 O111 2.457244 1_555
Na21 O78 2.620350 1_655
Na21 O41 2.639734 1_556
Na21 O49 2.752493 1_545
Na21 O113 2.782568 1_555
Na21 O83 2.851017 1_545
Na21 O69 2.874585 1_545
Na22 O80 2.325284 1_555
Na22 O112 2.480344 1_555
Na22 O6 2.623362 1_555
Na22 O78 2.654639 1_555
Na22 O108 2.667277 1_555
Na22 O70 2.857834 1_555
Na22 O50 2.863675 1_555
Na22 O36 2.954318 1_556
Na23 O113 2.279776 1_555
Na23 O71 2.356031 1_555
Na23 O81 2.455416 1_555
Na23 O109 2.768461 1_555
Na24 O114 2.340200 1_555
Na24 O74 2.375301 1_555
Na24 O77 2.632382 1_555
Na24 O57 2.664079 1_555
Na24 O4 2.673583 1_555
Na24 O118 2.889325 1_555
Na24 O61 2.979201 1_555
Na24 O46 3.011684 1_555
Na25 O75 2.332610 1_545
Na25 O115 2.529870 1_555
Na25 O76 2.629111 1_655
Na25 O56 2.716110 1_655
Na25 O5 2.730435 1_555
Na25 O47 2.794087 1_555
Na26 O62 2.377943 1_545
Na26 O76 2.388473 1_555
Na26 O116 2.407888 1_555
Na26 O0 2.678883 1_555
Na26 O72 2.921581 1_445
Na27 O77 2.351672 1_555
Na27 O117 2.484702 1_555
Na27 O1 2.511007 1_555
Na27 O115 2.660549 1_555
Na27 O73 2.733377 1_545
Na27 O63 2.798403 1_545
Na27 O59 2.996280 1_545
Na27 O43 3.025224 1_555
Na28 O118 2.435099 1_555
Na28 O73 2.480786 1_555
Na28 O64 2.630987 1_555
Na28 O74 2.697069 1_565
Na28 O2 2.747408 1_555
Na28 O116 2.874081 1_555
Na28 O54 2.916429 1_555
Na29 O72 2.444651 1_555
Na29 O119 2.524610 1_555
Na29 O65 2.606574 1_555
Na29 O3 2.609822 1_555
Na29 O117 2.635364 1_555
Na29 O75 2.636738 1_555
Na29 O55 2.790955 1_555
Na29 O45 2.888004 1_555
Na30 O85 2.361773 1_555
Na30 O76 2.437512 1_655
Na30 O75 2.505312 1_545
Na30 O72 2.591119 1_545
Na30 O89 2.610584 1_545
Na30 O86 2.949502 1_655
Na31 O74 2.363657 1_555
Na31 O77 2.597916 1_555
Na31 O84 2.605982 1_555
Na31 O87 2.655943 1_555
Na31 O73 2.726535 1_545
Na31 O88 2.885610 1_545
Na32 O93 2.416795 1_566
Na32 O83 2.485443 1_555
Na32 O91 2.497127 1_556
Na32 O94 2.663988 1_666
Na32 O78 2.859382 1_665
Na32 O80 2.929371 1_665
Na33 O90 2.320914 1_556
Na33 O81 2.449513 1_565
Na33 O82 2.597842 1_555
Na33 O92 2.615494 1_566
Na33 O79 2.626943 1_565
Na33 O95 2.860714 1_566
Na34 O112 2.449655 1_555
Na34 O108 2.516580 1_555
Na34 O96 2.528846 1_555
Na34 O98 2.531919 1_555
Na34 O100 2.620555 1_555
Na34 O110 2.717453 1_555
Na35 O99 2.386901 1_555
Na35 O113 2.423447 1_555
Na35 O109 2.520617 1_555
Na35 O97 2.540881 1_555
Na35 O111 2.543497 1_555
Na35 O101 2.733464 1_555
Na36 O106 2.335301 1_555
Na36 O102 2.437200 1_555
Na36 O116 2.571467 1_555
Na36 O114 2.603369 1_555
Na36 O118 2.610291 1_555
Na36 O104 2.647518 1_555
Na37 O107 2.361832 1_555
Na37 O103 2.400235 1_555
Na37 O105 2.491686 1_555
Na37 O117 2.595180 1_555
Na37 O115 2.646490 1_555
Na37 O119 2.831118 1_555
Na38 O132 2.425620 1_555
Na38 O122 2.473645 1_555
Na38 O134 2.596133 1_555
Na38 O136 2.791000 1_555
Na38 O124 2.803259 1_555
Na39 O125 2.442800 1_555
Na39 O123 2.582009 1_555
Na39 O133 2.696608 1_555
Na39 O121 2.777657 1_555
Na39 O135 2.864647 1_555
Na39 O137 2.909574 1_555
Na40 O138 2.519689 1_555
Na40 O140 2.618546 1_555
Na40 O130 2.638521 1_555
Na40 O142 2.749449 1_555
Na40 O128 2.814594 1_555
Na40 O126 2.878632 1_555
Na41 O139 2.384997 1_555
Na41 O143 2.532501 1_555
Na41 O131 2.590539 1_555
Na41 O141 2.725550 1_555
Na41 O129 2.812907 1_555
La0 O13 2.143717 1_445
La0 O14 2.281498 1_555
La0 O85 2.411660 1_455
La0 O16 2.496562 1_545
La0 O86 2.563683 1_555
La0 O89 2.624295 1_445
La1 O15 2.195388 1_555
La1 O12 2.238667 1_545
La1 O84 2.336045 1_555
La1 O17 2.399481 1_545
La1 O88 2.506036 1_545
La1 O87 2.655590 1_555
La2 O19 2.243302 1_555
La2 O22 2.277430 1_655
La2 O93 2.298478 1_565
La2 O91 2.339804 1_555
La2 O20 2.386912 1_665
La2 O94 2.645230 1_665
La3 O18 2.146608 1_555
La3 O23 2.277030 1_555
La3 O90 2.386548 1_555
La3 O21 2.506629 1_565
La3 O95 2.531384 1_565
La3 O92 2.639893 1_565
La4 O25 2.232582 1_555
La4 O97 2.315975 1_555
La4 O99 2.369401 1_555
La4 O29 2.382095 1_555
La4 O27 2.413539 1_555
La4 O101 2.446901 1_555
La5 O30 2.210959 1_555
La5 O102 2.342951 1_555
La5 O32 2.366851 1_555
La5 O106 2.381822 1_555
La5 O34 2.396188 1_555
La5 O104 2.455991 1_555
La6 O52 2.241541 1_554
La6 O50 2.366517 1_554
La6 O122 2.369869 1_555
La6 O48 2.399062 1_554
La6 O124 2.439851 1_555
La6 O120 2.455517 1_555
La7 O123 2.265314 1_555
La7 O53 2.268430 1_554
La7 O125 2.312653 1_555
La7 O49 2.361797 1_554
La7 O51 2.525914 1_554
La7 O121 2.615476 1_555
La8 O56 2.249462 1_555
La8 O130 2.256493 1_555
La8 O54 2.350562 1_555
La8 O58 2.408751 1_555
La8 O128 2.539044 1_555
La8 O126 2.638321 1_555
La9 O57 2.251570 1_555
La9 O59 2.367417 1_555
La9 O55 2.378528 1_555
La9 O131 2.408309 1_555
La9 O129 2.442234 1_555
La9 O127 2.468825 1_555
La10 O62 2.215353 1_555
La10 O134 2.232237 1_555
La10 O132 2.276335 1_555
La10 O64 2.403697 1_555
La10 O136 2.491474 1_555
La10 O60 2.607334 1_555
La11 O71 2.211197 1_555
La11 O143 2.247500 1_555
La11 O139 2.290623 1_555
La11 O69 2.357402 1_555
La11 O67 2.599964 1_555
La11 O141 2.607666 1_555
Al0 O0 1.794517 1_665
Al0 O3 1.881365 1_555
Al0 O75 1.887097 1_555
Al0 O76 2.037806 1_665
Al0 O72 2.112449 1_555
Al0 O5 2.134422 1_565
Al1 O2 1.845937 1_545
Al1 O77 1.916735 1_555
Al1 O1 1.917950 1_555
Al1 O4 1.940257 1_555
Al1 O74 1.984177 1_555
Al1 O73 2.057429 1_545
Al2 O11 1.843544 1_445
Al2 O80 1.886229 1_555
Al2 O9 1.953234 1_545
Al2 O83 1.959737 1_445
Al2 O6 2.009801 1_555
Al2 O78 2.014890 1_555
Al3 O7 1.798031 1_555
Al3 O82 1.883359 1_545
Al3 O10 1.905338 1_555
Al3 O81 1.940991 1_555
Al3 O79 2.028842 1_555
Al3 O8 2.336796 1_545
Al4 O24 1.817386 1_555
Al4 O96 1.881051 1_555
Al4 O98 1.960063 1_555
Al4 O26 1.982538 1_555
Al4 O100 2.100967 1_555
Al4 O28 2.171760 1_555
Al5 O33 1.822636 1_555
Al5 O31 1.823482 1_555
Al5 O35 1.967914 1_555
Al5 O103 2.072780 1_555
Al5 O107 2.153193 1_555
Al5 O105 2.271880 1_555
Al6 O38 1.815995 1_556
Al6 O108 1.873187 1_555
Al6 O36 1.939833 1_556
Al6 O112 1.986370 1_555
Al6 O110 2.044443 1_555
Al6 O40 2.225702 1_556
Al7 O41 1.807195 1_556
Al7 O39 1.825611 1_556
Al7 O109 1.871970 1_555
Al7 O37 1.933642 1_556
Al7 O113 1.975356 1_555
Al7 O111 2.480835 1_555
Al8 O46 1.779309 1_555
Al8 O114 1.826942 1_555
Al8 O116 1.869324 1_555
Al8 O42 1.931312 1_555
Al8 O44 2.066812 1_555
Al8 O118 2.309901 1_555
Al9 O47 1.831821 1_555
Al9 O115 1.862329 1_555
Al9 O117 1.966982 1_555
Al9 O43 1.973087 1_555
Al9 O119 2.014340 1_555
Al9 O45 2.245540 1_555
Al10 O135 1.775185 1_555
Al10 O63 1.801861 1_555
Al10 O133 1.911474 1_555
Al10 O65 1.945179 1_555
Al10 O137 2.247529 1_555
Al10 O61 2.536371 1_555
Al11 O142 1.795026 1_555
Al11 O70 1.799289 1_555
Al11 O68 1.929660 1_555
Al11 O138 1.968441 1_555
Al11 O140 2.231123 1_555
Al11 O66 2.371383 1_555
O0 Si0 1.638471 1_545
O1 Si1 1.641190 1_545
O2 Si2 1.636976 1_555
O3 Si3 1.637267 1_555
O4 S1 1.464450 1_555
O5 S0 1.485648 1_555
O6 Si4 1.635671 1_555
O7 Si5 1.626997 1_555
O8 S3 1.461340 1_555
O9 S2 1.458200 1_555
O10 Si6 1.626304 1_545
O11 Si7 1.634445 1_565
O12 Si6 1.640313 1_555
O13 Si7 1.644158 1_565
O14 Si4 1.646293 1_555
O15 Si5 1.655695 1_555
O16 S2 1.483737 1_555
O17 S3 1.476011 1_555
O18 Si2 1.634818 1_555
O19 Si3 1.631482 1_555
O20 S0 1.463635 1_455
O21 S1 1.480947 1_555
O22 Si0 1.637191 1_555
O23 Si1 1.648092 1_555
O24 Si8 1.657087 1_555
O25 Si9 1.631275 1_555
O26 S4 1.483912 1_555
O27 S5 1.470436 1_555
O28 S6 1.478751 1_555
O29 S7 1.472643 1_555
O30 Si10 1.636230 1_555
O31 Si11 1.655307 1_555
O32 S8 1.475153 1_555
O33 Si12 1.659473 1_555
O34 S9 1.472397 1_555
O35 S10 1.488680 1_555
O36 S9 1.488183 1_555
O37 S10 1.468866 1_555
O38 Si10 1.653284 1_555
O39 Si11 1.620485 1_555
O40 S8 1.467390 1_555
O41 Si12 1.634689 1_555
O42 S4 1.475367 1_555
O43 S5 1.487282 1_555
O44 S6 1.479094 1_555
O45 S7 1.468984 1_555
O46 Si8 1.623833 1_555
O47 Si9 1.655818 1_555
O48 Si13 1.632045 1_555
O49 Si14 1.643910 1_555
O50 S11 1.482152 1_555
O51 S12 1.473432 1_555
O52 Si15 1.640777 1_555
O53 Si16 1.642128 1_555
O54 Si17 1.648178 1_555
O55 Si18 1.633655 1_555
O56 Si19 1.642011 1_555
O57 Si20 1.647548 1_555
O58 S13 1.478112 1_555
O59 S14 1.482955 1_555
O60 S13 1.475967 1_555
O61 S14 1.466925 1_555
O62 Si17 1.635963 1_555
O63 Si18 1.634162 1_555
O64 Si19 1.636578 1_555
O65 Si20 1.663503 1_555
O66 S11 1.484864 1_555
O67 S12 1.477380 1_555
O68 Si15 1.667967 1_555
O69 Si16 1.636577 1_555
O70 Si13 1.641497 1_555
O71 Si14 1.638999 1_555
O72 S13 1.482309 1_655
O73 S14 1.497168 1_555
O74 Si17 1.642484 1_545
O75 Si18 1.649733 1_555
O76 Si19 1.649003 1_555
O77 Si20 1.637334 1_555
O78 S11 1.496044 1_555
O79 S12 1.491039 1_555
O80 Si15 1.629480 1_545
O81 Si16 1.655554 1_545
O82 Si13 1.645245 1_555
O83 Si14 1.649010 1_555
O84 Si8 1.686476 1_555
O85 Si9 1.674659 1_555
O86 S4 1.479416 1_555
O87 S5 1.483755 1_555
O88 S6 1.482997 1_555
O89 S7 1.483566 1_555
O90 Si10 1.676157 1_555
O91 Si11 1.674471 1_555
O92 S8 1.483480 1_555
O93 Si12 1.642271 1_555
O94 S9 1.473409 1_555
O95 S10 1.485457 1_555
O96 Si6 1.669861 1_545
O97 Si7 1.651373 1_555
O98 Si4 1.683326 1_555
O99 Si5 1.637395 1_555
O100 S3 1.512661 1_555
O101 S2 1.475357 1_655
O102 Si2 1.649610 1_555
O103 Si3 1.674120 1_555
O104 S1 1.480291 1_555
O105 S0 1.490911 1_555
O106 Si0 1.647314 1_545
O107 Si1 1.660428 1_545
O108 Si13 1.663217 1_555
O109 Si14 1.637449 1_555
O110 S12 1.490674 1_555
O111 S11 1.471716 1_655
O112 Si15 1.672700 1_545
O113 Si16 1.647946 1_545
O114 Si17 1.638951 1_545
O115 Si18 1.661895 1_545
O116 Si19 1.660558 1_555
O117 Si20 1.668486 1_555
O118 S14 1.492641 1_555
O119 S13 1.490836 1_655
O120 S9 1.480616 1_555
O121 S10 1.480374 1_555
O122 Si11 1.667269 1_455
O123 Si10 1.635779 1_555
O124 S8 1.506242 1_565
O125 Si12 1.678582 1_565
O126 S4 1.486166 1_565
O127 S5 1.479635 1_565
O128 S6 1.512798 1_555
O129 S7 1.508678 1_555
O130 Si9 1.654313 1_455
O131 Si8 1.652805 1_555
O132 Si0 1.643441 1_555
O133 Si1 1.669383 1_555
O134 Si2 1.650260 1_555
O135 Si3 1.644517 1_555
O136 S0 1.481548 1_455
O137 S1 1.490420 1_555
O138 Si4 1.667311 1_555
O139 Si5 1.635898 1_555
O140 S2 1.498333 1_555
O141 S3 1.483580 1_555
O142 Si6 1.638260 1_555
O143 Si7 1.646134 1_565
