# generated using pymatgen
data_CaPH5O6
_symmetry_space_group_name_H-M   'P 1'
_cell_length_a   8.22536191
_cell_length_b   8.22536191
_cell_length_c   5.89979607
_cell_angle_alpha   78.92750294
_cell_angle_beta   78.92750294
_cell_angle_gamma   133.92526913
_symmetry_Int_Tables_number   1
_chemical_formula_structural   CaPH5O6
_chemical_formula_sum   'Ca2 P2 H10 O12'
_cell_volume   250.49077167
_cell_formula_units_Z   2
loop_
 _symmetry_equiv_pos_site_id
 _symmetry_equiv_pos_as_xyz
  1  'x, y, z'
loop_
 _atom_site_type_symbol
 _atom_site_label
 _atom_site_symmetry_multiplicity
 _atom_site_fract_x
 _atom_site_fract_y
 _atom_site_fract_z
 _atom_site_occupancy
  Ca  Ca0  1  0.83451500  0.17760500  0.75055600  1
  Ca  Ca1  1  0.17760500  0.83451500  0.25055600  1
  P  P0  1  0.30885200  0.66378000  0.76594500  1
  P  P1  1  0.66378000  0.30885200  0.26594500  1
  H  H0  1  0.53981500  0.67342800  0.14640600  1
  H  H1  1  0.67342800  0.53981500  0.64640600  1
  H  H2  1  0.78558500  0.76005200  0.99691500  1
  H  H3  1  0.76005200  0.78558500  0.49691500  1
  H  H4  1  0.24698000  0.26345800  0.38821500  1
  H  H5  1  0.26345800  0.24698000  0.88821500  1
  H  H6  1  0.61713100  0.96206400  0.36529600  1
  H  H7  1  0.96206400  0.61713100  0.86529600  1
  H  H8  1  0.16151200  0.33568400  0.21275900  1
  H  H9  1  0.33568400  0.16151100  0.71275900  1
  O  O0  1  0.18971500  0.40170000  0.90176600  1
  O  O1  1  0.13867100  0.63480600  0.65255700  1
  O  O2  1  0.32309200  0.17560700  0.87845200  1
  O  O3  1  0.17560700  0.32309200  0.37845200  1
  O  O4  1  0.82231800  0.71812200  0.51170200  1
  O  O5  1  0.71812200  0.82231800  0.01170200  1
  O  O6  1  0.36382900  0.80067300  0.93349700  1
  O  O7  1  0.80067300  0.36382900  0.43349700  1
  O  O8  1  0.58341800  0.84678800  0.52303500  1
  O  O9  1  0.84678800  0.58341800  0.02303500  1
  O  O10  1  0.63480600  0.13867100  0.15255700  1
  O  O11  1  0.40170000  0.18971500  0.40176600  1
loop_
_geom_bond_atom_site_label_1
_geom_bond_atom_site_label_2
_geom_bond_distance
_geom_bond_site_symmetry_2
Ca0 O7 2.369363 1_555
Ca0 O5 2.377562 1_546
Ca0 O10 2.430628 1_556
Ca0 O3 2.467772 1_655
Ca0 O6 2.494409 1_545
Ca0 O1 2.508273 1_655
Ca0 O0 2.624954 1_655
Ca0 O8 2.853469 1_545
Ca1 O6 2.369363 1_554
Ca1 O4 2.377562 1_455
Ca1 O1 2.430628 1_555
Ca1 O2 2.467772 1_564
Ca1 O7 2.494409 1_455
Ca1 O10 2.508273 1_565
Ca1 O11 2.624954 1_565
Ca1 O9 2.853469 1_455
H0 O5 0.984303 1_555
H1 O4 0.984303 1_555
H2 O5 0.985252 1_556
H3 O4 0.985252 1_555
H4 O3 0.995107 1_555
H5 O2 0.995107 1_555
H6 O8 1.019392 1_555
H6 O10 1.625806 1_565
H7 O9 1.019392 1_556
H7 O1 1.625806 1_655
H8 O3 1.000542 1_555
H9 O2 1.000545 1_555
O0 P0 1.534086 1_555
O1 P0 1.556219 1_555
O6 P0 1.530459 1_555
O7 P1 1.530459 1_555
O8 P0 1.622239 1_555
O9 P1 1.622239 1_555
O10 P1 1.556219 1_555
O11 P1 1.534086 1_555
