# generated using pymatgen
data_LiMo2(PO4)3
_symmetry_space_group_name_H-M   'P 1'
_cell_length_a   9.02878700
_cell_length_b   9.17952400
_cell_length_c   12.43258100
_cell_angle_alpha   90.00000000
_cell_angle_beta   90.00000000
_cell_angle_gamma   90.00000000
_symmetry_Int_Tables_number   1
_chemical_formula_structural   LiMo2(PO4)3
_chemical_formula_sum   'Li4 Mo8 P12 O48'
_cell_volume   1030.41190248
_cell_formula_units_Z   4
loop_
 _symmetry_equiv_pos_site_id
 _symmetry_equiv_pos_as_xyz
  1  'x, y, z'
loop_
 _atom_site_type_symbol
 _atom_site_label
 _atom_site_symmetry_multiplicity
 _atom_site_fract_x
 _atom_site_fract_y
 _atom_site_fract_z
 _atom_site_occupancy
  Li  Li0  1  0.14844600  0.73911600  0.75000000  1
  Li  Li1  1  0.85155400  0.26088400  0.25000000  1
  Li  Li2  1  0.14844600  0.76088400  0.25000000  1
  Li  Li3  1  0.85155400  0.23911600  0.75000000  1
  Mo  Mo0  1  0.75414200  0.52383400  0.40028800  1
  Mo  Mo1  1  0.24585800  0.47616600  0.59971200  1
  Mo  Mo2  1  0.24585800  0.02383400  0.09971200  1
  Mo  Mo3  1  0.75414200  0.52383400  0.09971200  1
  Mo  Mo4  1  0.75414200  0.97616600  0.90028800  1
  Mo  Mo5  1  0.75414200  0.97616600  0.59971200  1
  Mo  Mo6  1  0.24585800  0.02383400  0.40028800  1
  Mo  Mo7  1  0.24585800  0.47616600  0.90028800  1
  P  P0  1  0.03617700  0.75000000  0.50000000  1
  P  P1  1  0.60216700  0.62409800  0.63194100  1
  P  P2  1  0.39783300  0.37590200  0.36805900  1
  P  P3  1  0.96382300  0.25000000  0.00000000  1
  P  P4  1  0.39783300  0.37590200  0.13194100  1
  P  P5  1  0.60216700  0.87590200  0.13194100  1
  P  P6  1  0.39783300  0.12409800  0.63194100  1
  P  P7  1  0.03617700  0.75000000  0.00000000  1
  P  P8  1  0.39783300  0.12409800  0.86805900  1
  P  P9  1  0.60216700  0.62409800  0.86805900  1
  P  P10  1  0.60216700  0.87590200  0.36805900  1
  P  P11  1  0.96382300  0.25000000  0.50000000  1
  O  O0  1  0.36357100  0.21529700  0.11817700  1
  O  O1  1  0.20470900  0.48254400  0.75000000  1
  O  O2  1  0.36357100  0.28470300  0.88182300  1
  O  O3  1  0.65890600  0.57419000  0.75000000  1
  O  O4  1  0.05409600  0.13392500  0.05949000  1
  O  O5  1  0.79529100  0.51745600  0.25000000  1
  O  O6  1  0.63642900  0.78470300  0.88182300  1
  O  O7  1  0.05409600  0.13392500  0.44051000  1
  O  O8  1  0.86480900  0.18006300  0.91016800  1
  O  O9  1  0.30417500  0.02400900  0.56013100  1
  O  O10  1  0.63642900  0.71529700  0.11817700  1
  O  O11  1  0.86480900  0.31993700  0.08983200  1
  O  O12  1  0.56336800  0.09974000  0.87437900  1
  O  O13  1  0.05409600  0.36607500  0.55949000  1
  O  O14  1  0.34109400  0.42581000  0.25000000  1
  O  O15  1  0.69582500  0.52400900  0.93986900  1
  O  O16  1  0.43663200  0.90026000  0.12562100  1
  O  O17  1  0.86480900  0.31993700  0.41016800  1
  O  O18  1  0.43663200  0.59974000  0.62562100  1
  O  O19  1  0.69582500  0.97599100  0.43986900  1
  O  O20  1  0.56336800  0.09974000  0.62562100  1
  O  O21  1  0.69582500  0.52400900  0.56013100  1
  O  O22  1  0.13519100  0.68006300  0.58983200  1
  O  O23  1  0.65890600  0.92581000  0.25000000  1
  O  O24  1  0.56336800  0.40026000  0.37437900  1
  O  O25  1  0.94590400  0.86607500  0.94051000  1
  O  O26  1  0.79529100  0.98254400  0.75000000  1
  O  O27  1  0.94590400  0.86607500  0.55949000  1
  O  O28  1  0.13519100  0.68006300  0.91016800  1
  O  O29  1  0.13519100  0.81993700  0.41016800  1
  O  O30  1  0.34109400  0.07419000  0.75000000  1
  O  O31  1  0.56336800  0.40026000  0.12562100  1
  O  O32  1  0.43663200  0.59974000  0.87437900  1
  O  O33  1  0.94590400  0.63392500  0.44051000  1
  O  O34  1  0.30417500  0.02400900  0.93986900  1
  O  O35  1  0.05409600  0.36607500  0.94051000  1
  O  O36  1  0.30417500  0.47599100  0.06013100  1
  O  O37  1  0.36357100  0.21529700  0.38182300  1
  O  O38  1  0.43663200  0.90026000  0.37437900  1
  O  O39  1  0.86480900  0.18006300  0.58983200  1
  O  O40  1  0.63642900  0.78470300  0.61817700  1
  O  O41  1  0.13519100  0.81993700  0.08983200  1
  O  O42  1  0.94590400  0.63392500  0.05949000  1
  O  O43  1  0.20470900  0.01745600  0.25000000  1
  O  O44  1  0.69582500  0.97599100  0.06013100  1
  O  O45  1  0.63642900  0.71529700  0.38182300  1
  O  O46  1  0.30417500  0.47599100  0.43986900  1
  O  O47  1  0.36357100  0.28470300  0.61817700  1
loop_
_geom_bond_atom_site_label_1
_geom_bond_atom_site_label_2
_geom_bond_distance
_geom_bond_site_symmetry_2
Li0 O22 2.067233 1_555
Li0 O28 2.067233 1_555
Li0 O1 2.409369 1_555
Li1 O17 2.067233 1_555
Li1 O11 2.067233 1_555
Li1 O5 2.409369 1_555
Li2 O29 2.067233 1_555
Li2 O41 2.067233 1_555
Li2 O43 2.409369 1_565
Li3 O8 2.067233 1_555
Li3 O39 2.067233 1_555
Li3 O26 2.409369 1_545
Mo0 O5 1.905946 1_555
Mo0 O21 2.055832 1_555
Mo0 O33 2.066159 1_555
Mo0 O45 2.066688 1_555
Mo0 O24 2.087432 1_555
Mo0 O17 2.125239 1_555
Mo1 O1 1.905946 1_555
Mo1 O46 2.055832 1_555
Mo1 O13 2.066159 1_555
Mo1 O47 2.066688 1_555
Mo1 O18 2.087432 1_555
Mo1 O22 2.125239 1_555
Mo2 O43 1.905946 1_555
Mo2 O34 2.055832 1_554
Mo2 O4 2.066159 1_555
Mo2 O0 2.066688 1_555
Mo2 O16 2.087432 1_545
Mo2 O41 2.125239 1_545
Mo3 O5 1.905946 1_555
Mo3 O15 2.055832 1_554
Mo3 O42 2.066159 1_555
Mo3 O10 2.066688 1_555
Mo3 O31 2.087432 1_555
Mo3 O11 2.125239 1_555
Mo4 O26 1.905946 1_555
Mo4 O44 2.055832 1_556
Mo4 O25 2.066159 1_555
Mo4 O6 2.066688 1_555
Mo4 O12 2.087432 1_565
Mo4 O8 2.125239 1_565
Mo5 O26 1.905946 1_555
Mo5 O19 2.055832 1_555
Mo5 O27 2.066159 1_555
Mo5 O40 2.066688 1_555
Mo5 O20 2.087432 1_565
Mo5 O39 2.125239 1_565
Mo6 O43 1.905946 1_555
Mo6 O9 2.055832 1_555
Mo6 O7 2.066159 1_555
Mo6 O37 2.066688 1_555
Mo6 O38 2.087432 1_545
Mo6 O29 2.125239 1_545
Mo7 O1 1.905946 1_555
Mo7 O36 2.055832 1_556
Mo7 O35 2.066159 1_555
Mo7 O2 2.066688 1_555
Mo7 O32 2.087432 1_555
Mo7 O28 2.125239 1_555
O0 P4 1.516071 1_555
O2 P8 1.516071 1_555
O3 P9 1.620707 1_555
O3 P1 1.620707 1_555
O4 P3 1.531882 1_455
O6 P9 1.516071 1_555
O7 P11 1.531882 1_455
O8 P3 1.568019 1_556
O9 P6 1.535015 1_555
O10 P5 1.516071 1_555
O11 P3 1.568019 1_555
O12 P8 1.513254 1_555
O13 P11 1.531882 1_455
O14 P4 1.620707 1_555
O14 P2 1.620707 1_555
O15 P9 1.535015 1_555
O16 P5 1.513254 1_555
O17 P11 1.568019 1_555
O18 P1 1.513254 1_555
O19 P10 1.535015 1_555
O20 P6 1.513254 1_555
O21 P1 1.535015 1_555
O22 P0 1.568019 1_555
O23 P5 1.620707 1_555
O23 P10 1.620707 1_555
O24 P2 1.513254 1_555
O25 P7 1.531882 1_656
O27 P0 1.531882 1_655
O28 P7 1.568019 1_556
O29 P0 1.568019 1_555
O30 P6 1.620707 1_555
O30 P8 1.620707 1_555
O31 P4 1.513254 1_555
O32 P9 1.513254 1_555
O33 P0 1.531882 1_655
O34 P8 1.535015 1_555
O35 P3 1.531882 1_456
O36 P4 1.535015 1_555
O37 P2 1.516071 1_555
O38 P10 1.513254 1_555
O39 P11 1.568019 1_555
O40 P1 1.516071 1_555
O41 P7 1.568019 1_555
O42 P7 1.531882 1_655
O44 P5 1.535015 1_555
O45 P10 1.516071 1_555
O46 P2 1.535015 1_555
O47 P6 1.516071 1_555
