# generated using pymatgen
data_UFeC2
_symmetry_space_group_name_H-M   'P 1'
_cell_length_a   4.97450994
_cell_length_b   4.97450994
_cell_length_c   4.97450994
_cell_angle_alpha   112.16329443
_cell_angle_beta   112.16329443
_cell_angle_gamma   104.21167181
_symmetry_Int_Tables_number   1
_chemical_formula_structural   UFeC2
_chemical_formula_sum   'U2 Fe2 C4'
_cell_volume   94.16934730
_cell_formula_units_Z   2
loop_
 _symmetry_equiv_pos_site_id
 _symmetry_equiv_pos_as_xyz
  1  'x, y, z'
loop_
 _atom_site_type_symbol
 _atom_site_label
 _atom_site_symmetry_multiplicity
 _atom_site_fract_x
 _atom_site_fract_y
 _atom_site_fract_z
 _atom_site_occupancy
  U  U0  1  0.25000000  0.75000000  0.50000000  1
  U  U1  1  0.50000000  0.50000000  0.00000000  1
  Fe  Fe0  1  0.00000000  0.00000000  0.00000000  1
  Fe  Fe1  1  0.75000000  0.25000000  0.50000000  1
  C  C0  1  0.87500000  0.94645800  0.57145800  1
  C  C1  1  0.05354200  0.62500000  0.92854200  1
  C  C2  1  0.37500000  0.30354200  0.42854200  1
  C  C3  1  0.69645800  0.12500000  0.07145800  1
loop_
_geom_bond_atom_site_label_1
_geom_bond_atom_site_label_2
_geom_bond_distance
_geom_bond_site_symmetry_2
C0 Fe1 1.868757 1_565
C0 Fe0 1.868757 1_666
C0 U1 2.386348 1_555
C0 U0 2.386348 1_655
C1 Fe1 1.868757 1_455
C1 Fe0 1.868757 1_566
C1 U1 2.386348 1_556
C1 U0 2.386348 1_556
C2 Fe0 1.868757 1_555
C2 Fe1 1.868757 1_555
C2 U1 2.386348 1_556
C2 U0 2.386348 1_555
C3 Fe1 1.868757 1_555
C3 Fe0 1.868757 1_655
C3 U1 2.386348 1_555
C3 U0 2.386348 1_544
