# generated using pymatgen
data_Ca3(AlAs2)2
_symmetry_space_group_name_H-M   'P 1'
_cell_length_a   7.89007898
_cell_length_b   7.89007898
_cell_length_c   8.28372214
_cell_angle_alpha   87.08090495
_cell_angle_beta   87.08090495
_cell_angle_gamma   62.13301828
_symmetry_Int_Tables_number   1
_chemical_formula_structural   Ca3(AlAs2)2
_chemical_formula_sum   'Ca6 Al4 As8'
_cell_volume   455.08114883
_cell_formula_units_Z   2
loop_
 _symmetry_equiv_pos_site_id
 _symmetry_equiv_pos_as_xyz
  1  'x, y, z'
loop_
 _atom_site_type_symbol
 _atom_site_label
 _atom_site_symmetry_multiplicity
 _atom_site_fract_x
 _atom_site_fract_y
 _atom_site_fract_z
 _atom_site_occupancy
  Ca  Ca0  1  0.84776500  0.15223500  0.75000000  1
  Ca  Ca1  1  0.36576200  0.91432400  0.86185100  1
  Ca  Ca2  1  0.63423800  0.08567600  0.13814900  1
  Ca  Ca3  1  0.91432400  0.36576200  0.36185100  1
  Ca  Ca4  1  0.15223500  0.84776500  0.25000000  1
  Ca  Ca5  1  0.08567600  0.63423800  0.63814900  1
  Al  Al0  1  0.58232600  0.80855200  0.45734900  1
  Al  Al1  1  0.19144800  0.41767400  0.04265100  1
  Al  Al2  1  0.41767400  0.19144800  0.54265100  1
  Al  Al3  1  0.80855200  0.58232600  0.95734900  1
  As  As0  1  0.73519200  0.55768400  0.67099400  1
  As  As1  1  0.44231600  0.26480800  0.82900600  1
  As  As2  1  0.55768400  0.73519200  0.17099400  1
  As  As3  1  0.26480800  0.44231600  0.32900600  1
  As  As4  1  0.99952000  0.77111500  0.96329200  1
  As  As5  1  0.22888500  0.00048000  0.53670800  1
  As  As6  1  0.00048000  0.22888500  0.03670800  1
  As  As7  1  0.77111500  0.99952000  0.46329200  1
loop_
_geom_bond_atom_site_label_1
_geom_bond_atom_site_label_2
_geom_bond_distance
_geom_bond_site_symmetry_2
Al0 As0 2.476602 1_555
Al0 As2 2.508314 1_555
Al0 As5 2.543410 1_565
Al0 As7 2.569960 1_555
Al1 As1 2.476602 1_554
Al1 As3 2.508314 1_555
Al1 As4 2.543410 1_454
Al1 As6 2.569960 1_555
Al2 As3 2.476602 1_555
Al2 As1 2.508314 1_555
Al2 As7 2.543410 1_545
Al2 As5 2.569960 1_555
Al3 As2 2.476602 1_556
Al3 As0 2.508314 1_555
Al3 As6 2.543410 1_656
Al3 As4 2.569960 1_555
As0 Ca0 2.939507 1_555
As0 Ca3 2.978954 1_555
As0 Ca5 3.090973 1_655
As0 Ca1 3.351127 1_555
As1 Ca0 2.939507 1_555
As1 Ca2 2.978954 1_556
As1 Ca1 3.090973 1_545
As1 Ca5 3.351127 1_555
As2 Ca4 2.939507 1_555
As2 Ca1 2.978954 1_554
As2 Ca2 3.090973 1_565
As2 Ca3 3.351127 1_555
As3 Ca4 2.939507 1_555
As3 Ca5 2.978954 1_555
As3 Ca3 3.090973 1_455
As3 Ca2 3.351127 1_555
As4 Ca5 2.882063 1_655
As4 Ca4 2.928700 1_656
As4 Ca2 3.133431 1_566
As4 Ca0 3.147425 1_565
As4 Ca1 3.611296 1_655
As5 Ca1 2.882063 1_545
As5 Ca4 2.928700 1_545
As5 Ca3 3.133431 1_455
As5 Ca0 3.147425 1_455
As5 Ca5 3.611296 1_545
As6 Ca3 2.882063 1_455
As6 Ca0 2.928700 1_454
As6 Ca1 3.133431 1_544
As6 Ca4 3.147425 1_545
As6 Ca2 3.611296 1_455
As7 Ca2 2.882063 1_565
As7 Ca0 2.928700 1_565
As7 Ca5 3.133431 1_655
As7 Ca4 3.147425 1_655
As7 Ca3 3.611296 1_565
