# generated using pymatgen
data_Na14Si11Sn4Ge4SO48
_symmetry_space_group_name_H-M   'P 1'
_cell_length_a   17.81520233
_cell_length_b   8.91871824
_cell_length_c   22.11822191
_cell_angle_alpha   90.27914028
_cell_angle_beta   90.07262429
_cell_angle_gamma   120.00276905
_symmetry_Int_Tables_number   1
_chemical_formula_structural   Na14Si11Sn4Ge4SO48
_chemical_formula_sum   'Na42 Si33 Sn12 Ge12 S3 O144'
_cell_volume   3043.35630519
_cell_formula_units_Z   3
loop_
 _symmetry_equiv_pos_site_id
 _symmetry_equiv_pos_as_xyz
  1  'x, y, z'
loop_
 _atom_site_type_symbol
 _atom_site_label
 _atom_site_symmetry_multiplicity
 _atom_site_fract_x
 _atom_site_fract_y
 _atom_site_fract_z
 _atom_site_occupancy
  Na  Na0  1  0.31914506  0.99982857  0.24990125  1
  Na  Na1  1  0.81898960  0.00007032  0.25005795  1
  Na  Na2  1  0.31898174  0.64037581  0.75118687  1
  Na  Na3  1  0.81778838  0.63435865  0.74957310  1
  Na  Na4  1  0.50198606  0.36514366  0.75134814  1
  Na  Na5  1  0.68463577  0.00209194  0.74958332  1
  Na  Na6  1  0.14930639  0.33435040  0.58110124  1
  Na  Na7  1  0.65111294  0.33436720  0.58294341  1
  Na  Na8  1  0.01499354  0.69563372  0.58368259  1
  Na  Na9  1  0.51963118  0.70306497  0.58213810  1
  Na  Na10  1  0.33350198  0.96779111  0.58346544  1
  Na  Na11  1  0.83155023  0.96294241  0.58251016  1
  Na  Na12  1  0.15019330  0.96550765  0.08130569  1
  Na  Na13  1  0.65086574  0.96664652  0.08088721  1
  Na  Na14  1  0.33237768  0.69981061  0.08292454  1
  Na  Na15  1  0.83184861  0.70032139  0.08274223  1
  Na  Na16  1  0.01770631  0.33626606  0.08297845  1
  Na  Na17  1  0.51843437  0.33579551  0.08303393  1
  Na  Na18  1  0.48318066  0.66801145  0.91663977  1
  Na  Na19  1  0.98087561  0.66224528  0.91725248  1
  Na  Na20  1  0.35085172  0.03545067  0.91664197  1
  Na  Na21  1  0.85018063  0.03697917  0.91725354  1
  Na  Na22  1  0.16655629  0.30159365  0.91920081  1
  Na  Na23  1  0.66806728  0.29741742  0.91740355  1
  Na  Na24  1  0.48403032  0.30098692  0.41616935  1
  Na  Na25  1  0.98084057  0.29866513  0.41730492  1
  Na  Na26  1  0.16583186  0.03000643  0.41789504  1
  Na  Na27  1  0.66833489  0.03690767  0.41938518  1
  Na  Na28  1  0.35063954  0.66585776  0.41587811  1
  Na  Na29  1  0.84958652  0.66326797  0.41726301  1
  Na  Na30  1  0.99945566  0.99903938  0.49974305  1
  Na  Na31  1  0.50031423  0.99971355  0.50032979  1
  Na  Na32  1  -0.00003063  0.00085352  0.00040147  1
  Na  Na33  1  0.50005560  0.00036122  0.99989135  1
  Na  Na34  1  0.33326607  0.32739706  0.83383081  1
  Na  Na35  1  0.83715400  0.33448818  0.83135040  1
  Na  Na36  1  0.33674710  0.34474816  0.33004820  1
  Na  Na37  1  0.83614847  0.34385635  0.33150667  1
  Na  Na38  1  0.16419754  0.65572210  0.16855745  1
  Na  Na39  1  0.66450990  0.65552922  0.16860898  1
  Na  Na40  1  0.16361645  0.67289008  0.66919234  1
  Na  Na41  1  0.66737039  0.66754627  0.66679470  1
  Si  Si0  1  0.34808432  0.69365416  0.24992019  1
  Si  Si1  1  0.84755380  0.69236792  0.24965751  1
  Si  Si2  1  0.00093321  0.30645236  0.24980590  1
  Si  Si3  1  0.50163511  0.30713200  0.25005211  1
  Si  Si4  1  0.65041133  0.30035086  0.75053319  1
  Si  Si5  1  0.00244765  0.69848267  0.74983225  1
  Si  Si6  1  0.50177104  0.70477853  0.75152145  1
  Si  Si7  1  0.34717362  0.99301149  0.75168027  1
  Si  Si8  1  0.85166595  0.00511403  0.75042082  1
  Si  Si9  1  0.48428464  0.33906557  0.58118592  1
  Si  Si10  1  0.97328099  0.33243938  0.58389490  1
  Si  Si11  1  0.18630018  0.04095224  0.58298073  1
  Si  Si12  1  0.69303984  0.04789911  0.58231796  1
  Si  Si13  1  0.33305171  0.62546926  0.58427835  1
  Si  Si14  1  0.82990186  0.61128854  0.58186074  1
  Si  Si15  1  0.48198772  0.62566086  0.08300767  1
  Si  Si16  1  0.97845832  0.61898258  0.08070050  1
  Si  Si17  1  0.33034560  0.04338703  0.08452990  1
  Si  Si18  1  0.83015957  0.04965140  0.08259103  1
  Si  Si19  1  0.19009181  0.33645580  0.08501757  1
  Si  Si20  1  0.69351810  0.33744070  0.08281413  1
  Si  Si21  1  0.30580704  0.66673126  0.91574266  1
  Si  Si22  1  0.80662563  0.66014635  0.91867750  1
  Si  Si23  1  0.02439541  0.38637812  0.91717369  1
  Si  Si24  1  0.52678858  0.38723528  0.91658703  1
  Si  Si25  1  0.16680059  0.95200805  0.91829056  1
  Si  Si26  1  0.66907110  0.95270743  0.91826468  1
  Si  Si27  1  0.30827158  0.95047951  0.41384343  1
  Si  Si28  1  0.80540251  0.95069191  0.41729354  1
  Si  Si29  1  0.16625724  0.37451254  0.41543252  1
  Si  Si30  1  0.66941702  0.38113198  0.41915890  1
  Si  Si31  1  0.02110430  0.66236983  0.41463767  1
  Si  Si32  1  0.52805077  0.66816653  0.41566634  1
  Sn  Sn0  1  0.99310750  0.99499331  0.35117256  1
  Sn  Sn1  1  0.49658809  0.99751012  0.35141668  1
  Sn  Sn2  1  0.99476802  0.99169876  0.85337218  1
  Sn  Sn3  1  0.50073901  0.00223942  0.85278125  1
  Sn  Sn4  1  0.99498790  0.98696571  0.64742010  1
  Sn  Sn5  1  0.50116207  0.00146042  0.64916967  1
  Sn  Sn6  1  0.99570120  0.00259425  0.14814320  1
  Sn  Sn7  1  0.49778463  0.00488420  0.14880313  1
  Sn  Sn8  1  0.33679785  0.33058785  0.68379606  1
  Sn  Sn9  1  0.33359843  0.33592065  0.98070369  1
  Sn  Sn10  1  0.33387154  0.33304292  0.47939486  1
  Sn  Sn11  1  0.16454998  0.66405002  0.51878256  1
  Ge  Ge0  1  0.83563076  0.33502225  0.68666602  1
  Ge  Ge1  1  0.34325240  0.35393403  0.18282725  1
  Ge  Ge2  1  0.84324142  0.35395317  0.18226285  1
  Ge  Ge3  1  0.83286207  0.33313269  0.98053773  1
  Ge  Ge4  1  0.83308467  0.33152886  0.48060228  1
  Ge  Ge5  1  0.16606963  0.66590901  0.01969936  1
  Ge  Ge6  1  0.66724430  0.66738268  0.01980658  1
  Ge  Ge7  1  0.66734821  0.66741264  0.51917602  1
  Ge  Ge8  1  0.16530240  0.64654791  0.31620524  1
  Ge  Ge9  1  0.66711557  0.64636463  0.31738444  1
  Ge  Ge10  1  0.16438061  0.68251075  0.81743267  1
  Ge  Ge11  1  0.66872613  0.66911491  0.81461522  1
  S  S0  1  0.14780094  0.00007646  0.24994832  1
  S  S1  1  0.64837953  0.00031658  0.24998422  1
  S  S2  1  0.14625288  0.29512175  0.75056619  1
  O  O0  1  0.10762083  0.02911908  0.30470360  1
  O  O1  1  0.60833653  0.03004470  0.30484924  1
  O  O2  1  0.40974315  0.77808604  0.30982968  1
  O  O3  1  0.90910630  0.77672354  0.30932348  1
  O  O4  1  0.47845198  0.17705877  0.30852789  1
  O  O5  1  0.97798805  0.17750174  0.30855860  1
  O  O6  1  0.10743244  0.18682128  0.80504371  1
  O  O7  1  0.61020388  0.17399728  0.80913777  1
  O  O8  1  0.47814240  0.78379784  0.81013061  1
  O  O9  1  0.97952776  0.78183155  0.80907482  1
  O  O10  1  0.41221072  0.04215748  0.81003387  1
  O  O11  1  0.91182961  0.04196304  0.81037772  1
  O  O12  1  0.38882674  0.95373137  0.69148968  1
  O  O13  1  0.89053310  0.95479979  0.69147170  1
  O  O14  1  0.09373428  0.21481427  0.69516297  1
  O  O15  1  0.58657235  0.22197057  0.69154723  1
  O  O16  1  0.02182485  0.82204858  0.69047118  1
  O  O17  1  0.52246155  0.82442481  0.69137768  1
  O  O18  1  0.39009272  0.82345544  0.19150796  1
  O  O19  1  0.88927876  0.82275553  0.19117324  1
  O  O20  1  0.02029088  0.22142357  0.19034375  1
  O  O21  1  0.52076026  0.22271930  0.19021250  1
  O  O22  1  0.09299988  0.97047497  0.19496228  1
  O  O23  1  0.59328431  0.97066764  0.19522950  1
  O  O24  1  0.44682739  0.38375064  0.64168936  1
  O  O25  1  0.93024562  0.37223127  0.64157674  1
  O  O26  1  0.24899269  0.12274850  0.64102770  1
  O  O27  1  0.75274826  0.13242350  0.64272066  1
  O  O28  1  0.31137892  0.50362563  0.64402492  1
  O  O29  1  0.81252665  0.49457536  0.64244034  1
  O  O30  1  0.43847182  0.49558483  0.13971347  1
  O  O31  1  0.93858012  0.49588125  0.13952647  1
  O  O32  1  0.31250297  0.13405648  0.14363270  1
  O  O33  1  0.81269819  0.13518619  0.14331871  1
  O  O34  1  0.25664525  0.37321583  0.14115681  1
  O  O35  1  0.75692937  0.37368154  0.14097610  1
  O  O36  1  0.22401755  0.28939446  0.02304347  1
  O  O37  1  0.73323707  0.29543172  0.02204952  1
  O  O38  1  0.42081838  0.55536369  0.02293074  1
  O  O39  1  0.91459324  0.53606233  0.02185381  1
  O  O40  1  0.35410120  0.16172695  0.02394837  1
  O  O41  1  0.85164436  0.17351953  0.02299233  1
  O  O42  1  0.22430984  0.15965927  0.52268879  1
  O  O43  1  0.73388586  0.17106520  0.52252797  1
  O  O44  1  0.35423310  0.54724501  0.52426147  1
  O  O45  1  0.85173241  0.52985655  0.52223740  1
  O  O46  1  0.41993828  0.28969130  0.52310209  1
  O  O47  1  0.91454479  0.29327825  0.52207493  1
  O  O48  1  0.26466968  0.70355853  0.97687234  1
  O  O49  1  0.76564503  0.70330916  0.97790948  1
  O  O50  1  0.08568058  0.46635312  0.97780223  1
  O  O51  1  0.58634684  0.46960947  0.97740578  1
  O  O52  1  0.14672239  0.82965997  0.97783335  1
  O  O53  1  0.64839595  0.82822958  0.97748940  1
  O  O54  1  0.27295159  0.83734714  0.47546226  1
  O  O55  1  0.76523504  0.82691465  0.47685073  1
  O  O56  1  0.14354808  0.44476335  0.47681692  1
  O  O57  1  0.64688060  0.46421366  0.47759439  1
  O  O58  1  0.07901811  0.71111535  0.47649902  1
  O  O59  1  0.58583108  0.70456128  0.47759238  1
  O  O60  1  0.06933733  0.62650382  0.35855556  1
  O  O61  1  0.57254189  0.63035650  0.35792023  1
  O  O62  1  0.24447673  0.86060429  0.35523837  1
  O  O63  1  0.74554614  0.86541471  0.35641763  1
  O  O64  1  0.18833015  0.50484184  0.35930180  1
  O  O65  1  0.69074805  0.50399161  0.36024117  1
  O  O66  1  0.06887153  0.51134757  0.85900316  1
  O  O67  1  0.56860112  0.50698840  0.85658096  1
  O  O68  1  0.18849131  0.87231508  0.85949553  1
  O  O69  1  0.68701880  0.86874472  0.85760162  1
  O  O70  1  0.24413233  0.62798942  0.85561416  1
  O  O71  1  0.74819859  0.62672347  0.85764284  1
  O  O72  1  0.01223325  0.83694182  0.40935853  1
  O  O73  1  0.51741038  0.84127979  0.41120771  1
  O  O74  1  0.40581367  0.97419300  0.41209659  1
  O  O75  1  0.90289993  0.97304094  0.41412029  1
  O  O76  1  0.08103036  0.18145295  0.40887694  1
  O  O77  1  0.58334288  0.18797799  0.41109128  1
  O  O78  1  0.01538701  0.19288066  0.91178319  1
  O  O79  1  0.51564848  0.19299857  0.91363194  1
  O  O80  1  0.08132596  0.97568940  0.91183250  1
  O  O81  1  0.58237312  0.97298643  0.91387499  1
  O  O82  1  0.40329697  0.83831967  0.91323446  1
  O  O83  1  0.90364097  0.83392226  0.91526992  1
  O  O84  1  0.49080746  0.16383537  0.58686810  1
  O  O85  1  0.98661984  0.16272975  0.58966465  1
  O  O86  1  0.09158234  0.02786708  0.58827636  1
  O  O87  1  0.59597810  0.02603330  0.58686366  1
  O  O88  1  0.42008059  0.81584281  0.58801179  1
  O  O89  1  0.91636333  0.80598713  0.58496540  1
  O  O90  1  0.49271143  0.81792984  0.09114020  1
  O  O91  1  0.98932608  0.81260006  0.08871650  1
  O  O92  1  0.41664423  0.02156000  0.08769432  1
  O  O93  1  0.91642804  0.02670420  0.08574557  1
  O  O94  1  0.09378722  0.16143662  0.09028976  1
  O  O95  1  0.59660344  0.16345743  0.08840065  1
  O  O96  1  0.34386592  0.17251251  0.74671025  1
  O  O97  1  0.83948898  0.17240853  0.74245415  1
  O  O98  1  0.23373923  0.31352210  0.74661268  1
  O  O99  1  0.74468146  0.31461859  0.74219503  1
  O  O100  1  0.41237648  0.51549838  0.74667855  1
  O  O101  1  0.91078059  0.51561169  0.74184940  1
  O  O102  1  0.34079356  0.50430717  0.24125918  1
  O  O103  1  0.84067033  0.50391931  0.24103112  1
  O  O104  1  0.40795848  0.30393441  0.24117537  1
  O  O105  1  0.90768032  0.30405847  0.24106016  1
  O  O106  1  0.23399326  0.15546386  0.24521839  1
  O  O107  1  0.73420133  0.15605915  0.24526122  1
  O  O108  1  0.31733825  0.49533916  0.91904109  1
  O  O109  1  0.81854964  0.48851207  0.92379693  1
  O  O110  1  0.42944534  0.36413609  0.91969611  1
  O  O111  1  0.92647167  0.36181556  0.92366910  1
  O  O112  1  0.25257301  0.14472975  0.92058736  1
  O  O113  1  0.75564621  0.14786809  0.92383878  1
  O  O114  1  0.31871763  0.14322929  0.41753548  1
  O  O115  1  0.81789709  0.14673364  0.42332300  1
  O  O116  1  0.25343094  0.35894673  0.41880106  1
  O  O117  1  0.75553686  0.35958927  0.42468675  1
  O  O118  1  0.43047763  0.49774447  0.41948303  1
  O  O119  1  0.92469734  0.48846774  0.42192978  1
  O  O120  1  0.18007775  0.50972546  0.07795995  1
  O  O121  1  0.68143522  0.50910653  0.07654191  1
  O  O122  1  0.07534960  0.63989609  0.07515764  1
  O  O123  1  0.57742916  0.64136094  0.07673101  1
  O  O124  1  0.24363662  0.84933594  0.07770257  1
  O  O125  1  0.74480534  0.85333385  0.07660722  1
  O  O126  1  0.17720992  0.85079267  0.57969713  1
  O  O127  1  0.68178237  0.85251621  0.57612296  1
  O  O128  1  0.24632706  0.64232600  0.58014020  1
  O  O129  1  0.74500908  0.63781673  0.57575080  1
  O  O130  1  0.07035799  0.50268059  0.58007373  1
  O  O131  1  0.57906631  0.51467552  0.57516351  1
  O  O132  1  0.15624562  0.84463613  0.25462144  1
  O  O133  1  0.65645682  0.84499273  0.25467029  1
  O  O134  1  0.25579358  0.69539987  0.25816248  1
  O  O135  1  0.75584547  0.69592793  0.25858076  1
  O  O136  1  0.08825950  0.49570717  0.25807497  1
  O  O137  1  0.58890340  0.49590013  0.25861038  1
  O  O138  1  0.15556069  0.46736770  0.75521579  1
  O  O139  1  0.65729755  0.49030170  0.75809784  1
  O  O140  1  0.08936459  0.68239063  0.75860681  1
  O  O141  1  0.58857928  0.68760603  0.75807770  1
  O  O142  1  0.25481332  0.81079535  0.75896470  1
  O  O143  1  0.75675606  0.82554250  0.75801354  1
loop_
_geom_bond_atom_site_label_1
_geom_bond_atom_site_label_2
_geom_bond_distance
_geom_bond_site_symmetry_2
Na0 O104 2.368766 1_565
Na0 O134 2.370608 1_555
Na0 O132 2.516704 1_555
Na0 O106 2.519049 1_565
Na0 O62 2.669043 1_555
Na0 O32 2.672124 1_565
Na0 O18 2.777193 1_555
Na0 O4 2.778303 1_565
Na1 O105 2.368243 1_555
Na1 O135 2.369138 1_545
Na1 O133 2.510888 1_545
Na1 O107 2.516167 1_555
Na1 O63 2.674375 1_545
Na1 O33 2.683398 1_555
Na1 O5 2.773071 1_555
Na1 O19 2.780244 1_545
Na2 O142 2.319966 1_555
Na2 O100 2.423088 1_555
Na2 O138 2.524734 1_555
Na2 O98 2.526610 1_555
Na2 O28 2.632426 1_555
Na2 O70 2.643523 1_555
Na2 O12 2.768499 1_555
Na2 O8 2.779021 1_555
Na3 O101 2.376768 1_555
Na3 O143 2.444594 1_555
Na3 O99 2.476995 1_555
Na3 O139 2.488193 1_555
Na3 O29 2.651742 1_555
Na3 O71 2.679531 1_555
Na3 O13 2.799047 1_555
Na3 O9 2.819205 1_555
Na4 O139 2.415074 1_555
Na4 O96 2.460663 1_555
Na4 O141 2.496260 1_555
Na4 O100 2.549365 1_555
Na4 O67 2.624729 1_555
Na4 O24 2.652730 1_555
Na4 O15 2.750241 1_555
Na4 O10 2.823998 1_555
Na5 O97 2.399049 1_555
Na5 O99 2.441969 1_555
Na5 O141 2.456922 1_545
Na5 O143 2.488061 1_545
Na5 O27 2.652108 1_555
Na5 O69 2.683705 1_545
Na5 O7 2.803928 1_555
Na5 O17 2.812077 1_545
Na6 O86 2.397465 1_555
Na6 O128 2.405256 1_555
Na6 O130 2.518837 1_555
Na6 O85 2.519214 1_455
Na6 O56 2.534389 1_555
Na6 O14 2.731017 1_555
Na6 O42 2.819369 1_555
Na6 O28 2.857087 1_555
Na7 O129 2.371773 1_555
Na7 O87 2.415722 1_555
Na7 O84 2.476842 1_555
Na7 O131 2.515843 1_555
Na7 O57 2.624784 1_555
Na7 O15 2.641001 1_555
Na7 O29 2.811667 1_555
Na7 O43 2.866231 1_555
Na8 O130 2.374251 1_555
Na8 O89 2.405475 1_455
Na8 O126 2.505340 1_555
Na8 O86 2.570091 1_565
Na8 O16 2.588628 1_555
Na8 O58 2.606312 1_555
Na8 O25 2.815024 1_455
Na8 O45 2.856979 1_455
Na9 O131 2.396896 1_555
Na9 O88 2.440748 1_555
Na9 O87 2.497303 1_565
Na9 O127 2.508224 1_555
Na9 O59 2.594145 1_555
Na9 O17 2.632804 1_555
Na9 O24 2.806137 1_555
Na9 O44 2.851371 1_555
Na10 O126 2.437504 1_555
Na10 O84 2.452392 1_565
Na10 O88 2.513374 1_555
Na10 O128 2.516424 1_555
Na10 O12 2.610843 1_555
Na10 O54 2.633434 1_555
Na10 O26 2.804680 1_565
Na10 O46 2.831497 1_565
Na11 O127 2.340646 1_555
Na11 O85 2.430055 1_565
Na11 O129 2.516312 1_555
Na11 O89 2.522167 1_555
Na11 O55 2.619373 1_555
Na11 O13 2.643730 1_555
Na11 O27 2.852463 1_565
Na11 O47 2.887874 1_565
Na12 O124 2.361274 1_555
Na12 O94 2.419929 1_565
Na12 O91 2.488907 1_455
Na12 O122 2.520519 1_555
Na12 O52 2.570460 1_554
Na12 O22 2.722186 1_555
Na12 O36 2.824147 1_565
Na12 O32 2.853769 1_565
Na13 O125 2.349887 1_555
Na13 O95 2.395358 1_565
Na13 O90 2.452836 1_555
Na13 O123 2.517517 1_555
Na13 O53 2.583428 1_554
Na13 O23 2.737183 1_555
Na13 O33 2.848514 1_565
Na13 O37 2.860812 1_565
Na14 O120 2.375947 1_555
Na14 O92 2.487519 1_565
Na14 O90 2.507822 1_555
Na14 O124 2.529950 1_555
Na14 O18 2.622076 1_555
Na14 O48 2.644290 1_554
Na14 O38 2.814530 1_555
Na14 O34 2.841547 1_555
Na15 O121 2.352494 1_555
Na15 O91 2.465600 1_555
Na15 O93 2.521829 1_565
Na15 O125 2.530423 1_555
Na15 O49 2.606396 1_554
Na15 O19 2.615715 1_555
Na15 O35 2.842457 1_555
Na15 O39 2.877226 1_555
Na16 O122 2.375203 1_555
Na16 O93 2.429363 1_455
Na16 O120 2.510034 1_555
Na16 O94 2.531800 1_555
Na16 O20 2.600218 1_555
Na16 O50 2.617749 1_554
Na16 O31 2.751728 1_455
Na16 O41 2.880325 1_455
Na17 O123 2.385503 1_555
Na17 O92 2.464582 1_555
Na17 O121 2.521250 1_555
Na17 O95 2.541241 1_555
Na17 O21 2.589084 1_555
Na17 O51 2.633768 1_554
Na17 O30 2.765750 1_555
Na17 O40 2.848538 1_555
Na18 O110 2.381876 1_555
Na18 O81 2.391597 1_555
Na18 O82 2.549676 1_555
Na18 O108 2.560166 1_555
Na18 O38 2.585359 1_556
Na18 O8 2.596167 1_555
Na18 O53 2.877769 1_555
Na18 O67 2.883587 1_555
Na19 O111 2.354960 1_555
Na19 O80 2.456105 1_655
Na19 O109 2.511320 1_555
Na19 O83 2.519325 1_555
Na19 O39 2.591695 1_556
Na19 O9 2.629345 1_555
Na19 O66 2.833175 1_655
Na19 O52 2.883229 1_655
Na20 O82 2.368852 1_545
Na20 O112 2.393564 1_555
Na20 O110 2.539963 1_555
Na20 O79 2.544409 1_555
Na20 O10 2.588646 1_555
Na20 O40 2.610227 1_556
Na20 O68 2.800897 1_545
Na20 O48 2.896972 1_545
Na21 O113 2.345342 1_555
Na21 O83 2.431675 1_545
Na21 O111 2.513624 1_555
Na21 O78 2.553464 1_655
Na21 O11 2.599045 1_555
Na21 O41 2.625593 1_556
Na21 O69 2.837355 1_545
Na21 O49 2.913056 1_545
Na22 O108 2.357884 1_555
Na22 O78 2.367652 1_555
Na22 O80 2.522228 1_545
Na22 O36 2.538304 1_556
Na22 O112 2.539848 1_555
Na22 O6 2.724414 1_555
Na22 O50 2.831748 1_555
Na22 O70 2.895426 1_555
Na23 O109 2.353514 1_555
Na23 O79 2.391060 1_555
Na23 O81 2.507767 1_545
Na23 O113 2.513180 1_555
Na23 O37 2.592240 1_556
Na23 O7 2.615700 1_555
Na23 O71 2.874111 1_555
Na23 O51 2.908672 1_555
Na24 O118 2.380810 1_555
Na24 O77 2.437537 1_555
Na24 O74 2.525880 1_545
Na24 O114 2.551592 1_555
Na24 O4 2.600734 1_555
Na24 O46 2.608066 1_555
Na24 O57 2.851141 1_555
Na24 O61 2.860966 1_555
Na25 O119 2.359721 1_555
Na25 O76 2.485649 1_655
Na25 O75 2.516344 1_545
Na25 O115 2.519804 1_555
Na25 O47 2.592010 1_555
Na25 O5 2.622045 1_555
Na25 O56 2.833559 1_655
Na25 O60 2.855764 1_655
Na26 O114 2.384904 1_555
Na26 O72 2.402447 1_545
Na26 O76 2.487812 1_555
Na26 O116 2.542285 1_555
Na26 O42 2.560837 1_555
Na26 O0 2.707123 1_555
Na26 O58 2.793385 1_545
Na26 O62 2.875375 1_545
Na27 O115 2.335586 1_555
Na27 O73 2.368618 1_545
Na27 O77 2.486691 1_555
Na27 O117 2.496900 1_555
Na27 O43 2.563033 1_555
Na27 O1 2.736826 1_555
Na27 O63 2.873901 1_545
Na27 O59 2.879010 1_545
Na28 O116 2.399395 1_555
Na28 O74 2.415492 1_555
Na28 O118 2.532012 1_555
Na28 O2 2.566619 1_555
Na28 O73 2.576676 1_555
Na28 O44 2.638568 1_555
Na28 O64 2.794618 1_555
Na28 O54 2.844930 1_555
Na29 O117 2.374136 1_555
Na29 O75 2.432619 1_555
Na29 O119 2.513796 1_555
Na29 O72 2.518162 1_655
Na29 O3 2.608638 1_555
Na29 O45 2.623049 1_555
Na29 O65 2.751262 1_555
Na29 O55 2.881876 1_555
Na30 O86 2.481794 1_665
Na30 O75 2.487539 1_555
Na30 O89 2.489709 1_555
Na30 O72 2.537827 1_655
Na30 O85 2.538917 1_565
Na30 O76 2.544172 1_665
Na31 O84 2.460975 1_565
Na31 O88 2.487432 1_555
Na31 O87 2.492028 1_565
Na31 O74 2.509750 1_555
Na31 O73 2.525848 1_555
Na31 O77 2.541450 1_565
Na32 O83 2.473144 1_444
Na32 O93 2.485461 1_455
Na32 O80 2.513354 1_544
Na32 O94 2.523372 1_555
Na32 O91 2.526875 1_445
Na32 O78 2.532608 1_554
Na33 O81 2.488067 1_545
Na33 O82 2.491376 1_545
Na33 O79 2.495003 1_555
Na33 O92 2.510013 1_556
Na33 O95 2.523563 1_556
Na33 O90 2.560776 1_546
Na34 O96 2.427520 1_555
Na34 O110 2.464630 1_555
Na34 O112 2.469446 1_555
Na34 O100 2.488050 1_555
Na34 O108 2.504996 1_555
Na34 O98 2.578798 1_555
Na35 O97 2.447452 1_555
Na35 O101 2.483445 1_555
Na35 O99 2.516029 1_555
Na35 O111 2.521881 1_555
Na35 O109 2.570524 1_555
Na35 O113 2.585971 1_555
Na36 O102 2.410814 1_555
Na36 O104 2.463160 1_555
Na36 O118 2.499982 1_555
Na36 O116 2.503137 1_555
Na36 O114 2.556563 1_555
Na36 O106 2.567339 1_555
Na37 O103 2.441777 1_555
Na37 O119 2.466597 1_555
Na37 O105 2.490771 1_555
Na37 O117 2.556550 1_555
Na37 O107 2.580834 1_555
Na37 O115 2.604909 1_555
Na38 O136 2.427065 1_555
Na38 O134 2.474553 1_555
Na38 O120 2.476967 1_555
Na38 O122 2.560945 1_555
Na38 O124 2.572929 1_555
Na38 O132 2.586624 1_555
Na39 O137 2.433216 1_555
Na39 O135 2.477119 1_555
Na39 O121 2.512470 1_555
Na39 O123 2.519105 1_555
Na39 O133 2.590581 1_555
Na39 O125 2.611125 1_555
Na40 O140 2.405277 1_555
Na40 O142 2.462638 1_555
Na40 O126 2.478308 1_555
Na40 O130 2.527927 1_555
Na40 O128 2.555186 1_555
Na40 O138 2.602360 1_555
Na41 O131 2.502250 1_555
Na41 O143 2.512407 1_555
Na41 O141 2.516659 1_555
Na41 O139 2.521442 1_555
Na41 O129 2.531233 1_555
Na41 O127 2.533649 1_555
Ge0 O25 1.842276 1_555
Ge0 O101 1.922626 1_555
Ge0 O27 1.923791 1_555
Ge0 O97 1.935878 1_555
Ge0 O29 1.936374 1_555
Ge0 O99 1.969582 1_555
Ge1 O30 1.804325 1_555
Ge1 O102 1.874272 1_555
Ge1 O34 1.876958 1_555
Ge1 O104 1.925917 1_555
Ge1 O32 1.950675 1_555
Ge1 O106 2.326205 1_555
Ge2 O31 1.801724 1_555
Ge2 O35 1.870261 1_555
Ge2 O103 1.877527 1_555
Ge2 O105 1.928714 1_555
Ge2 O33 1.940515 1_555
Ge2 O107 2.330717 1_555
Ge3 O41 1.873180 1_556
Ge3 O37 1.875222 1_556
Ge3 O39 1.890993 1_556
Ge3 O113 1.974206 1_555
Ge3 O109 1.982414 1_555
Ge3 O111 2.002629 1_555
Ge4 O45 1.866238 1_555
Ge4 O43 1.875882 1_555
Ge4 O47 1.886447 1_555
Ge4 O117 1.960936 1_555
Ge4 O115 1.981779 1_555
Ge4 O119 2.011326 1_555
Ge5 O50 1.873197 1_554
Ge5 O48 1.874315 1_554
Ge5 O52 1.903938 1_554
Ge5 O122 1.950221 1_555
Ge5 O124 1.986446 1_555
Ge5 O120 2.006858 1_555
Ge6 O49 1.865420 1_554
Ge6 O51 1.872433 1_554
Ge6 O53 1.881694 1_554
Ge6 O123 1.958553 1_555
Ge6 O125 1.980304 1_555
Ge6 O121 2.001171 1_555
Ge7 O55 1.864753 1_555
Ge7 O59 1.882954 1_555
Ge7 O57 1.893463 1_555
Ge7 O131 1.934286 1_555
Ge7 O129 1.978323 1_555
Ge7 O127 1.983032 1_555
Ge8 O64 1.789827 1_555
Ge8 O136 1.865171 1_555
Ge8 O60 1.879438 1_555
Ge8 O62 1.915047 1_555
Ge8 O134 1.935239 1_555
Ge8 O132 2.304471 1_555
Ge9 O65 1.798197 1_555
Ge9 O61 1.851341 1_555
Ge9 O137 1.881666 1_555
Ge9 O135 1.922964 1_555
Ge9 O63 1.940350 1_555
Ge9 O133 2.336259 1_555
Ge10 O68 1.781047 1_555
Ge10 O140 1.863626 1_555
Ge10 O66 1.868397 1_555
Ge10 O70 1.913161 1_555
Ge10 O142 1.937332 1_555
Ge10 O138 2.296172 1_555
Ge11 O67 1.889962 1_555
Ge11 O69 1.892779 1_555
Ge11 O71 1.894368 1_555
Ge11 O139 1.950039 1_555
Ge11 O143 1.951169 1_555
Ge11 O141 1.965363 1_555
O0 S0 1.493584 1_555
O0 Sn0 2.167567 1_445
O1 S1 1.496676 1_555
O1 Sn1 2.130454 1_545
O2 Si0 1.639782 1_555
O2 Sn1 2.005095 1_555
O3 Si1 1.634533 1_555
O3 Sn0 1.987802 1_555
O4 Si3 1.651065 1_555
O4 Sn1 2.024856 1_545
O5 Si2 1.650524 1_655
O5 Sn0 2.015755 1_545
O6 S2 1.486118 1_555
O6 Sn2 2.174867 1_445
O7 Si4 1.634790 1_555
O7 Sn3 2.028069 1_555
O8 Si6 1.625889 1_555
O8 Sn3 2.011049 1_565
O9 Si5 1.652796 1_655
O9 Sn2 2.002583 1_555
O10 Si7 1.638059 1_545
O10 Sn3 2.017214 1_555
O11 Si8 1.629521 1_555
O11 Sn2 1.987843 1_545
O12 Si7 1.644296 1_555
O12 Sn5 2.054055 1_565
O13 Si8 1.639566 1_565
O13 Sn4 1.991973 1_555
O14 S2 1.486071 1_555
O14 Sn4 2.176822 1_445
O15 Si4 1.636012 1_555
O15 Sn5 2.011791 1_555
O16 Si5 1.640832 1_555
O16 Sn4 2.003613 1_455
O17 Si6 1.632754 1_555
O17 Sn5 2.030074 1_565
O18 Si0 1.649253 1_555
O18 Sn7 2.026354 1_565
O19 Si1 1.652509 1_555
O19 Sn6 2.012769 1_565
O20 Si2 1.636075 1_555
O20 Sn6 1.999589 1_455
O21 Si3 1.637870 1_555
O21 Sn7 1.991820 1_555
O22 S0 1.496016 1_565
O22 Sn6 2.157320 1_465
O23 S1 1.494769 1_565
O23 Sn7 2.135423 1_565
O24 Si9 1.630343 1_555
O24 Sn8 2.003495 1_555
O25 Si10 1.616060 1_555
O26 Si11 1.612573 1_555
O26 Sn8 1.963958 1_555
O27 Si12 1.633804 1_555
O28 Si13 1.634618 1_555
O28 Sn8 2.017850 1_555
O29 Si14 1.633133 1_555
O30 Si15 1.623932 1_555
O31 Si16 1.624577 1_555
O32 Si17 1.646720 1_555
O33 Si18 1.646598 1_555
O34 Si19 1.630537 1_555
O35 Si20 1.631772 1_555
O36 Si19 1.634207 1_555
O36 Sn9 2.014589 1_554
O37 Si20 1.646228 1_555
O38 Si15 1.628265 1_555
O38 Sn9 2.013541 1_554
O39 Si16 1.637355 1_555
O40 Si17 1.630046 1_555
O40 Sn9 2.010728 1_554
O41 Si18 1.642329 1_555
O42 Si11 1.629982 1_555
O42 Sn10 2.029433 1_555
O43 Si12 1.643848 1_555
O44 Si13 1.626905 1_555
O44 Sn10 2.013357 1_555
O45 Si14 1.640824 1_555
O46 Si9 1.626165 1_555
O46 Sn10 2.006942 1_555
O47 Si10 1.647055 1_555
O48 Si21 1.646820 1_555
O49 Si22 1.635899 1_555
O50 Si23 1.645363 1_555
O51 Si24 1.637771 1_555
O52 Si25 1.636437 1_555
O53 Si26 1.640297 1_555
O54 Si27 1.628535 1_555
O54 Sn11 2.017544 1_555
O55 Si28 1.640898 1_555
O56 Si29 1.626724 1_555
O56 Sn11 2.018949 1_555
O57 Si30 1.634100 1_555
O58 Si31 1.633306 1_555
O58 Sn11 2.003153 1_555
O59 Si32 1.642851 1_555
O60 Si31 1.628832 1_555
O61 Si32 1.624494 1_555
O62 Si27 1.639967 1_555
O63 Si28 1.644331 1_555
O64 Si29 1.614084 1_555
O65 Si30 1.625431 1_555
O66 Si23 1.630598 1_555
O67 Si24 1.636396 1_555
O68 Si25 1.616353 1_555
O69 Si26 1.641361 1_555
O70 Si21 1.645449 1_555
O71 Si22 1.636142 1_555
O72 Si31 1.646371 1_555
O72 Sn0 2.063083 1_455
O73 Si32 1.650324 1_555
O73 Sn1 2.088459 1_555
O74 Si27 1.642752 1_555
O74 Sn1 2.032652 1_555
O75 Si28 1.647970 1_555
O75 Sn0 2.062312 1_555
O76 Si29 1.635104 1_555
O76 Sn0 2.053580 1_445
O77 Si30 1.644799 1_555
O77 Sn1 2.088978 1_545
O78 Si23 1.655037 1_555
O78 Sn2 2.083405 1_445
O79 Si24 1.643076 1_555
O79 Sn3 2.073977 1_555
O80 Si25 1.644736 1_555
O80 Sn2 2.070552 1_455
O81 Si26 1.645270 1_555
O81 Sn3 2.094523 1_565
O82 Si21 1.644525 1_555
O82 Sn3 2.103700 1_565
O83 Si22 1.648477 1_555
O83 Sn2 2.056647 1_555
O84 Si9 1.629489 1_555
O84 Sn5 2.077521 1_555
O85 Si10 1.650829 1_555
O85 Sn4 2.089062 1_545
O86 Si11 1.636584 1_555
O86 Sn4 2.046514 1_445
O87 Si12 1.643646 1_555
O87 Sn5 2.106914 1_555
O88 Si13 1.630680 1_555
O88 Sn5 2.058798 1_565
O89 Si14 1.648105 1_555
O89 Sn4 2.046418 1_555
O90 Si15 1.636657 1_555
O90 Sn7 2.059925 1_565
O91 Si16 1.647239 1_555
O91 Sn6 2.096993 1_565
O92 Si17 1.644887 1_555
O92 Sn7 2.037295 1_555
O93 Si18 1.650218 1_555
O93 Sn6 2.060858 1_555
O94 Si19 1.648543 1_555
O94 Sn6 2.060451 1_455
O95 Si20 1.651403 1_555
O95 Sn7 2.102070 1_555
O96 Si7 1.635403 1_545
O96 Sn8 2.033740 1_555
O97 Si8 1.621882 1_555
O98 S2 1.486089 1_555
O98 Sn8 2.248013 1_555
O99 Si4 1.630342 1_555
O100 Si6 1.645199 1_555
O100 Sn8 2.054101 1_555
O101 Si5 1.640400 1_655
O102 Si0 1.637928 1_555
O103 Si1 1.633081 1_555
O104 Si3 1.666133 1_555
O105 Si2 1.661785 1_655
O106 S0 1.470721 1_555
O107 S1 1.468282 1_555
O108 Si21 1.642934 1_555
O108 Sn9 2.096517 1_555
O109 Si22 1.651666 1_555
O110 Si24 1.642475 1_555
O110 Sn9 2.092663 1_555
O111 Si23 1.652501 1_655
O112 Si25 1.632230 1_545
O112 Sn9 2.066574 1_555
O113 Si26 1.654174 1_545
O114 Si27 1.635601 1_545
O114 Sn10 2.080919 1_555
O115 Si28 1.653121 1_545
O116 Si29 1.628531 1_555
O116 Sn10 2.057308 1_555
O117 Si30 1.643265 1_555
O118 Si32 1.642650 1_555
O118 Sn10 2.090985 1_555
O119 Si31 1.649391 1_655
O120 Si19 1.649932 1_555
O121 Si20 1.655674 1_555
O122 Si16 1.645643 1_455
O123 Si15 1.640918 1_555
O124 Si17 1.651507 1_565
O125 Si18 1.652268 1_565
O126 Si11 1.622325 1_565
O126 Sn11 2.059550 1_555
O127 Si12 1.656389 1_565
O128 Si13 1.627922 1_555
O128 Sn11 2.069214 1_555
O129 Si14 1.648997 1_555
O130 Si10 1.636762 1_455
O130 Sn11 2.081940 1_555
O131 Si9 1.636989 1_555
O132 S0 1.471449 1_565
O133 S1 1.466696 1_565
O134 Si0 1.662267 1_555
O135 Si1 1.661899 1_555
O136 Si2 1.634905 1_555
O137 Si3 1.632733 1_555
O138 S2 1.463449 1_555
O139 Si4 1.643903 1_555
O140 Si5 1.636368 1_555
O141 Si6 1.634837 1_555
O142 Si7 1.644200 1_555
O143 Si8 1.657483 1_565
