# generated using pymatgen
data_Ba10Al3Ge7
_symmetry_space_group_name_H-M   'P 1'
_cell_length_a   9.87842029
_cell_length_b   9.87842029
_cell_length_c   16.64067900
_cell_angle_alpha   90.00000000
_cell_angle_beta   90.00000000
_cell_angle_gamma   120.00000192
_symmetry_Int_Tables_number   1
_chemical_formula_structural   Ba10Al3Ge7
_chemical_formula_sum   'Ba20 Al6 Ge14'
_cell_volume   1406.29575480
_cell_formula_units_Z   2
loop_
 _symmetry_equiv_pos_site_id
 _symmetry_equiv_pos_as_xyz
  1  'x, y, z'
loop_
 _atom_site_type_symbol
 _atom_site_label
 _atom_site_symmetry_multiplicity
 _atom_site_fract_x
 _atom_site_fract_y
 _atom_site_fract_z
 _atom_site_occupancy
  Ba  Ba0  1  0.26020600  0.26020600  0.60322500  1
  Ba  Ba1  1  0.73979400  0.00000000  0.60322500  1
  Ba  Ba2  1  0.00000000  0.73979400  0.60322500  1
  Ba  Ba3  1  0.00000000  0.26020600  0.10322500  1
  Ba  Ba4  1  0.73979400  0.00000000  0.89677500  1
  Ba  Ba5  1  0.73979400  0.73979400  0.10322500  1
  Ba  Ba6  1  0.26020600  0.00000000  0.10322500  1
  Ba  Ba7  1  0.73979400  0.73979400  0.39677500  1
  Ba  Ba8  1  0.00000000  0.26020600  0.39677500  1
  Ba  Ba9  1  0.00000000  0.73979400  0.89677500  1
  Ba  Ba10  1  0.26020600  0.26020600  0.89677500  1
  Ba  Ba11  1  0.26020600  0.00000000  0.39677500  1
  Ba  Ba12  1  0.33333300  0.66666700  0.50000000  1
  Ba  Ba13  1  0.66666700  0.33333300  0.00000000  1
  Ba  Ba14  1  0.66666700  0.33333300  0.50000000  1
  Ba  Ba15  1  0.33333300  0.66666700  0.00000000  1
  Ba  Ba16  1  0.33333300  0.66666700  0.75000000  1
  Ba  Ba17  1  0.66666700  0.33333300  0.25000000  1
  Ba  Ba18  1  0.66666700  0.33333300  0.75000000  1
  Ba  Ba19  1  0.33333300  0.66666700  0.25000000  1
  Al  Al0  1  0.00000000  0.26958000  0.75000000  1
  Al  Al1  1  0.73042000  0.00000000  0.25000000  1
  Al  Al2  1  0.26958000  0.26958000  0.25000000  1
  Al  Al3  1  0.73042000  0.73042000  0.75000000  1
  Al  Al4  1  0.26958000  0.00000000  0.75000000  1
  Al  Al5  1  0.00000000  0.73042000  0.25000000  1
  Ge  Ge0  1  0.00000000  0.60605600  0.11737500  1
  Ge  Ge1  1  0.00000000  0.00000000  0.25000000  1
  Ge  Ge2  1  0.39394400  0.39394400  0.11737500  1
  Ge  Ge3  1  0.00000000  0.00000000  0.75000000  1
  Ge  Ge4  1  0.60605600  0.00000000  0.11737500  1
  Ge  Ge5  1  0.00000000  0.39394400  0.61737500  1
  Ge  Ge6  1  0.60605600  0.00000000  0.38262500  1
  Ge  Ge7  1  0.60605600  0.60605600  0.61737500  1
  Ge  Ge8  1  0.39394400  0.00000000  0.61737500  1
  Ge  Ge9  1  0.60605600  0.60605600  0.88262500  1
  Ge  Ge10  1  0.00000000  0.39394400  0.88262500  1
  Ge  Ge11  1  0.00000000  0.60605600  0.38262500  1
  Ge  Ge12  1  0.39394400  0.39394400  0.38262500  1
  Ge  Ge13  1  0.39394400  0.00000000  0.88262500  1
loop_
_geom_bond_atom_site_label_1
_geom_bond_atom_site_label_2
_geom_bond_distance
_geom_bond_site_symmetry_2
Ba0 Ge7 3.424556 1_555
Ba0 Ge8 3.435655 1_555
Ba0 Ge5 3.435655 1_555
Ba0 Ge3 3.545782 1_555
Ba0 Ge12 3.901425 1_555
Ba1 Ge8 3.424556 1_555
Ba1 Ge5 3.435655 1_655
Ba1 Ge7 3.435655 1_545
Ba1 Ge3 3.545782 1_655
Ba1 Ge6 3.901425 1_555
Ba2 Ge5 3.424556 1_555
Ba2 Ge8 3.435655 1_565
Ba2 Ge7 3.435655 1_455
Ba2 Ge3 3.545782 1_565
Ba2 Ge11 3.901425 1_555
Ba3 Ge0 3.424556 1_555
Ba3 Ge4 3.435655 1_455
Ba3 Ge2 3.435655 1_555
Ba3 Ge1 3.545782 1_555
Ba3 Ge10 3.901425 1_554
Ba4 Ge13 3.424556 1_555
Ba4 Ge10 3.435655 1_655
Ba4 Ge9 3.435655 1_545
Ba4 Ge3 3.545782 1_655
Ba4 Ge4 3.901425 1_556
Ba5 Ge2 3.424556 1_555
Ba5 Ge0 3.435655 1_655
Ba5 Ge4 3.435655 1_565
Ba5 Ge1 3.545782 1_665
Ba5 Ge9 3.901425 1_554
Ba6 Ge4 3.424556 1_555
Ba6 Ge0 3.435655 1_545
Ba6 Ge2 3.435655 1_555
Ba6 Ge1 3.545782 1_555
Ba6 Ge13 3.901425 1_554
Ba7 Ge12 3.424556 1_555
Ba7 Ge6 3.435655 1_565
Ba7 Ge11 3.435655 1_655
Ba7 Ge1 3.545782 1_665
Ba7 Ge7 3.901425 1_555
Ba8 Ge11 3.424556 1_555
Ba8 Ge6 3.435655 1_455
Ba8 Ge12 3.435655 1_555
Ba8 Ge1 3.545782 1_555
Ba8 Ge5 3.901425 1_555
Ba9 Ge10 3.424556 1_555
Ba9 Ge13 3.435655 1_565
Ba9 Ge9 3.435655 1_455
Ba9 Ge3 3.545782 1_565
Ba9 Ge0 3.901425 1_556
Ba10 Ge9 3.424556 1_555
Ba10 Ge10 3.435655 1_555
Ba10 Ge13 3.435655 1_555
Ba10 Ge3 3.545782 1_555
Ba10 Ge2 3.901425 1_556
Ba11 Ge6 3.424556 1_555
Ba11 Ge11 3.435655 1_545
Ba11 Ge12 3.435655 1_555
Ba11 Ge1 3.545782 1_555
Ba11 Ge8 3.901425 1_555
Ba12 Ge11 3.611717 1_555
Ba12 Ge8 3.611717 1_565
Ba12 Ge6 3.611720 1_565
Ba12 Ge5 3.611720 1_555
Ba12 Ge7 3.611725 1_555
Ba12 Ge12 3.611725 1_555
Ba13 Ge4 3.611717 1_555
Ba13 Ge10 3.611717 1_654
Ba13 Ge0 3.611720 1_655
Ba13 Ge13 3.611720 1_554
Ba13 Ge9 3.611725 1_554
Ba13 Ge2 3.611725 1_555
Ba14 Ge6 3.611717 1_555
Ba14 Ge5 3.611717 1_655
Ba14 Ge11 3.611720 1_655
Ba14 Ge8 3.611720 1_555
Ba14 Ge7 3.611725 1_555
Ba14 Ge12 3.611725 1_555
Ba15 Ge0 3.611717 1_555
Ba15 Ge13 3.611717 1_564
Ba15 Ge4 3.611720 1_565
Ba15 Ge10 3.611720 1_554
Ba15 Ge9 3.611725 1_554
Ba15 Ge2 3.611725 1_555
Ba16 Ge8 3.755027 1_565
Ba16 Ge13 3.755027 1_565
Ba16 Ge10 3.755029 1_555
Ba16 Ge5 3.755029 1_555
Ba16 Ge9 3.755035 1_555
Ba16 Ge7 3.755035 1_555
Ba17 Ge4 3.755027 1_555
Ba17 Ge6 3.755027 1_555
Ba17 Ge0 3.755029 1_655
Ba17 Ge11 3.755029 1_655
Ba17 Ge12 3.755035 1_555
Ba17 Ge2 3.755035 1_555
Ba18 Ge5 3.755027 1_655
Ba18 Ge10 3.755027 1_655
Ba18 Ge8 3.755029 1_555
Ba18 Ge13 3.755029 1_555
Ba18 Ge9 3.755035 1_555
Ba18 Ge7 3.755035 1_555
Ba19 Ge11 3.755027 1_555
Ba19 Ge0 3.755027 1_555
Ba19 Ge4 3.755029 1_565
Ba19 Ge6 3.755029 1_565
Ba19 Ge12 3.755035 1_555
Ba19 Ge2 3.755035 1_555
Al0 Ge10 2.525862 1_555
Al0 Ge5 2.525862 1_555
Al0 Ge3 2.663025 1_555
Al0 Ba4 3.580387 1_455
Al0 Ba1 3.580387 1_455
Al0 Ba10 3.580387 1_555
Al0 Ba0 3.580387 1_555
Al0 Ba18 3.648687 1_455
Al0 Ba16 3.648693 1_555
Al1 Ge6 2.525862 1_555
Al1 Ge4 2.525862 1_555
Al1 Ge1 2.663025 1_655
Al1 Ba8 3.580387 1_655
Al1 Ba3 3.580387 1_655
Al1 Ba7 3.580387 1_545
Al1 Ba5 3.580387 1_545
Al1 Ba17 3.648687 1_555
Al1 Ba19 3.648693 1_545
Al2 Ge2 2.525862 1_555
Al2 Ge12 2.525862 1_555
Al2 Ge1 2.663024 1_555
Al2 Ba11 3.580387 1_555
Al2 Ba8 3.580387 1_555
Al2 Ba6 3.580387 1_555
Al2 Ba3 3.580387 1_555
Al2 Ba17 3.648696 1_555
Al2 Ba19 3.648696 1_555
Al3 Ge9 2.525862 1_555
Al3 Ge7 2.525862 1_555
Al3 Ge3 2.663024 1_665
Al3 Ba9 3.580387 1_655
Al3 Ba2 3.580387 1_655
Al3 Ba1 3.580387 1_565
Al3 Ba4 3.580387 1_565
Al3 Ba16 3.648696 1_555
Al3 Ba18 3.648696 1_555
Al4 Ge8 2.525862 1_555
Al4 Ge13 2.525862 1_555
Al4 Ge3 2.663025 1_555
Al4 Ba9 3.580387 1_545
Al4 Ba2 3.580387 1_545
Al4 Ba10 3.580387 1_555
Al4 Ba0 3.580387 1_555
Al4 Ba16 3.648687 1_545
Al4 Ba18 3.648693 1_555
Al5 Ge11 2.525862 1_555
Al5 Ge0 2.525862 1_555
Al5 Ge1 2.663025 1_565
Al5 Ba11 3.580387 1_565
Al5 Ba6 3.580387 1_565
Al5 Ba7 3.580387 1_455
Al5 Ba5 3.580387 1_455
Al5 Ba19 3.648687 1_555
Al5 Ba17 3.648693 1_455
