# generated using pymatgen
data_Na9Mg4Ta2(PO4)9
_symmetry_space_group_name_H-M   'P 1'
_cell_length_a   15.50129124
_cell_length_b   26.81254992
_cell_length_c   8.93990558
_cell_angle_alpha   89.86431134
_cell_angle_beta   124.94073049
_cell_angle_gamma   90.10960613
_symmetry_Int_Tables_number   1
_chemical_formula_structural   Na9Mg4Ta2(PO4)9
_chemical_formula_sum   'Na36 Mg16 Ta8 P36 O144'
_cell_volume   3045.90499622
_cell_formula_units_Z   4
loop_
 _symmetry_equiv_pos_site_id
 _symmetry_equiv_pos_as_xyz
  1  'x, y, z'
loop_
 _atom_site_type_symbol
 _atom_site_label
 _atom_site_symmetry_multiplicity
 _atom_site_fract_x
 _atom_site_fract_y
 _atom_site_fract_z
 _atom_site_occupancy
  Na  Na0  1  0.26048019  0.24901361  0.02804157  1
  Na  Na1  1  0.24691187  0.58216292  0.00030031  1
  Na  Na2  1  0.24996068  0.91804264  0.00399599  1
  Na  Na3  1  0.75447691  0.25118867  0.51481462  1
  Na  Na4  1  0.76194445  0.58966142  0.53040926  1
  Na  Na5  1  0.75246621  0.90902349  0.52205806  1
  Na  Na6  1  0.74691187  0.08216292  0.00030031  1
  Na  Na7  1  0.74996068  0.41804264  0.00399599  1
  Na  Na8  1  0.76048019  0.74901361  0.02804157  1
  Na  Na9  1  0.26194445  0.08966142  0.53040926  1
  Na  Na10  1  0.25246621  0.40902349  0.52205806  1
  Na  Na11  1  0.25447691  0.75118867  0.51481462  1
  Na  Na12  1  0.49408426  0.03976100  0.73896151  1
  Na  Na13  1  0.49577730  0.37488028  0.73953421  1
  Na  Na14  1  0.49649416  0.70215948  0.75729152  1
  Na  Na15  1  0.50176720  0.30037550  0.27154757  1
  Na  Na16  1  0.49255128  0.62989750  0.25044536  1
  Na  Na17  1  0.49833974  0.96845462  0.26663777  1
  Na  Na18  1  0.99649416  0.20215948  0.75729152  1
  Na  Na19  1  0.99408426  0.53976100  0.73896151  1
  Na  Na20  1  0.99577730  0.87488028  0.73953421  1
  Na  Na21  1  0.99255128  0.12989750  0.25044536  1
  Na  Na22  1  0.99833974  0.46845462  0.26663777  1
  Na  Na23  1  0.00176720  0.80037550  0.27154757  1
  Na  Na24  1  0.82363940  0.97612373  0.21772561  1
  Na  Na25  1  0.18591916  0.63748786  0.29771987  1
  Na  Na26  1  0.19532720  0.97293785  0.30479224  1
  Na  Na27  1  0.18399087  0.68885458  0.75483176  1
  Na  Na28  1  0.80584880  0.02009668  0.71400329  1
  Na  Na29  1  0.80549081  0.35620162  0.70644920  1
  Na  Na30  1  0.32363940  0.47612373  0.21772561  1
  Na  Na31  1  0.68591916  0.13748786  0.29771987  1
  Na  Na32  1  0.69532720  0.47293785  0.30479224  1
  Na  Na33  1  0.68399087  0.18885458  0.75483176  1
  Na  Na34  1  0.30584880  0.52009668  0.71400329  1
  Na  Na35  1  0.30549081  0.85620162  0.70644920  1
  Mg  Mg0  1  0.09624485  0.58451902  0.55687926  1
  Mg  Mg1  1  0.10334804  0.92022207  0.56400777  1
  Mg  Mg2  1  0.89767032  0.25125774  0.94510824  1
  Mg  Mg3  1  0.89717101  0.58445750  0.94781065  1
  Mg  Mg4  1  0.89718498  0.91634464  0.94654125  1
  Mg  Mg5  1  0.89867573  0.08191203  0.44269502  1
  Mg  Mg6  1  0.89656133  0.41560481  0.43734981  1
  Mg  Mg7  1  0.89606003  0.74804091  0.43928670  1
  Mg  Mg8  1  0.59624485  0.08451902  0.55687926  1
  Mg  Mg9  1  0.60334804  0.42022207  0.56400777  1
  Mg  Mg10  1  0.39717101  0.08445750  0.94781065  1
  Mg  Mg11  1  0.39718498  0.41634464  0.94654125  1
  Mg  Mg12  1  0.39767032  0.75125774  0.94510824  1
  Mg  Mg13  1  0.39606003  0.24804091  0.43928670  1
  Mg  Mg14  1  0.39867573  0.58191203  0.44269502  1
  Mg  Mg15  1  0.39656133  0.91560481  0.43734981  1
  Ta  Ta0  1  0.10757095  0.25163663  0.55995672  1
  Ta  Ta1  1  0.10636161  0.08410875  0.05763342  1
  Ta  Ta2  1  0.10588272  0.41301113  0.05908571  1
  Ta  Ta3  1  0.10275270  0.74924025  0.06026916  1
  Ta  Ta4  1  0.60757095  0.75163663  0.55995672  1
  Ta  Ta5  1  0.60275270  0.24924025  0.06026916  1
  Ta  Ta6  1  0.60636161  0.58410875  0.05763342  1
  Ta  Ta7  1  0.60588272  0.91301113  0.05908571  1
  P  P0  1  0.99772387  0.31827381  0.73887557  1
  P  P1  1  0.99854679  0.65100455  0.74711685  1
  P  P2  1  0.99896253  0.98483629  0.74322942  1
  P  P3  1  0.99941343  0.01568284  0.24325878  1
  P  P4  1  0.99562177  0.34849598  0.23707719  1
  P  P5  1  0.00052412  0.68158222  0.25502577  1
  P  P6  1  0.49854679  0.15100455  0.74711685  1
  P  P7  1  0.49896253  0.48483629  0.74322942  1
  P  P8  1  0.49772387  0.81827381  0.73887557  1
  P  P9  1  0.50052412  0.18158222  0.25502577  1
  P  P10  1  0.49941343  0.51568284  0.24325878  1
  P  P11  1  0.49562177  0.84849598  0.23707719  1
  P  P12  1  0.35434149  0.29804514  0.74558215  1
  P  P13  1  0.34997578  0.63222730  0.74841082  1
  P  P14  1  0.35216654  0.96484158  0.75034469  1
  P  P15  1  0.64458873  0.29994707  0.73910467  1
  P  P16  1  0.64385747  0.63280752  0.73420916  1
  P  P17  1  0.64540140  0.96536243  0.73875183  1
  P  P18  1  0.64744508  0.03219244  0.24377985  1
  P  P19  1  0.64528649  0.36763993  0.24303476  1
  P  P20  1  0.64349757  0.70156750  0.23623690  1
  P  P21  1  0.35414196  0.03529286  0.25612715  1
  P  P22  1  0.35575303  0.36762866  0.25971529  1
  P  P23  1  0.35045676  0.70235238  0.24813147  1
  P  P24  1  0.84997578  0.13222730  0.74841082  1
  P  P25  1  0.85216654  0.46484158  0.75034469  1
  P  P26  1  0.85434149  0.79804514  0.74558215  1
  P  P27  1  0.14385747  0.13280752  0.73420916  1
  P  P28  1  0.14540140  0.46536243  0.73875183  1
  P  P29  1  0.14458873  0.79994707  0.73910467  1
  P  P30  1  0.14349757  0.20156750  0.23623690  1
  P  P31  1  0.14744508  0.53219244  0.24377985  1
  P  P32  1  0.14528649  0.86763993  0.24303476  1
  P  P33  1  0.85045676  0.20235238  0.24813147  1
  P  P34  1  0.85414196  0.53529286  0.25612715  1
  P  P35  1  0.85575303  0.86762866  0.25971529  1
  O  O0  1  0.14704619  0.19266199  0.73522117  1
  O  O1  1  0.15407229  0.52286993  0.75897083  1
  O  O2  1  0.15457615  0.85677045  0.75711257  1
  O  O3  1  0.84167059  0.18942899  0.75475243  1
  O  O4  1  0.85209727  0.52152629  0.76529778  1
  O  O5  1  0.84812855  0.85392899  0.76558158  1
  O  O6  1  0.84218510  0.14588415  0.26520397  1
  O  O7  1  0.83618399  0.47862353  0.25924291  1
  O  O8  1  0.84621830  0.81096172  0.25788690  1
  O  O9  1  0.14880694  0.14236287  0.24306315  1
  O  O10  1  0.15467787  0.47242564  0.23322929  1
  O  O11  1  0.15042841  0.80795212  0.22897870  1
  O  O12  1  0.65407229  0.02286993  0.75897083  1
  O  O13  1  0.65457615  0.35677045  0.75711257  1
  O  O14  1  0.64704619  0.69266199  0.73522117  1
  O  O15  1  0.35209727  0.02152629  0.76529778  1
  O  O16  1  0.34812855  0.35392899  0.76558158  1
  O  O17  1  0.34167059  0.68942899  0.75475243  1
  O  O18  1  0.34621830  0.31096172  0.25788690  1
  O  O19  1  0.34218510  0.64588415  0.26520397  1
  O  O20  1  0.33618399  0.97862353  0.25924291  1
  O  O21  1  0.65042841  0.30795212  0.22897870  1
  O  O22  1  0.64880694  0.64236287  0.24306315  1
  O  O23  1  0.65467787  0.97242564  0.23322929  1
  O  O24  1  0.44193033  0.18463744  0.58313373  1
  O  O25  1  0.43438486  0.51698791  0.57312127  1
  O  O26  1  0.43476597  0.85154756  0.57667915  1
  O  O27  1  0.56226126  0.18702131  0.92635001  1
  O  O28  1  0.55877150  0.52393141  0.91396741  1
  O  O29  1  0.56536872  0.85069287  0.91808600  1
  O  O30  1  0.57766194  0.15277662  0.43440589  1
  O  O31  1  0.57246745  0.48314334  0.40999191  1
  O  O32  1  0.56092777  0.81140332  0.40900799  1
  O  O33  1  0.44422067  0.14851715  0.08986321  1
  O  O34  1  0.43075346  0.48575718  0.06809866  1
  O  O35  1  0.43386751  0.81804365  0.06566833  1
  O  O36  1  0.93438486  0.01698791  0.57312127  1
  O  O37  1  0.93476597  0.35154756  0.57667915  1
  O  O38  1  0.94193033  0.68463744  0.58313373  1
  O  O39  1  0.05877150  0.02393141  0.91396741  1
  O  O40  1  0.06536872  0.35069287  0.91808600  1
  O  O41  1  0.06226126  0.68702131  0.92635001  1
  O  O42  1  0.06092777  0.31140332  0.40900799  1
  O  O43  1  0.07766194  0.65277662  0.43440589  1
  O  O44  1  0.07246745  0.98314334  0.40999191  1
  O  O45  1  0.93386751  0.31804365  0.06566833  1
  O  O46  1  0.94422067  0.64851715  0.08986321  1
  O  O47  1  0.93075346  0.98575718  0.06809866  1
  O  O48  1  0.25643554  0.27211071  0.73008578  1
  O  O49  1  0.26699245  0.60553271  0.76183196  1
  O  O50  1  0.26946529  0.93703403  0.76103772  1
  O  O51  1  0.74111406  0.27628854  0.75718863  1
  O  O52  1  0.74081607  0.61111552  0.75990104  1
  O  O53  1  0.74142135  0.94393637  0.75298288  1
  O  O54  1  0.74334377  0.05342189  0.25308425  1
  O  O55  1  0.73933087  0.39090399  0.25597905  1
  O  O56  1  0.73988013  0.72346655  0.25998054  1
  O  O57  1  0.25063235  0.06030556  0.22856604  1
  O  O58  1  0.25275426  0.39112452  0.23602275  1
  O  O59  1  0.25773080  0.72690853  0.24650940  1
  O  O60  1  0.76699245  0.10553271  0.76183196  1
  O  O61  1  0.76946529  0.43703403  0.76103772  1
  O  O62  1  0.75643554  0.77211071  0.73008578  1
  O  O63  1  0.24081607  0.11111552  0.75990104  1
  O  O64  1  0.24142135  0.44393637  0.75298288  1
  O  O65  1  0.24111406  0.77628854  0.75718863  1
  O  O66  1  0.23988013  0.22346655  0.25998054  1
  O  O67  1  0.24334377  0.55342189  0.25308425  1
  O  O68  1  0.23933087  0.89090399  0.25597905  1
  O  O69  1  0.75773080  0.22690853  0.24650940  1
  O  O70  1  0.75063235  0.56030556  0.22856604  1
  O  O71  1  0.75275426  0.89112452  0.23602275  1
  O  O72  1  0.35573897  0.28474596  0.58460180  1
  O  O73  1  0.34564593  0.61825374  0.57838888  1
  O  O74  1  0.34848405  0.95036343  0.58165553  1
  O  O75  1  0.63842163  0.27987270  0.90396605  1
  O  O76  1  0.63764366  0.62100102  0.90350876  1
  O  O77  1  0.64637947  0.94635348  0.91283366  1
  O  O78  1  0.65110023  0.04194929  0.41777345  1
  O  O79  1  0.64628908  0.37517888  0.41581005  1
  O  O80  1  0.63528617  0.71460397  0.40380083  1
  O  O81  1  0.35874405  0.04741270  0.09595439  1
  O  O82  1  0.35522255  0.38588215  0.09812356  1
  O  O83  1  0.34527444  0.71402406  0.07685237  1
  O  O84  1  0.84564593  0.11825374  0.57838888  1
  O  O85  1  0.84848405  0.45036343  0.58165553  1
  O  O86  1  0.85573897  0.78474596  0.58460180  1
  O  O87  1  0.13764366  0.12100102  0.90350876  1
  O  O88  1  0.14637947  0.44635348  0.91283366  1
  O  O89  1  0.13842163  0.77987270  0.90396605  1
  O  O90  1  0.13528617  0.21460397  0.40380083  1
  O  O91  1  0.15110023  0.54194929  0.41777345  1
  O  O92  1  0.14628908  0.87517888  0.41581005  1
  O  O93  1  0.84527444  0.21402406  0.07685237  1
  O  O94  1  0.85874405  0.54741270  0.09595439  1
  O  O95  1  0.85522255  0.88588215  0.09812356  1
  O  O96  1  0.45659152  0.27608479  0.92729125  1
  O  O97  1  0.46232988  0.61474975  0.92153576  1
  O  O98  1  0.46476320  0.94233556  0.92166481  1
  O  O99  1  0.54495140  0.28141955  0.56457166  1
  O  O100  1  0.54073544  0.61742632  0.56095322  1
  O  O101  1  0.54261145  0.94873981  0.56696025  1
  O  O102  1  0.54624986  0.05074513  0.07193826  1
  O  O103  1  0.54280082  0.38516350  0.06909923  1
  O  O104  1  0.54039098  0.71721514  0.06291891  1
  O  O105  1  0.44827531  0.05509094  0.43883764  1
  O  O106  1  0.44807681  0.39061448  0.43958763  1
  O  O107  1  0.45658112  0.72403374  0.42171717  1
  O  O108  1  0.96232988  0.11474975  0.92153576  1
  O  O109  1  0.96476320  0.44233556  0.92166481  1
  O  O110  1  0.95659152  0.77608479  0.92729125  1
  O  O111  1  0.04073544  0.11742632  0.56095322  1
  O  O112  1  0.04261145  0.44873981  0.56696025  1
  O  O113  1  0.04495140  0.78141955  0.56457166  1
  O  O114  1  0.04039098  0.21721514  0.06291891  1
  O  O115  1  0.04624986  0.55074513  0.07193826  1
  O  O116  1  0.04280082  0.88516350  0.06909923  1
  O  O117  1  0.95658112  0.22403374  0.42171717  1
  O  O118  1  0.94827531  0.55509094  0.43883764  1
  O  O119  1  0.94807681  0.89061448  0.43958763  1
  O  O120  1  0.08041210  0.28492077  0.73357583  1
  O  O121  1  0.08848614  0.62068922  0.76154055  1
  O  O122  1  0.08444929  0.95275837  0.75769186  1
  O  O123  1  0.92578975  0.28231467  0.75439802  1
  O  O124  1  0.92636728  0.61607380  0.76330196  1
  O  O125  1  0.92283639  0.95265046  0.76159561  1
  O  O126  1  0.92678453  0.05174405  0.25779828  1
  O  O127  1  0.93035576  0.38572459  0.26014767  1
  O  O128  1  0.92863314  0.71993516  0.25837267  1
  O  O129  1  0.07800776  0.05144046  0.22838831  1
  O  O130  1  0.08377028  0.37996768  0.24127037  1
  O  O131  1  0.08347000  0.71672283  0.24129308  1
  O  O132  1  0.58848614  0.12068922  0.76154055  1
  O  O133  1  0.58444929  0.45275837  0.75769186  1
  O  O134  1  0.58041210  0.78492077  0.73357583  1
  O  O135  1  0.42636728  0.11607380  0.76330196  1
  O  O136  1  0.42283639  0.45265046  0.76159561  1
  O  O137  1  0.42578975  0.78231467  0.75439802  1
  O  O138  1  0.42863314  0.21993516  0.25837267  1
  O  O139  1  0.42678453  0.55174405  0.25779828  1
  O  O140  1  0.43035576  0.88572459  0.26014767  1
  O  O141  1  0.58347000  0.21672283  0.24129308  1
  O  O142  1  0.57800776  0.55144046  0.22838831  1
  O  O143  1  0.58377028  0.87996768  0.24127037  1
loop_
_geom_bond_atom_site_label_1
_geom_bond_atom_site_label_2
_geom_bond_distance
_geom_bond_site_symmetry_2
Na0 O138 2.344005 1_555
Na0 O66 2.370971 1_555
Na0 O18 2.372129 1_555
Na0 O0 2.638858 1_554
Na0 O120 2.688797 1_554
Na0 O48 2.698846 1_554
Na1 O121 2.376759 1_554
Na1 O1 2.388345 1_554
Na1 O49 2.405725 1_554
Na1 O67 2.416333 1_555
Na1 O139 2.527137 1_555
Na1 O19 2.590728 1_555
Na2 O50 2.411388 1_554
Na2 O122 2.413661 1_554
Na2 O2 2.454864 1_554
Na2 O68 2.459324 1_555
Na2 O20 2.479430 1_555
Na2 O140 2.545447 1_555
Na3 O51 2.390065 1_555
Na3 O123 2.412654 1_555
Na3 O3 2.416791 1_555
Na3 O69 2.515126 1_555
Na3 O141 2.537063 1_555
Na3 O21 2.591830 1_555
Na4 O124 2.292199 1_555
Na4 O52 2.328813 1_555
Na4 O4 2.515976 1_555
Na4 O22 2.550145 1_555
Na4 O70 2.720191 1_555
Na4 O142 2.766534 1_555
Na5 O5 2.327233 1_555
Na5 O53 2.362662 1_555
Na5 O143 2.495755 1_555
Na5 O125 2.539824 1_555
Na5 O71 2.605407 1_555
Na5 O23 2.713046 1_555
Na6 O132 2.376759 1_554
Na6 O12 2.388345 1_554
Na6 O60 2.405725 1_554
Na6 O54 2.416333 1_555
Na6 O126 2.527137 1_555
Na6 O6 2.590728 1_555
Na7 O61 2.411388 1_554
Na7 O133 2.413661 1_554
Na7 O13 2.454864 1_554
Na7 O55 2.459324 1_555
Na7 O7 2.479430 1_555
Na7 O127 2.545447 1_555
Na8 O128 2.344005 1_555
Na8 O56 2.370971 1_555
Na8 O8 2.372129 1_555
Na8 O14 2.638858 1_554
Na8 O134 2.688797 1_554
Na8 O62 2.698846 1_554
Na9 O135 2.292199 1_555
Na9 O63 2.328813 1_555
Na9 O15 2.515976 1_555
Na9 O9 2.550145 1_555
Na9 O57 2.720191 1_555
Na9 O129 2.766534 1_555
Na10 O16 2.327233 1_555
Na10 O64 2.362662 1_555
Na10 O130 2.495755 1_555
Na10 O136 2.539824 1_555
Na10 O58 2.605407 1_555
Na10 O10 2.713046 1_555
Na11 O65 2.390065 1_555
Na11 O137 2.412654 1_555
Na11 O17 2.416791 1_555
Na11 O59 2.515126 1_555
Na11 O131 2.537063 1_555
Na11 O11 2.591830 1_555
Na12 O135 2.368097 1_555
Na12 O105 2.384452 1_555
Na12 O15 2.393265 1_555
Na12 O12 2.425566 1_555
Na12 O132 2.557762 1_555
Na12 O102 2.616836 1_556
Na13 O106 2.374829 1_555
Na13 O13 2.425076 1_555
Na13 O136 2.435542 1_555
Na13 O133 2.451720 1_555
Na13 O16 2.492609 1_555
Na13 O103 2.613617 1_556
Na14 O137 2.407715 1_555
Na14 O17 2.410676 1_555
Na14 O104 2.442514 1_556
Na14 O14 2.465791 1_555
Na14 O134 2.638923 1_555
Na14 O107 2.755677 1_555
Na14 O76 2.821335 1_555
Na15 O99 2.356928 1_555
Na15 O18 2.361051 1_555
Na15 O138 2.406204 1_555
Na15 O21 2.549300 1_555
Na15 O141 2.667224 1_555
Na15 O79 2.718525 1_555
Na15 O96 2.815205 1_554
Na16 O139 2.345776 1_555
Na16 O19 2.447541 1_555
Na16 O100 2.448872 1_555
Na16 O22 2.482509 1_555
Na16 O142 2.555540 1_555
Na16 O97 2.730853 1_554
Na16 O80 2.907629 1_555
Na16 O83 2.941625 1_555
Na17 O101 2.417221 1_555
Na17 O140 2.440491 1_555
Na17 O20 2.491828 1_555
Na17 O23 2.607981 1_555
Na17 O78 2.765141 1_565
Na17 O81 2.777208 1_565
Na17 O143 2.791555 1_555
Na17 O98 2.905639 1_554
Na18 O123 2.407715 1_555
Na18 O3 2.410676 1_555
Na18 O114 2.442514 1_656
Na18 O0 2.465791 1_655
Na18 O120 2.638923 1_655
Na18 O117 2.755677 1_555
Na18 O87 2.821335 1_655
Na19 O124 2.368097 1_555
Na19 O118 2.384452 1_555
Na19 O4 2.393265 1_555
Na19 O1 2.425566 1_655
Na19 O121 2.557762 1_655
Na19 O115 2.616836 1_656
Na20 O119 2.374829 1_555
Na20 O2 2.425076 1_655
Na20 O125 2.435542 1_555
Na20 O122 2.451720 1_655
Na20 O5 2.492609 1_555
Na20 O116 2.613617 1_656
Na21 O126 2.345776 1_555
Na21 O6 2.447541 1_555
Na21 O111 2.448872 1_655
Na21 O9 2.482509 1_655
Na21 O129 2.555540 1_655
Na21 O108 2.730853 1_554
Na21 O90 2.907629 1_655
Na21 O93 2.941625 1_555
Na22 O112 2.417221 1_655
Na22 O127 2.440491 1_555
Na22 O7 2.491828 1_555
Na22 O10 2.607981 1_655
Na22 O91 2.765141 1_655
Na22 O94 2.777208 1_555
Na22 O130 2.791555 1_655
Na22 O109 2.905639 1_554
Na23 O113 2.356928 1_555
Na23 O8 2.361051 1_455
Na23 O128 2.406204 1_455
Na23 O11 2.549300 1_555
Na23 O131 2.667224 1_555
Na23 O92 2.718525 1_555
Na23 O110 2.815205 1_454
Na24 O126 2.476035 1_565
Na24 O54 2.531467 1_565
Na24 O71 2.573466 1_555
Na24 O77 2.653245 1_554
Na24 O47 2.674661 1_555
Na24 O23 2.702517 1_555
Na24 O95 2.802471 1_555
Na24 O36 2.829098 1_565
Na24 O119 2.919644 1_555
Na25 O73 2.361090 1_555
Na25 O131 2.525899 1_555
Na25 O67 2.539889 1_555
Na25 O19 2.609024 1_555
Na25 O43 2.613661 1_555
Na25 O59 2.786677 1_555
Na26 O74 2.323036 1_555
Na26 O68 2.417627 1_555
Na26 O20 2.444064 1_555
Na26 O44 2.577071 1_555
Na26 O129 2.605618 1_565
Na26 O57 2.709398 1_565
Na27 O121 2.372044 1_555
Na27 O17 2.444665 1_555
Na27 O65 2.500263 1_555
Na27 O43 2.541059 1_555
Na27 O49 2.562912 1_555
Na27 O83 2.598478 1_556
Na28 O53 2.382499 1_545
Na28 O78 2.414993 1_555
Na28 O125 2.421794 1_545
Na28 O60 2.469437 1_555
Na28 O12 2.605126 1_555
Na28 O47 2.754956 1_546
Na28 O36 2.904960 1_555
Na29 O61 2.359898 1_555
Na29 O79 2.398731 1_555
Na29 O51 2.509657 1_555
Na29 O123 2.584650 1_555
Na29 O13 2.625241 1_555
Na29 O45 2.826987 1_556
Na29 O37 2.835816 1_555
Na30 O139 2.476035 1_555
Na30 O67 2.531467 1_555
Na30 O58 2.573466 1_555
Na30 O88 2.653245 1_554
Na30 O34 2.674661 1_555
Na30 O10 2.702517 1_555
Na30 O82 2.802471 1_555
Na30 O25 2.829098 1_555
Na30 O106 2.919644 1_555
Na31 O84 2.361090 1_555
Na31 O141 2.525899 1_555
Na31 O54 2.539889 1_555
Na31 O6 2.609024 1_555
Na31 O30 2.613661 1_555
Na31 O69 2.786677 1_555
Na32 O85 2.323036 1_555
Na32 O55 2.417627 1_555
Na32 O7 2.444064 1_555
Na32 O31 2.577071 1_555
Na32 O142 2.605618 1_555
Na32 O70 2.709398 1_555
Na33 O132 2.372044 1_555
Na33 O3 2.444665 1_555
Na33 O51 2.500263 1_555
Na33 O30 2.541059 1_555
Na33 O60 2.562912 1_555
Na33 O93 2.598478 1_556
Na34 O64 2.382499 1_555
Na34 O91 2.414993 1_555
Na34 O136 2.421794 1_555
Na34 O49 2.469437 1_555
Na34 O1 2.605126 1_555
Na34 O34 2.754956 1_556
Na34 O25 2.904960 1_555
Na35 O50 2.359898 1_555
Na35 O92 2.398731 1_555
Na35 O65 2.509657 1_555
Na35 O137 2.584650 1_555
Na35 O2 2.625241 1_555
Na35 O35 2.826987 1_556
Na35 O26 2.835816 1_555
Mg0 O118 2.054695 1_455
Mg0 O43 2.064588 1_555
Mg0 O121 2.136246 1_555
Mg0 O91 2.189543 1_555
Mg0 O1 2.221796 1_555
Mg0 O49 2.263703 1_555
Mg1 O44 2.051418 1_555
Mg1 O122 2.105753 1_555
Mg1 O119 2.142629 1_455
Mg1 O92 2.162819 1_555
Mg1 O50 2.177256 1_555
Mg1 O2 2.219511 1_555
Mg2 O45 1.998916 1_556
Mg2 O93 2.032381 1_556
Mg2 O114 2.042322 1_656
Mg2 O51 2.119689 1_555
Mg2 O123 2.152521 1_555
Mg2 O3 2.171066 1_555
Mg3 O94 1.997639 1_556
Mg3 O46 2.009834 1_556
Mg3 O115 2.110600 1_656
Mg3 O124 2.119266 1_555
Mg3 O52 2.131763 1_555
Mg3 O4 2.168009 1_555
Mg4 O95 1.982180 1_556
Mg4 O116 2.040718 1_656
Mg4 O47 2.067281 1_556
Mg4 O125 2.140888 1_555
Mg4 O53 2.141611 1_555
Mg4 O5 2.143572 1_555
Mg5 O36 1.987723 1_555
Mg5 O111 2.050300 1_655
Mg5 O84 2.060998 1_555
Mg5 O126 2.099784 1_555
Mg5 O54 2.139740 1_555
Mg5 O6 2.151269 1_555
Mg6 O37 2.000239 1_555
Mg6 O85 2.048884 1_555
Mg6 O112 2.061502 1_655
Mg6 O127 2.093823 1_555
Mg6 O55 2.116646 1_555
Mg6 O7 2.133685 1_555
Mg7 O86 1.996343 1_555
Mg7 O38 1.999058 1_555
Mg7 O128 2.093164 1_555
Mg7 O113 2.101934 1_655
Mg7 O56 2.102022 1_555
Mg7 O8 2.151712 1_555
Mg8 O105 2.054695 1_555
Mg8 O30 2.064588 1_555
Mg8 O132 2.136246 1_555
Mg8 O78 2.189543 1_555
Mg8 O12 2.221796 1_555
Mg8 O60 2.263703 1_555
Mg9 O31 2.051418 1_555
Mg9 O133 2.105753 1_555
Mg9 O106 2.142629 1_555
Mg9 O79 2.162819 1_555
Mg9 O61 2.177256 1_555
Mg9 O13 2.219511 1_555
Mg10 O81 1.997639 1_556
Mg10 O33 2.009834 1_556
Mg10 O102 2.110600 1_556
Mg10 O135 2.119266 1_555
Mg10 O63 2.131763 1_555
Mg10 O15 2.168009 1_555
Mg11 O82 1.982180 1_556
Mg11 O103 2.040718 1_556
Mg11 O34 2.067281 1_556
Mg11 O136 2.140888 1_555
Mg11 O64 2.141611 1_555
Mg11 O16 2.143572 1_555
Mg12 O35 1.998916 1_556
Mg12 O83 2.032381 1_556
Mg12 O104 2.042322 1_556
Mg12 O65 2.119689 1_555
Mg12 O137 2.152521 1_555
Mg12 O17 2.171066 1_555
Mg13 O72 1.996343 1_555
Mg13 O24 1.999058 1_555
Mg13 O138 2.093164 1_555
Mg13 O99 2.101934 1_555
Mg13 O66 2.102022 1_555
Mg13 O18 2.151712 1_555
Mg14 O25 1.987723 1_555
Mg14 O100 2.050300 1_555
Mg14 O73 2.060998 1_555
Mg14 O139 2.099784 1_555
Mg14 O67 2.139740 1_555
Mg14 O19 2.151269 1_555
Mg15 O26 2.000239 1_555
Mg15 O74 2.048884 1_555
Mg15 O101 2.061502 1_555
Mg15 O140 2.093823 1_555
Mg15 O68 2.116646 1_555
Mg15 O20 2.133685 1_555
O0 P27 1.605405 1_555
O0 Ta0 2.055131 1_555
O1 P28 1.549504 1_555
O2 P29 1.530651 1_555
O3 P24 1.543251 1_555
O4 P25 1.526101 1_555
O5 P26 1.519196 1_555
O6 P33 1.533846 1_555
O7 P34 1.547274 1_555
O8 P35 1.525495 1_555
O9 P30 1.588934 1_555
O9 Ta1 2.092746 1_555
O10 P31 1.613379 1_555
O10 Ta2 2.047423 1_555
O11 P32 1.611298 1_555
O11 Ta3 2.007274 1_555
O12 P17 1.549504 1_545
O13 P15 1.530651 1_555
O14 P16 1.605405 1_555
O14 Ta4 2.055131 1_555
O15 P14 1.526101 1_545
O16 P12 1.519196 1_555
O17 P13 1.543251 1_555
O18 P22 1.525495 1_555
O19 P23 1.533846 1_555
O20 P21 1.547274 1_565
O21 P19 1.611298 1_555
O21 Ta5 2.007274 1_555
O22 P20 1.588934 1_555
O22 Ta6 2.092746 1_555
O23 P18 1.613379 1_565
O23 Ta7 2.047423 1_555
O24 P6 1.501867 1_555
O25 P7 1.520279 1_555
O26 P8 1.492375 1_555
O27 P6 1.632922 1_555
O27 Ta5 1.937796 1_556
O28 P7 1.634343 1_555
O28 Ta6 1.927994 1_556
O29 P8 1.581356 1_555
O29 Ta7 1.968363 1_556
O30 P9 1.548933 1_555
O31 P10 1.526282 1_555
O32 P11 1.609574 1_555
O32 Ta4 1.946380 1_555
O33 P9 1.501663 1_555
O34 P10 1.523913 1_555
O35 P11 1.501298 1_555
O36 P2 1.520279 1_545
O37 P0 1.492375 1_555
O38 P1 1.501867 1_555
O39 P2 1.634343 1_445
O39 Ta1 1.927994 1_556
O40 P0 1.581356 1_455
O40 Ta2 1.968363 1_556
O41 P1 1.632922 1_455
O41 Ta3 1.937796 1_556
O42 P4 1.609574 1_455
O42 Ta0 1.946380 1_555
O43 P5 1.548933 1_555
O44 P3 1.526282 1_465
O45 P4 1.501298 1_555
O46 P5 1.501663 1_655
O47 P3 1.523913 1_565
O48 P12 1.600510 1_555
O48 Ta0 1.979517 1_555
O49 P13 1.534356 1_555
O50 P14 1.531303 1_555
O51 P15 1.547064 1_555
O52 P16 1.502425 1_555
O53 P17 1.532211 1_555
O54 P18 1.547939 1_555
O55 P19 1.526864 1_555
O56 P20 1.501995 1_555
O57 P21 1.623420 1_555
O57 Ta1 1.957083 1_555
O58 P22 1.614549 1_555
O58 Ta2 1.976214 1_555
O59 P23 1.574629 1_555
O59 Ta3 2.078726 1_555
O60 P24 1.534356 1_555
O61 P25 1.531303 1_555
O62 P26 1.600510 1_555
O62 Ta4 1.979517 1_555
O63 P27 1.502425 1_555
O64 P28 1.532211 1_555
O65 P29 1.547064 1_555
O66 P30 1.501995 1_555
O67 P31 1.547939 1_555
O68 P32 1.526864 1_555
O69 P33 1.574629 1_555
O69 Ta5 2.078726 1_555
O70 P34 1.623420 1_555
O70 Ta6 1.957083 1_555
O71 P35 1.614549 1_555
O71 Ta7 1.976214 1_555
O72 P12 1.495641 1_555
O73 P13 1.530021 1_555
O74 P14 1.527186 1_555
O75 P15 1.621266 1_555
O75 Ta5 1.952092 1_556
O76 P16 1.601513 1_555
O76 Ta6 1.967014 1_556
O77 P17 1.628263 1_555
O77 Ta7 1.958386 1_556
O78 P18 1.546643 1_555
O79 P19 1.549466 1_555
O80 P20 1.613526 1_555
O80 Ta4 1.953093 1_555
O81 P21 1.508585 1_555
O82 P22 1.519728 1_555
O83 P23 1.518535 1_555
O84 P24 1.530021 1_555
O85 P25 1.527186 1_555
O86 P26 1.495641 1_555
O87 P27 1.601513 1_555
O87 Ta1 1.967014 1_556
O88 P28 1.628263 1_555
O88 Ta2 1.958386 1_556
O89 P29 1.621266 1_555
O89 Ta3 1.952092 1_556
O90 P30 1.613526 1_555
O90 Ta0 1.953093 1_555
O91 P31 1.546643 1_555
O92 P32 1.549466 1_555
O93 P33 1.518535 1_555
O94 P34 1.508585 1_555
O95 P35 1.519728 1_555
O96 P12 1.596108 1_555
O96 Ta5 1.995396 1_556
O97 P13 1.600114 1_555
O97 Ta6 2.007691 1_556
O98 P14 1.641308 1_555
O98 Ta7 1.958685 1_556
O99 P15 1.518926 1_555
O100 P16 1.512893 1_555
O101 P17 1.514478 1_555
O102 P18 1.518941 1_555
O103 P19 1.527180 1_555
O104 P20 1.514640 1_555
O105 P21 1.532988 1_555
O106 P22 1.542412 1_555
O107 P23 1.590218 1_555
O107 Ta4 2.058544 1_555
O108 P24 1.600114 1_555
O108 Ta1 2.007691 1_656
O109 P25 1.641308 1_555
O109 Ta2 1.958685 1_656
O110 P26 1.596108 1_555
O110 Ta3 1.995396 1_656
O111 P27 1.512893 1_555
O112 P28 1.514478 1_555
O113 P29 1.518926 1_555
O114 P30 1.514640 1_555
O115 P31 1.518941 1_555
O116 P32 1.527180 1_555
O117 P33 1.590218 1_555
O117 Ta0 2.058544 1_655
O118 P34 1.532988 1_555
O119 P35 1.542412 1_555
O120 P0 1.587160 1_455
O120 Ta0 2.034527 1_555
O121 P1 1.555302 1_455
O122 P2 1.523184 1_455
O123 P0 1.537770 1_555
O124 P1 1.526695 1_555
O125 P2 1.543243 1_555
O126 P3 1.546506 1_555
O127 P4 1.518662 1_555
O128 P5 1.530685 1_655
O129 P3 1.612953 1_455
O129 Ta1 2.012821 1_555
O130 P4 1.586702 1_455
O130 Ta2 2.046129 1_555
O131 P5 1.652774 1_555
O131 Ta3 2.003731 1_555
O132 P6 1.555302 1_555
O133 P7 1.523184 1_555
O134 P8 1.587160 1_555
O134 Ta4 2.034527 1_555
O135 P6 1.526695 1_555
O136 P7 1.543243 1_555
O137 P8 1.537770 1_555
O138 P9 1.530685 1_555
O139 P10 1.546506 1_555
O140 P11 1.518662 1_555
O141 P9 1.652774 1_555
O141 Ta5 2.003731 1_555
O142 P10 1.612953 1_555
O142 Ta6 2.012821 1_555
O143 P11 1.586702 1_555
O143 Ta7 2.046129 1_555
