# generated using pymatgen
data_Na6Ca6Ti2SiS11O48
_symmetry_space_group_name_H-M   'P 1'
_cell_length_a   18.24287989
_cell_length_b   9.10267671
_cell_length_c   23.54678088
_cell_angle_alpha   90.12137335
_cell_angle_beta   90.02269943
_cell_angle_gamma   119.89861286
_symmetry_Int_Tables_number   1
_chemical_formula_structural   Na6Ca6Ti2SiS11O48
_chemical_formula_sum   'Na18 Ca18 Ti6 Si3 S33 O144'
_cell_volume   3389.73615966
_cell_formula_units_Z   3
loop_
 _symmetry_equiv_pos_site_id
 _symmetry_equiv_pos_as_xyz
  1  'x, y, z'
loop_
 _atom_site_type_symbol
 _atom_site_label
 _atom_site_symmetry_multiplicity
 _atom_site_fract_x
 _atom_site_fract_y
 _atom_site_fract_z
 _atom_site_occupancy
  Na  Na0  1  0.68400386  0.36229397  0.24541316  1
  Na  Na1  1  0.99119997  0.63472322  0.25402517  1
  Na  Na2  1  0.33659134  0.96231518  0.59456326  1
  Na  Na3  1  0.83690303  0.96246743  0.59548446  1
  Na  Na4  1  0.33299882  0.69095781  0.08223919  1
  Na  Na5  1  0.34711025  0.66473680  0.41399133  1
  Na  Na6  1  0.00958733  0.99334459  0.49632876  1
  Na  Na7  1  0.51191070  0.01306439  0.50056000  1
  Na  Na8  1  0.00599355  0.00355068  0.99935682  1
  Na  Na9  1  0.51228697  0.01509796  0.99993231  1
  Na  Na10  1  0.33008393  0.33171804  0.83737909  1
  Na  Na11  1  0.82898688  0.33112887  0.83717722  1
  Na  Na12  1  0.33147039  0.32284516  0.33043283  1
  Na  Na13  1  0.83617122  0.33632809  0.33476871  1
  Na  Na14  1  0.16806734  0.66844141  0.16474617  1
  Na  Na15  1  0.66218141  0.67297180  0.15723196  1
  Na  Na16  1  0.16945360  0.66893500  0.67595240  1
  Na  Na17  1  0.67011009  0.66877114  0.67660767  1
  Ca  Ca0  1  0.00103990  0.00203304  0.35197099  1
  Ca  Ca1  1  0.49869313  0.00121695  0.34914002  1
  Ca  Ca2  1  0.00268604  0.99869275  0.65100034  1
  Ca  Ca3  1  0.50305711  0.99792079  0.65146262  1
  Ca  Ca4  1  0.50507545  0.00757256  0.15218700  1
  Ca  Ca5  1  0.33458285  0.33170661  0.18191323  1
  Ca  Ca6  1  0.83064285  0.32748760  0.17930654  1
  Ca  Ca7  1  0.32861665  0.32359672  0.98313796  1
  Ca  Ca8  1  0.83492398  0.33268378  0.98469837  1
  Ca  Ca9  1  0.33590132  0.33312901  0.48133078  1
  Ca  Ca10  1  0.83179872  0.33792853  0.47808877  1
  Ca  Ca11  1  0.16122669  0.66865829  0.01095743  1
  Ca  Ca12  1  0.66718791  0.66884969  0.01071731  1
  Ca  Ca13  1  0.15986729  0.65902172  0.52148062  1
  Ca  Ca14  1  0.66133256  0.65854658  0.52274746  1
  Ca  Ca15  1  0.16663742  0.66631131  0.31450535  1
  Ca  Ca16  1  0.16823876  0.67224510  0.81551205  1
  Ca  Ca17  1  0.66832604  0.67349519  0.81570736  1
  Ti  Ti0  1  0.99119585  0.00193069  0.84649735  1
  Ti  Ti1  1  0.49242780  0.00471838  0.84688310  1
  Ti  Ti2  1  0.98774854  0.98533120  0.15349079  1
  Ti  Ti3  1  0.33443293  0.32550436  0.69285476  1
  Ti  Ti4  1  0.83532944  0.32788598  0.69213552  1
  Ti  Ti5  1  0.67568538  0.67662042  0.31463396  1
  Si  Si0  1  0.85099668  0.70449690  0.25288993  1
  Si  Si1  1  0.35185594  0.99936026  0.74427464  1
  Si  Si2  1  0.85142446  0.00030291  0.74412997  1
  S  S0  1  0.14185848  0.99753551  0.24576775  1
  S  S1  1  0.65121343  0.99044368  0.25401843  1
  S  S2  1  0.34744085  0.69467369  0.24983431  1
  S  S3  1  0.00051837  0.29223033  0.24604809  1
  S  S4  1  0.50680279  0.31728722  0.25471621  1
  S  S5  1  0.15099271  0.28914732  0.75004809  1
  S  S6  1  0.65073254  0.28878900  0.75029432  1
  S  S7  1  0.99269601  0.69611109  0.75002640  1
  S  S8  1  0.49250354  0.69543676  0.74993603  1
  S  S9  1  0.47660554  0.33558556  0.58908577  1
  S  S10  1  0.97442448  0.33540391  0.58775068  1
  S  S11  1  0.19365292  0.05019946  0.58828525  1
  S  S12  1  0.69372563  0.05152923  0.58715094  1
  S  S13  1  0.33369758  0.62483305  0.58494947  1
  S  S14  1  0.83279023  0.62147767  0.58702431  1
  S  S15  1  0.48403668  0.63490447  0.08292984  1
  S  S16  1  0.98595707  0.64998542  0.08897346  1
  S  S17  1  0.33273984  0.02414260  0.08322920  1
  S  S18  1  0.83829901  0.02674572  0.08589977  1
  S  S19  1  0.17695064  0.32619324  0.08574722  1
  S  S20  1  0.68042184  0.33565822  0.08424696  1
  S  S21  1  0.32485303  0.67906577  0.91412322  1
  S  S22  1  0.82438421  0.67798422  0.91228268  1
  S  S23  1  0.01464949  0.35210132  0.91189589  1
  S  S24  1  0.51471668  0.35323071  0.91192351  1
  S  S25  1  0.15806733  0.97110174  0.91193247  1
  S  S26  1  0.65954045  0.97237928  0.91304610  1
  S  S27  1  0.31678354  0.96215581  0.41937943  1
  S  S28  1  0.80858443  0.95419786  0.41592663  1
  S  S29  1  0.16854031  0.37021083  0.41789211  1
  S  S30  1  0.66749286  0.38240829  0.41177899  1
  S  S31  1  0.01556709  0.66608672  0.41465217  1
  S  S32  1  0.52221321  0.66687581  0.41301640  1
  O  O0  1  0.10880760  0.01913768  0.29965724  1
  O  O1  1  0.60951447  0.02097801  0.30239774  1
  O  O2  1  0.39399984  0.77920808  0.30298546  1
  O  O3  1  0.91497065  0.78565646  0.30357853  1
  O  O4  1  0.49537500  0.21281054  0.30471969  1
  O  O5  1  0.99525602  0.20371337  0.29867067  1
  O  O6  1  0.10744032  0.17724562  0.80022209  1
  O  O7  1  0.60635269  0.17617180  0.80051677  1
  O  O8  1  0.48089787  0.78250004  0.80020245  1
  O  O9  1  0.98121360  0.78371051  0.80027943  1
  O  O10  1  0.42076705  0.02544332  0.79996232  1
  O  O11  1  0.92022651  0.02533256  0.79986612  1
  O  O12  1  0.39149668  0.98591213  0.68610225  1
  O  O13  1  0.89145871  0.98613115  0.68625355  1
  O  O14  1  0.10414181  0.21702795  0.69758246  1
  O  O15  1  0.60400670  0.21664047  0.69789054  1
  O  O16  1  0.00709421  0.79341687  0.69804462  1
  O  O17  1  0.50700150  0.79242152  0.69795279  1
  O  O18  1  0.39305628  0.79414297  0.19898329  1
  O  O19  1  0.90131797  0.83224434  0.19488424  1
  O  O20  1  0.00357617  0.19151572  0.19551599  1
  O  O21  1  0.52566062  0.24631089  0.20369167  1
  O  O22  1  0.08422294  0.98787915  0.19721554  1
  O  O23  1  0.60215912  0.95696685  0.20130237  1
  O  O24  1  0.42699907  0.34209231  0.63957129  1
  O  O25  1  0.92547714  0.34322228  0.63910198  1
  O  O26  1  0.24663771  0.14980425  0.63916681  1
  O  O27  1  0.74612617  0.14993414  0.63816980  1
  O  O28  1  0.33062735  0.51884614  0.63395910  1
  O  O29  1  0.82944320  0.51996980  0.63786055  1
  O  O30  1  0.44452334  0.53812529  0.13510284  1
  O  O31  1  0.94797478  0.55120375  0.14111587  1
  O  O32  1  0.32595863  0.10666994  0.13517974  1
  O  O33  1  0.82638725  0.10489642  0.13681591  1
  O  O34  1  0.23310440  0.35573707  0.13488475  1
  O  O35  1  0.72178543  0.34373125  0.13985608  1
  O  O36  1  0.21282893  0.29754674  0.03350624  1
  O  O37  1  0.72969805  0.32453201  0.03661943  1
  O  O38  1  0.43130582  0.54687414  0.03262635  1
  O  O39  1  0.93368499  0.57332339  0.03833388  1
  O  O40  1  0.33869542  0.12105864  0.03207890  1
  O  O41  1  0.85374344  0.12972476  0.03472778  1
  O  O42  1  0.23290728  0.14080205  0.53568345  1
  O  O43  1  0.73257237  0.14158941  0.53438255  1
  O  O44  1  0.33757030  0.54912231  0.53002366  1
  O  O45  1  0.83514797  0.53862704  0.53416165  1
  O  O46  1  0.43034109  0.32209381  0.53657659  1
  O  O47  1  0.92649810  0.31977354  0.53588666  1
  O  O48  1  0.29385547  0.70916171  0.96891700  1
  O  O49  1  0.79209515  0.71267478  0.96477577  1
  O  O50  1  0.06341586  0.41878232  0.96485761  1
  O  O51  1  0.56403662  0.41927996  0.96453833  1
  O  O52  1  0.14505802  0.87479897  0.96537035  1
  O  O53  1  0.64612208  0.87368347  0.96594367  1
  O  O54  1  0.27536998  0.86962005  0.47231129  1
  O  O55  1  0.76917609  0.86514963  0.46882574  1
  O  O56  1  0.16446427  0.45682973  0.46978130  1
  O  O57  1  0.66213939  0.46582632  0.46339728  1
  O  O58  1  0.06629594  0.67012312  0.46406175  1
  O  O59  1  0.56626253  0.67740712  0.46630136  1
  O  O60  1  0.05536375  0.65978297  0.36018188  1
  O  O61  1  0.57160947  0.66063961  0.36294249  1
  O  O62  1  0.26709430  0.87320630  0.36860974  1
  O  O63  1  0.75348305  0.84552687  0.36558265  1
  O  O64  1  0.17376718  0.46801347  0.36661446  1
  O  O65  1  0.67066956  0.48641951  0.35948501  1
  O  O66  1  0.05589680  0.45770489  0.86285717  1
  O  O67  1  0.55593273  0.45839624  0.86264256  1
  O  O68  1  0.17068941  0.88517949  0.86366050  1
  O  O69  1  0.67255479  0.88834657  0.86413417  1
  O  O70  1  0.26807714  0.65479968  0.86715126  1
  O  O71  1  0.77023893  0.65053000  0.86331821  1
  O  O72  1  0.00756856  0.82040897  0.41793069  1
  O  O73  1  0.50982914  0.81682470  0.41030774  1
  O  O74  1  0.40060344  0.96680090  0.41756831  1
  O  O75  1  0.89292550  0.97451549  0.41068834  1
  O  O76  1  0.09458632  0.19707093  0.41705947  1
  O  O77  1  0.59176889  0.21298221  0.40812758  1
  O  O78  1  0.00802591  0.17765477  0.90239331  1
  O  O79  1  0.50860315  0.17834599  0.90201294  1
  O  O80  1  0.07996159  0.98573004  0.90272917  1
  O  O81  1  0.58130771  0.98694125  0.90346504  1
  O  O82  1  0.41092658  0.83866974  0.90263729  1
  O  O83  1  0.91139161  0.83810559  0.90137784  1
  O  O84  1  0.48494810  0.18139528  0.59069371  1
  O  O85  1  0.98294821  0.18166881  0.59049950  1
  O  O86  1  0.10744214  0.02342400  0.59129461  1
  O  O87  1  0.60727057  0.02420089  0.59002136  1
  O  O88  1  0.40968091  0.79850288  0.58655754  1
  O  O89  1  0.90863966  0.79484517  0.58759795  1
  O  O90  1  0.48724308  0.80282993  0.08589721  1
  O  O91  1  0.99389724  0.82501633  0.09680037  1
  O  O92  1  0.40891871  0.00206464  0.08600724  1
  O  O93  1  0.91886505  0.01417276  0.09443297  1
  O  O94  1  0.09063339  0.17533403  0.09509891  1
  O  O95  1  0.59505816  0.18067574  0.08324561  1
  O  O96  1  0.34860838  0.18718294  0.73895309  1
  O  O97  1  0.84853974  0.18805361  0.73856866  1
  O  O98  1  0.23792284  0.30224059  0.74463267  1
  O  O99  1  0.73728124  0.30100219  0.74539668  1
  O  O100  1  0.40994913  0.52488723  0.74300577  1
  O  O101  1  0.91033816  0.52543985  0.74351434  1
  O  O102  1  0.33849684  0.52351404  0.24876733  1
  O  O103  1  0.83003661  0.51229671  0.24201745  1
  O  O104  1  0.43323942  0.34012175  0.24804186  1
  O  O105  1  0.92608849  0.31651763  0.24190394  1
  O  O106  1  0.22827427  0.13882721  0.23834220  1
  O  O107  1  0.73634954  0.14123287  0.24882349  1
  O  O108  1  0.33946430  0.53360598  0.91818386  1
  O  O109  1  0.84017997  0.53420122  0.91858366  1
  O  O110  1  0.42740365  0.32215826  0.91750779  1
  O  O111  1  0.92749156  0.32296292  0.91773941  1
  O  O112  1  0.23295397  0.14438994  0.91675398  1
  O  O113  1  0.73445136  0.14551672  0.91902323  1
  O  O114  1  0.33044659  0.13638045  0.41907672  1
  O  O115  1  0.81040003  0.11764537  0.41105800  1
  O  O116  1  0.24931169  0.36305732  0.41800210  1
  O  O117  1  0.74514182  0.37063506  0.40945376  1
  O  O118  1  0.43603732  0.51363242  0.41128380  1
  O  O119  1  0.93051680  0.51078435  0.41566108  1
  O  O120  1  0.17145236  0.48458429  0.07954223  1
  O  O121  1  0.67260180  0.48989255  0.08012171  1
  O  O122  1  0.07191411  0.67472271  0.08225091  1
  O  O123  1  0.57056463  0.65992301  0.07843713  1
  O  O124  1  0.25724309  0.84817500  0.08033899  1
  O  O125  1  0.76560790  0.85370265  0.07972238  1
  O  O126  1  0.19231262  0.88465555  0.58953818  1
  O  O127  1  0.69251319  0.88576756  0.58819923  1
  O  O128  1  0.25730673  0.64586521  0.58689132  1
  O  O129  1  0.75646871  0.64389613  0.58813273  1
  O  O130  1  0.05822845  0.49021235  0.58932020  1
  O  O131  1  0.56062144  0.49033741  0.59046391  1
  O  O132  1  0.14040999  0.83162062  0.24420787  1
  O  O133  1  0.66000175  0.83602071  0.26489291  1
  O  O134  1  0.26289227  0.68172540  0.24982074  1
  O  O135  1  0.75538153  0.69062459  0.26350816  1
  O  O136  1  0.07760626  0.46297146  0.24373975  1
  O  O137  1  0.58680059  0.48995238  0.26271071  1
  O  O138  1  0.16455407  0.46048189  0.75801907  1
  O  O139  1  0.66371182  0.45960356  0.75838125  1
  O  O140  1  0.06149439  0.65957685  0.75822435  1
  O  O141  1  0.56120260  0.65837382  0.75810377  1
  O  O142  1  0.25817804  0.85142870  0.75492136  1
  O  O143  1  0.75771406  0.85203226  0.75464950  1
loop_
_geom_bond_atom_site_label_1
_geom_bond_atom_site_label_2
_geom_bond_distance
_geom_bond_site_symmetry_2
Na0 O103 2.311320 1_555
Na0 O137 2.591050 1_555
Na0 O35 2.607134 1_555
Na0 O107 2.623698 1_555
Na0 O135 2.631307 1_555
Na0 O21 2.716059 1_555
Na1 O132 2.411162 1_655
Na1 O105 2.539380 1_555
Na1 O103 2.587961 1_555
Na1 O3 2.661238 1_555
Na1 O60 2.720202 1_655
Na1 O136 2.728209 1_655
Na1 O31 2.767731 1_555
Na2 O12 2.340342 1_555
Na2 O126 2.363458 1_555
Na2 O84 2.435232 1_565
Na2 O88 2.453161 1_555
Na2 O128 2.503233 1_555
Na3 O13 2.321143 1_555
Na3 O127 2.370867 1_555
Na3 O85 2.407267 1_565
Na3 O89 2.462703 1_555
Na3 O129 2.519493 1_555
Na4 O124 2.435551 1_555
Na4 O92 2.456514 1_565
Na4 O90 2.470830 1_555
Na4 O120 2.588112 1_555
Na4 O48 2.788534 1_554
Na4 O18 2.932587 1_555
Na4 O38 2.939606 1_555
Na4 O34 2.939877 1_555
Na5 O74 2.417356 1_555
Na5 O116 2.418662 1_555
Na5 O73 2.576747 1_555
Na5 O118 2.598461 1_555
Na5 O2 2.788243 1_555
Na5 O44 2.903903 1_555
Na6 O72 2.411851 1_555
Na6 O76 2.545116 1_565
Na6 O86 2.787297 1_565
Na6 O89 2.824377 1_455
Na6 O75 2.873464 1_455
Na6 O85 2.984470 1_465
Na7 O74 2.694487 1_545
Na7 O87 2.700825 1_555
Na7 O77 2.747251 1_555
Na7 O73 2.761308 1_545
Na7 O88 2.789552 1_545
Na7 O84 2.798677 1_555
Na8 O80 2.691303 1_545
Na8 O94 2.736229 1_556
Na8 O91 2.759185 1_446
Na8 O78 2.771774 1_555
Na8 O93 2.775399 1_456
Na8 O83 2.821372 1_445
Na9 O95 2.473149 1_556
Na9 O81 2.670642 1_545
Na9 O90 2.678949 1_546
Na9 O92 2.731108 1_556
Na9 O79 2.764567 1_555
Na9 O82 2.875325 1_545
Na10 O112 2.558235 1_555
Na10 O108 2.588079 1_555
Na10 O110 2.621367 1_555
Na10 O98 2.685685 1_555
Na10 O100 2.760037 1_555
Na10 O96 2.765402 1_555
Na11 O113 2.579643 1_555
Na11 O109 2.596418 1_555
Na11 O111 2.639008 1_555
Na11 O99 2.661166 1_555
Na11 O101 2.756307 1_555
Na11 O97 2.768692 1_555
Na12 O102 2.613888 1_555
Na12 O104 2.635979 1_555
Na12 O118 2.638134 1_555
Na12 O116 2.679244 1_555
Na12 O114 2.687273 1_555
Na12 O106 2.808860 1_555
Na13 O119 2.524277 1_555
Na13 O117 2.542613 1_555
Na13 O115 2.548191 1_555
Na13 O107 2.706152 1_555
Na13 O103 2.746162 1_555
Na13 O105 2.792999 1_555
Na14 O136 2.573203 1_555
Na14 O124 2.576118 1_555
Na14 O132 2.588030 1_555
Na14 O134 2.609164 1_555
Na14 O120 2.630358 1_555
Na14 O122 2.636519 1_555
Na15 O123 2.459391 1_555
Na15 O121 2.532477 1_555
Na15 O125 2.553115 1_555
Na15 O137 2.927712 1_555
Na15 O133 2.945153 1_555
Na15 O135 2.983539 1_555
Na16 O142 2.478097 1_555
Na16 O138 2.681270 1_555
Na16 O128 2.710514 1_555
Na16 O126 2.715018 1_555
Na16 O140 2.734136 1_555
Na16 O130 2.759852 1_555
Na17 O143 2.457771 1_555
Na17 O139 2.672172 1_555
Na17 O129 2.688795 1_555
Na17 O141 2.730395 1_555
Na17 O131 2.736910 1_555
Na17 O127 2.759628 1_555
Ca0 O3 2.132869 1_445
Ca0 O0 2.259275 1_555
Ca0 O5 2.271416 1_455
Ca0 O72 2.316624 1_545
Ca0 O75 2.318509 1_445
Ca0 O76 2.319294 1_555
Ca1 O4 2.220843 1_555
Ca1 O1 2.229590 1_555
Ca1 O2 2.248110 1_545
Ca1 O77 2.291693 1_555
Ca1 O73 2.298463 1_545
Ca1 O74 2.311268 1_545
Ca2 O13 2.142393 1_455
Ca2 O16 2.209882 1_555
Ca2 O14 2.213736 1_565
Ca2 O86 2.292131 1_565
Ca2 O89 2.329789 1_455
Ca2 O85 2.353892 1_465
Ca3 O12 2.144555 1_555
Ca3 O17 2.201239 1_555
Ca3 O15 2.210068 1_565
Ca3 O87 2.305412 1_565
Ca3 O88 2.331533 1_555
Ca3 O84 2.346425 1_565
Ca4 O18 2.284195 1_545
Ca4 O95 2.290646 1_555
Ca4 O90 2.323471 1_545
Ca4 O92 2.327624 1_555
Ca4 O23 2.345300 1_545
Ca4 O21 2.347197 1_555
Ca5 O30 2.240882 1_555
Ca5 O32 2.258494 1_555
Ca5 O34 2.259288 1_555
Ca5 O106 2.286174 1_555
Ca5 O102 2.322835 1_555
Ca5 O104 2.351493 1_555
Ca6 O33 2.224181 1_555
Ca6 O103 2.240227 1_555
Ca6 O35 2.262812 1_555
Ca6 O31 2.280581 1_555
Ca6 O105 2.320833 1_555
Ca6 O107 2.370530 1_555
Ca7 O40 2.260003 1_556
Ca7 O38 2.278279 1_556
Ca7 O112 2.301940 1_555
Ca7 O36 2.329914 1_556
Ca7 O110 2.379452 1_555
Ca7 O108 2.380817 1_555
Ca8 O37 2.246194 1_556
Ca8 O111 2.344334 1_555
Ca8 O113 2.350978 1_555
Ca8 O41 2.357966 1_556
Ca8 O109 2.373708 1_555
Ca8 O39 2.385641 1_556
Ca9 O46 2.200423 1_555
Ca9 O42 2.228290 1_555
Ca9 O44 2.260948 1_555
Ca9 O114 2.275361 1_555
Ca9 O116 2.285170 1_555
Ca9 O118 2.403909 1_555
Ca10 O45 2.227778 1_555
Ca10 O43 2.239330 1_555
Ca10 O119 2.250948 1_555
Ca10 O47 2.268873 1_555
Ca10 O117 2.380945 1_555
Ca10 O115 2.422816 1_555
Ca11 O52 2.306581 1_554
Ca11 O50 2.340434 1_554
Ca11 O124 2.353787 1_555
Ca11 O122 2.359515 1_555
Ca11 O120 2.402754 1_555
Ca11 O48 2.466601 1_554
Ca12 O53 2.336243 1_554
Ca12 O121 2.346418 1_555
Ca12 O123 2.348691 1_555
Ca12 O51 2.368628 1_554
Ca12 O49 2.370497 1_554
Ca12 O125 2.381045 1_555
Ca13 O58 2.218738 1_555
Ca13 O56 2.240723 1_555
Ca13 O54 2.332304 1_555
Ca13 O130 2.350150 1_555
Ca13 O128 2.399419 1_555
Ca13 O126 2.431092 1_555
Ca14 O57 2.246347 1_555
Ca14 O59 2.258318 1_555
Ca14 O55 2.311490 1_555
Ca14 O131 2.338924 1_555
Ca14 O129 2.372729 1_555
Ca14 O127 2.406166 1_555
Ca15 O64 2.241414 1_555
Ca15 O62 2.252898 1_555
Ca15 O60 2.272169 1_555
Ca15 O134 2.276045 1_555
Ca15 O136 2.414177 1_555
Ca15 O132 2.441487 1_555
Ca16 O142 2.175243 1_555
Ca16 O68 2.224529 1_555
Ca16 O70 2.260178 1_555
Ca16 O66 2.297346 1_555
Ca16 O140 2.323447 1_555
Ca16 O138 2.326501 1_555
Ca17 O143 2.176486 1_555
Ca17 O69 2.229607 1_555
Ca17 O71 2.268016 1_555
Ca17 O67 2.295171 1_555
Ca17 O141 2.325233 1_555
Ca17 O139 2.333519 1_555
O0 S0 1.459494 1_545
O1 S1 1.470982 1_545
O2 S2 1.491104 1_555
O3 Si0 1.570990 1_555
O4 S4 1.463386 1_555
O5 S3 1.456364 1_655
O6 S5 1.504537 1_555
O6 Ti0 2.206008 1_455
O7 S6 1.511066 1_555
O7 Ti1 2.173128 1_555
O8 S8 1.495772 1_555
O8 Ti1 2.215923 1_565
O9 S7 1.497537 1_555
O9 Ti0 2.189365 1_565
O10 Si1 1.748141 1_545
O10 Ti1 1.791894 1_555
O11 Si2 1.749872 1_555
O11 Ti0 1.789424 1_555
O12 Si1 1.581946 1_555
O13 Si2 1.581531 1_565
O14 S5 1.457406 1_555
O15 S6 1.455391 1_555
O16 S7 1.457610 1_455
O17 S8 1.455902 1_555
O18 S2 1.483321 1_555
O19 Si0 1.733199 1_555
O19 Ti2 1.787312 1_555
O20 S3 1.518481 1_555
O20 Ti2 2.009164 1_445
O21 S4 1.482531 1_555
O22 S0 1.525369 1_555
O22 Ti2 2.028752 1_455
O23 S1 1.469747 1_555
O24 S9 1.513155 1_555
O24 Ti3 2.048623 1_555
O25 S10 1.525882 1_555
O25 Ti4 2.014189 1_555
O26 S11 1.520716 1_555
O26 Ti3 2.038971 1_555
O27 S12 1.516658 1_555
O27 Ti4 2.061191 1_555
O28 S13 1.488813 1_555
O28 Ti3 2.271004 1_555
O29 S14 1.496286 1_555
O29 Ti4 2.213261 1_555
O30 S15 1.475506 1_555
O31 S16 1.476589 1_555
O32 S17 1.471358 1_555
O33 S18 1.463344 1_555
O34 S19 1.477683 1_555
O35 S20 1.494291 1_555
O36 S19 1.476140 1_555
O37 S20 1.472120 1_555
O38 S15 1.482257 1_555
O39 S16 1.466387 1_555
O40 S17 1.466207 1_555
O41 S18 1.466867 1_555
O42 S11 1.464026 1_555
O43 S12 1.464232 1_555
O44 S13 1.482389 1_555
O45 S14 1.465744 1_555
O46 S9 1.466748 1_555
O47 S10 1.466451 1_555
O48 S21 1.487618 1_555
O49 S22 1.469303 1_555
O50 S23 1.473995 1_555
O51 S24 1.470568 1_555
O52 S25 1.485117 1_555
O53 S26 1.484660 1_555
O54 S27 1.484760 1_555
O55 S28 1.466099 1_555
O56 S29 1.474617 1_555
O57 S30 1.460663 1_555
O58 S31 1.475277 1_555
O59 S32 1.466656 1_555
O60 S31 1.489093 1_555
O61 S32 1.502345 1_555
O61 Ti5 2.155692 1_555
O62 S27 1.473005 1_555
O63 S28 1.548227 1_555
O63 Ti5 1.906001 1_555
O64 S29 1.476331 1_555
O65 S30 1.538273 1_555
O65 Ti5 1.992770 1_555
O66 S23 1.451854 1_555
O67 S24 1.454689 1_555
O68 S25 1.460374 1_555
O69 S26 1.464740 1_555
O70 S21 1.454261 1_555
O71 S22 1.455756 1_555
O72 S31 1.484741 1_555
O73 S32 1.491958 1_555
O74 S27 1.509108 1_555
O75 S28 1.460596 1_555
O76 S29 1.478013 1_555
O77 S30 1.472957 1_555
O78 S23 1.547054 1_555
O78 Ti0 1.971374 1_455
O79 S24 1.556441 1_555
O79 Ti1 1.948379 1_555
O80 S25 1.511286 1_555
O80 Ti0 2.152766 1_465
O81 S26 1.514533 1_555
O81 Ti1 2.165887 1_565
O82 S21 1.541815 1_555
O82 Ti1 1.997069 1_565
O83 S22 1.550889 1_555
O83 Ti0 1.964318 1_565
O84 S9 1.485835 1_555
O85 S10 1.484589 1_555
O86 S11 1.468309 1_555
O87 S12 1.470711 1_555
O88 S13 1.495689 1_555
O89 S14 1.492719 1_555
O90 S15 1.501746 1_555
O91 S16 1.536896 1_555
O91 Ti2 2.019671 1_555
O92 S17 1.501470 1_555
O93 S18 1.543118 1_555
O93 Ti2 1.977610 1_545
O94 S19 1.503209 1_555
O94 Ti2 2.276060 1_445
O95 S20 1.491822 1_555
O96 Si1 1.744743 1_545
O96 Ti3 1.777810 1_555
O97 Si2 1.741069 1_555
O97 Ti4 1.784694 1_555
O98 S5 1.535318 1_555
O98 Ti3 2.064508 1_555
O99 S6 1.530942 1_555
O99 Ti4 2.097334 1_555
O100 S8 1.540368 1_555
O100 Ti3 2.020722 1_555
O101 S7 1.538258 1_555
O101 Ti4 2.026367 1_555
O102 S2 1.483594 1_555
O103 Si0 1.613608 1_555
O104 S4 1.465246 1_555
O105 S3 1.483682 1_655
O106 S0 1.466223 1_545
O107 S1 1.478769 1_545
O108 S21 1.478422 1_555
O109 S22 1.481490 1_555
O110 S24 1.478382 1_555
O111 S23 1.482333 1_655
O112 S25 1.489356 1_545
O113 S26 1.490954 1_545
O114 S27 1.477585 1_545
O115 S28 1.476284 1_545
O116 S29 1.507020 1_555
O117 S30 1.473923 1_555
O118 S32 1.494136 1_555
O119 S31 1.489923 1_655
O120 S19 1.501732 1_555
O121 S20 1.483607 1_555
O122 S16 1.477512 1_455
O123 S15 1.482103 1_555
O124 S17 1.505773 1_565
O125 S18 1.475560 1_565
O126 S11 1.495209 1_565
O127 S12 1.498228 1_565
O128 S13 1.498943 1_555
O129 S14 1.504711 1_555
O130 S10 1.475263 1_455
O131 S9 1.477113 1_555
O132 S0 1.497645 1_555
O133 S1 1.514371 1_555
O133 Ti5 1.994940 1_555
O134 S2 1.487172 1_555
O135 Si0 1.703502 1_555
O135 Ti5 1.842976 1_555
O136 S3 1.489171 1_555
O137 S4 1.532110 1_555
O137 Ti5 2.062563 1_555
O138 S5 1.463851 1_555
O139 S6 1.463428 1_555
O140 S7 1.462626 1_455
O141 S8 1.463932 1_555
O142 Si1 1.582475 1_555
O143 Si2 1.583354 1_565
