# generated using pymatgen
data_TePdI2
_symmetry_space_group_name_H-M   'P 1'
_cell_length_a   4.04981360
_cell_length_b   7.07698751
_cell_length_c   9.72221790
_cell_angle_alpha   67.58836879
_cell_angle_beta   89.66245171
_cell_angle_gamma   89.75723547
_symmetry_Int_Tables_number   1
_chemical_formula_structural   TePdI2
_chemical_formula_sum   'Te2 Pd2 I4'
_cell_volume   257.59205384
_cell_formula_units_Z   2
loop_
 _symmetry_equiv_pos_site_id
 _symmetry_equiv_pos_as_xyz
  1  'x, y, z'
loop_
 _atom_site_type_symbol
 _atom_site_label
 _atom_site_symmetry_multiplicity
 _atom_site_fract_x
 _atom_site_fract_y
 _atom_site_fract_z
 _atom_site_occupancy
  Te  Te0  1  0.24706768  0.51249468  0.14160394  1
  Te  Te1  1  0.75293232  0.48750532  0.85839606  1
  Pd  Pd0  1  0.25037922  0.24203679  0.01857475  1
  Pd  Pd1  1  0.74962078  0.75796321  0.98142525  1
  I  I0  1  0.25281749  0.03928590  0.81997179  1
  I  I1  1  0.24933205  0.70010043  0.59606689  1
  I  I2  1  0.74718251  0.96071410  0.18002821  1
  I  I3  1  0.75066795  0.29989957  0.40393311  1
loop_
_geom_bond_atom_site_label_1
_geom_bond_atom_site_label_2
_geom_bond_distance
_geom_bond_site_symmetry_2
Pd0 Te0 2.615277 1_555
Pd0 Te1 2.728719 1_454
Pd0 Te1 2.741343 1_554
Pd1 Te1 2.615277 1_555
Pd1 Te0 2.728719 1_656
Pd1 Te0 2.741343 1_556
I0 Pd0 2.810585 1_556
I0 Pd1 2.845341 1_545
I0 Pd1 2.862560 1_445
I1 Te1 3.138308 1_455
I1 Te1 3.168145 1_555
I2 Pd1 2.810585 1_554
I2 Pd0 2.845341 1_565
I2 Pd0 2.862560 1_665
I3 Te0 3.138308 1_655
I3 Te0 3.168145 1_555
