# generated using pymatgen
data_Na4Mg(BiO3)2
_symmetry_space_group_name_H-M   'P 1'
_cell_length_a   6.34905994
_cell_length_b   6.41998489
_cell_length_c   6.01183071
_cell_angle_alpha   82.04947734
_cell_angle_beta   99.38249075
_cell_angle_gamma   59.92394204
_symmetry_Int_Tables_number   1
_chemical_formula_structural   Na4Mg(BiO3)2
_chemical_formula_sum   'Na4 Mg1 Bi2 O6'
_cell_volume   202.15146524
_cell_formula_units_Z   1
loop_
 _symmetry_equiv_pos_site_id
 _symmetry_equiv_pos_as_xyz
  1  'x, y, z'
loop_
 _atom_site_type_symbol
 _atom_site_label
 _atom_site_symmetry_multiplicity
 _atom_site_fract_x
 _atom_site_fract_y
 _atom_site_fract_z
 _atom_site_occupancy
  Na  Na0  1  0.02449687  0.19006730  0.48207792  1
  Na  Na1  1  0.97403276  0.73093051  0.51080318  1
  Na  Na2  1  0.46901154  0.63889060  0.43985028  1
  Na  Na3  1  0.99467077  0.00967033  0.99624732  1
  Mg  Mg0  1  0.48969091  0.15622616  0.46945366  1
  Bi  Bi0  1  0.65077631  0.67487117  0.95061058  1
  Bi  Bi1  1  0.33939179  0.32413153  0.00570292  1
  O  O0  1  0.28827185  0.78042452  0.75141503  1
  O  O1  1  0.20604349  0.50314567  0.29150626  1
  O  O2  1  0.34261148  0.02706328  0.23604899  1
  O  O3  1  0.85934013  0.47024010  0.72771616  1
  O  O4  1  0.63388984  0.00838156  0.79763717  1
  O  O5  1  0.70693926  0.17345727  0.26801350  1
loop_
_geom_bond_atom_site_label_1
_geom_bond_atom_site_label_2
_geom_bond_distance
_geom_bond_site_symmetry_2
Na0 O5 2.267163 1_455
Na0 O3 2.421751 1_455
Na0 O0 2.422037 1_545
Na0 O2 2.577957 1_555
Na1 O1 2.248104 1_655
Na1 O3 2.441148 1_555
Na1 O0 2.448568 1_655
Na1 O5 2.508887 1_565
Na2 O2 2.277235 1_565
Na2 O1 2.351653 1_555
Na2 O3 2.388039 1_555
Na2 O0 2.403623 1_555
Na3 O4 2.408868 1_555
Na3 O2 2.494857 1_656
Na3 O0 2.559575 1_645
Na3 O5 2.575921 1_556
Na3 O3 2.787150 1_555
Na3 O1 2.962923 1_646
Mg0 O4 1.911487 1_555
Mg0 O1 2.010145 1_555
Mg0 O5 2.010436 1_555
Mg0 O2 2.049229 1_555
Bi0 O0 2.122285 1_555
Bi0 O3 2.144032 1_555
Bi0 O4 2.152845 1_565
Bi1 O2 2.185518 1_555
Bi1 O5 2.232437 1_555
Bi1 O1 2.243913 1_555
Bi1 O4 2.614376 1_554
Bi1 O3 2.828852 1_454
