# generated using pymatgen
data_CeFe2
_symmetry_space_group_name_H-M   'P 1'
_cell_length_a   5.19755103
_cell_length_b   5.19753370
_cell_length_c   5.19753072
_cell_angle_alpha   60.00083097
_cell_angle_beta   60.00096642
_cell_angle_gamma   60.00090523
_symmetry_Int_Tables_number   1
_chemical_formula_structural   CeFe2
_chemical_formula_sum   'Ce2 Fe4'
_cell_volume   99.28577125
_cell_formula_units_Z   2
loop_
 _symmetry_equiv_pos_site_id
 _symmetry_equiv_pos_as_xyz
  1  'x, y, z'
loop_
 _atom_site_type_symbol
 _atom_site_label
 _atom_site_symmetry_multiplicity
 _atom_site_fract_x
 _atom_site_fract_y
 _atom_site_fract_z
 _atom_site_occupancy
  Ce  Ce0  1  0.12500081  0.12499567  0.12500287  1
  Ce  Ce1  1  0.87499919  0.87500433  0.87499713  1
  Fe  Fe0  1  0.50000000  0.00000000  0.50000000  1
  Fe  Fe1  1  0.00000000  0.50000000  0.50000000  1
  Fe  Fe2  1  0.50000000  0.50000000  0.50000000  1
  Fe  Fe3  1  0.50000000  0.50000000  -0.00000000  1
loop_
_geom_bond_atom_site_label_1
_geom_bond_atom_site_label_2
_geom_bond_distance
_geom_bond_site_symmetry_2
Ce0 Fe0 3.047315 1_555
Ce0 Fe1 3.047323 1_555
Ce0 Fe1 3.047330 1_545
Ce0 Fe3 3.047333 1_555
Ce0 Fe3 3.047337 1_545
Ce0 Fe2 3.047345 1_545
Ce0 Fe0 3.047353 1_554
Ce0 Fe0 3.047354 1_455
Ce0 Fe1 3.047360 1_554
Ce0 Fe3 3.047367 1_455
Ce0 Fe2 3.047377 1_455
Ce0 Fe2 3.047380 1_554
Ce0 Ce1 3.182802 1_444
Ce0 Ce1 3.182836 1_445
Ce0 Ce1 3.182868 1_544
Ce0 Ce1 3.182897 1_454
Ce1 Fe0 3.047315 1_565
Ce1 Fe1 3.047323 1_655
Ce1 Fe1 3.047330 1_665
Ce1 Fe3 3.047333 1_556
Ce1 Fe3 3.047337 1_566
Ce1 Fe2 3.047345 1_565
Ce1 Fe0 3.047353 1_566
Ce1 Fe0 3.047354 1_665
Ce1 Fe1 3.047360 1_656
Ce1 Fe3 3.047367 1_656
Ce1 Fe2 3.047377 1_655
Ce1 Fe2 3.047380 1_556
Fe0 Fe2 2.598767 1_555
Fe0 Fe2 2.598767 1_545
Fe0 Fe3 2.598799 1_546
Fe0 Fe3 2.598799 1_555
Fe0 Fe1 2.598807 1_645
Fe0 Fe1 2.598807 1_555
Fe1 Fe2 2.598776 1_555
Fe1 Fe2 2.598776 1_455
Fe1 Fe3 2.598808 1_555
Fe1 Fe3 2.598808 1_456
Fe2 Fe3 2.598765 1_555
Fe2 Fe3 2.598765 1_556
