# generated using pymatgen
data_ErAsS
_symmetry_space_group_name_H-M   'P 1'
_cell_length_a   3.78665465
_cell_length_b   3.81953299
_cell_length_c   16.80727137
_cell_angle_alpha   90.00000000
_cell_angle_beta   90.00000000
_cell_angle_gamma   90.00000000
_symmetry_Int_Tables_number   1
_chemical_formula_structural   ErAsS
_chemical_formula_sum   'Er4 As4 S4'
_cell_volume   243.08780726
_cell_formula_units_Z   4
loop_
 _symmetry_equiv_pos_site_id
 _symmetry_equiv_pos_as_xyz
  1  'x, y, z'
loop_
 _atom_site_type_symbol
 _atom_site_label
 _atom_site_symmetry_multiplicity
 _atom_site_fract_x
 _atom_site_fract_y
 _atom_site_fract_z
 _atom_site_occupancy
  Er  Er0  1  0.25000000  0.23334866  0.85402586  1
  Er  Er1  1  0.25000000  0.26665134  0.35402586  1
  Er  Er2  1  0.75000000  0.76665134  0.14597414  1
  Er  Er3  1  0.75000000  0.73334866  0.64597414  1
  As  As0  1  0.75000000  0.21568294  0.50187862  1
  As  As1  1  0.75000000  0.28431706  0.00187862  1
  As  As2  1  0.25000000  0.78431706  0.49812138  1
  As  As3  1  0.25000000  0.71568294  0.99812138  1
  S  S0  1  0.25000000  0.23668770  0.68721400  1
  S  S1  1  0.25000000  0.26331230  0.18721400  1
  S  S2  1  0.75000000  0.76331230  0.31278600  1
  S  S3  1  0.75000000  0.73668770  0.81278600  1
loop_
_geom_bond_atom_site_label_1
_geom_bond_atom_site_label_2
_geom_bond_distance
_geom_bond_site_symmetry_2
Er0 S3 2.768352 1_445
Er0 S3 2.768352 1_545
Er0 S3 2.785893 1_455
Er0 S3 2.785893 1_555
Er0 S0 2.803681 1_555
Er1 S2 2.768352 1_455
Er1 S2 2.768352 1_555
Er1 S2 2.785893 1_545
Er1 S2 2.785893 1_445
Er1 S1 2.803681 1_555
Er2 S1 2.768352 1_565
Er2 S1 2.768352 1_665
Er2 S1 2.785893 1_655
Er2 S1 2.785893 1_555
Er2 S2 2.803681 1_555
Er3 S0 2.768352 1_555
Er3 S0 2.768352 1_655
Er3 S0 2.785893 1_565
Er3 S0 2.785893 1_665
Er3 S3 2.803681 1_555
As0 As2 2.510640 1_545
As0 As2 2.510640 1_645
As0 As2 2.881996 1_655
As0 As2 2.881996 1_555
As0 Er3 3.042928 1_545
As0 Er3 3.126476 1_555
As0 Er1 3.130147 1_555
As0 Er1 3.130147 1_655
As1 As3 2.510640 1_654
As1 As3 2.510640 1_554
As1 As3 2.881996 1_644
As1 As3 2.881996 1_544
As1 Er2 3.042928 1_555
As1 Er2 3.126476 1_545
As1 Er0 3.130147 1_654
As1 Er0 3.130147 1_554
As2 Er1 3.042928 1_565
As2 Er1 3.126476 1_555
As2 Er3 3.130147 1_455
As2 Er3 3.130147 1_555
As3 Er0 3.042928 1_555
As3 Er0 3.126476 1_565
As3 Er2 3.130147 1_456
As3 Er2 3.130147 1_556
