# generated using pymatgen
data_V3Sn
_symmetry_space_group_name_H-M   'P 1'
_cell_length_a   5.60091462
_cell_length_b   5.60096705
_cell_length_c   4.48983984
_cell_angle_alpha   89.99999375
_cell_angle_beta   90.00000613
_cell_angle_gamma   119.99994253
_symmetry_Int_Tables_number   1
_chemical_formula_structural   V3Sn
_chemical_formula_sum   'V6 Sn2'
_cell_volume   121.97861632
_cell_formula_units_Z   2
loop_
 _symmetry_equiv_pos_site_id
 _symmetry_equiv_pos_as_xyz
  1  'x, y, z'
loop_
 _atom_site_type_symbol
 _atom_site_label
 _atom_site_symmetry_multiplicity
 _atom_site_fract_x
 _atom_site_fract_y
 _atom_site_fract_z
 _atom_site_occupancy
  V  V0  1  0.14970072  0.29942794  0.75000000  1
  V  V1  1  0.85030039  0.14972330  0.25000011  1
  V  V2  1  0.85027077  0.70057187  0.24999999  1
  V  V3  1  0.14972809  0.85030535  0.74999990  1
  V  V4  1  0.70057945  0.85027685  0.75000008  1
  V  V5  1  0.29942073  0.14969506  0.24999991  1
  Sn  Sn0  1  0.66666530  0.33333192  0.75000002  1
  Sn  Sn1  1  0.33333455  0.66666771  0.24999996  1
loop_
_geom_bond_atom_site_label_1
_geom_bond_atom_site_label_2
_geom_bond_distance
_geom_bond_site_symmetry_2
V0 V4 2.515587 1_445
V0 V3 2.515597 1_545
V0 V1 2.673705 1_455
V0 V1 2.673706 1_456
V0 V5 2.673847 1_556
V0 V5 2.673848 1_555
V0 V4 3.085358 1_555
V0 V3 3.085370 1_555
V1 V5 2.515564 1_655
V1 V2 2.515599 1_545
V1 V4 2.673834 1_545
V1 V4 2.673835 1_544
V1 V5 3.085351 1_555
V1 V2 3.085368 1_555
V2 V5 2.515590 1_665
V2 V4 2.673698 1_554
V2 V4 2.673699 1_555
V2 V3 2.673856 1_655
V2 V3 2.673856 1_654
V2 V5 3.085356 1_555
V3 V4 2.515563 1_455
V3 V5 2.673685 1_565
V3 V5 2.673685 1_566
V3 V4 3.085351 1_555
Sn0 V3 2.805196 1_545
Sn0 V0 2.805212 1_655
Sn0 V4 2.805244 1_555
Sn0 V0 2.805352 1_555
Sn0 V4 2.805378 1_545
Sn0 V3 2.805402 1_655
Sn0 V2 2.865797 1_556
Sn0 V2 2.865797 1_555
Sn0 V5 2.865801 1_556
Sn0 V5 2.865801 1_555
Sn0 V1 2.865802 1_555
Sn0 V1 2.865803 1_556
Sn1 V2 2.805193 1_555
Sn1 V5 2.805222 1_565
Sn1 V1 2.805241 1_455
Sn1 V1 2.805357 1_565
Sn1 V2 2.805371 1_455
Sn1 V5 2.805400 1_555
Sn1 V0 2.865797 1_554
Sn1 V0 2.865797 1_555
Sn1 V4 2.865801 1_554
Sn1 V4 2.865802 1_555
Sn1 V3 2.865804 1_555
Sn1 V3 2.865804 1_554
