# generated using pymatgen
data_Na5La2Ga2P5SO24
_symmetry_space_group_name_H-M   'P 1'
_cell_length_a   9.16570351
_cell_length_b   9.06394440
_cell_length_c   22.98861357
_cell_angle_alpha   90.96650284
_cell_angle_beta   89.55790366
_cell_angle_gamma   120.15735858
_symmetry_Int_Tables_number   1
_chemical_formula_structural   Na5La2Ga2P5SO24
_chemical_formula_sum   'Na15 La6 Ga6 P15 S3 O72'
_cell_volume   1651.10109204
_cell_formula_units_Z   3
loop_
 _symmetry_equiv_pos_site_id
 _symmetry_equiv_pos_as_xyz
  1  'x, y, z'
loop_
 _atom_site_type_symbol
 _atom_site_label
 _atom_site_symmetry_multiplicity
 _atom_site_fract_x
 _atom_site_fract_y
 _atom_site_fract_z
 _atom_site_occupancy
  Na  Na0  1  0.62960671  0.00324230  0.25031084  1
  Na  Na1  1  0.99843035  0.35617056  0.74926266  1
  Na  Na2  1  0.35541082  0.99843656  0.74995009  1
  Na  Na3  1  0.03579822  0.69750053  0.57080163  1
  Na  Na4  1  0.66192750  0.96662227  0.57602894  1
  Na  Na5  1  0.30765191  0.97934725  0.09311634  1
  Na  Na6  1  0.02262369  0.33075890  0.09188345  1
  Na  Na7  1  0.97267860  0.66479596  0.92309624  1
  Na  Na8  1  0.69561329  0.67005025  0.41259864  1
  Na  Na9  1  0.02884550  0.02481208  0.48842173  1
  Na  Na10  1  0.99483827  0.00619072  0.01047791  1
  Na  Na11  1  0.65424106  0.32385512  0.83578031  1
  Na  Na12  1  0.68396192  0.33848644  0.33167855  1
  Na  Na13  1  0.34048190  0.64614884  0.17225052  1
  Na  Na14  1  0.35076323  0.65093010  0.66305169  1
  La  La0  1  0.99664755  0.01360480  0.85932636  1
  La  La1  1  0.00189303  0.99782309  0.64254171  1
  La  La2  1  0.66678780  0.35186539  0.67872117  1
  La  La3  1  0.66048573  0.32307023  0.99810124  1
  La  La4  1  0.32359770  0.65983197  0.49594320  1
  La  La5  1  0.35038177  0.66964088  0.82186174  1
  Ga  Ga0  1  0.98019207  0.98595618  0.34122174  1
  Ga  Ga1  1  0.99082673  0.00084276  0.15785526  1
  Ga  Ga2  1  0.68048582  0.36687028  0.17906971  1
  Ga  Ga3  1  0.67806607  0.32429785  0.47826527  1
  Ga  Ga4  1  0.33272190  0.67326204  0.02587964  1
  Ga  Ga5  1  0.31174669  0.65545176  0.31633149  1
  P  P0  1  0.70173104  0.70340786  0.24934777  1
  P  P1  1  -0.00007784  0.29263775  0.25085941  1
  P  P2  1  0.30809507  0.30610176  0.75052685  1
  P  P3  1  0.00214850  0.69082961  0.75329080  1
  P  P4  1  0.68925765  0.00095339  0.74452134  1
  P  P5  1  0.96369453  0.33520290  0.57662727  1
  P  P6  1  0.37546757  0.04075663  0.57353912  1
  P  P7  1  0.66747647  0.63024572  0.56524246  1
  P  P8  1  0.97689264  0.65007749  0.08750604  1
  P  P9  1  0.66898703  0.02488035  0.09347752  1
  P  P10  1  0.35384019  0.32868662  0.09262086  1
  P  P11  1  0.04448625  0.37797349  0.92924357  1
  P  P12  1  0.32789116  0.96071023  0.92737721  1
  P  P13  1  0.64484314  0.97718315  0.40846484  1
  P  P14  1  0.02137541  0.67246879  0.41066811  1
  S  S0  1  0.28694394  0.99303577  0.25126180  1
  S  S1  1  0.63473304  0.66904852  0.93067235  1
  S  S2  1  0.32692540  0.34859823  0.40536020  1
  O  O0  1  0.19197385  0.00697775  0.30122242  1
  O  O1  1  0.80258884  0.77174193  0.30709399  1
  O  O2  1  0.96427939  0.16309724  0.29980407  1
  O  O3  1  0.20458279  0.21439855  0.80473821  1
  O  O4  1  0.00690911  0.79317343  0.80827717  1
  O  O5  1  0.79317794  0.99552969  0.79595719  1
  O  O6  1  0.77349875  0.00454302  0.68555329  1
  O  O7  1  0.21801461  0.20409485  0.69521436  1
  O  O8  1  0.99449353  0.77688883  0.69653153  1
  O  O9  1  0.79757443  0.83313536  0.20075929  1
  O  O10  1  0.03219153  0.21984635  0.19334490  1
  O  O11  1  0.19506823  0.97385793  0.19599745  1
  O  O12  1  0.89732513  0.34214388  0.63826140  1
  O  O13  1  0.44762647  0.10957367  0.63513757  1
  O  O14  1  0.66253572  0.55280529  0.62462141  1
  O  O15  1  0.87446736  0.50226256  0.13200174  1
  O  O16  1  0.62886337  0.12181853  0.14364667  1
  O  O17  1  0.48693392  0.36403526  0.14106872  1
  O  O18  1  0.40712280  0.27550620  0.03620033  1
  O  O19  1  0.88831998  0.59937787  0.02841712  1
  O  O20  1  0.72476107  0.13411423  0.03838486  1
  O  O21  1  0.49078537  0.15608504  0.52464677  1
  O  O22  1  0.66219254  0.51777782  0.51229678  1
  O  O23  1  0.84708115  0.34008372  0.52898251  1
  O  O24  1  0.52133599  0.65721147  0.97766876  1
  O  O25  1  0.15617040  0.49189219  0.98065560  1
  O  O26  1  0.34161645  0.85655138  0.97863587  1
  O  O27  1  0.58852018  0.87474850  0.46553806  1
  O  O28  1  0.28992755  0.39241887  0.46414882  1
  O  O29  1  0.10501769  0.70933224  0.47113146  1
  O  O30  1  0.13244261  0.64111433  0.36570095  1
  O  O31  1  0.51522300  0.87608567  0.35808580  1
  O  O32  1  0.35837591  0.49055480  0.36392582  1
  O  O33  1  0.12378206  0.44877170  0.86887365  1
  O  O34  1  0.32572856  0.88138977  0.86678679  1
  O  O35  1  0.57287806  0.67567416  0.87190740  1
  O  O36  1  0.00154691  0.82989171  0.39729863  1
  O  O37  1  0.82050328  0.99288465  0.39716584  1
  O  O38  1  0.18038668  0.18075939  0.39027260  1
  O  O39  1  0.01535294  0.19746009  0.93732874  1
  O  O40  1  0.15765071  0.95686796  0.93477762  1
  O  O41  1  0.80408876  0.82394065  0.93880799  1
  O  O42  1  0.96650793  0.16740297  0.56823331  1
  O  O43  1  0.19523670  0.01260237  0.56768491  1
  O  O44  1  0.83746097  0.80259195  0.56181753  1
  O  O45  1  0.00296886  0.82732765  0.10489679  1
  O  O46  1  0.82268109  0.00211390  0.10515605  1
  O  O47  1  0.17575152  0.16885102  0.10465454  1
  O  O48  1  0.67780502  0.16480879  0.75339943  1
  O  O49  1  0.48038028  0.31767612  0.75760500  1
  O  O50  1  0.85176963  0.50772308  0.75876363  1
  O  O51  1  0.68648124  0.52495040  0.23753299  1
  O  O52  1  0.83716818  0.30803674  0.24464003  1
  O  O53  1  0.46033638  0.14439725  0.24999093  1
  O  O54  1  0.65962796  0.51858559  0.92778812  1
  O  O55  1  0.87496247  0.37763562  0.92817188  1
  O  O56  1  0.48076521  0.14278549  0.92569704  1
  O  O57  1  0.66226298  0.15701531  0.41705604  1
  O  O58  1  0.48708235  0.34487671  0.40639473  1
  O  O59  1  0.84075235  0.50950306  0.41371228  1
  O  O60  1  0.33075448  0.48724054  0.08535009  1
  O  O61  1  0.15580473  0.66375745  0.08480186  1
  O  O62  1  0.50061830  0.85090906  0.08392747  1
  O  O63  1  0.36173067  0.86197140  0.57057579  1
  O  O64  1  0.51958160  0.66549133  0.56553386  1
  O  O65  1  0.13902156  0.49765991  0.57285926  1
  O  O66  1  0.30674296  0.83558704  0.25627554  1
  O  O67  1  0.52461435  0.69109005  0.25514839  1
  O  O68  1  0.16172382  0.47241976  0.26171849  1
  O  O69  1  0.32008569  0.48074511  0.74449641  1
  O  O70  1  0.16604036  0.68010892  0.74871213  1
  O  O71  1  0.50758175  0.84771951  0.74276572  1
loop_
_geom_bond_atom_site_label_1
_geom_bond_atom_site_label_2
_geom_bond_distance
_geom_bond_site_symmetry_2
Na0 O52 2.448682 1_555
Na0 O53 2.457436 1_555
Na0 O67 2.493357 1_545
Na0 O66 2.562766 1_545
Na0 O16 2.695237 1_555
Na0 O31 2.721795 1_545
Na0 O2 2.887227 1_555
Na0 O9 2.888556 1_545
Na1 O50 2.362696 1_555
Na1 O70 2.539704 1_655
Na1 O48 2.556085 1_555
Na1 O69 2.575514 1_655
Na1 O12 2.700669 1_555
Na1 O33 2.930410 1_655
Na2 O71 2.396262 1_555
Na2 O70 2.510900 1_555
Na2 O49 2.524187 1_565
Na2 O48 2.556268 1_565
Na2 O13 2.809851 1_565
Na2 O34 2.865052 1_555
Na3 O29 2.362515 1_555
Na3 O65 2.429775 1_555
Na3 O44 2.450927 1_455
Na3 O43 2.471746 1_565
Na3 O63 2.583081 1_555
Na4 O64 2.369575 1_555
Na4 O63 2.421829 1_555
Na4 O42 2.456869 1_565
Na4 O27 2.643857 1_555
Na4 O6 2.675943 1_565
Na4 O44 2.699003 1_555
Na5 O45 2.430106 1_555
Na5 O61 2.478214 1_555
Na5 O47 2.558982 1_565
Na5 O11 2.564313 1_555
Na5 O62 2.565701 1_555
Na5 O18 2.718471 1_565
Na5 O16 2.804825 1_565
Na5 O26 2.915216 1_554
Na6 O60 2.446718 1_555
Na6 O47 2.509998 1_555
Na6 O10 2.574788 1_555
Na6 O46 2.619542 1_455
Na6 O61 2.634048 1_555
Na6 O15 2.676634 1_455
Na6 O20 2.689165 1_455
Na6 O25 2.907051 1_554
Na7 O55 2.292762 1_555
Na7 O40 2.329862 1_655
Na7 O54 2.486034 1_555
Na7 O19 2.523974 1_556
Na7 O41 2.610052 1_555
Na7 O4 2.853693 1_655
Na8 O59 2.415526 1_555
Na8 O36 2.450669 1_655
Na8 O37 2.581054 1_555
Na8 O58 2.586563 1_555
Na8 O1 2.612323 1_555
Na8 O22 2.631112 1_555
Na8 O27 2.760845 1_555
Na8 O32 2.896975 1_555
Na9 O43 2.424388 1_555
Na9 O42 2.451322 1_455
Na9 O44 2.549491 1_445
Na9 O36 2.647874 1_545
Na9 O38 2.665477 1_555
Na9 O37 2.759961 1_445
Na10 O41 2.356031 1_544
Na10 O39 2.373737 1_654
Na10 O40 2.461551 1_644
Na10 O47 2.664927 1_655
Na10 O46 2.668263 1_555
Na10 O45 2.754594 1_645
Na11 O49 2.392364 1_555
Na11 O48 2.434297 1_555
Na11 O50 2.491675 1_555
Na11 O56 2.633675 1_555
Na11 O54 2.716550 1_555
Na11 O55 2.807512 1_555
Na12 O59 2.393617 1_555
Na12 O58 2.502753 1_555
Na12 O57 2.524182 1_555
Na12 O52 2.525682 1_555
Na12 O53 2.673475 1_555
Na12 O51 2.761245 1_555
Na13 O60 2.418688 1_555
Na13 O67 2.445136 1_555
Na13 O68 2.619020 1_555
Na13 O62 2.658113 1_555
Na13 O66 2.680945 1_555
Na13 O61 2.695714 1_555
Na14 O69 2.370135 1_555
Na14 O71 2.441319 1_555
Na14 O64 2.681157 1_555
Na14 O70 2.682403 1_555
Na14 O65 2.692851 1_555
Na14 O63 2.851188 1_555
La0 O3 2.252660 1_655
La0 O5 2.313852 1_545
La0 O4 2.342219 1_645
La0 O39 2.374611 1_655
La0 O40 2.506557 1_645
La0 O41 2.533091 1_545
La1 O7 2.263891 1_565
La1 O6 2.336199 1_465
La1 O8 2.345484 1_455
La1 O43 2.417008 1_565
La1 O42 2.446195 1_465
La1 O44 2.469677 1_455
La2 O14 2.239174 1_555
La2 O13 2.320842 1_555
La2 O12 2.343455 1_555
La2 O49 2.396432 1_555
La2 O50 2.410410 1_555
La2 O48 2.470818 1_555
La3 O20 2.283348 1_556
La3 O18 2.306781 1_556
La3 O56 2.323829 1_555
La3 O55 2.386332 1_555
La3 O19 2.414029 1_556
La3 O54 2.421596 1_555
La4 O27 2.333782 1_555
La4 O29 2.338768 1_555
La4 O63 2.383791 1_555
La4 O65 2.385831 1_555
La4 O28 2.386735 1_555
La4 O64 2.395364 1_555
La5 O34 2.273011 1_555
La5 O33 2.313037 1_555
La5 O35 2.325406 1_555
La5 O69 2.366194 1_555
La5 O71 2.389446 1_555
La5 O70 2.429388 1_555
Ga0 O2 1.948020 1_565
Ga0 O1 1.956516 1_555
Ga0 O37 1.964897 1_555
Ga0 O36 2.011156 1_655
Ga0 O0 2.063145 1_665
Ga0 O38 2.113188 1_665
Ga1 O9 1.933713 1_545
Ga1 O46 1.972349 1_555
Ga1 O10 1.985874 1_655
Ga1 O45 2.019211 1_645
Ga1 O47 2.031031 1_655
Ga1 O11 2.196754 1_645
Ga2 O15 1.913322 1_555
Ga2 O51 1.928572 1_555
Ga2 O17 1.971900 1_555
Ga2 O16 2.170123 1_555
Ga2 O52 2.334292 1_555
Ga3 O23 1.891882 1_555
Ga3 O21 1.950654 1_555
Ga3 O22 1.979135 1_555
Ga3 O57 2.002608 1_555
Ga3 O59 2.185985 1_555
Ga3 O58 2.492371 1_555
Ga4 O25 1.922863 1_554
Ga4 O26 1.967133 1_554
Ga4 O62 2.052103 1_555
Ga4 O61 2.073975 1_555
Ga4 O24 2.110894 1_554
Ga4 O60 2.181544 1_555
Ga5 O30 1.941003 1_555
Ga5 O68 1.970683 1_555
Ga5 O32 2.077946 1_555
Ga5 O31 2.148099 1_555
Ga5 O66 2.173995 1_555
Ga5 O67 2.286719 1_555
O0 S0 1.477495 1_545
O1 P0 1.554471 1_555
O2 P1 1.550757 1_655
O3 P2 1.538994 1_555
O4 P3 1.543013 1_555
O5 P4 1.540853 1_565
O6 P4 1.547569 1_555
O7 P2 1.537186 1_555
O8 P3 1.551343 1_655
O9 P0 1.547023 1_555
O10 P1 1.559343 1_555
O11 S0 1.488417 1_555
O12 P5 1.550392 1_555
O13 P6 1.549802 1_555
O14 P7 1.535416 1_555
O15 P8 1.578078 1_555
O16 P9 1.587873 1_555
O17 P10 1.564436 1_555
O18 P10 1.535839 1_555
O19 P8 1.528574 1_555
O20 P9 1.539288 1_555
O21 P6 1.544141 1_555
O22 P7 1.559623 1_555
O23 P5 1.552819 1_555
O24 S1 1.460668 1_555
O25 P11 1.557694 1_555
O26 P12 1.566789 1_555
O27 P13 1.548882 1_555
O28 S2 1.486396 1_555
O29 P14 1.541037 1_555
O30 P14 1.565327 1_555
O31 P13 1.576088 1_555
O32 S2 1.519997 1_555
O33 P11 1.553044 1_555
O34 P12 1.552339 1_555
O35 S1 1.482834 1_555
O36 P14 1.561944 1_555
O37 P13 1.563505 1_555
O38 S2 1.474786 1_555
O39 P11 1.534079 1_555
O40 P12 1.551265 1_555
O41 S1 1.490477 1_555
O42 P5 1.542905 1_555
O43 P6 1.546240 1_555
O44 P7 1.559088 1_555
O45 P8 1.546632 1_455
O46 P9 1.548843 1_555
O47 P10 1.571728 1_555
O48 P4 1.550648 1_555
O49 P2 1.538839 1_555
O50 P3 1.541442 1_655
O51 P0 1.571084 1_555
O52 P1 1.574301 1_655
O53 S0 1.489537 1_545
O54 S1 1.491899 1_555
O55 P11 1.552653 1_655
O56 P12 1.538279 1_545
O57 P13 1.565088 1_545
O58 S2 1.485564 1_555
O59 P14 1.572331 1_655
O60 P10 1.565957 1_555
O61 P8 1.582009 1_455
O62 P9 1.569956 1_565
O63 P6 1.561383 1_565
O64 P7 1.540956 1_555
O65 P5 1.543633 1_455
O66 S0 1.532623 1_555
O67 P0 1.575031 1_555
O68 P1 1.575096 1_555
O69 P2 1.539293 1_555
O70 P3 1.555943 1_555
O71 P4 1.542368 1_565
