# generated using pymatgen
data_BaMgMoO3
_symmetry_space_group_name_H-M   'P 1'
_cell_length_a   4.60533435
_cell_length_b   4.60533435
_cell_length_c   4.60533435
_cell_angle_alpha   99.87195919
_cell_angle_beta   99.87195919
_cell_angle_gamma   80.12804081
_symmetry_Int_Tables_number   1
_chemical_formula_structural   BaMgMoO3
_chemical_formula_sum   'Ba1 Mg1 Mo1 O3'
_cell_volume   93.78311763
_cell_formula_units_Z   1
loop_
 _symmetry_equiv_pos_site_id
 _symmetry_equiv_pos_as_xyz
  1  'x, y, z'
loop_
 _atom_site_type_symbol
 _atom_site_label
 _atom_site_symmetry_multiplicity
 _atom_site_fract_x
 _atom_site_fract_y
 _atom_site_fract_z
 _atom_site_occupancy
  Ba  Ba0  1  0.59724594  0.59724594  0.40275406  1
  Mg  Mg0  1  0.25530303  0.25530303  0.74469697  1
  Mo  Mo0  1  0.96241598  0.96241598  0.03758402  1
  O  O0  1  0.98104493  0.47294519  0.01895507  1
  O  O1  1  0.98104493  0.98104493  0.52705481  1
  O  O2  1  0.47294519  0.98104493  0.01895507  1
loop_
_geom_bond_atom_site_label_1
_geom_bond_atom_site_label_2
_geom_bond_distance
_geom_bond_site_symmetry_2
Ba0 O2 2.636916 1_555
Ba0 O0 2.636916 1_555
Ba0 O1 2.636916 1_555
Ba0 O0 3.161514 1_455
Ba0 O1 3.161514 1_545
Ba0 O2 3.161514 1_545
Ba0 O1 3.161514 1_455
Ba0 O0 3.161514 1_556
Ba0 O2 3.161514 1_556
Mg0 O1 1.968262 1_445
Mg0 O2 1.968262 1_546
Mg0 O0 1.968262 1_456
Mo0 O2 2.228437 1_555
Mo0 O0 2.228437 1_555
Mo0 O1 2.228437 1_555
Mo0 O2 2.384013 1_655
Mo0 O0 2.384013 1_565
Mo0 O1 2.384013 1_554
