# generated using pymatgen
data_H8Se(NO2)2
_symmetry_space_group_name_H-M   'P 1'
_cell_length_a   6.86980733
_cell_length_b   6.86980733
_cell_length_c   7.85648550
_cell_angle_alpha   68.72066942
_cell_angle_beta   68.72066942
_cell_angle_gamma   57.74439362
_symmetry_Int_Tables_number   1
_chemical_formula_structural   H8Se(NO2)2
_chemical_formula_sum   'H16 Se2 N4 O8'
_cell_volume   285.36556785
_cell_formula_units_Z   2
loop_
 _symmetry_equiv_pos_site_id
 _symmetry_equiv_pos_as_xyz
  1  'x, y, z'
loop_
 _atom_site_type_symbol
 _atom_site_label
 _atom_site_symmetry_multiplicity
 _atom_site_fract_x
 _atom_site_fract_y
 _atom_site_fract_z
 _atom_site_occupancy
  H  H0  1  0.66070000  0.91262300  0.80453500  1
  H  H1  1  0.08737700  0.33930000  0.19546500  1
  H  H2  1  0.33930000  0.08737700  0.19546500  1
  H  H3  1  0.91262300  0.66070000  0.80453500  1
  H  H4  1  0.40420300  0.65779200  0.81615000  1
  H  H5  1  0.34220800  0.59579700  0.18385000  1
  H  H6  1  0.59579700  0.34220800  0.18385000  1
  H  H7  1  0.65779200  0.40420300  0.81615000  1
  H  H8  1  0.14669000  0.14669000  0.40257800  1
  H  H9  1  0.85331000  0.85331000  0.59742200  1
  H  H10  1  0.41001700  0.41001700  0.39021400  1
  H  H11  1  0.58998300  0.58998300  0.60978600  1
  H  H12  1  0.07756300  0.07756300  0.25394600  1
  H  H13  1  0.92243700  0.92243700  0.74605400  1
  H  H14  1  0.43748400  0.43748400  0.73514300  1
  H  H15  1  0.56251600  0.56251600  0.26485700  1
  Se  Se0  1  0.82264300  0.82264300  0.22535500  1
  Se  Se1  1  0.17735700  0.17735700  0.77464500  1
  N  N0  1  0.16184000  0.16184000  0.26129400  1
  N  N1  1  0.83816000  0.83816000  0.73870600  1
  N  N2  1  0.47884600  0.47884600  0.25324200  1
  N  N3  1  0.52115400  0.52115400  0.74675800  1
  O  O0  1  0.35622800  0.93726400  0.90502700  1
  O  O1  1  0.06273600  0.64377200  0.09497300  1
  O  O2  1  0.64377200  0.06273600  0.09497300  1
  O  O3  1  0.93726400  0.35622800  0.90502700  1
  O  O4  1  0.90571100  0.90571100  0.35238500  1
  O  O5  1  0.09428900  0.09428900  0.64761500  1
  O  O6  1  0.67202700  0.67202700  0.36702200  1
  O  O7  1  0.32797300  0.32797300  0.63297800  1
loop_
_geom_bond_atom_site_label_1
_geom_bond_atom_site_label_2
_geom_bond_distance
_geom_bond_site_symmetry_2
H0 N1 1.041214 1_555
H1 N0 1.041214 1_555
H2 N0 1.041214 1_555
H3 N1 1.041214 1_555
H4 N3 1.035549 1_555
H5 N2 1.035549 1_555
H6 N2 1.035549 1_555
H7 N3 1.035549 1_555
H8 N0 1.047670 1_555
H9 N1 1.047670 1_555
H10 N2 1.051277 1_555
H11 N3 1.051277 1_555
H12 N0 1.039255 1_555
H13 N1 1.039255 1_555
H14 N3 1.047812 1_555
H15 N2 1.047812 1_555
O0 Se1 1.674414 1_565
O1 Se0 1.674414 1_455
O2 Se0 1.674414 1_545
O3 Se1 1.674414 1_655
O4 Se0 1.679789 1_555
O5 Se1 1.679789 1_555
O6 Se0 1.688487 1_555
O7 Se1 1.688487 1_555
