# generated using pymatgen
data_Cs2Hg3I8O
_symmetry_space_group_name_H-M   'P 1'
_cell_length_a   11.55571807
_cell_length_b   11.56125491
_cell_length_c   8.22872990
_cell_angle_alpha   83.03439673
_cell_angle_beta   82.91342474
_cell_angle_gamma   141.92044138
_symmetry_Int_Tables_number   1
_chemical_formula_structural   Cs2Hg3I8O
_chemical_formula_sum   'Cs2 Hg3 I8 O1'
_cell_volume   628.55899985
_cell_formula_units_Z   1
loop_
 _symmetry_equiv_pos_site_id
 _symmetry_equiv_pos_as_xyz
  1  'x, y, z'
loop_
 _atom_site_type_symbol
 _atom_site_label
 _atom_site_symmetry_multiplicity
 _atom_site_fract_x
 _atom_site_fract_y
 _atom_site_fract_z
 _atom_site_occupancy
  Cs  Cs0  1  0.37938147  0.13198342  0.40551093  1
  Cs  Cs1  1  0.13236079  0.37972545  0.40586918  1
  Hg  Hg0  1  0.07712345  0.68656776  0.06412156  1
  Hg  Hg1  1  0.68651410  0.07720157  0.06462827  1
  Hg  Hg2  1  0.00465850  0.00467011  0.98373172  1
  I  I0  1  0.37243192  0.37203023  0.71725543  1
  I  I1  1  0.91591077  0.91602722  0.33493870  1
  I  I2  1  0.49038555  0.10446994  0.91951644  1
  I  I3  1  0.10442664  0.49022969  0.91934073  1
  I  I4  1  0.93077246  0.54571243  0.42176241  1
  I  I5  1  0.54577301  0.93121718  0.42218264  1
  I  I6  1  0.89778949  0.70269127  0.87356368  1
  I  I7  1  0.70179136  0.89678945  0.87432972  1
  O  O0  1  0.30571149  0.30571528  0.51714858  1
loop_
_geom_bond_atom_site_label_1
_geom_bond_atom_site_label_2
_geom_bond_distance
_geom_bond_site_symmetry_2
Cs0 O0 2.923939 1_555
Cs0 I1 3.914396 1_445
Cs0 I4 3.985033 1_555
Cs0 I5 4.014645 1_545
Cs0 I6 4.126636 1_445
Cs0 I4 4.138297 1_445
Cs0 I2 4.174291 1_554
Cs1 O0 2.923076 1_555
Cs1 I1 3.917364 1_445
Cs1 I5 3.988221 1_555
Cs1 I4 4.018670 1_455
Cs1 I7 4.135481 1_445
Cs1 I5 4.138240 1_445
Cs1 I3 4.182346 1_554
Hg0 I4 2.728867 1_455
Hg0 I6 2.850812 1_454
Hg0 I3 2.891722 1_554
Hg0 I2 2.905929 1_564
Hg1 I5 2.728333 1_545
Hg1 I7 2.852625 1_544
Hg1 I2 2.891904 1_554
Hg1 I3 2.905099 1_654
Hg2 I1 2.711049 1_446
Hg2 I0 2.816679 1_555
Hg2 I6 2.965129 1_445
Hg2 I7 2.965234 1_445
I0 O0 1.892742 1_555
