# generated using pymatgen
data_Na2Mg4SiSn4S11O48
_symmetry_space_group_name_H-M   'P 1'
_cell_length_a   17.42608005
_cell_length_b   8.71821782
_cell_length_c   22.75447109
_cell_angle_alpha   90.10055332
_cell_angle_beta   89.97263367
_cell_angle_gamma   120.06699453
_symmetry_Int_Tables_number   1
_chemical_formula_structural   Na2Mg4SiSn4S11O48
_chemical_formula_sum   'Na6 Mg12 Si3 Sn12 S33 O144'
_cell_volume   2991.78583302
_cell_formula_units_Z   3
loop_
 _symmetry_equiv_pos_site_id
 _symmetry_equiv_pos_as_xyz
  1  'x, y, z'
loop_
 _atom_site_type_symbol
 _atom_site_label
 _atom_site_symmetry_multiplicity
 _atom_site_fract_x
 _atom_site_fract_y
 _atom_site_fract_z
 _atom_site_occupancy
  Na  Na0  1  0.99667737  0.97892595  0.49271580  1
  Na  Na1  1  0.49853179  0.01009790  0.99944464  1
  Na  Na2  1  0.33325824  0.32393313  0.83818398  1
  Na  Na3  1  0.84313053  0.34643598  0.83220546  1
  Na  Na4  1  0.33952885  0.32996643  0.32948452  1
  Na  Na5  1  0.84340720  0.34718060  0.34121099  1
  Mg  Mg0  1  0.99894926  0.99188735  0.35555535  1
  Mg  Mg1  1  0.00362589  0.00235743  0.85456903  1
  Mg  Mg2  1  0.33101934  0.33264262  0.68318401  1
  Mg  Mg3  1  0.83583032  0.33780086  0.68180726  1
  Mg  Mg4  1  0.33552345  0.32892166  0.18663370  1
  Mg  Mg5  1  0.83523584  0.33522203  0.18514664  1
  Mg  Mg6  1  0.33416606  0.32917893  0.97933957  1
  Mg  Mg7  1  0.83801937  0.33868333  0.98269616  1
  Mg  Mg8  1  0.33481184  0.33481028  0.48271242  1
  Mg  Mg9  1  0.83633604  0.33796083  0.48073186  1
  Mg  Mg10  1  0.66743320  0.66926710  0.52295202  1
  Mg  Mg11  1  0.16292119  0.66375537  0.81117346  1
  Si  Si0  1  0.49706118  0.29591972  0.25146646  1
  Si  Si1  1  0.51751895  0.37614432  0.91605087  1
  Si  Si2  1  0.01446234  0.66563087  0.41768625  1
  Sn  Sn0  1  0.50111623  0.00728268  0.35404918  1
  Sn  Sn1  1  0.49755531  0.00565723  0.85262917  1
  Sn  Sn2  1  0.99960459  0.99573724  0.65016366  1
  Sn  Sn3  1  0.50030570  0.00366364  0.64181082  1
  Sn  Sn4  1  0.00072360  0.00039742  0.14755537  1
  Sn  Sn5  1  0.50042354  0.00804854  0.15021358  1
  Sn  Sn6  1  0.16374925  0.66392011  0.01770746  1
  Sn  Sn7  1  0.66532713  0.65708949  0.02104434  1
  Sn  Sn8  1  0.16201029  0.66578526  0.52012154  1
  Sn  Sn9  1  0.16027706  0.66331096  0.31523219  1
  Sn  Sn10  1  0.66640526  0.65901501  0.31455252  1
  Sn  Sn11  1  0.66673310  0.66372114  0.81423523  1
  S  S0  1  0.14562718  0.00179397  0.25045757  1
  S  S1  1  0.64961960  0.00272649  0.25014714  1
  S  S2  1  0.35018060  0.70308362  0.25177084  1
  S  S3  1  0.85591153  0.70790803  0.25030769  1
  S  S4  1  0.99952823  0.28954004  0.25076465  1
  S  S5  1  0.14738920  0.29215727  0.75152692  1
  S  S6  1  0.64899485  0.29223437  0.74923766  1
  S  S7  1  0.99796303  0.70421814  0.75219263  1
  S  S8  1  0.49990343  0.71012568  0.74993369  1
  S  S9  1  0.35191429  0.99965271  0.74809860  1
  S  S10  1  0.85320857  0.00176813  0.75292916  1
  S  S11  1  0.47809938  0.33886409  0.58368858  1
  S  S12  1  0.97908059  0.32783278  0.58454197  1
  S  S13  1  0.18838782  0.04354631  0.58370245  1
  S  S14  1  0.69058262  0.04475115  0.58378406  1
  S  S15  1  0.33086343  0.62204068  0.58266358  1
  S  S16  1  0.83291602  0.62496155  0.58415117  1
  S  S17  1  0.47867881  0.62915583  0.08387244  1
  S  S18  1  0.97896985  0.62540935  0.08370380  1
  S  S19  1  0.33210793  0.03842157  0.08198417  1
  S  S20  1  0.83296965  0.04114394  0.08297745  1
  S  S21  1  0.18905818  0.33456463  0.08312430  1
  S  S22  1  0.68955620  0.33044841  0.08299740  1
  S  S23  1  0.31015656  0.66222405  0.91506593  1
  S  S24  1  0.81617383  0.66868903  0.91684092  1
  S  S25  1  0.01916313  0.37247162  0.91483686  1
  S  S26  1  0.16570165  0.95635386  0.91489247  1
  S  S27  1  0.66937616  0.96438025  0.91656814  1
  S  S28  1  0.31433606  0.96123427  0.41758941  1
  S  S29  1  0.80938342  0.95526552  0.41722869  1
  S  S30  1  0.16993966  0.37449070  0.41618491  1
  S  S31  1  0.66755014  0.37460819  0.41961493  1
  S  S32  1  0.51954074  0.66723371  0.41689034  1
  O  O0  1  0.10146203  0.02256452  0.30136326  1
  O  O1  1  0.60809380  0.03108584  0.30347026  1
  O  O2  1  0.40808500  0.78107754  0.30455664  1
  O  O3  1  0.91253439  0.79526475  0.30044129  1
  O  O4  1  0.47807576  0.16645286  0.30886022  1
  O  O5  1  0.98864956  0.18015182  0.30158068  1
  O  O6  1  0.10299154  0.17308364  0.80095882  1
  O  O7  1  0.60903277  0.18215193  0.80356190  1
  O  O8  1  0.48553493  0.79042091  0.80502478  1
  O  O9  1  0.98197447  0.79295317  0.80134058  1
  O  O10  1  0.41173005  0.04122278  0.80184482  1
  O  O11  1  0.90690580  0.02254814  0.80434131  1
  O  O12  1  0.39562518  0.96627743  0.69656405  1
  O  O13  1  0.88855483  0.96578355  0.69763634  1
  O  O14  1  0.09187188  0.21644347  0.69506881  1
  O  O15  1  0.59006441  0.20988986  0.69782338  1
  O  O16  1  0.01487594  0.81153680  0.69554306  1
  O  O17  1  0.51414505  0.82479448  0.69820048  1
  O  O18  1  0.39012923  0.81537259  0.19828163  1
  O  O19  1  0.89213899  0.81450202  0.19389457  1
  O  O20  1  0.01387933  0.21341053  0.19439748  1
  O  O21  1  0.52122457  0.21555976  0.19264276  1
  O  O22  1  0.09012221  0.96102143  0.19479315  1
  O  O23  1  0.59100198  0.96169671  0.19715119  1
  O  O24  1  0.43746303  0.35851080  0.63772539  1
  O  O25  1  0.94012353  0.35059204  0.63813327  1
  O  O26  1  0.23781577  0.12595386  0.63712229  1
  O  O27  1  0.73941478  0.12514880  0.63844931  1
  O  O28  1  0.31843231  0.52110701  0.63627940  1
  O  O29  1  0.82448173  0.52805983  0.63881295  1
  O  O30  1  0.43899823  0.52750825  0.13688247  1
  O  O31  1  0.93953165  0.52040988  0.13651935  1
  O  O32  1  0.32157848  0.11591964  0.13578497  1
  O  O33  1  0.81882850  0.11754171  0.13614660  1
  O  O34  1  0.24082223  0.36136159  0.13632791  1
  O  O35  1  0.73806162  0.34459641  0.13650329  1
  O  O36  1  0.22787419  0.30717035  0.03019284  1
  O  O37  1  0.72963205  0.31147985  0.02920343  1
  O  O38  1  0.42777107  0.55445671  0.03016854  1
  O  O39  1  0.92712816  0.54891561  0.03048455  1
  O  O40  1  0.34628638  0.14357166  0.02920827  1
  O  O41  1  0.84591838  0.14521164  0.02998845  1
  O  O42  1  0.22666025  0.14573021  0.53005402  1
  O  O43  1  0.72998844  0.15807529  0.53253106  1
  O  O44  1  0.34441367  0.54400236  0.52984473  1
  O  O45  1  0.85089567  0.54747167  0.53271983  1
  O  O46  1  0.42150447  0.30289300  0.53186989  1
  O  O47  1  0.92812238  0.30205066  0.53113541  1
  O  O48  1  0.27603555  0.70369944  0.97055422  1
  O  O49  1  0.77535259  0.70506038  0.96960969  1
  O  O50  1  0.07321952  0.44569569  0.97188723  1
  O  O51  1  0.58165922  0.45680252  0.97420142  1
  O  O52  1  0.14982603  0.84893164  0.97204217  1
  O  O53  1  0.65399088  0.85213981  0.96929644  1
  O  O54  1  0.27373061  0.84882496  0.47006477  1
  O  O55  1  0.76567679  0.83717151  0.46679213  1
  O  O56  1  0.15732049  0.45817572  0.47024398  1
  O  O57  1  0.65306467  0.46320592  0.46856609  1
  O  O58  1  0.08177259  0.70827171  0.47513342  1
  O  O59  1  0.57534598  0.69711213  0.46773388  1
  O  O60  1  0.05709013  0.62051660  0.35823147  1
  O  O61  1  0.55722314  0.63950711  0.36103986  1
  O  O62  1  0.26171851  0.88195721  0.36279901  1
  O  O63  1  0.75512747  0.87779777  0.35983014  1
  O  O64  1  0.19133160  0.49426900  0.36320976  1
  O  O65  1  0.68296309  0.47552479  0.36249767  1
  O  O66  1  0.06383867  0.49264396  0.86586820  1
  O  O67  1  0.56229919  0.49294866  0.85612554  1
  O  O68  1  0.18267032  0.86869033  0.86581519  1
  O  O69  1  0.68562399  0.88851070  0.86227493  1
  O  O70  1  0.25934567  0.64916628  0.86326538  1
  O  O71  1  0.75662731  0.62932570  0.86355152  1
  O  O72  1  0.01296207  0.84719883  0.41250457  1
  O  O73  1  0.51206169  0.83208459  0.40906057  1
  O  O74  1  0.40147450  0.96896604  0.41301674  1
  O  O75  1  0.89764227  0.97691887  0.40832231  1
  O  O76  1  0.08790929  0.20758414  0.40779611  1
  O  O77  1  0.58423723  0.19608572  0.41331211  1
  O  O78  1  0.01027390  0.19879895  0.90764267  1
  O  O79  1  0.51479974  0.18190348  0.91208732  1
  O  O80  1  0.08576232  0.96758526  0.90817674  1
  O  O81  1  0.58501139  0.96839873  0.91009802  1
  O  O82  1  0.40361300  0.82332386  0.91170502  1
  O  O83  1  0.90109967  0.82476595  0.90760053  1
  O  O84  1  0.48551846  0.17046168  0.58866094  1
  O  O85  1  0.98973416  0.16473366  0.58935486  1
  O  O86  1  0.09538056  0.01688496  0.58788252  1
  O  O87  1  0.59712987  0.02592414  0.58870376  1
  O  O88  1  0.41164987  0.80522426  0.58820527  1
  O  O89  1  0.91757731  0.81274771  0.58871902  1
  O  O90  1  0.49005923  0.81566178  0.08937827  1
  O  O91  1  0.99065826  0.80820649  0.08945074  1
  O  O92  1  0.41228301  0.01117797  0.08591774  1
  O  O93  1  0.91209807  0.01620787  0.08907854  1
  O  O94  1  0.09647817  0.17507357  0.08918007  1
  O  O95  1  0.59688928  0.16773516  0.08501180  1
  O  O96  1  0.34628188  0.16033206  0.74077257  1
  O  O97  1  0.84102732  0.15553382  0.74549489  1
  O  O98  1  0.23520684  0.30739376  0.74298641  1
  O  O99  1  0.73581955  0.30962265  0.74296692  1
  O  O100  1  0.42243618  0.53459766  0.74408843  1
  O  O101  1  0.91775701  0.52765368  0.74406365  1
  O  O102  1  0.33671612  0.52638607  0.24347207  1
  O  O103  1  0.84466794  0.53073670  0.24201213  1
  O  O104  1  0.41143126  0.31537088  0.24579744  1
  O  O105  1  0.92209629  0.31228472  0.24317390  1
  O  O106  1  0.23152248  0.16167163  0.24162840  1
  O  O107  1  0.73557221  0.16293368  0.24230655  1
  O  O108  1  0.31714941  0.50432580  0.92309499  1
  O  O109  1  0.82083572  0.50612866  0.92463243  1
  O  O110  1  0.42185317  0.35469072  0.92076805  1
  O  O111  1  0.93142373  0.35888419  0.92328768  1
  O  O112  1  0.24431237  0.13254706  0.92358572  1
  O  O113  1  0.74507621  0.14214265  0.92341529  1
  O  O114  1  0.32486331  0.13757549  0.42371825  1
  O  O115  1  0.81325679  0.12619327  0.42257506  1
  O  O116  1  0.24774663  0.35261203  0.42307361  1
  O  O117  1  0.74314330  0.34750323  0.42504690  1
  O  O118  1  0.42967726  0.51212370  0.42202244  1
  O  O119  1  0.92145689  0.48593286  0.42260233  1
  O  O120  1  0.17700258  0.49446265  0.07656039  1
  O  O121  1  0.67973149  0.49255305  0.08071543  1
  O  O122  1  0.07041084  0.64872918  0.07806647  1
  O  O123  1  0.57144536  0.65919529  0.07855121  1
  O  O124  1  0.25245100  0.85573289  0.07620786  1
  O  O125  1  0.75226206  0.85708459  0.07653881  1
  O  O126  1  0.18067397  0.86424521  0.58042256  1
  O  O127  1  0.67647888  0.86663764  0.57622874  1
  O  O128  1  0.25214265  0.64810574  0.57633397  1
  O  O129  1  0.75747734  0.65153323  0.57662492  1
  O  O130  1  0.07159313  0.48394448  0.58029736  1
  O  O131  1  0.56688075  0.48904864  0.57580867  1
  O  O132  1  0.15819122  0.84404335  0.25471982  1
  O  O133  1  0.65894357  0.84534138  0.25732643  1
  O  O134  1  0.26401554  0.69843230  0.25947215  1
  O  O135  1  0.76812305  0.69646780  0.25583892  1
  O  O136  1  0.08339774  0.46643225  0.25328446  1
  O  O137  1  0.58903723  0.48443515  0.25848420  1
  O  O138  1  0.15576254  0.46604149  0.75876850  1
  O  O139  1  0.65579598  0.46851339  0.75519285  1
  O  O140  1  0.07697746  0.68912363  0.75896076  1
  O  O141  1  0.58349599  0.70519009  0.75564457  1
  O  O142  1  0.26772103  0.84103087  0.75761738  1
  O  O143  1  0.76187105  0.83557079  0.75761338  1
loop_
_geom_bond_atom_site_label_1
_geom_bond_atom_site_label_2
_geom_bond_distance
_geom_bond_site_symmetry_2
Na0 O72 2.247074 1_655
Na0 O75 2.576649 1_555
Na0 O89 2.603497 1_555
Na0 O76 2.658985 1_665
Na0 O86 2.681023 1_665
Na0 O85 2.767285 1_565
Na1 O79 2.420650 1_555
Na1 O92 2.478299 1_556
Na1 O95 2.500181 1_556
Na1 O82 2.581901 1_545
Na1 O90 2.616125 1_546
Na1 O81 2.660807 1_545
Na2 O110 2.360683 1_555
Na2 O112 2.525834 1_555
Na2 O108 2.591604 1_555
Na2 O96 2.704019 1_555
Na2 O98 2.718113 1_555
Na2 O100 2.742834 1_555
Na3 O101 2.481863 1_555
Na3 O111 2.551351 1_555
Na3 O97 2.567428 1_555
Na3 O109 2.653929 1_555
Na3 O99 2.668920 1_555
Na3 O113 2.712822 1_555
Na4 O104 2.317102 1_555
Na4 O102 2.619405 1_555
Na4 O118 2.629679 1_555
Na4 O106 2.630179 1_555
Na4 O114 2.656878 1_555
Na4 O116 2.728337 1_555
Na5 O119 2.255899 1_555
Na5 O115 2.532362 1_555
Na5 O117 2.587191 1_555
Na5 O105 2.713294 1_555
Na5 O103 2.762937 1_555
Na5 O107 2.853592 1_555
Mg0 O72 1.909120 1_655
Mg0 O3 2.046104 1_555
Mg0 O0 2.074517 1_665
Mg0 O75 2.083970 1_555
Mg0 O76 2.103641 1_665
Mg0 O5 2.130034 1_565
Mg1 O80 2.016498 1_545
Mg1 O6 2.030672 1_555
Mg1 O78 2.049147 1_555
Mg1 O9 2.060274 1_445
Mg1 O83 2.068344 1_445
Mg1 O11 2.116081 1_455
Mg2 O26 2.011443 1_555
Mg2 O24 2.035012 1_555
Mg2 O28 2.062623 1_555
Mg2 O98 2.078088 1_555
Mg2 O96 2.110025 1_555
Mg2 O100 2.177473 1_555
Mg3 O29 2.020428 1_555
Mg3 O25 2.024509 1_555
Mg3 O27 2.026652 1_555
Mg3 O101 2.100120 1_555
Mg3 O99 2.145756 1_555
Mg3 O97 2.187644 1_555
Mg4 O104 1.932589 1_555
Mg4 O106 2.081559 1_555
Mg4 O32 2.094463 1_555
Mg4 O30 2.099330 1_555
Mg4 O34 2.141095 1_555
Mg4 O102 2.143170 1_555
Mg5 O31 2.048959 1_555
Mg5 O35 2.059144 1_555
Mg5 O103 2.078098 1_555
Mg5 O107 2.086828 1_555
Mg5 O33 2.091809 1_555
Mg5 O105 2.092994 1_555
Mg6 O110 1.954274 1_555
Mg6 O40 2.073603 1_556
Mg6 O112 2.074744 1_555
Mg6 O36 2.109320 1_556
Mg6 O108 2.125660 1_555
Mg6 O38 2.153944 1_556
Mg7 O39 2.023807 1_556
Mg7 O111 2.054072 1_555
Mg7 O41 2.064261 1_556
Mg7 O37 2.072122 1_556
Mg7 O109 2.100361 1_555
Mg7 O113 2.142878 1_555
Mg8 O46 2.008674 1_555
Mg8 O44 2.047413 1_555
Mg8 O42 2.078697 1_555
Mg8 O116 2.099103 1_555
Mg8 O118 2.115237 1_555
Mg8 O114 2.117134 1_555
Mg9 O119 1.923723 1_555
Mg9 O45 2.080486 1_555
Mg9 O43 2.091729 1_555
Mg9 O117 2.094625 1_555
Mg9 O47 2.115777 1_555
Mg9 O115 2.137625 1_555
Mg10 O127 2.043631 1_555
Mg10 O55 2.049406 1_555
Mg10 O129 2.055038 1_555
Mg10 O131 2.057050 1_555
Mg10 O57 2.088848 1_555
Mg10 O59 2.146181 1_555
Mg11 O140 2.009464 1_555
Mg11 O66 2.044272 1_555
Mg11 O138 2.046006 1_555
Mg11 O68 2.057428 1_555
Mg11 O142 2.094082 1_555
Mg11 O70 2.112147 1_555
O0 S0 1.450830 1_555
O1 S1 1.494774 1_555
O1 Sn0 2.110453 1_555
O2 S2 1.494653 1_555
O2 Sn0 2.139164 1_565
O3 S3 1.449138 1_555
O4 Si0 1.649117 1_555
O4 Sn0 1.925579 1_555
O5 S4 1.450842 1_555
O6 S5 1.462838 1_555
O7 S6 1.505876 1_555
O7 Sn1 2.096843 1_555
O8 S8 1.515396 1_555
O8 Sn1 2.082695 1_565
O9 S7 1.462676 1_555
O10 S9 1.527948 1_545
O10 Sn1 2.033687 1_555
O11 S10 1.451694 1_555
O12 S9 1.503326 1_555
O12 Sn3 2.095122 1_565
O13 S10 1.500759 1_565
O13 Sn2 2.114836 1_555
O14 S5 1.542848 1_555
O14 Sn2 2.055796 1_445
O15 S6 1.482603 1_555
O15 Sn3 2.116477 1_555
O16 S7 1.533435 1_455
O16 Sn2 2.037222 1_455
O17 S8 1.483901 1_555
O17 Sn3 2.126147 1_565
O18 S2 1.498284 1_555
O18 Sn5 2.116941 1_565
O19 S3 1.524949 1_555
O19 Sn4 2.061570 1_665
O20 S4 1.520250 1_455
O20 Sn4 2.050393 1_555
O21 Si0 1.658763 1_555
O21 Sn5 1.916648 1_555
O22 S0 1.523577 1_565
O22 Sn4 2.058864 1_565
O23 S1 1.503024 1_565
O23 Sn5 2.106588 1_565
O24 S11 1.470585 1_555
O25 S12 1.456230 1_555
O26 S13 1.453775 1_555
O27 S14 1.470694 1_555
O28 S15 1.456766 1_555
O29 S16 1.470184 1_555
O30 S17 1.451674 1_555
O31 S18 1.458516 1_555
O32 S19 1.452569 1_555
O33 S20 1.459248 1_555
O34 S21 1.456966 1_555
O35 S22 1.451883 1_555
O36 S21 1.457842 1_555
O37 S22 1.458617 1_555
O38 S17 1.457305 1_555
O39 S18 1.456659 1_555
O40 S19 1.456083 1_555
O41 S20 1.458192 1_555
O42 S13 1.461622 1_555
O43 S14 1.459872 1_555
O44 S15 1.456349 1_555
O45 S16 1.460521 1_555
O46 S11 1.466693 1_555
O47 S12 1.454628 1_555
O48 S23 1.513798 1_555
O48 Sn6 2.102269 1_556
O49 S24 1.507377 1_555
O49 Sn7 2.101630 1_556
O50 S25 1.541352 1_555
O50 Sn6 2.045130 1_556
O51 Si1 1.644740 1_555
O51 Sn7 1.937736 1_556
O52 S26 1.545642 1_555
O52 Sn6 2.034334 1_556
O53 S27 1.486566 1_555
O53 Sn7 2.158946 1_556
O54 S28 1.481657 1_555
O54 Sn8 2.127279 1_555
O55 S29 1.459288 1_555
O56 S30 1.500372 1_555
O56 Sn8 2.101301 1_555
O57 S31 1.446756 1_555
O58 Si2 1.669002 1_555
O58 Sn8 1.913590 1_555
O59 S32 1.448514 1_555
O60 Si2 1.681270 1_555
O60 Sn9 1.912382 1_555
O61 S32 1.503949 1_555
O61 Sn10 2.107670 1_555
O62 S28 1.495263 1_555
O62 Sn9 2.132625 1_555
O63 S29 1.553743 1_555
O63 Sn10 2.032152 1_555
O64 S30 1.515386 1_555
O64 Sn9 2.112333 1_555
O65 S31 1.517318 1_555
O65 Sn10 2.073997 1_555
O66 S25 1.459891 1_555
O67 Si1 1.647073 1_555
O67 Sn11 1.930152 1_555
O68 S26 1.463477 1_555
O69 S27 1.492776 1_555
O69 Sn11 2.119039 1_555
O70 S23 1.444229 1_555
O71 S24 1.519132 1_555
O71 Sn11 2.068010 1_555
O72 Si2 1.600762 1_555
O73 S32 1.517531 1_555
O73 Sn0 2.057943 1_565
O74 S28 1.489451 1_555
O74 Sn0 2.084479 1_565
O75 S29 1.466655 1_555
O76 S30 1.453350 1_555
O77 S31 1.511936 1_555
O77 Sn0 2.056926 1_555
O78 S25 1.451715 1_555
O79 Si1 1.672471 1_555
O79 Sn1 1.952475 1_555
O80 S26 1.452723 1_555
O81 S27 1.495349 1_555
O81 Sn1 2.153506 1_565
O82 S23 1.529389 1_555
O82 Sn1 2.100391 1_565
O83 S24 1.438333 1_555
O84 S11 1.541373 1_555
O84 Sn3 2.006399 1_555
O85 S12 1.527559 1_555
O85 Sn2 2.091938 1_545
O86 S13 1.520642 1_555
O86 Sn2 2.125619 1_445
O87 S14 1.556786 1_555
O87 Sn3 2.003891 1_555
O88 S15 1.514898 1_555
O88 Sn3 2.045447 1_565
O89 S16 1.564284 1_555
O89 Sn2 2.062086 1_555
O90 S17 1.541134 1_555
O90 Sn5 2.109649 1_565
O91 S18 1.507445 1_555
O91 Sn4 2.069852 1_665
O92 S19 1.532686 1_555
O92 Sn5 2.131799 1_555
O93 S20 1.506174 1_555
O93 Sn4 2.095374 1_655
O94 S21 1.519153 1_555
O94 Sn4 2.080038 1_555
O95 S22 1.525409 1_555
O95 Sn5 2.150583 1_555
O96 S9 1.462318 1_545
O97 S10 1.468589 1_555
O98 S5 1.481012 1_555
O99 S6 1.450032 1_555
O100 S8 1.453033 1_555
O101 S7 1.483460 1_555
O102 S2 1.449363 1_555
O103 S3 1.468205 1_555
O104 Si0 1.589295 1_555
O105 S4 1.469118 1_555
O106 S0 1.460744 1_555
O107 S1 1.459612 1_555
O108 S23 1.453349 1_555
O109 S24 1.470665 1_555
O110 Si1 1.585283 1_555
O111 S25 1.485606 1_655
O112 S26 1.471714 1_545
O113 S27 1.455011 1_545
O114 S28 1.460587 1_545
O115 S29 1.462393 1_545
O116 S30 1.469283 1_555
O117 S31 1.455524 1_555
O118 S32 1.474118 1_555
O119 Si2 1.596820 1_655
O120 S21 1.517881 1_555
O120 Sn6 2.092476 1_555
O121 S22 1.507328 1_555
O121 Sn7 2.081401 1_555
O122 S18 1.507374 1_455
O122 Sn6 2.081370 1_555
O123 S17 1.507386 1_555
O123 Sn7 2.101676 1_555
O124 S19 1.504982 1_565
O124 Sn6 2.088478 1_555
O125 S20 1.520660 1_565
O125 Sn7 2.068094 1_555
O126 S13 1.502078 1_565
O126 Sn8 2.100087 1_555
O127 S14 1.455313 1_565
O128 S15 1.505611 1_555
O128 Sn8 2.090923 1_555
O129 S16 1.454880 1_555
O130 S12 1.504125 1_455
O130 Sn8 2.091258 1_555
O131 S11 1.452873 1_555
O132 S0 1.500338 1_565
O132 Sn9 2.108321 1_555
O133 S1 1.469694 1_565
O133 Sn10 2.137878 1_555
O134 S2 1.491870 1_555
O134 Sn9 2.101449 1_555
O135 S3 1.487641 1_555
O135 Sn10 2.110150 1_555
O136 S4 1.502974 1_455
O136 Sn9 2.101673 1_555
O137 Si0 1.629525 1_555
O137 Sn10 1.923691 1_555
O138 S5 1.457421 1_555
O139 S6 1.486962 1_555
O139 Sn11 2.098762 1_555
O140 S7 1.455596 1_455
O141 S8 1.484484 1_555
O141 Sn11 2.130980 1_555
O142 S9 1.442077 1_555
O143 S10 1.527631 1_565
O143 Sn11 2.041825 1_555
