# generated using pymatgen
data_MgCo2NiO6
_symmetry_space_group_name_H-M   'P 1'
_cell_length_a   6.64460610
_cell_length_b   2.90078906
_cell_length_c   5.93177650
_cell_angle_alpha   88.53529763
_cell_angle_beta   101.54486908
_cell_angle_gamma   76.65415311
_symmetry_Int_Tables_number   1
_chemical_formula_structural   MgCo2NiO6
_chemical_formula_sum   'Mg1 Co2 Ni1 O6'
_cell_volume   108.68511597
_cell_formula_units_Z   1
loop_
 _symmetry_equiv_pos_site_id
 _symmetry_equiv_pos_as_xyz
  1  'x, y, z'
loop_
 _atom_site_type_symbol
 _atom_site_label
 _atom_site_symmetry_multiplicity
 _atom_site_fract_x
 _atom_site_fract_y
 _atom_site_fract_z
 _atom_site_occupancy
  Mg  Mg0  1  0.33334200  0.33327200  0.83205000  1
  Co  Co0  1  0.98332900  0.98705600  0.02013700  1
  Co  Co1  1  0.67858100  0.67054500  0.64706800  1
  Ni  Ni0  1  0.33229900  0.33289800  0.32852600  1
  O  O0  1  0.99582700  0.51188900  0.22025900  1
  O  O1  1  0.36108100  0.81577400  0.58559200  1
  O  O2  1  0.66714900  0.20629000  0.86973900  1
  O  O3  1  0.30525600  0.84929900  0.07340500  1
  O  O4  1  0.66780200  0.12032200  0.44257500  1
  O  O5  1  0.98938400  0.48967700  0.79519500  1
loop_
_geom_bond_atom_site_label_1
_geom_bond_atom_site_label_2
_geom_bond_distance
_geom_bond_site_symmetry_2
Mg0 O3 2.044646 1_546
Mg0 O1 2.062171 1_555
Mg0 O3 2.100641 1_556
Mg0 O1 2.125322 1_545
Mg0 O2 2.127297 1_555
Mg0 O5 2.189344 1_455
Co0 O0 1.771998 1_555
Co0 O0 1.960904 1_565
Co0 O5 1.963889 1_564
Co0 O5 1.989157 1_554
Co0 O3 2.040482 1_655
Co0 O2 2.053789 1_564
Co1 O4 1.737802 1_565
Co1 O2 1.886913 1_555
Co1 O1 2.008741 1_555
Co1 O5 2.015468 1_555
Co1 O4 2.034936 1_555
Co1 O2 2.063043 1_565
Ni0 O3 2.053617 1_555
Ni0 O1 2.060550 1_545
Ni0 O3 2.099139 1_545
Ni0 O1 2.107112 1_555
Ni0 O4 2.132607 1_555
Ni0 O0 2.133735 1_455
