# generated using pymatgen
data_Na6Nb4Si9Ge4(SO16)3
_symmetry_space_group_name_H-M   'P 1'
_cell_length_a   17.51174654
_cell_length_b   8.78484228
_cell_length_c   22.42271763
_cell_angle_alpha   89.74246427
_cell_angle_beta   89.58049791
_cell_angle_gamma   120.05153693
_symmetry_Int_Tables_number   1
_chemical_formula_structural   Na6Nb4Si9Ge4(SO16)3
_chemical_formula_sum   'Na18 Nb12 Si27 Ge12 S9 O144'
_cell_volume   2985.55853997
_cell_formula_units_Z   3
loop_
 _symmetry_equiv_pos_site_id
 _symmetry_equiv_pos_as_xyz
  1  'x, y, z'
loop_
 _atom_site_type_symbol
 _atom_site_label
 _atom_site_symmetry_multiplicity
 _atom_site_fract_x
 _atom_site_fract_y
 _atom_site_fract_z
 _atom_site_occupancy
  Na  Na0  1  0.00057252  0.63839618  0.24705948  1
  Na  Na1  1  0.50090449  0.63310016  0.24811293  1
  Na  Na2  1  0.00063022  0.36863495  0.74823794  1
  Na  Na3  1  0.50098177  0.36261651  0.74766912  1
  Na  Na4  1  0.33449639  0.96468459  0.58679366  1
  Na  Na5  1  0.83260230  0.70283053  0.08176464  1
  Na  Na6  1  0.99832888  0.00691473  0.50224596  1
  Na  Na7  1  0.50372116  0.99848633  0.50506713  1
  Na  Na8  1  0.00268665  0.00893735  0.00126458  1
  Na  Na9  1  0.49885125  0.99082065  0.99788665  1
  Na  Na10  1  0.32983231  0.33643691  0.82875034  1
  Na  Na11  1  0.82690844  0.33414554  0.83021080  1
  Na  Na12  1  0.32874593  0.32180235  0.33201976  1
  Na  Na13  1  0.82622045  0.32083605  0.33132225  1
  Na  Na14  1  0.17068249  0.67306131  0.16514896  1
  Na  Na15  1  0.66523896  0.66234929  0.16732898  1
  Na  Na16  1  0.16671966  0.67074008  0.66885170  1
  Na  Na17  1  0.66762928  0.66567416  0.66848094  1
  Nb  Nb0  1  0.00340509  0.00447264  0.35497933  1
  Nb  Nb1  1  0.50317753  0.01032839  0.35595188  1
  Nb  Nb2  1  0.00140731  0.99441380  0.85529040  1
  Nb  Nb3  1  0.50201016  0.98723438  0.85086599  1
  Nb  Nb4  1  0.00660565  0.00094057  0.64191359  1
  Nb  Nb5  1  0.50592776  0.01159691  0.14121108  1
  Nb  Nb6  1  0.33053411  0.34392755  0.98324812  1
  Nb  Nb7  1  0.83146728  0.34063974  0.97135005  1
  Nb  Nb8  1  0.33303305  0.32491232  0.47420240  1
  Nb  Nb9  1  0.82991034  0.31677891  0.48419641  1
  Nb  Nb10  1  0.16814520  0.65049952  0.02645664  1
  Nb  Nb11  1  0.66773029  0.68557115  0.52791335  1
  Si  Si0  1  0.15208398  0.00196571  0.24989691  1
  Si  Si1  1  0.65181793  0.00987986  0.24765986  1
  Si  Si2  1  0.85382279  0.71532409  0.24852015  1
  Si  Si3  1  0.49968934  0.29756669  0.24970963  1
  Si  Si4  1  0.15059402  0.29243786  0.74783994  1
  Si  Si5  1  0.65184583  0.29980419  0.74983988  1
  Si  Si6  1  0.99936972  0.70081713  0.75020357  1
  Si  Si7  1  0.50070107  0.70776685  0.74495590  1
  Si  Si8  1  0.35378596  0.99047861  0.74896175  1
  Si  Si9  1  0.47539139  0.32647673  0.58725224  1
  Si  Si10  1  0.98068107  0.34343579  0.58702133  1
  Si  Si11  1  0.19421295  0.04346379  0.58351326  1
  Si  Si12  1  0.68533274  0.05427408  0.59295003  1
  Si  Si13  1  0.83374147  0.61940050  0.58275466  1
  Si  Si14  1  0.48079666  0.61772026  0.08653870  1
  Si  Si15  1  0.97400695  0.61345372  0.08629558  1
  Si  Si16  1  0.33252216  0.04664808  0.08280194  1
  Si  Si17  1  0.18619658  0.31725786  0.09265113  1
  Si  Si18  1  0.69097903  0.34510685  0.08033327  1
  Si  Si19  1  0.30853607  0.66860889  0.91283450  1
  Si  Si20  1  0.80215548  0.67241068  0.91623347  1
  Si  Si21  1  0.02821107  0.38642324  0.91298715  1
  Si  Si22  1  0.66548557  0.93897529  0.91635410  1
  Si  Si23  1  0.30636100  0.94192456  0.41906075  1
  Si  Si24  1  0.80619574  0.94918889  0.41293106  1
  Si  Si25  1  0.16733394  0.39640762  0.41641110  1
  Si  Si26  1  0.52786263  0.66799291  0.41301069  1
  Ge  Ge0  1  0.50905900  0.02138766  0.65371550  1
  Ge  Ge1  1  0.00661597  0.97588983  0.14844396  1
  Ge  Ge2  1  0.33445634  0.31596680  0.69122545  1
  Ge  Ge3  1  0.83157730  0.35063413  0.68411197  1
  Ge  Ge4  1  0.33277581  0.31191444  0.18330657  1
  Ge  Ge5  1  0.82512882  0.35299515  0.18540643  1
  Ge  Ge6  1  0.66232824  0.66641829  0.01944782  1
  Ge  Ge7  1  0.16749058  0.65845543  0.52353462  1
  Ge  Ge8  1  0.17770003  0.68758618  0.31724970  1
  Ge  Ge9  1  0.66808070  0.68240249  0.30737217  1
  Ge  Ge10  1  0.16864849  0.65292234  0.80687120  1
  Ge  Ge11  1  0.66772629  0.66994033  0.81229312  1
  S  S0  1  0.35167205  0.70864266  0.25080166  1
  S  S1  1  0.00095929  0.29008141  0.24816286  1
  S  S2  1  0.85246726  0.99588117  0.75003989  1
  S  S3  1  0.33325890  0.61871014  0.58386866  1
  S  S4  1  0.83422019  0.04909040  0.08545207  1
  S  S5  1  0.52302274  0.37918640  0.91700821  1
  S  S6  1  0.16889637  0.95177859  0.91586023  1
  S  S7  1  0.66925606  0.38719298  0.41560798  1
  S  S8  1  0.02331762  0.66422913  0.41612078  1
  O  O0  1  0.10262753  0.02989986  0.30788620  1
  O  O1  1  0.60185932  0.03777865  0.30600001  1
  O  O2  1  0.40730420  0.79211825  0.30438033  1
  O  O3  1  0.92163703  0.80763052  0.30454258  1
  O  O4  1  0.48238869  0.16809321  0.30799300  1
  O  O5  1  0.98785344  0.18168541  0.30344995  1
  O  O6  1  0.09906941  0.16488772  0.80633272  1
  O  O7  1  0.60320014  0.17186091  0.80814715  1
  O  O8  1  0.48291621  0.79289758  0.80589465  1
  O  O9  1  0.98228054  0.79629541  0.80816613  1
  O  O10  1  0.42028910  0.03601487  0.80593720  1
  O  O11  1  0.90863736  0.02467441  0.80391058  1
  O  O12  1  0.39891818  0.96184432  0.68832213  1
  O  O13  1  0.89313785  0.96923417  0.69651197  1
  O  O14  1  0.08110244  0.19989159  0.69298046  1
  O  O15  1  0.58337594  0.21994062  0.69347542  1
  O  O16  1  0.01313932  0.83083009  0.69349570  1
  O  O17  1  0.51977279  0.84234376  0.68969269  1
  O  O18  1  0.39091091  0.81624046  0.19691054  1
  O  O19  1  0.90090532  0.83863731  0.18817031  1
  O  O20  1  0.01587386  0.20928881  0.19558783  1
  O  O21  1  0.51325916  0.19525012  0.19337360  1
  O  O22  1  0.08222686  0.94456565  0.19427660  1
  O  O23  1  0.58295960  0.96562992  0.19287648  1
  O  O24  1  0.43335506  0.36750161  0.64574325  1
  O  O25  1  0.93434744  0.37033194  0.64601767  1
  O  O26  1  0.25620913  0.13167957  0.64110260  1
  O  O27  1  0.75561933  0.14439978  0.64533156  1
  O  O28  1  0.31733323  0.51149894  0.63761753  1
  O  O29  1  0.81461253  0.50198804  0.64202375  1
  O  O30  1  0.43435137  0.49854155  0.14621807  1
  O  O31  1  0.93129399  0.49382622  0.14774983  1
  O  O32  1  0.31368725  0.12465805  0.14247951  1
  O  O33  1  0.81924738  0.12863398  0.13925639  1
  O  O34  1  0.25475743  0.36470455  0.14628413  1
  O  O35  1  0.75124316  0.38669954  0.14020173  1
  O  O36  1  0.22821406  0.29167667  0.02912761  1
  O  O37  1  0.73448081  0.30179806  0.02431119  1
  O  O38  1  0.41716935  0.53106394  0.02718389  1
  O  O39  1  0.91121091  0.52710238  0.02883859  1
  O  O40  1  0.34916657  0.16826705  0.02336554  1
  O  O41  1  0.84733451  0.15302195  0.03046819  1
  O  O42  1  0.23433268  0.16663594  0.52423153  1
  O  O43  1  0.72951132  0.16337411  0.52857157  1
  O  O44  1  0.34463228  0.53916851  0.52896464  1
  O  O45  1  0.84939879  0.53040529  0.52275763  1
  O  O46  1  0.41307542  0.29616512  0.52832790  1
  O  O47  1  0.91808730  0.30490944  0.52682018  1
  O  O48  1  0.26445694  0.69349015  0.97437240  1
  O  O49  1  0.76252971  0.69828774  0.97914712  1
  O  O50  1  0.08495242  0.47378857  0.97326936  1
  O  O51  1  0.57652822  0.45911576  0.97098921  1
  O  O52  1  0.15384635  0.84885671  0.97058728  1
  O  O53  1  0.64726916  0.82214607  0.97704095  1
  O  O54  1  0.26284670  0.82578399  0.47902261  1
  O  O55  1  0.76643668  0.83493922  0.47403065  1
  O  O56  1  0.14677114  0.47556373  0.47574484  1
  O  O57  1  0.65387523  0.45838304  0.46986635  1
  O  O58  1  0.07702350  0.69401832  0.46973765  1
  O  O59  1  0.58592064  0.69806783  0.47258386  1
  O  O60  1  0.06220192  0.64005276  0.35991124  1
  O  O61  1  0.56832374  0.63244745  0.35269609  1
  O  O62  1  0.24998037  0.87262438  0.35808381  1
  O  O63  1  0.74635417  0.85916121  0.35520450  1
  O  O64  1  0.17953258  0.51018348  0.35467390  1
  O  O65  1  0.68097363  0.48663443  0.36050572  1
  O  O66  1  0.06880350  0.50509904  0.85312381  1
  O  O67  1  0.56039326  0.48415800  0.86128496  1
  O  O68  1  0.18079357  0.87603678  0.86129799  1
  O  O69  1  0.68145953  0.85478690  0.85640936  1
  O  O70  1  0.24583288  0.63282844  0.85627357  1
  O  O71  1  0.74422538  0.63430780  0.85686108  1
  O  O72  1  0.01482706  0.82576864  0.41153523  1
  O  O73  1  0.51508493  0.84082102  0.40659493  1
  O  O74  1  0.40532258  0.96778743  0.41074420  1
  O  O75  1  0.90602764  0.97521268  0.40602913  1
  O  O76  1  0.08130398  0.19627591  0.40769444  1
  O  O77  1  0.58853497  0.20382201  0.41176283  1
  O  O78  1  0.01492820  0.18822327  0.90788619  1
  O  O79  1  0.51423298  0.20419878  0.91293339  1
  O  O80  1  0.08794643  0.97266259  0.91231697  1
  O  O81  1  0.58148004  0.97194616  0.91115690  1
  O  O82  1  0.40617495  0.84246715  0.91044147  1
  O  O83  1  0.90328366  0.84130260  0.91014324  1
  O  O84  1  0.48103002  0.14568670  0.59246633  1
  O  O85  1  0.98756050  0.16580142  0.59139544  1
  O  O86  1  0.09626482  0.02282593  0.58828794  1
  O  O87  1  0.58714748  0.02824521  0.59413446  1
  O  O88  1  0.41037017  0.79750602  0.58679850  1
  O  O89  1  0.91853112  0.81539122  0.58960375  1
  O  O90  1  0.48733799  0.80879905  0.09258688  1
  O  O91  1  0.98001470  0.80838944  0.09101479  1
  O  O92  1  0.41764871  0.02095275  0.09061808  1
  O  O93  1  0.91338986  0.02756441  0.09001302  1
  O  O94  1  0.08514911  0.14911212  0.09806715  1
  O  O95  1  0.59493708  0.16874500  0.08748937  1
  O  O96  1  0.34892937  0.17268219  0.74461515  1
  O  O97  1  0.84668228  0.15694801  0.74662983  1
  O  O98  1  0.24592735  0.31030010  0.73926274  1
  O  O99  1  0.74608953  0.30794866  0.74256659  1
  O  O100  1  0.41428880  0.51092031  0.74037681  1
  O  O101  1  0.91360678  0.50304187  0.74313875  1
  O  O102  1  0.34480342  0.53548177  0.24730565  1
  O  O103  1  0.85079144  0.52329080  0.24334996  1
  O  O104  1  0.41346884  0.32402579  0.24301950  1
  O  O105  1  0.92116639  0.30734311  0.24571052  1
  O  O106  1  0.24595086  0.17949238  0.24257991  1
  O  O107  1  0.75002043  0.18282401  0.23831354  1
  O  O108  1  0.31947600  0.49161127  0.92090334  1
  O  O109  1  0.81709279  0.50019181  0.92100140  1
  O  O110  1  0.43393301  0.36213425  0.92230331  1
  O  O111  1  0.92988068  0.36128538  0.92301383  1
  O  O112  1  0.24661675  0.13301214  0.92057750  1
  O  O113  1  0.75353120  0.13574706  0.92381698  1
  O  O114  1  0.31914204  0.13970904  0.42209923  1
  O  O115  1  0.81996916  0.14956785  0.41982551  1
  O  O116  1  0.25316050  0.37161146  0.42239305  1
  O  O117  1  0.74696476  0.36105402  0.41975782  1
  O  O118  1  0.42910226  0.49931632  0.42233515  1
  O  O119  1  0.93440019  0.50895176  0.41992144  1
  O  O120  1  0.17819783  0.49405354  0.08205732  1
  O  O121  1  0.68215144  0.52053365  0.07352815  1
  O  O122  1  0.07230461  0.64309316  0.07923956  1
  O  O123  1  0.57761601  0.63771080  0.07610250  1
  O  O124  1  0.24571632  0.85380982  0.07596373  1
  O  O125  1  0.75488471  0.86723244  0.08127527  1
  O  O126  1  0.18414273  0.84818510  0.57467529  1
  O  O127  1  0.67914357  0.86263444  0.58185244  1
  O  O128  1  0.25175032  0.64022265  0.57935313  1
  O  O129  1  0.74641339  0.63723256  0.57522219  1
  O  O130  1  0.07767320  0.51807893  0.57616508  1
  O  O131  1  0.57252405  0.49870562  0.57666159  1
  O  O132  1  0.15231227  0.81078515  0.26007671  1
  O  O133  1  0.65376328  0.82737948  0.25400115  1
  O  O134  1  0.26207562  0.69162367  0.25628362  1
  O  O135  1  0.75632575  0.68767881  0.25761632  1
  O  O136  1  0.07925455  0.47037545  0.25477236  1
  O  O137  1  0.58766507  0.48953047  0.25746588  1
  O  O138  1  0.15191687  0.47829130  0.75401654  1
  O  O139  1  0.65530729  0.49040437  0.75939287  1
  O  O140  1  0.08766557  0.68614489  0.75766847  1
  O  O141  1  0.58708822  0.68252022  0.75790677  1
  O  O142  1  0.25575691  0.82169523  0.75811984  1
  O  O143  1  0.76436675  0.83609749  0.75547158  1
loop_
_geom_bond_atom_site_label_1
_geom_bond_atom_site_label_2
_geom_bond_distance
_geom_bond_site_symmetry_2
Na0 O103 2.292754 1_455
Na0 O132 2.329039 1_555
Na0 O136 2.478956 1_555
Na0 O105 2.518631 1_455
Na0 O31 2.562264 1_455
Na0 O22 2.602743 1_555
Na0 O60 2.755486 1_555
Na0 O3 2.798526 1_455
Na1 O133 2.351001 1_555
Na1 O104 2.360329 1_555
Na1 O102 2.421012 1_555
Na1 O137 2.421687 1_555
Na1 O30 2.580541 1_555
Na1 O61 2.634450 1_555
Na1 O23 2.805280 1_555
Na1 O2 2.916986 1_555
Na2 O138 2.326712 1_555
Na2 O101 2.352257 1_455
Na2 O97 2.389192 1_455
Na2 O140 2.428976 1_555
Na2 O25 2.580119 1_455
Na2 O66 2.650760 1_555
Na2 O14 2.793152 1_555
Na2 O11 2.888797 1_455
Na3 O96 2.330806 1_555
Na3 O139 2.367992 1_555
Na3 O141 2.447625 1_555
Na3 O100 2.451843 1_555
Na3 O24 2.591771 1_555
Na3 O15 2.632257 1_555
Na3 O67 2.768263 1_555
Na3 O10 2.795429 1_555
Na4 O84 2.247041 1_565
Na4 O126 2.316858 1_555
Na4 O88 2.424188 1_555
Na4 O128 2.474499 1_555
Na4 O12 2.553676 1_555
Na4 O54 2.727692 1_555
Na4 O26 2.742360 1_565
Na4 O46 2.831583 1_565
Na5 O91 2.275705 1_555
Na5 O121 2.307403 1_555
Na5 O125 2.430415 1_555
Na5 O93 2.477944 1_565
Na5 O49 2.606705 1_554
Na5 O19 2.680430 1_555
Na5 O35 2.726994 1_555
Na5 O39 2.794173 1_555
Na6 O89 2.489164 1_545
Na6 O85 2.502575 1_555
Na6 O86 2.548298 1_655
Na6 O76 2.622154 1_655
Na6 O75 2.636350 1_545
Na6 O72 2.689587 1_645
Na7 O87 2.419942 1_565
Na7 O88 2.486865 1_555
Na7 O84 2.489305 1_565
Na7 O77 2.659713 1_565
Na7 O74 2.666102 1_555
Na7 O73 2.670290 1_555
Na8 O78 2.556596 1_554
Na8 O91 2.562674 1_445
Na8 O94 2.569439 1_555
Na8 O93 2.577933 1_455
Na8 O80 2.597537 1_544
Na8 O83 2.623944 1_444
Na9 O81 2.470858 1_555
Na9 O82 2.475506 1_555
Na9 O79 2.582546 1_565
Na9 O90 2.597469 1_556
Na9 O92 2.598893 1_566
Na9 O95 2.598958 1_566
Na10 O98 2.438711 1_555
Na10 O100 2.474425 1_555
Na10 O96 2.497462 1_555
Na10 O108 2.535405 1_555
Na10 O112 2.621340 1_555
Na10 O110 2.724465 1_555
Na11 O99 2.374164 1_555
Na11 O101 2.448004 1_555
Na11 O109 2.564056 1_555
Na11 O97 2.571374 1_555
Na11 O113 2.603613 1_555
Na11 O111 2.695812 1_555
Na12 O106 2.436545 1_555
Na12 O104 2.472122 1_555
Na12 O114 2.522584 1_555
Na12 O116 2.568773 1_555
Na12 O102 2.577278 1_555
Na12 O118 2.637631 1_555
Na13 O115 2.453342 1_555
Na13 O107 2.458256 1_555
Na13 O103 2.535539 1_555
Na13 O117 2.537791 1_555
Na13 O105 2.572210 1_555
Na13 O119 2.686188 1_555
Na14 O124 2.467838 1_555
Na14 O120 2.488287 1_555
Na14 O122 2.519297 1_555
Na14 O132 2.549690 1_555
Na14 O134 2.559957 1_555
Na14 O136 2.614916 1_555
Na15 O137 2.470183 1_555
Na15 O133 2.496099 1_555
Na15 O123 2.510555 1_555
Na15 O135 2.527493 1_555
Na15 O121 2.539198 1_555
Na15 O125 2.553752 1_555
Na16 O140 2.459801 1_555
Na16 O138 2.469191 1_555
Na16 O142 2.488953 1_555
Na16 O126 2.543008 1_555
Na16 O130 2.554883 1_555
Na16 O128 2.584037 1_555
Na17 O141 2.490419 1_555
Na17 O139 2.491050 1_555
Na17 O127 2.534205 1_555
Na17 O143 2.539762 1_555
Na17 O129 2.578045 1_555
Na17 O131 2.606669 1_555
Nb0 O0 1.940703 1_555
Nb0 O75 1.952945 1_445
Nb0 O76 1.958712 1_555
Nb0 O3 1.970006 1_445
Nb0 O5 2.060542 1_455
Nb0 O72 2.100723 1_545
Nb1 O4 1.925473 1_555
Nb1 O73 1.962046 1_545
Nb1 O1 1.962354 1_555
Nb1 O74 1.977172 1_545
Nb1 O77 2.047314 1_555
Nb1 O2 2.157678 1_545
Nb2 O9 1.922418 1_455
Nb2 O6 1.940430 1_565
Nb2 O83 1.978361 1_455
Nb2 O78 1.991002 1_565
Nb2 O80 2.069869 1_555
Nb2 O11 2.119987 1_465
Nb3 O8 1.868665 1_555
Nb3 O7 1.941856 1_565
Nb3 O10 1.969257 1_565
Nb3 O81 1.998863 1_555
Nb3 O82 2.008134 1_555
Nb3 O79 2.288042 1_565
Nb4 O86 1.901560 1_555
Nb4 O16 1.934348 1_545
Nb4 O14 1.955492 1_555
Nb4 O89 1.984253 1_445
Nb4 O85 1.991589 1_455
Nb4 O13 2.220720 1_445
Nb5 O95 1.894417 1_555
Nb5 O21 1.949143 1_555
Nb5 O92 1.958484 1_555
Nb5 O23 1.972078 1_545
Nb5 O90 1.977474 1_545
Nb5 O18 2.245832 1_545
Nb6 O38 1.874380 1_556
Nb6 O36 1.903833 1_556
Nb6 O40 1.947579 1_556
Nb6 O108 1.978436 1_555
Nb6 O110 2.200772 1_555
Nb6 O112 2.212217 1_555
Nb7 O109 1.909399 1_555
Nb7 O37 1.948751 1_556
Nb7 O113 1.953617 1_555
Nb7 O111 1.958438 1_555
Nb7 O39 2.012273 1_556
Nb7 O41 2.235033 1_556
Nb8 O114 1.922502 1_555
Nb8 O42 1.931252 1_555
Nb8 O46 1.969289 1_555
Nb8 O118 1.975854 1_555
Nb8 O116 2.017043 1_555
Nb8 O44 2.175605 1_555
Nb9 O43 1.867239 1_555
Nb9 O47 1.868323 1_555
Nb9 O45 1.939958 1_555
Nb9 O115 2.009472 1_555
Nb9 O117 2.222684 1_555
Nb9 O119 2.262950 1_555
Nb10 O48 1.918427 1_554
Nb10 O120 1.924648 1_555
Nb10 O50 1.931728 1_554
Nb10 O124 1.969129 1_555
Nb10 O122 2.020558 1_555
Nb10 O52 2.256208 1_554
Nb11 O127 1.905602 1_555
Nb11 O59 1.945761 1_555
Nb11 O129 1.951290 1_555
Nb11 O55 1.962865 1_555
Nb11 O131 1.971109 1_555
Nb11 O57 2.297652 1_555
Ge0 O15 1.813385 1_555
Ge0 O17 1.856413 1_545
Ge0 O87 1.883725 1_555
Ge0 O12 1.886750 1_545
Ge0 O84 1.962808 1_555
Ge0 O88 2.401351 1_545
Ge1 O22 1.807586 1_555
Ge1 O94 1.829951 1_565
Ge1 O91 1.838401 1_455
Ge1 O19 1.845218 1_455
Ge1 O20 2.244288 1_565
Ge1 O93 2.314326 1_465
Ge2 O96 1.841795 1_555
Ge2 O24 1.851799 1_555
Ge2 O98 1.861148 1_555
Ge2 O26 1.891763 1_555
Ge2 O100 1.934866 1_555
Ge2 O28 2.233371 1_555
Ge3 O29 1.770657 1_555
Ge3 O27 1.850756 1_555
Ge3 O99 1.871981 1_555
Ge3 O25 1.913814 1_555
Ge3 O101 1.930112 1_555
Ge3 O97 2.316234 1_555
Ge4 O32 1.767245 1_555
Ge4 O34 1.848930 1_555
Ge4 O30 1.894414 1_555
Ge4 O106 1.901708 1_555
Ge4 O104 1.918133 1_555
Ge4 O102 2.361450 1_555
Ge5 O35 1.785881 1_555
Ge5 O31 1.834096 1_555
Ge5 O107 1.834127 1_555
Ge5 O103 1.865679 1_555
Ge5 O33 2.186955 1_555
Ge5 O105 2.349805 1_555
Ge6 O53 1.788453 1_554
Ge6 O49 1.859148 1_554
Ge6 O123 1.863564 1_555
Ge6 O121 1.916031 1_555
Ge6 O51 2.013911 1_554
Ge6 O125 2.202780 1_555
Ge7 O56 1.816215 1_555
Ge7 O130 1.845102 1_555
Ge7 O54 1.857233 1_555
Ge7 O126 1.926995 1_555
Ge7 O128 2.007814 1_555
Ge7 O58 2.140750 1_555
Ge8 O62 1.747127 1_555
Ge8 O64 1.781212 1_555
Ge8 O132 1.868218 1_555
Ge8 O134 1.992664 1_555
Ge8 O60 2.074228 1_555
Ge8 O136 2.310917 1_555
Ge9 O63 1.828959 1_555
Ge9 O133 1.851371 1_555
Ge9 O61 1.865293 1_555
Ge9 O135 1.880805 1_555
Ge9 O137 1.938177 1_555
Ge9 O65 2.191462 1_555
Ge10 O70 1.828738 1_555
Ge10 O138 1.848009 1_555
Ge10 O142 1.848222 1_555
Ge10 O66 1.872519 1_555
Ge10 O140 1.935994 1_555
Ge10 O68 2.232508 1_555
Ge11 O69 1.816601 1_555
Ge11 O71 1.824296 1_555
Ge11 O139 1.902338 1_555
Ge11 O141 1.916699 1_555
Ge11 O143 2.023751 1_555
Ge11 O67 2.069909 1_555
O0 Si0 1.643246 1_555
O1 Si1 1.654560 1_555
O2 S0 1.496563 1_555
O3 Si2 1.646912 1_555
O4 Si3 1.651998 1_555
O5 S1 1.504193 1_655
O6 Si4 1.657327 1_555
O7 Si5 1.646149 1_555
O8 Si7 1.661207 1_555
O9 Si6 1.654614 1_555
O10 Si8 1.645658 1_545
O11 S2 1.503849 1_545
O12 Si8 1.650205 1_555
O13 S2 1.469563 1_555
O14 Si4 1.641651 1_555
O15 Si5 1.647672 1_555
O16 Si6 1.638927 1_455
O17 Si7 1.621738 1_555
O18 S0 1.467267 1_555
O19 Si2 1.661446 1_555
O20 S1 1.466418 1_555
O21 Si3 1.637009 1_555
O22 Si0 1.648138 1_565
O23 Si1 1.634195 1_565
O24 Si9 1.627176 1_555
O25 Si10 1.625800 1_555
O26 Si11 1.622829 1_555
O27 Si12 1.604638 1_555
O28 S3 1.462575 1_555
O29 Si13 1.605421 1_555
O30 Si14 1.633086 1_555
O31 Si15 1.657496 1_555
O32 Si16 1.611584 1_555
O33 S4 1.482898 1_555
O34 Si17 1.608073 1_555
O35 Si18 1.639590 1_555
O36 Si17 1.665495 1_555
O37 Si18 1.607358 1_555
O38 Si14 1.665409 1_555
O39 Si15 1.624372 1_555
O40 Si16 1.634691 1_555
O41 S4 1.477191 1_555
O42 Si11 1.625839 1_555
O43 Si12 1.682108 1_555
O44 S3 1.478873 1_555
O45 Si13 1.647718 1_555
O46 Si9 1.655501 1_555
O47 Si10 1.671051 1_555
O48 Si19 1.644289 1_555
O49 Si20 1.633951 1_555
O50 Si21 1.633593 1_555
O51 S5 1.483691 1_555
O52 S6 1.462677 1_555
O53 Si22 1.630940 1_555
O54 Si23 1.619666 1_555
O55 Si24 1.625682 1_555
O56 Si25 1.623369 1_555
O57 S7 1.454159 1_555
O58 S8 1.473515 1_555
O59 Si26 1.625375 1_555
O60 S8 1.493986 1_555
O61 Si26 1.624788 1_555
O62 Si23 1.624838 1_555
O63 Si24 1.611854 1_555
O64 Si25 1.652379 1_555
O65 S7 1.462484 1_555
O66 Si21 1.620240 1_555
O67 S5 1.487636 1_555
O68 S6 1.457859 1_555
O69 Si22 1.625589 1_555
O70 Si19 1.609736 1_555
O71 Si20 1.611579 1_555
O72 S8 1.502252 1_555
O73 Si26 1.647624 1_555
O74 Si23 1.640179 1_555
O75 Si24 1.651652 1_555
O76 Si25 1.659353 1_555
O77 S7 1.524122 1_555
O78 Si21 1.641754 1_555
O79 S5 1.469566 1_555
O80 S6 1.520357 1_555
O81 Si22 1.640281 1_555
O82 Si19 1.625266 1_555
O83 Si20 1.649003 1_555
O84 Si9 1.643595 1_555
O85 Si10 1.626759 1_555
O86 Si11 1.634646 1_555
O87 Si12 1.617040 1_555
O88 S3 1.474035 1_555
O89 Si13 1.624172 1_555
O90 Si14 1.630611 1_555
O91 Si15 1.666193 1_555
O92 Si16 1.626159 1_555
O93 S4 1.494257 1_555
O94 Si17 1.644755 1_555
O95 Si18 1.624438 1_555
O96 Si8 1.647364 1_545
O97 S2 1.469996 1_545
O98 Si4 1.606655 1_555
O99 Si5 1.622693 1_555
O100 Si7 1.635172 1_555
O101 Si6 1.640685 1_555
O102 S0 1.467170 1_555
O103 Si2 1.665630 1_555
O104 Si3 1.646434 1_555
O105 S1 1.480464 1_655
O106 Si0 1.608511 1_555
O107 Si1 1.638471 1_555
O108 Si19 1.668371 1_555
O109 Si20 1.662554 1_555
O110 S5 1.494510 1_555
O111 Si21 1.636280 1_655
O112 S6 1.493897 1_545
O113 Si22 1.652374 1_545
O114 Si23 1.638737 1_545
O115 Si24 1.660866 1_545
O116 Si25 1.629405 1_555
O117 S7 1.492593 1_555
O118 Si26 1.629632 1_555
O119 S8 1.470456 1_655
O120 Si17 1.644170 1_555
O121 Si18 1.630643 1_555
O122 Si15 1.613276 1_455
O123 Si14 1.629677 1_555
O124 Si16 1.621933 1_565
O125 S4 1.507147 1_565
O126 Si11 1.647379 1_565
O127 Si12 1.652069 1_565
O128 S3 1.534741 1_555
O129 Si13 1.623331 1_555
O130 Si10 1.636655 1_455
O131 Si9 1.628536 1_555
O132 Si0 1.695907 1_565
O133 Si1 1.626183 1_565
O134 S0 1.503748 1_555
O135 Si2 1.610828 1_555
O136 S1 1.496843 1_555
O137 Si3 1.628510 1_555
O138 Si4 1.627760 1_555
O139 Si5 1.659792 1_555
O140 Si6 1.624381 1_455
O141 Si7 1.662512 1_555
O142 Si8 1.621844 1_555
O143 S2 1.480576 1_555
