# generated using pymatgen
data_Na3ZnGaSi(SO6)2
_symmetry_space_group_name_H-M   'P 1'
_cell_length_a   8.95370688
_cell_length_b   8.94479626
_cell_length_c   22.10608942
_cell_angle_alpha   90.10833963
_cell_angle_beta   90.00000000
_cell_angle_gamma   120.03295881
_symmetry_Int_Tables_number   1
_chemical_formula_structural   Na3ZnGaSi(SO6)2
_chemical_formula_sum   'Na18 Zn6 Ga6 Si6 S12 O72'
_cell_volume   1532.74713268
_cell_formula_units_Z   6
loop_
 _symmetry_equiv_pos_site_id
 _symmetry_equiv_pos_as_xyz
  1  'x, y, z'
loop_
 _atom_site_type_symbol
 _atom_site_label
 _atom_site_symmetry_multiplicity
 _atom_site_fract_x
 _atom_site_fract_y
 _atom_site_fract_z
 _atom_site_occupancy
  Na  Na0  1  0.63277716  0.00662439  0.25191433  1
  Na  Na1  1  0.00281375  0.63620737  0.24128762  1
  Na  Na2  1  0.63339362  0.63620737  0.74128762  1
  Na  Na3  1  0.37384723  0.00662439  0.75191433  1
  Na  Na4  1  0.31289680  0.34410631  0.58566540  1
  Na  Na5  1  0.66065985  0.95167816  0.58080617  1
  Na  Na6  1  0.29101931  0.95167816  0.08080617  1
  Na  Na7  1  0.03121050  0.34410631  0.08566540  1
  Na  Na8  1  0.97930826  0.67926794  0.92277045  1
  Na  Na9  1  0.69659321  0.03219587  0.90881826  1
  Na  Na10  1  0.33560166  0.03219587  0.40881826  1
  Na  Na11  1  0.69995868  0.67926794  0.42277045  1
  Na  Na12  1  0.98452036  0.99446702  0.49758383  1
  Na  Na13  1  0.00994666  0.99446702  0.99758383  1
  Na  Na14  1  0.66461070  0.31853377  0.83130524  1
  Na  Na15  1  0.65392406  0.31853377  0.33130524  1
  Na  Na16  1  0.33186033  0.66151700  0.16497325  1
  Na  Na17  1  0.32965567  0.66151700  0.66497325  1
  Zn  Zn0  1  0.00616972  0.01307784  0.34923020  1
  Zn  Zn1  1  0.00690812  0.01307784  0.84923020  1
  Zn  Zn2  1  0.67561643  0.33022558  0.68259455  1
  Zn  Zn3  1  0.65461014  0.33022558  0.18259455  1
  Zn  Zn4  1  0.31692296  0.67467190  0.01551766  1
  Zn  Zn5  1  0.35774795  0.67467190  0.51551766  1
  Ga  Ga0  1  0.97064750  0.96843347  0.65011272  1
  Ga  Ga1  1  0.99778597  0.96843347  0.15011272  1
  Ga  Ga2  1  0.65290599  0.33584843  0.98455062  1
  Ga  Ga3  1  0.68294345  0.33584843  0.48455062  1
  Ga  Ga4  1  0.34017257  0.69539111  0.31919183  1
  Ga  Ga5  1  0.35521754  0.69539111  0.81919183  1
  Si  Si0  1  0.29711310  0.00315222  0.25259268  1
  Si  Si1  1  0.70603911  0.00315222  0.75259268  1
  Si  Si2  1  0.67121394  0.62019111  0.58409972  1
  Si  Si3  1  0.94897817  0.62019111  0.08409972  1
  Si  Si4  1  0.33536737  0.97698659  0.91896419  1
  Si  Si5  1  0.64161822  0.97698659  0.41896419  1
  S  S0  1  0.70108430  0.70604959  0.25198322  1
  S  S1  1  0.00865371  0.29667387  0.24877474  1
  S  S2  1  0.28802016  0.29667387  0.74877474  1
  S  S3  1  0.00496530  0.70604959  0.75198322  1
  S  S4  1  0.96551495  0.33315309  0.58373192  1
  S  S5  1  0.36187121  0.03562163  0.58442304  1
  S  S6  1  0.67375142  0.03562163  0.08442304  1
  S  S7  1  0.36763913  0.33315309  0.08373192  1
  S  S8  1  0.61774145  0.65768872  0.91742291  1
  S  S9  1  0.04626694  0.37928269  0.91619509  1
  S  S10  1  0.33301474  0.37928269  0.41619509  1
  S  S11  1  0.03994627  0.65768872  0.41742291  1
  O  O0  1  0.20983578  0.02080159  0.31384252  1
  O  O1  1  0.80379280  0.78356353  0.30700679  1
  O  O2  1  0.97589219  0.18558525  0.30156380  1
  O  O3  1  0.20969306  0.18558525  0.80156380  1
  O  O4  1  0.97977073  0.78356353  0.80700679  1
  O  O5  1  0.81096581  0.02080159  0.81384252  1
  O  O6  1  0.78860202  0.96062655  0.69173860  1
  O  O7  1  0.18843181  0.21405164  0.69198553  1
  O  O8  1  0.04232061  0.82394002  0.69802969  1
  O  O9  1  0.78161942  0.82394002  0.19802969  1
  O  O10  1  0.02561983  0.21405164  0.19198553  1
  O  O11  1  0.17202454  0.96062655  0.19173860  1
  O  O12  1  0.88786453  0.35471397  0.63851580  1
  O  O13  1  0.47084667  0.11050222  0.63864974  1
  O  O14  1  0.63985639  0.50533403  0.64407563  1
  O  O15  1  0.86547865  0.50533403  0.14407563  1
  O  O16  1  0.63965655  0.11050222  0.13864974  1
  O  O17  1  0.46685044  0.35471397  0.13851580  1
  O  O18  1  0.44491092  0.29434900  0.02962915  1
  O  O19  1  0.83528110  0.52687053  0.02137828  1
  O  O20  1  0.70136254  0.14551398  0.02952008  1
  O  O21  1  0.44415243  0.14551398  0.52952008  1
  O  O22  1  0.69159043  0.52687053  0.52137828  1
  O  O23  1  0.84943908  0.29434900  0.52962915  1
  O  O24  1  0.52806161  0.67586294  0.96957469  1
  O  O25  1  0.13924174  0.45062222  0.97354401  1
  O  O26  1  0.29845099  0.85910143  0.97861224  1
  O  O27  1  0.56064944  0.85910143  0.47861224  1
  O  O28  1  0.31137948  0.45062222  0.47354401  1
  O  O29  1  0.14780033  0.67586294  0.46957469  1
  O  O30  1  0.11477249  0.63434289  0.35935269  1
  O  O31  1  0.51089327  0.89062471  0.35894430  1
  O  O32  1  0.35260397  0.49284309  0.36345479  1
  O  O33  1  0.14023812  0.49284309  0.86345479  1
  O  O34  1  0.37973045  0.89062471  0.85894430  1
  O  O35  1  0.51956940  0.63434289  0.85935269  1
  O  O36  1  0.02263588  0.81443926  0.41475373  1
  O  O37  1  0.82545207  0.98453864  0.40946316  1
  O  O38  1  0.18600450  0.20186296  0.41223010  1
  O  O39  1  0.01585846  0.20186296  0.91223010  1
  O  O40  1  0.15908657  0.98453864  0.90946316  1
  O  O41  1  0.79180337  0.81443926  0.91475373  1
  O  O42  1  0.98604269  0.17530609  0.58707871  1
  O  O43  1  0.19347117  0.03338991  0.59061502  1
  O  O44  1  0.84439019  0.81909736  0.58577728  1
  O  O45  1  0.97470717  0.81909736  0.08577728  1
  O  O46  1  0.83991874  0.03338991  0.09061502  1
  O  O47  1  0.18926340  0.17530609  0.08707871  1
  O  O48  1  0.66895066  0.16320447  0.74478832  1
  O  O49  1  0.46561174  0.32121582  0.74578690  1
  O  O50  1  0.84821093  0.53752937  0.74430073  1
  O  O51  1  0.68931945  0.53752937  0.24430073  1
  O  O52  1  0.85560508  0.32121582  0.24578690  1
  O  O53  1  0.49425481  0.16320447  0.24478832  1
  O  O54  1  0.64153658  0.50366959  0.91958587  1
  O  O55  1  0.87333491  0.36965299  0.91654360  1
  O  O56  1  0.52363407  0.16386019  0.92611472  1
  O  O57  1  0.64022712  0.16386019  0.42611472  1
  O  O58  1  0.49631907  0.36965299  0.41654360  1
  O  O59  1  0.86213400  0.50366959  0.41958587  1
  O  O60  1  0.34923336  0.48625128  0.07553629  1
  O  O61  1  0.14455916  0.64343803  0.08165936  1
  O  O62  1  0.52472551  0.86022322  0.07752621  1
  O  O63  1  0.33549672  0.86022322  0.57752621  1
  O  O64  1  0.49887787  0.64343803  0.58165936  1
  O  O65  1  0.13701692  0.48625128  0.57553629  1
  O  O66  1  0.30778147  0.81722731  0.25436876  1
  O  O67  1  0.52659998  0.68953639  0.25560321  1
  O  O68  1  0.16711341  0.46996186  0.25434002  1
  O  O69  1  0.30284745  0.46996186  0.75434002  1
  O  O70  1  0.16293542  0.68953639  0.75560321  1
  O  O71  1  0.50944484  0.81722731  0.75436876  1
loop_
_geom_bond_atom_site_label_1
_geom_bond_atom_site_label_2
_geom_bond_distance
_geom_bond_site_symmetry_2
Na0 O53 2.294435 1_555
Na0 O67 2.501351 1_545
Na0 O52 2.509759 1_555
Na0 O66 2.531064 1_545
Na0 O31 2.596421 1_545
Na0 O16 2.662302 1_555
Na0 O9 2.835082 1_545
Na0 O2 2.876779 1_555
Na1 O66 2.394578 1_555
Na1 O52 2.443227 1_455
Na1 O15 2.459699 1_455
Na1 O51 2.486484 1_455
Na1 O68 2.578757 1_555
Na1 O11 2.743560 1_555
Na1 O30 2.798920 1_555
Na2 O71 2.394585 1_555
Na2 O49 2.443227 1_555
Na2 O14 2.459701 1_555
Na2 O50 2.486493 1_555
Na2 O69 2.578765 1_555
Na2 O6 2.743560 1_555
Na2 O35 2.798923 1_555
Na3 O48 2.294442 1_555
Na3 O70 2.501353 1_545
Na3 O49 2.509757 1_555
Na3 O71 2.531057 1_545
Na3 O34 2.596419 1_545
Na3 O13 2.662303 1_555
Na3 O8 2.835082 1_545
Na3 O3 2.876779 1_555
Na4 O64 2.342540 1_555
Na4 O43 2.430256 1_555
Na4 O65 2.480322 1_555
Na4 O42 2.534260 1_455
Na4 O7 2.613786 1_555
Na4 O28 2.659533 1_555
Na4 O14 2.843267 1_555
Na4 O21 2.856304 1_555
Na5 O64 2.388066 1_555
Na5 O27 2.416984 1_555
Na5 O44 2.465368 1_555
Na5 O42 2.583358 1_565
Na5 O63 2.601255 1_555
Na5 O6 2.690700 1_555
Na5 O23 2.891184 1_565
Na5 O13 2.991937 1_565
Na6 O61 2.388065 1_555
Na6 O26 2.416981 1_554
Na6 O45 2.465376 1_455
Na6 O47 2.583365 1_565
Na6 O62 2.601238 1_555
Na6 O11 2.690704 1_555
Na6 O18 2.891184 1_565
Na6 O16 2.991937 1_565
Na7 O61 2.342542 1_555
Na7 O46 2.430257 1_455
Na7 O60 2.480306 1_555
Na7 O47 2.534252 1_555
Na7 O10 2.613784 1_555
Na7 O25 2.659530 1_554
Na7 O15 2.843267 1_455
Na7 O20 2.856304 1_455
Na8 O40 2.395202 1_655
Na8 O55 2.440743 1_555
Na8 O41 2.518844 1_555
Na8 O19 2.554306 1_556
Na8 O54 2.619745 1_555
Na8 O4 2.724773 1_555
Na8 O26 2.769137 1_655
Na9 O5 2.360260 1_555
Na9 O56 2.399039 1_555
Na9 O39 2.477391 1_655
Na9 O41 2.490161 1_545
Na9 O55 2.619401 1_555
Na9 O34 2.695681 1_545
Na9 O20 2.845207 1_556
Na10 O0 2.360256 1_555
Na10 O57 2.399055 1_555
Na10 O38 2.477383 1_555
Na10 O36 2.490155 1_545
Na10 O58 2.619401 1_555
Na10 O31 2.695681 1_545
Na10 O21 2.845210 1_555
Na11 O37 2.395201 1_555
Na11 O58 2.440740 1_555
Na11 O36 2.518852 1_655
Na11 O22 2.554310 1_555
Na11 O59 2.619760 1_555
Na11 O1 2.724774 1_555
Na11 O27 2.769137 1_555
Na12 O37 2.388269 1_555
Na12 O44 2.424319 1_555
Na12 O42 2.548830 1_565
Na12 O36 2.569294 1_655
Na12 O38 2.630466 1_665
Na12 O43 2.682559 1_665
Na13 O40 2.388269 1_555
Na13 O45 2.424319 1_456
Na13 O47 2.548830 1_566
Na13 O41 2.569294 1_455
Na13 O39 2.630466 1_565
Na13 O46 2.682559 1_466
Na14 O48 2.373554 1_555
Na14 O56 2.482531 1_555
Na14 O55 2.528555 1_555
Na14 O49 2.606179 1_555
Na14 O54 2.631308 1_555
Na14 O50 2.651346 1_555
Na15 O53 2.373554 1_555
Na15 O57 2.482531 1_555
Na15 O58 2.528555 1_555
Na15 O52 2.606179 1_555
Na15 O59 2.631308 1_555
Na15 O51 2.651346 1_555
Na16 O61 2.440910 1_555
Na16 O66 2.486331 1_555
Na16 O68 2.548988 1_555
Na16 O60 2.573567 1_555
Na16 O67 2.584119 1_555
Na16 O62 2.611265 1_555
Na17 O64 2.440910 1_555
Na17 O71 2.486331 1_555
Na17 O69 2.548988 1_555
Na17 O65 2.573567 1_555
Na17 O70 2.584119 1_555
Na17 O63 2.611265 1_555
Ga0 O6 1.842489 1_555
Ga0 O44 1.888436 1_555
Ga0 O8 2.009913 1_655
Ga0 O43 2.211437 1_665
Ga0 O42 2.266979 1_565
Ga0 O7 2.278155 1_665
Ga1 O11 1.842489 1_655
Ga1 O45 1.888436 1_555
Ga1 O9 2.009913 1_555
Ga1 O46 2.211437 1_565
Ga1 O47 2.266979 1_665
Ga1 O10 2.278155 1_665
Ga2 O19 1.857578 1_556
Ga2 O56 1.893458 1_555
Ga2 O18 1.976991 1_556
Ga2 O54 2.118323 1_555
Ga2 O20 2.195628 1_556
Ga2 O55 2.377227 1_555
Ga3 O22 1.857578 1_555
Ga3 O57 1.893458 1_555
Ga3 O23 1.976991 1_555
Ga3 O59 2.118322 1_555
Ga3 O21 2.195628 1_555
Ga3 O58 2.377227 1_555
Ga4 O31 1.865634 1_555
Ga4 O66 1.909844 1_555
Ga4 O30 2.014462 1_555
Ga4 O32 2.112066 1_555
Ga4 O67 2.202778 1_555
Ga4 O68 2.320280 1_555
Ga5 O34 1.865634 1_555
Ga5 O71 1.909844 1_555
Ga5 O35 2.014462 1_555
Ga5 O33 2.112066 1_555
Ga5 O70 2.202778 1_555
Ga5 O69 2.320280 1_555
O0 Si0 1.609838 1_555
O0 Zn0 1.953517 1_555
O1 S0 1.471229 1_555
O1 Zn0 2.153679 1_665
O2 S1 1.465547 1_655
O2 Zn0 1.997417 1_655
O3 S2 1.465547 1_555
O3 Zn1 1.997417 1_555
O4 S3 1.471229 1_655
O4 Zn1 2.153679 1_665
O5 Si1 1.609838 1_555
O5 Zn1 1.953517 1_655
O6 Si1 1.667453 1_565
O7 S2 1.501374 1_555
O8 S3 1.515947 1_555
O9 S0 1.515947 1_555
O10 S1 1.501374 1_555
O11 Si0 1.667453 1_565
O12 S4 1.456220 1_555
O12 Zn2 2.047711 1_555
O13 S5 1.476628 1_555
O13 Zn2 2.133947 1_555
O14 Si2 1.615107 1_555
O14 Zn2 1.946266 1_555
O15 Si3 1.615107 1_555
O15 Zn3 1.946266 1_555
O16 S6 1.476628 1_555
O16 Zn3 2.133947 1_555
O17 S7 1.456220 1_555
O17 Zn3 2.047711 1_555
O18 S7 1.506117 1_555
O19 Si3 1.673496 1_555
O20 S6 1.503875 1_555
O21 S5 1.503875 1_555
O22 Si2 1.673496 1_555
O23 S4 1.506117 1_555
O24 S8 1.459538 1_555
O24 Zn4 2.141347 1_556
O25 S9 1.473979 1_555
O25 Zn4 2.051768 1_556
O26 Si4 1.617460 1_555
O26 Zn4 1.921616 1_556
O27 Si5 1.617460 1_555
O27 Zn5 1.921616 1_555
O28 S10 1.473979 1_555
O28 Zn5 2.051768 1_555
O29 S11 1.459538 1_555
O29 Zn5 2.141347 1_555
O30 S11 1.509769 1_555
O31 Si5 1.678751 1_555
O32 S10 1.499327 1_555
O33 S9 1.499327 1_555
O34 Si4 1.678751 1_555
O35 S8 1.509769 1_555
O36 S11 1.487023 1_555
O36 Zn0 2.355568 1_565
O37 Si5 1.626876 1_555
O37 Zn0 2.011004 1_665
O38 S10 1.472168 1_555
O38 Zn0 2.157116 1_555
O39 S9 1.472171 1_555
O39 Zn1 2.157116 1_555
O40 Si4 1.626868 1_555
O40 Zn1 2.011004 1_565
O41 S8 1.487028 1_555
O41 Zn1 2.355568 1_665
O42 S4 1.514234 1_555
O43 S5 1.504158 1_555
O44 Si2 1.676119 1_555
O45 Si3 1.676122 1_555
O46 S6 1.504149 1_555
O47 S7 1.514239 1_555
O48 Si1 1.632925 1_555
O48 Zn2 2.011036 1_555
O49 S2 1.493862 1_555
O49 Zn2 2.311335 1_555
O50 S3 1.467040 1_655
O50 Zn2 2.193008 1_555
O51 S0 1.467044 1_555
O51 Zn3 2.193008 1_555
O52 S1 1.493853 1_655
O52 Zn3 2.311335 1_555
O53 Si0 1.632930 1_555
O53 Zn3 2.011036 1_555
O54 S8 1.496567 1_555
O55 S9 1.507138 1_655
O56 Si4 1.684957 1_545
O57 Si5 1.684948 1_545
O58 S10 1.507156 1_555
O59 S11 1.496556 1_655
O60 S7 1.470433 1_555
O60 Zn4 2.276197 1_555
O61 Si3 1.657801 1_455
O61 Zn4 2.041470 1_555
O62 S6 1.472657 1_565
O62 Zn4 2.235118 1_555
O63 S5 1.472650 1_565
O63 Zn5 2.235118 1_555
O64 Si2 1.657819 1_555
O64 Zn5 2.041470 1_555
O65 S4 1.470422 1_455
O65 Zn5 2.276197 1_555
O66 Si0 1.713388 1_565
O67 S0 1.495994 1_555
O68 S1 1.492857 1_555
O69 S2 1.492861 1_555
O70 S3 1.495985 1_555
O71 Si1 1.713393 1_565
