# generated using pymatgen
data_MgP2(H8O5)2
_symmetry_space_group_name_H-M   'P 1'
_cell_length_a   12.62050704
_cell_length_b   12.62050704
_cell_length_c   12.62050704
_cell_angle_alpha   131.10153769
_cell_angle_beta   131.10153769
_cell_angle_gamma   71.65180656
_symmetry_Int_Tables_number   1
_chemical_formula_structural   MgP2(H8O5)2
_chemical_formula_sum   'Mg4 P8 H64 O40'
_cell_volume   1116.77802878
_cell_formula_units_Z   4
loop_
 _symmetry_equiv_pos_site_id
 _symmetry_equiv_pos_as_xyz
  1  'x, y, z'
loop_
 _atom_site_type_symbol
 _atom_site_label
 _atom_site_symmetry_multiplicity
 _atom_site_fract_x
 _atom_site_fract_y
 _atom_site_fract_z
 _atom_site_occupancy
  Mg  Mg0  1  0.00000000  0.50000000  0.50000000  1
  Mg  Mg1  1  0.25000000  0.25000000  0.00000000  1
  Mg  Mg2  1  0.75000000  0.75000000  0.00000000  1
  Mg  Mg3  1  0.50000000  0.00000000  0.50000000  1
  P  P0  1  0.12500000  0.63808500  0.01308500  1
  P  P1  1  0.38808500  0.87500000  0.01308500  1
  P  P2  1  0.86191500  0.37500000  0.98691500  1
  P  P3  1  0.62500000  0.11191500  0.98691500  1
  P  P4  1  0.12500000  0.13808500  0.51308500  1
  P  P5  1  0.88808500  0.87500000  0.51308500  1
  P  P6  1  0.36191500  0.37500000  0.48691500  1
  P  P7  1  0.62500000  0.61191500  0.48691500  1
  H  H0  1  0.51060600  0.65659100  0.49380600  1
  H  H1  1  0.48319900  0.33721500  0.49380600  1
  H  H2  1  0.84340900  0.98939400  0.50619400  1
  H  H3  1  0.73939400  0.73319900  0.64598400  1
  H  H4  1  0.08721500  0.09340900  0.35401600  1
  H  H5  1  0.40659100  0.41278500  0.64598400  1
  H  H6  1  0.76680100  0.76060600  0.35401600  1
  H  H7  1  0.16278500  0.01680100  0.50619400  1
  H  H8  1  0.23939400  0.59340900  0.00619400  1
  H  H9  1  0.26680100  0.91278500  0.00619400  1
  H  H10  1  0.90659100  0.26060600  0.99380600  1
  H  H11  1  0.01060600  0.51680100  0.85401600  1
  H  H12  1  0.66278500  0.15659100  0.14598400  1
  H  H13  1  0.34340900  0.83721500  0.85401600  1
  H  H14  1  0.98319900  0.48939400  0.14598400  1
  H  H15  1  0.58721500  0.23319900  0.99380600  1
  H  H16  1  0.46964900  0.77049100  0.18867500  1
  H  H17  1  0.21902600  0.91818300  0.18867500  1
  H  H18  1  0.72950900  0.03035100  0.81132500  1
  H  H19  1  0.78035100  0.46902600  0.80084200  1
  H  H20  1  0.66818300  0.97950900  0.19915800  1
  H  H21  1  0.52049100  0.83181700  0.80084200  1
  H  H22  1  0.03097400  0.71964900  0.19915800  1
  H  H23  1  0.58181700  0.28097400  0.81132500  1
  H  H24  1  0.28035100  0.47950900  0.31132500  1
  H  H25  1  0.53097400  0.33181700  0.31132500  1
  H  H26  1  0.02049100  0.21964900  0.68867500  1
  H  H27  1  0.96964900  0.78097400  0.69915800  1
  H  H28  1  0.92442200  0.31431600  0.49922000  1
  H  H29  1  0.08181700  0.27049100  0.30084200  1
  H  H30  1  0.71902600  0.53035100  0.30084200  1
  H  H31  1  0.16818300  0.96902600  0.68867500  1
  H  H32  1  0.52691100  0.71735400  0.30261400  1
  H  H33  1  0.27570300  0.08526000  0.30261400  1
  H  H34  1  0.78264600  0.97308900  0.69738600  1
  H  H35  1  0.72308900  0.52570300  0.69044300  1
  H  H36  1  0.83526000  0.03264600  0.30955700  1
  H  H37  1  0.46735400  0.66474000  0.69044300  1
  H  H38  1  0.97429700  0.77691100  0.30955700  1
  H  H39  1  0.41474000  0.22429700  0.69738600  1
  H  H40  1  0.22308900  0.53264600  0.19738600  1
  H  H41  1  0.47429700  0.16474000  0.19738600  1
  H  H42  1  0.96735400  0.27691100  0.80261400  1
  H  H43  1  0.02691100  0.72429700  0.80955700  1
  H  H44  1  0.91474000  0.21735400  0.19044300  1
  H  H45  1  0.28264600  0.58526000  0.80955700  1
  H  H46  1  0.77570300  0.47308900  0.19044300  1
  H  H47  1  0.33526000  0.02570300  0.80261400  1
  H  H48  1  0.43490300  0.43568400  0.11010500  1
  H  H49  1  0.17520200  0.17442200  0.11010500  1
  H  H50  1  0.06431600  0.06509700  0.88989500  1
  H  H51  1  0.81509700  0.42520200  0.50078000  1
  H  H52  1  0.42442200  0.92520200  0.61010500  1
  H  H53  1  0.67520200  0.56509700  0.00078000  1
  H  H54  1  0.56431600  0.67442200  0.99922000  1
  H  H55  1  0.82557800  0.93568400  0.00078000  1
  H  H56  1  0.93490300  0.82479800  0.99922000  1
  H  H57  1  0.68568400  0.18490300  0.61010500  1
  H  H58  1  0.57479800  0.07557800  0.38989500  1
  H  H59  1  0.31509700  0.81431600  0.38989500  1
  H  H60  1  0.32557800  0.32479800  0.88989500  1
  H  H61  1  0.07479800  0.68490300  0.49922000  1
  H  H62  1  0.18568400  0.57557800  0.50078000  1
  H  H63  1  0.22950900  0.41818300  0.69915800  1
  O  O0  1  0.58296400  0.57957200  0.32168100  1
  O  O1  1  0.23871700  0.24210900  0.32168100  1
  O  O2  1  0.92042800  0.91703600  0.67831900  1
  O  O3  1  0.66703600  0.48871700  0.49660800  1
  O  O4  1  0.99210900  0.17042800  0.50339200  1
  O  O5  1  0.32957200  0.50789100  0.49660800  1
  O  O6  1  0.01128300  0.83296400  0.50339200  1
  O  O7  1  0.25789100  0.26128300  0.67831900  1
  O  O8  1  0.16703600  0.67042800  0.17831900  1
  O  O9  1  0.51128300  0.00789100  0.17831900  1
  O  O10  1  0.82957200  0.33296400  0.82168100  1
  O  O11  1  0.08296400  0.76128300  0.00339200  1
  O  O12  1  0.75789100  0.07957200  0.99660800  1
  O  O13  1  0.42042800  0.74210900  0.00339200  1
  O  O14  1  0.73871700  0.41703600  0.99660800  1
  O  O15  1  0.49210900  0.98871700  0.82168100  1
  O  O16  1  0.74965200  0.95298000  0.19661800  1
  O  O17  1  0.94696500  0.74363800  0.19661800  1
  O  O18  1  0.54702000  0.75034800  0.80338200  1
  O  O19  1  0.50034800  0.19696500  0.70332800  1
  O  O20  1  0.49363800  0.79702000  0.29667200  1
  O  O21  1  0.70298000  0.00636200  0.70332800  1
  O  O22  1  0.30303500  0.99965200  0.29667200  1
  O  O23  1  0.75636200  0.55303500  0.80338200  1
  O  O24  1  0.00034800  0.29702000  0.30338200  1
  O  O25  1  0.80303500  0.50636200  0.30338200  1
  O  O26  1  0.20298000  0.49965200  0.69661800  1
  O  O27  1  0.24965200  0.05303500  0.79667200  1
  O  O28  1  0.25636200  0.45298000  0.20332800  1
  O  O29  1  0.04702000  0.24363800  0.79667200  1
  O  O30  1  0.44696500  0.25034800  0.20332800  1
  O  O31  1  0.99363800  0.69696500  0.69661800  1
  O  O32  1  0.64748200  0.64748200  0.00000000  1
  O  O33  1  0.39748200  0.89748200  0.50000000  1
  O  O34  1  0.60251800  0.10251800  0.50000000  1
  O  O35  1  0.85251800  0.85251800  0.00000000  1
  O  O36  1  0.10251800  0.60251800  0.50000000  1
  O  O37  1  0.35251800  0.35251800  0.00000000  1
  O  O38  1  0.14748200  0.14748200  0.00000000  1
  O  O39  1  0.89748200  0.39748200  0.50000000  1
loop_
_geom_bond_atom_site_label_1
_geom_bond_atom_site_label_2
_geom_bond_distance
_geom_bond_site_symmetry_2
Mg0 O31 2.090297 1_455
Mg0 O25 2.090297 1_455
Mg0 O26 2.090302 1_555
Mg0 O24 2.090302 1_555
Mg0 O39 2.098071 1_455
Mg0 O36 2.098071 1_555
Mg1 O27 2.090298 1_554
Mg1 O30 2.090298 1_555
Mg1 O29 2.090302 1_554
Mg1 O28 2.090302 1_555
Mg1 O38 2.098071 1_555
Mg1 O37 2.098071 1_555
Mg2 O23 2.090297 1_554
Mg2 O17 2.090297 1_555
Mg2 O18 2.090302 1_554
Mg2 O16 2.090302 1_555
Mg2 O32 2.098071 1_555
Mg2 O35 2.098071 1_555
Mg3 O19 2.090298 1_555
Mg3 O22 2.090298 1_545
Mg3 O21 2.090302 1_555
Mg3 O20 2.090302 1_545
Mg3 O34 2.098071 1_555
Mg3 O33 2.098071 1_545
H0 P7 1.413468 1_555
H1 P6 1.413457 1_555
H2 P5 1.413468 1_555
H3 P7 1.413462 1_555
H4 P4 1.413457 1_555
H5 P6 1.413457 1_555
H6 P5 1.413462 1_555
H7 P4 1.413457 1_555
H8 P0 1.413468 1_555
H9 P1 1.413457 1_555
H10 P2 1.413468 1_555
H11 P0 1.413462 1_556
H12 P3 1.413457 1_554
H13 P1 1.413457 1_556
H14 P2 1.413462 1_554
H15 P3 1.413457 1_555
H16 O20 0.991337 1_555
H17 O22 0.991349 1_555
H18 O21 0.991337 1_555
H19 O23 0.991349 1_555
H20 O16 0.991349 1_555
H21 O18 0.991349 1_555
H22 O17 0.991349 1_455
H23 O19 0.991349 1_555
H24 O28 0.991337 1_555
H25 O30 0.991349 1_555
H26 O29 0.991337 1_555
H27 O31 0.991349 1_555
H28 O39 0.991712 1_555
H29 O24 0.991349 1_555
H30 O25 0.991349 1_555
H31 O27 0.991349 1_565
H32 O20 0.992350 1_555
H33 O22 0.992350 1_545
H34 O21 0.992350 1_565
H35 O23 0.992344 1_555
H36 O16 0.992350 1_545
H37 O18 0.992350 1_555
H38 O17 0.992344 1_555
H39 O19 0.992350 1_555
H40 O28 0.992350 1_555
H41 O30 0.992350 1_555
H42 O29 0.992350 1_655
H43 O31 0.992344 1_455
H44 O24 0.992350 1_655
H45 O26 0.992350 1_555
H46 O25 0.992344 1_555
H47 O27 0.992350 1_555
H48 O37 0.991706 1_555
H49 O38 0.991700 1_555
H50 O38 0.991706 1_556
H51 O39 0.991700 1_555
H52 O33 0.991700 1_555
H53 O32 0.991700 1_555
H54 O32 0.991712 1_556
H55 O35 0.991712 1_555
H56 O35 0.991700 1_556
H57 O34 0.991706 1_555
H58 O34 0.991700 1_555
H59 O33 0.991706 1_555
H60 O37 0.991700 1_556
H61 O36 0.991700 1_555
H62 O36 0.991712 1_555
H63 O26 0.991349 1_555
O0 P7 1.536006 1_555
O1 P6 1.536006 1_555
O2 P5 1.536006 1_555
O3 P7 1.536006 1_555
O4 P4 1.536006 1_655
O5 P6 1.536006 1_555
O6 P5 1.536006 1_455
O7 P4 1.536006 1_555
O8 P0 1.536006 1_555
O9 P1 1.536006 1_545
O10 P2 1.536006 1_555
O11 P0 1.536006 1_555
O12 P3 1.536006 1_555
O13 P1 1.536006 1_555
O14 P2 1.536006 1_555
O15 P3 1.536006 1_565
