# generated using pymatgen
data_Na4TaAl3Si3(SO8)3
_symmetry_space_group_name_H-M   'P 1'
_cell_length_a   8.68846416
_cell_length_b   8.69047962
_cell_length_c   22.05704848
_cell_angle_alpha   89.72212017
_cell_angle_beta   90.32615327
_cell_angle_gamma   119.83898806
_symmetry_Int_Tables_number   1
_chemical_formula_structural   Na4TaAl3Si3(SO8)3
_chemical_formula_sum   'Na12 Ta3 Al9 Si9 S9 O72'
_cell_volume   1444.63762044
_cell_formula_units_Z   3
loop_
 _symmetry_equiv_pos_site_id
 _symmetry_equiv_pos_as_xyz
  1  'x, y, z'
loop_
 _atom_site_type_symbol
 _atom_site_label
 _atom_site_symmetry_multiplicity
 _atom_site_fract_x
 _atom_site_fract_y
 _atom_site_fract_z
 _atom_site_occupancy
  Na  Na0  1  0.63810067  -0.00003409  0.25124333  1
  Na  Na1  1  0.36224076  0.36239939  0.25100313  1
  Na  Na2  1  0.99961067  0.63655470  0.25154249  1
  Na  Na3  1  0.30355170  0.33613250  0.58616018  1
  Na  Na4  1  0.66835439  0.97018221  0.58623209  1
  Na  Na5  1  0.29522446  0.96269347  0.08392346  1
  Na  Na6  1  0.00100471  0.98882695  0.50165475  1
  Na  Na7  1  0.98914671  0.00105533  0.99293607  1
  Na  Na8  1  0.66753817  0.33424105  0.82756776  1
  Na  Na9  1  0.66790805  0.33367549  0.32974340  1
  Na  Na10  1  0.33432171  0.65573373  0.16888246  1
  Na  Na11  1  0.32049998  0.66801687  0.66125626  1
  Ta  Ta0  1  0.66888295  0.33423042  0.97275769  1
  Ta  Ta1  1  0.66737371  0.33449455  0.48320163  1
  Ta  Ta2  1  0.33276182  0.66672897  0.81427392  1
  Al  Al0  1  0.99989947  0.99937299  0.34116657  1
  Al  Al1  1  0.00002855  0.99915054  0.85998293  1
  Al  Al2  1  0.00113761  0.99601589  0.64084194  1
  Al  Al3  1  0.99500203  0.00164036  0.16015565  1
  Al  Al4  1  0.66661807  0.33253457  0.67680083  1
  Al  Al5  1  0.66782529  0.33555629  0.19288025  1
  Al  Al6  1  0.33484121  0.66200031  0.00921490  1
  Al  Al7  1  0.32890492  0.66720903  0.52557135  1
  Al  Al8  1  0.33301265  0.66673869  0.30820000  1
  Si  Si0  1  0.28725421  0.00049292  0.24910065  1
  Si  Si1  1  0.71238047  0.71238859  0.25091430  1
  Si  Si2  1  0.00021803  0.28730403  0.25067727  1
  Si  Si3  1  0.96240044  0.33983547  0.58810238  1
  Si  Si4  1  0.37246163  0.03661815  0.58701881  1
  Si  Si5  1  0.66795148  0.62626406  0.58673237  1
  Si  Si6  1  0.62702025  0.68135260  0.91852282  1
  Si  Si7  1  0.05416672  0.37293799  0.91820594  1
  Si  Si8  1  0.31972940  0.94551056  0.92000291  1
  S  S0  1  0.28670113  0.27985489  0.74894400  1
  S  S1  1  0.99270692  0.71546491  0.74871752  1
  S  S2  1  0.71964892  0.00687870  0.74897308  1
  S  S3  1  0.95557891  0.62305343  0.08621035  1
  S  S4  1  0.67222432  0.04264165  0.08641568  1
  S  S5  1  0.37565752  0.33791852  0.08532459  1
  S  S6  1  0.62129009  0.94810214  0.41574255  1
  S  S7  1  0.32661888  0.37834016  0.41560092  1
  S  S8  1  0.05393935  0.67300244  0.41575542  1
  O  O0  1  0.20477351  0.05090740  0.30626109  1
  O  O1  1  0.84452430  0.79154300  0.30882791  1
  O  O2  1  0.94713454  0.15516600  0.30862896  1
  O  O3  1  0.19819074  0.17639336  0.80320511  1
  O  O4  1  0.97881129  0.80118071  0.80391676  1
  O  O5  1  0.82352411  0.02036292  0.80316949  1
  O  O6  1  0.79824579  0.98157872  0.69338525  1
  O  O7  1  0.18171396  0.20087745  0.69325041  1
  O  O8  1  0.01858694  0.82402811  0.69429205  1
  O  O9  1  0.79194368  0.84307167  0.19251340  1
  O  O10  1  0.05315990  0.20912511  0.19248110  1
  O  O11  1  0.16245416  0.95327364  0.18789483  1
  O  O12  1  0.86979689  0.37603631  0.64420004  1
  O  O13  1  0.50971709  0.12657103  0.64248637  1
  O  O14  1  0.61476768  0.48658761  0.64159859  1
  O  O15  1  0.86682693  0.51484443  0.14030482  1
  O  O16  1  0.64341737  0.13069260  0.13952178  1
  O  O17  1  0.48354546  0.35678475  0.14009504  1
  O  O18  1  0.46665920  0.31114704  0.03187024  1
  O  O19  1  0.84720581  0.53208984  0.03135524  1
  O  O20  1  0.68947317  0.15158616  0.03128419  1
  O  O21  1  0.46462519  0.17281602  0.52600285  1
  O  O22  1  0.70568641  0.53512910  0.52521321  1
  O  O23  1  0.82747354  0.29187733  0.52677723  1
  O  O24  1  0.53679153  0.70676539  0.97722007  1
  O  O25  1  0.16845520  0.46505213  0.97721811  1
  O  O26  1  0.29822845  0.83579568  0.98154807  1
  O  O27  1  0.53414621  0.84694673  0.47114526  1
  O  O28  1  0.31359082  0.46511764  0.47109543  1
  O  O29  1  0.15855179  0.68622603  0.47010772  1
  O  O30  1  0.13316894  0.64772888  0.36025423  1
  O  O31  1  0.51309049  0.86580812  0.36092304  1
  O  O32  1  0.35109652  0.48663363  0.36100306  1
  O  O33  1  0.13347277  0.50161383  0.85741003  1
  O  O34  1  0.36724118  0.86261315  0.86008207  1
  O  O35  1  0.49771521  0.63091877  0.85768700  1
  O  O36  1  0.03330543  0.83155685  0.41233110  1
  O  O37  1  0.80001537  0.96841900  0.41219887  1
  O  O38  1  0.16925455  0.19921571  0.41171737  1
  O  O39  1  0.02424220  0.18216569  0.90526418  1
  O  O40  1  0.15791093  0.97429587  0.90649965  1
  O  O41  1  0.81762594  0.84149727  0.90544626  1
  O  O42  1  0.97727841  0.16115834  0.59438787  1
  O  O43  1  0.18508403  0.02947171  0.59306590  1
  O  O44  1  0.83685882  0.82131509  0.59353649  1
  O  O45  1  0.97212918  0.80113873  0.08748151  1
  O  O46  1  0.83329404  0.02925551  0.09015240  1
  O  O47  1  0.20020631  0.17276174  0.08759465  1
  O  O48  1  0.69692223  0.16478206  0.74586921  1
  O  O49  1  0.46682678  0.30162839  0.74550281  1
  O  O50  1  0.83531012  0.53586706  0.74466292  1
  O  O51  1  0.68670475  0.51523825  0.23985226  1
  O  O52  1  0.82830831  0.31265332  0.23919969  1
  O  O53  1  0.48466715  0.17159794  0.23864072  1
  O  O54  1  0.64015005  0.49775597  0.92597637  1
  O  O55  1  0.85723994  0.35942784  0.92511214  1
  O  O56  1  0.50224431  0.14227991  0.92649380  1
  O  O57  1  0.63813234  0.13103985  0.41909309  1
  O  O58  1  0.49278542  0.36115324  0.41870058  1
  O  O59  1  0.87128783  0.50794931  0.41984101  1
  O  O60  1  0.36042274  0.49818790  0.07921757  1
  O  O61  1  0.13493328  0.64161103  0.08239600  1
  O  O62  1  0.50739931  0.86633504  0.08163489  1
  O  O63  1  0.36213994  0.85187186  0.57219750  1
  O  O64  1  0.49507339  0.64437352  0.57129395  1
  O  O65  1  0.15503401  0.50318206  0.57302637  1
  O  O66  1  0.31196020  0.82834970  0.26010560  1
  O  O67  1  0.51498573  0.68651793  0.26117358  1
  O  O68  1  0.17104545  0.48468574  0.26110192  1
  O  O69  1  0.30533592  0.46393337  0.75224265  1
  O  O70  1  0.15851073  0.69647751  0.75203069  1
  O  O71  1  0.53523014  0.84224694  0.75257280  1
loop_
_geom_bond_atom_site_label_1
_geom_bond_atom_site_label_2
_geom_bond_distance
_geom_bond_site_symmetry_2
Na0 O67 2.389496 1_545
Na0 O52 2.390614 1_555
Na0 O53 2.459609 1_555
Na0 O66 2.467805 1_545
Na0 O2 2.646645 1_555
Na0 O31 2.670955 1_545
Na0 O9 2.678492 1_545
Na0 O16 2.699489 1_555
Na1 O68 2.387860 1_555
Na1 O53 2.391267 1_555
Na1 O67 2.455284 1_555
Na1 O51 2.459784 1_555
Na1 O0 2.643241 1_555
Na1 O10 2.658883 1_555
Na1 O17 2.679420 1_555
Na1 O32 2.682154 1_555
Na2 O66 2.382149 1_655
Na2 O51 2.389882 1_555
Na2 O68 2.440289 1_655
Na2 O52 2.458956 1_555
Na2 O30 2.638972 1_655
Na2 O1 2.658644 1_555
Na2 O15 2.692287 1_555
Na2 O11 2.767384 1_655
Na3 O43 2.335195 1_555
Na3 O64 2.369420 1_555
Na3 O65 2.390070 1_555
Na3 O42 2.468783 1_455
Na3 O7 2.616301 1_555
Na3 O14 2.641210 1_555
Na3 O28 2.753749 1_555
Na3 O21 2.783813 1_555
Na4 O63 2.345837 1_555
Na4 O42 2.357021 1_565
Na4 O44 2.392332 1_555
Na4 O64 2.480638 1_555
Na4 O6 2.594258 1_555
Na4 O13 2.680754 1_565
Na4 O23 2.754233 1_565
Na4 O27 2.774974 1_555
Na5 O47 2.350084 1_565
Na5 O62 2.374839 1_555
Na5 O61 2.420750 1_555
Na5 O45 2.436613 1_455
Na5 O26 2.523754 1_554
Na5 O11 2.555578 1_555
Na5 O18 2.864293 1_565
Na5 O16 2.892658 1_565
Na6 O43 2.481141 1_565
Na6 O44 2.489722 1_455
Na6 O36 2.498528 1_555
Na6 O37 2.574916 1_455
Na6 O38 2.598706 1_565
Na6 O42 2.609772 1_465
Na7 O41 2.409244 1_545
Na7 O39 2.410263 1_655
Na7 O40 2.492879 1_645
Na7 O46 2.619188 1_556
Na7 O45 2.664943 1_546
Na7 O47 2.685574 1_656
Na8 O49 2.423865 1_555
Na8 O48 2.426190 1_555
Na8 O50 2.448788 1_555
Na8 O55 2.645532 1_555
Na8 O54 2.675771 1_555
Na8 O56 2.687551 1_555
Na9 O51 2.482836 1_555
Na9 O52 2.500539 1_555
Na9 O53 2.513177 1_555
Na9 O57 2.563366 1_555
Na9 O58 2.573362 1_555
Na9 O59 2.586810 1_555
Na10 O60 2.485521 1_555
Na10 O67 2.496091 1_555
Na10 O68 2.502935 1_555
Na10 O61 2.531470 1_555
Na10 O62 2.564063 1_555
Na10 O66 2.580786 1_555
Na11 O65 2.419077 1_555
Na11 O63 2.438234 1_555
Na11 O70 2.536578 1_555
Na11 O64 2.574615 1_555
Na11 O69 2.631828 1_555
Na11 O71 2.646872 1_555
Al0 O2 1.778436 1_565
Al0 O1 1.780038 1_555
Al0 O0 1.783486 1_665
Al0 O38 2.249453 1_665
Al0 O36 2.251426 1_655
Al0 O37 2.259464 1_555
Al1 O41 1.799537 1_455
Al1 O39 1.803191 1_565
Al1 O40 1.804929 1_555
Al1 O5 2.052639 1_465
Al1 O4 2.055647 1_455
Al1 O3 2.066897 1_565
Al2 O44 1.809136 1_455
Al2 O43 1.817442 1_565
Al2 O42 1.852550 1_465
Al2 O8 1.962977 1_555
Al2 O7 2.046250 1_565
Al2 O6 2.065960 1_455
Al3 O9 1.762506 1_545
Al3 O10 1.765418 1_655
Al3 O11 1.806572 1_645
Al3 O46 2.173244 1_555
Al3 O47 2.307110 1_655
Al3 O45 2.307391 1_545
Al4 O12 1.767487 1_555
Al4 O14 1.784470 1_555
Al4 O13 1.791168 1_555
Al4 O48 2.207125 1_555
Al4 O50 2.221391 1_555
Al4 O49 2.223460 1_555
Al5 O52 1.812630 1_555
Al5 O51 1.815916 1_555
Al5 O53 1.824655 1_555
Al5 O15 2.021492 1_555
Al5 O17 2.055184 1_555
Al5 O16 2.059514 1_555
Al6 O25 1.747937 1_554
Al6 O24 1.749366 1_554
Al6 O26 1.794929 1_554
Al6 O60 2.179405 1_555
Al6 O62 2.302957 1_555
Al6 O61 2.318746 1_555
Al7 O63 1.807748 1_555
Al7 O65 1.808402 1_555
Al7 O64 1.845935 1_555
Al7 O29 1.983808 1_555
Al7 O27 2.072501 1_555
Al7 O28 2.081367 1_555
Al8 O68 1.829308 1_555
Al8 O67 1.830773 1_555
Al8 O66 1.835848 1_555
Al8 O32 2.013946 1_555
Al8 O30 2.023816 1_555
Al8 O31 2.024472 1_555
O0 Si0 1.619628 1_555
O1 Si1 1.621430 1_555
O2 Si2 1.621955 1_655
O3 S0 1.464313 1_555
O4 S1 1.466909 1_555
O5 S2 1.463253 1_555
O6 S2 1.476336 1_565
O7 S0 1.478039 1_555
O8 S1 1.470640 1_455
O9 Si1 1.625331 1_555
O10 Si2 1.626986 1_555
O11 Si0 1.647002 1_565
O12 Si3 1.595105 1_555
O13 Si4 1.610915 1_555
O14 Si5 1.607938 1_555
O15 S3 1.476675 1_555
O16 S4 1.490938 1_555
O17 S5 1.483609 1_555
O18 S5 1.505244 1_555
O18 Ta0 2.121357 1_554
O19 S3 1.493675 1_555
O19 Ta0 2.091725 1_554
O20 S4 1.499103 1_555
O20 Ta0 2.116121 1_554
O21 Si4 1.705017 1_555
O21 Ta1 1.873929 1_555
O22 Si5 1.688170 1_555
O22 Ta1 1.855868 1_555
O23 Si3 1.696726 1_555
O23 Ta1 1.868132 1_555
O24 Si6 1.589399 1_555
O25 Si7 1.589172 1_555
O26 Si8 1.612424 1_555
O27 S6 1.475520 1_555
O28 S7 1.474891 1_555
O29 S8 1.470230 1_555
O30 S8 1.477641 1_555
O31 S6 1.477733 1_555
O32 S7 1.474431 1_555
O33 Si7 1.659126 1_555
O33 Ta2 1.869612 1_555
O34 Si8 1.657598 1_555
O34 Ta2 1.874649 1_555
O35 Si6 1.659333 1_555
O35 Ta2 1.868997 1_555
O36 S8 1.476873 1_555
O37 S6 1.475476 1_555
O38 S7 1.477133 1_555
O39 Si7 1.572425 1_555
O40 Si8 1.572419 1_555
O41 Si6 1.571829 1_555
O42 Si3 1.626205 1_555
O43 Si4 1.604332 1_555
O44 Si5 1.604367 1_555
O45 S3 1.481751 1_555
O46 S4 1.462663 1_555
O47 S5 1.486351 1_555
O48 S2 1.481669 1_555
O49 S0 1.482349 1_555
O50 S1 1.479914 1_555
O51 Si1 1.633366 1_555
O52 Si2 1.632835 1_655
O53 Si0 1.633836 1_555
O54 Si6 1.662579 1_555
O54 Ta0 1.866149 1_555
O55 Si7 1.663540 1_655
O55 Ta0 1.868517 1_555
O56 Si8 1.661517 1_545
O56 Ta0 1.875231 1_555
O57 S6 1.524434 1_545
O57 Ta1 2.182534 1_555
O58 S7 1.524701 1_555
O58 Ta1 2.168112 1_555
O59 S8 1.522887 1_655
O59 Ta1 2.171273 1_555
O60 S5 1.468690 1_555
O61 S3 1.487515 1_455
O62 S4 1.491942 1_565
O63 Si4 1.598164 1_565
O64 Si5 1.620421 1_555
O65 Si3 1.601373 1_455
O66 Si0 1.630486 1_565
O67 Si1 1.631988 1_555
O68 Si2 1.632356 1_555
O69 S0 1.527708 1_555
O69 Ta2 2.153280 1_555
O70 S1 1.530711 1_455
O70 Ta2 2.146208 1_555
O71 S2 1.529621 1_565
O71 Ta2 2.147161 1_555
