# generated using pymatgen
data_YAgS2
_symmetry_space_group_name_H-M   'P 1'
_cell_length_a   7.63409174
_cell_length_b   7.63634740
_cell_length_c   12.49432841
_cell_angle_alpha   89.98488780
_cell_angle_beta   90.00000000
_cell_angle_gamma   90.00000000
_symmetry_Int_Tables_number   1
_chemical_formula_structural   YAgS2
_chemical_formula_sum   'Y8 Ag8 S16'
_cell_volume   728.37654824
_cell_formula_units_Z   8
loop_
 _symmetry_equiv_pos_site_id
 _symmetry_equiv_pos_as_xyz
  1  'x, y, z'
loop_
 _atom_site_type_symbol
 _atom_site_label
 _atom_site_symmetry_multiplicity
 _atom_site_fract_x
 _atom_site_fract_y
 _atom_site_fract_z
 _atom_site_occupancy
  Y  Y0  1  0.27837785  0.49999530  0.25269687  1
  Y  Y1  1  0.77837785  0.50000470  0.74730313  1
  Y  Y2  1  0.02894446  0.24895268  0.50254240  1
  Y  Y3  1  0.52894446  0.75104732  0.49745760  1
  Y  Y4  1  0.27941392  0.00024445  0.75263199  1
  Y  Y5  1  0.77941392  -0.00024445  0.24736801  1
  Y  Y6  1  0.52866040  0.25114119  0.00248389  1
  Y  Y7  1  0.02866040  0.74885881  0.99751611  1
  Ag  Ag0  1  0.29100315  0.00512651  0.31331473  1
  Ag  Ag1  1  0.79100315  -0.00512651  0.68668527  1
  Ag  Ag2  1  0.51808924  0.26668275  0.56227993  1
  Ag  Ag3  1  0.01808924  0.73331725  0.43772007  1
  Ag  Ag4  1  0.76898754  0.50281601  0.18618572  1
  Ag  Ag5  1  0.26898754  0.49718399  0.81381428  1
  Ag  Ag6  1  0.04190206  0.23151145  0.06192119  1
  Ag  Ag7  1  0.54190206  0.76848855  0.93807881  1
  S  S0  1  0.54991385  0.27044805  0.22317584  1
  S  S1  1  0.04991385  0.72955195  0.77682416  1
  S  S2  1  0.25384500  0.47498098  0.03289533  1
  S  S3  1  0.75384500  0.52501902  0.96710467  1
  S  S4  1  0.30432621  0.02535095  0.53284338  1
  S  S5  1  0.80432621  0.97464905  0.46715662  1
  S  S6  1  0.05474504  0.22376492  0.28242793  1
  S  S7  1  0.55474504  0.77623508  0.71757207  1
  S  S8  1  0.25787079  0.52095125  0.47344731  1
  S  S9  1  0.75787079  0.47904875  0.52655269  1
  S  S10  1  0.00789554  0.22940990  0.72311871  1
  S  S11  1  0.50789554  0.77059010  0.27688129  1
  S  S12  1  0.79998431  0.02093025  0.02652151  1
  S  S13  1  0.29998431  0.97906975  0.97347849  1
  S  S14  1  0.00283965  0.72355738  0.21751723  1
  S  S15  1  0.50283965  0.27644262  0.78248277  1
loop_
_geom_bond_atom_site_label_1
_geom_bond_atom_site_label_2
_geom_bond_distance
_geom_bond_site_symmetry_2
Ag0 S11 2.481316 1_545
Ag0 S6 2.487806 1_555
Ag0 S4 2.749130 1_555
Ag0 S0 3.046137 1_555
Ag1 S10 2.481316 1_655
Ag1 S7 2.487806 1_545
Ag1 S5 2.749130 1_545
Ag1 S1 3.046137 1_645
Ag2 S9 2.485875 1_555
Ag2 S4 2.488963 1_555
Ag2 S15 2.754777 1_555
Ag2 S8 2.991185 1_555
Ag3 S8 2.485875 1_555
Ag3 S5 2.488963 1_455
Ag3 S14 2.754777 1_555
Ag3 S9 2.991185 1_455
Ag4 S0 2.481699 1_555
Ag4 S14 2.486393 1_655
Ag4 S3 2.744907 1_554
Ag4 S11 3.072367 1_555
Ag5 S1 2.481699 1_555
Ag5 S15 2.486393 1_555
Ag5 S2 2.744907 1_556
Ag5 S10 3.072367 1_555
Ag6 S12 2.488503 1_455
Ag6 S2 2.491135 1_555
Ag6 S6 2.757447 1_555
Ag6 S13 2.969874 1_544
Ag7 S13 2.488503 1_555
Ag7 S3 2.491135 1_555
Ag7 S7 2.757447 1_555
Ag7 S12 2.969874 1_566
S0 Y5 2.726451 1_555
S0 Y0 2.739726 1_555
S0 Y6 2.766138 1_555
S1 Y4 2.726451 1_565
S1 Y1 2.739726 1_455
S1 Y7 2.766138 1_555
S2 Y6 2.732755 1_555
S2 Y7 2.743029 1_554
S2 Y0 2.759321 1_555
S3 Y7 2.732755 1_655
S3 Y6 2.743029 1_556
S3 Y1 2.759321 1_555
S4 Y2 2.734624 1_555
S4 Y3 2.742996 1_545
S4 Y4 2.759307 1_555
S5 Y3 2.734624 1_555
S5 Y2 2.742996 1_665
S5 Y5 2.759307 1_565
S6 Y0 2.738933 1_555
S6 Y5 2.745265 1_455
S6 Y2 2.763978 1_555
S7 Y1 2.738933 1_555
S7 Y4 2.745265 1_565
S7 Y3 2.763978 1_555
S8 Y3 2.731313 1_555
S8 Y2 2.738659 1_555
S8 Y0 2.767241 1_555
S9 Y2 2.731313 1_655
S9 Y3 2.738659 1_555
S9 Y1 2.767241 1_555
S10 Y1 2.726082 1_455
S10 Y4 2.737622 1_555
S10 Y2 2.764625 1_555
S11 Y0 2.726082 1_555
S11 Y5 2.737622 1_565
S11 Y3 2.764625 1_555
S12 Y6 2.733261 1_555
S12 Y7 2.737860 1_644
S12 Y5 2.768477 1_555
S13 Y7 2.733261 1_555
S13 Y6 2.737860 1_566
S13 Y4 2.768477 1_565
S14 Y5 2.738113 1_465
S14 Y0 2.744444 1_555
S14 Y7 2.762539 1_554
S15 Y4 2.738113 1_555
S15 Y1 2.744444 1_555
S15 Y6 2.762539 1_556
