# generated using pymatgen
data_MgTe2Mo3W(Se2S)2
_symmetry_space_group_name_H-M   'P 1'
_cell_length_a   3.34659916
_cell_length_b   3.34666572
_cell_length_c   44.40663784
_cell_angle_alpha   90.01882525
_cell_angle_beta   89.90947279
_cell_angle_gamma   120.00146939
_symmetry_Int_Tables_number   1
_chemical_formula_structural   MgTe2Mo3W(Se2S)2
_chemical_formula_sum   'Mg1 Te2 Mo3 W1 Se4 S2'
_cell_volume   430.71254590
_cell_formula_units_Z   1
loop_
 _symmetry_equiv_pos_site_id
 _symmetry_equiv_pos_as_xyz
  1  'x, y, z'
loop_
 _atom_site_type_symbol
 _atom_site_label
 _atom_site_symmetry_multiplicity
 _atom_site_fract_x
 _atom_site_fract_y
 _atom_site_fract_z
 _atom_site_occupancy
  Mg  Mg0  1  0.99869700  0.99989900  0.19614400  1
  Te  Te0  1  0.33247300  0.66641000  0.70132700  1
  Te  Te1  1  0.33423000  0.66701400  0.61545800  1
  Mo  Mo0  1  0.33285100  0.66650900  0.08739800  1
  Mo  Mo1  1  0.33341200  0.66671600  0.46889600  1
  Mo  Mo2  1  0.66748100  0.33339800  0.28733500  1
  W  W0  1  0.66670500  0.33338400  0.65839700  1
  Se  Se0  1  0.66702500  0.33349500  0.04997500  1
  Se  Se1  1  0.66755700  0.33364700  0.43139400  1
  Se  Se2  1  0.66545500  0.33292400  0.12518700  1
  Se  Se3  1  0.66608500  0.33318500  0.50639100  1
  S  S0  1  0.33290700  0.66642000  0.32111500  1
  S  S1  1  0.33512100  0.66700000  0.25243700  1
loop_
_geom_bond_atom_site_label_1
_geom_bond_atom_site_label_2
_geom_bond_distance
_geom_bond_site_symmetry_2
Mg0 S1 3.151478 1_555
Mg0 S1 3.161072 1_665
Mg0 S1 3.165889 1_655
Te0 W0 2.714063 1_555
Te0 W0 2.714233 1_565
Te0 W0 2.714659 1_455
Te1 W0 2.714127 1_455
Te1 W0 2.714714 1_565
Te1 W0 2.714956 1_555
Mo0 Se0 2.548294 1_555
Mo0 Se0 2.548549 1_565
Mo0 Se0 2.548703 1_455
Mo0 Se2 2.558643 1_455
Mo0 Se2 2.559271 1_565
Mo0 Se2 2.559516 1_555
Mo1 Se3 2.549964 1_455
Mo1 Se1 2.550638 1_555
Mo1 Se1 2.550716 1_565
Mo1 Se3 2.550843 1_565
Mo1 Se3 2.550997 1_555
Mo1 Se1 2.551059 1_455
Mo2 S0 2.445174 1_655
Mo2 S0 2.446189 1_545
Mo2 S0 2.446948 1_555
Mo2 S1 2.476621 1_555
Mo2 S1 2.476900 1_545
Mo2 S1 2.477058 1_655
