# generated using pymatgen
data_Na5Nb3InSi5PO24
_symmetry_space_group_name_H-M   'P 1'
_cell_length_a   9.04754010
_cell_length_b   9.04733436
_cell_length_c   22.68428413
_cell_angle_alpha   90.02579255
_cell_angle_beta   89.98280627
_cell_angle_gamma   119.97060530
_symmetry_Int_Tables_number   1
_chemical_formula_structural   Na5Nb3InSi5PO24
_chemical_formula_sum   'Na15 Nb9 In3 Si15 P3 O72'
_cell_volume   1608.55303370
_cell_formula_units_Z   3
loop_
 _symmetry_equiv_pos_site_id
 _symmetry_equiv_pos_as_xyz
  1  'x, y, z'
loop_
 _atom_site_type_symbol
 _atom_site_label
 _atom_site_symmetry_multiplicity
 _atom_site_fract_x
 _atom_site_fract_y
 _atom_site_fract_z
 _atom_site_occupancy
  Na  Na0  1  0.99373715  0.63126453  0.24504270  1
  Na  Na1  1  0.63270880  0.62418128  0.74730250  1
  Na  Na2  1  0.99151181  0.36662829  0.74709857  1
  Na  Na3  1  0.37302399  0.00724050  0.74882053  1
  Na  Na4  1  0.31358510  0.97196103  0.08378341  1
  Na  Na5  1  0.66323873  0.69050088  0.08402895  1
  Na  Na6  1  0.96731409  0.29304808  0.41452005  1
  Na  Na7  1  0.32417508  0.03305047  0.41311772  1
  Na  Na8  1  0.70624559  0.67439581  0.41509814  1
  Na  Na9  1  0.00037302  0.99986845  0.50128649  1
  Na  Na10  1  0.99935799  0.00767022  0.99597151  1
  Na  Na11  1  0.66666229  0.33413544  0.83424966  1
  Na  Na12  1  0.65187862  0.32019529  0.32571622  1
  Na  Na13  1  0.33394556  0.65868654  0.16530859  1
  Na  Na14  1  0.33225779  0.66377322  0.66434454  1
  Nb  Nb0  1  0.00025880  0.99941450  0.85652662  1
  Nb  Nb1  1  0.99533144  0.99926930  0.64477747  1
  Nb  Nb2  1  0.00487564  0.00430875  0.14536341  1
  Nb  Nb3  1  0.66676520  0.33161951  0.97772010  1
  Nb  Nb4  1  0.67172381  0.33676543  0.48266367  1
  Nb  Nb5  1  0.32909909  0.66287748  0.01784588  1
  Nb  Nb6  1  0.33358075  0.66281997  0.52178065  1
  Nb  Nb7  1  0.33759241  0.67126768  0.31191161  1
  Nb  Nb8  1  0.33299890  0.66571152  0.81503036  1
  In  In0  1  0.00229258  0.00262347  0.35100830  1
  In  In1  1  0.66822293  0.33642967  0.68395339  1
  In  In2  1  0.65962364  0.32557964  0.18243450  1
  Si  Si0  1  0.29888405  0.00502240  0.25180474  1
  Si  Si1  1  0.28539780  0.28693984  0.75036819  1
  Si  Si2  1  0.00259937  0.71466386  0.75045682  1
  Si  Si3  1  0.71128672  0.99786389  0.75092332  1
  Si  Si4  1  0.96136116  0.33290917  0.58518012  1
  Si  Si5  1  0.66763123  0.62842824  0.58521603  1
  Si  Si6  1  0.95790647  0.62023852  0.08507928  1
  Si  Si7  1  0.66745065  0.04266441  0.08227426  1
  Si  Si8  1  0.37763984  0.33685435  0.08284795  1
  Si  Si9  1  0.62439166  0.66547139  0.91716310  1
  Si  Si10  1  0.03981188  0.37464260  0.91609393  1
  Si  Si11  1  0.33470656  0.95937740  0.91694609  1
  Si  Si12  1  0.61979014  0.95620685  0.41730230  1
  Si  Si13  1  0.33559450  0.37970977  0.41693639  1
  Si  Si14  1  0.04500789  0.66456997  0.41686423  1
  P  P0  1  0.70656376  0.70849725  0.25024834  1
  P  P1  1  0.00140460  0.29322639  0.25118181  1
  P  P2  1  0.37246457  0.03908915  0.58359865  1
  O  O0  1  0.21553952  0.02084137  0.31246428  1
  O  O1  1  0.80832170  0.78462763  0.30726876  1
  O  O2  1  0.97443239  0.19585699  0.30900766  1
  O  O3  1  0.18946519  0.16536737  0.80689687  1
  O  O4  1  0.97660131  0.81163233  0.80684533  1
  O  O5  1  0.83528109  0.02600077  0.80685758  1
  O  O6  1  0.80390139  0.96525285  0.69288223  1
  O  O7  1  0.16078624  0.19557362  0.69275768  1
  O  O8  1  0.03559467  0.83951299  0.69290357  1
  O  O9  1  0.79655840  0.82315618  0.19562515  1
  O  O10  1  0.02055038  0.19459799  0.19810606  1
  O  O11  1  0.16701006  0.97240577  0.19437823  1
  O  O12  1  0.89044629  0.36872656  0.64469080  1
  O  O13  1  0.47549642  0.10843606  0.64006247  1
  O  O14  1  0.62626218  0.52029003  0.64461923  1
  O  O15  1  0.89160627  0.52193716  0.14631081  1
  O  O16  1  0.60992846  0.10509998  0.13900590  1
  O  O17  1  0.49625854  0.39085957  0.13976810  1
  O  O18  1  0.46528445  0.29423211  0.02660938  1
  O  O19  1  0.82653781  0.52856225  0.02942785  1
  O  O20  1  0.69805091  0.16683932  0.02562766  1
  O  O21  1  0.46765993  0.15682778  0.52878827  1
  O  O22  1  0.69003041  0.52647954  0.52676971  1
  O  O23  1  0.83660089  0.30704083  0.52661232  1
  O  O24  1  0.53043377  0.69217747  0.97423241  1
  O  O25  1  0.16486842  0.47441913  0.97177821  1
  O  O26  1  0.30873692  0.84026120  0.97432445  1
  O  O27  1  0.52487896  0.83211113  0.47250326  1
  O  O28  1  0.30956279  0.47730447  0.47280171  1
  O  O29  1  0.17027419  0.69301468  0.47177243  1
  O  O30  1  0.13215022  0.62945379  0.35782716  1
  O  O31  1  0.49441486  0.86277041  0.35932185  1
  O  O32  1  0.36902309  0.50600519  0.35968613  1
  O  O33  1  0.13500476  0.49502192  0.85729481  1
  O  O34  1  0.35946449  0.86325569  0.85818160  1
  O  O35  1  0.50341616  0.64022834  0.85846036  1
  O  O36  1  0.01726754  0.82717108  0.41470824  1
  O  O37  1  0.80755218  0.97781612  0.41300015  1
  O  O38  1  0.16677268  0.19361612  0.41534314  1
  O  O39  1  0.02467197  0.18841222  0.90999240  1
  O  O40  1  0.16403996  0.97526968  0.90977435  1
  O  O41  1  0.81075413  0.83608037  0.90963664  1
  O  O42  1  0.97951091  0.16107578  0.58813574  1
  O  O43  1  0.19661248  0.02627032  0.58670362  1
  O  O44  1  0.84299433  0.81556188  0.58825348  1
  O  O45  1  0.97521794  0.81460573  0.09143865  1
  O  O46  1  0.83521884  0.01538145  0.09143457  1
  O  O47  1  0.18758547  0.16007385  0.09205010  1
  O  O48  1  0.68807805  0.16348051  0.74733229  1
  O  O49  1  0.47229414  0.30515915  0.74782583  1
  O  O50  1  0.83513864  0.52687645  0.74918742  1
  O  O51  1  0.69470857  0.53455271  0.24551687  1
  O  O52  1  0.85354531  0.32803008  0.24550594  1
  O  O53  1  0.48596830  0.16612383  0.24724774  1
  O  O54  1  0.64025896  0.49480800  0.92423573  1
  O  O55  1  0.85494573  0.36149936  0.92373439  1
  O  O56  1  0.50572380  0.14608789  0.92303639  1
  O  O57  1  0.63154947  0.14307027  0.42368294  1
  O  O58  1  0.50797156  0.36293519  0.42413523  1
  O  O59  1  0.85555775  0.48835807  0.42401908  1
  O  O60  1  0.35131358  0.50152044  0.07219619  1
  O  O61  1  0.15440971  0.66126596  0.07437825  1
  O  O62  1  0.50347484  0.84783285  0.07227104  1
  O  O63  1  0.35189604  0.86165649  0.57310600  1
  O  O64  1  0.50338489  0.65498388  0.57303696  1
  O  O65  1  0.14955502  0.50151068  0.57314440  1
  O  O66  1  0.29787412  0.81810982  0.25532314  1
  O  O67  1  0.52808197  0.69363274  0.25515857  1
  O  O68  1  0.17004613  0.47165203  0.25427685  1
  O  O69  1  0.30114822  0.47664896  0.75616012  1
  O  O70  1  0.17723056  0.70002304  0.75605579  1
  O  O71  1  0.52297204  0.82237117  0.75596742  1
loop_
_geom_bond_atom_site_label_1
_geom_bond_atom_site_label_2
_geom_bond_distance
_geom_bond_site_symmetry_2
Na0 O52 2.378832 1_555
Na0 O51 2.391683 1_555
Na0 O66 2.415860 1_655
Na0 O15 2.436055 1_555
Na0 O68 2.641155 1_655
Na0 O30 2.852466 1_655
Na0 O11 2.910732 1_655
Na0 O1 3.009036 1_555
Na1 O50 2.396290 1_555
Na1 O71 2.453121 1_555
Na1 O49 2.500399 1_555
Na1 O14 2.501169 1_555
Na1 O69 2.611554 1_555
Na1 O35 2.813395 1_555
Na1 O6 2.944841 1_555
Na1 O4 3.018227 1_555
Na2 O48 2.423556 1_555
Na2 O69 2.468860 1_655
Na2 O50 2.480952 1_555
Na2 O12 2.500336 1_555
Na2 O70 2.626552 1_655
Na2 O33 2.788555 1_655
Na2 O7 2.936884 1_655
Na2 O5 2.997218 1_555
Na3 O49 2.377719 1_555
Na3 O70 2.443656 1_545
Na3 O48 2.469555 1_555
Na3 O71 2.632830 1_545
Na3 O13 2.633810 1_555
Na3 O34 2.776569 1_545
Na3 O8 2.933239 1_545
Na3 O3 2.985163 1_555
Na4 O61 2.444605 1_555
Na4 O47 2.483806 1_565
Na4 O62 2.491625 1_555
Na4 O16 2.642496 1_565
Na4 O45 2.659789 1_455
Na4 O26 2.744474 1_554
Na4 O11 2.838291 1_555
Na4 O18 2.840988 1_565
Na5 O45 2.467774 1_555
Na5 O60 2.477704 1_555
Na5 O62 2.498593 1_555
Na5 O46 2.553249 1_565
Na5 O17 2.672146 1_555
Na5 O24 2.769003 1_554
Na5 O9 2.802942 1_555
Na5 O19 2.832580 1_555
Na6 O38 2.385004 1_655
Na6 O59 2.444551 1_555
Na6 O37 2.470959 1_545
Na6 O2 2.561378 1_555
Na6 O57 2.644686 1_555
Na6 O23 2.833307 1_555
Na6 O30 2.934065 1_655
Na6 O28 2.993047 1_655
Na7 O36 2.452271 1_545
Na7 O57 2.452874 1_555
Na7 O0 2.466606 1_555
Na7 O38 2.491540 1_555
Na7 O58 2.603140 1_555
Na7 O21 2.893292 1_555
Na7 O31 2.933070 1_545
Na7 O29 2.982655 1_545
Na8 O37 2.421651 1_555
Na8 O36 2.437832 1_655
Na8 O58 2.479995 1_555
Na8 O1 2.628920 1_555
Na8 O59 2.640285 1_555
Na8 O22 2.834811 1_555
Na8 O32 2.926828 1_555
Na8 O27 2.959863 1_555
Na9 O42 2.513249 1_465
Na9 O44 2.515733 1_455
Na9 O38 2.550424 1_565
Na9 O43 2.557679 1_565
Na9 O36 2.560752 1_555
Na9 O37 2.597713 1_455
Na10 O39 2.481698 1_655
Na10 O41 2.551451 1_545
Na10 O40 2.561899 1_645
Na10 O46 2.645968 1_556
Na10 O47 2.684205 1_656
Na10 O45 2.722229 1_546
Na11 O50 2.536361 1_555
Na11 O49 2.558447 1_555
Na11 O56 2.568544 1_555
Na11 O48 2.569972 1_555
Na11 O55 2.581463 1_555
Na11 O54 2.584754 1_555
Na12 O53 2.296415 1_555
Na12 O51 2.544194 1_555
Na12 O52 2.552190 1_555
Na12 O57 2.692393 1_555
Na12 O58 2.707319 1_555
Na12 O59 2.807391 1_555
Na13 O68 2.574810 1_555
Na13 O60 2.593890 1_555
Na13 O67 2.604998 1_555
Na13 O66 2.612197 1_555
Na13 O61 2.633192 1_555
Na13 O62 2.667224 1_555
Na14 O65 2.596604 1_555
Na14 O69 2.609608 1_555
Na14 O64 2.610459 1_555
Na14 O70 2.619199 1_555
Na14 O71 2.623310 1_555
Na14 O63 2.684340 1_555
Nb0 O4 1.958920 1_455
Nb0 O3 1.970943 1_565
Nb0 O5 1.978705 1_465
Nb0 O40 2.006791 1_555
Nb0 O41 2.010922 1_455
Nb0 O39 2.016070 1_565
Nb1 O6 1.936961 1_555
Nb1 O7 1.980589 1_665
Nb1 O8 1.985278 1_655
Nb1 O44 2.004132 1_555
Nb1 O42 2.006392 1_565
Nb1 O43 2.160069 1_665
Nb2 O47 1.963173 1_555
Nb2 O11 1.973754 1_545
Nb2 O46 2.004399 1_455
Nb2 O45 2.013012 1_445
Nb2 O10 2.042010 1_555
Nb2 O9 2.110101 1_445
Nb3 O20 1.976601 1_556
Nb3 O55 2.002682 1_555
Nb3 O56 2.008712 1_555
Nb3 O18 2.012557 1_556
Nb3 O54 2.016150 1_555
Nb3 O19 2.016433 1_556
Nb4 O22 1.920685 1_555
Nb4 O23 1.921830 1_555
Nb4 O59 2.034290 1_555
Nb4 O21 2.037429 1_555
Nb4 O57 2.086854 1_555
Nb4 O58 2.089431 1_555
Nb5 O25 1.917071 1_554
Nb5 O26 1.970046 1_554
Nb5 O24 1.970771 1_554
Nb5 O60 1.996626 1_555
Nb5 O61 2.029418 1_555
Nb5 O62 2.043291 1_555
Nb6 O28 1.932050 1_555
Nb6 O64 1.956308 1_555
Nb6 O65 1.957616 1_555
Nb6 O27 1.985659 1_555
Nb6 O29 1.987240 1_555
Nb6 O63 2.078362 1_555
Nb7 O31 1.927376 1_555
Nb7 O32 1.979235 1_555
Nb7 O30 1.994881 1_555
Nb7 O66 2.005176 1_555
Nb7 O67 2.078256 1_555
Nb7 O68 2.128997 1_555
Nb8 O33 1.936326 1_555
Nb8 O35 1.938385 1_555
Nb8 O34 1.944413 1_555
Nb8 O69 2.073152 1_555
Nb8 O70 2.076260 1_555
Nb8 O71 2.079556 1_555
In0 O0 2.048285 1_555
In0 O2 2.114137 1_455
In0 O1 2.120218 1_445
In0 O37 2.176225 1_445
In0 O38 2.181771 1_555
In0 O36 2.200720 1_545
In1 O12 2.081641 1_555
In1 O14 2.083222 1_555
In1 O13 2.166160 1_555
In1 O49 2.195332 1_555
In1 O48 2.197876 1_555
In1 O50 2.199665 1_555
In2 O16 2.062553 1_555
In2 O17 2.084167 1_555
In2 O53 2.108859 1_555
In2 O15 2.123126 1_555
In2 O52 2.255752 1_555
In2 O51 2.263014 1_555
O0 Si0 1.609206 1_555
O1 P0 1.536695 1_555
O2 P1 1.530462 1_655
O3 Si1 1.629186 1_555
O4 Si2 1.632838 1_655
O5 Si3 1.627421 1_545
O6 Si3 1.663932 1_555
O7 Si1 1.652588 1_555
O8 Si2 1.653381 1_555
O9 P0 1.559191 1_555
O10 P1 1.558579 1_555
O11 Si0 1.690100 1_565
O12 Si4 1.595577 1_555
O13 P2 1.522766 1_555
O14 Si5 1.596281 1_555
O15 Si6 1.596150 1_555
O16 Si7 1.593347 1_555
O17 Si8 1.591868 1_555
O18 Si8 1.646041 1_555
O19 Si6 1.646003 1_555
O20 Si7 1.637167 1_555
O21 P2 1.583128 1_555
O22 Si5 1.683776 1_555
O23 Si4 1.682461 1_555
O24 Si9 1.631328 1_555
O25 Si10 1.634016 1_555
O26 Si11 1.630592 1_555
O27 Si12 1.613469 1_555
O28 Si13 1.627163 1_555
O29 Si14 1.615942 1_555
O30 Si14 1.662917 1_555
O31 Si12 1.665246 1_555
O32 Si13 1.655139 1_555
O33 Si10 1.664465 1_555
O34 Si11 1.666383 1_555
O35 Si9 1.665607 1_555
O36 Si14 1.611987 1_555
O37 Si12 1.612980 1_555
O38 Si13 1.612335 1_555
O39 Si10 1.626647 1_555
O40 Si11 1.628931 1_555
O41 Si9 1.629256 1_555
O42 Si4 1.644235 1_555
O43 P2 1.537975 1_555
O44 Si5 1.644581 1_555
O45 Si6 1.691829 1_555
O46 Si7 1.668134 1_555
O47 Si8 1.676523 1_555
O48 Si3 1.615664 1_545
O49 Si1 1.615947 1_555
O50 Si2 1.615870 1_655
O51 P0 1.526719 1_555
O52 P1 1.525234 1_655
O53 Si0 1.592260 1_555
O54 Si9 1.628539 1_555
O55 Si10 1.625684 1_655
O56 Si11 1.629479 1_545
O57 Si12 1.646369 1_545
O58 Si13 1.648840 1_555
O59 Si14 1.666080 1_655
O60 Si8 1.639964 1_555
O61 Si6 1.642563 1_455
O62 Si7 1.657311 1_565
O63 P2 1.539305 1_565
O64 Si5 1.642967 1_555
O65 Si4 1.644888 1_455
O66 Si0 1.688438 1_565
O67 P0 1.555979 1_555
O68 P1 1.574153 1_555
O69 Si1 1.654964 1_555
O70 Si2 1.655070 1_555
O71 Si3 1.653535 1_555
