# generated using pymatgen
data_Ba2TmMgRuO6
_symmetry_space_group_name_H-M   'P 1'
_cell_length_a   6.23952432
_cell_length_b   6.23952438
_cell_length_c   6.06125900
_cell_angle_alpha   60.94067826
_cell_angle_beta   60.94067793
_cell_angle_gamma   56.06899706
_symmetry_Int_Tables_number   1
_chemical_formula_structural   Ba2TmMgRuO6
_chemical_formula_sum   'Ba2 Tm1 Mg1 Ru1 O6'
_cell_volume   163.48114298
_cell_formula_units_Z   1
loop_
 _symmetry_equiv_pos_site_id
 _symmetry_equiv_pos_as_xyz
  1  'x, y, z'
loop_
 _atom_site_type_symbol
 _atom_site_label
 _atom_site_symmetry_multiplicity
 _atom_site_fract_x
 _atom_site_fract_y
 _atom_site_fract_z
 _atom_site_occupancy
  Ba  Ba0  1  0.69082100  0.69082100  0.80917900  1
  Ba  Ba1  1  0.30917900  0.30917900  0.19082100  1
  Tm  Tm0  1  0.50000000  0.50000000  0.50000000  1
  Mg  Mg0  1  0.00000000  0.00000000  0.50000000  1
  Ru  Ru0  1  0.00000000  0.00000000  0.00000000  1
  O  O0  1  0.23193400  0.76806600  0.74166400  1
  O  O1  1  0.23193400  0.76806600  0.25833600  1
  O  O2  1  0.76806600  0.23193400  0.74166400  1
  O  O3  1  0.23829200  0.23829200  0.76170800  1
  O  O4  1  0.76806600  0.23193400  0.25833600  1
  O  O5  1  0.76170800  0.76170800  0.23829200  1
loop_
_geom_bond_atom_site_label_1
_geom_bond_atom_site_label_2
_geom_bond_distance
_geom_bond_site_symmetry_2
Ba0 O1 2.829117 1_556
Ba0 O4 2.829117 1_556
Ba0 O0 2.829117 1_555
Ba0 O2 2.829117 1_555
Ba0 Mg0 2.843561 1_665
Ba0 O3 2.964917 1_655
Ba0 O3 2.964917 1_565
Ba0 O5 3.099962 1_555
Ba0 O5 3.099962 1_556
Ba1 O2 2.829117 1_554
Ba1 O0 2.829117 1_554
Ba1 O4 2.829117 1_555
Ba1 O1 2.829117 1_555
Ba1 Mg0 2.843561 1_555
Ba1 O5 2.964917 1_455
Ba1 O5 2.964917 1_545
Ba1 O3 3.099962 1_555
Ba1 O3 3.099962 1_554
Mg0 O2 1.999030 1_455
Mg0 O0 1.999030 1_545
Mg0 O1 1.999030 1_545
Mg0 O4 1.999030 1_455
O0 Ru0 2.074217 1_566
O0 Tm0 2.148860 1_555
O1 Ru0 2.074217 1_565
O1 Tm0 2.148860 1_555
O2 Ru0 2.074217 1_656
O2 Tm0 2.148860 1_555
O3 Ru0 2.191604 1_556
O3 Tm0 2.406964 1_555
O4 Ru0 2.074217 1_655
O4 Tm0 2.148860 1_555
O5 Ru0 2.191604 1_665
O5 Tm0 2.406964 1_555
