# generated using pymatgen
data_HS3N
_symmetry_space_group_name_H-M   'P 1'
_cell_length_a   13.19236300
_cell_length_b   8.51050000
_cell_length_c   9.33723003
_cell_angle_alpha   58.81438503
_cell_angle_beta   90.00000000
_cell_angle_gamma   90.00000000
_symmetry_Int_Tables_number   1
_chemical_formula_structural   HS3N
_chemical_formula_sum   'H8 S24 N8'
_cell_volume   896.83560873
_cell_formula_units_Z   8
loop_
 _symmetry_equiv_pos_site_id
 _symmetry_equiv_pos_as_xyz
  1  'x, y, z'
loop_
 _atom_site_type_symbol
 _atom_site_label
 _atom_site_symmetry_multiplicity
 _atom_site_fract_x
 _atom_site_fract_y
 _atom_site_fract_z
 _atom_site_occupancy
  H  H0  1  0.46023300  0.71572700  0.92374000  1
  H  H1  1  0.46023300  0.28427300  0.57626000  1
  H  H2  1  0.53976700  0.28427300  0.07626000  1
  H  H3  1  0.53976700  0.71572700  0.42374000  1
  H  H4  1  0.07567100  0.78139000  0.63291000  1
  H  H5  1  0.07567100  0.21861000  0.86709000  1
  H  H6  1  0.92432900  0.21861000  0.36709000  1
  H  H7  1  0.92432900  0.78139000  0.13291000  1
  S  S0  1  0.40528300  0.79263000  0.53831300  1
  S  S1  1  0.40528300  0.20737000  0.96168700  1
  S  S2  1  0.59471700  0.20737000  0.46168700  1
  S  S3  1  0.59471700  0.79263000  0.03831300  1
  S  S4  1  0.30746000  0.57411900  0.61910800  1
  S  S5  1  0.30746000  0.42588100  0.88089200  1
  S  S6  1  0.69254000  0.42588100  0.38089200  1
  S  S7  1  0.69254000  0.57411900  0.11910800  1
  S  S8  1  0.39177800  0.64128900  0.18352200  1
  S  S9  1  0.39177800  0.35871100  0.31647800  1
  S  S10  1  0.60822200  0.35871100  0.81647800  1
  S  S11  1  0.60822200  0.64128900  0.68352200  1
  S  S12  1  0.84313500  0.92460500  0.69047600  1
  S  S13  1  0.84313500  0.07539500  0.80952400  1
  S  S14  1  0.15686500  0.07539500  0.30952400  1
  S  S15  1  0.15686500  0.92460500  0.19047600  1
  S  S16  1  0.94063600  0.70561900  0.81796900  1
  S  S17  1  0.94063600  0.29438100  0.68203100  1
  S  S18  1  0.05936400  0.29438100  0.18203100  1
  S  S19  1  0.05936400  0.70561900  0.31796900  1
  S  S20  1  0.14362500  0.85891800  0.81985000  1
  S  S21  1  0.14362500  0.14108200  0.68015000  1
  S  S22  1  0.85637500  0.14108200  0.18015000  1
  S  S23  1  0.85637500  0.85891800  0.31985000  1
  N  N0  1  0.47591800  0.73223100  0.02262200  1
  N  N1  1  0.47591800  0.26776900  0.47737800  1
  N  N2  1  0.52408200  0.26776900  0.97737800  1
  N  N3  1  0.52408200  0.73223100  0.52262200  1
  N  N4  1  0.06006600  0.76361500  0.74787600  1
  N  N5  1  0.06006600  0.23638500  0.75212400  1
  N  N6  1  0.93993400  0.23638500  0.25212400  1
  N  N7  1  0.93993400  0.76361500  0.24787600  1
loop_
_geom_bond_atom_site_label_1
_geom_bond_atom_site_label_2
_geom_bond_distance
_geom_bond_site_symmetry_2
H0 N0 1.024354 1_556
H1 N1 1.024354 1_555
H2 N2 1.024354 1_554
H3 N3 1.024354 1_555
H4 N4 1.024411 1_555
H5 N5 1.024411 1_555
H6 N6 1.024411 1_555
H7 N7 1.024411 1_555
S0 S4 2.059106 1_555
S1 S5 2.059106 1_555
S2 S6 2.059106 1_555
S3 S7 2.059106 1_555
S4 S5 2.091121 1_555
S6 S7 2.091121 1_555
S12 S16 2.060898 1_555
S12 S13 2.088005 1_565
S13 S17 2.060898 1_555
S14 S18 2.060898 1_555
S14 S15 2.088005 1_545
S15 S19 2.060898 1_555
N0 S3 1.679262 1_555
N0 S8 1.698241 1_555
N1 S2 1.679262 1_555
N1 S9 1.698241 1_555
N2 S1 1.679262 1_555
N2 S10 1.698241 1_555
N3 S0 1.679262 1_555
N3 S11 1.698241 1_555
N4 S16 1.679230 1_455
N4 S20 1.699743 1_555
N5 S17 1.679230 1_455
N5 S21 1.699743 1_555
N6 S18 1.679230 1_655
N6 S22 1.699743 1_555
N7 S19 1.679230 1_655
N7 S23 1.699743 1_555
