# generated using pymatgen
data_Ba2Nd2MgCu2(BO5)2
_symmetry_space_group_name_H-M   'P 1'
_cell_length_a   5.59499200
_cell_length_b   5.59499200
_cell_length_c   8.64725400
_cell_angle_alpha   90.00000000
_cell_angle_beta   90.00000000
_cell_angle_gamma   90.00000000
_symmetry_Int_Tables_number   1
_chemical_formula_structural   Ba2Nd2MgCu2(BO5)2
_chemical_formula_sum   'Ba2 Nd2 Mg1 Cu2 B2 O10'
_cell_volume   270.69308130
_cell_formula_units_Z   1
loop_
 _symmetry_equiv_pos_site_id
 _symmetry_equiv_pos_as_xyz
  1  'x, y, z'
loop_
 _atom_site_type_symbol
 _atom_site_label
 _atom_site_symmetry_multiplicity
 _atom_site_fract_x
 _atom_site_fract_y
 _atom_site_fract_z
 _atom_site_occupancy
  Ba  Ba0  1  0.50000000  0.50000000  0.53675800  1
  Ba  Ba1  1  0.00000000  0.00000000  0.59737300  1
  Nd  Nd0  1  0.50000000  0.50000000  0.98678700  1
  Nd  Nd1  1  0.00000000  0.00000000  0.95717200  1
  Mg  Mg0  1  0.00000000  0.00000000  0.26149200  1
  Cu  Cu0  1  0.00000000  0.50000000  0.80315900  1
  Cu  Cu1  1  0.50000000  0.00000000  0.80315900  1
  B  B0  1  0.50000000  0.00000000  0.24945800  1
  B  B1  1  0.00000000  0.50000000  0.24945800  1
  O  O0  1  0.32424900  0.12927500  0.16839000  1
  O  O1  1  0.12927500  0.67575100  0.16839000  1
  O  O2  1  0.00000000  0.50000000  0.41161300  1
  O  O3  1  0.50000000  0.00000000  0.41161300  1
  O  O4  1  0.87072500  0.32424900  0.16839000  1
  O  O5  1  0.67575100  0.87072500  0.16839000  1
  O  O6  1  0.26701900  0.75405300  0.80779900  1
  O  O7  1  0.24594700  0.26701900  0.80779900  1
  O  O8  1  0.75405300  0.73298100  0.80779900  1
  O  O9  1  0.73298100  0.24594700  0.80779900  1
loop_
_geom_bond_atom_site_label_1
_geom_bond_atom_site_label_2
_geom_bond_distance
_geom_bond_site_symmetry_2
Ba0 O2 2.999509 1_555
Ba0 O2 2.999509 1_655
Ba0 O3 2.999509 1_555
Ba0 O3 2.999509 1_565
Ba0 O8 3.035266 1_555
Ba0 O6 3.035266 1_555
Ba0 O9 3.035266 1_555
Ba0 O7 3.035266 1_555
Ba1 O8 2.726992 1_445
Ba1 O7 2.726992 1_555
Ba1 O6 2.726992 1_545
Ba1 O9 2.726992 1_455
Ba1 Mg0 2.904448 1_555
Ba1 O3 3.225869 1_555
Ba1 O3 3.225869 1_455
Ba1 O2 3.225869 1_545
Ba1 O2 3.225869 1_555
Nd0 O7 2.472888 1_555
Nd0 O9 2.472888 1_555
Nd0 O8 2.472888 1_555
Nd0 O6 2.472888 1_555
Nd0 O5 2.781241 1_556
Nd0 O0 2.781241 1_556
Nd0 O4 2.781241 1_556
Nd0 O1 2.781241 1_556
Nd1 O8 2.407056 1_445
Nd1 O7 2.407056 1_555
Nd1 O9 2.407056 1_455
Nd1 O6 2.407056 1_545
Nd1 O0 2.674006 1_556
Nd1 O1 2.674006 1_546
Nd1 O5 2.674006 1_446
Nd1 O4 2.674006 1_456
Mg0 O0 2.112467 1_555
Mg0 O5 2.112467 1_445
Mg0 O4 2.112467 1_455
Mg0 O1 2.112467 1_545
Cu0 O8 1.895881 1_455
Cu0 O7 1.895881 1_555
Cu0 O6 2.062523 1_555
Cu0 O9 2.062523 1_455
Cu1 O9 1.895881 1_555
Cu1 O6 1.895881 1_545
Cu1 O7 2.062523 1_555
Cu1 O8 2.062523 1_545
B0 O3 1.402195 1_555
B0 O0 1.407659 1_555
B0 O5 1.407659 1_545
B1 O2 1.402195 1_555
B1 O1 1.407659 1_555
B1 O4 1.407659 1_455
