# generated using pymatgen
data_Gd(SiAg)2
_symmetry_space_group_name_H-M   'P 1'
_cell_length_a   6.10348239
_cell_length_b   6.10348239
_cell_length_c   6.10348239
_cell_angle_alpha   140.07026303
_cell_angle_beta   140.07026303
_cell_angle_gamma   57.74662977
_symmetry_Int_Tables_number   1
_chemical_formula_structural   Gd(SiAg)2
_chemical_formula_sum   'Gd1 Si2 Ag2'
_cell_volume   92.85000639
_cell_formula_units_Z   1
loop_
 _symmetry_equiv_pos_site_id
 _symmetry_equiv_pos_as_xyz
  1  'x, y, z'
loop_
 _atom_site_type_symbol
 _atom_site_label
 _atom_site_symmetry_multiplicity
 _atom_site_fract_x
 _atom_site_fract_y
 _atom_site_fract_z
 _atom_site_occupancy
  Gd  Gd0  1  0.00000000  0.00000000  -0.00000000  1
  Si  Si0  1  0.60710240  0.60710240  0.00000000  1
  Si  Si1  1  0.39289760  0.39289760  -0.00000000  1
  Ag  Ag0  1  0.75000000  0.25000000  0.50000000  1
  Ag  Ag1  1  0.25000000  0.75000000  0.50000000  1
loop_
_geom_bond_atom_site_label_1
_geom_bond_atom_site_label_2
_geom_bond_distance
_geom_bond_site_symmetry_2
Gd0 Si0 3.161774 1_455
Gd0 Si0 3.161774 1_444
Gd0 Si0 3.161774 1_545
Gd0 Si0 3.161774 1_556
Gd0 Si1 3.161774 1_556
Gd0 Si1 3.161774 1_455
Gd0 Si1 3.161774 1_444
Gd0 Si1 3.161774 1_545
Si0 Si1 2.289745 1_555
Ag0 Si1 2.583857 1_656
Ag0 Si1 2.583857 1_555
Ag0 Si0 2.583857 1_545
Ag0 Si0 2.583857 1_556
Ag0 Ag1 2.947217 1_656
Ag0 Ag1 2.947217 1_555
Ag0 Ag1 2.947217 1_544
Ag0 Ag1 2.947217 1_645
Ag0 Gd0 3.388900 1_555
Ag0 Gd0 3.388900 1_666
Ag0 Gd0 3.388900 1_655
Ag0 Gd0 3.388900 1_656
Ag1 Si1 2.583857 1_555
Ag1 Si1 2.583857 1_566
Ag1 Si0 2.583857 1_455
Ag1 Si0 2.583857 1_556
Ag1 Gd0 3.388900 1_666
Ag1 Gd0 3.388900 1_555
Ag1 Gd0 3.388900 1_565
Ag1 Gd0 3.388900 1_566
