# generated using pymatgen
data_Na5ZrAl3Si3(SO8)3
_symmetry_space_group_name_H-M   'P 1'
_cell_length_a   8.76756286
_cell_length_b   8.80769542
_cell_length_c   22.08585330
_cell_angle_alpha   89.88622706
_cell_angle_beta   90.65810568
_cell_angle_gamma   120.20159181
_symmetry_Int_Tables_number   1
_chemical_formula_structural   Na5ZrAl3Si3(SO8)3
_chemical_formula_sum   'Na15 Zr3 Al9 Si9 S9 O72'
_cell_volume   1473.89775600
_cell_formula_units_Z   3
loop_
 _symmetry_equiv_pos_site_id
 _symmetry_equiv_pos_as_xyz
  1  'x, y, z'
loop_
 _atom_site_type_symbol
 _atom_site_label
 _atom_site_symmetry_multiplicity
 _atom_site_fract_x
 _atom_site_fract_y
 _atom_site_fract_z
 _atom_site_occupancy
  Na  Na0  1  0.64036912  0.00129101  0.25609565  1
  Na  Na1  1  0.00266114  0.62492885  0.24899326  1
  Na  Na2  1  0.62799118  0.63441631  0.74361368  1
  Na  Na3  1  0.37020456  0.00945431  0.75487047  1
  Na  Na4  1  0.66835477  0.96271436  0.58673083  1
  Na  Na5  1  0.97357555  0.67981968  0.92134810  1
  Na  Na6  1  0.68963554  0.02277863  0.90963707  1
  Na  Na7  1  0.96084339  0.30083511  0.40737029  1
  Na  Na8  1  0.70970427  0.68107839  0.42168490  1
  Na  Na9  1  0.00503450  0.97988279  0.50217285  1
  Na  Na10  1  0.01062004  0.98886802  0.00158716  1
  Na  Na11  1  0.64546986  0.32294260  0.83108091  1
  Na  Na12  1  0.65977791  0.32227584  0.33015896  1
  Na  Na13  1  0.31525030  0.64045955  0.16295563  1
  Na  Na14  1  0.32483547  0.64045187  0.66270938  1
  Zr  Zr0  1  0.66028582  0.34510294  0.98431262  1
  Zr  Zr1  1  0.67298144  0.33964762  0.48000097  1
  Zr  Zr2  1  0.34327453  0.66529807  0.81041699  1
  Al  Al0  1  0.98939782  0.99767811  0.35471684  1
  Al  Al1  1  0.00646653  0.01372682  0.85303099  1
  Al  Al2  1  0.98592829  0.99361419  0.65048481  1
  Al  Al3  1  0.00848006  0.00665704  0.14745189  1
  Al  Al4  1  0.65079000  0.33415763  0.68947114  1
  Al  Al5  1  0.69634283  0.34134122  0.18118724  1
  Al  Al6  1  0.33018729  0.68847265  0.01736893  1
  Al  Al7  1  0.34773312  0.68076370  0.51681871  1
  Al  Al8  1  0.31624885  0.65574109  0.31632178  1
  Si  Si0  1  0.00836685  0.28695234  0.24965544  1
  Si  Si1  1  0.27525516  0.27381530  0.74638898  1
  Si  Si2  1  0.72551988  0.02076799  0.74841058  1
  Si  Si3  1  0.66520919  0.63120242  0.58662010  1
  Si  Si4  1  0.98017116  0.64579692  0.08745768  1
  Si  Si5  1  0.62659085  0.67697665  0.92082490  1
  Si  Si6  1  0.32319938  0.96050390  0.91532697  1
  Si  Si7  1  0.61508729  0.94630616  0.41249967  1
  Si  Si8  1  0.06297133  0.68547186  0.41535583  1
  S  S0  1  0.29040869  0.00691906  0.24949035  1
  S  S1  1  0.70680622  0.70484203  0.24907350  1
  S  S2  1  0.98874303  0.70782639  0.74795997  1
  S  S3  1  0.96831705  0.33736753  0.58598076  1
  S  S4  1  0.36589711  0.03654577  0.58571015  1
  S  S5  1  0.66989841  0.03700696  0.08716311  1
  S  S6  1  0.37320275  0.33288199  0.09032594  1
  S  S7  1  0.05141173  0.37446252  0.92045025  1
  S  S8  1  0.32530022  0.37863756  0.41516108  1
  O  O0  1  0.20785265  0.02936014  0.30507906  1
  O  O1  1  0.81866054  0.78229306  0.30556863  1
  O  O2  1  0.96801646  0.16260965  0.31039758  1
  O  O3  1  0.19327235  0.15523271  0.80658472  1
  O  O4  1  0.96209437  0.78289023  0.80448647  1
  O  O5  1  0.83115252  0.03329443  0.81130342  1
  O  O6  1  0.79764261  0.96775339  0.68931363  1
  O  O7  1  0.16459819  0.17451305  0.68651320  1
  O  O8  1  0.01686763  0.81905394  0.69447063  1
  O  O9  1  0.79494374  0.82032790  0.19681871  1
  O  O10  1  0.02510037  0.18300834  0.19249608  1
  O  O11  1  0.17558262  0.97301669  0.19618630  1
  O  O12  1  0.87435665  0.35833725  0.63696439  1
  O  O13  1  0.48376183  0.12222859  0.63928470  1
  O  O14  1  0.64280187  0.50215737  0.64302371  1
  O  O15  1  0.87735490  0.51521370  0.14501848  1
  O  O16  1  0.64256185  0.12693576  0.14050210  1
  O  O17  1  0.49301027  0.34942277  0.14143928  1
  O  O18  1  0.44304873  0.29916782  0.03304611  1
  O  O19  1  0.85492210  0.55516541  0.02645517  1
  O  O20  1  0.69464943  0.14196396  0.03165904  1
  O  O21  1  0.45153162  0.14417440  0.53069588  1
  O  O22  1  0.69123727  0.54503624  0.52356529  1
  O  O23  1  0.85683416  0.30245637  0.52831533  1
  O  O24  1  0.51712272  0.69651860  0.97612556  1
  O  O25  1  0.15818277  0.46167448  0.97431234  1
  O  O26  1  0.28664609  0.82849673  0.97163460  1
  O  O27  1  0.53802268  0.83220864  0.47423513  1
  O  O28  1  0.30084252  0.45742523  0.47023544  1
  O  O29  1  0.17489038  0.69315561  0.47511703  1
  O  O30  1  0.12799281  0.63051791  0.35447966  1
  O  O31  1  0.49967252  0.84778599  0.35176133  1
  O  O32  1  0.35664384  0.48905998  0.36056399  1
  O  O33  1  0.11825491  0.48216893  0.86496582  1
  O  O34  1  0.35807234  0.87675252  0.85420671  1
  O  O35  1  0.51673037  0.63462500  0.85641348  1
  O  O36  1  0.03100279  0.85241260  0.40592162  1
  O  O37  1  0.81762570  0.97630351  0.40783663  1
  O  O38  1  0.16902073  0.20169245  0.40863296  1
  O  O39  1  0.03267992  0.20017719  0.91410539  1
  O  O40  1  0.14898261  0.97754347  0.90777151  1
  O  O41  1  0.81982639  0.85318492  0.91256934  1
  O  O42  1  0.98173117  0.17645925  0.58955212  1
  O  O43  1  0.19018846  0.01323491  0.59012244  1
  O  O44  1  0.84250078  0.82956682  0.59151403  1
  O  O45  1  0.99172794  0.83610962  0.09693704  1
  O  O46  1  0.82812284  0.02093957  0.09472375  1
  O  O47  1  0.19517501  0.17587096  0.09540064  1
  O  O48  1  0.69447751  0.18770894  0.73858051  1
  O  O49  1  0.48150855  0.31056505  0.74278014  1
  O  O50  1  0.83213468  0.53068282  0.74190640  1
  O  O51  1  0.68872477  0.52763041  0.24312635  1
  O  O52  1  0.82373885  0.30629388  0.24281546  1
  O  O53  1  0.46953636  0.16196301  0.24309402  1
  O  O54  1  0.66099951  0.50885718  0.92204677  1
  O  O55  1  0.86776116  0.34807199  0.92598005  1
  O  O56  1  0.51083238  0.14577939  0.92350428  1
  O  O57  1  0.64223896  0.14549291  0.41776821  1
  O  O58  1  0.48627570  0.36175697  0.41923806  1
  O  O59  1  0.85684941  0.50848470  0.42087952  1
  O  O60  1  0.36393230  0.49324865  0.08407874  1
  O  O61  1  0.16830695  0.65222949  0.07674643  1
  O  O62  1  0.50929971  0.86196080  0.08180084  1
  O  O63  1  0.35818037  0.86311304  0.57969198  1
  O  O64  1  0.48872898  0.65295295  0.57656726  1
  O  O65  1  0.14160493  0.49610407  0.57782967  1
  O  O66  1  0.31055969  0.84673030  0.25371491  1
  O  O67  1  0.53200905  0.68925162  0.25446529  1
  O  O68  1  0.17862092  0.49021381  0.25702924  1
  O  O69  1  0.30053069  0.47250387  0.74896141  1
  O  O70  1  0.14885209  0.69144035  0.75167102  1
  O  O71  1  0.52068198  0.84288501  0.75095064  1
loop_
_geom_bond_atom_site_label_1
_geom_bond_atom_site_label_2
_geom_bond_distance
_geom_bond_site_symmetry_2
Na0 O52 2.355813 1_555
Na0 O67 2.414528 1_545
Na0 O31 2.486843 1_545
Na0 O66 2.500770 1_545
Na0 O53 2.539582 1_555
Na0 O2 2.744179 1_555
Na0 O16 2.776913 1_555
Na0 O9 2.883284 1_545
Na1 O68 2.377796 1_555
Na1 O66 2.408992 1_555
Na1 O52 2.433698 1_455
Na1 O51 2.438507 1_455
Na1 O15 2.509356 1_455
Na1 O30 2.554387 1_555
Na1 O1 2.896141 1_455
Na1 O11 2.899692 1_555
Na2 O50 2.384670 1_555
Na2 O71 2.454692 1_555
Na2 O49 2.469798 1_555
Na2 O69 2.485628 1_555
Na2 O14 2.545292 1_555
Na2 O35 2.686206 1_555
Na2 O6 2.811368 1_555
Na2 O4 2.856707 1_555
Na3 O49 2.335924 1_555
Na3 O71 2.418870 1_545
Na3 O34 2.461870 1_545
Na3 O70 2.479005 1_545
Na3 O48 2.491567 1_555
Na3 O3 2.722122 1_555
Na3 O13 2.747376 1_555
Na4 O44 2.348388 1_555
Na4 O64 2.376048 1_555
Na4 O63 2.404145 1_555
Na4 O42 2.426848 1_565
Na4 O6 2.512119 1_555
Na4 O27 2.724831 1_555
Na4 O13 2.877102 1_565
Na4 O23 2.899668 1_565
Na5 O40 2.298138 1_655
Na5 O54 2.372180 1_555
Na5 O41 2.499993 1_555
Na5 O19 2.563725 1_556
Na5 O55 2.585065 1_555
Na5 O26 2.608068 1_655
Na5 O4 2.751804 1_555
Na5 O33 2.908063 1_655
Na6 O41 2.291652 1_545
Na6 O56 2.333680 1_555
Na6 O5 2.492024 1_555
Na6 O55 2.503482 1_555
Na6 O39 2.600556 1_655
Na6 O34 2.786838 1_545
Na6 O20 2.885965 1_556
Na6 O24 2.891898 1_545
Na7 O38 2.386821 1_655
Na7 O57 2.428172 1_555
Na7 O59 2.439550 1_555
Na7 O37 2.477151 1_545
Na7 O2 2.482660 1_555
Na7 O30 2.772810 1_655
Na7 O23 2.834812 1_555
Na7 O28 2.914143 1_655
Na8 O37 2.297455 1_555
Na8 O59 2.439114 1_555
Na8 O36 2.465262 1_655
Na8 O58 2.491097 1_555
Na8 O22 2.515440 1_555
Na8 O27 2.728862 1_555
Na8 O1 2.733951 1_555
Na9 O44 2.415164 1_455
Na9 O43 2.438174 1_565
Na9 O36 2.471658 1_555
Na9 O37 2.628933 1_455
Na9 O42 2.672447 1_465
Na9 O38 2.716258 1_565
Na10 O40 2.440295 1_554
Na10 O41 2.452391 1_454
Na10 O45 2.458650 1_455
Na10 O39 2.620395 1_564
Na10 O47 2.622831 1_565
Na10 O46 2.721005 1_465
Na11 O49 2.379171 1_555
Na11 O56 2.486869 1_555
Na11 O48 2.514302 1_555
Na11 O54 2.553167 1_555
Na11 O50 2.636704 1_555
Na11 O55 2.777469 1_555
Na12 O57 2.438435 1_555
Na12 O53 2.457839 1_555
Na12 O52 2.464945 1_555
Na12 O51 2.562458 1_555
Na12 O59 2.602369 1_555
Na12 O58 2.628540 1_555
Na13 O61 2.317978 1_555
Na13 O60 2.341140 1_555
Na13 O68 2.440157 1_555
Na13 O62 2.574882 1_555
Na13 O67 2.640953 1_555
Na13 O66 2.722476 1_555
Na14 O69 2.354438 1_555
Na14 O65 2.365770 1_555
Na14 O64 2.366288 1_555
Na14 O63 2.591229 1_555
Na14 O71 2.604286 1_555
Na14 O70 2.685715 1_555
Al0 O2 1.835103 1_565
Al0 O37 1.853212 1_555
Al0 O36 1.871719 1_655
Al0 O1 2.032656 1_555
Al0 O38 2.060415 1_665
Al0 O0 2.111271 1_665
Al1 O3 1.807741 1_555
Al1 O5 1.864131 1_455
Al1 O40 1.867866 1_545
Al1 O41 2.029868 1_445
Al1 O39 2.047210 1_555
Al1 O4 2.153554 1_445
Al2 O7 1.758123 1_665
Al2 O6 1.779300 1_555
Al2 O44 1.872737 1_555
Al2 O8 1.946475 1_655
Al2 O42 2.110878 1_565
Al2 O43 2.181036 1_665
Al3 O10 1.788466 1_555
Al3 O45 1.817579 1_445
Al3 O11 1.947309 1_545
Al3 O47 1.950422 1_555
Al3 O46 2.007418 1_455
Al3 O9 2.082248 1_445
Al4 O14 1.828470 1_555
Al4 O49 1.833325 1_555
Al4 O48 1.862491 1_555
Al4 O50 2.015447 1_555
Al4 O13 2.019436 1_555
Al4 O12 2.205343 1_555
Al5 O15 1.755301 1_555
Al5 O52 1.872376 1_555
Al5 O16 1.922765 1_555
Al5 O17 2.011297 1_555
Al5 O51 2.165468 1_555
Al5 O53 2.283167 1_555
Al6 O26 1.773942 1_554
Al6 O61 1.849689 1_555
Al6 O24 1.854226 1_554
Al6 O25 2.027961 1_554
Al6 O62 2.090239 1_555
Al6 O60 2.388852 1_555
Al7 O27 1.799818 1_555
Al7 O29 1.814000 1_555
Al7 O64 1.896152 1_555
Al7 O28 2.069221 1_555
Al7 O63 2.091421 1_555
Al7 O65 2.194785 1_555
Al8 O30 1.773748 1_555
Al8 O31 1.816466 1_555
Al8 O68 1.870232 1_555
Al8 O32 1.935180 1_555
Al8 O66 2.194932 1_555
Al8 O67 2.242324 1_555
O0 S0 1.495191 1_555
O1 S1 1.512009 1_555
O2 Si0 1.655161 1_655
O3 Si1 1.623622 1_555
O4 S2 1.488515 1_555
O5 Si2 1.633279 1_555
O6 Si2 1.624773 1_565
O7 Si1 1.605118 1_555
O8 S2 1.474855 1_455
O9 S1 1.479432 1_555
O10 Si0 1.611628 1_555
O11 S0 1.469822 1_565
O12 S3 1.468296 1_555
O13 S4 1.492754 1_555
O14 Si3 1.630215 1_555
O15 Si4 1.651966 1_555
O16 S5 1.507902 1_555
O17 S6 1.489440 1_555
O18 S6 1.505269 1_555
O18 Zr0 2.054238 1_554
O19 Si4 1.657304 1_555
O19 Zr0 1.998840 1_554
O20 S5 1.484642 1_555
O20 Zr0 2.216549 1_554
O21 S4 1.496318 1_555
O21 Zr1 2.160239 1_555
O22 Si3 1.659269 1_555
O22 Zr1 1.983913 1_555
O23 S3 1.530535 1_555
O23 Zr1 2.081974 1_555
O24 Si5 1.623721 1_555
O25 S7 1.461535 1_555
O26 Si6 1.621605 1_555
O27 Si7 1.630364 1_555
O28 S8 1.471777 1_555
O29 Si8 1.616574 1_555
O30 Si8 1.632406 1_555
O31 Si7 1.632929 1_555
O32 S8 1.486430 1_555
O33 S7 1.482424 1_555
O33 Zr2 2.188752 1_555
O34 Si6 1.643223 1_555
O34 Zr2 2.044989 1_555
O35 Si5 1.643107 1_555
O35 Zr2 1.947959 1_555
O36 Si8 1.641955 1_555
O37 Si7 1.663079 1_555
O38 S8 1.474790 1_555
O39 S7 1.466179 1_555
O40 Si6 1.614984 1_555
O41 Si5 1.634877 1_555
O42 S3 1.481767 1_555
O43 S4 1.452602 1_555
O44 Si3 1.656789 1_555
O45 Si4 1.641289 1_555
O46 S5 1.471207 1_555
O47 S6 1.480888 1_555
O48 Si2 1.638041 1_555
O49 Si1 1.671985 1_555
O50 S2 1.476068 1_555
O51 S1 1.493303 1_555
O52 Si0 1.715771 1_655
O53 S0 1.482528 1_555
O54 Si5 1.653309 1_555
O54 Zr0 1.988633 1_555
O55 S7 1.513091 1_655
O55 Zr0 2.230529 1_555
O56 Si6 1.641745 1_545
O56 Zr0 2.063309 1_555
O57 Si7 1.651678 1_545
O57 Zr1 2.103137 1_555
O58 S8 1.493420 1_555
O58 Zr1 2.188084 1_555
O59 Si8 1.697305 1_655
O59 Zr1 2.035660 1_555
O60 S6 1.461219 1_555
O61 Si4 1.641611 1_455
O62 S5 1.478668 1_565
O63 S4 1.500751 1_565
O64 Si3 1.664422 1_555
O65 S3 1.470921 1_455
O66 S0 1.510108 1_565
O67 S1 1.474495 1_555
O68 Si0 1.663345 1_555
O69 Si1 1.650677 1_555
O69 Zr2 2.055087 1_555
O70 S2 1.482986 1_455
O70 Zr2 2.232710 1_555
O71 Si2 1.689456 1_565
O71 Zr2 2.044960 1_555
