# generated using pymatgen
data_Na10Si9Ge8(SO16)3
_symmetry_space_group_name_H-M   'P 1'
_cell_length_a   17.31444209
_cell_length_b   8.66451526
_cell_length_c   21.62692011
_cell_angle_alpha   90.27589978
_cell_angle_beta   90.11950943
_cell_angle_gamma   119.91910256
_symmetry_Int_Tables_number   1
_chemical_formula_structural   Na10Si9Ge8(SO16)3
_chemical_formula_sum   'Na30 Si27 Ge24 S9 O144'
_cell_volume   2812.03469007
_cell_formula_units_Z   3
loop_
 _symmetry_equiv_pos_site_id
 _symmetry_equiv_pos_as_xyz
  1  'x, y, z'
loop_
 _atom_site_type_symbol
 _atom_site_label
 _atom_site_symmetry_multiplicity
 _atom_site_fract_x
 _atom_site_fract_y
 _atom_site_fract_z
 _atom_site_occupancy
  Na  Na0  1  0.31880974  0.00168520  0.24894589  1
  Na  Na1  1  0.81884086  0.00229139  0.24947208  1
  Na  Na2  1  0.18375758  0.99193774  0.74663958  1
  Na  Na3  1  0.68278491  0.99829051  0.74596305  1
  Na  Na4  1  0.01734766  0.69905113  0.57944156  1
  Na  Na5  1  0.51727451  0.69988911  0.57912433  1
  Na  Na6  1  0.01743233  0.33266364  0.07923369  1
  Na  Na7  1  0.51627794  0.33177457  0.07973906  1
  Na  Na8  1  0.48283592  0.66437053  0.91555516  1
  Na  Na9  1  0.34937369  0.03277006  0.91563382  1
  Na  Na10  1  0.85204043  0.03898235  0.91256026  1
  Na  Na11  1  0.16398240  0.30270929  0.91942196  1
  Na  Na12  1  0.48316426  0.30097972  0.41546758  1
  Na  Na13  1  0.98323251  0.30121894  0.41551378  1
  Na  Na14  1  0.16601738  0.03378503  0.41789461  1
  Na  Na15  1  0.66604882  0.03398124  0.41783681  1
  Na  Na16  1  0.35066797  0.66714209  0.41606691  1
  Na  Na17  1  0.85075581  0.66703599  0.41602527  1
  Na  Na18  1  0.00028034  0.00641440  0.50258033  1
  Na  Na19  1  0.50014763  0.00600704  0.50238823  1
  Na  Na20  1  0.00379583  0.98781077  0.00221337  1
  Na  Na21  1  0.50618942  0.00624956  0.00025460  1
  Na  Na22  1  0.34118552  0.34091139  0.83094191  1
  Na  Na23  1  0.84336887  0.35304972  0.83282319  1
  Na  Na24  1  0.33767572  0.35290419  0.33043849  1
  Na  Na25  1  0.83758889  0.35277254  0.33025911  1
  Na  Na26  1  0.17094496  0.66005516  0.16614459  1
  Na  Na27  1  0.67114824  0.65828521  0.16743285  1
  Na  Na28  1  0.17587024  0.66764325  0.66711319  1
  Na  Na29  1  0.67581893  0.66449368  0.66574721  1
  Si  Si0  1  0.35785776  0.71136969  0.24881779  1
  Si  Si1  1  0.85770619  0.71092272  0.24914814  1
  Si  Si2  1  0.00236567  0.29957149  0.25036068  1
  Si  Si3  1  0.50240368  0.29961114  0.25047770  1
  Si  Si4  1  0.99757881  0.70178107  0.75153874  1
  Si  Si5  1  0.49529953  0.70365559  0.75029309  1
  Si  Si6  1  0.35814697  0.99843844  0.74970283  1
  Si  Si7  1  0.85738206  0.99700183  0.75003930  1
  Si  Si8  1  0.18884555  0.04825435  0.58460030  1
  Si  Si9  1  0.68935846  0.04922232  0.58487074  1
  Si  Si10  1  0.32714652  0.61057370  0.58372827  1
  Si  Si11  1  0.82705498  0.61032531  0.58367368  1
  Si  Si12  1  0.32688466  0.04132623  0.08372132  1
  Si  Si13  1  0.82828577  0.03772959  0.08470732  1
  Si  Si14  1  0.18969034  0.33024299  0.08413490  1
  Si  Si15  1  0.69116746  0.33081737  0.08364522  1
  Si  Si16  1  0.30891465  0.66299095  0.91548552  1
  Si  Si17  1  0.02267582  0.38909822  0.91721124  1
  Si  Si18  1  0.52782614  0.38226468  0.91671883  1
  Si  Si19  1  0.15968492  0.94195659  0.91731952  1
  Si  Si20  1  0.66625271  0.95592116  0.91722805  1
  Si  Si21  1  0.30889268  0.95423270  0.41506147  1
  Si  Si22  1  0.80894229  0.95443301  0.41507987  1
  Si  Si23  1  0.16501959  0.38196505  0.41759902  1
  Si  Si24  1  0.66506919  0.38192221  0.41758738  1
  Si  Si25  1  0.02594409  0.66636416  0.41697125  1
  Si  Si26  1  0.52588434  0.66633574  0.41697755  1
  Ge  Ge0  1  0.99353528  0.99568979  0.35460911  1
  Ge  Ge1  1  0.49363968  0.99545153  0.35447869  1
  Ge  Ge2  1  0.99810273  0.99758333  0.85300103  1
  Ge  Ge3  1  0.49499549  0.99427991  0.85670657  1
  Ge  Ge4  1  0.99346676  0.96747345  0.64632284  1
  Ge  Ge5  1  0.49365821  0.97225083  0.64532659  1
  Ge  Ge6  1  0.99609306  0.01808838  0.14628743  1
  Ge  Ge7  1  0.49556339  0.01968474  0.14541636  1
  Ge  Ge8  1  0.33419666  0.33085729  0.68733796  1
  Ge  Ge9  1  0.83407202  0.33230509  0.68815653  1
  Ge  Ge10  1  0.33306542  0.33939583  0.18734379  1
  Ge  Ge11  1  0.83361541  0.34036863  0.18698566  1
  Ge  Ge12  1  0.32552784  0.31538016  0.97611376  1
  Ge  Ge13  1  0.82908937  0.31208686  0.98070718  1
  Ge  Ge14  1  0.32751132  0.33488116  0.47785192  1
  Ge  Ge15  1  0.82781568  0.33504669  0.47791868  1
  Ge  Ge16  1  0.17490614  0.67113074  0.01923357  1
  Ge  Ge17  1  0.66843057  0.66551808  0.02124346  1
  Ge  Ge18  1  0.17540262  0.67987439  0.51959069  1
  Ge  Ge19  1  0.67542188  0.68009311  0.51937115  1
  Ge  Ge20  1  0.16846478  0.65188912  0.31380298  1
  Ge  Ge21  1  0.66848690  0.65221605  0.31393084  1
  Ge  Ge22  1  0.16671847  0.67362827  0.81470436  1
  Ge  Ge23  1  0.66314936  0.68159327  0.81081314  1
  S  S0  1  0.14089350  -0.00032814  0.24948753  1
  S  S1  1  0.64093106  0.00008770  0.24930716  1
  S  S2  1  0.14200872  0.28958964  0.74885230  1
  S  S3  1  0.64216984  0.29069750  0.75091232  1
  S  S4  1  0.47747503  0.32720418  0.58361654  1
  S  S5  1  0.97712136  0.32628227  0.58392355  1
  S  S6  1  0.47795725  0.62847022  0.08379736  1
  S  S7  1  0.97564434  0.62386285  0.08367276  1
  S  S8  1  0.80978208  0.66127117  0.91631692  1
  O  O0  1  0.10250947  0.02559631  0.30768150  1
  O  O1  1  0.60247435  0.02550425  0.30764791  1
  O  O2  1  0.41555645  0.79172462  0.31320183  1
  O  O3  1  0.91559058  0.79211771  0.31337035  1
  O  O4  1  0.47958886  0.16507545  0.30995843  1
  O  O5  1  0.97936911  0.16524872  0.31000197  1
  O  O6  1  0.10478148  0.18314673  0.80729117  1
  O  O7  1  0.60269861  0.17556887  0.80583096  1
  O  O8  1  0.48362472  0.79826626  0.81179040  1
  O  O9  1  0.98171975  0.80378225  0.80948149  1
  O  O10  1  0.41740156  0.03947274  0.81291132  1
  O  O11  1  0.91482202  0.03365676  0.81417856  1
  O  O12  1  0.40701032  0.97322852  0.68928662  1
  O  O13  1  0.90645129  0.97021585  0.69043267  1
  O  O14  1  0.08747619  0.20040718  0.69421921  1
  O  O15  1  0.59006543  0.21402698  0.69391945  1
  O  O16  1  0.02441928  0.82826411  0.68914782  1
  O  O17  1  0.52354232  0.83306143  0.68928504  1
  O  O18  1  0.40569415  0.84960724  0.19132499  1
  O  O19  1  0.90546729  0.84894544  0.19175045  1
  O  O20  1  0.02080406  0.21863054  0.18730398  1
  O  O21  1  0.52120334  0.21989930  0.18709974  1
  O  O22  1  0.08652499  0.97806223  0.19425230  1
  O  O23  1  0.58645376  0.97872958  0.19412690  1
  O  O24  1  0.43591527  0.36083170  0.63850445  1
  O  O25  1  0.93528403  0.36027966  0.63869695  1
  O  O26  1  0.24919572  0.13200126  0.64667046  1
  O  O27  1  0.74942399  0.13247368  0.64717698  1
  O  O28  1  0.31704581  0.48966620  0.64313403  1
  O  O29  1  0.81672413  0.48988691  0.64326231  1
  O  O30  1  0.43802807  0.51021097  0.13814521  1
  O  O31  1  0.93706503  0.50732540  0.13923736  1
  O  O32  1  0.31751761  0.13678652  0.14653629  1
  O  O33  1  0.81512742  0.13168828  0.14625252  1
  O  O34  1  0.25447352  0.37192179  0.14338991  1
  O  O35  1  0.75377579  0.37200165  0.14414238  1
  O  O36  1  0.23129407  0.29968203  0.02026318  1
  O  O37  1  0.73716874  0.30282781  0.02199550  1
  O  O38  1  0.42663106  0.55230842  0.02599833  1
  O  O39  1  0.92037730  0.54433515  0.02745938  1
  O  O40  1  0.35430578  0.17497779  0.02323553  1
  O  O41  1  0.85668090  0.16759992  0.02372595  1
  O  O42  1  0.23223485  0.16429231  0.52195604  1
  O  O43  1  0.73253028  0.16470836  0.52215330  1
  O  O44  1  0.35476082  0.53608799  0.52189765  1
  O  O45  1  0.85471467  0.53648571  0.52178569  1
  O  O46  1  0.42485883  0.29901643  0.52584423  1
  O  O47  1  0.92463879  0.29860217  0.52592447  1
  O  O48  1  0.27256948  0.71842815  0.97598189  1
  O  O49  1  0.77202932  0.70069948  0.97242885  1
  O  O50  1  0.08644787  0.46286734  0.97898507  1
  O  O51  1  0.58400045  0.46591693  0.98081081  1
  O  O52  1  0.14277399  0.81843997  0.97674092  1
  O  O53  1  0.64562587  0.81845964  0.97436307  1
  O  O54  1  0.27162697  0.82251248  0.47409105  1
  O  O55  1  0.77165211  0.82269573  0.47408372  1
  O  O56  1  0.13852692  0.46458303  0.47595088  1
  O  O57  1  0.63851445  0.46466505  0.47590327  1
  O  O58  1  0.08708287  0.71242348  0.47989644  1
  O  O59  1  0.58706753  0.71262122  0.47993407  1
  O  O60  1  0.06934974  0.61820432  0.35878933  1
  O  O61  1  0.56934170  0.61818321  0.35885042  1
  O  O62  1  0.24485967  0.87665770  0.35372059  1
  O  O63  1  0.74487308  0.87674652  0.35376767  1
  O  O64  1  0.19704180  0.51256885  0.35791023  1
  O  O65  1  0.69702314  0.51266624  0.35793300  1
  O  O66  1  0.06699104  0.50593802  0.85624052  1
  O  O67  1  0.57310877  0.51977066  0.85893940  1
  O  O68  1  0.18870160  0.87682098  0.85496805  1
  O  O69  1  0.69379233  0.88345347  0.85484223  1
  O  O70  1  0.24180937  0.61143143  0.85650078  1
  O  O71  1  0.75623272  0.63360030  0.86024198  1
  O  O72  1  0.01525229  0.84424047  0.41036439  1
  O  O73  1  0.51524474  0.84423678  0.41037911  1
  O  O74  1  0.40852320  0.97645643  0.41134546  1
  O  O75  1  0.90850466  0.97652736  0.41144759  1
  O  O76  1  0.07885088  0.18145583  0.40804921  1
  O  O77  1  0.57886280  0.18142744  0.40807779  1
  O  O78  1  0.00888422  0.18274503  0.91096875  1
  O  O79  1  0.51461972  0.18344350  0.91087355  1
  O  O80  1  0.07637076  0.98188595  0.90943289  1
  O  O81  1  0.57688224  0.96976766  0.90942404  1
  O  O82  1  0.40769725  0.84004359  0.91146018  1
  O  O83  1  0.89914473  0.82791625  0.91362626  1
  O  O84  1  0.48736870  0.16954733  0.58928766  1
  O  O85  1  0.98686844  0.16905070  0.58988538  1
  O  O86  1  0.08836208  0.02909858  0.59048652  1
  O  O87  1  0.58894247  0.03097036  0.59058348  1
  O  O88  1  0.41914556  0.80938544  0.58724358  1
  O  O89  1  0.91877677  0.80914269  0.58757750  1
  O  O90  1  0.48816017  0.80570853  0.09107647  1
  O  O91  1  0.98481939  0.80050256  0.09073601  1
  O  O92  1  0.41924422  0.02662060  0.08674408  1
  O  O93  1  0.91961931  0.02237390  0.08778309  1
  O  O94  1  0.08981877  0.14716991  0.09027148  1
  O  O95  1  0.59059061  0.14990446  0.08950191  1
  O  O96  1  0.34193375  0.17175890  0.74366049  1
  O  O97  1  0.84042914  0.16839111  0.74453989  1
  O  O98  1  0.23111433  0.30208537  0.74698067  1
  O  O99  1  0.73210014  0.30493557  0.74798127  1
  O  O100  1  0.40725005  0.50904836  0.74295185  1
  O  O101  1  0.90796528  0.50831681  0.74351249  1
  O  O102  1  0.34718956  0.51436458  0.24300490  1
  O  O103  1  0.84699567  0.51415953  0.24336486  1
  O  O104  1  0.40833217  0.30391635  0.24375919  1
  O  O105  1  0.90813818  0.30337990  0.24324955  1
  O  O106  1  0.23163004  0.16128209  0.24783002  1
  O  O107  1  0.73162298  0.16134448  0.24778533  1
  O  O108  1  0.32240570  0.48887388  0.92309950  1
  O  O109  1  0.82121853  0.50591200  0.92271857  1
  O  O110  1  0.42710186  0.36166241  0.92228480  1
  O  O111  1  0.92284417  0.36734895  0.92503166  1
  O  O112  1  0.25054554  0.14280070  0.92102551  1
  O  O113  1  0.75663807  0.15085357  0.92198497  1
  O  O114  1  0.32217206  0.15409285  0.42389199  1
  O  O115  1  0.82209065  0.15407513  0.42388694  1
  O  O116  1  0.25315083  0.35836820  0.42246694  1
  O  O117  1  0.75316333  0.35829372  0.42255524  1
  O  O118  1  0.42607068  0.48912195  0.42343848  1
  O  O119  1  0.92607049  0.48909542  0.42338793  1
  O  O120  1  0.17303104  0.50193623  0.07862035  1
  O  O121  1  0.67444073  0.50293177  0.07761621  1
  O  O122  1  0.06349458  0.63560356  0.07980895  1
  O  O123  1  0.56707911  0.64051491  0.08111921  1
  O  O124  1  0.23720078  0.84783590  0.07906625  1
  O  O125  1  0.73983953  0.84328369  0.07617693  1
  O  O126  1  0.17419176  0.84449856  0.57917377  1
  O  O127  1  0.67415136  0.84495743  0.57939433  1
  O  O128  1  0.23784183  0.62641720  0.57788862  1
  O  O129  1  0.73794553  0.62683417  0.57764396  1
  O  O130  1  0.06445577  0.49184503  0.58126037  1
  O  O131  1  0.56475319  0.49237298  0.58110733  1
  O  O132  1  0.15132360  0.84110801  0.25122214  1
  O  O133  1  0.65121099  0.84119495  0.25106205  1
  O  O134  1  0.26144618  0.70671965  0.25459642  1
  O  O135  1  0.76139917  0.70712915  0.25475135  1
  O  O136  1  0.09087667  0.49473062  0.25542560  1
  O  O137  1  0.59087246  0.49481432  0.25554728  1
  O  O138  1  0.15053265  0.46616147  0.75210821  1
  O  O139  1  0.65363044  0.47051435  0.75756662  1
  O  O140  1  0.08889069  0.68901697  0.75646823  1
  O  O141  1  0.58753646  0.69058784  0.75354319  1
  O  O142  1  0.25869933  0.81932460  0.75481302  1
  O  O143  1  0.75776396  0.81448626  0.75553190  1
loop_
_geom_bond_atom_site_label_1
_geom_bond_atom_site_label_2
_geom_bond_distance
_geom_bond_site_symmetry_2
Na0 O134 2.237077 1_545
Na0 O104 2.286293 1_555
Na0 O106 2.504734 1_555
Na0 O132 2.514792 1_545
Na0 O32 2.515357 1_555
Na0 O62 2.568969 1_545
Na0 O18 2.742573 1_545
Na0 O4 2.744115 1_555
Na1 O135 2.238001 1_545
Na1 O105 2.279252 1_555
Na1 O107 2.501465 1_555
Na1 O133 2.516557 1_545
Na1 O33 2.517898 1_555
Na1 O63 2.560692 1_545
Na1 O5 2.735842 1_555
Na1 O19 2.748308 1_545
Na2 O140 2.310466 1_555
Na2 O96 2.382728 1_565
Na2 O98 2.386540 1_565
Na2 O142 2.426788 1_555
Na2 O26 2.468746 1_565
Na2 O68 2.568619 1_555
Na2 O16 2.689648 1_555
Na2 O6 2.929449 1_565
Na3 O141 2.339647 1_555
Na3 O99 2.350721 1_565
Na3 O97 2.368795 1_565
Na3 O27 2.437909 1_565
Na3 O143 2.515751 1_555
Na3 O69 2.604024 1_555
Na3 O17 2.680594 1_555
Na3 O7 2.841065 1_565
Na4 O130 2.313312 1_555
Na4 O89 2.340374 1_455
Na4 O126 2.355676 1_555
Na4 O58 2.445358 1_555
Na4 O86 2.496274 1_565
Na4 O16 2.595025 1_555
Na4 O45 2.734943 1_455
Na4 O25 2.856647 1_455
Na5 O131 2.320692 1_555
Na5 O88 2.329234 1_555
Na5 O127 2.356255 1_555
Na5 O59 2.440158 1_555
Na5 O87 2.504260 1_565
Na5 O17 2.620446 1_555
Na5 O44 2.729188 1_555
Na5 O24 2.860014 1_555
Na6 O122 2.331803 1_555
Na6 O120 2.338405 1_555
Na6 O93 2.365272 1_455
Na6 O50 2.467945 1_554
Na6 O94 2.494563 1_555
Na6 O20 2.553718 1_555
Na6 O41 2.689241 1_455
Na6 O31 2.828412 1_455
Na7 O92 2.325953 1_555
Na7 O123 2.362742 1_555
Na7 O121 2.377120 1_555
Na7 O51 2.445043 1_554
Na7 O95 2.491589 1_555
Na7 O21 2.537981 1_555
Na7 O40 2.715319 1_555
Na7 O30 2.810583 1_555
Na8 O110 2.304565 1_555
Na8 O81 2.318851 1_555
Na8 O108 2.417756 1_555
Na8 O82 2.448160 1_555
Na8 O8 2.528151 1_555
Na8 O38 2.585420 1_556
Na8 O67 2.731062 1_555
Na8 O53 2.749440 1_555
Na9 O112 2.340441 1_555
Na9 O82 2.344684 1_545
Na9 O110 2.474293 1_555
Na9 O79 2.485458 1_555
Na9 O10 2.504004 1_555
Na9 O40 2.609113 1_556
Na9 O48 2.705243 1_545
Na9 O68 2.739394 1_545
Na10 O113 2.303564 1_555
Na10 O83 2.344861 1_545
Na10 O78 2.356686 1_655
Na10 O11 2.401994 1_555
Na10 O111 2.486420 1_555
Na10 O41 2.629158 1_556
Na10 O69 2.677281 1_545
Na10 O49 2.860097 1_545
Na11 O78 2.353092 1_555
Na11 O108 2.390903 1_555
Na11 O80 2.421024 1_545
Na11 O36 2.477034 1_556
Na11 O112 2.497812 1_555
Na11 O6 2.628854 1_555
Na11 O50 2.689917 1_555
Na11 O70 2.696258 1_555
Na12 O118 2.295628 1_555
Na12 O77 2.357073 1_555
Na12 O114 2.426613 1_555
Na12 O74 2.440626 1_545
Na12 O4 2.549126 1_555
Na12 O46 2.590565 1_555
Na12 O57 2.667737 1_555
Na12 O61 2.688604 1_555
Na13 O119 2.294279 1_555
Na13 O76 2.357345 1_655
Na13 O115 2.428717 1_555
Na13 O75 2.441817 1_545
Na13 O5 2.548399 1_555
Na13 O47 2.592149 1_555
Na13 O56 2.666962 1_655
Na13 O60 2.688216 1_655
Na14 O72 2.292814 1_545
Na14 O114 2.366292 1_555
Na14 O76 2.426494 1_555
Na14 O116 2.441182 1_555
Na14 O42 2.515847 1_555
Na14 O0 2.608674 1_555
Na14 O62 2.736223 1_545
Na14 O58 2.768833 1_545
Na15 O73 2.293496 1_545
Na15 O115 2.364787 1_555
Na15 O77 2.424997 1_555
Na15 O117 2.439298 1_555
Na15 O43 2.522230 1_555
Na15 O1 2.608197 1_555
Na15 O63 2.735535 1_545
Na15 O59 2.769830 1_545
Na16 O74 2.349796 1_555
Na16 O116 2.350748 1_555
Na16 O118 2.473744 1_555
Na16 O73 2.476107 1_555
Na16 O2 2.490044 1_555
Na16 O44 2.576359 1_555
Na16 O64 2.620508 1_555
Na16 O54 2.662459 1_555
Na17 O117 2.350918 1_555
Na17 O75 2.351330 1_555
Na17 O119 2.471841 1_555
Na17 O72 2.474949 1_655
Na17 O3 2.486676 1_555
Na17 O45 2.572437 1_555
Na17 O65 2.621244 1_555
Na17 O55 2.665545 1_555
Na18 O86 2.379945 1_555
Na18 O85 2.430510 1_455
Na18 O89 2.434544 1_445
Na18 O75 2.459305 1_445
Na18 O76 2.512732 1_555
Na18 O72 2.521434 1_545
Na19 O87 2.387613 1_555
Na19 O84 2.424398 1_555
Na19 O88 2.427866 1_545
Na19 O74 2.456844 1_545
Na19 O77 2.510549 1_555
Na19 O73 2.516622 1_545
Na20 O94 2.379725 1_565
Na20 O80 2.383655 1_554
Na20 O91 2.430573 1_455
Na20 O93 2.465761 1_465
Na20 O83 2.515736 1_454
Na20 O78 2.576620 1_564
Na21 O95 2.358156 1_555
Na21 O81 2.418043 1_544
Na21 O79 2.433370 1_554
Na21 O92 2.463698 1_555
Na21 O82 2.485891 1_544
Na21 O90 2.543438 1_545
Na22 O100 2.329260 1_555
Na22 O96 2.388255 1_555
Na22 O110 2.421824 1_555
Na22 O108 2.472982 1_555
Na22 O98 2.526391 1_555
Na22 O112 2.561777 1_555
Na23 O101 2.307511 1_555
Na23 O111 2.387843 1_555
Na23 O97 2.469183 1_555
Na23 O109 2.483168 1_555
Na23 O99 2.535519 1_555
Na23 O113 2.542215 1_555
Na24 O102 2.314462 1_555
Na24 O104 2.389742 1_555
Na24 O118 2.437854 1_555
Na24 O116 2.487107 1_555
Na24 O106 2.497293 1_555
Na24 O114 2.588209 1_555
Na25 O103 2.304967 1_555
Na25 O105 2.395739 1_555
Na25 O119 2.440872 1_555
Na25 O117 2.490872 1_555
Na25 O107 2.494172 1_555
Na25 O115 2.590580 1_555
Na26 O120 2.342208 1_555
Na26 O134 2.371976 1_555
Na26 O124 2.384621 1_555
Na26 O136 2.399777 1_555
Na26 O132 2.543281 1_555
Na26 O122 2.565342 1_555
Na27 O135 2.346789 1_555
Na27 O121 2.374890 1_555
Na27 O137 2.375443 1_555
Na27 O125 2.453046 1_555
Na27 O133 2.534317 1_555
Na27 O123 2.541957 1_555
Na28 O128 2.320955 1_555
Na28 O142 2.337911 1_555
Na28 O138 2.426780 1_555
Na28 O126 2.457299 1_555
Na28 O140 2.514699 1_555
Na28 O130 2.552564 1_555
Na29 O129 2.290597 1_555
Na29 O143 2.365865 1_555
Na29 O127 2.450804 1_555
Na29 O139 2.511365 1_555
Na29 O141 2.519052 1_555
Na29 O131 2.524093 1_555
Ge0 O3 1.825693 1_555
Ge0 O75 1.863280 1_555
Ge0 O5 1.876528 1_565
Ge0 O76 1.926577 1_665
Ge0 O72 1.955225 1_655
Ge0 O0 2.044524 1_665
Ge1 O2 1.827504 1_555
Ge1 O74 1.865234 1_555
Ge1 O4 1.874997 1_565
Ge1 O77 1.928884 1_565
Ge1 O73 1.954591 1_555
Ge1 O1 2.040981 1_565
Ge2 O9 1.815077 1_555
Ge2 O11 1.824543 1_565
Ge2 O80 1.876975 1_655
Ge2 O78 1.965022 1_665
Ge2 O6 2.008598 1_665
Ge2 O83 2.081160 1_555
Ge3 O10 1.838061 1_565
Ge3 O82 1.865612 1_555
Ge3 O8 1.875253 1_555
Ge3 O79 1.896956 1_565
Ge3 O81 1.910805 1_555
Ge3 O7 2.063656 1_565
Ge4 O13 1.794996 1_555
Ge4 O16 1.803723 1_655
Ge4 O89 1.837149 1_555
Ge4 O86 1.892693 1_665
Ge4 O14 2.119324 1_665
Ge4 O85 2.184569 1_565
Ge5 O12 1.781368 1_555
Ge5 O17 1.804848 1_555
Ge5 O88 1.842222 1_555
Ge5 O87 1.886525 1_565
Ge5 O84 2.146650 1_565
Ge5 O15 2.182306 1_565
Ge6 O20 1.797538 1_655
Ge6 O19 1.817425 1_545
Ge6 O93 1.843376 1_555
Ge6 O94 1.887512 1_655
Ge6 O22 2.046064 1_645
Ge6 O91 2.155424 1_545
Ge7 O21 1.798382 1_555
Ge7 O18 1.819820 1_545
Ge7 O92 1.852792 1_555
Ge7 O95 1.900541 1_555
Ge7 O23 2.065440 1_545
Ge7 O90 2.139199 1_545
Ge8 O28 1.820602 1_555
Ge8 O26 1.832670 1_555
Ge8 O100 1.859554 1_555
Ge8 O96 1.897807 1_555
Ge8 O24 1.959280 1_555
Ge8 O98 2.116687 1_555
Ge9 O29 1.821486 1_555
Ge9 O27 1.838419 1_555
Ge9 O101 1.850828 1_555
Ge9 O97 1.920463 1_555
Ge9 O25 1.964821 1_555
Ge9 O99 2.107683 1_555
Ge10 O34 1.792900 1_555
Ge10 O102 1.848935 1_555
Ge10 O32 1.856293 1_555
Ge10 O104 1.917832 1_555
Ge10 O30 1.991356 1_555
Ge10 O106 2.121953 1_555
Ge11 O35 1.794348 1_555
Ge11 O103 1.854993 1_555
Ge11 O33 1.885177 1_555
Ge11 O105 1.912591 1_555
Ge11 O31 1.950550 1_555
Ge11 O107 2.133168 1_555
Ge12 O36 1.838118 1_556
Ge12 O112 1.838670 1_555
Ge12 O40 1.838819 1_556
Ge12 O108 1.916924 1_555
Ge12 O110 1.979542 1_555
Ge12 O38 2.197394 1_556
Ge13 O37 1.793340 1_556
Ge13 O41 1.807500 1_556
Ge13 O113 1.834723 1_555
Ge13 O111 1.884828 1_555
Ge13 O39 2.090671 1_556
Ge13 O109 2.158620 1_555
Ge14 O44 1.825079 1_555
Ge14 O116 1.841500 1_555
Ge14 O42 1.844902 1_555
Ge14 O114 1.913540 1_555
Ge14 O118 1.957425 1_555
Ge14 O46 2.129114 1_555
Ge15 O45 1.826086 1_555
Ge15 O117 1.844045 1_555
Ge15 O43 1.845681 1_555
Ge15 O115 1.913335 1_555
Ge15 O119 1.955744 1_555
Ge15 O47 2.124154 1_555
Ge16 O48 1.794814 1_554
Ge16 O52 1.871014 1_554
Ge16 O124 1.873418 1_555
Ge16 O50 1.892621 1_554
Ge16 O120 1.941795 1_555
Ge16 O122 2.225812 1_555
Ge17 O51 1.830501 1_554
Ge17 O125 1.840938 1_555
Ge17 O53 1.863639 1_554
Ge17 O121 1.908920 1_555
Ge17 O49 1.972447 1_554
Ge17 O123 2.106227 1_555
Ge18 O54 1.798893 1_555
Ge18 O128 1.863438 1_555
Ge18 O56 1.889585 1_555
Ge18 O58 1.892628 1_555
Ge18 O126 1.925553 1_555
Ge18 O130 2.243407 1_555
Ge19 O55 1.796352 1_555
Ge19 O129 1.863169 1_555
Ge19 O57 1.888633 1_555
Ge19 O59 1.890545 1_555
Ge19 O127 1.933836 1_555
Ge19 O131 2.241078 1_555
Ge20 O64 1.793571 1_555
Ge20 O136 1.845114 1_555
Ge20 O60 1.867318 1_555
Ge20 O62 1.922761 1_555
Ge20 O134 1.925773 1_555
Ge20 O132 2.261167 1_555
Ge21 O65 1.793545 1_555
Ge21 O137 1.846152 1_555
Ge21 O61 1.866100 1_555
Ge21 O63 1.920584 1_555
Ge21 O135 1.924408 1_555
Ge21 O133 2.264419 1_555
Ge22 O68 1.821566 1_555
Ge22 O66 1.848222 1_555
Ge22 O70 1.869933 1_555
Ge22 O140 1.895703 1_555
Ge22 O142 1.956144 1_555
Ge22 O138 2.148258 1_555
Ge23 O69 1.817536 1_555
Ge23 O67 1.822086 1_555
Ge23 O141 1.830321 1_555
Ge23 O143 1.891731 1_555
Ge23 O139 2.091972 1_555
Ge23 O71 2.139825 1_555
O0 S0 1.491910 1_555
O1 S1 1.493631 1_555
O2 Si0 1.647013 1_555
O3 Si1 1.646193 1_555
O4 Si3 1.651323 1_555
O5 Si2 1.652612 1_655
O6 S2 1.511620 1_555
O7 S3 1.485782 1_555
O8 Si5 1.624093 1_555
O9 Si4 1.630847 1_555
O10 Si6 1.635022 1_545
O11 Si7 1.639827 1_545
O12 Si6 1.630018 1_555
O13 Si7 1.623540 1_555
O14 S2 1.464035 1_555
O15 S3 1.471082 1_555
O16 Si4 1.657249 1_455
O17 Si5 1.645342 1_555
O18 Si0 1.641852 1_555
O19 Si1 1.639204 1_555
O20 Si2 1.633846 1_555
O21 Si3 1.636679 1_555
O22 S0 1.471577 1_565
O23 S1 1.472127 1_565
O24 S4 1.490363 1_555
O25 S5 1.492590 1_555
O26 Si8 1.627515 1_555
O27 Si9 1.629141 1_555
O28 Si10 1.615492 1_555
O29 Si11 1.615387 1_555
O30 S6 1.489203 1_555
O31 S7 1.500677 1_555
O32 Si12 1.637025 1_555
O33 Si13 1.631618 1_555
O34 Si14 1.617500 1_555
O35 Si15 1.618019 1_555
O36 Si14 1.639526 1_555
O37 Si15 1.632446 1_555
O38 S6 1.479926 1_555
O39 S7 1.482497 1_555
O40 Si12 1.657208 1_555
O41 Si13 1.646934 1_555
O42 Si8 1.635427 1_555
O43 Si9 1.634306 1_555
O44 Si10 1.653910 1_555
O45 Si11 1.652331 1_555
O46 S4 1.490321 1_555
O47 S5 1.493848 1_555
O48 Si16 1.624018 1_555
O49 S8 1.496236 1_555
O50 Si17 1.641394 1_555
O51 Si18 1.635272 1_555
O52 Si19 1.607729 1_555
O53 Si20 1.632375 1_555
O54 Si21 1.622197 1_555
O55 Si22 1.621853 1_555
O56 Si23 1.623789 1_555
O57 Si24 1.624353 1_555
O58 Si25 1.642920 1_555
O59 Si26 1.643720 1_555
O60 Si25 1.622954 1_555
O61 Si26 1.622536 1_555
O62 Si21 1.637922 1_555
O63 Si22 1.637783 1_555
O64 Si23 1.626506 1_555
O65 Si24 1.626563 1_555
O66 Si17 1.610758 1_555
O67 Si18 1.637765 1_555
O68 Si19 1.633292 1_555
O69 Si20 1.653843 1_555
O70 Si16 1.627085 1_555
O71 S8 1.469220 1_555
O72 Si25 1.648225 1_555
O73 Si26 1.647899 1_555
O74 Si21 1.639723 1_555
O75 Si22 1.638915 1_555
O76 Si23 1.642091 1_555
O77 Si24 1.642161 1_555
O78 Si17 1.686312 1_555
O79 Si18 1.625041 1_555
O80 Si19 1.651392 1_555
O81 Si20 1.619143 1_555
O82 Si16 1.634262 1_555
O83 S8 1.501604 1_555
O84 S4 1.464703 1_555
O85 S5 1.460143 1_555
O86 Si8 1.668466 1_555
O87 Si9 1.670319 1_555
O88 Si10 1.664785 1_555
O89 Si11 1.663050 1_555
O90 S6 1.463299 1_555
O91 S7 1.464957 1_555
O92 Si12 1.667546 1_555
O93 Si13 1.653014 1_555
O94 Si14 1.670542 1_555
O95 Si15 1.668992 1_555
O96 Si6 1.665346 1_545
O97 Si7 1.655877 1_545
O98 S2 1.492417 1_555
O99 S3 1.500880 1_555
O100 Si5 1.620081 1_555
O101 Si4 1.627584 1_555
O102 Si0 1.626937 1_555
O103 Si1 1.624511 1_555
O104 Si3 1.653830 1_555
O105 Si2 1.655061 1_655
O106 S0 1.495478 1_555
O107 S1 1.493679 1_555
O108 Si16 1.646647 1_555
O109 S8 1.462182 1_555
O110 Si18 1.666843 1_555
O111 Si17 1.651823 1_655
O112 Si19 1.666391 1_545
O113 Si20 1.635028 1_545
O114 Si21 1.639372 1_545
O115 Si22 1.638332 1_545
O116 Si23 1.640777 1_555
O117 Si24 1.640438 1_555
O118 Si26 1.649203 1_555
O119 Si25 1.649916 1_655
O120 Si14 1.655329 1_555
O121 Si15 1.660534 1_555
O122 S7 1.475556 1_455
O123 S6 1.495050 1_555
O124 Si12 1.622601 1_565
O125 Si13 1.624736 1_565
O126 Si8 1.657102 1_565
O127 Si9 1.657930 1_565
O128 Si10 1.623827 1_555
O129 Si11 1.624020 1_555
O130 S5 1.478180 1_455
O131 S4 1.475936 1_555
O132 S0 1.472934 1_565
O133 S1 1.474254 1_565
O134 Si0 1.654591 1_555
O135 Si1 1.656060 1_555
O136 Si2 1.622462 1_555
O137 Si3 1.622376 1_555
O138 S2 1.463229 1_555
O139 S3 1.475413 1_555
O140 Si4 1.642266 1_455
O141 Si5 1.657788 1_555
O142 Si6 1.649947 1_555
O143 Si7 1.664837 1_555
