# generated using pymatgen
data_Al4Cu2O7
_symmetry_space_group_name_H-M   'P 1'
_cell_length_a   5.99435914
_cell_length_b   5.99435914
_cell_length_c   5.99435914
_cell_angle_alpha   60.00000000
_cell_angle_beta   60.00000000
_cell_angle_gamma   60.00000000
_symmetry_Int_Tables_number   1
_chemical_formula_structural   Al4Cu2O7
_chemical_formula_sum   'Al4 Cu2 O7'
_cell_volume   152.30469139
_cell_formula_units_Z   1
loop_
 _symmetry_equiv_pos_site_id
 _symmetry_equiv_pos_as_xyz
  1  'x, y, z'
loop_
 _atom_site_type_symbol
 _atom_site_label
 _atom_site_symmetry_multiplicity
 _atom_site_fract_x
 _atom_site_fract_y
 _atom_site_fract_z
 _atom_site_occupancy
  Al  Al0  1  0.61967500  0.61967500  0.14097400  1
  Al  Al1  1  0.61967500  0.14097400  0.61967500  1
  Al  Al2  1  0.14097400  0.61967500  0.61967500  1
  Al  Al3  1  0.61967500  0.61967500  0.61967500  1
  Cu  Cu0  1  0.25000000  0.25000000  0.25000000  1
  Cu  Cu1  1  0.00000000  0.00000000  0.00000000  1
  O  O0  1  0.75000000  0.75000000  0.75000000  1
  O  O1  1  0.74063700  0.74063700  0.25936300  1
  O  O2  1  0.25936300  0.25936300  0.74063700  1
  O  O3  1  0.74063700  0.25936300  0.74063700  1
  O  O4  1  0.25936300  0.74063700  0.74063700  1
  O  O5  1  0.74063700  0.25936300  0.25936300  1
  O  O6  1  0.25936300  0.74063700  0.25936300  1
loop_
_geom_bond_atom_site_label_1
_geom_bond_atom_site_label_2
_geom_bond_distance
_geom_bond_site_symmetry_2
Al0 O5 1.763524 1_555
Al0 O6 1.763524 1_555
Al0 O1 1.763529 1_555
Al0 O0 1.913573 1_554
Al1 O5 1.763524 1_555
Al1 O2 1.763524 1_555
Al1 O3 1.763529 1_555
Al1 O0 1.913573 1_545
Al2 O6 1.763524 1_555
Al2 O2 1.763524 1_555
Al2 O4 1.763529 1_555
Al2 O0 1.913573 1_455
Al3 O4 1.763524 1_555
Al3 O1 1.763524 1_555
Al3 O3 1.763524 1_555
Al3 O0 1.913578 1_555
Cu1 O3 2.198699 1_454
Cu1 O6 2.198699 1_545
Cu1 O5 2.198699 1_455
Cu1 O1 2.198699 1_445
Cu1 O2 2.198699 1_554
Cu1 O4 2.198699 1_544
