# generated using pymatgen
data_CrO2
_symmetry_space_group_name_H-M   'P 1'
_cell_length_a   2.92889800
_cell_length_b   4.95548655
_cell_length_c   9.79092201
_cell_angle_alpha   89.99456116
_cell_angle_beta   89.99964852
_cell_angle_gamma   107.19445049
_symmetry_Int_Tables_number   1
_chemical_formula_structural   CrO2
_chemical_formula_sum   'Cr4 O8'
_cell_volume   135.75539532
_cell_formula_units_Z   4
loop_
 _symmetry_equiv_pos_site_id
 _symmetry_equiv_pos_as_xyz
  1  'x, y, z'
loop_
 _atom_site_type_symbol
 _atom_site_label
 _atom_site_symmetry_multiplicity
 _atom_site_fract_x
 _atom_site_fract_y
 _atom_site_fract_z
 _atom_site_occupancy
  Cr  Cr0  1  0.87619600  0.73244300  0.07428400  1
  Cr  Cr1  1  0.14374600  0.26768000  0.92569700  1
  Cr  Cr2  1  0.85628900  0.73236500  0.42571400  1
  Cr  Cr3  1  0.12375500  0.26752400  0.57429400  1
  O  O0  1  0.23039900  0.47530200  0.39858100  1
  O  O1  1  0.75503300  0.52461400  0.60147900  1
  O  O2  1  0.76964100  0.52474000  0.89855400  1
  O  O3  1  0.24494500  0.47536300  0.10145600  1
  O  O4  1  0.92563800  0.85095500  0.24997400  1
  O  O5  1  0.07432500  0.14899400  0.74999900  1
  O  O6  1  0.48034700  0.00000900  0.99998100  1
  O  O7  1  0.51968700  0.00001200  0.49998600  1
loop_
_geom_bond_atom_site_label_1
_geom_bond_atom_site_label_2
_geom_bond_distance
_geom_bond_site_symmetry_2
Cr0 O4 1.809630 1_555
Cr0 O3 1.916670 1_655
Cr0 O3 1.928579 1_555
Cr0 O2 1.981803 1_554
Cr0 O6 2.007755 1_664
Cr0 O6 2.130783 1_564
Cr1 O5 1.809971 1_555
Cr1 O2 1.916553 1_555
Cr1 O2 1.928497 1_455
Cr1 O3 1.982002 1_556
Cr1 O6 2.008317 1_555
Cr1 O6 2.130679 1_455
Cr2 O4 1.810112 1_555
Cr2 O0 1.916571 1_555
Cr2 O0 1.928539 1_655
Cr2 O1 1.982040 1_555
Cr2 O7 2.008268 1_565
Cr2 O7 2.130689 1_665
Cr3 O5 1.809690 1_555
Cr3 O1 1.916700 1_455
Cr3 O1 1.928712 1_555
Cr3 O0 1.981662 1_555
Cr3 O7 2.007598 1_455
Cr3 O7 2.130848 1_555
