# generated using pymatgen
data_Na2BeO2
_symmetry_space_group_name_H-M   'P 1'
_cell_length_a   5.27412822
_cell_length_b   7.81511391
_cell_length_c   12.77134519
_cell_angle_alpha   61.57182797
_cell_angle_beta   90.00000000
_cell_angle_gamma   90.00000000
_symmetry_Int_Tables_number   1
_chemical_formula_structural   Na2BeO2
_chemical_formula_sum   'Na16 Be8 O16'
_cell_volume   462.93105263
_cell_formula_units_Z   8
loop_
 _symmetry_equiv_pos_site_id
 _symmetry_equiv_pos_as_xyz
  1  'x, y, z'
loop_
 _atom_site_type_symbol
 _atom_site_label
 _atom_site_symmetry_multiplicity
 _atom_site_fract_x
 _atom_site_fract_y
 _atom_site_fract_z
 _atom_site_occupancy
  Na  Na0  1  0.44447037  0.92515884  0.62457310  1
  Na  Na1  1  0.94447037  0.07484116  0.87542690  1
  Na  Na2  1  0.16928477  0.35425845  0.96703026  1
  Na  Na3  1  0.66928477  0.64574155  0.53296974  1
  Na  Na4  1  0.33071523  0.35425845  0.46703026  1
  Na  Na5  1  0.83071523  0.64574155  0.03296974  1
  Na  Na6  1  0.38462401  0.57852818  0.16802140  1
  Na  Na7  1  0.88462401  0.42147182  0.33197860  1
  Na  Na8  1  0.11537599  0.57852818  0.66802140  1
  Na  Na9  1  0.61537599  0.42147182  0.83197860  1
  Na  Na10  1  0.55552963  0.07484116  0.37542690  1
  Na  Na11  1  0.05552963  0.92515884  0.12457310  1
  Na  Na12  1  0.94049560  0.82509769  0.76430519  1
  Na  Na13  1  0.44049560  0.17490231  0.73569481  1
  Na  Na14  1  0.05950440  0.17490231  0.23569481  1
  Na  Na15  1  0.55950440  0.82509769  0.26430519  1
  Be  Be0  1  0.37796796  0.73935751  0.87656977  1
  Be  Be1  1  0.87796796  0.26064249  0.62343023  1
  Be  Be2  1  0.12203204  0.73935751  0.37656977  1
  Be  Be3  1  0.62203204  0.26064249  0.12343023  1
  Be  Be4  1  0.45712470  0.90944709  0.96104515  1
  Be  Be5  1  0.95712470  0.09055291  0.53895485  1
  Be  Be6  1  0.54287530  0.09055291  0.03895485  1
  Be  Be7  1  0.04287530  0.90944709  0.46104515  1
  O  O0  1  0.77572553  0.24809716  0.02145831  1
  O  O1  1  0.27572553  0.75190284  0.47854169  1
  O  O2  1  0.72427447  0.24809716  0.52145831  1
  O  O3  1  0.22427447  0.75190284  0.97854169  1
  O  O4  1  0.11341698  0.12671760  0.64231308  1
  O  O5  1  0.61341698  0.87328240  0.85768692  1
  O  O6  1  0.38658302  0.12671760  0.14231308  1
  O  O7  1  0.88658302  0.87328240  0.35768692  1
  O  O8  1  0.30318328  0.63749929  0.80542638  1
  O  O9  1  0.80318328  0.36250071  0.69457362  1
  O  O10  1  0.69681672  0.36250071  0.19457362  1
  O  O11  1  0.19681672  0.63749929  0.30542638  1
  O  O12  1  0.13478227  0.13123761  0.42346550  1
  O  O13  1  0.63478227  0.86876239  0.07653450  1
  O  O14  1  0.86521773  0.86876239  0.57653450  1
  O  O15  1  0.36521773  0.13123761  0.92346550  1
loop_
_geom_bond_atom_site_label_1
_geom_bond_atom_site_label_2
_geom_bond_distance
_geom_bond_site_symmetry_2
Na0 O14 2.398419 1_555
Na0 O4 2.433305 1_565
Na0 O8 2.449537 1_555
Na0 O2 2.667792 1_565
Na1 O15 2.398419 1_655
Na1 O5 2.433305 1_545
Na1 O9 2.449537 1_555
Na1 O3 2.667792 1_645
Na2 O0 2.220560 1_456
Na2 O8 2.304007 1_555
Na2 O15 2.310528 1_555
Na2 O6 2.386796 1_556
Na3 O1 2.220560 1_555
Na3 O9 2.304007 1_555
Na3 O14 2.310528 1_555
Na3 O7 2.386796 1_555
Na4 O2 2.220560 1_555
Na4 O11 2.304007 1_555
Na4 O12 2.310528 1_555
Na4 O4 2.386796 1_555
Na5 O3 2.220560 1_654
Na5 O10 2.304007 1_555
Na5 O13 2.310528 1_555
Na5 O5 2.386796 1_554
Na6 O11 2.245670 1_555
Na6 O10 2.265237 1_555
Na6 O3 2.298962 1_554
Na6 O13 2.393201 1_555
Na7 O10 2.245670 1_555
Na7 O11 2.265237 1_655
Na7 O2 2.298962 1_555
Na7 O12 2.393201 1_655
Na8 O8 2.245670 1_555
Na8 O9 2.265237 1_455
Na8 O1 2.298962 1_555
Na8 O14 2.393201 1_455
Na9 O9 2.245670 1_555
Na9 O8 2.265237 1_555
Na9 O0 2.298962 1_556
Na9 O15 2.393201 1_555
Na10 O12 2.398419 1_555
Na10 O7 2.433305 1_545
Na10 O10 2.449537 1_555
Na10 O1 2.667792 1_545
Na11 O13 2.398419 1_455
Na11 O6 2.433305 1_565
Na11 O11 2.449537 1_555
Na11 O0 2.667792 1_465
Na12 O5 2.228796 1_555
Na12 O14 2.290358 1_555
Na12 O4 2.306263 1_665
Na12 O8 2.313270 1_655
Na13 O4 2.228796 1_555
Na13 O15 2.290358 1_555
Na13 O5 2.306263 1_545
Na13 O9 2.313270 1_555
Na14 O6 2.228796 1_555
Na14 O12 2.290358 1_555
Na14 O7 2.306263 1_445
Na14 O10 2.313270 1_455
Na15 O7 2.228796 1_555
Na15 O13 2.290358 1_555
Na15 O6 2.306263 1_565
Na15 O11 2.313270 1_555
Be0 O8 1.517704 1_555
Be0 O5 1.566949 1_555
Be0 O3 1.576162 1_555
Be1 O9 1.517704 1_555
Be1 O4 1.566949 1_655
Be1 O2 1.576162 1_555
Be2 O11 1.517704 1_555
Be2 O7 1.566949 1_455
Be2 O1 1.576162 1_555
Be3 O10 1.517704 1_555
Be3 O6 1.566949 1_555
Be3 O0 1.576162 1_555
Be4 O15 1.636350 1_565
Be4 O13 1.645607 1_556
Be4 O3 1.676928 1_555
Be4 O5 1.690277 1_555
Be5 O14 1.636350 1_545
Be5 O12 1.645607 1_655
Be5 O2 1.676928 1_555
Be5 O4 1.690277 1_655
Be6 O13 1.636350 1_545
Be6 O15 1.645607 1_554
Be6 O0 1.676928 1_555
Be6 O6 1.690277 1_555
Be7 O12 1.636350 1_565
Be7 O14 1.645607 1_455
Be7 O1 1.676928 1_555
Be7 O7 1.690277 1_455
