# generated using pymatgen
data_BaPrMg(CoO3)2
_symmetry_space_group_name_H-M   'P 1'
_cell_length_a   3.87063019
_cell_length_b   3.87878666
_cell_length_c   11.13576916
_cell_angle_alpha   90.00000000
_cell_angle_beta   90.00000000
_cell_angle_gamma   90.00000000
_symmetry_Int_Tables_number   1
_chemical_formula_structural   BaPrMg(CoO3)2
_chemical_formula_sum   'Ba1 Pr1 Mg1 Co2 O6'
_cell_volume   167.18518596
_cell_formula_units_Z   1
loop_
 _symmetry_equiv_pos_site_id
 _symmetry_equiv_pos_as_xyz
  1  'x, y, z'
loop_
 _atom_site_type_symbol
 _atom_site_label
 _atom_site_symmetry_multiplicity
 _atom_site_fract_x
 _atom_site_fract_y
 _atom_site_fract_z
 _atom_site_occupancy
  Ba  Ba0  1  0.00000000  0.00000000  0.05081727  1
  Pr  Pr0  1  0.00000000  0.00000000  0.38242245  1
  Mg  Mg0  1  0.00000000  0.00000000  0.74324134  1
  Co  Co0  1  0.50000000  0.50000000  0.83793811  1
  Co  Co1  1  0.50000000  0.50000000  0.25097888  1
  O  O0  1  0.00000000  0.50000000  0.78821777  1
  O  O1  1  0.50000000  0.00000000  0.76537492  1
  O  O2  1  0.00000000  0.50000000  0.23995077  1
  O  O3  1  0.50000000  0.00000000  0.24652181  1
  O  O4  1  0.50000000  0.50000000  0.43133671  1
  O  O5  1  0.50000000  0.50000000  0.00486896  1
loop_
_geom_bond_atom_site_label_1
_geom_bond_atom_site_label_2
_geom_bond_distance
_geom_bond_site_symmetry_2
Ba0 O5 2.787202 1_545
Ba0 O5 2.787202 1_445
Ba0 O5 2.787202 1_455
Ba0 O5 2.787202 1_555
Ba0 O2 2.863058 1_555
Ba0 O2 2.863058 1_545
Ba0 O3 2.914598 1_455
Ba0 O3 2.914598 1_555
Mg0 O1 1.950947 1_555
Mg0 O1 1.950947 1_455
Mg0 O0 2.003021 1_555
Mg0 O0 2.003021 1_545
Co0 O5 1.858903 1_556
Co0 O0 2.012958 1_555
Co0 O0 2.012958 1_655
Co0 O1 2.100997 1_555
Co0 O1 2.100997 1_565
Co1 O2 1.939208 1_555
Co1 O2 1.939208 1_655
Co1 O3 1.940028 1_555
Co1 O3 1.940028 1_565
Co1 O4 2.008423 1_555
O2 Pr0 2.505659 1_565
O2 Pr0 2.505659 1_555
O3 Pr0 2.456766 1_655
O3 Pr0 2.456766 1_555
O4 Pr0 2.793454 1_655
O4 Pr0 2.793454 1_565
O4 Pr0 2.793454 1_555
O4 Pr0 2.793454 1_665
