# generated using pymatgen
data_Na2LaScP2SO12
_symmetry_space_group_name_H-M   'P 1'
_cell_length_a   9.22664075
_cell_length_b   9.23682337
_cell_length_c   23.86843720
_cell_angle_alpha   90.59646373
_cell_angle_beta   89.42921406
_cell_angle_gamma   119.86310192
_symmetry_Int_Tables_number   1
_chemical_formula_structural   Na2LaScP2SO12
_chemical_formula_sum   'Na12 La6 Sc6 P12 S6 O72'
_cell_volume   1763.95778085
_cell_formula_units_Z   6
loop_
 _symmetry_equiv_pos_site_id
 _symmetry_equiv_pos_as_xyz
  1  'x, y, z'
loop_
 _atom_site_type_symbol
 _atom_site_label
 _atom_site_symmetry_multiplicity
 _atom_site_fract_x
 _atom_site_fract_y
 _atom_site_fract_z
 _atom_site_occupancy
  Na  Na0  1  0.99528706  0.62973635  0.25618879  1
  Na  Na1  1  0.37588564  0.01274349  0.74721887  1
  Na  Na2  1  0.66337622  0.95746661  0.58751728  1
  Na  Na3  1  0.04056643  0.33587086  0.08978785  1
  Na  Na4  1  0.32526564  0.29588415  0.91949875  1
  Na  Na5  1  0.70272709  0.67286063  0.41695180  1
  Na  Na6  1  0.02283120  0.99481452  0.50037212  1
  Na  Na7  1  0.01039327  0.98221352  0.99990244  1
  Na  Na8  1  0.68654090  0.32409791  0.83220635  1
  Na  Na9  1  0.67065855  0.31289443  0.33477413  1
  Na  Na10  1  0.35275735  0.65856530  0.17105943  1
  Na  Na11  1  0.34172994  0.64749621  0.66570922  1
  La  La0  1  0.99136957  0.00540726  0.84338303  1
  La  La1  1  0.00217456  0.99810476  0.15885016  1
  La  La2  1  0.66911113  0.32980050  0.98447365  1
  La  La3  1  0.32861477  0.67888838  0.02071900  1
  La  La4  1  0.32419503  0.67109905  0.51553297  1
  La  La5  1  0.33392457  0.66274365  0.81053529  1
  Sc  Sc0  1  0.98656388  0.00157964  0.34743866  1
  Sc  Sc1  1  0.00347336  0.00000562  0.64610963  1
  Sc  Sc2  1  0.65902408  0.33842065  0.68032189  1
  Sc  Sc3  1  0.66231359  0.34620885  0.18726717  1
  Sc  Sc4  1  0.66411236  0.33122778  0.48283757  1
  Sc  Sc5  1  0.33356650  0.66737520  0.32064834  1
  P  P0  1  0.69118775  0.69573924  0.25485768  1
  P  P1  1  0.00125832  0.30916618  0.25213571  1
  P  P2  1  0.30041573  0.29086484  0.74351158  1
  P  P3  1  0.70273236  0.01278046  0.73957006  1
  P  P4  1  0.37808122  0.05587583  0.58473684  1
  P  P5  1  0.67727643  0.62866486  0.58263749  1
  P  P6  1  0.95860748  0.62604736  0.09019113  1
  P  P7  1  0.36999407  0.33533509  0.08650956  1
  P  P8  1  0.03370041  0.36317164  0.91790485  1
  P  P9  1  0.33041098  0.97486351  0.91206464  1
  P  P10  1  0.63305492  0.96797924  0.41578760  1
  P  P11  1  0.02551029  0.66870313  0.41214053  1
  S  S0  1  0.30568108  0.99733440  0.25555077  1
  S  S1  1  0.98924213  0.69755825  0.74226588  1
  S  S2  1  0.94579707  0.32278550  0.58490182  1
  S  S3  1  0.66828647  0.04243668  0.09104630  1
  S  S4  1  0.63694675  0.66722416  0.91685592  1
  S  S5  1  0.33170546  0.36276630  0.41383209  1
  O  O0  1  0.21271996  0.02248954  0.30180166  1
  O  O1  1  0.81751380  0.78767643  0.30369996  1
  O  O2  1  0.97995674  0.18186506  0.29835222  1
  O  O3  1  0.23998046  0.20355115  0.80140499  1
  O  O4  1  0.96702595  0.76039855  0.79718212  1
  O  O5  1  0.79034256  0.02736989  0.79584125  1
  O  O6  1  0.80075557  0.99270460  0.68971900  1
  O  O7  1  0.17734805  0.17755016  0.69764987  1
  O  O8  1  0.00491022  0.81228339  0.69665709  1
  O  O9  1  0.75900712  0.79722872  0.20084146  1
  O  O10  1  0.03530884  0.25130833  0.19484221  1
  O  O11  1  0.20728153  0.95727378  0.20280293  1
  O  O12  1  0.86232960  0.33969546  0.63509812  1
  O  O13  1  0.48313253  0.13774560  0.63788413  1
  O  O14  1  0.66210487  0.52010218  0.63338677  1
  O  O15  1  0.85744857  0.51964698  0.14172610  1
  O  O16  1  0.66207672  0.14270136  0.13807442  1
  O  O17  1  0.48151504  0.33576756  0.13513821  1
  O  O18  1  0.43979149  0.32313382  0.02838254  1
  O  O19  1  0.87049328  0.54317188  0.03494672  1
  O  O20  1  0.67697027  0.12126652  0.03624926  1
  O  O21  1  0.47045365  0.16172395  0.53219296  1
  O  O22  1  0.69146123  0.54365499  0.52737288  1
  O  O23  1  0.84772403  0.30609423  0.53349306  1
  O  O24  1  0.55193928  0.67719017  0.96814749  1
  O  O25  1  0.12756006  0.44626255  0.97317318  1
  O  O26  1  0.32881515  0.87704160  0.96442038  1
  O  O27  1  0.57374150  0.86263065  0.47052022  1
  O  O28  1  0.29829544  0.42764999  0.46644730  1
  O  O29  1  0.13054302  0.69920366  0.46548369  1
  O  O30  1  0.11575446  0.64293321  0.36095000  1
  O  O31  1  0.50921117  0.86693032  0.36822545  1
  O  O32  1  0.36104516  0.48062024  0.36724126  1
  O  O33  1  0.13465735  0.46691599  0.86687034  1
  O  O34  1  0.34038680  0.88932676  0.85721673  1
  O  O35  1  0.54224054  0.66096954  0.86632747  1
  O  O36  1  0.00089335  0.82336085  0.40374318  1
  O  O37  1  0.80770694  0.98396944  0.40273497  1
  O  O38  1  0.18923599  0.19425855  0.40281719  1
  O  O39  1  0.02688314  0.19153653  0.91651839  1
  O  O40  1  0.17146608  0.99198363  0.91457587  1
  O  O41  1  0.80727973  0.81265229  0.91610034  1
  O  O42  1  0.95669630  0.16545177  0.58794466  1
  O  O43  1  0.19965944  0.03235440  0.58946544  1
  O  O44  1  0.83419777  0.80868277  0.58837417  1
  O  O45  1  0.98579690  0.80403081  0.09094100  1
  O  O46  1  0.82483141  0.03278142  0.09211953  1
  O  O47  1  0.18921996  0.18318969  0.08967647  1
  O  O48  1  0.68217641  0.16953052  0.73554880  1
  O  O49  1  0.47542028  0.30670056  0.73622183  1
  O  O50  1  0.84717490  0.52785020  0.73503095  1
  O  O51  1  0.68599559  0.52363244  0.24753885  1
  O  O52  1  0.84163266  0.32777806  0.24823096  1
  O  O53  1  0.47200947  0.14788055  0.24848270  1
  O  O54  1  0.64153442  0.50840715  0.91564653  1
  O  O55  1  0.85812259  0.34231703  0.91490991  1
  O  O56  1  0.48352439  0.15503876  0.91242796  1
  O  O57  1  0.64921072  0.14229256  0.42404735  1
  O  O58  1  0.49189148  0.35803253  0.41998921  1
  O  O59  1  0.84704343  0.51109574  0.42032800  1
  O  O60  1  0.35466446  0.49574049  0.08995888  1
  O  O61  1  0.12815893  0.62652445  0.09223416  1
  O  O62  1  0.51930133  0.87350981  0.09284589  1
  O  O63  1  0.37008210  0.88267294  0.58090235  1
  O  O64  1  0.52161429  0.65385925  0.58139396  1
  O  O65  1  0.11665646  0.46906174  0.58205214  1
  O  O66  1  0.32122503  0.84554875  0.26504103  1
  O  O67  1  0.51548142  0.67005354  0.26704640  1
  O  O68  1  0.15334243  0.48704907  0.26441358  1
  O  O69  1  0.31449901  0.46394872  0.74237529  1
  O  O70  1  0.15063599  0.69538402  0.74235936  1
  O  O71  1  0.52244162  0.85705815  0.74039444  1
loop_
_geom_bond_atom_site_label_1
_geom_bond_atom_site_label_2
_geom_bond_distance
_geom_bond_site_symmetry_2
Na0 O68 2.414014 1_655
Na0 O52 2.425238 1_555
Na0 O51 2.523719 1_555
Na0 O66 2.663865 1_655
Na0 O30 2.723388 1_655
Na0 O1 2.901067 1_555
Na0 O11 2.956368 1_655
Na0 O15 2.973053 1_555
Na1 O49 2.410715 1_555
Na1 O71 2.418720 1_545
Na1 O48 2.465430 1_555
Na1 O70 2.618490 1_545
Na1 O34 2.823704 1_545
Na1 O13 2.827733 1_555
Na1 O3 2.910751 1_555
Na2 O42 2.416117 1_565
Na2 O64 2.437018 1_555
Na2 O63 2.443305 1_555
Na2 O44 2.555680 1_555
Na2 O6 2.701386 1_555
Na2 O27 2.919453 1_555
Na3 O61 2.387716 1_555
Na3 O47 2.407548 1_555
Na3 O46 2.500882 1_455
Na3 O60 2.513508 1_555
Na3 O10 2.626889 1_555
Na3 O25 2.937836 1_554
Na4 O56 2.394886 1_555
Na4 O39 2.423505 1_555
Na4 O40 2.436545 1_545
Na4 O54 2.582841 1_555
Na4 O18 2.776757 1_556
Na4 O3 2.935563 1_555
Na5 O36 2.404910 1_655
Na5 O59 2.449113 1_555
Na5 O37 2.559899 1_555
Na5 O58 2.571777 1_555
Na5 O27 2.850297 1_555
Na5 O22 2.884075 1_555
Na5 O1 2.904737 1_555
Na5 O32 2.992569 1_555
Na6 O43 2.606644 1_565
Na6 O44 2.723871 1_455
Na6 O36 2.735408 1_555
Na6 O42 2.844184 1_465
Na6 O38 2.893835 1_565
Na7 O40 2.484867 1_555
Na7 O41 2.655644 1_455
Na7 O45 2.678558 1_456
Na7 O39 2.739289 1_565
Na7 O47 2.774406 1_566
Na7 O46 2.948584 1_466
Na8 O55 2.494258 1_555
Na8 O56 2.586772 1_555
Na8 O48 2.690455 1_555
Na8 O54 2.766602 1_555
Na8 O50 2.891881 1_555
Na8 O49 2.972957 1_555
Na9 O52 2.549389 1_555
Na9 O57 2.610304 1_555
Na9 O53 2.674411 1_555
Na9 O59 2.681679 1_555
Na9 O58 2.762558 1_555
Na9 O51 2.819346 1_555
Na10 O60 2.444267 1_555
Na10 O62 2.601915 1_555
Na10 O61 2.716081 1_555
Na10 O67 2.723824 1_555
Na10 O68 2.819422 1_555
Na10 O66 2.916555 1_555
Na11 O69 2.432540 1_555
Na11 O71 2.545184 1_555
Na11 O64 2.578172 1_555
Na11 O70 2.710547 1_555
Na11 O65 2.760735 1_555
Na11 O63 2.898235 1_555
La0 O5 2.278278 1_555
La0 O3 2.329563 1_655
La0 O39 2.344840 1_655
La0 O4 2.415552 1_545
La0 O40 2.435137 1_645
La0 O41 2.462001 1_545
La1 O9 2.308528 1_455
La1 O45 2.353346 1_455
La1 O10 2.356436 1_565
La1 O11 2.362784 1_555
La1 O47 2.385566 1_565
La1 O46 2.429272 1_465
La2 O19 2.266369 1_556
La2 O18 2.325168 1_556
La2 O20 2.330906 1_556
La2 O55 2.357343 1_555
La2 O56 2.396490 1_555
La2 O54 2.442949 1_555
La3 O26 2.281119 1_554
La3 O25 2.316852 1_554
La3 O61 2.373148 1_555
La3 O24 2.408493 1_554
La3 O60 2.474251 1_555
La3 O62 2.477311 1_555
La4 O29 2.279881 1_555
La4 O27 2.349321 1_555
La4 O63 2.357658 1_555
La4 O28 2.429397 1_555
La4 O65 2.472373 1_555
La4 O64 2.483059 1_555
La5 O33 2.269299 1_555
La5 O34 2.335335 1_555
La5 O35 2.356000 1_555
La5 O69 2.380432 1_555
La5 O71 2.438290 1_555
La5 O70 2.484270 1_555
O0 S0 1.477365 1_545
O0 Sc0 2.266217 1_455
O1 P0 1.568283 1_555
O1 Sc0 2.084941 1_565
O2 P1 1.559062 1_655
O2 Sc0 2.071871 1_555
O3 P2 1.559107 1_555
O4 S1 1.481328 1_555
O5 P3 1.544312 1_555
O6 P3 1.552140 1_565
O6 Sc1 2.103203 1_665
O7 P2 1.549345 1_555
O7 Sc1 2.038081 1_555
O8 S1 1.482312 1_455
O8 Sc1 2.128184 1_565
O9 P0 1.535422 1_555
O10 P1 1.548488 1_555
O11 S0 1.491582 1_555
O12 S2 1.466445 1_555
O12 Sc2 2.149870 1_555
O13 P4 1.547621 1_555
O13 Sc2 2.023251 1_555
O14 P5 1.540953 1_555
O14 Sc2 2.015697 1_555
O15 P6 1.561694 1_555
O15 Sc3 2.028416 1_555
O16 S3 1.466591 1_555
O16 Sc3 2.205030 1_555
O17 P7 1.557430 1_555
O17 Sc3 2.053980 1_555
O18 P7 1.550334 1_555
O19 P6 1.538256 1_555
O20 S3 1.485564 1_555
O21 P4 1.558705 1_555
O21 Sc4 2.059685 1_555
O22 P5 1.565571 1_555
O22 Sc4 2.124266 1_555
O23 S2 1.492475 1_555
O23 Sc4 2.196384 1_555
O24 S4 1.474064 1_555
O25 P8 1.555315 1_555
O26 P9 1.545368 1_555
O27 P10 1.560424 1_555
O28 S5 1.480523 1_555
O29 P11 1.544290 1_555
O30 P11 1.553675 1_555
O30 Sc5 2.128203 1_555
O31 P10 1.551544 1_555
O31 Sc5 2.081296 1_555
O32 S5 1.490207 1_555
O32 Sc5 2.181250 1_555
O33 P8 1.543545 1_555
O34 P9 1.547588 1_555
O35 S4 1.480099 1_555
O36 P11 1.569235 1_555
O36 Sc0 2.190842 1_465
O37 P10 1.571491 1_555
O37 Sc0 2.045850 1_565
O38 S5 1.476657 1_555
O38 Sc0 2.257749 1_455
O39 P8 1.555014 1_555
O40 P9 1.551871 1_555
O41 S4 1.473857 1_555
O42 S2 1.508392 1_555
O42 Sc1 2.272003 1_655
O43 P4 1.552627 1_555
O43 Sc1 2.148216 1_555
O44 P5 1.575314 1_555
O44 Sc1 2.169087 1_665
O45 P6 1.534521 1_555
O46 S3 1.491282 1_555
O47 P7 1.558236 1_555
O48 P3 1.555071 1_555
O48 Sc2 2.144096 1_555
O49 P2 1.555205 1_555
O49 Sc2 2.050528 1_555
O50 S1 1.468978 1_555
O50 Sc2 2.180150 1_555
O51 P0 1.574346 1_555
O51 Sc3 2.098480 1_555
O52 P1 1.569275 1_655
O52 Sc3 2.284155 1_555
O53 S0 1.480481 1_545
O53 Sc3 2.318448 1_555
O54 S4 1.488470 1_555
O55 P8 1.535529 1_655
O56 P9 1.556965 1_545
O57 P10 1.551927 1_545
O57 Sc4 2.178865 1_555
O58 S5 1.508890 1_555
O58 Sc4 2.298605 1_555
O59 P11 1.575193 1_655
O59 Sc4 2.245889 1_555
O60 P7 1.558189 1_555
O61 P6 1.563446 1_455
O62 S3 1.479980 1_565
O63 P4 1.566150 1_565
O64 P5 1.565779 1_555
O65 S2 1.481214 1_455
O66 S0 1.498343 1_555
O66 Sc5 2.172146 1_555
O67 P0 1.542125 1_555
O67 Sc5 2.090747 1_555
O68 P1 1.567394 1_555
O68 Sc5 2.140264 1_555
O69 P2 1.538687 1_555
O70 S1 1.499248 1_455
O71 P3 1.566402 1_565
