# generated using pymatgen
data_LiCoPO4F
_symmetry_space_group_name_H-M   'P 1'
_cell_length_a   5.16949800
_cell_length_b   5.35147445
_cell_length_c   7.33231189
_cell_angle_alpha   106.02564968
_cell_angle_beta   109.19265394
_cell_angle_gamma   99.12675227
_symmetry_Int_Tables_number   1
_chemical_formula_structural   LiCoPO4F
_chemical_formula_sum   'Li2 Co2 P2 O8 F2'
_cell_volume   177.04037848
_cell_formula_units_Z   2
loop_
 _symmetry_equiv_pos_site_id
 _symmetry_equiv_pos_as_xyz
  1  'x, y, z'
loop_
 _atom_site_type_symbol
 _atom_site_label
 _atom_site_symmetry_multiplicity
 _atom_site_fract_x
 _atom_site_fract_y
 _atom_site_fract_z
 _atom_site_occupancy
  Li  Li0  1  0.26773200  0.62294100  0.19078600  1
  Li  Li1  1  0.73226800  0.37705900  0.80921400  1
  Co  Co0  1  0.00000000  0.00000000  0.00000000  1
  Co  Co1  1  0.00000000  0.00000000  0.50000000  1
  P  P0  1  0.31866900  0.64463100  0.76464500  1
  P  P1  1  0.68133100  0.35536900  0.23535500  1
  O  O0  1  0.30948800  0.34754800  0.65811600  1
  O  O1  1  0.69051200  0.65245200  0.34188400  1
  O  O2  1  0.36333800  0.23308200  0.07866800  1
  O  O3  1  0.75068700  0.20430400  0.38761900  1
  O  O4  1  0.63666200  0.76691800  0.92133200  1
  O  O5  1  0.24931300  0.79569600  0.61238100  1
  O  O6  1  0.12426500  0.65927600  0.88866500  1
  O  O7  1  0.87573500  0.34072400  0.11133500  1
  F  F0  1  0.13632100  0.93544700  0.26839200  1
  F  F1  1  0.86367900  0.06455300  0.73160800  1
loop_
_geom_bond_atom_site_label_1
_geom_bond_atom_site_label_2
_geom_bond_distance
_geom_bond_site_symmetry_2
Li0 O1 2.056919 1_555
Li0 O7 2.119873 1_455
Li0 O6 2.167609 1_554
Li0 O2 2.218129 1_555
Li1 O0 2.056919 1_555
Li1 O6 2.119873 1_655
Li1 O7 2.167609 1_556
Li1 O4 2.218129 1_555
Co0 O2 1.887762 1_555
Co0 O4 1.887762 1_444
Co0 F0 2.007357 1_545
Co0 F1 2.007357 1_454
Co0 O7 2.073235 1_455
Co0 O6 2.073235 1_544
Co1 O3 1.944638 1_455
Co1 O5 1.944638 1_545
Co1 O0 2.002222 1_555
Co1 O1 2.002222 1_445
Co1 F1 2.009997 1_455
Co1 F0 2.009997 1_545
O0 P0 1.551121 1_555
O1 P1 1.551121 1_555
O2 P1 1.565994 1_555
O3 P1 1.534812 1_555
O4 P0 1.565994 1_555
O5 P0 1.534812 1_555
O6 P0 1.558696 1_555
O7 P1 1.558696 1_555
F0 Li0 1.916048 1_555
F1 Li1 1.916048 1_555
