# generated using pymatgen
data_Na5Ta2Si5Sn2PO24
_symmetry_space_group_name_H-M   'P 1'
_cell_length_a   9.00687780
_cell_length_b   9.01693849
_cell_length_c   22.48387458
_cell_angle_alpha   90.03405634
_cell_angle_beta   90.10216619
_cell_angle_gamma   120.02840257
_symmetry_Int_Tables_number   1
_chemical_formula_structural   Na5Ta2Si5Sn2PO24
_chemical_formula_sum   'Na15 Ta6 Si15 Sn6 P3 O72'
_cell_volume   1580.91843949
_cell_formula_units_Z   3
loop_
 _symmetry_equiv_pos_site_id
 _symmetry_equiv_pos_as_xyz
  1  'x, y, z'
loop_
 _atom_site_type_symbol
 _atom_site_label
 _atom_site_symmetry_multiplicity
 _atom_site_fract_x
 _atom_site_fract_y
 _atom_site_fract_z
 _atom_site_occupancy
  Na  Na0  1  0.64211679  0.00519874  0.25006570  1
  Na  Na1  1  0.36687939  0.36104018  0.24753705  1
  Na  Na2  1  0.99177080  0.63179747  0.24815656  1
  Na  Na3  1  0.99690741  0.36151308  0.74932274  1
  Na  Na4  1  0.03484296  0.70033249  0.57830273  1
  Na  Na5  1  0.66138161  0.96340134  0.57850816  1
  Na  Na6  1  0.96985167  0.66883774  0.92034226  1
  Na  Na7  1  0.70277809  0.03559009  0.91723347  1
  Na  Na8  1  0.32652693  0.29644249  0.92095451  1
  Na  Na9  1  0.00605474  0.00625907  0.49142859  1
  Na  Na10  1  0.00698120  0.00309582  0.00525650  1
  Na  Na11  1  0.65691487  0.33033776  0.83086964  1
  Na  Na12  1  0.66913992  0.33452709  0.33454193  1
  Na  Na13  1  0.32913485  0.65984877  0.15991907  1
  Na  Na14  1  0.34305756  0.66459802  0.66313867  1
  Ta  Ta0  1  0.00249465  0.00273257  0.64518970  1
  Ta  Ta1  1  0.00325306  0.99889419  0.14503775  1
  Ta  Ta2  1  0.66278471  0.33387186  0.68677540  1
  Ta  Ta3  1  0.66808087  0.33186715  0.47605086  1
  Ta  Ta4  1  0.33140424  0.66815387  0.31444326  1
  Ta  Ta5  1  0.33255816  0.67268915  0.80951185  1
  Si  Si0  1  0.28968392  0.00122228  0.25090340  1
  Si  Si1  1  0.71051024  0.71003256  0.24990054  1
  Si  Si2  1  0.99876709  0.28673999  0.25024533  1
  Si  Si3  1  0.29454802  0.29141092  0.75136884  1
  Si  Si4  1  0.99686237  0.70985189  0.75050924  1
  Si  Si5  1  0.70836507  0.99796615  0.74963956  1
  Si  Si6  1  0.95666362  0.33363946  0.58316308  1
  Si  Si7  1  0.37780500  0.04806389  0.58172743  1
  Si  Si8  1  0.66341611  0.61949667  0.58208272  1
  Si  Si9  1  0.96133062  0.62871495  0.08324175  1
  Si  Si10  1  0.37169602  0.33469506  0.08265325  1
  Si  Si11  1  0.04204116  0.37384069  0.91577327  1
  Si  Si12  1  0.33292009  0.95681088  0.91765716  1
  Si  Si13  1  0.62876332  0.95887580  0.41856035  1
  Si  Si14  1  0.04145335  0.67067119  0.41849550  1
  Sn  Sn0  1  0.99777341  0.99738631  0.35398608  1
  Sn  Sn1  1  0.00433916  0.00173889  0.85018910  1
  Sn  Sn2  1  0.66697631  0.33499708  0.18316457  1
  Sn  Sn3  1  0.66592622  0.33291470  0.98351206  1
  Sn  Sn4  1  0.32590670  0.66109041  0.02235759  1
  Sn  Sn5  1  0.33367756  0.66500803  0.51942109  1
  P  P0  1  0.66776434  0.03731907  0.08299930  1
  P  P1  1  0.61935960  0.66830432  0.91609639  1
  P  P2  1  0.33302114  0.37630264  0.41690852  1
  O  O0  1  0.21408186  0.05169664  0.30729489  1
  O  O1  1  0.83627854  0.78601998  0.30678968  1
  O  O2  1  0.95302387  0.16451528  0.30767691  1
  O  O3  1  0.22368638  0.18567969  0.81327915  1
  O  O4  1  0.96226532  0.78214974  0.81199229  1
  O  O5  1  0.82648239  0.04304316  0.80969323  1
  O  O6  1  0.80360755  0.97245358  0.69177672  1
  O  O7  1  0.16063363  0.19306414  0.69597771  1
  O  O8  1  0.02540830  0.83159219  0.69291301  1
  O  O9  1  0.79949842  0.83983899  0.19335607  1
  O  O10  1  0.03734992  0.19757982  0.19334777  1
  O  O11  1  0.16039921  0.96062718  0.19367163  1
  O  O12  1  0.86808834  0.36281376  0.64266970  1
  O  O13  1  0.50347352  0.14162097  0.63924697  1
  O  O14  1  0.64402838  0.50222354  0.64050412  1
  O  O15  1  0.87813010  0.51451789  0.14291399  1
  O  O16  1  0.63994215  0.11932126  0.13919939  1
  O  O17  1  0.48094100  0.35711554  0.14317787  1
  O  O18  1  0.44780208  0.29627365  0.02115765  1
  O  O19  1  0.84935737  0.54941239  0.02137484  1
  O  O20  1  0.69923017  0.14611082  0.02523803  1
  O  O21  1  0.47127481  0.16916636  0.52462968  1
  O  O22  1  0.70069926  0.52948291  0.52573052  1
  O  O23  1  0.82704124  0.29890527  0.52673189  1
  O  O24  1  0.54466838  0.70519609  0.97146423  1
  O  O25  1  0.17190941  0.45440871  0.97139694  1
  O  O26  1  0.29596208  0.83313910  0.97389855  1
  O  O27  1  0.54712577  0.84921792  0.47933134  1
  O  O28  1  0.30500090  0.45767057  0.47273258  1
  O  O29  1  0.14886608  0.69310427  0.47949913  1
  O  O30  1  0.13865072  0.64199891  0.35987502  1
  O  O31  1  0.50454516  0.85712838  0.35996072  1
  O  O32  1  0.35607595  0.48902111  0.36041618  1
  O  O33  1  0.13402189  0.49604727  0.85664672  1
  O  O34  1  0.36389411  0.86153877  0.85950227  1
  O  O35  1  0.50289513  0.64141324  0.86114763  1
  O  O36  1  0.02814823  0.84203126  0.41313738  1
  O  O37  1  0.81934866  0.98573768  0.41347758  1
  O  O38  1  0.17615634  0.19810727  0.41101750  1
  O  O39  1  0.01328621  0.17866607  0.91163098  1
  O  O40  1  0.16009716  0.97415276  0.91257577  1
  O  O41  1  0.80166662  0.82741899  0.90992964  1
  O  O42  1  0.96424757  0.15582912  0.58993849  1
  O  O43  1  0.18551652  0.02332004  0.59043368  1
  O  O44  1  0.83897063  0.80971783  0.59067144  1
  O  O45  1  0.97085774  0.81546060  0.08995025  1
  O  O46  1  0.83148245  0.02423198  0.08999408  1
  O  O47  1  0.18037177  0.16236985  0.08978113  1
  O  O48  1  0.69358743  0.17030001  0.74127778  1
  O  O49  1  0.48382571  0.31536424  0.74199549  1
  O  O50  1  0.83766264  0.51393446  0.74307693  1
  O  O51  1  0.68186074  0.51604825  0.24448168  1
  O  O52  1  0.83205046  0.31281197  0.24318085  1
  O  O53  1  0.48478482  0.16125640  0.24272929  1
  O  O54  1  0.63337877  0.50308379  0.91886675  1
  O  O55  1  0.85341028  0.36274972  0.92007807  1
  O  O56  1  0.50771397  0.14723282  0.91972695  1
  O  O57  1  0.63359137  0.14469271  0.42167047  1
  O  O58  1  0.50007799  0.36668695  0.42163499  1
  O  O59  1  0.85235028  0.49374512  0.42227378  1
  O  O60  1  0.36243514  0.50992045  0.07965145  1
  O  O61  1  0.15290946  0.65402893  0.08123037  1
  O  O62  1  0.50905964  0.85862424  0.07774497  1
  O  O63  1  0.35909702  0.85795442  0.58051771  1
  O  O64  1  0.50033340  0.64951172  0.58039206  1
  O  O65  1  0.14231094  0.50733321  0.57957759  1
  O  O66  1  0.30303407  0.82473946  0.25769149  1
  O  O67  1  0.51858758  0.69148166  0.25733061  1
  O  O68  1  0.17327120  0.47775719  0.25726916  1
  O  O69  1  0.30311651  0.47778903  0.75637187  1
  O  O70  1  0.16907565  0.68853846  0.75584844  1
  O  O71  1  0.52013373  0.82610649  0.75615277  1
loop_
_geom_bond_atom_site_label_1
_geom_bond_atom_site_label_2
_geom_bond_distance
_geom_bond_site_symmetry_2
Na0 O52 2.428251 1_555
Na0 O53 2.451653 1_555
Na0 O67 2.473396 1_545
Na0 O66 2.651961 1_545
Na0 O16 2.701096 1_555
Na0 O2 2.746244 1_555
Na0 O31 2.789657 1_545
Na0 O9 2.824515 1_545
Na1 O68 2.456469 1_555
Na1 O51 2.457433 1_555
Na1 O53 2.509880 1_555
Na1 O17 2.570438 1_555
Na1 O67 2.591667 1_555
Na1 O0 2.765610 1_555
Na1 O32 2.809306 1_555
Na1 O10 2.841247 1_555
Na2 O51 2.443539 1_555
Na2 O66 2.459304 1_655
Na2 O52 2.492532 1_555
Na2 O15 2.582674 1_555
Na2 O68 2.629706 1_655
Na2 O1 2.754407 1_555
Na2 O30 2.816761 1_655
Na2 O11 2.846523 1_655
Na3 O48 2.398449 1_555
Na3 O69 2.415577 1_655
Na3 O50 2.436863 1_555
Na3 O70 2.558031 1_655
Na3 O12 2.664647 1_555
Na3 O33 2.702974 1_655
Na3 O5 2.836409 1_555
Na3 O7 2.857648 1_655
Na4 O65 2.377427 1_555
Na4 O44 2.430133 1_455
Na4 O29 2.463519 1_555
Na4 O63 2.529209 1_555
Na4 O43 2.537701 1_565
Na4 O8 2.854151 1_555
Na4 O22 2.858822 1_455
Na5 O63 2.393409 1_555
Na5 O42 2.403686 1_565
Na5 O64 2.451108 1_555
Na5 O27 2.453584 1_555
Na5 O44 2.602099 1_555
Na5 O6 2.831410 1_555
Na5 O23 2.868116 1_565
Na5 O13 2.960081 1_565
Na6 O55 2.412533 1_555
Na6 O40 2.413699 1_655
Na6 O19 2.517863 1_556
Na6 O41 2.561489 1_555
Na6 O54 2.624022 1_555
Na6 O4 2.656229 1_555
Na6 O26 2.811085 1_655
Na7 O56 2.423582 1_555
Na7 O39 2.427369 1_655
Na7 O41 2.452978 1_545
Na7 O55 2.557516 1_555
Na7 O20 2.630658 1_556
Na7 O5 2.650875 1_555
Na7 O24 2.855584 1_545
Na7 O34 2.941667 1_545
Na8 O54 2.441091 1_555
Na8 O39 2.475977 1_555
Na8 O18 2.502367 1_556
Na8 O40 2.523118 1_545
Na8 O56 2.582967 1_555
Na8 O3 2.603793 1_555
Na8 O25 2.691381 1_555
Na9 O37 2.368874 1_445
Na9 O36 2.371531 1_545
Na9 O38 2.443249 1_555
Na9 O43 2.707291 1_555
Na9 O42 2.715529 1_455
Na9 O44 2.780614 1_445
Na10 O47 2.419618 1_555
Na10 O45 2.459594 1_445
Na10 O46 2.544925 1_455
Na10 O40 2.584987 1_544
Na10 O39 2.618235 1_554
Na10 O41 2.751866 1_444
Na11 O49 2.493899 1_555
Na11 O56 2.513192 1_555
Na11 O50 2.570063 1_555
Na11 O55 2.590297 1_555
Na11 O54 2.591143 1_555
Na11 O48 2.593292 1_555
Na12 O59 2.507791 1_555
Na12 O57 2.515520 1_555
Na12 O51 2.570882 1_555
Na12 O58 2.586344 1_555
Na12 O52 2.590118 1_555
Na12 O53 2.616667 1_555
Na13 O61 2.357702 1_555
Na13 O60 2.362090 1_555
Na13 O62 2.521871 1_555
Na13 O68 2.676899 1_555
Na13 O67 2.699779 1_555
Na13 O66 2.728771 1_555
Na14 O64 2.385047 1_555
Na14 O65 2.495683 1_555
Na14 O63 2.502827 1_555
Na14 O71 2.588046 1_555
Na14 O69 2.600270 1_555
Na14 O70 2.682706 1_555
O0 Si0 1.609644 1_555
O0 Sn0 2.047101 1_445
O1 Si1 1.614216 1_555
O1 Sn0 2.022788 1_555
O2 Si2 1.612732 1_555
O2 Sn0 2.031227 1_545
O3 Si3 1.627769 1_555
O3 Sn1 2.017583 1_555
O4 Si4 1.623832 1_555
O4 Sn1 2.011837 1_665
O5 Si5 1.637561 1_545
O5 Sn1 2.031319 1_655
O6 Si5 1.637832 1_555
O6 Ta0 1.974381 1_665
O7 Si3 1.647739 1_555
O7 Ta0 1.955347 1_555
O8 Si4 1.633553 1_455
O8 Ta0 1.973629 1_565
O9 Si1 1.641692 1_555
O9 Ta1 1.994931 1_655
O10 Si2 1.638181 1_455
O10 Ta1 1.982315 1_545
O11 Si0 1.647197 1_565
O11 Ta1 1.949829 1_555
O12 Si6 1.645960 1_555
O12 Ta2 1.998677 1_555
O13 Si7 1.644126 1_555
O13 Ta2 1.925808 1_555
O14 Si8 1.640648 1_555
O14 Ta2 1.916553 1_555
O15 Si9 1.629371 1_555
O15 Sn2 1.995732 1_555
O16 P0 1.546500 1_555
O16 Sn2 2.083591 1_555
O17 Si10 1.629938 1_555
O17 Sn2 1.996250 1_555
O18 Si10 1.655942 1_555
O18 Sn3 2.010453 1_554
O19 Si9 1.653900 1_555
O19 Sn3 2.007531 1_554
O20 P0 1.566463 1_555
O20 Sn3 2.076992 1_554
O21 Si7 1.623167 1_555
O21 Ta3 1.973183 1_555
O22 Si8 1.627867 1_555
O22 Ta3 1.995401 1_555
O23 Si6 1.642937 1_555
O23 Ta3 1.963966 1_555
O24 P1 1.529521 1_555
O24 Sn4 2.138728 1_556
O25 Si11 1.613469 1_555
O25 Sn4 2.028421 1_556
O26 Si12 1.607800 1_555
O26 Sn4 2.021455 1_556
O27 Si13 1.631816 1_555
O27 Sn5 2.019743 1_555
O28 P2 1.537118 1_555
O28 Sn5 2.043840 1_555
O29 Si14 1.630104 1_555
O29 Sn5 2.014370 1_555
O30 Si14 1.673514 1_555
O30 Ta4 1.926119 1_555
O31 Si13 1.671934 1_555
O31 Ta4 1.927557 1_555
O32 P2 1.575025 1_555
O32 Ta4 2.021677 1_555
O33 Si11 1.661284 1_555
O33 Ta5 2.003948 1_555
O34 Si12 1.662928 1_555
O34 Ta5 1.938618 1_555
O35 P1 1.557553 1_555
O35 Ta5 2.051401 1_555
O36 Si14 1.613021 1_555
O36 Sn0 2.047051 1_455
O37 Si13 1.613372 1_555
O37 Sn0 2.054679 1_555
O38 P2 1.523953 1_555
O38 Sn0 2.140293 1_445
O39 Si11 1.648167 1_555
O39 Sn1 2.080464 1_555
O40 Si12 1.644231 1_555
O40 Sn1 2.083312 1_565
O41 P1 1.554692 1_555
O41 Sn1 2.178667 1_665
O42 Si6 1.645699 1_555
O42 Ta0 2.010978 1_655
O43 Si7 1.643823 1_555
O43 Ta0 1.992179 1_555
O44 Si8 1.662387 1_555
O44 Ta0 2.031327 1_665
O45 Si9 1.649418 1_555
O45 Ta1 1.966779 1_655
O46 P0 1.544806 1_555
O46 Ta1 2.079589 1_645
O47 Si10 1.652573 1_555
O47 Ta1 1.979134 1_545
O48 Si5 1.635544 1_545
O48 Ta2 2.040711 1_555
O49 Si3 1.621795 1_555
O49 Ta2 1.976255 1_555
O50 Si4 1.633494 1_555
O50 Ta2 2.037255 1_555
O51 Si1 1.639765 1_555
O51 Sn2 2.088397 1_555
O52 Si2 1.639449 1_555
O52 Sn2 2.088617 1_555
O53 Si0 1.633264 1_555
O53 Sn2 2.092368 1_555
O54 P1 1.558087 1_555
O54 Sn3 2.237020 1_555
O55 Si11 1.654216 1_655
O55 Sn3 2.124250 1_555
O56 Si12 1.650162 1_545
O56 Sn3 2.119563 1_555
O57 Si13 1.655599 1_545
O57 Ta3 1.977720 1_555
O58 P2 1.553328 1_555
O58 Ta3 2.086756 1_555
O59 Si14 1.653607 1_655
O59 Ta3 1.982856 1_555
O60 Si10 1.624781 1_555
O60 Sn4 2.018692 1_555
O61 Si9 1.624094 1_455
O61 Sn4 2.022929 1_555
O62 P0 1.532135 1_565
O62 Sn4 2.119880 1_555
O63 Si7 1.636603 1_565
O63 Sn5 2.136274 1_555
O64 Si8 1.621713 1_555
O64 Sn5 2.086803 1_555
O65 Si6 1.623245 1_455
O65 Sn5 2.092739 1_555
O66 Si0 1.661876 1_565
O66 Ta4 2.012229 1_555
O67 Si1 1.660028 1_555
O67 Ta4 2.046628 1_555
O68 Si2 1.658689 1_455
O68 Ta4 2.042551 1_555
O69 Si3 1.647066 1_555
O69 Ta5 2.028857 1_555
O70 Si4 1.659814 1_455
O70 Ta5 1.961850 1_555
O71 Si5 1.633652 1_555
O71 Ta5 1.969102 1_555
