# generated using pymatgen
data_LiMo(PO3)4
_symmetry_space_group_name_H-M   'P 1'
_cell_length_a   8.35193600
_cell_length_b   9.60225100
_cell_length_c   13.00008800
_cell_angle_alpha   90.00000000
_cell_angle_beta   90.00000000
_cell_angle_gamma   90.00000000
_symmetry_Int_Tables_number   1
_chemical_formula_structural   LiMo(PO3)4
_chemical_formula_sum   'Li4 Mo4 P16 O48'
_cell_volume   1042.57307287
_cell_formula_units_Z   4
loop_
 _symmetry_equiv_pos_site_id
 _symmetry_equiv_pos_as_xyz
  1  'x, y, z'
loop_
 _atom_site_type_symbol
 _atom_site_label
 _atom_site_symmetry_multiplicity
 _atom_site_fract_x
 _atom_site_fract_y
 _atom_site_fract_z
 _atom_site_occupancy
  Li  Li0  1  0.00443900  0.25000000  0.00000000  1
  Li  Li1  1  0.99556100  0.75000000  0.00000000  1
  Li  Li2  1  0.49556100  0.75000000  0.50000000  1
  Li  Li3  1  0.50443900  0.25000000  0.50000000  1
  Mo  Mo0  1  0.37065700  0.75000000  0.00000000  1
  Mo  Mo1  1  0.62934300  0.25000000  0.00000000  1
  Mo  Mo2  1  0.12934300  0.25000000  0.50000000  1
  Mo  Mo3  1  0.87065700  0.75000000  0.50000000  1
  P  P0  1  0.82469700  0.49612900  0.86296800  1
  P  P1  1  0.17530300  0.99612900  0.86296800  1
  P  P2  1  0.53491300  0.99101300  0.84642400  1
  P  P3  1  0.46508700  0.49101300  0.84642400  1
  P  P4  1  0.17530300  0.50387100  0.13703200  1
  P  P5  1  0.82469700  0.00387100  0.13703200  1
  P  P6  1  0.46508700  0.00898700  0.15357600  1
  P  P7  1  0.53491300  0.50898700  0.15357600  1
  P  P8  1  0.03491300  0.50898700  0.34642400  1
  P  P9  1  0.96508700  0.00898700  0.34642400  1
  P  P10  1  0.96508700  0.49101300  0.65357600  1
  P  P11  1  0.67530300  0.50387100  0.36296800  1
  P  P12  1  0.32469700  0.49612900  0.63703200  1
  P  P13  1  0.67530300  0.99612900  0.63703200  1
  P  P14  1  0.03491300  0.99101300  0.65357600  1
  P  P15  1  0.32469700  0.00387100  0.36296800  1
  O  O0  1  0.86943400  0.87956400  0.36878100  1
  O  O1  1  0.90722500  0.62397000  0.89738300  1
  O  O2  1  0.54188800  0.87623200  0.92565000  1
  O  O3  1  0.45811200  0.37623200  0.92565000  1
  O  O4  1  0.18378500  0.62846400  0.06454800  1
  O  O5  1  0.81621500  0.12846400  0.06454800  1
  O  O6  1  0.45811200  0.12376800  0.07435000  1
  O  O7  1  0.54188800  0.62376800  0.07435000  1
  O  O8  1  0.09277500  0.37603000  0.10261700  1
  O  O9  1  0.90722500  0.87603000  0.10261700  1
  O  O10  1  0.36943400  0.87956400  0.13121900  1
  O  O11  1  0.63056600  0.37956400  0.13121900  1
  O  O12  1  0.35302500  0.46686100  0.17757500  1
  O  O13  1  0.64697500  0.96686100  0.17757500  1
  O  O14  1  0.09528000  0.57099400  0.23942700  1
  O  O15  1  0.90472000  0.07099400  0.23942700  1
  O  O16  1  0.40472000  0.07099400  0.26057300  1
  O  O17  1  0.59528000  0.57099400  0.26057300  1
  O  O18  1  0.14697500  0.96686100  0.32242500  1
  O  O19  1  0.85302500  0.46686100  0.32242500  1
  O  O20  1  0.13056600  0.37956400  0.36878100  1
  O  O21  1  0.81621500  0.37153600  0.93545200  1
  O  O22  1  0.40722500  0.87603000  0.39738300  1
  O  O23  1  0.59277500  0.37603000  0.39738300  1
  O  O24  1  0.04188800  0.62376800  0.42565000  1
  O  O25  1  0.95811200  0.12376800  0.42565000  1
  O  O26  1  0.31621500  0.12846400  0.43545200  1
  O  O27  1  0.68378500  0.62846400  0.43545200  1
  O  O28  1  0.31621500  0.37153600  0.56454800  1
  O  O29  1  0.68378500  0.87153600  0.56454800  1
  O  O30  1  0.04188800  0.87623200  0.57435000  1
  O  O31  1  0.95811200  0.37623200  0.57435000  1
  O  O32  1  0.40722500  0.62397000  0.60261700  1
  O  O33  1  0.59277500  0.12397000  0.60261700  1
  O  O34  1  0.13056600  0.12043600  0.63121900  1
  O  O35  1  0.86943400  0.62043600  0.63121900  1
  O  O36  1  0.14697500  0.53313900  0.67757500  1
  O  O37  1  0.85302500  0.03313900  0.67757500  1
  O  O38  1  0.40472000  0.42900600  0.73942700  1
  O  O39  1  0.59528000  0.92900600  0.73942700  1
  O  O40  1  0.09528000  0.92900600  0.76057300  1
  O  O41  1  0.90472000  0.42900600  0.76057300  1
  O  O42  1  0.35302500  0.03313900  0.82242500  1
  O  O43  1  0.64697500  0.53313900  0.82242500  1
  O  O44  1  0.36943400  0.62043600  0.86878100  1
  O  O45  1  0.63056600  0.12043600  0.86878100  1
  O  O46  1  0.09277500  0.12397000  0.89738300  1
  O  O47  1  0.18378500  0.87153600  0.93545200  1
loop_
_geom_bond_atom_site_label_1
_geom_bond_atom_site_label_2
_geom_bond_distance
_geom_bond_site_symmetry_2
Li0 O8 1.946398 1_555
Li0 O46 1.946398 1_554
Li0 O5 2.130109 1_455
Li0 O21 2.130109 1_454
Li1 O1 1.946398 1_554
Li1 O9 1.946398 1_555
Li1 O4 2.130109 1_655
Li1 O47 2.130109 1_654
Li2 O32 1.946398 1_555
Li2 O22 1.946398 1_555
Li2 O27 2.130109 1_555
Li2 O29 2.130109 1_555
Li3 O33 1.946398 1_555
Li3 O23 1.946398 1_555
Li3 O26 2.130109 1_555
Li3 O28 2.130109 1_555
Mo0 O7 2.109185 1_555
Mo0 O2 2.109185 1_554
Mo0 O44 2.111364 1_554
Mo0 O10 2.111364 1_555
Mo0 O4 2.121790 1_555
Mo0 O47 2.121790 1_554
Mo1 O3 2.109185 1_554
Mo1 O6 2.109185 1_555
Mo1 O45 2.111364 1_554
Mo1 O11 2.111364 1_555
Mo1 O5 2.121790 1_555
Mo1 O21 2.121790 1_554
Mo2 O31 2.109185 1_455
Mo2 O25 2.109185 1_455
Mo2 O34 2.111364 1_555
Mo2 O20 2.111364 1_555
Mo2 O26 2.121790 1_555
Mo2 O28 2.121790 1_555
Mo3 O24 2.109185 1_655
Mo3 O30 2.109185 1_655
Mo3 O35 2.111364 1_555
Mo3 O0 2.111364 1_555
Mo3 O27 2.121790 1_555
Mo3 O29 2.121790 1_555
O0 P9 1.505698 1_565
O1 P0 1.477215 1_555
O2 P2 1.509612 1_555
O3 P3 1.509612 1_555
O4 P4 1.524550 1_555
O5 P5 1.524550 1_555
O6 P6 1.509612 1_555
O7 P7 1.509612 1_555
O8 P4 1.477215 1_555
O9 P5 1.477215 1_565
O10 P6 1.505698 1_565
O11 P7 1.505698 1_555
O12 P7 1.602709 1_555
O12 P4 1.614715 1_555
O13 P6 1.602709 1_565
O13 P5 1.614715 1_565
O14 P8 1.594838 1_555
O14 P4 1.622977 1_555
O15 P9 1.594838 1_555
O15 P5 1.622977 1_555
O16 P6 1.594838 1_555
O16 P15 1.622977 1_555
O17 P7 1.594838 1_555
O17 P11 1.622977 1_555
O18 P9 1.602709 1_465
O18 P15 1.614715 1_565
O19 P8 1.602709 1_655
O19 P11 1.614715 1_555
O20 P8 1.505698 1_555
O21 P0 1.524550 1_555
O22 P15 1.477215 1_565
O23 P11 1.477215 1_555
O24 P8 1.509612 1_555
O25 P9 1.509612 1_555
O26 P15 1.524550 1_555
O27 P11 1.524550 1_555
O28 P12 1.524550 1_555
O29 P13 1.524550 1_555
O30 P14 1.509612 1_555
O31 P10 1.509612 1_555
O32 P12 1.477215 1_555
O33 P13 1.477215 1_545
O34 P14 1.505698 1_545
O35 P10 1.505698 1_555
O36 P10 1.602709 1_455
O36 P12 1.614715 1_555
O37 P14 1.602709 1_645
O37 P13 1.614715 1_545
O38 P3 1.594838 1_555
O38 P12 1.622977 1_555
O39 P2 1.594838 1_555
O39 P13 1.622977 1_555
O40 P14 1.594838 1_555
O40 P1 1.622977 1_555
O41 P10 1.594838 1_555
O41 P0 1.622977 1_555
O42 P2 1.602709 1_545
O42 P1 1.614715 1_545
O43 P3 1.602709 1_555
O43 P0 1.614715 1_555
O44 P3 1.505698 1_555
O45 P2 1.505698 1_545
O46 P1 1.477215 1_545
O47 P1 1.524550 1_555
