# generated using pymatgen
data_MgTi8(NiO3)8
_symmetry_space_group_name_H-M   'P 1'
_cell_length_a   5.61120152
_cell_length_b   11.15791002
_cell_length_c   11.22610059
_cell_angle_alpha   53.78365916
_cell_angle_beta   53.95579577
_cell_angle_gamma   54.09362883
_symmetry_Int_Tables_number   1
_chemical_formula_structural   MgTi8(NiO3)8
_chemical_formula_sum   'Mg1 Ti8 Ni8 O24'
_cell_volume   426.67630212
_cell_formula_units_Z   1
loop_
 _symmetry_equiv_pos_site_id
 _symmetry_equiv_pos_as_xyz
  1  'x, y, z'
loop_
 _atom_site_type_symbol
 _atom_site_label
 _atom_site_symmetry_multiplicity
 _atom_site_fract_x
 _atom_site_fract_y
 _atom_site_fract_z
 _atom_site_occupancy
  Mg  Mg0  1  0.99524000  0.99974600  0.50148200  1
  Ti  Ti0  1  0.35419400  0.18170200  0.16464200  1
  Ti  Ti1  1  0.18731400  0.08062000  0.59230300  1
  Ti  Ti2  1  0.14923700  0.57902500  0.06354800  1
  Ti  Ti3  1  0.13902200  0.58244700  0.56631400  1
  Ti  Ti4  1  0.83869800  0.42294600  0.43413600  1
  Ti  Ti5  1  0.86063800  0.42785000  0.92416200  1
  Ti  Ti6  1  0.84496800  0.90985500  0.39781800  1
  Ti  Ti7  1  0.82353500  0.92945400  0.93308000  1
  Ni  Ni0  1  0.14371800  0.07424800  0.07382000  1
  Ni  Ni1  1  0.35060300  0.66857800  0.17188100  1
  Ni  Ni2  1  0.36161600  0.18508800  0.68569200  1
  Ni  Ni3  1  0.64800200  0.32729900  0.32047900  1
  Ni  Ni4  1  0.34183600  0.67149000  0.67811800  1
  Ni  Ni5  1  0.65312300  0.32889100  0.82397700  1
  Ni  Ni6  1  0.65000600  0.80926700  0.31818100  1
  Ni  Ni7  1  0.63805500  0.82424000  0.83150000  1
  O  O0  1  0.06944700  0.37377000  0.21228700  1
  O  O1  1  0.41219800  0.03629100  0.37609800  1
  O  O2  1  0.72757900  0.22252800  0.03555100  1
  O  O3  1  0.23379200  0.28589200  0.47182400  1
  O  O4  1  0.56274600  0.47166700  0.11212400  1
  O  O5  1  0.04503500  0.38576700  0.72578200  1
  O  O6  1  0.05006500  0.86795500  0.21756000  1
  O  O7  1  0.94374100  0.11037800  0.29061100  1
  O  O8  1  0.46215100  0.02220800  0.87711100  1
  O  O9  1  0.43980400  0.52377100  0.38571100  1
  O  O10  1  0.78690700  0.21347900  0.52614600  1
  O  O11  1  0.76442700  0.71733000  0.02765400  1
  O  O12  1  0.22708200  0.28472600  0.97701600  1
  O  O13  1  0.21570000  0.78653600  0.47058900  1
  O  O14  1  0.56144300  0.47039400  0.61551300  1
  O  O15  1  0.56160400  0.97626900  0.11724400  1
  O  O16  1  0.06766600  0.89263200  0.70571200  1
  O  O17  1  0.94920200  0.11432300  0.78795900  1
  O  O18  1  0.94853400  0.60553000  0.27900400  1
  O  O19  1  0.43551500  0.52870700  0.88265900  1
  O  O20  1  0.74521800  0.71338000  0.53055300  1
  O  O21  1  0.22233600  0.77759500  0.97117700  1
  O  O22  1  0.58753700  0.96901500  0.61244900  1
  O  O23  1  0.94097000  0.61735500  0.78078300  1
loop_
_geom_bond_atom_site_label_1
_geom_bond_atom_site_label_2
_geom_bond_distance
_geom_bond_site_symmetry_2
Mg0 O22 1.991124 1_555
Mg0 O16 2.034429 1_655
Mg0 O7 2.035871 1_565
Mg0 O1 2.046139 1_665
Mg0 O10 2.063974 1_565
Mg0 O13 2.080469 1_655
Ni0 O8 2.015226 1_554
Ni0 O2 2.045379 1_455
Ni0 O6 2.051848 1_545
Ni0 O12 2.142354 1_554
Ni0 O15 2.154011 1_545
Ni0 O7 2.181657 1_455
Ni1 O6 1.996462 1_555
Ni1 O11 2.079833 1_555
Ni1 O4 2.104424 1_555
Ni1 O9 2.122650 1_555
Ni1 O18 2.167963 1_455
Ni1 O21 2.171890 1_554
Ni2 O8 1.961649 1_555
Ni2 O5 1.989091 1_555
Ni2 O10 2.046813 1_555
Ni2 O17 2.289586 1_455
Ni2 O3 2.330906 1_555
Ni2 O22 2.372062 1_545
Ni3 O3 2.046195 1_555
Ni3 O4 2.062842 1_555
Ni3 O7 2.077883 1_555
Ni3 O9 2.143175 1_555
Ni3 O0 2.156463 1_655
Ni3 O10 2.245648 1_555
Ni4 O20 1.999826 1_555
Ni4 O19 2.049963 1_555
Ni4 O16 2.107394 1_555
Ni4 O23 2.114918 1_455
Ni4 O14 2.155990 1_555
Ni4 O13 2.217510 1_555
Ni5 O14 2.081365 1_555
Ni5 O17 2.084112 1_555
Ni5 O5 2.100330 1_655
Ni5 O12 2.111267 1_555
Ni5 O2 2.116520 1_556
Ni5 O19 2.119333 1_555
Ni6 O18 2.003790 1_555
Ni6 O15 2.018001 1_555
Ni6 O13 2.058138 1_555
Ni6 O6 2.147090 1_655
Ni6 O20 2.220006 1_555
Ni6 O1 2.362311 1_565
Ni7 O8 2.073683 1_565
Ni7 O22 2.079935 1_555
Ni7 O21 2.079950 1_555
Ni7 O23 2.086629 1_555
Ni7 O11 2.125137 1_556
Ni7 O16 2.294753 1_655
O0 Ti0 1.940173 1_555
O0 Ti2 2.009406 1_555
O0 Ti4 2.273057 1_455
O1 Ti0 2.027824 1_555
O1 Ti6 2.053950 1_545
O1 Ti1 2.193221 1_555
O2 Ti0 1.861050 1_555
O2 Ti5 2.211779 1_554
O3 Ti1 1.941187 1_555
O3 Ti4 1.948132 1_455
O4 Ti5 1.896122 1_554
O4 Ti2 2.138471 1_555
O5 Ti3 1.975600 1_555
O5 Ti5 2.050575 1_455
O6 Ti6 1.839615 1_455
O7 Ti6 2.061362 1_545
O7 Ti0 2.219166 1_655
O8 Ti7 1.961444 1_545
O9 Ti3 1.906131 1_555
O9 Ti4 2.080092 1_555
O10 Ti4 2.050520 1_555
O10 Ti1 2.133821 1_655
O11 Ti2 1.893919 1_655
O11 Ti7 2.091934 1_554
O12 Ti5 1.896007 1_455
O12 Ti0 2.052272 1_556
O13 Ti6 2.049977 1_455
O13 Ti3 2.058880 1_555
O14 Ti4 1.851069 1_555
O14 Ti3 2.176041 1_555
O15 Ti7 1.872720 1_554
O15 Ti0 2.115481 1_565
O16 Ti1 1.990374 1_565
O16 Ti7 2.241576 1_455
O17 Ti1 1.919406 1_655
O17 Ti7 1.946640 1_545
O18 Ti4 1.892161 1_555
O18 Ti2 2.110699 1_655
O19 Ti2 1.862762 1_556
O19 Ti5 2.171072 1_555
O20 Ti3 1.934618 1_655
O20 Ti6 1.984245 1_555
O21 Ti7 1.970808 1_455
O21 Ti2 2.000754 1_556
O22 Ti1 1.905237 1_565
O22 Ti6 2.234504 1_555
O23 Ti5 1.872791 1_555
O23 Ti3 2.152950 1_655
