# generated using pymatgen
data_Na3ZrTiSi2PO12
_symmetry_space_group_name_H-M   'P 1'
_cell_length_a   9.05767332
_cell_length_b   9.06996164
_cell_length_c   22.28122718
_cell_angle_alpha   89.68353548
_cell_angle_beta   90.39946499
_cell_angle_gamma   119.85115056
_symmetry_Int_Tables_number   1
_chemical_formula_structural   Na3ZrTiSi2PO12
_chemical_formula_sum   'Na18 Zr6 Ti6 Si12 P6 O72'
_cell_volume   1587.55769736
_cell_formula_units_Z   6
loop_
 _symmetry_equiv_pos_site_id
 _symmetry_equiv_pos_as_xyz
  1  'x, y, z'
loop_
 _atom_site_type_symbol
 _atom_site_label
 _atom_site_symmetry_multiplicity
 _atom_site_fract_x
 _atom_site_fract_y
 _atom_site_fract_z
 _atom_site_occupancy
  Na  Na0  1  0.99762710  0.98598222  0.50017904  1
  Na  Na1  1  0.00365629  0.99804026  0.99760440  1
  Na  Na2  1  0.66667266  0.32307951  0.83946108  1
  Na  Na3  1  0.67002504  0.33096567  0.32717725  1
  Na  Na4  1  0.33567911  0.65962999  0.16666746  1
  Na  Na5  1  0.34930976  0.66762093  0.67337657  1
  Na  Na6  1  0.64084087  0.00302817  0.24616725  1
  Na  Na7  1  0.99812582  0.63832930  0.25347135  1
  Na  Na8  1  0.00480888  0.36931414  0.75546377  1
  Na  Na9  1  0.37073425  0.99882708  0.75860176  1
  Na  Na10  1  0.30637339  0.33439027  0.58567578  1
  Na  Na11  1  0.66151541  0.96441600  0.58792334  1
  Na  Na12  1  0.66376700  0.70860595  0.07846182  1
  Na  Na13  1  0.04091557  0.33710967  0.08405015  1
  Na  Na14  1  0.95809384  0.66531884  0.91478251  1
  Na  Na15  1  0.33408010  0.29546019  0.92079433  1
  Na  Na16  1  0.32964106  0.02869203  0.41563190  1
  Na  Na17  1  0.70395992  0.67141527  0.41704329  1
  Zr  Zr0  1  0.99459892  0.00205877  0.34956860  1
  Zr  Zr1  1  0.99521911  0.99091674  0.64955083  1
  Zr  Zr2  1  0.00712822  0.00509877  0.14406509  1
  Zr  Zr3  1  0.66288654  0.33676648  0.69190252  1
  Zr  Zr4  1  0.67551272  0.33741954  0.47682327  1
  Zr  Zr5  1  0.32925700  0.67112420  0.52159706  1
  Ti  Ti0  1  0.00283214  0.01230224  0.85696749  1
  Ti  Ti1  1  0.67032717  0.34712577  0.18295344  1
  Ti  Ti2  1  0.66174016  0.32350292  0.97966320  1
  Ti  Ti3  1  0.31944702  0.66200163  0.02053057  1
  Ti  Ti4  1  0.32820923  0.66027146  0.31133718  1
  Ti  Ti5  1  0.34188927  0.67247670  0.81802009  1
  Si  Si0  1  0.69595085  0.69964939  0.24642051  1
  Si  Si1  1  0.00167300  0.30395294  0.24303801  1
  Si  Si2  1  0.29119204  0.29828523  0.75489361  1
  Si  Si3  1  0.70401316  0.99029283  0.75285271  1
  Si  Si4  1  0.37060910  0.04025916  0.58406306  1
  Si  Si5  1  0.67150931  0.62983333  0.57980931  1
  Si  Si6  1  0.95480360  0.62139052  0.07917651  1
  Si  Si7  1  0.37985927  0.33528371  0.07781860  1
  Si  Si8  1  0.04000607  0.37650115  0.91730602  1
  Si  Si9  1  0.33534033  0.95731442  0.91696819  1
  Si  Si10  1  0.62240299  0.95746342  0.41373185  1
  Si  Si11  1  0.03948651  0.66458976  0.41018531  1
  P  P0  1  0.30395614  0.00501317  0.25094521  1
  P  P1  1  0.00523729  0.70942932  0.75941693  1
  P  P2  1  0.96018019  0.33416775  0.58881586  1
  P  P3  1  0.65701108  0.04155154  0.08368817  1
  P  P4  1  0.62554618  0.67152705  0.92067370  1
  P  P5  1  0.32895037  0.37602651  0.41607776  1
  O  O0  1  0.22600828  0.02248861  0.31032558  1
  O  O1  1  0.82338009  0.78440667  0.30499467  1
  O  O2  1  0.97151090  0.16892883  0.29724505  1
  O  O3  1  0.19129363  0.17012331  0.81271363  1
  O  O4  1  0.99343849  0.79493500  0.81705563  1
  O  O5  1  0.83675136  0.00417317  0.80712316  1
  O  O6  1  0.78263976  0.97446943  0.68890921  1
  O  O7  1  0.17676677  0.20878671  0.69447745  1
  O  O8  1  0.01831258  0.82141779  0.70432893  1
  O  O9  1  0.78949976  0.82523778  0.18850063  1
  O  O10  1  0.02540078  0.22081799  0.18122062  1
  O  O11  1  0.17829267  0.98137735  0.19864374  1
  O  O12  1  0.88023782  0.34506532  0.64821953  1
  O  O13  1  0.48697059  0.13333570  0.64409794  1
  O  O14  1  0.66405303  0.51053145  0.63642970  1
  O  O15  1  0.86421146  0.50291304  0.13931074  1
  O  O16  1  0.64909347  0.12658817  0.14223559  1
  O  O17  1  0.50502091  0.34667592  0.13392883  1
  O  O18  1  0.47278838  0.32166677  0.01664020  1
  O  O19  1  0.83579971  0.51986117  0.02098713  1
  O  O20  1  0.67246197  0.15902536  0.02960012  1
  O  O21  1  0.46721661  0.15157300  0.52374002  1
  O  O22  1  0.68233617  0.54432794  0.51661269  1
  O  O23  1  0.84790328  0.32543821  0.53451561  1
  O  O24  1  0.54201911  0.68399153  0.97923272  1
  O  O25  1  0.16496027  0.46528158  0.97696446  1
  O  O26  1  0.31499085  0.82514379  0.97239780  1
  O  O27  1  0.53699821  0.84976432  0.47585245  1
  O  O28  1  0.31781264  0.45249194  0.47647015  1
  O  O29  1  0.15149585  0.67337437  0.46905207  1
  O  O30  1  0.14056416  0.66044601  0.34968860  1
  O  O31  1  0.50296522  0.84804548  0.35614955  1
  O  O32  1  0.33451639  0.49066025  0.36321379  1
  O  O33  1  0.13981028  0.50046079  0.85984714  1
  O  O34  1  0.35202341  0.86616638  0.85584178  1
  O  O35  1  0.50580354  0.65698928  0.86721710  1
  O  O36  1  0.02744999  0.83951337  0.41267698  1
  O  O37  1  0.81028859  0.97283840  0.41092441  1
  O  O38  1  0.17722724  0.19291966  0.41162546  1
  O  O39  1  0.02557536  0.18750042  0.91203947  1
  O  O40  1  0.16132837  0.97351926  0.91648347  1
  O  O41  1  0.80776717  0.82628917  0.91505668  1
  O  O42  1  0.96805198  0.16722132  0.58565130  1
  O  O43  1  0.18798345  0.03467890  0.58639524  1
  O  O44  1  0.83252813  0.82273364  0.58372627  1
  O  O45  1  0.96461963  0.80572638  0.08278060  1
  O  O46  1  0.82358968  0.02844945  0.08102188  1
  O  O47  1  0.18744784  0.17081658  0.08089654  1
  O  O48  1  0.69668722  0.16834162  0.75498032  1
  O  O49  1  0.47579238  0.30566375  0.75317559  1
  O  O50  1  0.84951464  0.52738607  0.75475450  1
  O  O51  1  0.68375501  0.51345917  0.23883894  1
  O  O52  1  0.82682961  0.31747578  0.24166896  1
  O  O53  1  0.48254889  0.15990339  0.24289634  1
  O  O54  1  0.63942970  0.50625477  0.91760681  1
  O  O55  1  0.85268343  0.36069990  0.92222823  1
  O  O56  1  0.50112537  0.14979119  0.92205686  1
  O  O57  1  0.62997210  0.14144147  0.41375842  1
  O  O58  1  0.49603667  0.36636281  0.41289274  1
  O  O59  1  0.84706592  0.50053528  0.41114047  1
  O  O60  1  0.36623588  0.51058039  0.07919699  1
  O  O61  1  0.14408513  0.63568229  0.07612095  1
  O  O62  1  0.50339942  0.85965098  0.07872969  1
  O  O63  1  0.35687019  0.85330149  0.58369565  1
  O  O64  1  0.49308022  0.63556683  0.58372787  1
  O  O65  1  0.14268024  0.48623948  0.58491628  1
  O  O66  1  0.31819276  0.84069738  0.25010007  1
  O  O67  1  0.51098580  0.68655166  0.25412027  1
  O  O68  1  0.16623860  0.49426622  0.25222064  1
  O  O69  1  0.30530928  0.48410227  0.76104439  1
  O  O70  1  0.16901306  0.69430689  0.75644307  1
  O  O71  1  0.51066161  0.82873004  0.75922998  1
loop_
_geom_bond_atom_site_label_1
_geom_bond_atom_site_label_2
_geom_bond_distance
_geom_bond_site_symmetry_2
Na0 O44 2.387062 1_555
Na0 O36 2.456040 1_655
Na0 O43 2.462363 1_665
Na0 O37 2.569561 1_555
Na0 O42 2.623137 1_565
Na0 O38 2.650758 1_665
Na1 O40 2.390114 1_555
Na1 O47 2.462369 1_566
Na1 O45 2.475502 1_456
Na1 O41 2.488439 1_455
Na1 O39 2.501294 1_565
Na1 O46 2.585824 1_466
Na2 O55 2.397351 1_555
Na2 O56 2.401238 1_555
Na2 O48 2.450094 1_555
Na2 O54 2.509760 1_555
Na2 O49 2.528927 1_555
Na2 O50 2.586230 1_555
Na3 O52 2.423918 1_555
Na3 O59 2.443676 1_555
Na3 O57 2.482009 1_555
Na3 O53 2.486394 1_555
Na3 O51 2.528209 1_555
Na3 O58 2.605102 1_555
Na4 O67 2.440074 1_555
Na4 O68 2.440568 1_555
Na4 O60 2.472180 1_555
Na4 O66 2.544550 1_555
Na4 O62 2.587820 1_555
Na4 O61 2.590331 1_555
Na5 O71 2.407562 1_555
Na5 O69 2.461612 1_555
Na5 O64 2.487937 1_555
Na5 O70 2.567417 1_555
Na5 O63 2.585279 1_555
Na5 O65 2.648277 1_555
Na6 O53 2.472593 1_555
Na6 O52 2.489639 1_555
Na6 O67 2.508090 1_545
Na6 O66 2.536695 1_545
Na6 O16 2.552343 1_555
Na6 O31 2.792444 1_545
Na6 O2 2.831064 1_555
Na6 O9 2.876258 1_545
Na7 O68 2.451210 1_655
Na7 O30 2.451396 1_655
Na7 O51 2.505551 1_555
Na7 O52 2.540315 1_555
Na7 O66 2.546269 1_655
Na7 O1 2.776382 1_555
Na7 O15 2.821046 1_555
Na7 O11 2.961015 1_655
Na8 O69 2.384007 1_555
Na8 O50 2.457909 1_455
Na8 O48 2.459100 1_455
Na8 O70 2.556802 1_555
Na8 O12 2.598562 1_455
Na8 O33 2.619613 1_555
Na9 O71 2.435721 1_555
Na9 O34 2.438047 1_555
Na9 O70 2.438389 1_555
Na9 O49 2.454946 1_565
Na9 O48 2.563211 1_565
Na9 O13 2.798267 1_565
Na10 O43 2.374358 1_555
Na10 O64 2.392633 1_555
Na10 O65 2.475425 1_555
Na10 O28 2.634962 1_555
Na10 O42 2.657837 1_455
Na10 O7 2.688993 1_555
Na11 O63 2.422342 1_555
Na11 O42 2.451898 1_565
Na11 O44 2.458524 1_555
Na11 O6 2.478530 1_555
Na11 O64 2.589140 1_555
Na11 O27 2.722250 1_555
Na12 O60 2.381310 1_555
Na12 O45 2.412186 1_555
Na12 O24 2.424987 1_554
Na12 O62 2.442948 1_555
Na12 O46 2.516856 1_565
Na12 O9 2.686587 1_555
Na13 O10 2.377244 1_555
Na13 O61 2.390766 1_555
Na13 O47 2.456967 1_555
Na13 O46 2.496212 1_455
Na13 O60 2.560699 1_555
Na13 O25 2.648261 1_554
Na14 O4 2.415104 1_555
Na14 O55 2.437977 1_555
Na14 O41 2.442296 1_555
Na14 O40 2.466118 1_655
Na14 O54 2.504502 1_555
Na14 O19 2.667303 1_556
Na15 O18 2.422089 1_556
Na15 O56 2.454533 1_555
Na15 O54 2.459068 1_555
Na15 O39 2.464918 1_555
Na15 O40 2.537033 1_545
Na15 O3 2.699529 1_555
Na16 O57 2.383133 1_555
Na16 O36 2.400791 1_545
Na16 O38 2.485236 1_555
Na16 O0 2.511537 1_555
Na16 O58 2.656922 1_555
Na16 O21 2.683734 1_555
Na17 O37 2.407675 1_555
Na17 O58 2.454334 1_555
Na17 O22 2.458039 1_555
Na17 O59 2.470649 1_555
Na17 O36 2.544492 1_655
Na17 O1 2.712758 1_555
O0 P0 1.549467 1_555
O0 Zr0 2.197578 1_455
O1 Si0 1.653255 1_555
O1 Zr0 2.059368 1_565
O2 Si1 1.639637 1_655
O2 Zr0 1.996444 1_555
O3 Si2 1.668031 1_555
O3 Ti0 1.873652 1_555
O4 P1 1.535455 1_655
O4 Ti0 2.129848 1_665
O5 Si3 1.659607 1_545
O5 Ti0 1.835479 1_655
O6 Si3 1.635796 1_555
O6 Zr1 2.057890 1_555
O7 Si2 1.643263 1_555
O7 Zr1 2.091658 1_445
O8 P1 1.555898 1_555
O8 Zr1 2.047611 1_455
O9 Si0 1.648973 1_555
O9 Zr2 2.082142 1_665
O10 Si1 1.639762 1_555
O10 Zr2 2.057796 1_555
O11 P0 1.562330 1_565
O11 Zr2 2.057088 1_565
O12 P2 1.540135 1_555
O12 Zr3 2.169599 1_555
O13 Si4 1.649209 1_555
O13 Zr3 2.036948 1_555
O14 Si5 1.637176 1_555
O14 Zr3 1.993441 1_555
O15 Si6 1.656780 1_555
O15 Ti1 1.888002 1_555
O16 P3 1.539233 1_555
O16 Ti1 2.120328 1_555
O17 Si7 1.650441 1_555
O17 Ti1 1.845600 1_555
O18 Si7 1.644147 1_555
O18 Ti2 1.897187 1_554
O19 Si6 1.642079 1_555
O19 Ti2 1.925587 1_554
O20 P3 1.564272 1_555
O20 Ti2 1.896654 1_554
O21 Si4 1.647263 1_555
O21 Zr4 2.082256 1_555
O22 Si5 1.638141 1_555
O22 Zr4 2.052748 1_555
O23 P2 1.551785 1_555
O23 Zr4 2.059550 1_555
O24 P4 1.545355 1_555
O24 Ti3 2.138749 1_556
O25 Si8 1.667301 1_555
O25 Ti3 1.896990 1_556
O26 Si9 1.662297 1_555
O26 Ti3 1.839186 1_556
O27 Si10 1.648075 1_555
O27 Zr5 2.044060 1_555
O28 P5 1.543927 1_555
O28 Zr5 2.184014 1_555
O29 Si11 1.630378 1_555
O29 Zr5 1.992412 1_555
O30 Si11 1.645774 1_555
O30 Ti4 1.908371 1_555
O31 Si10 1.651443 1_555
O31 Ti4 1.927720 1_555
O32 P5 1.551152 1_555
O32 Ti4 1.942372 1_555
O33 Si8 1.645835 1_555
O33 Ti5 1.953926 1_555
O34 Si9 1.643447 1_555
O34 Ti5 1.912991 1_555
O35 P4 1.566443 1_555
O35 Ti5 1.899690 1_555
O36 Si11 1.644798 1_555
O36 Zr0 2.155741 1_465
O37 Si10 1.638488 1_555
O37 Zr0 2.076896 1_565
O38 P5 1.544169 1_555
O38 Zr0 2.188331 1_455
O39 Si8 1.657827 1_555
O39 Ti0 1.940447 1_555
O40 Si9 1.654178 1_555
O40 Ti0 2.101007 1_565
O41 P4 1.550720 1_555
O41 Ti0 2.164170 1_665
O42 P2 1.552925 1_555
O42 Zr1 2.237491 1_545
O43 Si4 1.630749 1_555
O43 Zr1 2.127065 1_445
O44 Si5 1.629569 1_555
O44 Zr1 2.099120 1_555
O45 Si6 1.631891 1_555
O45 Zr2 2.146998 1_665
O46 P3 1.572893 1_555
O46 Zr2 2.257502 1_655
O47 Si7 1.636993 1_555
O47 Zr2 2.114847 1_555
O48 Si3 1.649880 1_545
O48 Zr3 2.199652 1_555
O49 Si2 1.640477 1_555
O49 Zr3 2.089822 1_555
O50 P1 1.551749 1_655
O50 Zr3 2.211817 1_555
O51 Si0 1.646134 1_555
O51 Ti1 1.917622 1_555
O52 Si1 1.648226 1_655
O52 Ti1 2.035446 1_555
O53 P0 1.536707 1_555
O53 Ti1 2.166022 1_555
O54 P4 1.567301 1_555
O54 Ti2 2.237050 1_555
O55 Si8 1.634544 1_655
O55 Ti2 2.046439 1_555
O56 Si9 1.644855 1_545
O56 Ti2 1.990176 1_555
O57 Si10 1.635633 1_545
O57 Zr4 2.143312 1_555
O58 P5 1.561011 1_555
O58 Zr4 2.264746 1_555
O59 Si11 1.634207 1_655
O59 Zr4 2.112907 1_555
O60 Si7 1.655283 1_555
O60 Ti3 2.079981 1_555
O61 Si6 1.655618 1_455
O61 Ti3 1.939277 1_555
O62 P3 1.544258 1_565
O62 Ti3 2.166442 1_555
O63 Si4 1.637382 1_565
O63 Zr5 2.077558 1_555
O64 Si5 1.645588 1_555
O64 Zr5 2.159881 1_555
O65 P2 1.540592 1_455
O65 Zr5 2.200990 1_555
O66 P0 1.558765 1_565
O66 Ti4 2.160861 1_555
O67 Si0 1.629726 1_555
O67 Ti4 2.013978 1_555
O68 Si1 1.637536 1_555
O68 Ti4 1.987538 1_555
O69 Si2 1.631968 1_555
O69 Ti5 2.023628 1_555
O70 P1 1.558134 1_555
O70 Ti5 2.156203 1_555
O71 Si3 1.637377 1_555
O71 Ti5 1.977864 1_555
