# generated using pymatgen
data_MgCr2(FeO3)2
_symmetry_space_group_name_H-M   'P 1'
_cell_length_a   5.24115266
_cell_length_b   5.41781509
_cell_length_c   5.67681327
_cell_angle_alpha   63.91859934
_cell_angle_beta   64.82986352
_cell_angle_gamma   58.53342511
_symmetry_Int_Tables_number   1
_chemical_formula_structural   MgCr2(FeO3)2
_chemical_formula_sum   'Mg1 Cr2 Fe2 O6'
_cell_volume   119.38899864
_cell_formula_units_Z   1
loop_
 _symmetry_equiv_pos_site_id
 _symmetry_equiv_pos_as_xyz
  1  'x, y, z'
loop_
 _atom_site_type_symbol
 _atom_site_label
 _atom_site_symmetry_multiplicity
 _atom_site_fract_x
 _atom_site_fract_y
 _atom_site_fract_z
 _atom_site_occupancy
  Mg  Mg0  1  0.22004603  0.22084916  0.37452764  1
  Cr  Cr0  1  0.47782204  0.47261642  0.56833721  1
  Cr  Cr1  1  0.66684716  0.66336443  0.00280847  1
  Fe  Fe0  1  0.00941409  0.01599242  0.94210291  1
  Fe  Fe1  1  0.84389132  0.85054722  0.46092637  1
  O  O0  1  0.87495121  0.26673950  0.27112790  1
  O  O1  1  0.26481982  0.61157570  0.24729855  1
  O  O2  1  0.61619356  0.92043150  0.20866318  1
  O  O3  1  0.04776782  0.74458549  0.75134017  1
  O  O4  1  0.78027698  0.45049551  0.72722126  1
  O  O5  1  0.43546997  0.03280265  0.71945635  1
loop_
_geom_bond_atom_site_label_1
_geom_bond_atom_site_label_2
_geom_bond_distance
_geom_bond_site_symmetry_2
Mg0 O0 1.995749 1_455
Mg0 O2 2.000784 1_545
Mg0 O1 2.021877 1_555
Mg0 O5 2.252205 1_555
Mg0 O4 2.477965 1_455
Cr0 O3 2.053699 1_555
Cr0 O4 2.064847 1_555
Cr0 O0 2.160296 1_555
Cr0 O1 2.186606 1_555
Cr0 O5 2.248531 1_555
Cr0 O2 2.608220 1_555
Cr1 O2 2.038877 1_555
Cr1 O3 2.039098 1_654
Cr1 O4 2.051967 1_554
Cr1 O0 2.053182 1_555
Cr1 O1 2.057200 1_555
Cr1 O5 2.087688 1_564
Fe0 O4 2.059498 1_455
Fe0 O3 2.069229 1_545
Fe0 O5 2.074258 1_555
Fe0 O2 2.139538 1_446
Fe0 O1 2.273135 1_546
Fe0 O0 2.437797 1_456
Fe1 O5 2.026418 1_565
Fe1 O2 2.030652 1_555
Fe1 O1 2.033933 1_655
Fe1 O3 2.053088 1_655
Fe1 O0 2.090345 1_565
Fe1 O4 2.130442 1_555
