# generated using pymatgen
data_K2La2MgTi3O10
_symmetry_space_group_name_H-M   'P 1'
_cell_length_a   3.96177029
_cell_length_b   3.96176984
_cell_length_c   16.66835632
_cell_angle_alpha   96.82522577
_cell_angle_beta   96.82522402
_cell_angle_gamma   90.00000567
_symmetry_Int_Tables_number   1
_chemical_formula_structural   K2La2MgTi3O10
_chemical_formula_sum   'K2 La2 Mg1 Ti3 O10'
_cell_volume   257.89883595
_cell_formula_units_Z   1
loop_
 _symmetry_equiv_pos_site_id
 _symmetry_equiv_pos_as_xyz
  1  'x, y, z'
loop_
 _atom_site_type_symbol
 _atom_site_label
 _atom_site_symmetry_multiplicity
 _atom_site_fract_x
 _atom_site_fract_y
 _atom_site_fract_z
 _atom_site_occupancy
  K  K0  1  0.28823000  0.28823000  0.57646000  1
  K  K1  1  0.71177000  0.71177000  0.42354000  1
  La  La0  1  0.40713000  0.40713000  0.81426100  1
  La  La1  1  0.59287000  0.59287000  0.18573900  1
  Mg  Mg0  1  0.50000000  0.50000000  0.00000000  1
  Ti  Ti0  1  0.14992600  0.14992600  0.29985100  1
  Ti  Ti1  1  0.85007400  0.85007400  0.70014900  1
  Ti  Ti2  1  0.00000000  0.00000000  0.00000000  1
  O  O0  1  0.79653100  0.79653100  0.59306300  1
  O  O1  1  0.20346900  0.20346900  0.40693700  1
  O  O2  1  0.86425300  0.36425300  0.72850700  1
  O  O3  1  0.36425300  0.86425300  0.72850700  1
  O  O4  1  0.13574700  0.63574700  0.27149300  1
  O  O5  1  0.63574700  0.13574700  0.27149300  1
  O  O6  1  0.93578100  0.93578100  0.87156300  1
  O  O7  1  0.50000000  0.00000000  0.00000000  1
  O  O8  1  0.00000000  0.50000000  0.00000000  1
  O  O9  1  0.06421900  0.06421900  0.12843700  1
loop_
_geom_bond_atom_site_label_1
_geom_bond_atom_site_label_2
_geom_bond_distance
_geom_bond_site_symmetry_2
K0 O1 2.785476 1_555
K0 O0 2.814644 1_555
K0 O0 2.814647 1_455
K0 O0 2.814647 1_545
K0 O0 2.814649 1_445
K0 O3 3.188341 1_555
K0 O2 3.188341 1_555
K0 O3 3.188344 1_545
K0 O2 3.188344 1_455
K1 O0 2.785476 1_555
K1 O1 2.814644 1_555
K1 O1 2.814647 1_655
K1 O1 2.814647 1_565
K1 O1 2.814649 1_665
K1 O5 3.188341 1_555
K1 O4 3.188341 1_555
K1 O5 3.188344 1_565
K1 O4 3.188344 1_655
La0 O3 2.430908 1_545
La0 O3 2.430909 1_555
La0 O2 2.430909 1_455
La0 O2 2.430909 1_555
La1 O5 2.430908 1_565
La1 O5 2.430909 1_555
La1 O4 2.430909 1_655
La1 O4 2.430909 1_555
Mg0 O7 1.980885 1_555
Mg0 O7 1.980885 1_565
Mg0 O8 1.980885 1_655
Mg0 O8 1.980885 1_555
O0 Ti1 1.759558 1_555
O1 Ti0 1.759558 1_555
O2 Ti1 2.034950 1_545
O2 Ti1 2.034950 1_555
O3 Ti1 2.034950 1_455
O3 Ti1 2.034950 1_555
O4 Ti0 2.034950 1_565
O4 Ti0 2.034950 1_555
O5 Ti0 2.034950 1_655
O5 Ti0 2.034950 1_555
O6 Ti2 2.110382 1_666
O7 Ti2 1.980885 1_655
O7 Ti2 1.980885 1_555
O8 Ti2 1.980885 1_565
O8 Ti2 1.980885 1_555
O9 Ti2 2.110382 1_555
