# generated using pymatgen
data_DyInAu
_symmetry_space_group_name_H-M   'P 1'
_cell_length_a   7.66342097
_cell_length_b   7.66342097
_cell_length_c   4.01368332
_cell_angle_alpha   90.00000000
_cell_angle_beta   90.00000000
_cell_angle_gamma   119.99999873
_symmetry_Int_Tables_number   1
_chemical_formula_structural   DyInAu
_chemical_formula_sum   'Dy3 In3 Au3'
_cell_volume   204.13576812
_cell_formula_units_Z   3
loop_
 _symmetry_equiv_pos_site_id
 _symmetry_equiv_pos_as_xyz
  1  'x, y, z'
loop_
 _atom_site_type_symbol
 _atom_site_label
 _atom_site_symmetry_multiplicity
 _atom_site_fract_x
 _atom_site_fract_y
 _atom_site_fract_z
 _atom_site_occupancy
  Dy  Dy0  1  0.59393169  0.00000000  0.50000000  1
  Dy  Dy1  1  0.40606831  0.40606831  0.50000000  1
  Dy  Dy2  1  0.00000000  0.59393169  0.50000000  1
  In  In0  1  0.74111255  0.74111255  -0.00000000  1
  In  In1  1  -0.00000000  0.25888745  0.00000000  1
  In  In2  1  0.25888745  -0.00000000  -0.00000000  1
  Au  Au0  1  0.33333300  0.66666700  0.00000000  1
  Au  Au1  1  0.66666700  0.33333300  0.00000000  1
  Au  Au2  1  -0.00000000  0.00000000  0.50000000  1
loop_
_geom_bond_atom_site_label_1
_geom_bond_atom_site_label_2
_geom_bond_distance
_geom_bond_site_symmetry_2
Dy0 In2 3.258820 1_556
Dy0 In2 3.258820 1_555
Dy0 In0 3.387246 1_545
Dy0 In0 3.387246 1_546
Dy0 In1 3.387246 1_655
Dy0 In1 3.387246 1_656
Dy1 In0 3.258820 1_555
Dy1 In0 3.258820 1_556
Dy1 In1 3.387246 1_555
Dy1 In1 3.387246 1_556
Dy1 In2 3.387246 1_556
Dy1 In2 3.387246 1_555
Dy2 In1 3.258820 1_555
Dy2 In1 3.258820 1_556
Dy2 In0 3.387246 1_455
Dy2 In0 3.387246 1_456
Dy2 In2 3.387246 1_566
Dy2 In2 3.387246 1_565
In0 In2 3.436326 1_665
In0 In1 3.436326 1_665
In1 In2 3.436326 1_555
Au0 In2 2.882386 1_565
Au0 In1 2.882391 1_555
Au0 In0 2.882393 1_555
Au0 Dy2 3.072388 1_555
Au0 Dy2 3.072388 1_554
Au0 Dy0 3.072390 1_564
Au0 Dy0 3.072390 1_565
Au0 Dy1 3.072393 1_555
Au0 Dy1 3.072393 1_554
Au1 In1 2.882386 1_655
Au1 In2 2.882391 1_555
Au1 In0 2.882393 1_555
Au1 Dy0 3.072388 1_555
Au1 Dy0 3.072388 1_554
Au1 Dy2 3.072390 1_655
Au1 Dy2 3.072390 1_654
Au1 Dy1 3.072393 1_555
Au1 Dy1 3.072393 1_554
Au2 In1 2.821972 1_555
Au2 In1 2.821972 1_556
Au2 In2 2.821972 1_556
Au2 In2 2.821972 1_555
Au2 In0 2.821972 1_446
Au2 In0 2.821972 1_445
Au2 Dy0 3.111872 1_455
Au2 Dy2 3.111872 1_545
Au2 Dy1 3.111872 1_555
