# generated using pymatgen
data_Cd3(ClO)2
_symmetry_space_group_name_H-M   'P 1'
_cell_length_a   6.42980030
_cell_length_b   6.69893366
_cell_length_c   6.75183008
_cell_angle_alpha   90.00000000
_cell_angle_beta   90.00000000
_cell_angle_gamma   115.84082520
_symmetry_Int_Tables_number   1
_chemical_formula_structural   Cd3(ClO)2
_chemical_formula_sum   'Cd6 Cl4 O4'
_cell_volume   261.74068903
_cell_formula_units_Z   2
loop_
 _symmetry_equiv_pos_site_id
 _symmetry_equiv_pos_as_xyz
  1  'x, y, z'
loop_
 _atom_site_type_symbol
 _atom_site_label
 _atom_site_symmetry_multiplicity
 _atom_site_fract_x
 _atom_site_fract_y
 _atom_site_fract_z
 _atom_site_occupancy
  Cd  Cd0  1  0.58772293  0.22934915  0.87294971  1
  Cd  Cd1  1  0.41227707  0.27065085  0.37294971  1
  Cd  Cd2  1  0.41227707  0.77065085  0.12705029  1
  Cd  Cd3  1  0.58772293  0.72934915  0.62705029  1
  Cd  Cd4  1  0.00000000  0.50000000  0.50000000  1
  Cd  Cd5  1  0.00000000  0.00000000  0.00000000  1
  Cl  Cl0  1  0.19162742  0.93321127  0.63577255  1
  Cl  Cl1  1  0.80837258  0.56678873  0.13577255  1
  Cl  Cl2  1  0.19162742  0.43321127  0.86422745  1
  Cl  Cl3  1  0.80837258  0.06678873  0.36422745  1
  O  O0  1  0.66747016  0.43663308  0.61362801  1
  O  O1  1  0.33252984  0.06336692  0.11362801  1
  O  O2  1  0.33252984  0.56336692  0.38637199  1
  O  O3  1  0.66747016  0.93663308  0.88637199  1
loop_
_geom_bond_atom_site_label_1
_geom_bond_atom_site_label_2
_geom_bond_distance
_geom_bond_site_symmetry_2
Cd0 O0 2.153144 1_555
Cd0 O1 2.231348 1_556
Cd0 O3 2.234438 1_545
Cd0 Cl1 2.734203 1_556
Cd0 Cl0 2.929468 1_545
Cd1 O1 2.153144 1_555
Cd1 O0 2.231348 1_555
Cd1 O2 2.234438 1_555
Cd1 Cl0 2.734203 1_545
Cd1 Cl1 2.929468 1_555
Cd2 O2 2.153144 1_555
Cd2 O3 2.231348 1_554
Cd2 O1 2.234438 1_565
Cd2 Cl2 2.734203 1_554
Cd2 Cl3 2.929468 1_565
Cd3 O3 2.153144 1_555
Cd3 O2 2.231348 1_555
Cd3 O0 2.234438 1_555
Cd3 Cl3 2.734203 1_565
Cd3 Cl2 2.929468 1_555
Cd4 O0 2.132852 1_455
Cd4 O2 2.132852 1_555
Cd4 Cl0 2.768270 1_555
Cd4 Cl3 2.768270 1_455
Cd4 Cl1 2.871681 1_455
Cd4 Cl2 2.871681 1_555
Cd5 O3 2.132852 1_444
Cd5 O1 2.132852 1_555
Cd5 Cl2 2.768270 1_554
Cd5 Cl1 2.768270 1_445
Cd5 Cl0 2.871681 1_544
Cd5 Cl3 2.871681 1_455
