# generated using pymatgen
data_Er5Mg(MoO6)2
_symmetry_space_group_name_H-M   'P 1'
_cell_length_a   5.88790417
_cell_length_b   6.92007355
_cell_length_c   7.47193520
_cell_angle_alpha   105.44667360
_cell_angle_beta   90.00162559
_cell_angle_gamma   115.15098204
_symmetry_Int_Tables_number   1
_chemical_formula_structural   Er5Mg(MoO6)2
_chemical_formula_sum   'Er5 Mg1 Mo2 O12'
_cell_volume   263.37778169
_cell_formula_units_Z   1
loop_
 _symmetry_equiv_pos_site_id
 _symmetry_equiv_pos_as_xyz
  1  'x, y, z'
loop_
 _atom_site_type_symbol
 _atom_site_label
 _atom_site_symmetry_multiplicity
 _atom_site_fract_x
 _atom_site_fract_y
 _atom_site_fract_z
 _atom_site_occupancy
  Er  Er0  1  0.31440100  0.62869900  0.63487900  1
  Er  Er1  1  0.69572000  0.39098900  0.35849900  1
  Er  Er2  1  0.32403700  0.64809200  0.19988400  1
  Er  Er3  1  0.69636700  0.39215700  0.83799600  1
  Er  Er4  1  0.99518600  0.99076900  0.48418600  1
  Mg  Mg0  1  0.17205400  0.34306800  0.85533300  1
  Mo  Mo0  1  0.75834800  0.99283800  0.99755900  1
  Mo  Mo1  1  0.23470800  0.99272200  0.99752400  1
  O  O0  1  0.92851500  0.34707000  0.07903400  1
  O  O1  1  0.41839200  0.34715900  0.07877600  1
  O  O2  1  0.09981500  0.64224200  0.90142100  1
  O  O3  1  0.54356100  0.64275400  0.90138000  1
  O  O4  1  0.09150800  0.68954500  0.42861700  1
  O  O5  1  0.59801100  0.68940800  0.42860800  1
  O  O6  1  0.91388300  0.30618000  0.58529400  1
  O  O7  1  0.39171500  0.30600400  0.58584400  1
  O  O8  1  0.98793900  0.97706200  0.19552200  1
  O  O9  1  0.00485100  0.01082000  0.79266800  1
  O  O10  1  0.50458300  0.00831200  0.19609100  1
  O  O11  1  0.50349000  0.00596300  0.80910200  1
loop_
_geom_bond_atom_site_label_1
_geom_bond_atom_site_label_2
_geom_bond_distance
_geom_bond_site_symmetry_2
Er0 O5 2.255911 1_555
Er0 O4 2.256124 1_555
Er0 O11 2.338552 1_565
Er0 O2 2.360698 1_555
Er0 O3 2.362269 1_555
Er0 O7 2.399235 1_555
Er0 O6 2.401109 1_455
Er1 O5 2.302947 1_555
Er1 O4 2.303137 1_655
Er1 O10 2.346641 1_555
Er1 O6 2.456936 1_555
Er1 O7 2.464335 1_555
Er1 O0 2.519457 1_555
Er1 O1 2.523457 1_555
Er2 O4 2.224973 1_555
Er2 O5 2.225351 1_555
Er2 O10 2.264918 1_565
Er2 O1 2.333202 1_555
Er2 O0 2.335031 1_455
Er2 O2 2.573753 1_554
Er2 O3 2.577512 1_554
Er3 O3 2.220313 1_555
Er3 O2 2.220605 1_655
Er3 O11 2.364607 1_555
Er3 O6 2.368295 1_555
Er3 O7 2.369635 1_555
Er3 O0 2.423022 1_556
Er3 O1 2.424424 1_556
Er4 O8 2.133194 1_555
Er4 O9 2.271175 1_665
Er4 O4 2.320129 1_655
Er4 O5 2.320231 1_555
Er4 O6 2.360874 1_565
Er4 O7 2.361081 1_665
Mg0 O9 1.994290 1_555
Mg0 O1 2.198110 1_556
Mg0 O0 2.204543 1_456
Mg0 O2 2.225848 1_555
Mg0 O3 2.228874 1_555
Mg0 O7 2.408346 1_555
Mg0 O6 2.417153 1_455
Mo0 O8 2.058784 1_556
Mo0 O9 2.100916 1_665
Mo0 O11 2.103972 1_565
Mo0 O3 2.110248 1_555
Mo0 O10 2.120370 1_566
Mo0 O0 2.121505 1_566
Mo1 O8 2.064754 1_456
Mo1 O9 2.106261 1_565
Mo1 O11 2.107274 1_565
Mo1 O2 2.112732 1_555
Mo1 O1 2.122759 1_566
Mo1 O10 2.122910 1_566
