# generated using pymatgen
data_Li3Ni2(PO4)3
_symmetry_space_group_name_H-M   'P 1'
_cell_length_a   8.75465600
_cell_length_b   8.46606700
_cell_length_c   14.66224042
_cell_angle_alpha   56.02003868
_cell_angle_beta   90.00000000
_cell_angle_gamma   90.00000000
_symmetry_Int_Tables_number   1
_chemical_formula_structural   Li3Ni2(PO4)3
_chemical_formula_sum   'Li12 Ni8 P12 O48'
_cell_volume   901.15137553
_cell_formula_units_Z   4
loop_
 _symmetry_equiv_pos_site_id
 _symmetry_equiv_pos_as_xyz
  1  'x, y, z'
loop_
 _atom_site_type_symbol
 _atom_site_label
 _atom_site_symmetry_multiplicity
 _atom_site_fract_x
 _atom_site_fract_y
 _atom_site_fract_z
 _atom_site_occupancy
  Li  Li0  1  0.99011400  0.27657000  0.15543500  1
  Li  Li1  1  0.41410600  0.61304600  0.80711100  1
  Li  Li2  1  0.71963500  0.99899000  0.32132700  1
  Li  Li3  1  0.21963500  0.00101000  0.17867300  1
  Li  Li4  1  0.91410600  0.38695400  0.69288900  1
  Li  Li5  1  0.49011400  0.72343000  0.34456500  1
  Li  Li6  1  0.50988600  0.27657000  0.65543500  1
  Li  Li7  1  0.08589400  0.61304600  0.30711100  1
  Li  Li8  1  0.78036500  0.99899000  0.82132700  1
  Li  Li9  1  0.28036500  0.00101000  0.67867300  1
  Li  Li10  1  0.58589400  0.38695400  0.19288900  1
  Li  Li11  1  0.00988600  0.72343000  0.84456500  1
  Ni  Ni0  1  0.47084800  0.64885300  0.60445200  1
  Ni  Ni1  1  0.97084800  0.35114700  0.89554800  1
  Ni  Ni2  1  0.03405800  0.86491800  0.38913300  1
  Ni  Ni3  1  0.53405800  0.13508200  0.11086700  1
  Ni  Ni4  1  0.46594200  0.86491800  0.88913300  1
  Ni  Ni5  1  0.96594200  0.13508200  0.61086700  1
  Ni  Ni6  1  0.02915200  0.64885300  0.10445200  1
  Ni  Ni7  1  0.52915200  0.35114700  0.39554800  1
  P  P0  1  0.75072300  0.55077300  0.99092000  1
  P  P1  1  0.88323700  0.26383000  0.34842700  1
  P  P2  1  0.60937000  0.96349100  0.64688000  1
  P  P3  1  0.38323700  0.73617000  0.15157300  1
  P  P4  1  0.10937000  0.03650900  0.85312000  1
  P  P5  1  0.25072300  0.44922700  0.50908000  1
  P  P6  1  0.74927700  0.55077300  0.49092000  1
  P  P7  1  0.89063000  0.96349100  0.14688000  1
  P  P8  1  0.24927700  0.44922700  0.00908000  1
  P  P9  1  0.11676300  0.73617000  0.65157300  1
  P  P10  1  0.61676300  0.26383000  0.84842700  1
  P  P11  1  0.39063000  0.03650900  0.35312000  1
  O  O0  1  0.31526800  0.24680300  0.06648200  1
  O  O1  1  0.38242800  0.16164100  0.39844200  1
  O  O2  1  0.16609500  0.45468600  0.10102800  1
  O  O3  1  0.07925800  0.86962800  0.69116700  1
  O  O4  1  0.86289100  0.50832300  0.08441900  1
  O  O5  1  0.70598800  0.28567500  0.33332100  1
  O  O6  1  0.49107000  0.87756900  0.74330400  1
  O  O7  1  0.76716400  0.98163400  0.68807000  1
  O  O8  1  0.62713400  0.39757300  0.05466500  1
  O  O9  1  0.61757200  0.83835900  0.60155800  1
  O  O10  1  0.83390500  0.54531400  0.89897200  1
  O  O11  1  0.92074200  0.13037200  0.30883300  1
  O  O12  1  0.13710900  0.49167700  0.91558100  1
  O  O13  1  0.29401200  0.71432500  0.66667900  1
  O  O14  1  0.50893000  0.12243100  0.25669600  1
  O  O15  1  0.07212800  0.83480800  0.53091600  1
  O  O16  1  0.23283600  0.01836600  0.31193000  1
  O  O17  1  0.37286600  0.60242700  0.94533500  1
  O  O18  1  0.02961900  0.54627900  0.72210400  1
  O  O19  1  0.44999700  0.83047100  0.43777600  1
  O  O20  1  0.52961900  0.45372100  0.77789600  1
  O  O21  1  0.94999700  0.16952900  0.06222400  1
  O  O22  1  0.81526800  0.75319700  0.43351800  1
  O  O23  1  0.73283600  0.98163400  0.18807000  1
  O  O24  1  0.57212800  0.16519200  0.96908400  1
  O  O25  1  0.79401200  0.28567500  0.83332100  1
  O  O26  1  0.00893000  0.87756900  0.24330400  1
  O  O27  1  0.63710900  0.50832300  0.58441900  1
  O  O28  1  0.33390500  0.45468600  0.60102800  1
  O  O29  1  0.11757200  0.16164100  0.89844200  1
  O  O30  1  0.42074200  0.86962800  0.19116700  1
  O  O31  1  0.12713400  0.60242700  0.44533500  1
  O  O32  1  0.87286600  0.39757300  0.55466500  1
  O  O33  1  0.57925800  0.13037200  0.80883300  1
  O  O34  1  0.88242800  0.83835900  0.10155800  1
  O  O35  1  0.66609500  0.54531400  0.39897200  1
  O  O36  1  0.36289100  0.49167700  0.41558100  1
  O  O37  1  0.99107000  0.12243100  0.75669600  1
  O  O38  1  0.20598800  0.71432500  0.16667900  1
  O  O39  1  0.42787200  0.83480800  0.03091600  1
  O  O40  1  0.26716400  0.01836600  0.81193000  1
  O  O41  1  0.18473200  0.24680300  0.56648200  1
  O  O42  1  0.05000300  0.83047100  0.93777600  1
  O  O43  1  0.47038100  0.54627900  0.22210400  1
  O  O44  1  0.55000300  0.16952900  0.56222400  1
  O  O45  1  0.97038100  0.45372100  0.27789600  1
  O  O46  1  0.68473200  0.75319700  0.93351800  1
  O  O47  1  0.92787200  0.16519200  0.46908400  1
loop_
_geom_bond_atom_site_label_1
_geom_bond_atom_site_label_2
_geom_bond_distance
_geom_bond_site_symmetry_2
Li0 O11 1.961564 1_555
Li0 O4 1.972481 1_555
Li0 O2 1.984750 1_655
Li0 O21 2.048612 1_555
Li1 O20 1.916101 1_555
Li1 O6 2.000629 1_555
Li1 O17 2.010516 1_555
Li1 O13 2.026522 1_555
Li2 O22 1.977565 1_555
Li2 O11 2.035380 1_565
Li2 O23 2.042884 1_555
Li2 O14 2.070240 1_565
Li2 O5 2.532409 1_565
Li3 O0 1.977565 1_555
Li3 O30 2.035380 1_545
Li3 O16 2.042884 1_555
Li3 O26 2.070240 1_545
Li3 O38 2.532409 1_545
Li4 O18 1.916101 1_655
Li4 O37 2.000629 1_555
Li4 O32 2.010516 1_555
Li4 O25 2.026522 1_555
Li5 O30 1.961564 1_555
Li5 O36 1.972481 1_555
Li5 O35 1.984750 1_555
Li5 O19 2.048612 1_555
Li6 O33 1.961564 1_555
Li6 O27 1.972481 1_555
Li6 O28 1.984750 1_555
Li6 O44 2.048612 1_555
Li7 O45 1.916101 1_455
Li7 O26 2.000629 1_555
Li7 O31 2.010516 1_555
Li7 O38 2.026522 1_555
Li8 O46 1.977565 1_555
Li8 O33 2.035380 1_565
Li8 O7 2.042884 1_555
Li8 O37 2.070240 1_565
Li8 O25 2.532409 1_565
Li9 O41 1.977565 1_555
Li9 O3 2.035380 1_545
Li9 O40 2.042884 1_555
Li9 O6 2.070240 1_545
Li9 O13 2.532409 1_545
Li10 O43 1.916101 1_555
Li10 O14 2.000629 1_555
Li10 O8 2.010516 1_555
Li10 O5 2.026522 1_555
Li11 O3 1.961564 1_555
Li11 O12 1.972481 1_555
Li11 O10 1.984750 1_455
Li11 O42 2.048612 1_555
Ni0 O27 2.002755 1_555
Ni0 O13 2.025272 1_555
Ni0 O9 2.037080 1_555
Ni0 O19 2.041954 1_555
Ni0 O28 2.057737 1_555
Ni0 O20 2.182886 1_555
Ni1 O12 2.002755 1_655
Ni1 O25 2.025272 1_555
Ni1 O29 2.037080 1_655
Ni1 O21 2.041954 1_556
Ni1 O10 2.057737 1_555
Ni1 O18 2.182886 1_655
Ni2 O15 1.976196 1_555
Ni2 O31 2.057794 1_555
Ni2 O22 2.073392 1_455
Ni2 O16 2.086540 1_565
Ni2 O26 2.091816 1_555
Ni2 O11 2.112643 1_465
Ni3 O24 1.976196 1_554
Ni3 O8 2.057794 1_555
Ni3 O0 2.073392 1_555
Ni3 O23 2.086540 1_545
Ni3 O14 2.091816 1_555
Ni3 O30 2.112643 1_545
Ni4 O39 1.976196 1_556
Ni4 O17 2.057794 1_555
Ni4 O46 2.073392 1_555
Ni4 O40 2.086540 1_565
Ni4 O6 2.091816 1_555
Ni4 O33 2.112643 1_565
Ni5 O47 1.976196 1_555
Ni5 O32 2.057794 1_555
Ni5 O41 2.073392 1_655
Ni5 O7 2.086540 1_545
Ni5 O37 2.091816 1_555
Ni5 O3 2.112643 1_645
Ni6 O4 2.002755 1_455
Ni6 O38 2.025272 1_555
Ni6 O34 2.037080 1_455
Ni6 O42 2.041954 1_554
Ni6 O2 2.057737 1_555
Ni6 O45 2.182886 1_455
Ni7 O36 2.002755 1_555
Ni7 O5 2.025272 1_555
Ni7 O1 2.037080 1_555
Ni7 O44 2.041954 1_555
Ni7 O35 2.057737 1_555
Ni7 O43 2.182886 1_555
O0 P8 1.538425 1_555
O1 P11 1.534905 1_555
O2 P8 1.555521 1_555
O3 P9 1.566725 1_555
O4 P0 1.556317 1_554
O5 P1 1.563782 1_555
O6 P2 1.565566 1_555
O7 P2 1.549316 1_555
O8 P0 1.539938 1_554
O9 P2 1.534905 1_555
O10 P0 1.555521 1_555
O11 P1 1.566725 1_555
O12 P8 1.556317 1_556
O13 P9 1.563782 1_555
O14 P11 1.565566 1_555
O15 P9 1.525909 1_555
O16 P11 1.549316 1_555
O17 P8 1.539938 1_556
O18 P9 1.541944 1_555
O19 P11 1.559904 1_565
O20 P10 1.541944 1_555
O21 P7 1.559904 1_545
O22 P6 1.538425 1_555
O23 P7 1.549316 1_555
O24 P10 1.525909 1_555
O25 P10 1.563782 1_555
O26 P7 1.565566 1_455
O27 P6 1.556317 1_555
O28 P5 1.555521 1_555
O29 P4 1.534905 1_555
O30 P3 1.566725 1_555
O31 P5 1.539938 1_555
O32 P6 1.539938 1_555
O33 P10 1.566725 1_555
O34 P7 1.534905 1_555
O35 P6 1.555521 1_555
O36 P5 1.556317 1_555
O37 P4 1.565566 1_655
O38 P3 1.563782 1_555
O39 P3 1.525909 1_555
O40 P4 1.549316 1_555
O41 P5 1.538425 1_555
O42 P4 1.559904 1_565
O43 P3 1.541944 1_555
O44 P2 1.559904 1_545
O45 P1 1.541944 1_555
O46 P0 1.538425 1_555
O47 P1 1.525909 1_555
