# generated using pymatgen
data_RbB10H9
_symmetry_space_group_name_H-M   'P 1'
_cell_length_a   7.30088900
_cell_length_b   12.71810600
_cell_length_c   19.06721500
_cell_angle_alpha   90.00000000
_cell_angle_beta   90.00000000
_cell_angle_gamma   90.00000000
_symmetry_Int_Tables_number   1
_chemical_formula_structural   RbB10H9
_chemical_formula_sum   'Rb8 B80 H72'
_cell_volume   1770.45727040
_cell_formula_units_Z   8
loop_
 _symmetry_equiv_pos_site_id
 _symmetry_equiv_pos_as_xyz
  1  'x, y, z'
loop_
 _atom_site_type_symbol
 _atom_site_label
 _atom_site_symmetry_multiplicity
 _atom_site_fract_x
 _atom_site_fract_y
 _atom_site_fract_z
 _atom_site_occupancy
  Rb  Rb0  1  0.17022300  0.12656500  0.41933300  1
  Rb  Rb1  1  0.82977700  0.87343500  0.91933300  1
  Rb  Rb2  1  0.32977700  0.62656500  0.41933300  1
  Rb  Rb3  1  0.67022300  0.37343500  0.91933300  1
  Rb  Rb4  1  0.82485600  0.86609100  0.58158000  1
  Rb  Rb5  1  0.17514400  0.13390900  0.08158000  1
  Rb  Rb6  1  0.67514400  0.36609100  0.58158000  1
  Rb  Rb7  1  0.32485600  0.63390900  0.08158000  1
  B  B0  1  0.43377300  0.30002600  0.18274000  1
  B  B1  1  0.56622700  0.69997400  0.68274000  1
  B  B2  1  0.06622700  0.80002600  0.18274000  1
  B  B3  1  0.93377300  0.19997400  0.68274000  1
  B  B4  1  0.63991700  0.31027600  0.22199000  1
  B  B5  1  0.36008300  0.68972400  0.72199000  1
  B  B6  1  0.86008300  0.81027600  0.22199000  1
  B  B7  1  0.13991700  0.18972400  0.72199000  1
  B  B8  1  0.60157000  0.21778700  0.15090600  1
  B  B9  1  0.39843000  0.78221300  0.65090600  1
  B  B10  1  0.89843000  0.71778700  0.15090600  1
  B  B11  1  0.10157000  0.28221300  0.65090600  1
  B  B12  1  0.50734800  0.32708600  0.09974100  1
  B  B13  1  0.49265200  0.67291400  0.59974100  1
  B  B14  1  0.99265200  0.82708600  0.09974100  1
  B  B15  1  0.00734800  0.17291400  0.59974100  1
  B  B16  1  0.54283000  0.41766600  0.17148200  1
  B  B17  1  0.45717000  0.58233400  0.67148200  1
  B  B18  1  0.95717000  0.91766600  0.17148200  1
  B  B19  1  0.04283000  0.08233400  0.67148200  1
  B  B20  1  0.83059900  0.26412900  0.16991400  1
  B  B21  1  0.16940100  0.73587100  0.66991400  1
  B  B22  1  0.66940100  0.76412900  0.16991400  1
  B  B23  1  0.33059900  0.23587100  0.66991400  1
  B  B24  1  0.73674500  0.27861200  0.08276400  1
  B  B25  1  0.26325500  0.72138800  0.58276400  1
  B  B26  1  0.76325500  0.77861200  0.08276400  1
  B  B27  1  0.23674500  0.22138800  0.58276400  1
  B  B28  1  0.69579000  0.41940300  0.09702800  1
  B  B29  1  0.30421000  0.58059700  0.59702800  1
  B  B30  1  0.80421000  0.91940300  0.09702800  1
  B  B31  1  0.19579000  0.08059700  0.59702800  1
  B  B32  1  0.78731600  0.40295700  0.18489200  1
  B  B33  1  0.21268400  0.59704300  0.68489200  1
  B  B34  1  0.71268400  0.90295700  0.18489200  1
  B  B35  1  0.28731600  0.09704300  0.68489200  1
  B  B36  1  0.90347600  0.36055500  0.11384000  1
  B  B37  1  0.09652400  0.63944500  0.61384000  1
  B  B38  1  0.59652400  0.86055500  0.11384000  1
  B  B39  1  0.40347600  0.13944500  0.61384000  1
  B  B40  1  0.60324100  0.39857100  0.39013000  1
  B  B41  1  0.39675900  0.60142900  0.89013000  1
  B  B42  1  0.89675900  0.89857100  0.39013000  1
  B  B43  1  0.10324100  0.10142900  0.89013000  1
  B  B44  1  0.67572400  0.49559500  0.33457800  1
  B  B45  1  0.32427600  0.50440500  0.83457800  1
  B  B46  1  0.82427600  0.99559500  0.33457800  1
  B  B47  1  0.17572400  0.00440500  0.83457800  1
  B  B48  1  0.77019500  0.47984400  0.42180500  1
  B  B49  1  0.22980500  0.52015600  0.92180500  1
  B  B50  1  0.72980500  0.97984400  0.42180500  1
  B  B51  1  0.27019500  0.02015600  0.92180500  1
  B  B52  1  0.81090100  0.33938700  0.40645300  1
  B  B53  1  0.18909900  0.66061300  0.90645300  1
  B  B54  1  0.68909900  0.83938700  0.40645300  1
  B  B55  1  0.31090100  0.16061300  0.90645300  1
  B  B56  1  0.71917700  0.35695800  0.31882700  1
  B  B57  1  0.28082300  0.64304200  0.81882700  1
  B  B58  1  0.78082300  0.85695800  0.31882700  1
  B  B59  1  0.21917700  0.14304200  0.81882700  1
  B  B60  1  0.90465300  0.54170900  0.35387600  1
  B  B61  1  0.09534700  0.45829100  0.85387600  1
  B  B62  1  0.59534700  0.04170900  0.35387600  1
  B  B63  1  0.40465300  0.95829100  0.85387600  1
  B  B64  1  0.99953600  0.43178800  0.40448200  1
  B  B65  1  0.00046400  0.56821200  0.90448200  1
  B  B66  1  0.50046400  0.93178800  0.40448200  1
  B  B67  1  0.49953600  0.06821200  0.90448200  1
  B  B68  1  0.96368200  0.34225000  0.33204300  1
  B  B69  1  0.03631800  0.65775000  0.83204300  1
  B  B70  1  0.53631800  0.84225000  0.33204300  1
  B  B71  1  0.46368200  0.15775000  0.83204300  1
  B  B72  1  0.86634100  0.45006300  0.28215000  1
  B  B73  1  0.13365900  0.54993700  0.78215000  1
  B  B74  1  0.63365900  0.95006300  0.28215000  1
  B  B75  1  0.36634100  0.04993700  0.78215000  1
  B  B76  1  0.07242600  0.46005600  0.32151900  1
  B  B77  1  0.92757400  0.53994400  0.82151900  1
  B  B78  1  0.42757400  0.96005600  0.32151900  1
  B  B79  1  0.57242600  0.03994400  0.82151900  1
  H  H0  1  0.61676800  0.28495300  0.28827600  1
  H  H1  1  0.38323200  0.71504700  0.78827600  1
  H  H2  1  0.88323200  0.78495300  0.28827600  1
  H  H3  1  0.11676800  0.21504700  0.78827600  1
  H  H4  1  0.88851700  0.47543300  0.21573900  1
  H  H5  1  0.11148300  0.52456700  0.71573900  1
  H  H6  1  0.61148300  0.97543300  0.21573900  1
  H  H7  1  0.38851700  0.02456700  0.71573900  1
  H  H8  1  0.28569200  0.28110200  0.20595600  1
  H  H9  1  0.71430800  0.71889800  0.70595600  1
  H  H10  1  0.21430800  0.78110200  0.20595600  1
  H  H11  1  0.78569200  0.21889800  0.70595600  1
  H  H12  1  0.57603500  0.12472500  0.14912300  1
  H  H13  1  0.42396500  0.87527500  0.64912300  1
  H  H14  1  0.92396500  0.62472500  0.14912300  1
  H  H15  1  0.07603500  0.37527500  0.64912300  1
  H  H16  1  0.39687700  0.32917100  0.05290400  1
  H  H17  1  0.60312300  0.67082900  0.55290400  1
  H  H18  1  0.10312300  0.82917100  0.05290400  1
  H  H19  1  0.89687700  0.17082900  0.55290400  1
  H  H20  1  0.47107700  0.49747300  0.19019300  1
  H  H21  1  0.52892300  0.50252700  0.69019300  1
  H  H22  1  0.02892300  0.99747300  0.19019300  1
  H  H23  1  0.97107700  0.00252700  0.69019300  1
  H  H24  1  0.93593300  0.20404400  0.19644000  1
  H  H25  1  0.06406700  0.79595600  0.69644000  1
  H  H26  1  0.56406700  0.70404400  0.19644000  1
  H  H27  1  0.43593300  0.29595600  0.69644000  1
  H  H28  1  0.76625600  0.22812100  0.03050700  1
  H  H29  1  0.23374400  0.77187900  0.53050700  1
  H  H30  1  0.73374400  0.72812100  0.03050700  1
  H  H31  1  0.26625600  0.27187900  0.53050700  1
  H  H32  1  0.69046000  0.49376300  0.05813100  1
  H  H33  1  0.30954000  0.50623700  0.55813100  1
  H  H34  1  0.80954000  0.99376300  0.05813100  1
  H  H35  1  0.19046000  0.00623700  0.55813100  1
  H  H36  1  0.05323800  0.38049900  0.09242500  1
  H  H37  1  0.94676200  0.61950100  0.59242500  1
  H  H38  1  0.44676200  0.88049900  0.09242500  1
  H  H39  1  0.55323800  0.11950100  0.59242500  1
  H  H40  1  0.45327500  0.37789300  0.41129500  1
  H  H41  1  0.54672500  0.62210700  0.91129500  1
  H  H42  1  0.04672500  0.87789300  0.41129500  1
  H  H43  1  0.95327500  0.12210700  0.91129500  1
  H  H44  1  0.57063100  0.55587600  0.30809300  1
  H  H45  1  0.42936900  0.44412400  0.80809300  1
  H  H46  1  0.92936900  0.05587600  0.30809300  1
  H  H47  1  0.07063100  0.94412400  0.80809300  1
  H  H48  1  0.74209400  0.52928500  0.47455500  1
  H  H49  1  0.25790600  0.47071500  0.97455500  1
  H  H50  1  0.75790600  0.02928500  0.47455500  1
  H  H51  1  0.24209400  0.97071500  0.97455500  1
  H  H52  1  0.81608600  0.26432100  0.44463400  1
  H  H53  1  0.18391400  0.73567900  0.94463400  1
  H  H54  1  0.68391400  0.76432100  0.44463400  1
  H  H55  1  0.31608600  0.23567900  0.94463400  1
  H  H56  1  0.92952500  0.63486300  0.35621800  1
  H  H57  1  0.07047500  0.36513700  0.85621800  1
  H  H58  1  0.57047500  0.13486300  0.35621800  1
  H  H59  1  0.42952500  0.86513700  0.85621800  1
  H  H60  1  0.10889200  0.42933300  0.45159600  1
  H  H61  1  0.89110800  0.57066700  0.95159600  1
  H  H62  1  0.39110800  0.92933300  0.45159600  1
  H  H63  1  0.60889200  0.07066700  0.95159600  1
  H  H64  1  0.03572900  0.26300700  0.31250400  1
  H  H65  1  0.96427100  0.73699300  0.81250400  1
  H  H66  1  0.46427100  0.76300700  0.31250400  1
  H  H67  1  0.53572900  0.23699300  0.81250400  1
  H  H68  1  0.22046400  0.47932300  0.29834000  1
  H  H69  1  0.77953600  0.52067700  0.79834000  1
  H  H70  1  0.27953600  0.97932300  0.29834000  1
  H  H71  1  0.72046400  0.02067700  0.79834000  1
loop_
_geom_bond_atom_site_label_1
_geom_bond_atom_site_label_2
_geom_bond_distance
_geom_bond_site_symmetry_2
B0 H8 1.192772 1_555
B1 H9 1.192772 1_555
B2 H10 1.192772 1_555
B3 H11 1.192772 1_555
B4 H0 1.315182 1_555
B5 H1 1.315182 1_555
B6 H2 1.315182 1_555
B7 H3 1.315182 1_555
B8 H12 1.198647 1_555
B9 H13 1.198647 1_555
B10 H14 1.198647 1_555
B11 H15 1.198647 1_555
B12 H16 1.203638 1_555
B13 H17 1.203638 1_555
B14 H18 1.203638 1_655
B15 H19 1.203638 1_455
B16 H20 1.196631 1_555
B17 H21 1.196631 1_555
B18 H22 1.196631 1_655
B19 H23 1.196631 1_455
B20 H24 1.196316 1_555
B21 H25 1.196316 1_555
B22 H26 1.196316 1_555
B23 H27 1.196316 1_555
B24 H28 1.204816 1_555
B25 H29 1.204816 1_555
B26 H30 1.204816 1_555
B27 H31 1.204816 1_555
B28 H32 1.202478 1_555
B29 H33 1.202478 1_555
B30 H34 1.202478 1_555
B31 H35 1.202478 1_555
B32 H4 1.319654 1_555
B33 H5 1.319654 1_555
B34 H6 1.319654 1_555
B35 H7 1.319654 1_555
B36 H36 1.194396 1_655
B37 H37 1.194396 1_455
B38 H38 1.194396 1_555
B39 H39 1.194396 1_555
B40 H40 1.196158 1_555
B41 H41 1.196158 1_555
B42 H42 1.196158 1_655
B43 H43 1.196158 1_455
B44 H44 1.196451 1_555
B45 H45 1.196451 1_555
B46 H46 1.196451 1_565
B47 H47 1.196451 1_545
B48 H48 1.203786 1_555
B49 H49 1.203786 1_555
B50 H50 1.203786 1_565
B51 H51 1.203786 1_545
B52 H52 1.201196 1_555
B53 H53 1.201196 1_555
B54 H54 1.201196 1_555
B55 H55 1.201196 1_555
B56 H0 1.317946 1_555
B57 H1 1.317946 1_555
B58 H2 1.317946 1_555
B59 H3 1.317946 1_555
B60 H56 1.199409 1_555
B61 H57 1.199409 1_555
B62 H58 1.199409 1_555
B63 H59 1.199409 1_555
B64 H60 1.202253 1_655
B65 H61 1.202253 1_455
B66 H62 1.202253 1_555
B67 H63 1.202253 1_555
B68 H64 1.196321 1_655
B69 H65 1.196321 1_455
B70 H66 1.196321 1_555
B71 H67 1.196321 1_555
B72 H4 1.316726 1_555
B73 H5 1.316726 1_555
B74 H6 1.316726 1_555
B75 H7 1.316726 1_555
B76 H68 1.193114 1_555
B77 H69 1.193114 1_555
B78 H70 1.193114 1_555
B79 H71 1.193114 1_555
H8 Rb5 3.127281 1_555
H9 Rb4 3.127281 1_555
H10 Rb7 3.127281 1_555
H11 Rb6 3.127281 1_555
H12 Rb5 3.199802 1_555
H13 Rb4 3.199802 1_555
H14 Rb7 3.199802 1_655
H15 Rb6 3.199802 1_455
H16 Rb5 3.014418 1_555
H17 Rb4 3.014418 1_555
H18 Rb7 3.014418 1_555
H19 Rb6 3.014418 1_555
H20 Rb7 2.905067 1_555
H21 Rb6 2.905067 1_555
H22 Rb5 2.905067 1_565
H23 Rb4 2.905067 1_545
H24 Rb5 2.939745 1_655
H25 Rb4 2.939745 1_455
H26 Rb7 2.939745 1_555
H27 Rb6 2.939745 1_555
H28 Rb3 2.898376 1_554
H29 Rb2 2.898376 1_555
H30 Rb1 2.898376 1_554
H31 Rb0 2.898376 1_555
H32 Rb3 3.060670 1_554
H33 Rb2 3.060670 1_555
H34 Rb1 3.060670 1_554
H35 Rb0 3.060670 1_555
H44 Rb2 2.898136 1_555
H45 Rb3 2.898136 1_555
H46 Rb0 2.898136 1_655
H47 Rb1 2.898136 1_455
H48 Rb6 2.951445 1_555
H49 Rb7 2.951445 1_556
H50 Rb4 2.951445 1_545
H51 Rb5 2.951445 1_566
H52 Rb6 3.090691 1_555
H52 Rb0 3.160238 1_655
H53 Rb7 3.090691 1_556
H53 Rb1 3.160238 1_455
H54 Rb4 3.090691 1_555
H54 Rb2 3.160238 1_555
H55 Rb5 3.090691 1_556
H55 Rb3 3.160238 1_555
H56 Rb2 3.162056 1_655
H57 Rb3 3.162056 1_455
H58 Rb0 3.162056 1_555
H59 Rb1 3.162056 1_555
H60 Rb2 3.044873 1_555
H61 Rb3 3.044873 1_555
H62 Rb0 3.044873 1_565
H63 Rb1 3.044873 1_545
H64 Rb0 2.850347 1_555
H65 Rb1 2.850347 1_555
H66 Rb2 2.850347 1_555
H67 Rb3 2.850347 1_555
H68 Rb2 3.076680 1_555
H69 Rb3 3.076680 1_555
H70 Rb0 3.076680 1_565
H71 Rb1 3.076680 1_545
