# generated using pymatgen
data_Na10Sc8Si5S7O48
_symmetry_space_group_name_H-M   'P 1'
_cell_length_a   18.10756807
_cell_length_b   9.04694834
_cell_length_c   22.86880545
_cell_angle_alpha   89.91287799
_cell_angle_beta   89.78711259
_cell_angle_gamma   119.92663115
_symmetry_Int_Tables_number   1
_chemical_formula_structural   Na10Sc8Si5S7O48
_chemical_formula_sum   'Na30 Sc24 Si15 S21 O144'
_cell_volume   3246.76357028
_cell_formula_units_Z   3
loop_
 _symmetry_equiv_pos_site_id
 _symmetry_equiv_pos_as_xyz
  1  'x, y, z'
loop_
 _atom_site_type_symbol
 _atom_site_label
 _atom_site_symmetry_multiplicity
 _atom_site_fract_x
 _atom_site_fract_y
 _atom_site_fract_z
 _atom_site_occupancy
  Na  Na0  1  0.32583577  0.00081757  0.24924123  1
  Na  Na1  1  0.82510379  0.00028852  0.24992176  1
  Na  Na2  1  0.18254789  0.37425605  0.24380846  1
  Na  Na3  1  0.68264480  0.37474068  0.24447740  1
  Na  Na4  1  0.99504322  0.62634365  0.25597752  1
  Na  Na5  1  0.49572404  0.62661893  0.25647453  1
  Na  Na6  1  0.82577635  0.64839277  0.74828415  1
  Na  Na7  1  0.99498836  0.36458377  0.75603060  1
  Na  Na8  1  0.49692254  0.35614704  0.75561132  1
  Na  Na9  1  0.18058366  0.98865832  0.74636918  1
  Na  Na10  1  0.01893812  0.70804115  0.58489230  1
  Na  Na11  1  0.33023000  0.96957994  0.58913761  1
  Na  Na12  1  0.02099163  0.33137905  0.08308833  1
  Na  Na13  1  0.52072814  0.33109193  0.08386662  1
  Na  Na14  1  0.16198059  0.30138495  0.92251191  1
  Na  Na15  1  0.66345670  0.30209893  0.92332449  1
  Na  Na16  1  0.16247738  0.02383233  0.42297038  1
  Na  Na17  1  0.66253923  0.02212975  0.42397031  1
  Na  Na18  1  0.99961933  0.99959806  0.50041384  1
  Na  Na19  1  0.50809155  0.99265237  0.49981761  1
  Na  Na20  1  0.00236962  0.00310987  0.99965382  1
  Na  Na21  1  0.50192508  0.00027878  0.00160170  1
  Na  Na22  1  0.34298280  0.33498836  0.83668545  1
  Na  Na23  1  0.84493218  0.32861224  0.83280287  1
  Na  Na24  1  0.34877106  0.35996974  0.33486649  1
  Na  Na25  1  0.84765779  0.35832224  0.33595559  1
  Na  Na26  1  0.17389209  0.65931945  0.16519017  1
  Na  Na27  1  0.67394455  0.65932064  0.16598635  1
  Na  Na28  1  0.17155389  0.67438852  0.67019281  1
  Na  Na29  1  0.67591692  0.70238530  0.66314488  1
  Sc  Sc0  1  0.99031296  0.98542082  0.35115307  1
  Sc  Sc1  1  0.49133508  0.98664553  0.35108860  1
  Sc  Sc2  1  0.99146752  0.99634903  0.85058880  1
  Sc  Sc3  1  0.49259307  0.00652052  0.85249959  1
  Sc  Sc4  1  0.99818155  0.99126384  0.64986074  1
  Sc  Sc5  1  0.50356554  0.99631882  0.64755684  1
  Sc  Sc6  1  0.00018666  0.00739668  0.14909626  1
  Sc  Sc7  1  0.50032661  0.00755657  0.14937652  1
  Sc  Sc8  1  0.32968596  0.32026728  0.68295755  1
  Sc  Sc9  1  0.82885430  0.31318152  0.68598442  1
  Sc  Sc10  1  0.33239853  0.34486283  0.18410026  1
  Sc  Sc11  1  0.83215762  0.34447241  0.18402623  1
  Sc  Sc12  1  0.33365631  0.33124948  0.98197334  1
  Sc  Sc13  1  0.83482129  0.33228969  0.98170197  1
  Sc  Sc14  1  0.33646597  0.34303689  0.48162362  1
  Sc  Sc15  1  0.83300353  0.33583710  0.48238913  1
  Sc  Sc16  1  0.16540160  0.65139333  0.01788098  1
  Sc  Sc17  1  0.66511289  0.65165842  0.01855774  1
  Sc  Sc18  1  0.16158960  0.67021632  0.51723435  1
  Sc  Sc19  1  0.66244510  0.68081103  0.51961237  1
  Sc  Sc20  1  0.15977417  0.65172303  0.31555995  1
  Sc  Sc21  1  0.66002085  0.65151138  0.31620787  1
  Sc  Sc22  1  0.16243790  0.66788324  0.81452363  1
  Sc  Sc23  1  0.66525200  0.67560333  0.81648786  1
  Si  Si0  1  0.35286294  0.70799498  0.24931393  1
  Si  Si1  1  0.85272795  0.70776079  0.24916895  1
  Si  Si2  1  0.99850302  0.29160689  0.24952983  1
  Si  Si3  1  0.49860941  0.29209759  0.24964063  1
  Si  Si4  1  0.99842294  0.70438925  0.74974691  1
  Si  Si5  1  0.35287666  0.99830059  0.74688686  1
  Si  Si6  1  0.85087796  0.99518388  0.74951331  1
  Si  Si7  1  0.18419541  0.04000529  0.58074958  1
  Si  Si8  1  0.68526320  0.04014118  0.58167068  1
  Si  Si9  1  0.18455559  0.32932365  0.08217031  1
  Si  Si10  1  0.68453871  0.32869415  0.08185915  1
  Si  Si11  1  0.01720050  0.36759121  0.91630271  1
  Si  Si12  1  0.51745346  0.37252162  0.91574602  1
  Si  Si13  1  0.01589099  0.66646137  0.41652272  1
  Si  Si14  1  0.51725633  0.66754270  0.41548056  1
  S  S0  1  0.14624708  0.00006138  0.25059628  1
  S  S1  1  0.64628203  0.00004323  0.25038970  1
  S  S2  1  0.14738035  0.29329037  0.75012903  1
  S  S3  1  0.64576016  0.29208891  0.75120470  1
  S  S4  1  0.49942612  0.70739801  0.75074184  1
  S  S5  1  0.48068876  0.33380720  0.58383602  1
  S  S6  1  0.97991424  0.33174858  0.58315313  1
  S  S7  1  0.33313469  0.62604362  0.58344361  1
  S  S8  1  0.83162260  0.62435125  0.58407580  1
  S  S9  1  0.48055737  0.62911426  0.08260450  1
  S  S10  1  0.98064543  0.62932454  0.08273495  1
  S  S11  1  0.33170409  0.03874636  0.08379277  1
  S  S12  1  0.83151263  0.03843657  0.08379171  1
  S  S13  1  0.31307647  0.66637103  0.91622270  1
  S  S14  1  0.81292983  0.66670230  0.91666791  1
  S  S15  1  0.16710261  0.96057331  0.91711407  1
  S  S16  1  0.66618024  0.95984757  0.91775222  1
  S  S17  1  0.31339813  0.96035183  0.41732121  1
  S  S18  1  0.81264624  0.95930939  0.41660467  1
  S  S19  1  0.16711342  0.37212930  0.41698463  1
  S  S20  1  0.66666305  0.37211165  0.41759749  1
  O  O0  1  0.10970272  0.03127357  0.30395284  1
  O  O1  1  0.60965977  0.03130711  0.30367422  1
  O  O2  1  0.41517376  0.78776266  0.30577513  1
  O  O3  1  0.91531751  0.78708652  0.30564601  1
  O  O4  1  0.48379777  0.16801177  0.30507648  1
  O  O5  1  0.98454664  0.16829303  0.30505341  1
  O  O6  1  0.11086062  0.18833377  0.80372447  1
  O  O7  1  0.60843145  0.18924713  0.80480703  1
  O  O8  1  0.48947789  0.78911770  0.80310342  1
  O  O9  1  0.98539226  0.80188297  0.80497969  1
  O  O10  1  0.41747185  0.03851334  0.80243811  1
  O  O11  1  0.91267418  0.03532482  0.80645150  1
  O  O12  1  0.39823896  0.97909536  0.68774249  1
  O  O13  1  0.89705722  0.96275023  0.69333044  1
  O  O14  1  0.09286257  0.21259294  0.69884588  1
  O  O15  1  0.59088208  0.20941456  0.70003466  1
  O  O16  1  0.01924401  0.82340026  0.69057373  1
  O  O17  1  0.51263334  0.81167336  0.69766720  1
  O  O18  1  0.39859234  0.83018436  0.19292313  1
  O  O19  1  0.89883138  0.83037481  0.19294858  1
  O  O20  1  0.01884382  0.21482270  0.19041798  1
  O  O21  1  0.51846135  0.21453285  0.19046056  1
  O  O22  1  0.09203325  0.96961006  0.19933832  1
  O  O23  1  0.59202727  0.96981033  0.19913050  1
  O  O24  1  0.44267856  0.36133075  0.63787652  1
  O  O25  1  0.94348632  0.36557653  0.63665334  1
  O  O26  1  0.24483418  0.12693252  0.63916446  1
  O  O27  1  0.74513919  0.13654196  0.63787601  1
  O  O28  1  0.32300840  0.52349642  0.63627548  1
  O  O29  1  0.82174873  0.52692684  0.63834965  1
  O  O30  1  0.44345079  0.52224905  0.13652279  1
  O  O31  1  0.94343257  0.52217404  0.13662632  1
  O  O32  1  0.32144719  0.11691216  0.13810933  1
  O  O33  1  0.82106949  0.11633795  0.13811718  1
  O  O34  1  0.24055146  0.35238812  0.14135486  1
  O  O35  1  0.74050826  0.35234641  0.14106965  1
  O  O36  1  0.23278241  0.31308884  0.02373636  1
  O  O37  1  0.73238668  0.31263133  0.02328624  1
  O  O38  1  0.42712526  0.54197122  0.03160337  1
  O  O39  1  0.92711619  0.54240812  0.03180692  1
  O  O40  1  0.34664994  0.15243421  0.03296760  1
  O  O41  1  0.84638526  0.15213762  0.03300769  1
  O  O42  1  0.23411930  0.15379310  0.52324188  1
  O  O43  1  0.72882957  0.15028507  0.52141837  1
  O  O44  1  0.34593780  0.54677478  0.53104673  1
  O  O45  1  0.84693521  0.54119812  0.53323325  1
  O  O46  1  0.42515948  0.30886451  0.53324735  1
  O  O47  1  0.92722922  0.31198259  0.53168217  1
  O  O48  1  0.27466016  0.69457825  0.96918168  1
  O  O49  1  0.77086987  0.69056309  0.96831666  1
  O  O50  1  0.07877946  0.46184201  0.97387805  1
  O  O51  1  0.57921589  0.46220142  0.97299185  1
  O  O52  1  0.15844108  0.85627661  0.96864994  1
  O  O53  1  0.65618686  0.85673000  0.96973480  1
  O  O54  1  0.27211980  0.85487763  0.47029759  1
  O  O55  1  0.77084012  0.85111207  0.46822798  1
  O  O56  1  0.15814370  0.45977622  0.46839585  1
  O  O57  1  0.65753987  0.45881924  0.46871069  1
  O  O58  1  0.07792198  0.69536799  0.47398333  1
  O  O59  1  0.58177690  0.69768084  0.47019054  1
  O  O60  1  0.06359432  0.64585345  0.35802282  1
  O  O61  1  0.56120461  0.64434628  0.35540171  1
  O  O62  1  0.26069356  0.87898749  0.36455941  1
  O  O63  1  0.76159012  0.88143253  0.36275942  1
  O  O64  1  0.17997485  0.47376402  0.36269537  1
  O  O65  1  0.67926501  0.47316009  0.36278215  1
  O  O66  1  0.06469795  0.48296458  0.85777574  1
  O  O67  1  0.56439976  0.48551847  0.85660939  1
  O  O68  1  0.17994496  0.88525702  0.86285334  1
  O  O69  1  0.67966632  0.88158655  0.86449329  1
  O  O70  1  0.25977358  0.64153194  0.86441694  1
  O  O71  1  0.76062627  0.64176881  0.86329293  1
  O  O72  1  0.01634486  0.84907189  0.41284958  1
  O  O73  1  0.51581413  0.84842804  0.41230418  1
  O  O74  1  0.39874931  0.98101687  0.41345316  1
  O  O75  1  0.89872728  0.98133359  0.41269633  1
  O  O76  1  0.09109938  0.20046798  0.41243951  1
  O  O77  1  0.59097979  0.19951398  0.41235572  1
  O  O78  1  0.01628449  0.18424331  0.91275703  1
  O  O79  1  0.51591643  0.18682364  0.91143715  1
  O  O80  1  0.09118381  0.98156291  0.91245490  1
  O  O81  1  0.58961704  0.97876205  0.91113622  1
  O  O82  1  0.40005406  0.81507697  0.91030252  1
  O  O83  1  0.89845878  0.81613325  0.91262745  1
  O  O84  1  0.48464745  0.17398235  0.58875105  1
  O  O85  1  0.98986027  0.18107823  0.58879643  1
  O  O86  1  0.08792012  0.01047513  0.58541878  1
  O  O87  1  0.58954867  0.01987121  0.58908498  1
  O  O88  1  0.40885102  0.80110230  0.58772739  1
  O  O89  1  0.91034607  0.79603039  0.58705221  1
  O  O90  1  0.48912202  0.79823281  0.08832105  1
  O  O91  1  0.98910085  0.79837499  0.08854559  1
  O  O92  1  0.41023974  0.02481159  0.08709071  1
  O  O93  1  0.91007771  0.02463133  0.08719039  1
  O  O94  1  0.08755238  0.16230344  0.08536509  1
  O  O95  1  0.58727371  0.16203340  0.08516060  1
  O  O96  1  0.34547368  0.17661332  0.74365936  1
  O  O97  1  0.84453345  0.16903407  0.74459489  1
  O  O98  1  0.23304590  0.31011697  0.74269772  1
  O  O99  1  0.73293540  0.32080347  0.74450316  1
  O  O100  1  0.42342195  0.53401938  0.74452199  1
  O  O101  1  0.91247583  0.51730485  0.74313970  1
  O  O102  1  0.33984250  0.51403816  0.24422686  1
  O  O103  1  0.83984526  0.51397690  0.24404454  1
  O  O104  1  0.41262119  0.30888794  0.24281605  1
  O  O105  1  0.91262504  0.30851814  0.24280661  1
  O  O106  1  0.23278809  0.15198133  0.24340936  1
  O  O107  1  0.73272088  0.15215884  0.24321356  1
  O  O108  1  0.31822105  0.50741903  0.92186600  1
  O  O109  1  0.81739810  0.50715774  0.92185495  1
  O  O110  1  0.42312586  0.35102338  0.92279341  1
  O  O111  1  0.92309631  0.34924361  0.92383490  1
  O  O112  1  0.24355107  0.13613614  0.92121004  1
  O  O113  1  0.74200142  0.13510295  0.92156547  1
  O  O114  1  0.31815351  0.12928631  0.42229593  1
  O  O115  1  0.81785159  0.12856649  0.42184907  1
  O  O116  1  0.24343179  0.35044277  0.42149178  1
  O  O117  1  0.74342083  0.35080254  0.42115909  1
  O  O118  1  0.42328897  0.49717232  0.42322545  1
  O  O119  1  0.92269376  0.49660130  0.42376113  1
  O  O120  1  0.17313315  0.50157087  0.07911770  1
  O  O121  1  0.67273395  0.50079769  0.07891580  1
  O  O122  1  0.06624714  0.64429640  0.07671831  1
  O  O123  1  0.56603411  0.64371144  0.07657786  1
  O  O124  1  0.25539972  0.87004747  0.07651642  1
  O  O125  1  0.75533933  0.86970677  0.07640738  1
  O  O126  1  0.17903786  0.84915469  0.57803971  1
  O  O127  1  0.67675653  0.84940333  0.57877914  1
  O  O128  1  0.25656375  0.64544242  0.57770765  1
  O  O129  1  0.75534281  0.64117695  0.57617435  1
  O  O130  1  0.06611695  0.48880545  0.57673810  1
  O  O131  1  0.56688686  0.48185289  0.57734947  1
  O  O132  1  0.15728185  0.84810867  0.25656791  1
  O  O133  1  0.65734453  0.84818802  0.25622329  1
  O  O134  1  0.25892798  0.69310764  0.25717447  1
  O  O135  1  0.75887756  0.69281304  0.25692800  1
  O  O136  1  0.08326771  0.48466534  0.25488578  1
  O  O137  1  0.58355779  0.48444608  0.25478669  1
  O  O138  1  0.15593275  0.46413777  0.75582493  1
  O  O139  1  0.65228533  0.46353529  0.75599818  1
  O  O140  1  0.08302527  0.68021399  0.75498627  1
  O  O141  1  0.57568788  0.68381479  0.75475823  1
  O  O142  1  0.25706146  0.83721261  0.75570836  1
  O  O143  1  0.75818615  0.81785986  0.75729370  1
loop_
_geom_bond_atom_site_label_1
_geom_bond_atom_site_label_2
_geom_bond_distance
_geom_bond_site_symmetry_2
Na0 O134 2.425298 1_545
Na0 O104 2.426095 1_555
Na0 O106 2.650847 1_555
Na0 O132 2.653356 1_545
Na0 O32 2.764977 1_555
Na0 O18 2.792872 1_545
Na0 O4 2.795687 1_555
Na0 O62 2.869109 1_545
Na1 O135 2.422907 1_545
Na1 O105 2.429247 1_555
Na1 O133 2.639574 1_545
Na1 O107 2.646553 1_555
Na1 O33 2.777549 1_555
Na1 O63 2.805939 1_545
Na1 O19 2.807788 1_545
Na1 O5 2.808853 1_555
Na2 O136 2.466334 1_555
Na2 O102 2.473468 1_555
Na2 O134 2.520407 1_555
Na2 O106 2.587808 1_555
Na2 O34 2.611961 1_555
Na2 O20 2.850321 1_555
Na2 O64 2.872776 1_555
Na3 O137 2.456474 1_555
Na3 O103 2.472159 1_555
Na3 O135 2.511787 1_555
Na3 O107 2.588403 1_555
Na3 O35 2.631738 1_555
Na3 O65 2.859490 1_555
Na3 O21 2.863306 1_555
Na4 O103 2.482234 1_555
Na4 O136 2.497705 1_655
Na4 O105 2.511960 1_555
Na4 O132 2.602927 1_655
Na4 O60 2.611911 1_655
Na4 O3 2.752567 1_555
Na4 O31 2.891237 1_555
Na4 O22 2.989191 1_655
Na5 O102 2.494258 1_555
Na5 O137 2.495251 1_555
Na5 O104 2.512965 1_555
Na5 O61 2.526084 1_555
Na5 O133 2.594104 1_555
Na5 O2 2.763759 1_555
Na5 O30 2.906510 1_555
Na5 O23 2.994831 1_555
Na6 O101 2.396185 1_555
Na6 O143 2.400478 1_555
Na6 O99 2.578307 1_555
Na6 O139 2.729444 1_555
Na6 O29 2.731893 1_555
Na6 O13 2.765494 1_555
Na6 O9 2.826954 1_555
Na6 O71 2.866832 1_555
Na7 O97 2.412062 1_555
Na7 O140 2.480571 1_655
Na7 O101 2.507992 1_555
Na7 O138 2.585600 1_655
Na7 O66 2.614349 1_655
Na7 O11 2.823311 1_555
Na7 O25 2.889631 1_555
Na8 O96 2.407486 1_555
Na8 O139 2.476167 1_555
Na8 O100 2.561916 1_555
Na8 O141 2.569675 1_555
Na8 O67 2.607647 1_555
Na8 O10 2.707100 1_555
Na8 O24 2.877761 1_555
Na8 O15 2.918024 1_555
Na9 O142 2.394801 1_555
Na9 O140 2.454274 1_555
Na9 O98 2.570859 1_565
Na9 O96 2.596641 1_565
Na9 O26 2.728795 1_565
Na9 O68 2.820061 1_555
Na9 O16 2.841429 1_555
Na9 O6 2.974584 1_565
Na10 O86 2.374193 1_565
Na10 O89 2.462477 1_455
Na10 O126 2.522279 1_555
Na10 O130 2.527671 1_555
Na10 O16 2.632906 1_555
Na10 O58 2.773071 1_555
Na10 O25 2.936027 1_455
Na10 O45 2.952369 1_455
Na11 O126 2.403420 1_555
Na11 O84 2.465480 1_565
Na11 O88 2.552626 1_555
Na11 O12 2.554273 1_555
Na11 O128 2.559082 1_555
Na11 O26 2.813299 1_565
Na11 O54 2.917263 1_555
Na11 O46 2.952517 1_565
Na12 O94 2.373771 1_555
Na12 O120 2.394548 1_555
Na12 O93 2.486041 1_455
Na12 O122 2.527874 1_555
Na12 O20 2.662426 1_555
Na12 O50 2.732194 1_554
Na12 O41 2.975653 1_455
Na12 O31 2.977127 1_455
Na13 O95 2.372998 1_555
Na13 O121 2.393046 1_555
Na13 O92 2.480513 1_555
Na13 O123 2.526317 1_555
Na13 O21 2.646541 1_555
Na13 O51 2.770410 1_554
Na13 O30 2.967706 1_555
Na13 O40 2.975359 1_555
Na14 O78 2.312660 1_555
Na14 O108 2.493291 1_555
Na14 O80 2.524156 1_545
Na14 O112 2.573061 1_555
Na14 O36 2.626955 1_556
Na14 O50 2.816221 1_555
Na14 O6 2.892217 1_555
Na14 O70 2.983863 1_555
Na15 O79 2.350575 1_555
Na15 O109 2.460131 1_555
Na15 O113 2.539821 1_555
Na15 O81 2.554414 1_545
Na15 O37 2.587661 1_556
Na15 O51 2.812756 1_555
Na15 O7 2.897347 1_555
Na15 O71 2.999676 1_555
Na16 O72 2.320879 1_545
Na16 O114 2.484545 1_555
Na16 O76 2.518754 1_555
Na16 O116 2.560951 1_555
Na16 O42 2.613803 1_555
Na16 O58 2.823491 1_545
Na16 O0 2.899800 1_555
Na16 O62 2.996230 1_545
Na17 O73 2.332410 1_545
Na17 O115 2.477007 1_555
Na17 O43 2.527947 1_555
Na17 O77 2.530015 1_555
Na17 O117 2.577638 1_555
Na17 O59 2.750954 1_545
Na17 O1 2.930886 1_555
Na17 O63 3.010202 1_545
Na18 O86 2.492364 1_665
Na18 O72 2.524183 1_655
Na18 O89 2.631559 1_555
Na18 O76 2.656033 1_665
Na18 O85 2.666283 1_565
Na18 O75 2.667575 1_555
Na19 O73 2.432130 1_555
Na19 O87 2.462763 1_565
Na19 O77 2.630465 1_565
Na19 O88 2.670085 1_555
Na19 O74 2.766539 1_555
Na19 O84 2.776030 1_565
Na20 O94 2.471831 1_556
Na20 O78 2.504457 1_555
Na20 O80 2.625083 1_545
Na20 O93 2.671924 1_456
Na20 O91 2.676158 1_446
Na20 O83 2.687915 1_445
Na21 O95 2.440351 1_555
Na21 O79 2.592868 1_554
Na21 O90 2.625005 1_545
Na21 O92 2.640554 1_555
Na21 O81 2.669194 1_544
Na21 O82 2.743131 1_544
Na22 O110 2.411796 1_555
Na22 O96 2.579502 1_555
Na22 O112 2.635564 1_555
Na22 O108 2.670172 1_555
Na22 O100 2.674850 1_555
Na22 O98 2.866998 1_555
Na23 O111 2.476174 1_555
Na23 O97 2.480325 1_555
Na23 O101 2.549905 1_555
Na23 O113 2.713768 1_555
Na23 O109 2.794844 1_555
Na23 O99 2.843107 1_555
Na24 O118 2.408579 1_555
Na24 O102 2.546388 1_555
Na24 O104 2.549445 1_555
Na24 O116 2.716163 1_555
Na24 O114 2.735888 1_555
Na24 O106 2.902993 1_555
Na25 O119 2.403153 1_555
Na25 O103 2.571572 1_555
Na25 O105 2.576410 1_555
Na25 O117 2.684773 1_555
Na25 O115 2.707502 1_555
Na25 O107 2.912070 1_555
Na26 O120 2.429115 1_555
Na26 O134 2.538858 1_555
Na26 O136 2.602891 1_555
Na26 O124 2.661498 1_555
Na26 O122 2.770765 1_555
Na26 O132 2.809485 1_555
Na27 O121 2.449445 1_555
Na27 O135 2.518536 1_555
Na27 O137 2.586040 1_555
Na27 O125 2.675497 1_555
Na27 O123 2.788179 1_555
Na27 O133 2.790517 1_555
Na28 O142 2.479375 1_555
Na28 O140 2.528680 1_555
Na28 O126 2.594892 1_555
Na28 O138 2.642114 1_555
Na28 O128 2.700208 1_555
Na28 O130 2.806146 1_555
Na29 O127 2.337407 1_555
Na29 O143 2.534590 1_555
Na29 O129 2.666006 1_555
Na29 O141 2.716235 1_555
Na29 O131 2.799717 1_555
Na29 O139 2.901404 1_555
O0 S0 1.479189 1_555
O0 Sc0 2.257728 1_445
O1 S1 1.478789 1_555
O1 Sc1 2.246601 1_545
O2 Si0 1.631644 1_555
O2 Sc1 1.937416 1_555
O3 Si1 1.633948 1_555
O3 Sc0 1.931755 1_555
O4 Si3 1.622369 1_555
O4 Sc1 2.009319 1_545
O5 Si2 1.622574 1_555
O5 Sc0 2.006830 1_545
O6 S2 1.484953 1_555
O6 Sc2 2.251601 1_445
O7 S3 1.479207 1_555
O7 Sc3 2.199954 1_555
O8 S4 1.465226 1_555
O8 Sc3 2.245931 1_565
O9 Si4 1.624162 1_555
O9 Sc2 2.002136 1_555
O10 Si5 1.643843 1_545
O10 Sc3 1.910017 1_555
O11 Si6 1.638990 1_545
O11 Sc2 1.921037 1_545
O12 Si5 1.633759 1_555
O12 Sc5 2.048487 1_555
O13 Si6 1.635267 1_555
O13 Sc4 1.980441 1_555
O14 S2 1.474805 1_555
O14 Sc4 2.190763 1_445
O15 S3 1.478498 1_555
O15 Sc5 2.153262 1_545
O16 Si4 1.649045 1_455
O16 Sc4 1.973547 1_455
O17 S4 1.479729 1_555
O17 Sc5 2.097604 1_555
O18 Si0 1.626379 1_555
O18 Sc7 1.998067 1_565
O19 Si1 1.626078 1_555
O19 Sc6 1.996890 1_665
O20 Si2 1.643191 1_455
O20 Sc6 1.975814 1_555
O21 Si3 1.644454 1_555
O21 Sc7 1.972553 1_555
O22 S0 1.467431 1_565
O22 Sc6 2.187066 1_565
O23 S1 1.468170 1_565
O23 Sc7 2.178772 1_565
O24 S5 1.492864 1_555
O24 Sc8 2.147515 1_555
O25 S6 1.490719 1_555
O25 Sc9 2.192076 1_555
O26 Si7 1.661682 1_555
O26 Sc8 1.938643 1_555
O27 Si8 1.630501 1_555
O27 Sc9 1.913822 1_555
O28 S7 1.476240 1_555
O28 Sc8 2.179813 1_555
O29 S8 1.478896 1_555
O29 Sc9 2.277167 1_555
O30 S9 1.499544 1_555
O30 Sc10 2.135744 1_555
O31 S10 1.500362 1_555
O31 Sc11 2.136780 1_555
O32 S11 1.486448 1_555
O32 Sc10 2.235739 1_555
O33 S12 1.486542 1_555
O33 Sc11 2.235402 1_555
O34 Si9 1.644230 1_555
O34 Sc10 1.962411 1_555
O35 Si10 1.643510 1_555
O35 Sc11 1.963179 1_555
O36 Si9 1.640065 1_555
O36 Sc12 1.990646 1_554
O37 Si10 1.638176 1_555
O37 Sc13 2.008399 1_554
O38 S9 1.472441 1_555
O38 Sc12 2.142078 1_554
O39 S10 1.471378 1_555
O39 Sc13 2.137877 1_554
O40 S11 1.482690 1_555
O40 Sc12 2.099636 1_554
O41 S12 1.482247 1_555
O41 Sc13 2.100797 1_554
O42 Si7 1.632491 1_555
O42 Sc14 2.021797 1_555
O43 Si8 1.648417 1_555
O43 Sc15 1.999071 1_555
O44 S7 1.473190 1_555
O44 Sc14 2.096814 1_555
O45 S8 1.484281 1_555
O45 Sc15 2.099636 1_555
O46 S5 1.477640 1_555
O46 Sc14 2.139400 1_555
O47 S6 1.471860 1_555
O47 Sc15 2.146947 1_555
O48 S13 1.479055 1_555
O48 Sc16 2.125587 1_556
O49 S14 1.476440 1_555
O49 Sc17 2.102642 1_556
O50 Si11 1.664239 1_555
O50 Sc16 1.935660 1_556
O51 Si12 1.652760 1_555
O51 Sc17 1.949445 1_556
O52 S15 1.466804 1_555
O52 Sc16 2.224177 1_556
O53 S16 1.463842 1_555
O53 Sc17 2.238084 1_556
O54 S17 1.488311 1_555
O54 Sc18 2.142717 1_555
O55 S18 1.474936 1_555
O55 Sc19 2.137080 1_555
O56 S19 1.472192 1_555
O56 Sc18 2.182745 1_555
O57 S20 1.462741 1_555
O57 Sc19 2.286105 1_555
O58 Si13 1.666044 1_555
O58 Sc18 1.918279 1_555
O59 Si14 1.642781 1_555
O59 Sc19 1.915340 1_555
O60 Si13 1.650310 1_555
O60 Sc20 1.968227 1_555
O61 Si14 1.650577 1_555
O61 Sc21 1.970135 1_555
O62 S17 1.489574 1_555
O62 Sc20 2.257372 1_555
O63 S18 1.492839 1_555
O63 Sc21 2.246502 1_555
O64 S19 1.490571 1_555
O64 Sc20 2.114957 1_555
O65 S20 1.498485 1_555
O65 Sc21 2.101880 1_555
O66 Si11 1.646840 1_555
O66 Sc22 1.984218 1_555
O67 Si12 1.648270 1_555
O67 Sc23 1.995845 1_555
O68 S15 1.488846 1_555
O68 Sc22 2.139305 1_555
O69 S16 1.489062 1_555
O69 Sc23 2.066178 1_555
O70 S13 1.475999 1_555
O70 Sc22 2.213263 1_555
O71 S14 1.494672 1_555
O71 Sc23 2.182227 1_555
O72 Si13 1.649993 1_555
O72 Sc0 2.077101 1_455
O73 Si14 1.651137 1_555
O73 Sc1 2.066934 1_555
O74 S17 1.463554 1_555
O74 Sc1 2.178105 1_555
O75 S18 1.471841 1_555
O75 Sc0 2.157263 1_555
O76 S19 1.478476 1_555
O76 Sc0 2.358942 1_445
O77 S20 1.482337 1_555
O77 Sc1 2.342508 1_545
O78 Si11 1.652644 1_555
O78 Sc2 2.088702 1_445
O79 Si12 1.669358 1_555
O79 Sc3 1.994830 1_555
O80 S15 1.482808 1_555
O80 Sc2 2.353558 1_455
O81 S16 1.487411 1_555
O81 Sc3 2.324759 1_565
O82 S13 1.480694 1_555
O82 Sc3 2.153084 1_565
O83 S14 1.464305 1_555
O83 Sc2 2.177821 1_555
O84 S5 1.487098 1_555
O84 Sc5 2.248459 1_545
O85 S6 1.466880 1_555
O85 Sc4 2.274685 1_545
O86 Si7 1.629642 1_555
O86 Sc4 2.131224 1_445
O87 Si8 1.657350 1_555
O87 Sc5 1.977419 1_545
O88 S7 1.494158 1_555
O88 Sc5 2.221516 1_555
O89 S8 1.496971 1_555
O89 Sc4 2.221298 1_555
O90 S9 1.464946 1_555
O90 Sc7 2.281175 1_565
O91 S10 1.465354 1_555
O91 Sc6 2.272650 1_665
O92 S11 1.491164 1_555
O92 Sc7 2.232701 1_555
O93 S12 1.491164 1_555
O93 Sc6 2.227373 1_655
O94 Si9 1.650543 1_555
O94 Sc6 2.086957 1_555
O95 Si10 1.652282 1_555
O95 Sc7 2.090370 1_555
O96 Si5 1.685605 1_545
O96 Sc8 2.016426 1_555
O97 Si6 1.636900 1_545
O97 Sc9 1.986139 1_555
O98 S2 1.490171 1_555
O98 Sc8 2.181426 1_555
O99 S3 1.473654 1_555
O99 Sc9 2.216949 1_555
O100 S4 1.490922 1_555
O100 Sc8 2.313816 1_555
O101 Si4 1.638248 1_555
O101 Sc9 2.154875 1_555
O102 Si0 1.654143 1_555
O102 Sc10 2.013277 1_555
O103 Si1 1.653622 1_555
O103 Sc11 2.012388 1_555
O104 Si3 1.646063 1_555
O104 Sc10 2.122259 1_555
O105 Si2 1.644473 1_555
O105 Sc11 2.126488 1_555
O106 S0 1.489989 1_555
O106 Sc10 2.229825 1_555
O107 S1 1.489577 1_555
O107 Sc11 2.224892 1_555
O108 S13 1.492131 1_555
O108 Sc12 2.224510 1_555
O109 S14 1.489991 1_555
O109 Sc13 2.229374 1_555
O110 Si12 1.627147 1_555
O110 Sc12 2.045009 1_555
O111 Si11 1.635954 1_655
O111 Sc13 2.017139 1_555
O112 S15 1.501791 1_545
O112 Sc12 2.204435 1_555
O113 S16 1.495248 1_545
O113 Sc13 2.220719 1_555
O114 S17 1.491803 1_545
O114 Sc14 2.249843 1_555
O115 S18 1.491529 1_545
O115 Sc15 2.237339 1_555
O116 S19 1.493454 1_555
O116 Sc14 2.205225 1_555
O117 S20 1.497918 1_555
O117 Sc15 2.201313 1_555
O118 Si14 1.637800 1_555
O118 Sc14 1.997754 1_555
O119 Si13 1.626772 1_655
O119 Sc15 2.042454 1_555
O120 Si9 1.672531 1_555
O120 Sc16 2.000745 1_555
O121 Si10 1.675225 1_555
O121 Sc17 1.992659 1_555
O122 S10 1.492907 1_455
O122 Sc16 2.214721 1_555
O123 S9 1.492132 1_555
O123 Sc17 2.199484 1_555
O124 S11 1.471217 1_565
O124 Sc16 2.274792 1_555
O125 S12 1.470671 1_565
O125 Sc17 2.262546 1_555
O126 Si7 1.683223 1_565
O126 Sc18 2.038107 1_555
O127 Si8 1.655593 1_565
O127 Sc19 1.959295 1_555
O128 S7 1.488120 1_555
O128 Sc18 2.306871 1_555
O129 S8 1.474859 1_555
O129 Sc19 2.290839 1_555
O130 S6 1.503864 1_455
O130 Sc18 2.163032 1_555
O131 S5 1.471019 1_555
O131 Sc19 2.201245 1_555
O132 S0 1.490673 1_565
O132 Sc20 2.247631 1_555
O133 S1 1.489816 1_565
O133 Sc21 2.264778 1_555
O134 Si0 1.647028 1_555
O134 Sc20 2.111037 1_555
O135 Si1 1.645030 1_555
O135 Sc21 2.120089 1_555
O136 Si2 1.657899 1_455
O136 Sc20 2.015001 1_555
O137 Si3 1.655078 1_555
O137 Sc21 2.026647 1_555
O138 S2 1.480509 1_555
O138 Sc22 2.237309 1_555
O139 S3 1.499846 1_555
O139 Sc23 2.282683 1_555
O140 Si4 1.656694 1_455
O140 Sc22 2.026860 1_555
O141 S4 1.501912 1_555
O141 Sc23 2.182996 1_555
O142 Si5 1.627381 1_555
O142 Sc22 2.109330 1_555
O143 Si6 1.653071 1_555
O143 Sc23 2.034088 1_555
