# generated using pymatgen
data_Na6Zr8Si7S5O48
_symmetry_space_group_name_H-M   'P 1'
_cell_length_a   18.20626548
_cell_length_b   9.06149249
_cell_length_c   23.50392558
_cell_angle_alpha   89.87316998
_cell_angle_beta   90.11840638
_cell_angle_gamma   119.91174550
_symmetry_Int_Tables_number   1
_chemical_formula_structural   Na6Zr8Si7S5O48
_chemical_formula_sum   'Na18 Zr24 Si21 S15 O144'
_cell_volume   3361.05675239
_cell_formula_units_Z   3
loop_
 _symmetry_equiv_pos_site_id
 _symmetry_equiv_pos_as_xyz
  1  'x, y, z'
loop_
 _atom_site_type_symbol
 _atom_site_label
 _atom_site_symmetry_multiplicity
 _atom_site_fract_x
 _atom_site_fract_y
 _atom_site_fract_z
 _atom_site_occupancy
  Na  Na0  1  0.00054528  0.63228471  0.25280620  1
  Na  Na1  1  0.49773037  0.65045987  0.24403081  1
  Na  Na2  1  0.99873042  0.34472509  0.75298259  1
  Na  Na3  1  0.49995218  0.37097208  0.75530228  1
  Na  Na4  1  0.66429686  0.31567904  0.91801644  1
  Na  Na5  1  0.16589828  0.01801284  0.41384018  1
  Na  Na6  1  0.99869510  0.97928898  0.50360876  1
  Na  Na7  1  0.49202757  0.98599767  0.49271530  1
  Na  Na8  1  0.99235875  0.99804203  0.99532574  1
  Na  Na9  1  0.49727062  0.00543792  0.00869276  1
  Na  Na10  1  0.33451007  0.33728727  0.83248725  1
  Na  Na11  1  0.83325669  0.33090198  0.83651390  1
  Na  Na12  1  0.33201654  0.33631872  0.32790565  1
  Na  Na13  1  0.83341134  0.32716947  0.32630079  1
  Na  Na14  1  0.17913311  0.67845292  0.17315985  1
  Na  Na15  1  0.67009750  0.66508100  0.16000361  1
  Na  Na16  1  0.17937040  0.68851753  0.66681159  1
  Na  Na17  1  0.67594500  0.67797799  0.67559269  1
  Zr  Zr0  1  0.99897130  0.99545990  0.34765677  1
  Zr  Zr1  1  0.49621751  0.97866001  0.35343468  1
  Zr  Zr2  1  0.99602667  0.01402051  0.85531956  1
  Zr  Zr3  1  0.49832596  0.00013005  0.84886185  1
  Zr  Zr4  1  0.99951203  0.00065140  0.64543446  1
  Zr  Zr5  1  0.49697422  0.99342835  0.65324907  1
  Zr  Zr6  1  0.99801550  0.00232034  0.15332682  1
  Zr  Zr7  1  0.49763993  0.98643156  0.14192219  1
  Zr  Zr8  1  0.32515482  0.32540521  0.69119058  1
  Zr  Zr9  1  0.82462389  0.33226971  0.68785713  1
  Zr  Zr10  1  0.33161799  0.32738365  0.18398170  1
  Zr  Zr11  1  0.82530489  0.32358296  0.19063215  1
  Zr  Zr12  1  0.34366883  0.33408362  0.98189525  1
  Zr  Zr13  1  0.83354701  0.33905462  0.97951275  1
  Zr  Zr14  1  0.33380313  0.32870799  0.47855188  1
  Zr  Zr15  1  0.83905237  0.35389740  0.47970257  1
  Zr  Zr16  1  0.16639329  0.66699893  0.02080809  1
  Zr  Zr17  1  0.66376477  0.64575410  0.02050652  1
  Zr  Zr18  1  0.17025945  0.68913979  0.51782592  1
  Zr  Zr19  1  0.66603771  0.66600880  0.52052183  1
  Zr  Zr20  1  0.16907642  0.67616866  0.31029812  1
  Zr  Zr21  1  0.66546641  0.67226637  0.31153919  1
  Zr  Zr22  1  0.16711381  0.66067219  0.81332457  1
  Zr  Zr23  1  0.66903670  0.66348428  0.81198102  1
  Si  Si0  1  0.14860503  0.00723408  0.25047440  1
  Si  Si1  1  0.64230124  0.00242365  0.25138356  1
  Si  Si2  1  0.35355930  0.70552692  0.24842165  1
  Si  Si3  1  0.85148753  0.70626202  0.24962498  1
  Si  Si4  1  0.00064094  0.29435150  0.25091026  1
  Si  Si5  1  0.14220708  0.28463219  0.75099445  1
  Si  Si6  1  0.64501407  0.28968067  0.75085199  1
  Si  Si7  1  0.50084081  0.70683007  0.75055777  1
  Si  Si8  1  0.35144681  0.99577376  0.74971515  1
  Si  Si9  1  0.85449801  0.00030885  0.74771827  1
  Si  Si10  1  0.18757222  0.04436431  0.58290511  1
  Si  Si11  1  0.83276235  0.62995821  0.58384355  1
  Si  Si12  1  0.48215177  0.62437477  0.08431131  1
  Si  Si13  1  0.33155894  0.03700207  0.08396792  1
  Si  Si14  1  0.68831703  0.33109758  0.08314441  1
  Si  Si15  1  0.81362553  0.67116751  0.91744966  1
  Si  Si16  1  0.02082639  0.37844425  0.91711789  1
  Si  Si17  1  0.51867768  0.36981065  0.91345992  1
  Si  Si18  1  0.31562538  0.96067901  0.41585062  1
  Si  Si19  1  0.02045344  0.66945717  0.41423114  1
  Si  Si20  1  0.52142321  0.66586459  0.41723511  1
  S  S0  1  0.50033723  0.28963470  0.25118147  1
  S  S1  1  0.00035623  0.70961917  0.75001762  1
  S  S2  1  0.47954523  0.33190409  0.58330245  1
  S  S3  1  0.97921252  0.33520861  0.58315845  1
  S  S4  1  0.68676742  0.04238732  0.58169901  1
  S  S5  1  0.33392292  0.62531866  0.58262305  1
  S  S6  1  0.97980025  0.62755677  0.08334348  1
  S  S7  1  0.83536092  0.04390714  0.08262280  1
  S  S8  1  0.18598606  0.33000117  0.08120649  1
  S  S9  1  0.31130461  0.66464541  0.91772472  1
  S  S10  1  0.16670369  0.95775986  0.91646464  1
  S  S11  1  0.66608080  0.95625305  0.91766271  1
  S  S12  1  0.81156734  0.95721876  0.41830210  1
  S  S13  1  0.16549268  0.37583448  0.41872596  1
  S  S14  1  0.66697457  0.37650200  0.41749035  1
  O  O0  1  0.10434790  0.02793718  0.30910830  1
  O  O1  1  0.60103723  0.03249561  0.30821685  1
  O  O2  1  0.41460866  0.79210796  0.30519587  1
  O  O3  1  0.91345797  0.79406303  0.30512492  1
  O  O4  1  0.48982206  0.18941955  0.30291167  1
  O  O5  1  0.98503751  0.17458404  0.30692017  1
  O  O6  1  0.09901955  0.16804042  0.80671382  1
  O  O7  1  0.60357089  0.17959364  0.80867829  1
  O  O8  1  0.48516787  0.79501086  0.80617438  1
  O  O9  1  0.98698904  0.78388703  0.80108448  1
  O  O10  1  0.41313861  0.03056876  0.80473324  1
  O  O11  1  0.91595107  0.04079188  0.80399792  1
  O  O12  1  0.39507046  0.96546971  0.69312564  1
  O  O13  1  0.90012768  0.97169814  0.69265823  1
  O  O14  1  0.08203684  0.20139050  0.69527533  1
  O  O15  1  0.58460455  0.19562221  0.69545967  1
  O  O16  1  0.01258622  0.81121477  0.69807125  1
  O  O17  1  0.51336788  0.82468986  0.69378912  1
  O  O18  1  0.39898108  0.82620930  0.19387669  1
  O  O19  1  0.89593320  0.82507822  0.19342120  1
  O  O20  1  0.01312219  0.20206435  0.19449608  1
  O  O21  1  0.51252049  0.21461020  0.19946422  1
  O  O22  1  0.08489914  0.97524067  0.19616041  1
  O  O23  1  0.58183680  0.96279362  0.19649741  1
  O  O24  1  0.44387520  0.35825763  0.63551591  1
  O  O25  1  0.93975077  0.35692729  0.63527615  1
  O  O26  1  0.24902906  0.14234438  0.63688189  1
  O  O27  1  0.73827540  0.12072462  0.63400180  1
  O  O28  1  0.32655504  0.52655704  0.63439986  1
  O  O29  1  0.82080901  0.50686385  0.63829821  1
  O  O30  1  0.43678835  0.51173637  0.14188795  1
  O  O31  1  0.94399540  0.52947185  0.13576498  1
  O  O32  1  0.31508854  0.12608996  0.13902845  1
  O  O33  1  0.82872091  0.12984010  0.13444932  1
  O  O34  1  0.23701405  0.35487067  0.13321526  1
  O  O35  1  0.75029051  0.35334648  0.13673229  1
  O  O36  1  0.22718960  0.31091551  0.03000631  1
  O  O37  1  0.73380203  0.30991268  0.02511826  1
  O  O38  1  0.42099668  0.52550966  0.02899528  1
  O  O39  1  0.92664955  0.53905045  0.03274671  1
  O  O40  1  0.33996088  0.15055523  0.02708116  1
  O  O41  1  0.84692706  0.15052751  0.03145870  1
  O  O42  1  0.23272187  0.15398036  0.52484694  1
  O  O43  1  0.73073323  0.14588252  0.53109260  1
  O  O44  1  0.34493701  0.54302642  0.53144578  1
  O  O45  1  0.84288840  0.53032361  0.52768301  1
  O  O46  1  0.42643548  0.31424754  0.53276168  1
  O  O47  1  0.92458477  0.31457279  0.53240295  1
  O  O48  1  0.27001978  0.68848993  0.96873820  1
  O  O49  1  0.76906475  0.69944061  0.97286400  1
  O  O50  1  0.08200896  0.48188629  0.97089144  1
  O  O51  1  0.58053330  0.46487832  0.96845669  1
  O  O52  1  0.15908404  0.85366887  0.96802867  1
  O  O53  1  0.65666696  0.85708213  0.96902295  1
  O  O54  1  0.27060782  0.84403345  0.47303376  1
  O  O55  1  0.77000096  0.85005789  0.46944930  1
  O  O56  1  0.15643048  0.45742523  0.47050285  1
  O  O57  1  0.66040869  0.46554591  0.46905689  1
  O  O58  1  0.08148188  0.69257911  0.46968847  1
  O  O59  1  0.58231210  0.68407659  0.47200372  1
  O  O60  1  0.06158548  0.64322265  0.35694976  1
  O  O61  1  0.56589817  0.63915553  0.36059089  1
  O  O62  1  0.25145867  0.86958030  0.36274813  1
  O  O63  1  0.76016661  0.87570024  0.36672591  1
  O  O64  1  0.17658148  0.47688925  0.36712356  1
  O  O65  1  0.68252779  0.48291543  0.36658680  1
  O  O66  1  0.06449389  0.49031825  0.85877025  1
  O  O67  1  0.56249847  0.48012798  0.85582729  1
  O  O68  1  0.17966817  0.87586146  0.86541983  1
  O  O69  1  0.67735599  0.87836943  0.86571117  1
  O  O70  1  0.25980087  0.64847198  0.86581613  1
  O  O71  1  0.75208234  0.63528893  0.86205880  1
  O  O72  1  0.01501020  0.84537850  0.41333860  1
  O  O73  1  0.51565316  0.84040406  0.41456106  1
  O  O74  1  0.41086986  0.99331561  0.41032997  1
  O  O75  1  0.89672540  0.97670203  0.41402917  1
  O  O76  1  0.09019932  0.20094716  0.41468468  1
  O  O77  1  0.59017840  0.21080128  0.41380118  1
  O  O78  1  0.01534871  0.19187634  0.91416536  1
  O  O79  1  0.51424447  0.18313711  0.91104412  1
  O  O80  1  0.08800473  0.96488864  0.91182116  1
  O  O81  1  0.59095988  0.98101234  0.91264788  1
  O  O82  1  0.39641340  0.81548653  0.91292918  1
  O  O83  1  0.90987653  0.82828625  0.90931554  1
  O  O84  1  0.48895117  0.17812812  0.58556865  1
  O  O85  1  0.98492280  0.17777106  0.58570391  1
  O  O86  1  0.09386195  0.02449283  0.58974837  1
  O  O87  1  0.60209590  0.02586085  0.58610740  1
  O  O88  1  0.41015886  0.79994220  0.58601948  1
  O  O89  1  0.91683574  0.81537210  0.58820654  1
  O  O90  1  0.48759034  0.80939339  0.08594869  1
  O  O91  1  0.98894702  0.79984658  0.08554819  1
  O  O92  1  0.41618620  0.02328457  0.08896221  1
  O  O93  1  0.91287425  0.02570416  0.08624844  1
  O  O94  1  0.09998565  0.17727388  0.08640058  1
  O  O95  1  0.59470729  0.16733432  0.08977189  1
  O  O96  1  0.34986691  0.17363661  0.74261882  1
  O  O97  1  0.85377779  0.18139758  0.73842186  1
  O  O98  1  0.23821237  0.31788877  0.74445076  1
  O  O99  1  0.73944341  0.31003624  0.74432454  1
  O  O100  1  0.41943395  0.51672984  0.74066503  1
  O  O101  1  0.92638666  0.53214527  0.74266957  1
  O  O102  1  0.35094702  0.52199579  0.24276480  1
  O  O103  1  0.85037336  0.52563258  0.24266062  1
  O  O104  1  0.42496415  0.31500307  0.24657185  1
  O  O105  1  0.91957385  0.32233698  0.24185686  1
  O  O106  1  0.24173541  0.17277487  0.24458958  1
  O  O107  1  0.73889540  0.16109141  0.24559657  1
  O  O108  1  0.31504276  0.50626275  0.92209572  1
  O  O109  1  0.81644074  0.49030761  0.92393865  1
  O  O110  1  0.42397664  0.34943274  0.91962384  1
  O  O111  1  0.92624286  0.35372214  0.92450607  1
  O  O112  1  0.24102477  0.13012537  0.92187077  1
  O  O113  1  0.74286281  0.13240611  0.92167820  1
  O  O114  1  0.31722023  0.14448084  0.42369784  1
  O  O115  1  0.81731185  0.12601974  0.42503630  1
  O  O116  1  0.24211390  0.35411010  0.42340679  1
  O  O117  1  0.74278631  0.35258689  0.42467044  1
  O  O118  1  0.42683965  0.50131765  0.42639780  1
  O  O119  1  0.92543900  0.49863007  0.42349373  1
  O  O120  1  0.17706773  0.48550886  0.07608566  1
  O  O121  1  0.68334538  0.50707034  0.07919699  1
  O  O122  1  0.06586650  0.64643485  0.07567524  1
  O  O123  1  0.57653759  0.64864619  0.07684188  1
  O  O124  1  0.24672479  0.84671988  0.07544544  1
  O  O125  1  0.75855783  0.87678868  0.07810362  1
  O  O126  1  0.17789529  0.85179245  0.57897040  1
  O  O127  1  0.67867011  0.87031463  0.57704702  1
  O  O128  1  0.25561807  0.63775465  0.57799861  1
  O  O129  1  0.74733366  0.64489562  0.57579355  1
  O  O130  1  0.06435642  0.48489804  0.57644583  1
  O  O131  1  0.56602786  0.48538028  0.57556176  1
  O  O132  1  0.15117104  0.82927315  0.25407040  1
  O  O133  1  0.64864080  0.82561382  0.25937510  1
  O  O134  1  0.25959467  0.67996043  0.25771426  1
  O  O135  1  0.75770241  0.68062895  0.25950266  1
  O  O136  1  0.08306887  0.48333296  0.25676006  1
  O  O137  1  0.57619835  0.46562480  0.25719071  1
  O  O138  1  0.14765667  0.47315781  0.75832510  1
  O  O139  1  0.65104248  0.47464204  0.75366123  1
  O  O140  1  0.07667843  0.68781998  0.75527866  1
  O  O141  1  0.58337883  0.68315463  0.75605896  1
  O  O142  1  0.25669456  0.83358063  0.75795888  1
  O  O143  1  0.76014333  0.84086517  0.75632522  1
loop_
_geom_bond_atom_site_label_1
_geom_bond_atom_site_label_2
_geom_bond_distance
_geom_bond_site_symmetry_2
Na0 O132 2.413587 1_555
Na0 O103 2.414349 1_455
Na0 O105 2.449475 1_455
Na0 O136 2.471656 1_555
Na0 O60 2.667669 1_555
Na0 O3 2.917061 1_455
Na0 O31 2.922084 1_455
Na0 O22 3.003188 1_555
Na1 O102 2.322678 1_555
Na1 O133 2.418123 1_555
Na1 O104 2.642329 1_555
Na1 O30 2.680708 1_555
Na1 O23 2.697014 1_555
Na1 O137 2.706302 1_555
Na1 O2 2.821139 1_555
Na2 O97 2.318455 1_555
Na2 O138 2.360929 1_655
Na2 O101 2.627836 1_555
Na2 O11 2.673451 1_555
Na2 O140 2.698632 1_655
Na2 O66 2.789843 1_655
Na2 O14 2.794275 1_655
Na2 O25 2.987294 1_555
Na3 O139 2.423610 1_555
Na3 O96 2.424623 1_555
Na3 O100 2.436948 1_555
Na3 O141 2.454498 1_555
Na3 O67 2.594892 1_555
Na4 O79 2.378921 1_555
Na4 O109 2.413293 1_555
Na4 O81 2.637789 1_545
Na4 O113 2.679450 1_555
Na4 O51 2.762222 1_555
Na4 O7 2.826624 1_555
Na4 O37 2.827208 1_556
Na4 O71 2.836772 1_555
Na5 O72 2.389122 1_545
Na5 O114 2.409729 1_555
Na5 O76 2.631802 1_555
Na5 O116 2.652989 1_555
Na5 O0 2.722405 1_555
Na5 O62 2.789654 1_545
Na5 O58 2.872688 1_545
Na5 O42 2.882997 1_555
Na6 O89 2.484438 1_555
Na6 O72 2.536876 1_655
Na6 O86 2.559343 1_665
Na6 O85 2.736413 1_565
Na6 O75 2.796564 1_555
Na6 O76 2.799399 1_665
Na7 O73 2.424835 1_555
Na7 O74 2.454083 1_555
Na7 O77 2.673878 1_565
Na7 O88 2.713721 1_555
Na7 O84 2.812776 1_565
Na7 O87 2.868451 1_565
Na8 O78 2.480802 1_665
Na8 O83 2.530901 1_555
Na8 O93 2.664739 1_566
Na8 O80 2.741019 1_655
Na8 O91 2.756551 1_556
Na8 O94 2.807789 1_666
Na9 O92 2.452722 1_555
Na9 O90 2.481702 1_545
Na9 O95 2.516665 1_555
Na9 O79 2.728773 1_554
Na9 O82 2.872024 1_544
Na9 O81 2.906744 1_544
Na10 O110 2.582288 1_555
Na10 O98 2.658109 1_555
Na10 O96 2.677439 1_555
Na10 O100 2.680142 1_555
Na10 O108 2.732137 1_555
Na10 O112 2.764993 1_555
Na11 O111 2.612346 1_555
Na11 O109 2.619020 1_555
Na11 O113 2.644973 1_555
Na11 O99 2.704162 1_555
Na11 O97 2.795107 1_555
Na11 O101 2.824782 1_555
Na12 O106 2.510542 1_555
Na12 O102 2.522661 1_555
Na12 O104 2.626099 1_555
Na12 O114 2.771597 1_555
Na12 O118 2.828310 1_555
Na12 O116 2.832578 1_555
Na13 O107 2.498077 1_555
Na13 O105 2.546327 1_555
Na13 O103 2.574323 1_555
Na13 O119 2.800608 1_555
Na13 O115 2.871407 1_555
Na13 O117 2.918590 1_555
Na14 O134 2.462491 1_555
Na14 O132 2.540243 1_555
Na14 O136 2.638318 1_555
Na14 O124 2.690495 1_555
Na14 O120 2.866309 1_555
Na14 O122 2.995551 1_555
Na15 O121 2.464519 1_555
Na15 O123 2.545342 1_555
Na15 O125 2.625762 1_555
Na15 O135 2.791918 1_555
Na15 O133 2.882592 1_555
Na15 O137 2.885031 1_555
Na16 O142 2.540412 1_555
Na16 O126 2.545228 1_555
Na16 O128 2.673795 1_555
Na16 O138 2.762415 1_555
Na16 O140 2.797033 1_555
Na16 O130 2.906195 1_555
Na17 O143 2.423407 1_555
Na17 O139 2.474412 1_555
Na17 O141 2.551805 1_555
Na17 O129 2.772294 1_555
Na17 O127 2.881181 1_555
Na17 O131 3.015597 1_555
O0 Si0 1.655344 1_555
O0 Zr0 2.007765 1_445
O1 Si1 1.622639 1_555
O1 Zr1 2.021638 1_545
O2 Si2 1.661445 1_555
O2 Zr1 1.961442 1_555
O3 Si3 1.646462 1_555
O3 Zr0 1.980318 1_555
O4 S0 1.470478 1_555
O4 Zr1 2.298298 1_545
O5 Si4 1.636858 1_655
O5 Zr0 2.004604 1_545
O6 Si5 1.618389 1_555
O6 Zr2 2.039806 1_455
O7 Si6 1.630724 1_555
O7 Zr3 2.025111 1_555
O8 Si7 1.631643 1_555
O8 Zr3 2.020382 1_565
O9 S1 1.456333 1_655
O9 Zr2 2.381054 1_565
O10 Si8 1.635777 1_545
O10 Zr3 1.993991 1_555
O11 Si9 1.650100 1_555
O11 Zr2 1.995865 1_555
O12 Si8 1.642800 1_555
O12 Zr5 1.980425 1_555
O13 Si9 1.628756 1_565
O13 Zr4 2.026909 1_565
O14 Si5 1.630480 1_555
O14 Zr4 2.053031 1_455
O15 Si6 1.641707 1_555
O15 Zr5 1.993176 1_545
O16 S1 1.476316 1_555
O16 Zr4 2.220537 1_465
O17 Si7 1.650743 1_555
O17 Zr5 1.944849 1_555
O18 Si2 1.618510 1_555
O18 Zr7 2.055665 1_555
O19 Si3 1.639593 1_555
O19 Zr6 1.986270 1_565
O20 Si4 1.644627 1_555
O20 Zr6 1.948889 1_455
O21 S0 1.464282 1_555
O21 Zr7 2.372738 1_545
O22 Si0 1.648983 1_565
O22 Zr6 1.988816 1_465
O23 Si1 1.614593 1_565
O23 Zr7 2.087874 1_555
O24 S2 1.464275 1_555
O24 Zr8 2.416838 1_555
O25 S3 1.483637 1_555
O25 Zr9 2.347983 1_555
O26 Si10 1.630362 1_555
O26 Zr8 2.002762 1_555
O27 S4 1.493227 1_555
O27 Zr9 2.178370 1_555
O28 S5 1.475128 1_555
O28 Zr8 2.246719 1_555
O29 Si11 1.637802 1_555
O29 Zr9 1.991416 1_555
O30 Si12 1.647125 1_555
O30 Zr10 2.060627 1_555
O31 S6 1.467525 1_555
O31 Zr11 2.406944 1_555
O32 Si13 1.632192 1_555
O32 Zr10 1.998434 1_555
O33 S7 1.484413 1_555
O33 Zr11 2.224693 1_555
O34 S8 1.481854 1_555
O34 Zr10 2.206908 1_555
O35 Si14 1.633556 1_555
O35 Zr11 1.975243 1_555
O36 S8 1.474748 1_555
O36 Zr12 2.320515 1_554
O37 Si14 1.657426 1_555
O37 Zr13 2.011229 1_554
O38 Si12 1.654387 1_555
O38 Zr12 1.944978 1_554
O39 S6 1.489736 1_555
O39 Zr13 2.158843 1_554
O40 Si13 1.645501 1_555
O40 Zr12 1.943891 1_554
O41 S7 1.488930 1_555
O41 Zr13 2.207490 1_554
O42 Si10 1.645830 1_555
O42 Zr14 2.042605 1_555
O43 S4 1.478290 1_555
O43 Zr15 2.278918 1_555
O44 S5 1.482313 1_555
O44 Zr14 2.230525 1_555
O45 Si11 1.662459 1_555
O45 Zr15 1.930996 1_555
O46 S2 1.487776 1_555
O46 Zr14 2.166941 1_555
O47 S3 1.502622 1_555
O47 Zr15 2.151678 1_555
O48 S9 1.488669 1_555
O48 Zr16 2.176520 1_556
O49 Si15 1.622759 1_555
O49 Zr17 2.059670 1_556
O50 Si16 1.635516 1_555
O50 Zr16 1.995383 1_556
O51 Si17 1.647005 1_555
O51 Zr17 2.000856 1_556
O52 S10 1.497626 1_555
O52 Zr16 2.152285 1_556
O53 S11 1.461718 1_555
O53 Zr17 2.320318 1_556
O54 Si18 1.652163 1_555
O54 Zr18 1.964730 1_555
O55 S12 1.492147 1_555
O55 Zr19 2.158070 1_555
O56 S13 1.476922 1_555
O56 Zr18 2.278411 1_555
O57 S14 1.495138 1_555
O57 Zr19 2.144039 1_555
O58 Si19 1.655449 1_555
O58 Zr18 1.983950 1_555
O59 Si20 1.651002 1_555
O59 Zr19 1.972742 1_555
O60 Si19 1.616496 1_555
O60 Zr20 2.132146 1_555
O61 Si20 1.639537 1_555
O61 Zr21 2.042059 1_555
O62 Si18 1.625038 1_555
O62 Zr20 2.054564 1_555
O63 S12 1.483504 1_555
O63 Zr21 2.210166 1_555
O64 S13 1.470382 1_555
O64 Zr20 2.301739 1_555
O65 S14 1.471535 1_555
O65 Zr21 2.287910 1_555
O66 Si16 1.653792 1_555
O66 Zr22 2.034469 1_555
O67 Si17 1.635170 1_555
O67 Zr23 2.090798 1_555
O68 S10 1.491870 1_555
O68 Zr22 2.217806 1_555
O69 S11 1.476668 1_555
O69 Zr23 2.263901 1_555
O70 S9 1.499428 1_555
O70 Zr22 2.135143 1_555
O71 Si15 1.639708 1_555
O71 Zr23 2.028110 1_555
O72 Si19 1.645857 1_555
O72 Zr0 2.168623 1_455
O73 Si20 1.637572 1_555
O73 Zr1 2.047174 1_555
O74 Si18 1.612613 1_555
O74 Zr1 2.106080 1_555
O75 S12 1.473975 1_555
O75 Zr0 2.371294 1_555
O76 S13 1.494354 1_555
O76 Zr0 2.371810 1_445
O77 S14 1.457128 1_555
O77 Zr1 2.403904 1_545
O78 Si16 1.644742 1_555
O78 Zr2 2.019045 1_455
O79 Si17 1.653872 1_555
O79 Zr3 2.121256 1_555
O80 S10 1.469923 1_555
O80 Zr2 2.344731 1_465
O81 S11 1.496662 1_555
O81 Zr3 2.324178 1_565
O82 S9 1.472994 1_555
O82 Zr3 2.326775 1_565
O83 Si15 1.626745 1_555
O83 Zr2 2.066249 1_565
O84 S2 1.487097 1_555
O84 Zr5 2.363056 1_545
O85 S3 1.482277 1_555
O85 Zr4 2.243004 1_555
O86 Si10 1.632095 1_555
O86 Zr4 2.085274 1_455
O87 S4 1.476448 1_555
O87 Zr5 2.385189 1_545
O88 S5 1.498791 1_555
O88 Zr5 2.303749 1_555
O89 Si11 1.616026 1_555
O89 Zr4 2.091630 1_565
O90 Si12 1.629968 1_555
O90 Zr7 2.013316 1_555
O91 S6 1.486204 1_555
O91 Zr6 2.375086 1_565
O92 Si13 1.610380 1_555
O92 Zr7 2.084369 1_545
O93 S7 1.502541 1_555
O93 Zr6 2.291158 1_555
O94 S8 1.490194 1_555
O94 Zr6 2.345210 1_455
O95 Si14 1.615145 1_555
O95 Zr7 2.103221 1_545
O96 Si8 1.634398 1_545
O96 Zr8 2.040181 1_555
O97 Si9 1.661457 1_555
O97 Zr9 2.068124 1_555
O98 Si5 1.626405 1_555
O98 Zr8 1.994380 1_555
O99 Si6 1.642537 1_555
O99 Zr9 1.975555 1_555
O100 Si7 1.634667 1_555
O100 Zr8 2.082533 1_555
O101 S1 1.506649 1_655
O101 Zr9 2.241980 1_555
O102 Si2 1.645538 1_555
O102 Zr10 2.128955 1_555
O103 Si3 1.635325 1_555
O103 Zr11 2.056704 1_555
O104 S0 1.503851 1_555
O104 Zr10 2.290000 1_555
O105 Si4 1.630858 1_655
O105 Zr11 2.099062 1_555
O106 Si0 1.614809 1_555
O106 Zr10 2.093855 1_555
O107 Si1 1.629970 1_555
O107 Zr11 2.000417 1_555
O108 S9 1.473659 1_555
O108 Zr12 2.340849 1_555
O109 Si15 1.671642 1_555
O109 Zr13 2.024295 1_555
O110 Si17 1.646566 1_555
O110 Zr12 2.025936 1_555
O111 Si16 1.631563 1_655
O111 Zr13 2.078914 1_555
O112 S10 1.476127 1_545
O112 Zr12 2.335480 1_555
O113 S11 1.511843 1_545
O113 Zr13 2.235784 1_555
O114 Si18 1.661903 1_545
O114 Zr14 2.011336 1_555
O115 S12 1.488989 1_545
O115 Zr15 2.294761 1_555
O116 S13 1.506649 1_555
O116 Zr14 2.211901 1_555
O117 S14 1.509210 1_555
O117 Zr15 2.171386 1_555
O118 Si20 1.635324 1_555
O118 Zr14 2.043526 1_555
O119 Si19 1.662958 1_655
O119 Zr15 1.970472 1_555
O120 S8 1.501286 1_555
O120 Zr16 2.176846 1_555
O121 Si14 1.643999 1_555
O121 Zr17 2.011548 1_555
O122 S6 1.500254 1_455
O122 Zr16 2.171641 1_555
O123 Si12 1.629811 1_555
O123 Zr17 2.079973 1_555
O124 Si13 1.656170 1_565
O124 Zr16 2.016522 1_555
O125 S7 1.465606 1_565
O125 Zr17 2.365046 1_555
O126 Si10 1.666917 1_565
O126 Zr18 2.015241 1_555
O127 S4 1.495440 1_565
O127 Zr19 2.197801 1_555
O128 S5 1.488788 1_555
O128 Zr18 2.311239 1_555
O129 Si11 1.637628 1_555
O129 Zr19 2.046538 1_555
O130 S3 1.473345 1_455
O130 Zr18 2.341352 1_555
O131 S2 1.504168 1_555
O131 Zr19 2.167016 1_555
O132 Si0 1.638381 1_565
O132 Zr20 2.053956 1_555
O133 Si1 1.672880 1_565
O133 Zr21 1.985791 1_555
O134 Si2 1.622983 1_555
O134 Zr20 2.048501 1_555
O135 Si3 1.621476 1_555
O135 Zr21 2.050061 1_555
O136 Si4 1.625017 1_555
O136 Zr20 2.088414 1_555
O137 S0 1.508045 1_555
O137 Zr21 2.178588 1_555
O138 Si5 1.670356 1_555
O138 Zr22 2.022681 1_555
O139 Si6 1.625567 1_555
O139 Zr23 2.088988 1_555
O140 S1 1.502687 1_555
O140 Zr22 2.241866 1_555
O141 Si7 1.625262 1_555
O141 Zr23 2.111676 1_555
O142 Si8 1.626353 1_555
O142 Zr22 2.063842 1_555
O143 Si9 1.613749 1_565
O143 Zr23 2.094451 1_555
