# generated using pymatgen
data_Co2As2O7
_symmetry_space_group_name_H-M   'P 1'
_cell_length_a   6.39641125
_cell_length_b   6.74413954
_cell_length_c   6.74197176
_cell_angle_alpha   100.55530905
_cell_angle_beta   70.79999915
_cell_angle_gamma   109.24519622
_symmetry_Int_Tables_number   1
_chemical_formula_structural   Co2As2O7
_chemical_formula_sum   'Co4 As4 O14'
_cell_volume   258.39699361
_cell_formula_units_Z   2
loop_
 _symmetry_equiv_pos_site_id
 _symmetry_equiv_pos_as_xyz
  1  'x, y, z'
loop_
 _atom_site_type_symbol
 _atom_site_label
 _atom_site_symmetry_multiplicity
 _atom_site_fract_x
 _atom_site_fract_y
 _atom_site_fract_z
 _atom_site_occupancy
  Co  Co0  1  0.75176552  0.06314278  0.56216405  1
  Co  Co1  1  0.74828728  0.43768456  0.93827934  1
  Co  Co2  1  0.25293073  0.56014627  0.06201722  1
  Co  Co3  1  0.24670270  0.94047401  0.43905235  1
  As  As0  1  0.73223079  0.95471536  0.04472003  1
  As  As1  1  0.19417950  0.44729911  0.55859796  1
  As  As2  1  0.76745015  0.54520650  0.45536427  1
  As  As3  1  0.30563007  0.05265733  0.94142152  1
  O  O0  1  0.47446646  0.45722186  0.55525130  1
  O  O1  1  0.02520605  0.03820592  0.94154437  1
  O  O2  1  0.24572752  0.62060928  0.38203974  1
  O  O3  1  0.67823545  0.10403329  0.89635960  1
  O  O4  1  0.25508893  0.88041264  0.11866644  1
  O  O5  1  0.82226910  0.39708158  0.60426808  1
  O  O6  1  0.62769546  0.69572927  0.98063046  1
  O  O7  1  0.11114615  0.18439789  0.48090994  1
  O  O8  1  0.63673486  0.02579393  0.30234229  1
  O  O9  1  0.10696048  0.52432258  0.82068307  1
  O  O10  1  0.86479853  0.47537100  0.19752722  1
  O  O11  1  0.39412185  0.97578357  0.67927740  1
  O  O12  1  0.87078053  0.80418596  0.51992088  1
  O  O13  1  0.38758789  0.31552531  0.01896146  1
loop_
_geom_bond_atom_site_label_1
_geom_bond_atom_site_label_2
_geom_bond_distance
_geom_bond_site_symmetry_2
Co0 O8 2.058452 1_555
Co0 O12 2.064536 1_545
Co0 O11 2.073094 1_545
Co0 O7 2.085593 1_655
Co0 O3 2.129492 1_555
Co0 O5 2.129903 1_555
Co1 O10 2.060118 1_556
Co1 O6 2.064737 1_555
Co1 O9 2.079205 1_655
Co1 O13 2.093657 1_556
Co1 O5 2.128039 1_555
Co1 O3 2.128294 1_555
Co2 O13 2.035848 1_555
Co2 O9 2.069776 1_554
Co2 O2 2.109083 1_555
Co2 O4 2.119646 1_555
Co2 O6 2.181106 1_554
Co2 O10 2.255866 1_455
Co3 O7 2.036407 1_565
Co3 O11 2.069808 1_555
Co3 O4 2.109563 1_555
Co3 O2 2.119026 1_555
Co3 O12 2.188219 1_455
Co3 O8 2.267205 1_565
As0 O8 1.676256 1_565
As0 O6 1.681717 1_554
As0 O1 1.703894 1_664
As0 O3 1.720288 1_564
As1 O2 1.699805 1_555
As1 O9 1.705769 1_555
As1 O7 1.709400 1_555
As1 O0 1.764677 1_555
As1 O5 2.212227 1_455
As2 O10 1.677133 1_555
As2 O12 1.681238 1_555
As2 O0 1.703203 1_555
As2 O5 1.720058 1_555
As3 O4 1.699652 1_546
As3 O11 1.706616 1_545
As3 O13 1.708521 1_556
As3 O1 1.763716 1_555
As3 O3 2.215984 1_555
