# generated using pymatgen
data_AgBiSe2
_symmetry_space_group_name_H-M   'P 1'
_cell_length_a   4.17172187
_cell_length_b   4.17172126
_cell_length_c   19.75476391
_cell_angle_alpha   90.00000000
_cell_angle_beta   90.00000000
_cell_angle_gamma   120.00000473
_symmetry_Int_Tables_number   1
_chemical_formula_structural   AgBiSe2
_chemical_formula_sum   'Ag3 Bi3 Se6'
_cell_volume   297.73718917
_cell_formula_units_Z   3
loop_
 _symmetry_equiv_pos_site_id
 _symmetry_equiv_pos_as_xyz
  1  'x, y, z'
loop_
 _atom_site_type_symbol
 _atom_site_label
 _atom_site_symmetry_multiplicity
 _atom_site_fract_x
 _atom_site_fract_y
 _atom_site_fract_z
 _atom_site_occupancy
  Ag  Ag0  1  0.33333300  0.66666700  0.66673256  1
  Ag  Ag1  1  0.66666700  0.33333300  0.33326744  1
  Ag  Ag2  1  -0.00000000  -0.00000000  -0.00000000  1
  Bi  Bi0  1  0.33333300  0.66666700  0.16666213  1
  Bi  Bi1  1  -0.00000000  -0.00000000  0.50000000  1
  Bi  Bi2  1  0.66666700  0.33333300  0.83333787  1
  Se  Se0  1  0.66666700  0.33333300  0.58716887  1
  Se  Se1  1  0.33333300  0.66666700  0.41283113  1
  Se  Se2  1  0.66666700  0.33333300  0.07956026  1
  Se  Se3  1  0.33333300  0.66666700  0.92043974  1
  Se  Se4  1  0.00000000  0.00000000  0.25377359  1
  Se  Se5  1  -0.00000000  -0.00000000  0.74622641  1
loop_
_geom_bond_atom_site_label_1
_geom_bond_atom_site_label_2
_geom_bond_distance
_geom_bond_site_symmetry_2
Ag0 Se5 2.875270 1_565
Ag0 Se5 2.875272 1_555
Ag0 Se5 2.875273 1_665
Ag0 Se0 2.876023 1_565
Ag0 Se0 2.876023 1_455
Ag0 Se0 2.876030 1_555
Ag1 Se4 2.875270 1_655
Ag1 Se4 2.875272 1_665
Ag1 Se4 2.875273 1_555
Ag1 Se1 2.876023 1_545
Ag1 Se1 2.876023 1_655
Ag1 Se1 2.876030 1_555
Ag2 Se3 2.875986 1_544
Ag2 Se2 2.875986 1_455
Ag2 Se3 2.875989 1_554
Ag2 Se2 2.875989 1_445
Ag2 Se3 2.875989 1_444
Ag2 Se2 2.875989 1_555
Bi0 Se2 2.960034 1_565
Bi0 Se2 2.960035 1_455
Bi0 Se2 2.960040 1_555
Bi0 Se4 2.960145 1_565
Bi0 Se4 2.960147 1_555
Bi0 Se4 2.960148 1_665
Bi1 Se1 2.960804 1_545
Bi1 Se0 2.960804 1_455
Bi1 Se1 2.960807 1_555
Bi1 Se0 2.960807 1_445
Bi1 Se1 2.960807 1_445
Bi1 Se0 2.960807 1_555
Bi2 Se3 2.960034 1_545
Bi2 Se3 2.960035 1_655
Bi2 Se3 2.960040 1_555
Bi2 Se5 2.960145 1_655
Bi2 Se5 2.960147 1_665
Bi2 Se5 2.960148 1_555
