# generated using pymatgen
data_LiFeF4
_symmetry_space_group_name_H-M   'P 1'
_cell_length_a   5.62479537
_cell_length_b   5.65206415
_cell_length_c   5.47196671
_cell_angle_alpha   59.47817195
_cell_angle_beta   90.00000000
_cell_angle_gamma   90.00000000
_symmetry_Int_Tables_number   1
_chemical_formula_structural   LiFeF4
_chemical_formula_sum   'Li2 Fe2 F8'
_cell_volume   149.85807261
_cell_formula_units_Z   2
loop_
 _symmetry_equiv_pos_site_id
 _symmetry_equiv_pos_as_xyz
  1  'x, y, z'
loop_
 _atom_site_type_symbol
 _atom_site_label
 _atom_site_symmetry_multiplicity
 _atom_site_fract_x
 _atom_site_fract_y
 _atom_site_fract_z
 _atom_site_occupancy
  Li  Li0  1  0.40526284  0.50000000  0.25000000  1
  Li  Li1  1  0.59473716  0.50000000  0.75000000  1
  Fe  Fe0  1  0.85649100  -0.00000000  0.25000000  1
  Fe  Fe1  1  0.14350900  -0.00000000  0.75000000  1
  F  F0  1  0.11606301  0.79844528  0.17571447  1
  F  F1  1  0.63229962  0.72322300  0.32137587  1
  F  F2  1  0.88393699  0.79844528  0.67571447  1
  F  F3  1  0.36770038  0.72322300  0.82137587  1
  F  F4  1  0.63229962  0.27677700  0.17862413  1
  F  F5  1  0.11606301  0.20155472  0.32428553  1
  F  F6  1  0.36770038  0.27677700  0.67862413  1
  F  F7  1  0.88393699  0.20155472  0.82428553  1
loop_
_geom_bond_atom_site_label_1
_geom_bond_atom_site_label_2
_geom_bond_distance
_geom_bond_site_symmetry_2
F0 Fe1 2.013118 1_564
F0 Fe0 2.016205 1_465
F0 Li0 2.227171 1_555
F1 Fe0 1.889277 1_565
F1 Li0 1.968678 1_555
F1 Li1 2.032666 1_555
F2 Fe0 2.013118 1_565
F2 Fe1 2.016205 1_665
F2 Li1 2.227171 1_555
F3 Fe1 1.889277 1_565
F3 Li1 1.968678 1_555
F3 Li0 2.032666 1_556
F4 Fe0 1.889277 1_555
F4 Li0 1.968678 1_555
F4 Li1 2.032666 1_554
F5 Fe1 2.013118 1_555
F5 Fe0 2.016205 1_455
F5 Li0 2.227171 1_555
F6 Fe1 1.889277 1_555
F6 Li1 1.968678 1_555
F6 Li0 2.032666 1_555
F7 Fe0 2.013118 1_556
F7 Fe1 2.016205 1_655
F7 Li1 2.227171 1_555
