# generated using pymatgen
data_Na3YSi3Sn3(SO8)3
_symmetry_space_group_name_H-M   'P 1'
_cell_length_a   8.99481581
_cell_length_b   9.03846718
_cell_length_c   23.14905666
_cell_angle_alpha   89.63235202
_cell_angle_beta   90.43344412
_cell_angle_gamma   120.15241645
_symmetry_Int_Tables_number   1
_chemical_formula_structural   Na3YSi3Sn3(SO8)3
_chemical_formula_sum   'Na9 Y3 Si9 Sn9 S9 O72'
_cell_volume   1627.29957806
_cell_formula_units_Z   3
loop_
 _symmetry_equiv_pos_site_id
 _symmetry_equiv_pos_as_xyz
  1  'x, y, z'
loop_
 _atom_site_type_symbol
 _atom_site_label
 _atom_site_symmetry_multiplicity
 _atom_site_fract_x
 _atom_site_fract_y
 _atom_site_fract_z
 _atom_site_occupancy
  Na  Na0  1  0.35501353  0.35627297  0.24181846  1
  Na  Na1  1  0.63318931  0.62231715  0.75795303  1
  Na  Na2  1  0.96876245  0.28774590  0.41840757  1
  Na  Na3  1  0.99509854  0.00916574  0.49966590  1
  Na  Na4  1  0.99904524  0.98875759  0.00431735  1
  Na  Na5  1  0.66078498  0.34305775  0.83306389  1
  Na  Na6  1  0.66955754  0.31622968  0.33228577  1
  Na  Na7  1  0.30578919  0.65007409  0.16070484  1
  Na  Na8  1  0.28889580  0.63755588  0.66803210  1
  Y  Y0  1  0.99564230  0.00182203  0.35599443  1
  Y  Y1  1  0.67473408  0.33460996  0.68678566  1
  Y  Y2  1  0.68792643  0.34601712  0.17977445  1
  Si  Si0  1  0.00276072  0.30123824  0.25331133  1
  Si  Si1  1  0.28699628  0.29120553  0.75407972  1
  Si  Si2  1  0.00865126  0.72072751  0.75049274  1
  Si  Si3  1  0.96834903  0.33174182  0.58132611  1
  Si  Si4  1  0.97570983  0.64369442  0.08081879  1
  Si  Si5  1  0.36771865  0.33339155  0.08467186  1
  Si  Si6  1  0.62760008  0.67381213  0.91471760  1
  Si  Si7  1  0.61305004  0.95199106  0.41895909  1
  Si  Si8  1  0.34529596  0.37546481  0.41814837  1
  Sn  Sn0  1  0.00226370  0.99333241  0.85356955  1
  Sn  Sn1  1  0.01487880  0.01654039  0.64883811  1
  Sn  Sn2  1  0.01109064  0.01305007  0.14521113  1
  Sn  Sn3  1  0.66422113  0.36101986  0.98433060  1
  Sn  Sn4  1  0.66149847  0.31696570  0.48110669  1
  Sn  Sn5  1  0.33849099  0.66119251  0.01907435  1
  Sn  Sn6  1  0.33395279  0.65515172  0.51814847  1
  Sn  Sn7  1  0.33981668  0.65985209  0.31675087  1
  Sn  Sn8  1  0.32152309  0.65617396  0.81426704  1
  S  S0  1  0.29150816  0.98782691  0.25013715  1
  S  S1  1  0.70281316  0.71021114  0.24812647  1
  S  S2  1  0.70873467  0.99354069  0.75195881  1
  S  S3  1  0.36379694  0.02879029  0.58171176  1
  S  S4  1  0.67176463  0.63440150  0.58302330  1
  S  S5  1  0.66773186  0.04071549  0.07895048  1
  S  S6  1  0.03031544  0.36784566  0.91745470  1
  S  S7  1  0.34039520  0.96149302  0.91740287  1
  S  S8  1  0.04163860  0.65881784  0.41879107  1
  O  O0  1  0.20614867  0.00538074  0.30135315  1
  O  O1  1  0.80244938  0.78502666  0.30087619  1
  O  O2  1  0.99304579  0.20528528  0.31320634  1
  O  O3  1  0.19469771  0.18184743  0.81255733  1
  O  O4  1  0.95894019  0.79534982  0.80683533  1
  O  O5  1  0.81318169  0.02189763  0.80471248  1
  O  O6  1  0.78599581  0.96472017  0.69942700  1
  O  O7  1  0.17476111  0.21676727  0.69453855  1
  O  O8  1  0.03187620  0.83262471  0.69113983  1
  O  O9  1  0.78920503  0.81031357  0.19547426  1
  O  O10  1  0.03935527  0.20424586  0.19757422  1
  O  O11  1  0.18569725  0.96156190  0.19677007  1
  O  O12  1  0.87978289  0.35623158  0.63699216  1
  O  O13  1  0.46450982  0.10987187  0.63396563  1
  O  O14  1  0.64376156  0.53481484  0.63655215  1
  O  O15  1  0.90824014  0.52482012  0.13710841  1
  O  O16  1  0.64140856  0.11232985  0.13187937  1
  O  O17  1  0.46440712  0.35370969  0.14545603  1
  O  O18  1  0.45453795  0.29336119  0.02832974  1
  O  O19  1  0.85733577  0.55817414  0.02230913  1
  O  O20  1  0.69551079  0.15039745  0.02710625  1
  O  O21  1  0.44326633  0.13892291  0.52950007  1
  O  O22  1  0.69011218  0.54646883  0.53187037  1
  O  O23  1  0.85531089  0.30728804  0.52074322  1
  O  O24  1  0.53350329  0.70032966  0.96999385  1
  O  O25  1  0.13965556  0.45050914  0.96859802  1
  O  O26  1  0.31130271  0.85306546  0.96868122  1
  O  O27  1  0.52071082  0.84838630  0.47781779  1
  O  O28  1  0.29144256  0.45993165  0.47024096  1
  O  O29  1  0.14477841  0.68644294  0.47171347  1
  O  O30  1  0.11911994  0.62994128  0.36621015  1
  O  O31  1  0.49675866  0.86915192  0.35992114  1
  O  O32  1  0.37545472  0.48160872  0.35651726  1
  O  O33  1  0.10274552  0.47565157  0.86416545  1
  O  O34  1  0.35796528  0.88039256  0.86381398  1
  O  O35  1  0.51504214  0.64822813  0.85489396  1
  O  O36  1  0.01750017  0.80591766  0.41332595  1
  O  O37  1  0.80365028  0.97454052  0.41806947  1
  O  O38  1  0.17990448  0.18429905  0.41648526  1
  O  O39  1  0.01906271  0.19916377  0.91165866  1
  O  O40  1  0.18606875  0.98368930  0.91375668  1
  O  O41  1  0.82139378  0.84844729  0.91195665  1
  O  O42  1  0.98301335  0.15470456  0.58600646  1
  O  O43  1  0.18867070  0.00881919  0.58443576  1
  O  O44  1  0.82920069  0.80626634  0.58682793  1
  O  O45  1  0.97649498  0.82514852  0.09067153  1
  O  O46  1  0.82154424  0.01990976  0.08479318  1
  O  O47  1  0.17139465  0.16776846  0.08492051  1
  O  O48  1  0.68434116  0.14155688  0.74690906  1
  O  O49  1  0.47833913  0.31657110  0.75054243  1
  O  O50  1  0.84106642  0.53086939  0.74652149  1
  O  O51  1  0.66905365  0.53215389  0.24510519  1
  O  O52  1  0.83635178  0.32251314  0.24935061  1
  O  O53  1  0.46013021  0.14723964  0.24582432  1
  O  O54  1  0.64227146  0.49754103  0.91839844  1
  O  O55  1  0.85444875  0.34280340  0.92359976  1
  O  O56  1  0.49954975  0.13161127  0.92220208  1
  O  O57  1  0.64521420  0.15030543  0.42020154  1
  O  O58  1  0.52723884  0.37768234  0.42798396  1
  O  O59  1  0.87150267  0.49812353  0.42297512  1
  O  O60  1  0.35767093  0.50898948  0.07649493  1
  O  O61  1  0.17131148  0.67843230  0.06968151  1
  O  O62  1  0.51352256  0.86893870  0.07271582  1
  O  O63  1  0.34803474  0.85861537  0.57649404  1
  O  O64  1  0.51820255  0.65675730  0.57802777  1
  O  O65  1  0.16096762  0.50717628  0.57701287  1
  O  O66  1  0.31218116  0.83491605  0.25432482  1
  O  O67  1  0.53173426  0.70217964  0.25041681  1
  O  O68  1  0.18793516  0.49342946  0.25441645  1
  O  O69  1  0.31356846  0.48767927  0.75668043  1
  O  O70  1  0.18788467  0.71393160  0.75843085  1
  O  O71  1  0.53858869  0.83381099  0.75642166  1
loop_
_geom_bond_atom_site_label_1
_geom_bond_atom_site_label_2
_geom_bond_distance
_geom_bond_site_symmetry_2
Na0 O68 2.400685 1_555
Na0 O51 2.449326 1_555
Na0 O17 2.449804 1_555
Na0 O53 2.502642 1_555
Na0 O10 2.655815 1_555
Na0 O67 2.711406 1_555
Na0 O32 2.861648 1_555
Na1 O49 2.396226 1_555
Na1 O50 2.410876 1_555
Na1 O71 2.451980 1_555
Na1 O69 2.496297 1_555
Na1 O35 2.552059 1_555
Na1 O4 2.771405 1_555
Na1 O14 2.939480 1_555
Na1 O6 3.000594 1_555
Na2 O37 2.448704 1_545
Na2 O59 2.463191 1_555
Na2 O38 2.503764 1_655
Na2 O57 2.526610 1_555
Na2 O2 2.593998 1_555
Na2 O23 2.628237 1_555
Na2 O28 2.778384 1_655
Na2 O30 2.937654 1_655
Na3 O42 2.432635 1_555
Na3 O37 2.459310 1_545
Na3 O38 2.518444 1_655
Na3 O43 2.614592 1_655
Na3 O44 2.628685 1_545
Na3 O36 2.799142 1_645
Na4 O45 2.427109 1_555
Na4 O47 2.444961 1_665
Na4 O46 2.569488 1_565
Na4 O41 2.584632 1_554
Na4 O40 2.712732 1_654
Na4 O39 2.803467 1_664
Na5 O49 2.442006 1_555
Na5 O54 2.480643 1_555
Na5 O50 2.600927 1_555
Na5 O56 2.687732 1_555
Na5 O55 2.715815 1_555
Na5 O48 2.789301 1_555
Na6 O52 2.428284 1_555
Na6 O57 2.465083 1_555
Na6 O53 2.641819 1_555
Na6 O59 2.719610 1_555
Na6 O58 2.761866 1_555
Na6 O51 2.799997 1_555
Na7 O61 2.496937 1_555
Na7 O60 2.507481 1_555
Na7 O68 2.514344 1_555
Na7 O66 2.727527 1_555
Na7 O67 2.766263 1_555
Na7 O62 2.801073 1_555
Na8 O65 2.405246 1_555
Na8 O69 2.520915 1_555
Na8 O70 2.521630 1_555
Na8 O63 2.767734 1_555
Na8 O64 2.885503 1_555
Na8 O71 2.890018 1_555
O0 S0 1.469318 1_545
O0 Y0 2.271725 1_455
O1 S1 1.461772 1_555
O1 Y0 2.250586 1_565
O2 Si0 1.610116 1_655
O2 Y0 2.093555 1_555
O3 Si1 1.635298 1_555
O3 Sn0 1.960071 1_545
O4 Si2 1.636788 1_655
O4 Sn0 1.960192 1_655
O5 S2 1.477971 1_545
O5 Sn0 2.155614 1_645
O6 S2 1.492760 1_555
O6 Sn1 2.211343 1_665
O7 Si1 1.637101 1_555
O7 Sn1 1.962012 1_555
O8 Si2 1.651836 1_555
O8 Sn1 1.994431 1_565
O9 S1 1.483886 1_555
O9 Sn2 2.242468 1_665
O10 Si0 1.688932 1_555
O10 Sn2 2.025141 1_555
O11 S0 1.499128 1_555
O11 Sn2 2.192379 1_565
O12 Si3 1.593894 1_555
O12 Y1 2.106121 1_555
O13 S3 1.465868 1_555
O13 Y1 2.309763 1_555
O14 S4 1.473689 1_555
O14 Y1 2.275708 1_555
O15 Si4 1.599878 1_555
O15 Y2 2.075125 1_555
O16 S5 1.464520 1_555
O16 Y2 2.236251 1_555
O17 Si5 1.610703 1_555
O17 Y2 2.189451 1_555
O18 Si5 1.657461 1_555
O18 Sn3 1.957293 1_554
O19 Si4 1.652424 1_555
O19 Sn3 1.962917 1_554
O20 S5 1.491975 1_555
O20 Sn3 2.278963 1_554
O21 S3 1.498495 1_555
O21 Sn4 2.129450 1_555
O22 S4 1.485901 1_555
O22 Sn4 2.289212 1_555
O23 Si3 1.675147 1_555
O23 Sn4 2.004152 1_555
O24 Si6 1.623356 1_555
O24 Sn5 1.973453 1_556
O25 S6 1.477394 1_555
O25 Sn5 2.183057 1_556
O26 S7 1.473135 1_555
O26 Sn5 2.196365 1_556
O27 Si7 1.625612 1_555
O27 Sn6 1.949185 1_555
O28 Si8 1.632132 1_555
O28 Sn6 1.957152 1_555
O29 S8 1.475776 1_555
O29 Sn6 2.140736 1_555
O30 S8 1.495010 1_555
O30 Sn7 2.194530 1_555
O31 Si7 1.651443 1_555
O31 Sn7 1.972390 1_555
O32 Si8 1.660215 1_555
O32 Sn7 2.010215 1_555
O33 S6 1.501551 1_555
O33 Sn8 2.157216 1_555
O34 S7 1.494067 1_555
O34 Sn8 2.210619 1_555
O35 Si6 1.656516 1_555
O35 Sn8 2.004876 1_555
O36 S8 1.455437 1_555
O36 Y0 2.291496 1_465
O37 Si7 1.621922 1_555
O37 Y0 2.170994 1_565
O38 Si8 1.617955 1_555
O38 Y0 2.162507 1_455
O39 S6 1.483281 1_555
O39 Sn0 2.244723 1_545
O40 S7 1.500693 1_555
O40 Sn0 2.188731 1_555
O41 Si6 1.664441 1_555
O41 Sn0 2.014641 1_655
O42 Si3 1.673080 1_555
O42 Sn1 2.021670 1_655
O43 S3 1.494527 1_555
O43 Sn1 2.194854 1_555
O44 S4 1.488664 1_555
O44 Sn1 2.296084 1_665
O45 Si4 1.653793 1_555
O45 Sn2 2.016396 1_665
O46 S5 1.491972 1_555
O46 Sn2 2.221663 1_655
O47 Si5 1.644304 1_555
O47 Sn2 1.990550 1_555
O48 S2 1.464282 1_545
O48 Y1 2.260035 1_555
O49 Si1 1.620777 1_555
O49 Y1 2.252233 1_555
O50 Si2 1.620718 1_655
O50 Y1 2.152041 1_555
O51 S1 1.482339 1_555
O51 Y2 2.338780 1_555
O52 Si0 1.603962 1_655
O52 Y2 2.160930 1_555
O53 S0 1.480363 1_545
O53 Y2 2.465357 1_555
O54 Si6 1.665033 1_555
O54 Sn3 2.026598 1_555
O55 S6 1.489003 1_655
O55 Sn3 2.292090 1_555
O56 S7 1.488095 1_545
O56 Sn3 2.341463 1_555
O57 Si7 1.666435 1_545
O57 Sn4 2.020108 1_555
O58 Si8 1.640726 1_555
O58 Sn4 1.976482 1_555
O59 S8 1.492772 1_655
O59 Sn4 2.227791 1_555
O60 Si5 1.644076 1_555
O60 Sn5 1.974997 1_555
O61 Si4 1.646637 1_455
O61 Sn5 1.980496 1_555
O62 S5 1.480453 1_565
O62 Sn5 2.139370 1_555
O63 S3 1.477685 1_565
O63 Sn6 2.239974 1_555
O64 S4 1.496582 1_555
O64 Sn6 2.146993 1_555
O65 Si3 1.663356 1_455
O65 Sn6 1.996183 1_555
O66 S0 1.486710 1_555
O66 Sn7 2.239236 1_555
O67 S1 1.504999 1_555
O67 Sn7 2.203049 1_555
O68 Si0 1.698743 1_555
O68 Sn7 2.035877 1_555
O69 Si1 1.670045 1_555
O69 Sn8 2.004166 1_555
O70 Si2 1.652723 1_555
O70 Sn8 1.996597 1_555
O71 S2 1.489296 1_555
O71 Sn8 2.246282 1_555
