# generated using pymatgen
data_Na3GaSiGe(PO6)2
_symmetry_space_group_name_H-M   'P 1'
_cell_length_a   15.08950624
_cell_length_b   8.76136994
_cell_length_c   8.83026805
_cell_angle_alpha   90.00000000
_cell_angle_beta   125.37520074
_cell_angle_gamma   90.00000000
_symmetry_Int_Tables_number   1
_chemical_formula_structural   Na3GaSiGe(PO6)2
_chemical_formula_sum   'Na12 Ga4 Si4 Ge4 P8 O48'
_cell_volume   951.87553061
_cell_formula_units_Z   4
loop_
 _symmetry_equiv_pos_site_id
 _symmetry_equiv_pos_as_xyz
  1  'x, y, z'
loop_
 _atom_site_type_symbol
 _atom_site_label
 _atom_site_symmetry_multiplicity
 _atom_site_fract_x
 _atom_site_fract_y
 _atom_site_fract_z
 _atom_site_occupancy
  Na  Na0  1  0.25093279  0.72895293  0.99509105  1
  Na  Na1  1  0.75093279  0.77104707  0.49509105  1
  Na  Na2  1  0.75093279  0.22895293  0.99509105  1
  Na  Na3  1  0.25093279  0.27104707  0.49509105  1
  Na  Na4  1  0.50469925  0.11472721  0.75685872  1
  Na  Na5  1  0.50469925  0.88527279  0.25685872  1
  Na  Na6  1  0.00469925  0.61472721  0.75685872  1
  Na  Na7  1  0.00469925  0.38527279  0.25685872  1
  Na  Na8  1  0.18669077  0.93654736  0.27822424  1
  Na  Na9  1  0.18669077  0.06345264  0.77822424  1
  Na  Na10  1  0.68669077  0.43654736  0.27822424  1
  Na  Na11  1  0.68669077  0.56345264  0.77822424  1
  Ga  Ga0  1  0.10533262  0.74157635  0.56217986  1
  Ga  Ga1  1  0.10533262  0.25842365  0.06217986  1
  Ga  Ga2  1  0.60533262  0.24157635  0.56217986  1
  Ga  Ga3  1  0.60533262  0.75842365  0.06217986  1
  Si  Si0  1  0.64646443  0.89206132  0.74880001  1
  Si  Si1  1  0.64646443  0.10793868  0.24880001  1
  Si  Si2  1  0.14646443  0.39206132  0.74880001  1
  Si  Si3  1  0.14646443  0.60793868  0.24880001  1
  Ge  Ge0  1  0.89708416  0.75892026  0.93934180  1
  Ge  Ge1  1  0.89708416  0.24107974  0.43934180  1
  Ge  Ge2  1  0.39708416  0.25892026  0.93934180  1
  Ge  Ge3  1  0.39708416  0.74107974  0.43934180  1
  P  P0  1  0.99610514  0.96253090  0.75434311  1
  P  P1  1  0.99610514  0.03746910  0.25434311  1
  P  P2  1  0.49610514  0.46253090  0.75434311  1
  P  P3  1  0.49610514  0.53746910  0.25434311  1
  P  P4  1  0.35535330  0.89522222  0.75631129  1
  P  P5  1  0.35535330  0.10477778  0.25631129  1
  P  P6  1  0.85535330  0.39522222  0.75631129  1
  P  P7  1  0.85535330  0.60477778  0.25631129  1
  O  O0  1  0.15032126  0.57629643  0.73785629  1
  O  O1  1  0.85205429  0.57516350  0.76135760  1
  O  O2  1  0.85205429  0.42483650  0.26135760  1
  O  O3  1  0.15032126  0.42370357  0.23785629  1
  O  O4  1  0.65032126  0.07629643  0.73785629  1
  O  O5  1  0.35205429  0.07516350  0.76135760  1
  O  O6  1  0.35205429  0.92483650  0.26135760  1
  O  O7  1  0.65032126  0.92370357  0.23785629  1
  O  O8  1  0.42573524  0.56230797  0.57679079  1
  O  O9  1  0.56581229  0.55597868  0.93225711  1
  O  O10  1  0.56581229  0.44402132  0.43225711  1
  O  O11  1  0.42573524  0.43769203  0.07679079  1
  O  O12  1  0.92573524  0.06230797  0.57679079  1
  O  O13  1  0.06581229  0.05597868  0.93225711  1
  O  O14  1  0.06581229  0.94402132  0.43225711  1
  O  O15  1  0.92573524  0.93769203  0.07679079  1
  O  O16  1  0.25364847  0.83806671  0.73974252  1
  O  O17  1  0.74983701  0.80396836  0.76673950  1
  O  O18  1  0.74983701  0.19603164  0.26673950  1
  O  O19  1  0.25364847  0.16193329  0.23974252  1
  O  O20  1  0.75364847  0.33806671  0.73974252  1
  O  O21  1  0.24983701  0.30396836  0.76673950  1
  O  O22  1  0.24983701  0.69603164  0.26673950  1
  O  O23  1  0.75364847  0.66193329  0.23974252  1
  O  O24  1  0.35702967  0.86498063  0.58267656  1
  O  O25  1  0.64118817  0.85423725  0.91996341  1
  O  O26  1  0.64118817  0.14576275  0.41996341  1
  O  O27  1  0.35702967  0.13501937  0.08267656  1
  O  O28  1  0.85702967  0.36498063  0.58267656  1
  O  O29  1  0.14118817  0.35423725  0.91996341  1
  O  O30  1  0.14118817  0.64576275  0.41996341  1
  O  O31  1  0.85702967  0.63501937  0.08267656  1
  O  O32  1  0.45415616  0.83095101  0.93660749  1
  O  O33  1  0.53860322  0.81146275  0.55638563  1
  O  O34  1  0.53860322  0.18853725  0.05638563  1
  O  O35  1  0.45415616  0.16904899  0.43660749  1
  O  O36  1  0.95415616  0.33095101  0.93660749  1
  O  O37  1  0.03860322  0.31146275  0.55638563  1
  O  O38  1  0.03860322  0.68853725  0.05638563  1
  O  O39  1  0.95415616  0.66904899  0.43660749  1
  O  O40  1  0.07562943  0.85914154  0.74306324  1
  O  O41  1  0.91332233  0.85602670  0.75540979  1
  O  O42  1  0.91332233  0.14397330  0.25540979  1
  O  O43  1  0.07562943  0.14085846  0.24306324  1
  O  O44  1  0.57562943  0.35914154  0.74306324  1
  O  O45  1  0.41332233  0.35602670  0.75540979  1
  O  O46  1  0.41332233  0.64397330  0.25540979  1
  O  O47  1  0.57562943  0.64085846  0.24306324  1
loop_
_geom_bond_atom_site_label_1
_geom_bond_atom_site_label_2
_geom_bond_distance
_geom_bond_site_symmetry_2
Na0 O0 2.293552 1_555
Na0 O46 2.306695 1_556
Na0 O22 2.425550 1_556
Na0 O16 2.471169 1_555
Na0 O40 2.536704 1_555
Na0 O6 2.578343 1_556
Na1 O7 2.293552 1_555
Na1 O41 2.306695 1_555
Na1 O17 2.425550 1_555
Na1 O23 2.471169 1_555
Na1 O47 2.536704 1_555
Na1 O1 2.578343 1_555
Na2 O4 2.293552 1_555
Na2 O42 2.306695 1_556
Na2 O18 2.425550 1_556
Na2 O20 2.471169 1_555
Na2 O44 2.536704 1_555
Na2 O2 2.578343 1_556
Na3 O3 2.293552 1_555
Na3 O45 2.306695 1_555
Na3 O21 2.425550 1_555
Na3 O19 2.471169 1_555
Na3 O43 2.536704 1_555
Na3 O5 2.578343 1_555
Na4 O4 2.323112 1_555
Na4 O5 2.352242 1_555
Na4 O44 2.428366 1_555
Na4 O34 2.471582 1_556
Na4 O35 2.511574 1_555
Na4 O45 2.519999 1_555
Na4 O25 2.844331 1_545
Na4 O24 2.854900 1_545
Na5 O7 2.323112 1_555
Na5 O6 2.352242 1_555
Na5 O47 2.428366 1_555
Na5 O33 2.471582 1_555
Na5 O32 2.511574 1_554
Na5 O46 2.519999 1_555
Na5 O26 2.844331 1_565
Na5 O27 2.854900 1_565
Na6 O0 2.323112 1_555
Na6 O1 2.352242 1_455
Na6 O40 2.428366 1_555
Na6 O38 2.471582 1_556
Na6 O39 2.511574 1_455
Na6 O41 2.519999 1_455
Na6 O29 2.844331 1_555
Na6 O28 2.854900 1_455
Na7 O3 2.323112 1_555
Na7 O2 2.352242 1_455
Na7 O43 2.428366 1_555
Na7 O37 2.471582 1_555
Na7 O36 2.511574 1_454
Na7 O42 2.519999 1_455
Na7 O30 2.844331 1_555
Na7 O31 2.854900 1_455
Na8 O19 2.330925 1_565
Na8 O22 2.338926 1_555
Na8 O43 2.346638 1_565
Na8 O24 2.495268 1_555
Na8 O6 2.586369 1_555
Na8 O13 2.702388 1_564
Na8 O14 2.837922 1_555
Na8 O38 2.912701 1_555
Na9 O16 2.330925 1_545
Na9 O21 2.338926 1_555
Na9 O40 2.346638 1_545
Na9 O27 2.495268 1_556
Na9 O5 2.586369 1_555
Na9 O14 2.702388 1_545
Na9 O13 2.837922 1_555
Na9 O37 2.912701 1_555
Na10 O23 2.330925 1_555
Na10 O18 2.338926 1_555
Na10 O47 2.346638 1_555
Na10 O28 2.495268 1_555
Na10 O2 2.586369 1_555
Na10 O9 2.702388 1_554
Na10 O10 2.837922 1_555
Na10 O34 2.912701 1_555
Na11 O20 2.330925 1_555
Na11 O17 2.338926 1_555
Na11 O44 2.346638 1_555
Na11 O31 2.495268 1_556
Na11 O1 2.586369 1_555
Na11 O10 2.702388 1_555
Na11 O9 2.837922 1_555
Na11 O33 2.912701 1_555
Ga0 O30 1.833351 1_555
Ga0 O0 1.935172 1_555
Ga0 O39 1.976950 1_455
Ga0 O14 2.006403 1_555
Ga0 O16 2.029485 1_555
Ga0 O40 2.154522 1_555
Ga1 O29 1.833351 1_554
Ga1 O3 1.935172 1_555
Ga1 O36 1.976950 1_454
Ga1 O13 2.006403 1_554
Ga1 O19 2.029485 1_555
Ga1 O43 2.154522 1_555
Ga2 O26 1.833351 1_555
Ga2 O4 1.935172 1_555
Ga2 O35 1.976950 1_555
Ga2 O10 2.006403 1_555
Ga2 O20 2.029485 1_555
Ga2 O44 2.154522 1_555
Ga3 O25 1.833351 1_554
Ga3 O7 1.935172 1_555
Ga3 O32 1.976950 1_554
Ga3 O9 2.006403 1_554
Ga3 O23 2.029485 1_555
Ga3 O47 2.154522 1_555
Ge0 O38 1.858265 1_656
Ge0 O17 1.869360 1_555
Ge0 O15 1.872351 1_556
Ge0 O41 1.970427 1_555
Ge0 O31 2.007835 1_556
Ge0 O1 2.070572 1_555
Ge1 O37 1.858265 1_655
Ge1 O18 1.869360 1_555
Ge1 O12 1.872351 1_555
Ge1 O42 1.970427 1_555
Ge1 O28 2.007835 1_555
Ge1 O2 2.070572 1_555
Ge2 O34 1.858265 1_556
Ge2 O21 1.869360 1_555
Ge2 O11 1.872351 1_556
Ge2 O45 1.970427 1_555
Ge2 O27 2.007835 1_556
Ge2 O5 2.070572 1_555
Ge3 O33 1.858265 1_555
Ge3 O22 1.869360 1_555
Ge3 O8 1.872351 1_555
Ge3 O46 1.970427 1_555
Ge3 O24 2.007835 1_555
Ge3 O6 2.070572 1_555
O0 Si2 1.620100 1_555
O1 P6 1.578761 1_555
O2 P7 1.578761 1_555
O3 Si3 1.620100 1_555
O4 Si0 1.620100 1_545
O5 P4 1.578761 1_545
O6 P5 1.578761 1_565
O7 Si1 1.620100 1_565
O8 P2 1.556349 1_555
O9 P2 1.526923 1_555
O10 P3 1.526923 1_555
O11 P3 1.556349 1_555
O12 P0 1.556349 1_545
O13 P0 1.526923 1_445
O14 P1 1.526923 1_465
O15 P1 1.556349 1_565
O16 P4 1.538642 1_555
O17 Si0 1.663669 1_555
O18 Si1 1.663669 1_555
O19 P5 1.538642 1_555
O20 P6 1.538642 1_555
O21 Si2 1.663669 1_555
O22 Si3 1.663669 1_555
O23 P7 1.538642 1_555
O24 P4 1.570534 1_555
O25 Si0 1.593698 1_555
O26 Si1 1.593698 1_555
O27 P5 1.570534 1_555
O28 P6 1.570534 1_555
O29 Si2 1.593698 1_555
O30 Si3 1.593698 1_555
O31 P7 1.570534 1_555
O32 P4 1.525196 1_555
O33 Si0 1.683032 1_555
O34 Si1 1.683032 1_555
O35 P5 1.525196 1_555
O36 P6 1.525196 1_555
O37 Si2 1.683032 1_555
O38 Si3 1.683032 1_555
O39 P7 1.525196 1_555
O40 P0 1.552031 1_455
O41 P0 1.563589 1_555
O42 P1 1.563589 1_555
O43 P1 1.552031 1_455
O44 P2 1.552031 1_555
O45 P2 1.563589 1_555
O46 P3 1.563589 1_555
O47 P3 1.552031 1_555
