# generated using pymatgen
data_O2
_symmetry_space_group_name_H-M   'P 1'
_cell_length_a   5.68984965
_cell_length_b   5.68984965
_cell_length_c   4.25616623
_cell_angle_alpha   67.89070791
_cell_angle_beta   67.89070791
_cell_angle_gamma   76.60457936
_symmetry_Int_Tables_number   1
_chemical_formula_structural   O2
_chemical_formula_sum   O8
_cell_volume   117.61951709
_cell_formula_units_Z   4
loop_
 _symmetry_equiv_pos_site_id
 _symmetry_equiv_pos_as_xyz
  1  'x, y, z'
loop_
 _atom_site_type_symbol
 _atom_site_label
 _atom_site_symmetry_multiplicity
 _atom_site_fract_x
 _atom_site_fract_y
 _atom_site_fract_z
 _atom_site_occupancy
  O  O0  1  0.69336184  0.23213813  0.16360714  1
  O  O1  1  0.76786187  0.30663816  0.83639286  1
  O  O2  1  0.30663816  0.76786187  0.83639286  1
  O  O3  1  0.23213813  0.69336184  0.16360714  1
  O  O4  1  0.72986213  0.72986213  0.15891847  1
  O  O5  1  0.27013787  0.27013787  0.84108153  1
  O  O6  1  0.80475802  0.80475802  0.83169771  1
  O  O7  1  0.19524198  0.19524198  0.16830229  1
loop_
_geom_bond_atom_site_label_1
_geom_bond_atom_site_label_2
_geom_bond_distance
_geom_bond_site_symmetry_2
O0 O1 1.222053 1_554
O2 O3 1.222053 1_556
O4 O6 1.222075 1_554
O5 O7 1.222075 1_556
