# generated using pymatgen
data_Na2MgMn2O8
_symmetry_space_group_name_H-M   'P 1'
_cell_length_a   5.58471888
_cell_length_b   5.58121465
_cell_length_c   6.45405600
_cell_angle_alpha   90.00000000
_cell_angle_beta   90.00000000
_cell_angle_gamma   66.75046043
_symmetry_Int_Tables_number   1
_chemical_formula_structural   Na2MgMn2O8
_chemical_formula_sum   'Na2 Mg1 Mn2 O8'
_cell_volume   184.83367695
_cell_formula_units_Z   1
loop_
 _symmetry_equiv_pos_site_id
 _symmetry_equiv_pos_as_xyz
  1  'x, y, z'
loop_
 _atom_site_type_symbol
 _atom_site_label
 _atom_site_symmetry_multiplicity
 _atom_site_fract_x
 _atom_site_fract_y
 _atom_site_fract_z
 _atom_site_occupancy
  Na  Na0  1  0.99870000  0.99952100  0.99522200  1
  Na  Na1  1  0.99870000  0.99952100  0.50477800  1
  Mg  Mg0  1  0.64922100  0.65126600  0.25000000  1
  Mn  Mn0  1  0.63985700  0.64043200  0.75000000  1
  Mn  Mn1  1  0.35730500  0.35834600  0.25000000  1
  O  O0  1  0.26990900  0.69293400  0.25000000  1
  O  O1  1  0.32193400  0.76344800  0.75000000  1
  O  O2  1  0.74222400  0.74313900  0.53047800  1
  O  O3  1  0.26292300  0.26346000  0.04067200  1
  O  O4  1  0.26292300  0.26346000  0.45932800  1
  O  O5  1  0.74222400  0.74313900  0.96952200  1
  O  O6  1  0.69156400  0.27146800  0.25000000  1
  O  O7  1  0.76251700  0.32236600  0.75000000  1
loop_
_geom_bond_atom_site_label_1
_geom_bond_atom_site_label_2
_geom_bond_distance
_geom_bond_site_symmetry_2
Na0 O7 2.369612 1_565
Na0 O1 2.371031 1_655
Na0 O5 2.396822 1_555
Na0 O0 2.424840 1_656
Na0 O6 2.427839 1_566
Na0 O3 2.479838 1_666
Na1 O7 2.369612 1_565
Na1 O1 2.371031 1_655
Na1 O2 2.396822 1_555
Na1 O0 2.424840 1_655
Na1 O6 2.427839 1_565
Na1 O4 2.479838 1_665
Mg0 O2 2.004957 1_555
Mg0 O5 2.004957 1_554
Mg0 O0 2.037785 1_555
Mg0 O6 2.038004 1_555
Mn0 O7 1.631115 1_555
Mn0 O1 1.631392 1_555
Mn0 O5 1.709235 1_555
Mn0 O2 1.709235 1_555
Mn1 O4 1.613660 1_555
Mn1 O3 1.613660 1_555
Mn1 O6 1.733564 1_555
Mn1 O0 1.733745 1_555
