# generated using pymatgen
data_KNaS
_symmetry_space_group_name_H-M   'P 1'
_cell_length_a   4.63523182
_cell_length_b   7.77581025
_cell_length_c   8.27467189
_cell_angle_alpha   90.00000000
_cell_angle_beta   90.00000000
_cell_angle_gamma   90.00000000
_symmetry_Int_Tables_number   1
_chemical_formula_structural   KNaS
_chemical_formula_sum   'K4 Na4 S4'
_cell_volume   298.24137666
_cell_formula_units_Z   4
loop_
 _symmetry_equiv_pos_site_id
 _symmetry_equiv_pos_as_xyz
  1  'x, y, z'
loop_
 _atom_site_type_symbol
 _atom_site_label
 _atom_site_symmetry_multiplicity
 _atom_site_fract_x
 _atom_site_fract_y
 _atom_site_fract_z
 _atom_site_occupancy
  K  K0  1  0.75000000  0.98840276  0.81407984  1
  K  K1  1  0.25000000  0.01159724  0.18592016  1
  K  K2  1  0.75000000  0.48840276  0.68592016  1
  K  K3  1  0.25000000  0.51159724  0.31407984  1
  Na  Na0  1  0.75000000  0.85370142  0.42392653  1
  Na  Na1  1  0.25000000  0.14629858  0.57607347  1
  Na  Na2  1  0.75000000  0.35370142  0.07607347  1
  Na  Na3  1  0.25000000  0.64629858  0.92392653  1
  S  S0  1  0.75000000  0.71790353  0.10343470  1
  S  S1  1  0.25000000  0.28209647  0.89656530  1
  S  S2  1  0.75000000  0.21790353  0.39656530  1
  S  S3  1  0.25000000  0.78209647  0.60343470  1
loop_
_geom_bond_atom_site_label_1
_geom_bond_atom_site_label_2
_geom_bond_distance
_geom_bond_site_symmetry_2
K0 S0 3.186979 1_556
K0 S3 3.314048 1_555
K0 S3 3.314048 1_655
K0 S1 3.324533 1_665
K0 S1 3.324533 1_565
K1 S1 3.186979 1_554
K1 S2 3.314048 1_455
K1 S2 3.314048 1_555
K1 S0 3.324533 1_445
K1 S0 3.324533 1_545
K2 S2 3.186979 1_555
K2 S1 3.314048 1_655
K2 S1 3.314048 1_555
K2 S3 3.324533 1_555
K2 S3 3.324533 1_655
K3 S3 3.186979 1_555
K3 S0 3.314048 1_455
K3 S0 3.314048 1_555
K3 S2 3.324533 1_555
K3 S2 3.324533 1_455
Na0 S3 2.808502 1_655
Na0 S3 2.808502 1_555
Na0 S2 2.841002 1_565
Na0 S0 2.854457 1_555
Na1 S2 2.808502 1_555
Na1 S2 2.808502 1_455
Na1 S3 2.841002 1_545
Na1 S1 2.854457 1_555
Na2 S1 2.808502 1_554
Na2 S1 2.808502 1_654
Na2 S0 2.841002 1_555
Na2 S2 2.854457 1_555
Na3 S0 2.808502 1_556
Na3 S0 2.808502 1_456
Na3 S1 2.841002 1_555
Na3 S3 2.854457 1_555
