# generated using pymatgen
data_Na6La4Ti4Si5S7O48
_symmetry_space_group_name_H-M   'P 1'
_cell_length_a   18.32671282
_cell_length_b   9.13861552
_cell_length_c   23.46162686
_cell_angle_alpha   89.96683302
_cell_angle_beta   89.64366656
_cell_angle_gamma   119.95315093
_symmetry_Int_Tables_number   1
_chemical_formula_structural   Na6La4Ti4Si5S7O48
_chemical_formula_sum   'Na18 La12 Ti12 Si15 S21 O144'
_cell_volume   3404.44435396
_cell_formula_units_Z   3
loop_
 _symmetry_equiv_pos_site_id
 _symmetry_equiv_pos_as_xyz
  1  'x, y, z'
loop_
 _atom_site_type_symbol
 _atom_site_label
 _atom_site_symmetry_multiplicity
 _atom_site_fract_x
 _atom_site_fract_y
 _atom_site_fract_z
 _atom_site_occupancy
  Na  Na0  1  0.99580965  0.62137976  0.25367901  1
  Na  Na1  1  0.50092302  0.62253738  0.25094195  1
  Na  Na2  1  0.00074069  0.38461212  0.74848894  1
  Na  Na3  1  0.49621412  0.36168335  0.75032501  1
  Na  Na4  1  0.66463512  0.31002273  0.92460785  1
  Na  Na5  1  0.16517854  0.00964690  0.43395907  1
  Na  Na6  1  0.00112846  0.99830836  0.51197324  1
  Na  Na7  1  0.49910444  0.98234071  0.49939166  1
  Na  Na8  1  0.00095091  0.01126225  0.99202291  1
  Na  Na9  1  0.50184766  0.00796312  0.00804515  1
  Na  Na10  1  0.32961708  0.31990014  0.84187118  1
  Na  Na11  1  0.82877383  0.32918397  0.82172037  1
  Na  Na12  1  0.34395269  0.35089141  0.33009268  1
  Na  Na13  1  0.82440482  0.33271029  0.34731003  1
  Na  Na14  1  0.18996490  0.65859768  0.16089138  1
  Na  Na15  1  0.67291858  0.65362473  0.15796792  1
  Na  Na16  1  0.17523498  0.69689716  0.66000056  1
  Na  Na17  1  0.68518778  0.69344868  0.66811877  1
  La  La0  1  0.99154498  0.98550500  0.36209051  1
  La  La1  1  0.49617820  0.00509452  0.85796237  1
  La  La2  1  0.31877071  0.33573956  0.67437787  1
  La  La3  1  0.82433542  0.31109588  0.68312412  1
  La  La4  1  0.33060128  0.34749514  0.18060490  1
  La  La5  1  0.81672360  0.30348054  0.17419544  1
  La  La6  1  0.83331588  0.32085710  0.99351434  1
  La  La7  1  0.33497317  0.35214072  0.49649457  1
  La  La8  1  0.16852967  0.66353981  0.31431877  1
  La  La9  1  0.67529933  0.65234045  0.31515669  1
  La  La10  1  0.17739670  0.70079727  0.81481432  1
  La  La11  1  0.66557776  0.65552356  0.81039635  1
  Ti  Ti0  1  0.49851475  0.02240189  0.35114180  1
  Ti  Ti1  1  0.99829973  0.97392754  0.85004415  1
  Ti  Ti2  1  0.99833406  0.97732548  0.65272302  1
  Ti  Ti3  1  0.51485347  0.00182834  0.64024025  1
  Ti  Ti4  1  0.00647371  0.02196198  0.13660840  1
  Ti  Ti5  1  0.49626728  0.01878678  0.15100325  1
  Ti  Ti6  1  0.32278875  0.31008427  0.98322289  1
  Ti  Ti7  1  0.82306415  0.33705946  0.48389060  1
  Ti  Ti8  1  0.16167202  0.66338511  0.01373220  1
  Ti  Ti9  1  0.66069906  0.65191994  0.02212854  1
  Ti  Ti10  1  0.16036388  0.67036878  0.52460129  1
  Ti  Ti11  1  0.66112732  0.65620684  0.51570348  1
  Si  Si0  1  0.36404664  0.73106072  0.25113250  1
  Si  Si1  1  0.49765353  0.29126634  0.25021744  1
  Si  Si2  1  0.64070293  0.28448233  0.74681274  1
  Si  Si3  1  0.00051840  0.70712602  0.75019799  1
  Si  Si4  1  0.86443946  0.99731590  0.75122619  1
  Si  Si5  1  0.16758726  0.01693363  0.57931493  1
  Si  Si6  1  0.68627623  0.02148679  0.57965017  1
  Si  Si7  1  0.33403448  0.67006910  0.58362361  1
  Si  Si8  1  0.82997615  0.00135185  0.08292728  1
  Si  Si9  1  0.18636151  0.35087651  0.08127894  1
  Si  Si10  1  0.66754088  0.32109850  0.07884231  1
  Si  Si11  1  0.51295220  0.37989316  0.92208387  1
  Si  Si12  1  0.16160792  0.96450711  0.92085790  1
  Si  Si13  1  0.66215460  0.35917444  0.42034962  1
  Si  Si14  1  0.01475795  0.64406692  0.42080070  1
  S  S0  1  0.13870517  0.99720353  0.24581717  1
  S  S1  1  0.63603566  0.00561883  0.25275771  1
  S  S2  1  0.85953689  0.71383673  0.24083060  1
  S  S3  1  -0.00005231  0.28763722  0.24252093  1
  S  S4  1  0.13641436  0.26777484  0.75308048  1
  S  S5  1  0.49840055  0.70872846  0.74281614  1
  S  S6  1  0.35651943  0.00491690  0.74132170  1
  S  S7  1  0.49781066  0.33797800  0.58549858  1
  S  S8  1  0.98504743  0.33166100  0.57992236  1
  S  S9  1  0.82884627  0.63608849  0.57792336  1
  S  S10  1  0.48652740  0.64202333  0.07960326  1
  S  S11  1  0.99791950  0.65769331  0.08739407  1
  S  S12  1  0.32859008  0.02149353  0.07892664  1
  S  S13  1  0.30967920  0.64824683  0.92564154  1
  S  S14  1  0.81988768  0.67661024  0.91996066  1
  S  S15  1  0.02217422  0.36910069  0.91663484  1
  S  S16  1  0.66761340  0.96093856  0.92155976  1
  S  S17  1  0.32050322  0.96739358  0.41903826  1
  S  S18  1  0.80885661  0.97087997  0.42502032  1
  S  S19  1  0.16941899  0.36930324  0.42202348  1
  S  S20  1  0.52019580  0.67406399  0.41583668  1
  O  O0  1  0.10041575  -0.00006175  0.30174876  1
  O  O1  1  0.59219116  0.01072858  0.30554298  1
  O  O2  1  0.42009517  0.84112875  0.30831407  1
  O  O3  1  0.89600139  0.79059012  0.29736755  1
  O  O4  1  0.50148655  0.18632896  0.30813550  1
  O  O5  1  0.99901067  0.20182394  0.29587409  1
  O  O6  1  0.09238649  0.17391630  0.80585670  1
  O  O7  1  0.59966280  0.20551892  0.80977727  1
  O  O8  1  0.49340641  0.78840942  0.79603197  1
  O  O9  1  0.00371054  0.81901322  0.80829864  1
  O  O10  1  0.38988541  0.99625150  0.79848381  1
  O  O11  1  0.92081656  0.99693082  0.80851046  1
  O  O12  1  0.41073614  0.01324208  0.69464933  1
  O  O13  1  0.91875112  0.99907658  0.69296658  1
  O  O14  1  0.09314730  0.17780271  0.69979152  1
  O  O15  1  0.58294379  0.15170139  0.69444339  1
  O  O16  1  0.00245662  0.82006769  0.69338398  1
  O  O17  1  0.49413751  0.79900432  0.69130661  1
  O  O18  1  0.41750494  0.83538526  0.19262226  1
  O  O19  1  0.91459324  0.81625886  0.19401673  1
  O  O20  1  0.99896401  0.18757481  0.19193360  1
  O  O21  1  0.49984858  0.18299171  0.19346038  1
  O  O22  1  0.08968122  0.00785222  0.19782714  1
  O  O23  1  0.59274050  0.00837353  0.19969160  1
  O  O24  1  0.45985304  0.36596096  0.63693363  1
  O  O25  1  0.96306251  0.37522046  0.63578118  1
  O  O26  1  0.23414839  0.09734132  0.63097791  1
  O  O27  1  0.73583772  0.06340304  0.63847266  1
  O  O28  1  0.30477071  0.54069733  0.63762269  1
  O  O29  1  0.80928061  0.53877147  0.63062541  1
  O  O30  1  0.46356189  0.55310163  0.13630330  1
  O  O31  1  0.96035627  0.55448996  0.13921167  1
  O  O32  1  0.30949199  0.08168399  0.13227354  1
  O  O33  1  0.80720232  0.07199006  0.13978826  1
  O  O34  1  0.23324226  0.39908792  0.14121547  1
  O  O35  1  0.73263613  0.37374440  0.13177506  1
  O  O36  1  0.24124290  0.31273928  0.03363007  1
  O  O37  1  0.70495583  0.28714946  0.02050460  1
  O  O38  1  0.42663839  0.53764712  0.03586329  1
  O  O39  1  0.94246285  0.58705613  0.03781340  1
  O  O40  1  0.34271794  0.13925118  0.03091729  1
  O  O41  1  0.86226636  0.13521798  0.03074043  1
  O  O42  1  0.20512595  0.12401130  0.52038579  1
  O  O43  1  0.74309904  0.17150418  0.53192565  1
  O  O44  1  0.36281550  0.59664625  0.52983637  1
  O  O45  1  0.84263505  0.54587727  0.52934941  1
  O  O46  1  0.44406507  0.30507603  0.53521144  1
  O  O47  1  0.92650890  0.31811403  0.53497547  1
  O  O48  1  0.25367350  0.66105621  0.96921527  1
  O  O49  1  0.77714269  0.69329977  0.97086540  1
  O  O50  1  0.07471845  0.47004001  0.96694078  1
  O  O51  1  0.58843408  0.51367880  0.96661873  1
  O  O52  1  0.15317806  0.82525421  0.97105683  1
  O  O53  1  0.67472603  0.87163742  0.97153654  1
  O  O54  1  0.27789446  0.86414450  0.46933019  1
  O  O55  1  0.75444477  0.84635963  0.46809764  1
  O  O56  1  0.17375347  0.47130690  0.47009335  1
  O  O57  1  0.65219174  0.47834922  0.47024763  1
  O  O58  1  0.09099351  0.66756050  0.46484880  1
  O  O59  1  0.57202622  0.67632550  0.46552563  1
  O  O60  1  0.04092625  0.62231527  0.35514648  1
  O  O61  1  0.55962606  0.66202640  0.36141435  1
  O  O62  1  0.26921572  0.89207830  0.36669745  1
  O  O63  1  0.77427307  0.91504840  0.36730397  1
  O  O64  1  0.16891102  0.44637804  0.36614782  1
  O  O65  1  0.69232747  0.46642553  0.36117303  1
  O  O66  1  0.06205009  0.46031476  0.86295356  1
  O  O67  1  0.53708158  0.45638911  0.85753139  1
  O  O68  1  0.19126583  0.91691234  0.86210925  1
  O  O69  1  0.66707714  0.87977269  0.86739145  1
  O  O70  1  0.27300746  0.63053026  0.86857869  1
  O  O71  1  0.76913626  0.64879071  0.86820572  1
  O  O72  1  0.01610213  0.82753152  0.42489637  1
  O  O73  1  0.51493865  0.83035272  0.41629380  1
  O  O74  1  0.40520356  0.98072438  0.41223556  1
  O  O75  1  0.89343850  0.98588838  0.42967453  1
  O  O76  1  0.09087474  0.19792835  0.42601861  1
  O  O77  1  0.57728014  0.17304169  0.41118662  1
  O  O78  1  0.01686571  0.20242274  0.91748438  1
  O  O79  1  0.51442437  0.20187877  0.92884919  1
  O  O80  1  0.07665062  0.98002354  0.91336991  1
  O  O81  1  0.58941428  0.97403487  0.92730895  1
  O  O82  1  0.39263161  0.80212810  0.93042427  1
  O  O83  1  0.90484390  0.83300192  0.91377961  1
  O  O84  1  0.51347786  0.19498359  0.59196808  1
  O  O85  1  0.99135622  0.17675065  0.58354694  1
  O  O86  1  0.07642631  0.00401159  0.59441187  1
  O  O87  1  0.59147434  0.00605416  0.58714568  1
  O  O88  1  0.41760178  0.85503517  0.59839894  1
  O  O89  1  0.90629378  0.80523633  0.58376540  1
  O  O90  1  0.49242104  0.80884694  0.08416407  1
  O  O91  1  0.01383716  0.83392769  0.09598736  1
  O  O92  1  0.40627783  0.00790908  0.08564111  1
  O  O93  1  0.91683188  0.98474968  0.09726385  1
  O  O94  1  0.08958858  0.17540132  0.09009334  1
  O  O95  1  0.57651744  0.15128230  0.09517646  1
  O  O96  1  0.35019575  0.16266151  0.74371106  1
  O  O97  1  0.86574768  0.17588588  0.75337238  1
  O  O98  1  0.22275549  0.29340391  0.75497640  1
  O  O99  1  0.73479452  0.31206315  0.74729689  1
  O  O100  1  0.42603205  0.53062779  0.74354925  1
  O  O101  1  0.91822803  0.52413677  0.75229352  1
  O  O102  1  0.36230436  0.55104010  0.25297276  1
  O  O103  1  0.85358131  0.54444842  0.24257742  1
  O  O104  1  0.41434797  0.30684921  0.25224108  1
  O  O105  1  0.92564276  0.31260866  0.24276408  1
  O  O106  1  0.22636206  0.13954929  0.24569341  1
  O  O107  1  0.72268848  0.15343425  0.25485071  1
  O  O108  1  0.31832880  0.49664433  0.93487269  1
  O  O109  1  0.83086919  0.52610963  0.92455339  1
  O  O110  1  0.41834409  0.35205194  0.93977212  1
  O  O111  1  0.93837601  0.35409841  0.92119849  1
  O  O112  1  0.24529129  0.15065896  0.93783683  1
  O  O113  1  0.74073186  0.13960445  0.91840851  1
  O  O114  1  0.33066408  0.13914858  0.42310944  1
  O  O115  1  0.81858598  0.14062598  0.43326955  1
  O  O116  1  0.24234077  0.33786842  0.41841935  1
  O  O117  1  0.74589211  0.33960743  0.43673142  1
  O  O118  1  0.43537219  0.52115654  0.41900356  1
  O  O119  1  0.91974674  0.48515886  0.43697383  1
  O  O120  1  0.16602519  0.50158012  0.06199172  1
  O  O121  1  0.65235498  0.48453104  0.06881035  1
  O  O122  1  0.08090007  0.66861711  0.07652932  1
  O  O123  1  0.57434146  0.67228291  0.06740437  1
  O  O124  1  0.25612880  0.84865877  0.06655324  1
  O  O125  1  0.74850569  0.81628736  0.06867964  1
  O  O126  1  0.15161841  0.82173378  0.56947620  1
  O  O127  1  0.66625276  0.83167211  0.55794706  1
  O  O128  1  0.24932209  0.68328620  0.56714981  1
  O  O129  1  0.75597827  0.66320126  0.56454018  1
  O  O130  1  0.07386846  0.47643341  0.56673795  1
  O  O131  1  0.58117901  0.49726560  0.57540718  1
  O  O132  1  0.13759255  0.83226480  0.24117171  1
  O  O133  1  0.64002945  0.84679339  0.25205122  1
  O  O134  1  0.27104526  0.71201521  0.24894457  1
  O  O135  1  0.77494402  0.69689581  0.23586252  1
  O  O136  1  0.07687242  0.45860656  0.23831542  1
  O  O137  1  0.58141929  0.47901211  0.24726058  1
  O  O138  1  0.13938604  0.43308677  0.75219334  1
  O  O139  1  0.63533370  0.45676926  0.73737684  1
  O  O140  1  0.08527573  0.68972172  0.74701780  1
  O  O141  1  0.57721310  0.70005018  0.73954778  1
  O  O142  1  0.27117400  0.85302735  0.73538055  1
  O  O143  1  0.77241837  0.83148875  0.74931021  1
loop_
_geom_bond_atom_site_label_1
_geom_bond_atom_site_label_2
_geom_bond_distance
_geom_bond_site_symmetry_2
Na0 O103 2.352673 1_555
Na0 O132 2.353987 1_655
Na0 O105 2.462301 1_555
Na0 O60 2.523569 1_655
Na0 O136 2.598155 1_655
Na0 O31 2.763189 1_555
Na1 O102 2.285579 1_555
Na1 O133 2.341704 1_555
Na1 O137 2.415549 1_555
Na1 O104 2.503938 1_555
Na1 O61 2.766491 1_555
Na1 O30 2.774255 1_555
Na2 O97 2.248556 1_455
Na2 O138 2.353470 1_555
Na2 O101 2.417501 1_455
Na2 O140 2.421047 1_555
Na2 O25 2.727698 1_455
Na2 O66 2.866461 1_555
Na3 O139 2.263970 1_555
Na3 O96 2.374548 1_555
Na3 O100 2.459375 1_555
Na3 O67 2.648598 1_555
Na3 O141 2.690717 1_555
Na3 O24 2.751540 1_555
Na4 O37 2.413739 1_556
Na4 O79 2.417563 1_555
Na4 O113 2.560884 1_555
Na4 O81 2.665344 1_545
Na4 O109 2.678298 1_555
Na4 O7 2.914697 1_555
Na4 O51 2.994326 1_555
Na4 O71 3.007721 1_555
Na5 O42 2.235341 1_555
Na5 O72 2.397172 1_545
Na5 O116 2.624174 1_555
Na5 O114 2.658799 1_555
Na5 O76 2.681819 1_555
Na5 O58 2.808490 1_545
Na6 O86 2.368421 1_565
Na6 O85 2.408777 1_465
Na6 O89 2.422565 1_455
Na6 O76 2.656730 1_565
Na6 O72 2.666284 1_555
Na6 O75 2.731333 1_455
Na7 O73 2.492587 1_555
Na7 O87 2.613248 1_565
Na7 O77 2.614957 1_565
Na7 O74 2.676083 1_555
Na7 O88 2.683045 1_555
Na7 O84 2.839727 1_565
Na8 O78 2.382536 1_555
Na8 O80 2.403261 1_545
Na8 O83 2.510853 1_445
Na8 O94 2.792881 1_556
Na8 O93 2.847957 1_446
Na8 O91 3.002738 1_546
Na9 O95 2.452575 1_555
Na9 O90 2.491744 1_545
Na9 O79 2.495782 1_554
Na9 O92 2.518229 1_555
Na9 O81 2.592160 1_544
Na9 O82 2.674072 1_544
Na10 O112 2.723153 1_555
Na10 O110 2.752527 1_555
Na10 O98 2.761704 1_555
Na10 O108 2.782944 1_555
Na10 O96 2.836374 1_555
Na10 O100 2.949278 1_555
Na11 O101 2.358335 1_555
Na11 O99 2.410059 1_555
Na11 O97 2.435196 1_555
Na11 O113 2.812360 1_555
Na11 O109 2.999681 1_555
Na11 O111 3.022568 1_555
Na12 O104 2.377528 1_555
Na12 O102 2.471182 1_555
Na12 O118 2.650186 1_555
Na12 O116 2.739850 1_555
Na12 O114 2.843261 1_555
Na12 O106 2.862972 1_555
Na13 O117 2.555191 1_555
Na13 O115 2.639380 1_555
Na13 O119 2.652855 1_555
Na13 O107 2.805247 1_555
Na14 O134 2.455429 1_555
Na14 O120 2.650162 1_555
Na14 O136 2.665023 1_555
Na14 O124 2.691651 1_555
Na14 O122 2.855321 1_555
Na14 O34 2.888159 1_555
Na14 O132 2.913721 1_555
Na15 O135 2.509456 1_555
Na15 O121 2.517436 1_555
Na15 O125 2.533982 1_555
Na15 O137 2.650936 1_555
Na15 O123 2.856997 1_555
Na16 O142 2.406536 1_555
Na16 O126 2.549757 1_555
Na16 O128 2.595524 1_555
Na16 O140 2.596226 1_555
Na17 O143 2.408829 1_555
Na17 O139 2.481415 1_555
Na17 O141 2.608811 1_555
Na17 O129 2.825722 1_555
Na17 O131 2.867492 1_555
La0 O72 2.261099 1_655
La0 O3 2.338027 1_555
La0 O0 2.388408 1_665
La0 O75 2.391185 1_555
La0 O76 2.416683 1_665
La0 O5 2.462496 1_565
La1 O7 2.175269 1_555
La1 O79 2.349826 1_555
La1 O10 2.371769 1_545
La1 O8 2.436956 1_545
La1 O81 2.483082 1_545
La1 O82 2.524510 1_545
La2 O28 2.190541 1_555
La2 O26 2.199234 1_555
La2 O98 2.469767 1_555
La2 O100 2.493360 1_555
La2 O96 2.529387 1_555
La2 O24 2.606076 1_555
La3 O99 2.223403 1_555
La3 O27 2.282440 1_555
La3 O97 2.401835 1_555
La3 O101 2.465352 1_555
La3 O29 2.548880 1_555
La3 O25 2.552913 1_555
La4 O34 2.262748 1_555
La4 O102 2.370038 1_555
La4 O104 2.432899 1_555
La4 O106 2.434730 1_555
La4 O30 2.437760 1_555
La4 O32 2.531095 1_555
La5 O35 2.187264 1_555
La5 O33 2.189191 1_555
La5 O107 2.455135 1_555
La5 O103 2.532136 1_555
La5 O105 2.540341 1_555
La5 O31 2.608816 1_555
La6 O41 2.196642 1_556
La6 O37 2.299430 1_556
La6 O113 2.441660 1_555
La6 O111 2.460241 1_555
La6 O39 2.483740 1_556
La6 O109 2.493881 1_555
La7 O44 2.175655 1_555
La7 O42 2.313297 1_555
La7 O46 2.426545 1_555
La7 O116 2.464194 1_555
La7 O118 2.488731 1_555
La7 O114 2.571257 1_555
La8 O134 2.282716 1_555
La8 O64 2.329876 1_555
La8 O62 2.336628 1_555
La8 O60 2.370706 1_555
La8 O136 2.531482 1_555
La8 O132 2.554633 1_555
La9 O65 2.163586 1_555
La9 O137 2.307005 1_555
La9 O61 2.416312 1_555
La9 O135 2.485152 1_555
La9 O63 2.496639 1_555
La9 O133 2.631267 1_555
La10 O68 2.168227 1_555
La10 O140 2.292058 1_555
La10 O66 2.429475 1_555
La10 O142 2.435541 1_555
La10 O70 2.494781 1_555
La10 O138 2.635187 1_555
La11 O143 2.300444 1_555
La11 O139 2.356120 1_555
La11 O71 2.365131 1_555
La11 O67 2.401274 1_555
La11 O69 2.436389 1_555
La11 O141 2.498371 1_555
O0 S0 1.490343 1_545
O1 S1 1.485495 1_555
O1 Ti0 2.064802 1_555
O2 Si0 1.689276 1_555
O2 Ti0 1.860603 1_565
O3 S2 1.497355 1_555
O4 Si1 1.684639 1_555
O4 Ti0 1.783631 1_555
O5 S3 1.472182 1_655
O6 S4 1.488350 1_555
O6 Ti1 2.053496 1_445
O7 Si2 1.646713 1_555
O8 S5 1.470926 1_555
O9 Si3 1.688173 1_555
O9 Ti1 1.764621 1_455
O10 S6 1.495732 1_565
O11 Si4 1.701386 1_555
O11 Ti1 1.823523 1_555
O12 S6 1.450168 1_555
O12 Ti3 2.334514 1_555
O13 Si4 1.681181 1_555
O13 Ti2 1.825042 1_555
O14 S4 1.493449 1_555
O14 Ti2 2.107745 1_445
O15 Si2 1.684580 1_555
O15 Ti3 1.834484 1_555
O16 Si3 1.674669 1_555
O16 Ti2 1.757502 1_455
O17 S5 1.487136 1_555
O17 Ti3 2.074662 1_565
O18 Si0 1.673991 1_555
O18 Ti5 1.846844 1_565
O19 S2 1.463709 1_555
O19 Ti4 2.234116 1_665
O20 S3 1.493389 1_655
O20 Ti4 2.049987 1_655
O21 Si1 1.671673 1_555
O21 Ti5 1.775545 1_555
O22 S0 1.477886 1_545
O22 Ti4 2.151353 1_555
O23 S1 1.487439 1_555
O23 Ti5 2.152414 1_555
O24 S7 1.474147 1_555
O25 S8 1.480712 1_555
O26 Si5 1.619102 1_555
O27 Si6 1.595338 1_555
O28 Si7 1.626994 1_555
O29 S9 1.457102 1_555
O30 S10 1.502457 1_555
O31 S11 1.476929 1_555
O32 S12 1.476205 1_555
O33 Si8 1.622875 1_555
O34 Si9 1.596075 1_555
O35 Si10 1.625711 1_555
O36 Si9 1.649044 1_555
O36 Ti6 1.909687 1_554
O37 Si10 1.625119 1_555
O38 S10 1.461954 1_555
O38 Ti6 2.356308 1_554
O39 S11 1.470786 1_555
O40 S12 1.486801 1_555
O40 Ti6 2.096488 1_554
O41 Si8 1.616244 1_555
O42 Si5 1.629939 1_555
O43 Si6 1.666059 1_555
O43 Ti7 1.862842 1_555
O44 Si7 1.633106 1_555
O45 S9 1.499262 1_555
O45 Ti7 2.057039 1_555
O46 S7 1.473664 1_555
O47 S8 1.469656 1_555
O47 Ti7 2.327297 1_555
O48 S13 1.489761 1_555
O48 Ti8 1.986994 1_556
O49 S14 1.473497 1_555
O49 Ti9 2.303325 1_556
O50 S15 1.516440 1_555
O50 Ti8 2.019630 1_556
O51 Si11 1.682469 1_555
O51 Ti9 1.843557 1_556
O52 Si12 1.682288 1_555
O52 Ti8 1.856092 1_556
O53 S16 1.471345 1_555
O53 Ti9 2.232646 1_556
O54 S17 1.464170 1_555
O54 Ti10 2.368678 1_555
O55 S18 1.470966 1_555
O55 Ti11 2.048982 1_555
O56 S19 1.440684 1_555
O56 Ti10 2.334421 1_555
O57 Si13 1.669539 1_555
O57 Ti11 1.882656 1_555
O58 Si14 1.668769 1_555
O58 Ti10 1.889938 1_555
O59 S20 1.501982 1_555
O59 Ti11 2.099917 1_555
O60 Si14 1.651837 1_555
O61 S20 1.494212 1_555
O62 S17 1.494824 1_555
O63 S18 1.477912 1_555
O64 S19 1.490095 1_555
O65 Si13 1.625325 1_555
O66 S15 1.481265 1_555
O67 Si11 1.630865 1_555
O68 Si12 1.616130 1_555
O69 S16 1.469481 1_555
O70 S13 1.474120 1_555
O71 S14 1.477303 1_555
O72 Si14 1.667286 1_555
O73 S20 1.478766 1_555
O73 Ti0 2.457135 1_565
O74 S17 1.502645 1_555
O74 Ti0 2.107713 1_565
O75 S18 1.491103 1_555
O76 S19 1.510150 1_555
O77 Si13 1.649719 1_555
O77 Ti0 2.001648 1_555
O78 S15 1.477152 1_555
O78 Ti1 2.506119 1_445
O79 Si11 1.648029 1_555
O80 Si12 1.642870 1_555
O80 Ti1 2.054041 1_455
O81 S16 1.501759 1_555
O82 S13 1.472677 1_555
O83 S14 1.504221 1_555
O83 Ti1 2.142747 1_555
O84 S7 1.479231 1_555
O84 Ti3 2.107510 1_555
O85 S8 1.479236 1_555
O85 Ti2 2.490725 1_545
O86 Si5 1.651108 1_555
O86 Ti2 1.898971 1_445
O87 Si6 1.679549 1_555
O87 Ti3 1.857165 1_555
O88 Si7 1.656838 1_555
O88 Ti3 1.890925 1_565
O89 S9 1.494842 1_555
O89 Ti2 2.307356 1_555
O90 S10 1.477575 1_555
O90 Ti5 2.452502 1_565
O91 S11 1.500510 1_455
O91 Ti4 2.027598 1_565
O92 S12 1.498863 1_555
O92 Ti5 2.224709 1_555
O93 Si8 1.708123 1_565
O93 Ti4 1.768615 1_665
O94 Si9 1.707266 1_555
O94 Ti4 1.822661 1_555
O95 Si10 1.656563 1_555
O95 Ti5 1.881649 1_555
O96 S6 1.503839 1_555
O97 Si4 1.620861 1_545
O98 S4 1.480361 1_555
O99 Si2 1.613508 1_555
O100 S5 1.500823 1_555
O101 Si3 1.598089 1_655
O102 Si0 1.629973 1_555
O103 S2 1.496988 1_555
O104 Si1 1.603000 1_555
O105 S3 1.488872 1_655
O106 S0 1.478535 1_545
O107 S1 1.485926 1_555
O108 S13 1.486895 1_555
O108 Ti6 2.082844 1_555
O109 S14 1.490052 1_555
O110 Si11 1.671412 1_555
O110 Ti6 1.886725 1_555
O111 S15 1.475283 1_655
O112 Si12 1.675654 1_545
O112 Ti6 1.796658 1_555
O113 S16 1.510238 1_545
O114 S17 1.488616 1_545
O115 S18 1.483300 1_545
O115 Ti7 2.120450 1_555
O116 S19 1.502556 1_555
O117 Si13 1.678118 1_555
O117 Ti7 1.810338 1_555
O118 S20 1.484587 1_555
O119 Si14 1.658579 1_655
O119 Ti7 1.939651 1_555
O120 Si9 1.659623 1_555
O120 Ti8 1.895207 1_555
O121 Si10 1.667039 1_555
O121 Ti9 1.823539 1_555
O122 S11 1.493722 1_455
O122 Ti8 2.099485 1_555
O123 S10 1.515963 1_555
O123 Ti9 1.985244 1_555
O124 S12 1.501107 1_565
O124 Ti8 2.121665 1_555
O125 Si8 1.639084 1_565
O125 Ti9 1.910146 1_555
O126 Si5 1.673641 1_565
O126 Ti10 1.807916 1_555
O127 Si6 1.664518 1_565
O127 Ti11 1.847956 1_555
O128 Si7 1.663999 1_555
O128 Ti10 1.869911 1_555
O129 S9 1.509602 1_555
O129 Ti11 2.062166 1_555
O130 S8 1.529214 1_455
O130 Ti10 1.950437 1_555
O131 S7 1.511155 1_555
O131 Ti11 2.016327 1_555
O132 S0 1.501269 1_555
O133 S1 1.489437 1_565
O134 Si0 1.625671 1_555
O135 S2 1.484455 1_555
O136 S3 1.495632 1_555
O137 Si1 1.635117 1_555
O138 S4 1.484409 1_555
O139 Si2 1.640794 1_555
O140 Si3 1.639804 1_555
O141 S5 1.487080 1_555
O142 S6 1.492480 1_565
O143 Si4 1.609844 1_555
