# generated using pymatgen
data_Na14Ca4Si7Sn4S5O48
_symmetry_space_group_name_H-M   'P 1'
_cell_length_a   18.68874325
_cell_length_b   9.34912853
_cell_length_c   22.69868217
_cell_angle_alpha   89.91359844
_cell_angle_beta   89.57835904
_cell_angle_gamma   119.98966857
_symmetry_Int_Tables_number   1
_chemical_formula_structural   Na14Ca4Si7Sn4S5O48
_chemical_formula_sum   'Na42 Ca12 Si21 Sn12 S15 O144'
_cell_volume   3434.85303959
_cell_formula_units_Z   3
loop_
 _symmetry_equiv_pos_site_id
 _symmetry_equiv_pos_as_xyz
  1  'x, y, z'
loop_
 _atom_site_type_symbol
 _atom_site_label
 _atom_site_symmetry_multiplicity
 _atom_site_fract_x
 _atom_site_fract_y
 _atom_site_fract_z
 _atom_site_occupancy
  Na  Na0  1  0.80603338  0.98437223  0.25637446  1
  Na  Na1  1  0.18413618  0.35233926  0.25589459  1
  Na  Na2  1  0.69358518  0.36658182  0.25376949  1
  Na  Na3  1  0.99417435  0.64278724  0.24327934  1
  Na  Na4  1  0.49849864  0.64467650  0.24909149  1
  Na  Na5  1  0.30831428  0.62794514  0.74066087  1
  Na  Na6  1  0.99755001  0.35093619  0.74316464  1
  Na  Na7  1  0.49869995  0.35289761  0.73763519  1
  Na  Na8  1  0.19189407  0.01833793  0.74791602  1
  Na  Na9  1  0.68602192  0.01658635  0.74959316  1
  Na  Na10  1  0.14641240  0.32900384  0.58380249  1
  Na  Na11  1  0.66078068  0.33744354  0.58123577  1
  Na  Na12  1  0.34192585  0.99243526  0.57712083  1
  Na  Na13  1  0.83414203  0.97694957  0.58019508  1
  Na  Na14  1  0.15773417  0.98147681  0.08799052  1
  Na  Na15  1  0.64676698  0.96280746  0.09087954  1
  Na  Na16  1  0.33394150  0.68774151  0.09146942  1
  Na  Na17  1  0.84063560  0.69422003  0.08408531  1
  Na  Na18  1  0.48649771  0.67924695  0.92826440  1
  Na  Na19  1  0.96875527  0.66513068  0.92534505  1
  Na  Na20  1  0.35595889  0.04354643  0.91643065  1
  Na  Na21  1  0.84709850  0.02956284  0.90911890  1
  Na  Na22  1  0.16561738  0.28538698  0.91555637  1
  Na  Na23  1  0.67471579  0.28906669  0.90585572  1
  Na  Na24  1  0.47136513  0.27766850  0.42626746  1
  Na  Na25  1  0.97411754  0.27144242  0.42778404  1
  Na  Na26  1  0.17149885  0.05996215  0.40549168  1
  Na  Na27  1  0.67577440  0.03878990  0.41252446  1
  Na  Na28  1  0.34932820  0.66663968  0.40893872  1
  Na  Na29  1  0.85127625  0.68203960  0.42086744  1
  Na  Na30  1  0.99112465  0.99845870  0.49794268  1
  Na  Na31  1  0.50165484  0.00128817  0.50202890  1
  Na  Na32  1  0.99668949  0.99552882  0.00468272  1
  Na  Na33  1  0.50172772  0.99926176  0.00533115  1
  Na  Na34  1  0.32637968  0.31782301  0.81867047  1
  Na  Na35  1  0.81980137  0.33050432  0.82987237  1
  Na  Na36  1  0.32121372  0.31122638  0.33312182  1
  Na  Na37  1  0.82417036  0.31296654  0.32924597  1
  Na  Na38  1  0.16860481  0.67452085  0.16889696  1
  Na  Na39  1  0.66411278  0.66763262  0.17322147  1
  Na  Na40  1  0.16220631  0.65836270  0.66939069  1
  Na  Na41  1  0.67027828  0.66529723  0.66368964  1
  Ca  Ca0  1  0.00112970  0.00062573  0.35092332  1
  Ca  Ca1  1  0.49395308  0.98987118  0.34784609  1
  Ca  Ca2  1  0.99274156  0.99759849  0.84665260  1
  Ca  Ca3  1  0.50676223  0.01079895  0.84725395  1
  Ca  Ca4  1  0.33909313  0.33321596  0.67674891  1
  Ca  Ca5  1  0.83750060  0.34053344  0.17898177  1
  Ca  Ca6  1  0.33337363  0.32790047  0.99521254  1
  Ca  Ca7  1  0.83199491  0.33451990  0.98481498  1
  Ca  Ca8  1  0.33179380  0.33100823  0.48429503  1
  Ca  Ca9  1  0.83211709  0.33167967  0.49099173  1
  Ca  Ca10  1  0.66959819  0.67657520  0.31269943  1
  Ca  Ca11  1  0.16753582  0.66324152  0.80958003  1
  Si  Si0  1  0.15669613  0.99963308  0.25134819  1
  Si  Si1  1  0.64786666  0.00272996  0.24872534  1
  Si  Si2  1  0.34623243  0.68265546  0.24965787  1
  Si  Si3  1  0.85085834  0.70111949  0.24933576  1
  Si  Si4  1  0.14874619  0.29171513  0.75052768  1
  Si  Si5  1  0.65792014  0.31671636  0.75158688  1
  Si  Si6  1  0.35170082  0.99916534  0.75154084  1
  Si  Si7  1  0.84708209  0.01199172  0.75029808  1
  Si  Si8  1  0.48985434  0.33568109  0.58136729  1
  Si  Si9  1  0.98745313  0.34064802  0.58460992  1
  Si  Si10  1  0.67723189  0.02700654  0.58522393  1
  Si  Si11  1  0.83952603  0.64217912  0.58053916  1
  Si  Si12  1  0.48656828  0.63524125  0.08274217  1
  Si  Si13  1  0.98753817  0.64593041  0.08174850  1
  Si  Si14  1  0.34009651  0.03567653  0.07898059  1
  Si  Si15  1  0.17779589  0.32584987  0.08273903  1
  Si  Si16  1  0.81184481  0.66477840  0.92088025  1
  Si  Si17  1  0.66485977  0.95482938  0.91562142  1
  Si  Si18  1  0.31191285  0.95992382  0.42108903  1
  Si  Si19  1  0.81509043  0.96878064  0.41675155  1
  Si  Si20  1  0.16664817  0.37718564  0.41581049  1
  Sn  Sn0  1  0.99115104  0.00213677  0.65207965  1
  Sn  Sn1  1  0.50761340  0.02901481  0.65278505  1
  Sn  Sn2  1  0.00730781  0.98882899  0.15384909  1
  Sn  Sn3  1  0.49080214  0.98039129  0.15311537  1
  Sn  Sn4  1  0.83066331  0.33110799  0.67715654  1
  Sn  Sn5  1  0.33060540  0.32860628  0.17780252  1
  Sn  Sn6  1  0.16813236  0.66625532  0.02659105  1
  Sn  Sn7  1  0.66304834  0.66818001  0.01708818  1
  Sn  Sn8  1  0.16233720  0.65769975  0.51621028  1
  Sn  Sn9  1  0.67309895  0.67854357  0.52433750  1
  Sn  Sn10  1  0.18058881  0.68381234  0.31361122  1
  Sn  Sn11  1  0.68122402  0.67966986  0.81262517  1
  S  S0  1  0.00341905  0.29906510  0.25050298  1
  S  S1  1  0.49509633  0.29096133  0.24725186  1
  S  S2  1  0.99603698  0.69967907  0.74830134  1
  S  S3  1  0.50194297  0.70419648  0.75222930  1
  S  S4  1  0.17607509  0.01840961  0.58361061  1
  S  S5  1  0.33226342  0.64606934  0.58297470  1
  S  S6  1  0.83199033  0.01950356  0.08147165  1
  S  S7  1  0.67577563  0.33392950  0.08214843  1
  S  S8  1  0.31185680  0.66304813  0.91901660  1
  S  S9  1  0.02462786  0.37855588  0.92007267  1
  S  S10  1  0.52186326  0.38132025  0.91507288  1
  S  S11  1  0.16749567  0.95859551  0.91772935  1
  S  S12  1  0.66473844  0.37114884  0.41746491  1
  S  S13  1  0.02408286  0.66499929  0.41456969  1
  S  S14  1  0.52183228  0.66819844  0.41918909  1
  O  O0  1  0.12246586  0.04629714  0.30882894  1
  O  O1  1  0.60960634  0.03767889  0.30742779  1
  O  O2  1  0.39835010  0.75580706  0.30868744  1
  O  O3  1  0.90515059  0.78559462  0.30686430  1
  O  O4  1  0.48330875  0.20165802  0.30286546  1
  O  O5  1  0.99453212  0.21057228  0.30524885  1
  O  O6  1  0.11332840  0.18884058  0.81180026  1
  O  O7  1  0.62491129  0.20591929  0.81075446  1
  O  O8  1  0.49138805  0.77225338  0.80813951  1
  O  O9  1  0.98618159  0.76620526  0.80476259  1
  O  O10  1  0.39899945  0.01554315  0.81281030  1
  O  O11  1  0.89691621  0.04207279  0.81079077  1
  O  O12  1  0.40222406  0.96752900  0.69440104  1
  O  O13  1  0.89120430  0.98050135  0.69289579  1
  O  O14  1  0.08983350  0.18046461  0.69307241  1
  O  O15  1  0.59372053  0.22968947  0.69547487  1
  O  O16  1  0.00644939  0.81136423  0.69801060  1
  O  O17  1  0.51544159  0.81831909  0.70207689  1
  O  O18  1  0.38798346  0.79900926  0.19040145  1
  O  O19  1  0.89897450  0.83052699  0.18969421  1
  O  O20  1  0.01774854  0.21453959  0.19910393  1
  O  O21  1  0.50496058  0.20053581  0.19613399  1
  O  O22  1  0.09625937  0.96066689  0.19258200  1
  O  O23  1  0.59137264  0.99781875  0.18873992  1
  O  O24  1  0.45685643  0.36637578  0.64298004  1
  O  O25  1  0.94215077  0.36321075  0.64395646  1
  O  O26  1  0.22858639  0.09407873  0.63597770  1
  O  O27  1  0.74092806  0.11588863  0.64147826  1
  O  O28  1  0.32090223  0.54522841  0.63649883  1
  O  O29  1  0.81955801  0.50565615  0.63372460  1
  O  O30  1  0.43835867  0.51667104  0.14011571  1
  O  O31  1  0.95312263  0.54566434  0.14217116  1
  O  O32  1  0.31692812  0.13217695  0.12983256  1
  O  O33  1  0.82019104  0.09871041  0.13362120  1
  O  O34  1  0.24404971  0.36733463  0.13696202  1
  O  O35  1  0.72834422  0.36095680  0.13384200  1
  O  O36  1  0.20697744  0.27766734  0.02247448  1
  O  O37  1  0.71276648  0.30621777  0.02869582  1
  O  O38  1  0.43557734  0.57279333  0.02242587  1
  O  O39  1  0.93155383  0.56853493  0.02380083  1
  O  O40  1  0.35447063  0.11919481  0.01494290  1
  O  O41  1  0.83754881  0.10934853  0.02700633  1
  O  O42  1  0.21397387  0.12276408  0.53103439  1
  O  O43  1  0.70708446  0.14066653  0.52690945  1
  O  O44  1  0.33816609  0.56537926  0.52995957  1
  O  O45  1  0.85355615  0.58364865  0.51749979  1
  O  O46  1  0.42907722  0.29416949  0.52576571  1
  O  O47  1  0.93471025  0.30030433  0.52585725  1
  O  O48  1  0.26864266  0.68015122  0.97313360  1
  O  O49  1  0.76392635  0.67980920  0.98162186  1
  O  O50  1  0.08021961  0.47196416  0.97087914  1
  O  O51  1  0.57191650  0.46203491  0.96899609  1
  O  O52  1  0.16352720  0.85928155  0.97136071  1
  O  O53  1  0.65148473  0.84113036  0.97592199  1
  O  O54  1  0.26410198  0.84959220  0.48231978  1
  O  O55  1  0.76550578  0.84791923  0.47664840  1
  O  O56  1  0.15492475  0.46321618  0.47714871  1
  O  O57  1  0.65815980  0.45916598  0.47072322  1
  O  O58  1  0.07460174  0.68454131  0.46861515  1
  O  O59  1  0.57497816  0.67971651  0.46985041  1
  O  O60  1  0.06543630  0.64635863  0.36086591  1
  O  O61  1  0.55521602  0.64439344  0.36336370  1
  O  O62  1  0.25148950  0.86805704  0.36462260  1
  O  O63  1  0.76141853  0.88548561  0.35833257  1
  O  O64  1  0.17178016  0.48927963  0.35686779  1
  O  O65  1  0.66780390  0.46024754  0.36305054  1
  O  O66  1  0.06003910  0.47074921  0.86510335  1
  O  O67  1  0.56364127  0.47871702  0.86132437  1
  O  O68  1  0.17294484  0.87676371  0.86405239  1
  O  O69  1  0.66927227  0.85180948  0.85713939  1
  O  O70  1  0.26377889  0.64862262  0.86637609  1
  O  O71  1  0.75098116  0.63544446  0.86459966  1
  O  O72  1  0.01894301  0.81694708  0.41306896  1
  O  O73  1  0.51781426  0.82348937  0.41920664  1
  O  O74  1  0.40095097  0.96745733  0.42107904  1
  O  O75  1  0.90419730  0.97587650  0.42123577  1
  O  O76  1  0.08621540  0.19456275  0.41822793  1
  O  O77  1  0.58943072  0.20378082  0.41907135  1
  O  O78  1  0.01944007  0.21447205  0.92037795  1
  O  O79  1  0.51272522  0.21430146  0.91446253  1
  O  O80  1  0.09110820  0.97078181  0.91938343  1
  O  O81  1  0.58230699  0.97279036  0.91832750  1
  O  O82  1  0.39499370  0.81346642  0.91856020  1
  O  O83  1  0.90123711  0.83514714  0.92048025  1
  O  O84  1  0.49610189  0.16044084  0.58569390  1
  O  O85  1  0.00296470  0.17887450  0.59235274  1
  O  O86  1  0.09281638  -0.00001215  0.59071690  1
  O  O87  1  0.58371626  0.00065720  0.59891900  1
  O  O88  1  0.40572195  0.81469406  0.58703482  1
  O  O89  1  0.91890793  0.83233486  0.59267423  1
  O  O90  1  0.50031747  0.82625528  0.09090971  1
  O  O91  1  0.99615833  0.83465356  0.08567649  1
  O  O92  1  0.41894027  0.00523761  0.09208318  1
  O  O93  1  0.90552524  0.99861572  0.08536322  1
  O  O94  1  0.08513420  0.16694427  0.09733717  1
  O  O95  1  0.59195711  0.18655368  0.08867412  1
  O  O96  1  0.34468383  0.16582982  0.74509193  1
  O  O97  1  0.84178894  0.18385576  0.74203042  1
  O  O98  1  0.24370289  0.32839159  0.74267766  1
  O  O99  1  0.74805439  0.33069236  0.73950670  1
  O  O100  1  0.42652681  0.54074147  0.74453195  1
  O  O101  1  0.92400568  0.53069956  0.74175835  1
  O  O102  1  0.34107306  0.50034633  0.24102970  1
  O  O103  1  0.84288198  0.51916129  0.24450184  1
  O  O104  1  0.42259243  0.31585655  0.23982061  1
  O  O105  1  0.92791240  0.31112756  0.24278578  1
  O  O106  1  0.24785367  0.16518825  0.23897640  1
  O  O107  1  0.74272184  0.15478580  0.24198948  1
  O  O108  1  0.31937245  0.51248374  0.92272631  1
  O  O109  1  0.82089102  0.50045562  0.91852110  1
  O  O110  1  0.43955795  0.36921406  0.91825014  1
  O  O111  1  0.94130236  0.35694680  0.92723368  1
  O  O112  1  0.24243939  0.12648033  0.91916147  1
  O  O113  1  0.75086656  0.13080992  0.91546043  1
  O  O114  1  0.32068026  0.14189148  0.41887943  1
  O  O115  1  0.82450593  0.15277622  0.41969566  1
  O  O116  1  0.25353412  0.37609970  0.41524044  1
  O  O117  1  0.74105410  0.35908688  0.41905966  1
  O  O118  1  0.43722752  0.52491429  0.42573106  1
  O  O119  1  0.94186094  0.51615274  0.41841065  1
  O  O120  1  0.17729691  0.50350414  0.07887303  1
  O  O121  1  0.67019556  0.48936666  0.07722411  1
  O  O122  1  0.08567748  0.68701971  0.07507435  1
  O  O123  1  0.58273784  0.65993075  0.08090765  1
  O  O124  1  0.25545596  0.84487475  0.07901467  1
  O  O125  1  0.75444473  0.84698604  0.08088002  1
  O  O126  1  0.17028586  0.85217392  0.57801435  1
  O  O127  1  0.67413674  0.84730640  0.58194236  1
  O  O128  1  0.25487699  0.66308986  0.58203610  1
  O  O129  1  0.75407422  0.65892185  0.58216383  1
  O  O130  1  0.08408260  0.50818304  0.58178522  1
  O  O131  1  0.58687876  0.48878574  0.57229600  1
  O  O132  1  0.15380994  0.81672933  0.25525253  1
  O  O133  1  0.64307538  0.82336432  0.24416482  1
  O  O134  1  0.25032969  0.65225662  0.25043962  1
  O  O135  1  0.75880927  0.68043169  0.24394419  1
  O  O136  1  0.07771523  0.47040978  0.25128016  1
  O  O137  1  0.57156038  0.45516255  0.24799540  1
  O  O138  1  0.14657132  0.46499966  0.74580899  1
  O  O139  1  0.65399184  0.49262436  0.75526846  1
  O  O140  1  0.07309221  0.68864791  0.74862123  1
  O  O141  1  0.57613260  0.68208289  0.75345433  1
  O  O142  1  0.25987895  0.83494925  0.74501587  1
  O  O143  1  0.75099942  0.85093024  0.75052472  1
loop_
_geom_bond_atom_site_label_1
_geom_bond_atom_site_label_2
_geom_bond_distance
_geom_bond_site_symmetry_2
Na0 O107 2.435898 1_565
Na0 O63 2.469922 1_555
Na0 O135 2.536158 1_555
Na0 O133 2.654889 1_555
Na0 O105 2.765199 1_565
Na0 O33 2.945129 1_565
Na1 O134 2.436591 1_555
Na1 O102 2.560791 1_555
Na1 O106 2.589422 1_555
Na1 O64 2.691116 1_555
Na1 O136 2.717085 1_555
Na1 O0 2.762475 1_555
Na1 O34 2.891151 1_555
Na1 O20 3.008334 1_555
Na2 O103 2.423989 1_555
Na2 O135 2.561974 1_555
Na2 O107 2.579023 1_555
Na2 O65 2.750055 1_555
Na2 O137 2.792083 1_555
Na2 O35 2.800653 1_555
Na2 O1 2.921998 1_555
Na3 O31 2.452755 1_555
Na3 O103 2.462313 1_555
Na3 O132 2.604264 1_655
Na3 O105 2.703678 1_555
Na3 O136 2.754336 1_655
Na3 O22 2.843505 1_655
Na3 O3 2.970652 1_555
Na3 O60 2.984428 1_655
Na4 O133 2.363573 1_555
Na4 O102 2.559317 1_555
Na4 O104 2.674690 1_555
Na4 O137 2.724408 1_555
Na4 O30 2.742145 1_555
Na4 O61 2.809760 1_555
Na4 O2 2.885037 1_555
Na5 O98 2.433410 1_555
Na5 O142 2.514978 1_555
Na5 O28 2.534303 1_555
Na5 O138 2.619612 1_555
Na5 O100 2.712265 1_555
Na5 O12 2.941909 1_555
Na5 O70 3.000088 1_555
Na6 O138 2.435322 1_655
Na6 O25 2.511662 1_555
Na6 O97 2.523888 1_555
Na6 O101 2.650351 1_555
Na6 O140 2.743134 1_655
Na6 O11 2.957486 1_555
Na6 O66 3.004787 1_655
Na7 O24 2.316481 1_555
Na7 O96 2.516316 1_555
Na7 O139 2.553065 1_555
Na7 O141 2.693215 1_555
Na7 O100 2.700694 1_555
Na7 O15 2.723858 1_555
Na8 O96 2.473853 1_555
Na8 O98 2.558465 1_555
Na8 O142 2.595198 1_545
Na8 O26 2.628895 1_555
Na8 O140 2.754704 1_545
Na8 O68 2.886817 1_545
Na9 O143 2.398767 1_545
Na9 O97 2.527901 1_555
Na9 O99 2.571151 1_555
Na9 O27 2.634578 1_555
Na9 O141 2.753439 1_545
Na9 O69 2.815275 1_545
Na9 O7 2.893088 1_555
Na9 O17 2.985192 1_545
Na10 O85 2.329076 1_555
Na10 O130 2.473154 1_555
Na10 O56 2.691863 1_555
Na10 O86 2.721379 1_555
Na10 O128 2.745060 1_555
Na10 O14 2.771545 1_555
Na11 O131 2.430543 1_555
Na11 O129 2.614525 1_555
Na11 O84 2.669101 1_555
Na11 O43 2.690089 1_555
Na11 O87 2.757486 1_555
Na11 O57 2.763852 1_555
Na11 O15 2.826966 1_555
Na11 O29 2.844367 1_555
Na12 O88 2.493372 1_555
Na12 O84 2.508391 1_565
Na12 O54 2.577270 1_555
Na12 O128 2.669931 1_555
Na12 O46 2.708946 1_565
Na12 O126 2.793465 1_555
Na12 O12 2.952208 1_555
Na12 O26 3.024716 1_565
Na13 O89 2.562108 1_555
Na13 O129 2.575345 1_555
Na13 O127 2.605258 1_555
Na13 O55 2.670370 1_555
Na13 O85 2.766693 1_665
Na13 O13 2.772641 1_555
Na13 O47 2.909871 1_565
Na13 O27 2.981440 1_565
Na14 O122 2.404197 1_555
Na14 O22 2.594051 1_555
Na14 O91 2.619948 1_455
Na14 O94 2.690969 1_565
Na14 O124 2.708292 1_555
Na14 O32 2.755673 1_565
Na14 O36 2.854183 1_565
Na14 O52 2.907545 1_554
Na15 O90 2.372277 1_555
Na15 O123 2.473837 1_555
Na15 O23 2.533806 1_555
Na15 O125 2.728740 1_555
Na15 O95 2.751364 1_565
Na15 O53 2.866457 1_554
Na15 O33 2.998907 1_565
Na16 O18 2.476922 1_555
Na16 O124 2.559011 1_555
Na16 O120 2.567433 1_555
Na16 O92 2.573163 1_565
Na16 O90 2.705422 1_555
Na16 O34 2.792149 1_555
Na16 O48 2.944741 1_554
Na16 O38 3.036578 1_555
Na17 O93 2.474056 1_555
Na17 O91 2.521862 1_555
Na17 O125 2.634594 1_555
Na17 O19 2.686612 1_555
Na17 O49 2.709164 1_554
Na17 O121 2.783531 1_555
Na17 O39 2.847258 1_555
Na17 O35 2.967370 1_555
Na18 O38 2.341194 1_556
Na18 O81 2.422463 1_555
Na18 O110 2.585679 1_555
Na18 O82 2.587950 1_555
Na18 O108 2.709287 1_555
Na18 O8 2.847619 1_555
Na18 O53 2.890850 1_555
Na19 O39 2.374176 1_556
Na19 O109 2.405106 1_555
Na19 O83 2.477401 1_555
Na19 O80 2.621985 1_655
Na19 O111 2.662364 1_555
Na19 O9 2.856913 1_555
Na20 O40 2.350452 1_556
Na20 O10 2.536181 1_555
Na20 O79 2.540917 1_555
Na20 O82 2.594313 1_545
Na20 O112 2.597805 1_555
Na20 O110 2.637955 1_555
Na21 O11 2.392014 1_555
Na21 O113 2.418593 1_555
Na21 O83 2.496964 1_545
Na21 O111 2.695246 1_555
Na21 O78 2.806224 1_655
Na21 O41 2.807262 1_556
Na22 O78 2.469694 1_555
Na22 O112 2.531543 1_555
Na22 O6 2.544564 1_555
Na22 O80 2.549656 1_545
Na22 O36 2.564251 1_556
Na22 O108 2.588471 1_555
Na23 O7 2.332771 1_555
Na23 O109 2.463200 1_555
Na23 O113 2.524009 1_555
Na23 O81 2.586749 1_545
Na23 O79 2.750878 1_555
Na23 O37 2.867509 1_556
Na23 O71 2.958424 1_555
Na24 O46 2.417804 1_555
Na24 O114 2.450289 1_555
Na24 O74 2.518880 1_545
Na24 O77 2.625123 1_555
Na24 O118 2.687873 1_555
Na24 O4 2.925089 1_555
Na25 O47 2.397335 1_555
Na25 O75 2.399945 1_545
Na25 O115 2.447360 1_555
Na25 O76 2.540008 1_655
Na25 O119 2.649907 1_555
Na25 O5 2.900299 1_555
Na26 O0 2.362964 1_555
Na26 O76 2.491354 1_555
Na26 O114 2.516025 1_555
Na26 O116 2.571407 1_555
Na26 O72 2.614603 1_545
Na26 O42 2.944113 1_555
Na26 O62 2.996702 1_545
Na27 O115 2.436046 1_555
Na27 O117 2.613289 1_555
Na27 O73 2.615647 1_545
Na27 O1 2.692733 1_555
Na27 O43 2.731935 1_555
Na27 O77 2.736936 1_555
Na27 O63 2.898082 1_545
Na28 O116 2.395301 1_555
Na28 O2 2.431587 1_555
Na28 O74 2.491991 1_555
Na28 O118 2.604444 1_555
Na28 O73 2.741428 1_555
Na28 O44 2.876132 1_555
Na29 O45 2.386120 1_555
Na29 O75 2.410181 1_555
Na29 O117 2.673064 1_555
Na29 O72 2.735155 1_655
Na29 O3 2.761698 1_555
Na29 O119 2.810327 1_555
Na30 O75 2.327065 1_555
Na30 O76 2.545396 1_665
Na30 O89 2.590198 1_555
Na30 O85 2.670425 1_665
Na30 O72 2.781831 1_655
Na30 O86 2.842273 1_665
Na31 O84 2.447702 1_555
Na31 O74 2.544776 1_545
Na31 O77 2.580686 1_555
Na31 O88 2.606328 1_545
Na31 O73 2.625162 1_545
Na31 O87 2.692120 1_555
Na32 O91 2.370362 1_555
Na32 O93 2.502156 1_555
Na32 O83 2.543304 1_554
Na32 O94 2.671481 1_665
Na32 O78 2.671845 1_664
Na32 O80 2.697261 1_654
Na33 O92 2.513247 1_565
Na33 O90 2.517422 1_555
Na33 O81 2.561141 1_554
Na33 O95 2.567793 1_565
Na33 O82 2.734920 1_554
Na33 O79 2.811864 1_564
Na34 O96 2.326010 1_555
Na34 O98 2.358795 1_555
Na34 O100 2.592690 1_555
Na34 O112 2.827311 1_555
Na34 O110 2.978511 1_555
Na34 O108 3.025656 1_555
Na35 O99 2.459285 1_555
Na35 O113 2.543084 1_555
Na35 O109 2.559667 1_555
Na35 O97 2.565856 1_555
Na35 O101 2.753815 1_555
Na36 O116 2.485506 1_555
Na36 O114 2.504046 1_555
Na36 O106 2.547761 1_555
Na36 O102 2.637235 1_555
Na36 O104 2.816976 1_555
Na36 O118 2.976659 1_555
Na37 O107 2.495928 1_555
Na37 O115 2.541347 1_555
Na37 O103 2.616034 1_555
Na37 O117 2.716707 1_555
Na37 O105 2.754674 1_555
Na37 O119 2.905646 1_555
Na38 O132 2.460424 1_555
Na38 O134 2.481978 1_555
Na38 O124 2.586651 1_555
Na38 O136 2.593397 1_555
Na38 O120 2.650081 1_555
Na38 O122 2.679522 1_555
Na39 O133 2.331849 1_555
Na39 O135 2.356710 1_555
Na39 O137 2.515988 1_555
Na39 O123 2.578100 1_555
Na39 O125 2.676271 1_555
Na39 O121 2.781257 1_555
Na40 O138 2.411902 1_555
Na40 O142 2.458922 1_555
Na40 O130 2.461530 1_555
Na40 O140 2.552847 1_555
Na40 O128 2.608780 1_555
Na40 O126 2.705281 1_555
Na41 O129 2.435464 1_555
Na41 O127 2.491920 1_555
Na41 O139 2.551307 1_555
Na41 O143 2.570904 1_555
Na41 O131 2.634923 1_555
Na41 O141 2.737908 1_555
Ca0 O3 2.164881 1_445
Ca0 O5 2.276047 1_455
Ca0 O0 2.288299 1_555
Ca0 O76 2.304743 1_555
Ca0 O75 2.328036 1_445
Ca0 O72 2.370800 1_545
Ca1 O1 2.171865 1_565
Ca1 O2 2.211701 1_555
Ca1 O4 2.322317 1_565
Ca1 O74 2.328178 1_555
Ca1 O73 2.436948 1_555
Ca1 O77 2.506398 1_565
Ca2 O11 2.192602 1_565
Ca2 O6 2.200634 1_665
Ca2 O9 2.311255 1_555
Ca2 O83 2.322306 1_555
Ca2 O78 2.484289 1_665
Ca2 O80 2.583023 1_655
Ca3 O10 2.186684 1_555
Ca3 O7 2.198059 1_555
Ca3 O8 2.283358 1_545
Ca3 O81 2.292497 1_545
Ca3 O79 2.399747 1_555
Ca3 O82 2.544660 1_545
Ca4 O24 2.195393 1_555
Ca4 O96 2.241632 1_555
Ca4 O98 2.302127 1_555
Ca4 O26 2.353430 1_555
Ca4 O28 2.356244 1_555
Ca4 O100 2.382915 1_555
Ca5 O103 2.202879 1_555
Ca5 O31 2.207064 1_555
Ca5 O107 2.253627 1_555
Ca5 O105 2.351017 1_555
Ca5 O33 2.357315 1_555
Ca5 O35 2.380639 1_555
Ca6 O38 2.218492 1_556
Ca6 O40 2.220881 1_556
Ca6 O36 2.247664 1_556
Ca6 O108 2.490546 1_555
Ca6 O112 2.503580 1_555
Ca6 O110 2.513910 1_555
Ca7 O39 2.234337 1_556
Ca7 O109 2.243552 1_555
Ca7 O37 2.324703 1_556
Ca7 O111 2.336035 1_555
Ca7 O113 2.358336 1_555
Ca7 O41 2.360814 1_556
Ca8 O46 2.227199 1_555
Ca8 O114 2.240391 1_555
Ca8 O118 2.306365 1_555
Ca8 O116 2.328490 1_555
Ca8 O42 2.331996 1_555
Ca8 O44 2.374357 1_555
Ca9 O47 2.229891 1_555
Ca9 O43 2.260519 1_555
Ca9 O45 2.266301 1_555
Ca9 O115 2.282649 1_555
Ca9 O117 2.470515 1_555
Ca9 O119 2.510132 1_555
Ca10 O63 2.124624 1_555
Ca10 O135 2.262317 1_555
Ca10 O133 2.287797 1_555
Ca10 O61 2.302706 1_555
Ca10 O65 2.307038 1_555
Ca10 O137 2.460949 1_555
Ca11 O142 2.211160 1_555
Ca11 O138 2.230330 1_555
Ca11 O70 2.279307 1_555
Ca11 O66 2.281370 1_555
Ca11 O68 2.309021 1_555
Ca11 O140 2.353807 1_555
O0 Si0 1.603230 1_545
O1 Si1 1.616898 1_555
O2 Si2 1.602432 1_555
O3 Si3 1.606222 1_555
O4 S1 1.465607 1_555
O5 S0 1.453533 1_655
O6 Si4 1.625885 1_555
O7 Si5 1.613094 1_555
O8 S3 1.475995 1_555
O9 S2 1.475364 1_555
O10 Si6 1.619380 1_545
O11 Si7 1.609361 1_555
O12 Si6 1.709838 1_555
O12 Sn1 1.985245 1_565
O13 Si7 1.640838 1_565
O13 Sn0 1.996121 1_565
O14 Si4 1.695663 1_555
O14 Sn0 2.000697 1_455
O15 Si5 1.665379 1_555
O15 Sn1 2.014625 1_555
O16 S2 1.490384 1_455
O16 Sn0 2.204161 1_465
O17 S3 1.490299 1_555
O17 Sn1 2.331802 1_565
O18 Si2 1.653151 1_555
O18 Sn3 1.999633 1_555
O19 Si3 1.730500 1_555
O19 Sn2 1.981939 1_655
O20 S0 1.505691 1_555
O20 Sn2 2.268053 1_545
O21 S1 1.500204 1_555
O21 Sn3 2.173697 1_545
O22 Si0 1.673344 1_555
O22 Sn2 2.015989 1_555
O23 Si1 1.715703 1_565
O23 Sn3 1.982350 1_555
O24 Si8 1.607473 1_555
O25 Si9 1.654859 1_555
O25 Sn4 2.085731 1_555
O26 S4 1.483962 1_555
O27 Si10 1.665752 1_555
O27 Sn4 2.041686 1_555
O28 S5 1.484113 1_555
O29 Si11 1.654802 1_555
O29 Sn4 2.003677 1_555
O30 Si12 1.648187 1_555
O30 Sn5 2.075811 1_555
O31 Si13 1.598081 1_555
O32 Si14 1.649267 1_555
O32 Sn5 2.040667 1_555
O33 S6 1.469776 1_555
O34 Si15 1.655958 1_555
O34 Sn5 2.052739 1_555
O35 S7 1.474972 1_555
O36 Si15 1.614941 1_555
O37 S7 1.478105 1_555
O38 Si12 1.608988 1_555
O39 Si13 1.616994 1_555
O40 Si14 1.604948 1_555
O41 S6 1.467143 1_555
O42 S4 1.473425 1_555
O43 Si10 1.607711 1_555
O44 S5 1.453735 1_555
O45 Si11 1.598740 1_555
O46 Si8 1.617256 1_555
O47 Si9 1.594231 1_555
O48 S8 1.517179 1_555
O48 Sn6 2.177085 1_556
O49 Si16 1.682532 1_555
O49 Sn7 1.996670 1_556
O50 S9 1.511837 1_555
O50 Sn6 2.156874 1_556
O51 S10 1.502193 1_555
O51 Sn7 2.135192 1_556
O52 S11 1.508642 1_555
O52 Sn6 2.232884 1_556
O53 Si17 1.670579 1_555
O53 Sn7 1.970295 1_556
O54 Si18 1.688225 1_555
O54 Sn8 1.997687 1_555
O55 Si19 1.707051 1_555
O55 Sn9 1.973624 1_555
O56 Si20 1.675847 1_555
O56 Sn8 1.966275 1_555
O57 S12 1.501875 1_555
O57 Sn9 2.281582 1_555
O58 S13 1.508308 1_555
O58 Sn8 2.086916 1_555
O59 S14 1.493565 1_555
O59 Sn9 2.223928 1_555
O60 S13 1.495009 1_555
O60 Sn10 2.261865 1_555
O61 S14 1.473943 1_555
O62 Si18 1.646415 1_555
O62 Sn10 1.952035 1_555
O63 Si19 1.616398 1_555
O64 Si20 1.670598 1_555
O64 Sn10 1.997950 1_555
O65 S12 1.473387 1_555
O66 S9 1.466999 1_555
O67 S10 1.482938 1_555
O67 Sn11 2.326212 1_555
O68 S11 1.469369 1_555
O69 Si17 1.666811 1_555
O69 Sn11 2.005441 1_555
O70 S8 1.465735 1_555
O71 Si16 1.646702 1_555
O71 Sn11 1.955086 1_555
O72 S13 1.471309 1_555
O73 S14 1.490789 1_555
O74 Si18 1.629946 1_555
O75 Si19 1.637084 1_555
O76 Si20 1.615702 1_555
O77 S12 1.492675 1_555
O78 S9 1.487953 1_555
O79 S10 1.483608 1_555
O80 S11 1.488023 1_555
O81 Si17 1.633967 1_555
O82 S8 1.485672 1_555
O83 Si16 1.633304 1_555
O84 Si8 1.702458 1_555
O84 Sn1 2.034364 1_555
O85 Si9 1.685426 1_455
O85 Sn0 2.059396 1_455
O86 S4 1.484971 1_555
O86 Sn0 2.355786 1_455
O87 Si10 1.665267 1_555
O87 Sn1 1.985052 1_555
O88 S5 1.489036 1_555
O88 Sn1 2.470797 1_565
O89 Si11 1.675770 1_555
O89 Sn0 2.012920 1_565
O90 Si12 1.683003 1_555
O90 Sn3 2.088190 1_555
O91 Si13 1.692197 1_555
O91 Sn2 2.055924 1_655
O92 Si14 1.663129 1_555
O92 Sn3 2.028573 1_545
O93 S6 1.484787 1_565
O93 Sn2 2.502073 1_655
O94 Si15 1.653465 1_555
O94 Sn2 2.019588 1_545
O95 S7 1.487445 1_555
O95 Sn3 2.395127 1_545
O96 Si6 1.634129 1_545
O97 Si7 1.668833 1_555
O97 Sn4 2.095575 1_555
O98 Si4 1.638735 1_555
O99 Si5 1.644034 1_555
O99 Sn4 2.085262 1_555
O100 S3 1.484442 1_555
O101 S2 1.485819 1_555
O101 Sn4 2.338186 1_555
O102 Si2 1.670249 1_555
O102 Sn5 2.091192 1_555
O103 Si3 1.635686 1_555
O104 S1 1.495724 1_555
O104 Sn5 2.278433 1_555
O105 S0 1.482343 1_655
O106 Si0 1.653019 1_545
O106 Sn5 2.062525 1_555
O107 Si1 1.631840 1_555
O108 S8 1.485179 1_555
O109 Si16 1.628297 1_555
O110 S10 1.486042 1_555
O111 S9 1.474425 1_655
O112 S11 1.493143 1_545
O113 Si17 1.626869 1_545
O114 Si18 1.626203 1_545
O115 Si19 1.640864 1_545
O116 Si20 1.628844 1_555
O117 S12 1.486517 1_555
O118 S14 1.481588 1_555
O119 S13 1.471500 1_655
O120 Si15 1.667775 1_555
O120 Sn6 2.002736 1_555
O121 S7 1.512067 1_555
O121 Sn7 2.212433 1_555
O122 Si13 1.681021 1_455
O122 Sn6 1.974375 1_555
O123 Si12 1.693930 1_555
O123 Sn7 2.051608 1_555
O124 Si14 1.692151 1_565
O124 Sn6 2.044046 1_555
O125 S6 1.538016 1_565
O125 Sn7 2.235613 1_555
O126 S4 1.508626 1_565
O126 Sn8 2.244235 1_555
O127 Si10 1.653698 1_565
O127 Sn9 2.043400 1_555
O128 S5 1.532299 1_555
O128 Sn8 2.275344 1_555
O129 Si11 1.680856 1_555
O129 Sn9 2.086316 1_555
O130 Si9 1.699692 1_455
O130 Sn8 2.055811 1_555
O131 Si8 1.666777 1_555
O131 Sn9 2.009829 1_555
O132 Si0 1.685852 1_555
O132 Sn10 2.043503 1_555
O133 Si1 1.637474 1_565
O134 Si2 1.668451 1_555
O134 Sn10 2.049409 1_555
O135 Si3 1.637774 1_555
O136 S0 1.507075 1_555
O136 Sn10 2.427458 1_555
O137 S1 1.485397 1_555
O138 Si4 1.644106 1_555
O139 Si5 1.684655 1_555
O139 Sn11 2.034435 1_555
O140 S2 1.494356 1_455
O141 S3 1.501013 1_555
O141 Sn11 2.396843 1_555
O142 Si6 1.641478 1_555
O143 Si7 1.669918 1_565
O143 Sn11 2.032226 1_555
