# generated using pymatgen
data_K2Na2MgNb2(OF5)2
_symmetry_space_group_name_H-M   'P 1'
_cell_length_a   6.09174700
_cell_length_b   6.09174700
_cell_length_c   8.75104400
_cell_angle_alpha   90.00000000
_cell_angle_beta   90.00000000
_cell_angle_gamma   90.00000000
_symmetry_Int_Tables_number   1
_chemical_formula_structural   K2Na2MgNb2(OF5)2
_chemical_formula_sum   'K2 Na2 Mg1 Nb2 O2 F10'
_cell_volume   324.74583042
_cell_formula_units_Z   1
loop_
 _symmetry_equiv_pos_site_id
 _symmetry_equiv_pos_as_xyz
  1  'x, y, z'
loop_
 _atom_site_type_symbol
 _atom_site_label
 _atom_site_symmetry_multiplicity
 _atom_site_fract_x
 _atom_site_fract_y
 _atom_site_fract_z
 _atom_site_occupancy
  K  K0  1  0.25000000  0.75000000  0.50000000  1
  K  K1  1  0.75000000  0.25000000  0.50000000  1
  Na  Na0  1  0.75000000  0.75000000  0.76261400  1
  Na  Na1  1  0.25000000  0.25000000  0.23738600  1
  Mg  Mg0  1  0.25000000  0.75000000  0.00000000  1
  Nb  Nb0  1  0.75000000  0.75000000  0.23789000  1
  Nb  Nb1  1  0.25000000  0.25000000  0.76211000  1
  O  O0  1  0.75000000  0.75000000  0.03412000  1
  O  O1  1  0.25000000  0.25000000  0.96588000  1
  F  F0  1  0.75000000  0.75000000  0.48758900  1
  F  F1  1  0.25000000  0.25000000  0.51241100  1
  F  F2  1  0.97952200  0.51655400  0.27536400  1
  F  F3  1  0.52047800  0.51655400  0.27536400  1
  F  F4  1  0.97952200  0.98344600  0.27536400  1
  F  F5  1  0.52047800  0.98344600  0.27536400  1
  F  F6  1  0.01655400  0.47952200  0.72463600  1
  F  F7  1  0.48344600  0.47952200  0.72463600  1
  F  F8  1  0.01655400  0.02047800  0.72463600  1
  F  F9  1  0.48344600  0.02047800  0.72463600  1
loop_
_geom_bond_atom_site_label_1
_geom_bond_atom_site_label_2
_geom_bond_distance
_geom_bond_site_symmetry_2
Na0 O0 2.375961 1_556
Na1 O1 2.375961 1_554
Nb0 O0 1.783200 1_555
Nb1 O1 1.783200 1_555
F0 Nb0 2.185127 1_555
F0 Na0 2.406756 1_555
F0 K1 3.047809 1_555
F0 K0 3.047809 1_655
F0 K1 3.047809 1_565
F0 K0 3.047809 1_555
F1 Nb1 2.185127 1_555
F1 Na1 2.406756 1_555
F1 K1 3.047809 1_555
F1 K0 3.047809 1_545
F1 K1 3.047809 1_455
F1 K0 3.047809 1_555
F2 Nb0 2.021096 1_555
F2 Na1 2.337087 1_655
F2 K1 2.907914 1_555
F2 K0 2.932845 1_655
F3 Nb0 2.021096 1_555
F3 Na1 2.337087 1_555
F3 K1 2.907914 1_555
F3 K0 2.932845 1_555
F4 Nb0 2.021096 1_555
F4 Na1 2.337087 1_665
F4 K1 2.907914 1_565
F4 K0 2.932845 1_655
F5 Nb0 2.021096 1_555
F5 Na1 2.337087 1_565
F5 K1 2.907914 1_565
F5 K0 2.932845 1_555
F6 Nb1 2.021096 1_555
F6 Na0 2.337087 1_455
F6 K1 2.907914 1_455
F6 K0 2.932845 1_555
F7 Nb1 2.021096 1_555
F7 Na0 2.337087 1_555
F7 K1 2.907914 1_555
F7 K0 2.932845 1_555
F8 Nb1 2.021096 1_555
F8 Na0 2.337087 1_445
F8 K1 2.907914 1_455
F8 K0 2.932845 1_545
F9 Nb1 2.021096 1_555
F9 Na0 2.337087 1_545
F9 K1 2.907914 1_555
F9 K0 2.932845 1_545
