# generated using pymatgen
data_Na4Mg(WO4)2
_symmetry_space_group_name_H-M   'P 1'
_cell_length_a   7.01176927
_cell_length_b   7.01176927
_cell_length_c   6.49386503
_cell_angle_alpha   62.41468184
_cell_angle_beta   62.41468184
_cell_angle_gamma   55.26520990
_symmetry_Int_Tables_number   1
_chemical_formula_structural   Na4Mg(WO4)2
_chemical_formula_sum   'Na4 Mg1 W2 O8'
_cell_volume   223.68184582
_cell_formula_units_Z   1
loop_
 _symmetry_equiv_pos_site_id
 _symmetry_equiv_pos_as_xyz
  1  'x, y, z'
loop_
 _atom_site_type_symbol
 _atom_site_label
 _atom_site_symmetry_multiplicity
 _atom_site_fract_x
 _atom_site_fract_y
 _atom_site_fract_z
 _atom_site_occupancy
  Na  Na0  1  0.02592800  0.02592800  0.45702700  1
  Na  Na1  1  0.08484900  0.55397500  0.93058800  1
  Na  Na2  1  0.55397500  0.08484900  0.93058800  1
  Na  Na3  1  0.02592800  0.02592800  0.99111700  1
  Mg  Mg0  1  0.59094300  0.59094300  0.15905700  1
  W  W0  1  0.32461100  0.32461100  0.42538900  1
  W  W1  1  0.63129700  0.63129700  0.61870300  1
  O  O0  1  0.24965500  0.24965500  0.75778400  1
  O  O1  1  0.24604100  0.66752800  0.29321500  1
  O  O2  1  0.66752800  0.24604100  0.29321500  1
  O  O3  1  0.24965500  0.24965500  0.24290700  1
  O  O4  1  0.70942300  0.70942300  0.27275000  1
  O  O5  1  0.78710100  0.29364500  0.70962700  1
  O  O6  1  0.29364500  0.78710100  0.70962700  1
  O  O7  1  0.70942300  0.70942300  0.80840500  1
loop_
_geom_bond_atom_site_label_1
_geom_bond_atom_site_label_2
_geom_bond_distance
_geom_bond_site_symmetry_2
Na0 O3 2.370488 1_555
Na0 O5 2.396734 1_455
Na0 O6 2.396734 1_545
Na0 O1 2.522769 1_545
Na0 O2 2.522769 1_455
Na1 O0 2.313992 1_555
Na1 O3 2.313996 1_556
Na1 O6 2.341707 1_555
Na1 O7 2.571165 1_455
Na1 O4 2.571169 1_456
Na2 O0 2.313992 1_555
Na2 O3 2.313996 1_556
Na2 O5 2.341707 1_555
Na2 O7 2.571165 1_545
Na2 O4 2.571169 1_546
Na3 O0 2.370488 1_555
Na3 O6 2.396734 1_545
Na3 O5 2.396734 1_455
Na3 O1 2.522765 1_546
Na3 O2 2.522765 1_456
Mg0 O7 1.961619 1_554
Mg0 O4 1.961624 1_555
Mg0 O1 1.974335 1_555
Mg0 O2 1.974335 1_555
O0 W0 1.850712 1_555
O1 W0 1.959257 1_555
O2 W0 1.959257 1_555
O3 W0 1.850706 1_555
O4 W1 1.926052 1_555
O5 W1 1.871544 1_555
O6 W1 1.871544 1_555
O7 W1 1.926057 1_555
