# generated using pymatgen
data_Na9Ca5Ta7(PO4)18
_symmetry_space_group_name_H-M   'P 1'
_cell_length_a   8.98722134
_cell_length_b   8.97510394
_cell_length_c   22.96177239
_cell_angle_alpha   89.99703163
_cell_angle_beta   90.02643952
_cell_angle_gamma   119.85295356
_symmetry_Int_Tables_number   1
_chemical_formula_structural   Na9Ca5Ta7(PO4)18
_chemical_formula_sum   'Na9 Ca5 Ta7 P18 O72'
_cell_volume   1606.35864200
_cell_formula_units_Z   1
loop_
 _symmetry_equiv_pos_site_id
 _symmetry_equiv_pos_as_xyz
  1  'x, y, z'
loop_
 _atom_site_type_symbol
 _atom_site_label
 _atom_site_symmetry_multiplicity
 _atom_site_fract_x
 _atom_site_fract_y
 _atom_site_fract_z
 _atom_site_occupancy
  Na  Na0  1  0.98274363  0.63549102  0.24502102  1
  Na  Na1  1  0.65084168  0.68093813  0.07842508  1
  Na  Na2  1  0.31818324  0.30322010  0.91227351  1
  Na  Na3  1  0.00022211  0.99954130  0.49713621  1
  Na  Na4  1  0.99665617  0.99517348  0.99005075  1
  Na  Na5  1  0.67835500  0.33507962  0.82137818  1
  Na  Na6  1  0.65163245  0.31925001  0.32481505  1
  Na  Na7  1  0.33005421  0.66749281  0.15558907  1
  Na  Na8  1  0.33370281  0.66655704  0.67273519  1
  Ca  Ca0  1  0.99922502  0.00195746  0.36089669  1
  Ca  Ca1  1  0.99238133  0.99121363  0.85141749  1
  Ca  Ca2  1  0.66557244  0.33319728  0.68021251  1
  Ca  Ca3  1  0.65957703  0.32256278  0.18600940  1
  Ca  Ca4  1  0.32592816  0.67103264  0.01855056  1
  Ta  Ta0  1  0.99973847  0.00006270  0.65153453  1
  Ta  Ta1  1  0.00528387  0.00786474  0.14726303  1
  Ta  Ta2  1  0.67087095  0.33023527  0.98045530  1
  Ta  Ta3  1  0.66752869  0.33411383  0.48113590  1
  Ta  Ta4  1  0.33272350  0.66672981  0.52023795  1
  Ta  Ta5  1  0.33858362  0.66672900  0.31185197  1
  Ta  Ta6  1  0.33293876  0.66934649  0.81441561  1
  P  P0  1  0.28674468  0.99259999  0.25342029  1
  P  P1  1  0.70816836  0.71658908  0.25123504  1
  P  P2  1  0.00967274  0.29642514  0.25285952  1
  P  P3  1  0.29266527  0.30171220  0.75312867  1
  P  P4  1  0.00892463  0.70557509  0.75074195  1
  P  P5  1  0.69749915  0.99124358  0.75115409  1
  P  P6  1  0.96270147  0.32934665  0.58155484  1
  P  P7  1  0.36655491  0.03820612  0.58137997  1
  P  P8  1  0.67095421  0.63430747  0.58148898  1
  P  P9  1  0.95700619  0.63288536  0.08720099  1
  P  P10  1  0.67805573  0.04222136  0.08420103  1
  P  P11  1  0.36963262  0.32425013  0.08305241  1
  P  P12  1  0.62358378  0.65745536  0.92033062  1
  P  P13  1  0.03639629  0.37923716  0.91706901  1
  P  P14  1  0.34480700  0.96898993  0.91718454  1
  P  P15  1  0.61026232  0.95671642  0.41907581  1
  P  P16  1  0.34665735  0.38911914  0.41916242  1
  P  P17  1  0.04280913  0.65332160  0.41815784  1
  O  O0  1  0.20078462  0.00715333  0.30706760  1
  O  O1  1  0.81678333  0.79800749  0.30378186  1
  O  O2  1  0.98437399  0.19289122  0.30647792  1
  O  O3  1  0.21702862  0.20800743  0.80923362  1
  O  O4  1  0.99028745  0.78679761  0.80484119  1
  O  O5  1  0.79949005  0.01274359  0.80498706  1
  O  O6  1  0.80253597  0.96969801  0.69500045  1
  O  O7  1  0.16402244  0.19297055  0.69798951  1
  O  O8  1  0.02882024  0.83125714  0.69474536  1
  O  O9  1  0.79627922  0.83042897  0.19416478  1
  O  O10  1  0.03079399  0.20122930  0.19678296  1
  O  O11  1  0.16669458  0.96614071  0.19736230  1
  O  O12  1  0.90808205  0.38069168  0.63548257  1
  O  O13  1  0.47146140  0.09176224  0.63548515  1
  O  O14  1  0.61994781  0.52880097  0.63552983  1
  O  O15  1  0.87977051  0.54154073  0.14377492  1
  O  O16  1  0.65212516  0.11738603  0.13863393  1
  O  O17  1  0.47880602  0.35510544  0.13573472  1
  O  O18  1  0.46161007  0.29900882  0.02672295  1
  O  O19  1  0.83133823  0.52994497  0.03327054  1
  O  O20  1  0.69643522  0.16076867  0.02921645  1
  O  O21  1  0.46916672  0.16355293  0.52842865  1
  O  O22  1  0.69436893  0.53174684  0.52845878  1
  O  O23  1  0.83729223  0.30535493  0.52843913  1
  O  O24  1  0.54601096  0.67139030  0.97682580  1
  O  O25  1  0.14339484  0.45450587  0.97037861  1
  O  O26  1  0.31831094  0.86848648  0.97151306  1
  O  O27  1  0.50520547  0.84592178  0.47109007  1
  O  O28  1  0.34118637  0.49420938  0.47127602  1
  O  O29  1  0.15539652  0.65879778  0.46990432  1
  O  O30  1  0.12974929  0.63233829  0.36143577  1
  O  O31  1  0.49962027  0.86581911  0.36302769  1
  O  O32  1  0.36691242  0.50042188  0.36322108  1
  O  O33  1  0.13305995  0.50042579  0.86190506  1
  O  O34  1  0.36311839  0.86872916  0.86215716  1
  O  O35  1  0.49712141  0.63321109  0.86641879  1
  O  O36  1  0.02443369  0.81010629  0.42074503  1
  O  O37  1  0.78409661  0.97300409  0.42075972  1
  O  O38  1  0.19012232  0.21500719  0.42063823  1
  O  O39  1  0.00879814  0.20007295  0.90887362  1
  O  O40  1  0.20614655  0.01662708  0.91005241  1
  O  O41  1  0.80403200  0.80176498  0.91341157  1
  O  O42  1  0.97835238  0.16464186  0.58721803  1
  O  O43  1  0.18692230  0.02364567  0.58684090  1
  O  O44  1  0.83563308  0.81370690  0.58697763  1
  O  O45  1  0.95561534  0.81129918  0.08957249  1
  O  O46  1  0.85462029  0.04001290  0.08957724  1
  O  O47  1  0.19074532  0.15246528  0.09121192  1
  O  O48  1  0.66343323  0.13595212  0.74062246  1
  O  O49  1  0.46971496  0.33173547  0.74173367  1
  O  O50  1  0.86404445  0.52704800  0.74076480  1
  O  O51  1  0.67744390  0.53537731  0.24420763  1
  O  O52  1  0.87290885  0.34622235  0.24505060  1
  O  O53  1  0.46875127  0.13370047  0.24723015  1
  O  O54  1  0.62304289  0.47796612  0.92325161  1
  O  O55  1  0.85797075  0.37351924  0.92429526  1
  O  O56  1  0.52167919  0.14772840  0.92304356  1
  O  O57  1  0.61844435  0.13537804  0.42608843  1
  O  O58  1  0.51704972  0.38096206  0.42606283  1
  O  O59  1  0.86442531  0.48339677  0.42659688  1
  O  O60  1  0.34084668  0.47566223  0.07592542  1
  O  O61  1  0.13721534  0.66859094  0.08040745  1
  O  O62  1  0.53954793  0.85702852  0.07712141  1
  O  O63  1  0.33320723  0.85291904  0.56523204  1
  O  O64  1  0.51887608  0.66701069  0.56533792  1
  O  O65  1  0.14710742  0.48107269  0.56531434  1
  O  O66  1  0.28692513  0.81196704  0.25730898  1
  O  O67  1  0.52627149  0.70661321  0.25854870  1
  O  O68  1  0.18631107  0.47751173  0.25813198  1
  O  O69  1  0.29346318  0.47914982  0.75603762  1
  O  O70  1  0.18666324  0.70693974  0.75511400  1
  O  O71  1  0.52191364  0.81365625  0.75612478  1
loop_
_geom_bond_atom_site_label_1
_geom_bond_atom_site_label_2
_geom_bond_distance
_geom_bond_site_symmetry_2
Na0 O52 2.272306 1_555
Na0 O66 2.397985 1_655
Na0 O51 2.425213 1_555
Na0 O15 2.488663 1_555
Na0 O11 2.802582 1_655
Na0 O68 2.833732 1_655
Na0 O1 2.888003 1_555
Na0 O30 2.987583 1_655
Na1 O62 2.252290 1_555
Na1 O45 2.397049 1_555
Na1 O60 2.459522 1_555
Na1 O24 2.501000 1_554
Na1 O19 2.780859 1_555
Na1 O46 2.815920 1_565
Na1 O17 2.859077 1_555
Na1 O9 2.970294 1_555
Na2 O40 2.248157 1_555
Na2 O54 2.398226 1_555
Na2 O39 2.455921 1_555
Na2 O3 2.525743 1_555
Na2 O35 2.779570 1_555
Na2 O56 2.809616 1_555
Na2 O25 2.866510 1_555
Na2 O18 2.935051 1_556
Na3 O36 2.526614 1_555
Na3 O37 2.538003 1_455
Na3 O38 2.540572 1_565
Na3 O43 2.596221 1_565
Na3 O44 2.602268 1_455
Na3 O42 2.608338 1_465
Na4 O41 2.472395 1_555
Na4 O40 2.568703 1_665
Na4 O39 2.582294 1_665
Na4 O45 2.734231 1_556
Na4 O46 2.743768 1_566
Na4 O47 2.824225 1_666
Na5 O50 2.513927 1_555
Na5 O48 2.532183 1_555
Na5 O49 2.608088 1_555
Na5 O55 2.784145 1_555
Na5 O56 2.811601 1_555
Na5 O54 2.828354 1_555
Na6 O53 2.433325 1_555
Na6 O51 2.606596 1_555
Na6 O52 2.625248 1_555
Na6 O57 2.780310 1_555
Na6 O58 2.800754 1_555
Na6 O59 2.912229 1_555
Na7 O61 2.449091 1_555
Na7 O60 2.546849 1_555
Na7 O62 2.549347 1_555
Na7 O66 2.790782 1_555
Na7 O68 2.815970 1_555
Na7 O67 2.863912 1_555
Na8 O70 2.436161 1_555
Na8 O69 2.452209 1_555
Na8 O71 2.458568 1_555
Na8 O64 2.974543 1_555
Na8 O65 2.980753 1_555
Na8 O63 2.982945 1_555
Ca0 O0 2.174684 1_655
Ca0 O2 2.177870 1_555
Ca0 O1 2.183867 1_545
Ca0 O37 2.279746 1_545
Ca0 O38 2.283333 1_655
Ca0 O36 2.300552 1_645
Ca1 O4 2.115633 1_555
Ca1 O5 2.123898 1_565
Ca1 O3 2.211569 1_665
Ca1 O41 2.217964 1_555
Ca1 O39 2.236274 1_665
Ca1 O40 2.262068 1_665
Ca2 O14 2.240283 1_555
Ca2 O48 2.241496 1_555
Ca2 O13 2.242494 1_555
Ca2 O50 2.247271 1_555
Ca2 O12 2.250304 1_555
Ca2 O49 2.252413 1_555
Ca3 O16 2.110987 1_555
Ca3 O17 2.127908 1_555
Ca3 O15 2.202002 1_555
Ca3 O53 2.213237 1_555
Ca3 O52 2.269624 1_555
Ca3 O51 2.270359 1_555
Ca4 O26 2.105308 1_554
Ca4 O25 2.125078 1_554
Ca4 O24 2.196716 1_554
Ca4 O61 2.204428 1_555
Ca4 O60 2.249867 1_555
Ca4 O62 2.255761 1_555
O0 P0 1.494209 1_545
O1 P1 1.493826 1_555
O2 P2 1.490219 1_655
O3 P3 1.503517 1_555
O4 P4 1.491445 1_655
O5 P5 1.492734 1_545
O6 P5 1.665505 1_555
O6 Ta0 1.931889 1_565
O7 P3 1.663613 1_555
O7 Ta0 1.941444 1_455
O8 P4 1.660384 1_555
O8 Ta0 1.934414 1_465
O9 P1 1.607347 1_555
O9 Ta1 2.061030 1_665
O10 P2 1.608035 1_555
O10 Ta1 1.990271 1_555
O11 P0 1.618947 1_555
O11 Ta1 2.026610 1_565
O12 P6 1.487438 1_555
O13 P7 1.487010 1_555
O14 P8 1.488233 1_555
O15 P9 1.508516 1_555
O16 P10 1.492806 1_555
O17 P11 1.493698 1_555
O18 P11 1.610907 1_555
O18 Ta2 2.054562 1_554
O19 P9 1.619458 1_555
O19 Ta2 2.046571 1_554
O20 P10 1.605749 1_555
O20 Ta2 1.991795 1_554
O21 P7 1.600754 1_555
O21 Ta3 1.996359 1_555
O22 P8 1.602341 1_555
O22 Ta3 1.989774 1_555
O23 P6 1.600413 1_555
O23 Ta3 1.991141 1_555
O24 P12 1.507362 1_555
O25 P13 1.493896 1_555
O26 P14 1.487575 1_555
O27 P15 1.540435 1_555
O27 Ta4 1.944862 1_555
O28 P16 1.539571 1_555
O28 Ta4 1.945441 1_555
O29 P17 1.545133 1_555
O29 Ta4 1.940616 1_555
O30 P17 1.577905 1_555
O30 Ta5 2.083090 1_555
O31 P15 1.581742 1_555
O31 Ta5 2.022958 1_555
O32 P16 1.581159 1_555
O32 Ta5 2.015414 1_555
O33 P13 1.613181 1_555
O33 Ta6 2.001197 1_555
O34 P14 1.606565 1_555
O34 Ta6 1.998563 1_555
O35 P12 1.619886 1_555
O35 Ta6 2.045241 1_555
O36 P17 1.497420 1_555
O37 P15 1.495388 1_555
O38 P16 1.494540 1_555
O39 P13 1.511812 1_555
O40 P14 1.514198 1_545
O41 P12 1.497290 1_555
O42 P6 1.558480 1_555
O42 Ta0 2.163784 1_555
O43 P7 1.558600 1_555
O43 Ta0 2.174684 1_455
O44 P8 1.557647 1_555
O44 Ta0 2.170811 1_565
O45 P9 1.608466 1_555
O45 Ta1 2.069326 1_665
O46 P10 1.601492 1_555
O46 Ta1 2.014554 1_655
O47 P11 1.590425 1_555
O47 Ta1 1.991780 1_555
O48 P5 1.494920 1_545
O49 P3 1.498819 1_555
O50 P4 1.495985 1_655
O51 P1 1.516685 1_555
O52 P2 1.513057 1_655
O53 P0 1.495830 1_545
O54 P12 1.609915 1_555
O54 Ta2 2.057849 1_555
O55 P13 1.587405 1_655
O55 Ta2 1.998226 1_555
O56 P14 1.606081 1_545
O56 Ta2 2.007692 1_555
O57 P15 1.576451 1_545
O57 Ta3 2.046983 1_555
O58 P16 1.576990 1_555
O58 Ta3 2.041903 1_555
O59 P17 1.581066 1_655
O59 Ta3 2.033782 1_555
O60 P11 1.513395 1_555
O61 P9 1.494520 1_455
O62 P10 1.509518 1_565
O63 P7 1.580050 1_565
O63 Ta4 1.962859 1_555
O64 P8 1.578169 1_555
O64 Ta4 1.966096 1_555
O65 P6 1.579177 1_455
O65 Ta4 1.965895 1_555
O66 P0 1.624459 1_555
O66 Ta5 2.021144 1_555
O67 P1 1.600985 1_555
O67 Ta5 1.967782 1_555
O68 P2 1.614776 1_555
O68 Ta5 1.990809 1_555
O69 P3 1.590370 1_555
O69 Ta6 2.057559 1_555
O70 P4 1.594432 1_555
O70 Ta6 2.033733 1_555
O71 P5 1.593667 1_555
O71 Ta6 2.040938 1_555
