# generated using pymatgen
data_Na2Ti3Zn5(SO4)12
_symmetry_space_group_name_H-M   'P 1'
_cell_length_a   17.29626197
_cell_length_b   8.64591389
_cell_length_c   22.40960929
_cell_angle_alpha   90.08228489
_cell_angle_beta   89.94556431
_cell_angle_gamma   120.03214853
_symmetry_Int_Tables_number   1
_chemical_formula_structural   Na2Ti3Zn5(SO4)12
_chemical_formula_sum   'Na6 Ti9 Zn15 S36 O144'
_cell_volume   2901.26121554
_cell_formula_units_Z   3
loop_
 _symmetry_equiv_pos_site_id
 _symmetry_equiv_pos_as_xyz
  1  'x, y, z'
loop_
 _atom_site_type_symbol
 _atom_site_label
 _atom_site_symmetry_multiplicity
 _atom_site_fract_x
 _atom_site_fract_y
 _atom_site_fract_z
 _atom_site_occupancy
  Na  Na0  1  0.00085637  0.00093777  0.50048802  1
  Na  Na1  1  0.50214720  0.00327583  0.99907603  1
  Na  Na2  1  0.33507275  0.33566308  0.83130136  1
  Na  Na3  1  0.83124116  0.33081176  0.83242329  1
  Na  Na4  1  0.33170687  0.33285895  0.33878400  1
  Na  Na5  1  0.83504866  0.33302752  0.33362179  1
  Ti  Ti0  1  0.50200745  0.99904162  0.35656457  1
  Ti  Ti1  1  0.99908189  0.99914526  0.85157922  1
  Ti  Ti2  1  0.49962587  0.99990663  0.64945931  1
  Ti  Ti3  1  0.99593244  0.99837917  0.14823808  1
  Ti  Ti4  1  0.33563214  0.33544040  0.18631543  1
  Ti  Ti5  1  0.16550118  0.66744905  0.01890400  1
  Ti  Ti6  1  0.66753018  0.66546304  0.01890856  1
  Ti  Ti7  1  0.16537814  0.66451426  0.52187449  1
  Ti  Ti8  1  0.66829633  0.66966233  0.52267390  1
  Zn  Zn0  1  0.00120002  0.00200984  0.35384454  1
  Zn  Zn1  1  0.50081719  0.00038573  0.85197139  1
  Zn  Zn2  1  0.00070178  0.00045878  0.64977882  1
  Zn  Zn3  1  0.50294244  0.00332675  0.14987058  1
  Zn  Zn4  1  0.33145387  0.33101646  0.68273966  1
  Zn  Zn5  1  0.83527788  0.33596767  0.68418150  1
  Zn  Zn6  1  0.83104151  0.33207091  0.18306755  1
  Zn  Zn7  1  0.33227749  0.33252273  0.98183088  1
  Zn  Zn8  1  0.83434695  0.33419594  0.98369327  1
  Zn  Zn9  1  0.33401691  0.33518480  0.48519751  1
  Zn  Zn10  1  0.83294008  0.33154984  0.48391934  1
  Zn  Zn11  1  0.16358194  0.66073518  0.31261747  1
  Zn  Zn12  1  0.67029809  0.67089273  0.31228654  1
  Zn  Zn13  1  0.16985861  0.67073709  0.81086063  1
  Zn  Zn14  1  0.66355325  0.66310899  0.81005263  1
  S  S0  1  0.14571993  0.00108417  0.24869747  1
  S  S1  1  0.64518605  0.00018775  0.25093306  1
  S  S2  1  0.35499213  0.71024789  0.24957088  1
  S  S3  1  0.85530282  0.70733903  0.25113752  1
  S  S4  1  0.99833493  0.28956875  0.25078718  1
  S  S5  1  0.50005404  0.29006089  0.24995835  1
  S  S6  1  0.14558249  0.29070294  0.75046061  1
  S  S7  1  0.64657666  0.28994384  0.75054247  1
  S  S8  1  0.00007416  0.70870875  0.75018485  1
  S  S9  1  0.49809252  0.70692794  0.75066820  1
  S  S10  1  0.35520106  0.00338462  0.75088815  1
  S  S11  1  0.85429564  0.99999831  0.75008148  1
  S  S12  1  0.48043120  0.33216333  0.58296756  1
  S  S13  1  0.97997807  0.33166483  0.58239236  1
  S  S14  1  0.18583334  0.03924319  0.58154526  1
  S  S15  1  0.68578365  0.04017199  0.58373616  1
  S  S16  1  0.33380620  0.62859096  0.58363765  1
  S  S17  1  0.83431057  0.62805721  0.58175123  1
  S  S18  1  0.47939905  0.62541205  0.08213917  1
  S  S19  1  0.98054016  0.62847146  0.08336729  1
  S  S20  1  0.33337807  0.04170108  0.08201703  1
  S  S21  1  0.83252019  0.03878052  0.08347936  1
  S  S22  1  0.18728368  0.33305735  0.08388276  1
  S  S23  1  0.68580895  0.33266700  0.08155079  1
  S  S24  1  0.31168510  0.66639204  0.91703674  1
  S  S25  1  0.81184186  0.66581108  0.91481597  1
  S  S26  1  0.02145495  0.37647894  0.91557583  1
  S  S27  1  0.52095069  0.37619504  0.91629410  1
  S  S28  1  0.16655590  0.95709990  0.91504264  1
  S  S29  1  0.66728914  0.95748282  0.91693466  1
  S  S30  1  0.31170617  0.95765173  0.41456408  1
  S  S31  1  0.81157357  0.95764779  0.41728915  1
  S  S32  1  0.16769431  0.37669492  0.41703107  1
  S  S33  1  0.66740148  0.37826655  0.41510482  1
  S  S34  1  0.02105637  0.66570139  0.41648897  1
  S  S35  1  0.52125361  0.66414313  0.41564107  1
  O  O0  1  0.11261727  0.04332697  0.30261124  1
  O  O1  1  0.59571459  0.02438044  0.30481525  1
  O  O2  1  0.41304949  0.79048020  0.30342894  1
  O  O3  1  0.91053319  0.78842368  0.30411502  1
  O  O4  1  0.48127662  0.17202242  0.30329316  1
  O  O5  1  0.98419015  0.18036786  0.30401303  1
  O  O6  1  0.09731726  0.16990094  0.80516915  1
  O  O7  1  0.60753903  0.18166369  0.80440669  1
  O  O8  1  0.48310404  0.78520012  0.80462254  1
  O  O9  1  0.98751762  0.80484556  0.80505280  1
  O  O10  1  0.40930059  0.03302520  0.80469261  1
  O  O11  1  0.91478614  0.02482312  0.80502202  1
  O  O12  1  0.40373832  0.98464234  0.69658465  1
  O  O13  1  0.89494798  0.97649429  0.69657941  1
  O  O14  1  0.09362014  0.21016133  0.69675153  1
  O  O15  1  0.58847278  0.19237425  0.69641006  1
  O  O16  1  0.01153542  0.81271127  0.69661146  1
  O  O17  1  0.50760933  0.82311700  0.69657666  1
  O  O18  1  0.39487518  0.81397404  0.19589212  1
  O  O19  1  0.90391528  0.82364593  0.19620324  1
  O  O20  1  0.00778778  0.19179319  0.19606053  1
  O  O21  1  0.51149512  0.21160917  0.19575855  1
  O  O22  1  0.08932281  0.98048921  0.19565993  1
  O  O23  1  0.59324116  0.97539009  0.19699383  1
  O  O24  1  0.44492236  0.37414805  0.63553250  1
  O  O25  1  0.94405130  0.36855750  0.63606648  1
  O  O26  1  0.23979420  0.11072517  0.63534132  1
  O  O27  1  0.74262804  0.11155582  0.63609982  1
  O  O28  1  0.31290735  0.51516825  0.63617062  1
  O  O29  1  0.81553001  0.51945932  0.63520432  1
  O  O30  1  0.43483234  0.50834950  0.13676583  1
  O  O31  1  0.94507583  0.51629301  0.13609222  1
  O  O32  1  0.31937158  0.13002038  0.13634651  1
  O  O33  1  0.81317104  0.11083638  0.13660999  1
  O  O34  1  0.24754020  0.36617943  0.13693128  1
  O  O35  1  0.73909714  0.36846304  0.13576387  1
  O  O36  1  0.22304103  0.29492124  0.03081443  1
  O  O37  1  0.72612301  0.30175628  0.02869177  1
  O  O38  1  0.42391627  0.54475264  0.02965944  1
  O  O39  1  0.92548047  0.55776779  0.03012591  1
  O  O40  1  0.34820170  0.15078731  0.02908784  1
  O  O41  1  0.85352928  0.15067557  0.03071340  1
  O  O42  1  0.22570414  0.14960204  0.52835146  1
  O  O43  1  0.72144005  0.14836415  0.53016243  1
  O  O44  1  0.35412445  0.55789685  0.53041439  1
  O  O45  1  0.84803500  0.54810570  0.52811650  1
  O  O46  1  0.42551894  0.29358821  0.52955572  1
  O  O47  1  0.92528427  0.30193465  0.52914260  1
  O  O48  1  0.26282248  0.68537021  0.97196652  1
  O  O49  1  0.76887186  0.69315806  0.96993291  1
  O  O50  1  0.07866903  0.46459361  0.97105699  1
  O  O51  1  0.57845848  0.47247607  0.97100835  1
  O  O52  1  0.15328384  0.84199900  0.97009090  1
  O  O53  1  0.65795104  0.84275985  0.97185928  1
  O  O54  1  0.27179432  0.84683188  0.46852588  1
  O  O55  1  0.76269269  0.84143900  0.47106852  1
  O  O56  1  0.15859145  0.47199589  0.47091108  1
  O  O57  1  0.65161774  0.45986918  0.46874993  1
  O  O58  1  0.07865543  0.68518479  0.47019233  1
  O  O59  1  0.57665783  0.69521009  0.46960802  1
  O  O60  1  0.06082607  0.64166808  0.36207084  1
  O  O61  1  0.56068055  0.63590563  0.36235768  1
  O  O62  1  0.25750001  0.87896466  0.36121431  1
  O  O63  1  0.75963463  0.87765169  0.36329206  1
  O  O64  1  0.17977252  0.48045601  0.36286525  1
  O  O65  1  0.68148778  0.48454607  0.36157620  1
  O  O66  1  0.06220979  0.48724409  0.86342176  1
  O  O67  1  0.56166561  0.48105303  0.86281893  1
  O  O68  1  0.18177653  0.87727335  0.86255946  1
  O  O69  1  0.67852093  0.87482522  0.86355775  1
  O  O70  1  0.25919559  0.64269557  0.86374061  1
  O  O71  1  0.75668159  0.63635939  0.86238721  1
  O  O72  1  0.01607485  0.83159722  0.41527320  1
  O  O73  1  0.51418437  0.83212275  0.40806033  1
  O  O74  1  0.40194597  0.96984837  0.40609202  1
  O  O75  1  0.89929629  0.96825499  0.41660475  1
  O  O76  1  0.08489761  0.20035902  0.41591595  1
  O  O77  1  0.58285127  0.19715160  0.40746166  1
  O  O78  1  0.01597598  0.19989122  0.90990929  1
  O  O79  1  0.51594190  0.20106972  0.91592062  1
  O  O80  1  0.08391260  0.96781992  0.90973749  1
  O  O81  1  0.58461050  0.96744101  0.91666358  1
  O  O82  1  0.39907423  0.83110624  0.91690654  1
  O  O83  1  0.90048960  0.83243960  0.90886080  1
  O  O84  1  0.49424178  0.17744532  0.59389775  1
  O  O85  1  0.99443840  0.17886978  0.58819783  1
  O  O86  1  0.09473619  0.00950745  0.58750581  1
  O  O87  1  0.59476929  0.01291180  0.59434898  1
  O  O88  1  0.41167997  0.81072458  0.59485052  1
  O  O89  1  0.91040206  0.81000802  0.58755542  1
  O  O90  1  0.49081352  0.80328435  0.09061680  1
  O  O91  1  0.99463891  0.81175126  0.09452890  1
  O  O92  1  0.40980020  0.01575039  0.09048290  1
  O  O93  1  0.91166396  0.01292208  0.09430131  1
  O  O94  1  0.09810052  0.17815355  0.09646209  1
  O  O95  1  0.59432233  0.17869462  0.08722785  1
  O  O96  1  0.34660269  0.16297082  0.74260240  1
  O  O97  1  0.84985491  0.16572389  0.74889418  1
  O  O98  1  0.23307142  0.30046160  0.74920967  1
  O  O99  1  0.73501037  0.30715723  0.74211333  1
  O  O100  1  0.41830536  0.52978454  0.74241598  1
  O  O101  1  0.91722426  0.53379670  0.74899395  1
  O  O102  1  0.34807966  0.52625775  0.24266982  1
  O  O103  1  0.84674037  0.53083729  0.24266733  1
  O  O104  1  0.41497278  0.30429577  0.24309130  1
  O  O105  1  0.91848016  0.30638313  0.24246672  1
  O  O106  1  0.23764293  0.16691062  0.23720420  1
  O  O107  1  0.73249768  0.16589779  0.24981397  1
  O  O108  1  0.31994007  0.50644225  0.92460054  1
  O  O109  1  0.82507427  0.51218512  0.92296616  1
  O  O110  1  0.43215359  0.35794293  0.92357968  1
  O  O111  1  0.93199387  0.35232544  0.92422384  1
  O  O112  1  0.24417479  0.13600953  0.92353159  1
  O  O113  1  0.74701730  0.13502843  0.92432115  1
  O  O114  1  0.32691214  0.13972481  0.42204186  1
  O  O115  1  0.82010471  0.13454869  0.42450842  1
  O  O116  1  0.24724602  0.35726265  0.42381616  1
  O  O117  1  0.74328333  0.34958193  0.42268201  1
  O  O118  1  0.43064286  0.51190375  0.42305137  1
  O  O119  1  0.93187272  0.50702729  0.42336211  1
  O  O120  1  0.17851933  0.49439494  0.07640114  1
  O  O121  1  0.67744120  0.49753579  0.07073089  1
  O  O122  1  0.07212727  0.65199041  0.07156580  1
  O  O123  1  0.56752533  0.63661499  0.07617756  1
  O  O124  1  0.25007399  0.86446550  0.07519363  1
  O  O125  1  0.75419181  0.85635900  0.07268769  1
  O  O126  1  0.17774394  0.85731658  0.57054911  1
  O  O127  1  0.67303323  0.85501585  0.57252699  1
  O  O128  1  0.25482712  0.65310858  0.57212028  1
  O  O129  1  0.75085899  0.64591858  0.57118142  1
  O  O130  1  0.07194907  0.49767573  0.57209272  1
  O  O131  1  0.57192400  0.49175532  0.57097629  1
  O  O132  1  0.15680104  0.84616923  0.25275282  1
  O  O133  1  0.65276013  0.84251238  0.26028994  1
  O  O134  1  0.26616332  0.68276985  0.25849494  1
  O  O135  1  0.76916694  0.69873707  0.25282303  1
  O  O136  1  0.08056835  0.46203795  0.25235913  1
  O  O137  1  0.57505377  0.46753909  0.25905532  1
  O  O138  1  0.15326645  0.46384744  0.75985565  1
  O  O139  1  0.65072324  0.46237866  0.75255389  1
  O  O140  1  0.07873988  0.69308428  0.75971941  1
  O  O141  1  0.58031845  0.69910028  0.75247600  1
  O  O142  1  0.26895372  0.83891503  0.75253965  1
  O  O143  1  0.76768039  0.84276241  0.75976048  1
loop_
_geom_bond_atom_site_label_1
_geom_bond_atom_site_label_2
_geom_bond_distance
_geom_bond_site_symmetry_2
Na0 O76 2.484568 1_555
Na0 O75 2.491393 1_445
Na0 O72 2.497269 1_545
Na0 O86 2.515935 1_555
Na0 O89 2.529428 1_445
Na0 O85 2.530641 1_455
Na1 O81 2.444752 1_545
Na1 O79 2.460456 1_555
Na1 O82 2.475243 1_545
Na1 O95 2.514246 1_556
Na1 O90 2.628040 1_546
Na1 O92 2.631418 1_556
Na2 O98 2.461007 1_555
Na2 O100 2.538228 1_555
Na2 O96 2.551239 1_555
Na2 O110 2.610477 1_555
Na2 O108 2.645195 1_555
Na2 O112 2.647809 1_555
Na3 O97 2.468994 1_555
Na3 O101 2.485718 1_555
Na3 O99 2.563680 1_555
Na3 O109 2.597167 1_555
Na3 O113 2.600884 1_555
Na3 O111 2.642877 1_555
Na4 O116 2.472201 1_555
Na4 O114 2.479182 1_555
Na4 O118 2.497367 1_555
Na4 O102 2.655288 1_555
Na4 O104 2.661269 1_555
Na4 O106 2.747447 1_555
Na5 O107 2.488862 1_555
Na5 O119 2.566702 1_555
Na5 O105 2.575674 1_555
Na5 O115 2.593244 1_555
Na5 O117 2.596819 1_555
Na5 O103 2.604488 1_555
O0 S0 1.458648 1_555
O0 Zn0 2.113623 1_555
O1 S1 1.552544 1_555
O1 Ti0 1.913513 1_545
O2 S2 1.499635 1_555
O2 Ti0 2.063244 1_555
O3 S3 1.463865 1_555
O3 Zn0 2.051821 1_665
O4 S5 1.498842 1_555
O4 Ti0 2.081630 1_545
O5 S4 1.464728 1_555
O5 Zn0 2.042366 1_655
O6 S6 1.555574 1_555
O6 Ti1 1.907448 1_445
O7 S7 1.469128 1_555
O7 Zn1 2.026104 1_555
O8 S9 1.469610 1_555
O8 Zn1 2.026203 1_565
O9 S8 1.557927 1_655
O9 Ti1 1.899524 1_555
O10 S10 1.468426 1_555
O10 Zn1 2.039338 1_555
O11 S11 1.559961 1_545
O11 Ti1 1.895033 1_545
O12 S10 1.531535 1_565
O12 Ti2 1.913445 1_555
O13 S11 1.453933 1_555
O13 Zn2 2.026393 1_665
O14 S6 1.454135 1_555
O14 Zn2 2.014750 1_555
O15 S7 1.531000 1_555
O15 Ti2 1.917285 1_545
O16 S8 1.453759 1_555
O16 Zn2 2.020206 1_565
O17 S9 1.530750 1_555
O17 Ti2 1.920018 1_555
O18 S2 1.452384 1_555
O18 Zn3 2.043462 1_565
O19 S3 1.545613 1_555
O19 Ti3 1.888222 1_555
O20 S4 1.542861 1_455
O20 Ti3 1.907611 1_445
O21 S5 1.451210 1_555
O21 Zn3 2.012591 1_555
O22 S0 1.491179 1_565
O22 Ti3 2.004070 1_455
O23 S1 1.456977 1_565
O23 Zn3 1.998573 1_565
O24 S12 1.455031 1_555
O24 Zn4 2.091538 1_555
O25 S13 1.459631 1_555
O25 Zn5 2.061055 1_555
O26 S14 1.459114 1_555
O26 Zn4 2.060127 1_555
O27 S15 1.455088 1_555
O27 Zn5 2.092499 1_555
O28 S16 1.458051 1_555
O28 Zn4 2.060003 1_555
O29 S17 1.455740 1_555
O29 Zn5 2.094338 1_555
O30 S18 1.529042 1_555
O30 Ti4 1.960974 1_555
O31 S19 1.455814 1_555
O31 Zn6 2.095618 1_555
O32 S20 1.518561 1_555
O32 Ti4 1.995555 1_555
O33 S21 1.457238 1_555
O33 Zn6 2.059422 1_555
O34 S22 1.511317 1_555
O34 Ti4 2.006563 1_555
O35 S23 1.461771 1_555
O35 Zn6 2.063196 1_555
O36 S22 1.451589 1_555
O36 Zn7 2.064620 1_554
O37 S23 1.464526 1_555
O37 Zn8 2.017706 1_554
O38 S18 1.456108 1_555
O38 Zn7 2.028392 1_554
O39 S19 1.456532 1_555
O39 Zn8 2.061854 1_554
O40 S20 1.456962 1_555
O40 Zn7 2.026025 1_554
O41 S21 1.454916 1_555
O41 Zn8 2.066497 1_554
O42 S14 1.466299 1_555
O42 Zn9 2.002883 1_555
O43 S15 1.456393 1_555
O43 Zn10 2.060366 1_555
O44 S16 1.460057 1_555
O44 Zn9 2.044552 1_555
O45 S17 1.462924 1_555
O45 Zn10 2.015090 1_555
O46 S12 1.459421 1_555
O46 Zn9 2.048411 1_555
O47 S13 1.463840 1_555
O47 Zn10 2.014169 1_555
O48 S24 1.546832 1_555
O48 Ti5 1.923515 1_556
O49 S25 1.518943 1_555
O49 Ti6 1.977700 1_556
O50 S26 1.533128 1_555
O50 Ti5 1.960197 1_556
O51 S27 1.535019 1_555
O51 Ti6 1.932534 1_556
O52 S28 1.529425 1_555
O52 Ti5 1.960393 1_556
O53 S29 1.538719 1_555
O53 Ti6 1.935994 1_556
O54 S30 1.482082 1_555
O54 Ti7 2.097352 1_555
O55 S31 1.525774 1_555
O55 Ti8 1.944990 1_555
O56 S32 1.512689 1_555
O56 Ti7 1.971769 1_555
O57 S33 1.485678 1_555
O57 Ti8 2.074645 1_555
O58 S34 1.517545 1_555
O58 Ti7 1.973696 1_555
O59 S35 1.482119 1_555
O59 Ti8 2.080857 1_555
O60 S34 1.464322 1_555
O60 Zn11 2.029194 1_555
O61 S35 1.454197 1_555
O61 Zn12 2.090006 1_555
O62 S30 1.460317 1_555
O62 Zn11 2.077085 1_555
O63 S31 1.458544 1_555
O63 Zn12 2.030337 1_555
O64 S32 1.461812 1_555
O64 Zn11 2.053874 1_555
O65 S33 1.456419 1_555
O65 Zn12 2.042283 1_555
O66 S26 1.451181 1_555
O66 Zn13 2.101302 1_555
O67 S27 1.454769 1_555
O67 Zn14 2.050916 1_555
O68 S28 1.451852 1_555
O68 Zn13 2.049267 1_555
O69 S29 1.454416 1_555
O69 Zn14 2.091720 1_555
O70 S24 1.451841 1_555
O70 Zn13 2.056690 1_555
O71 S25 1.453818 1_555
O71 Zn14 2.097806 1_555
O72 S34 1.479616 1_555
O72 Zn0 2.125550 1_565
O73 S35 1.526956 1_555
O73 Ti0 1.941210 1_555
O74 S30 1.522512 1_555
O74 Ti0 1.962333 1_555
O75 S31 1.473583 1_555
O75 Zn0 2.156710 1_665
O76 S32 1.479979 1_555
O76 Zn0 2.117417 1_555
O77 S33 1.525619 1_555
O77 Ti0 1.946798 1_545
O78 S26 1.486859 1_555
O78 Ti1 2.071958 1_445
O79 S27 1.472683 1_555
O79 Zn1 2.161465 1_555
O80 S28 1.482880 1_555
O80 Ti1 2.080194 1_455
O81 S29 1.475025 1_555
O81 Zn1 2.168350 1_565
O82 S24 1.469048 1_555
O82 Zn1 2.186222 1_565
O83 S25 1.494432 1_555
O83 Ti1 2.043055 1_555
O84 S12 1.492426 1_555
O84 Ti2 2.015924 1_545
O85 S13 1.468314 1_555
O85 Zn2 2.114050 1_655
O86 S14 1.469966 1_555
O86 Zn2 2.113654 1_555
O87 S15 1.489399 1_555
O87 Ti2 2.014268 1_545
O88 S16 1.494487 1_555
O88 Ti2 1.998531 1_555
O89 S17 1.466665 1_555
O89 Zn2 2.125643 1_665
O90 S18 1.461311 1_555
O90 Zn3 2.104589 1_565
O91 S19 1.498412 1_555
O91 Ti3 2.002773 1_555
O92 S20 1.459792 1_555
O92 Zn3 2.134425 1_555
O93 S21 1.513204 1_555
O93 Ti3 1.946379 1_545
O94 S22 1.478148 1_555
O94 Ti3 2.033918 1_445
O95 S23 1.477777 1_555
O95 Zn3 2.090642 1_555
O96 S10 1.471918 1_555
O96 Zn4 2.089628 1_555
O97 S11 1.473071 1_545
O97 Zn5 2.170584 1_555
O98 S6 1.473058 1_555
O98 Zn4 2.174983 1_555
O99 S7 1.472784 1_555
O99 Zn5 2.078298 1_555
O100 S9 1.472540 1_555
O100 Zn4 2.100363 1_555
O101 S8 1.473746 1_655
O101 Zn5 2.148047 1_555
O102 S2 1.541976 1_555
O102 Ti4 2.000505 1_555
O103 S3 1.469591 1_555
O103 Zn6 2.082760 1_555
O104 S5 1.544724 1_555
O104 Ti4 1.987134 1_555
O105 S4 1.471441 1_555
O105 Zn6 2.109339 1_555
O106 S0 1.538932 1_555
O106 Ti4 1.955834 1_555
O107 S1 1.472478 1_555
O107 Zn6 2.180992 1_555
O108 S24 1.469669 1_555
O108 Zn7 2.068503 1_555
O109 S25 1.467999 1_555
O109 Zn8 2.121160 1_555
O110 S27 1.472213 1_555
O110 Zn7 2.086394 1_555
O111 S26 1.466812 1_655
O111 Zn8 2.093903 1_555
O112 S28 1.467042 1_545
O112 Zn7 2.078823 1_555
O113 S29 1.471809 1_545
O113 Zn8 2.100169 1_555
O114 S30 1.469770 1_545
O114 Zn9 2.158613 1_555
O115 S31 1.469917 1_545
O115 Zn10 2.082901 1_555
O116 S32 1.475278 1_555
O116 Zn9 2.114804 1_555
O117 S33 1.462629 1_555
O117 Zn10 2.135167 1_555
O118 S35 1.466818 1_555
O118 Zn9 2.124340 1_555
O119 S34 1.472120 1_655
O119 Zn10 2.115267 1_555
O120 S22 1.486354 1_555
O120 Ti5 2.071922 1_555
O121 S23 1.522888 1_555
O121 Ti6 1.934002 1_555
O122 S19 1.515796 1_455
O122 Ti5 1.949263 1_555
O123 S18 1.484066 1_555
O123 Ti6 2.065435 1_555
O124 S20 1.495748 1_565
O124 Ti5 2.033643 1_555
O125 S21 1.497390 1_565
O125 Ti6 1.986112 1_555
O126 S14 1.527430 1_565
O126 Ti7 1.911182 1_555
O127 S15 1.523155 1_565
O127 Ti8 1.920051 1_555
O128 S16 1.506088 1_555
O128 Ti7 1.956410 1_555
O129 S17 1.545066 1_555
O129 Ti8 1.886816 1_555
O130 S13 1.535808 1_455
O130 Ti7 1.904337 1_555
O131 S12 1.514912 1_555
O131 Ti8 1.936761 1_555
O132 S0 1.447852 1_565
O132 Zn11 2.139764 1_555
O133 S1 1.448865 1_565
O133 Zn12 2.026728 1_555
O134 S2 1.446087 1_555
O134 Zn11 2.076924 1_555
O135 S3 1.454490 1_555
O135 Zn12 2.083861 1_555
O136 S4 1.457661 1_455
O136 Zn11 2.089096 1_555
O137 S5 1.444313 1_555
O137 Zn12 2.080032 1_555
O138 S6 1.450164 1_555
O138 Zn13 2.017263 1_555
O139 S7 1.456919 1_555
O139 Zn14 2.080892 1_555
O140 S8 1.449073 1_555
O140 Zn13 2.035549 1_555
O141 S9 1.457854 1_555
O141 Zn14 2.070586 1_555
O142 S10 1.457904 1_565
O142 Zn13 2.065591 1_555
O143 S11 1.449532 1_555
O143 Zn14 2.031618 1_555
