# generated using pymatgen
data_Yb3Sb5O12
_symmetry_space_group_name_H-M   'P 1'
_cell_length_a   9.19038364
_cell_length_b   9.19038364
_cell_length_c   9.19038364
_cell_angle_alpha   109.47122063
_cell_angle_beta   109.47122063
_cell_angle_gamma   109.47122063
_symmetry_Int_Tables_number   1
_chemical_formula_structural   Yb3Sb5O12
_chemical_formula_sum   'Yb6 Sb10 O24'
_cell_volume   597.55657809
_cell_formula_units_Z   2
loop_
 _symmetry_equiv_pos_site_id
 _symmetry_equiv_pos_as_xyz
  1  'x, y, z'
loop_
 _atom_site_type_symbol
 _atom_site_label
 _atom_site_symmetry_multiplicity
 _atom_site_fract_x
 _atom_site_fract_y
 _atom_site_fract_z
 _atom_site_occupancy
  Yb  Yb0  1  0.75000000  0.50000000  0.25000000  1
  Yb  Yb1  1  0.50000000  0.25000000  0.75000000  1
  Yb  Yb2  1  0.25000000  0.75000000  0.50000000  1
  Yb  Yb3  1  0.75000000  0.25000000  0.50000000  1
  Yb  Yb4  1  0.50000000  0.75000000  0.25000000  1
  Yb  Yb5  1  0.25000000  0.50000000  0.75000000  1
  Sb  Sb0  1  0.71984097  0.00000000  0.71984097  1
  Sb  Sb1  1  0.50000000  0.00000000  0.00000000  1
  Sb  Sb2  1  0.28015903  0.00000000  0.28015903  1
  Sb  Sb3  1  0.00000000  0.28015903  0.28015903  1
  Sb  Sb4  1  0.00000000  0.71984097  0.71984097  1
  Sb  Sb5  1  0.00000000  0.50000000  0.00000000  1
  Sb  Sb6  1  0.71984097  0.71984097  0.00000000  1
  Sb  Sb7  1  0.28015903  0.28015903  0.00000000  1
  Sb  Sb8  1  0.50000000  0.50000000  0.50000000  1
  Sb  Sb9  1  0.00000000  0.00000000  0.50000000  1
  O  O0  1  0.49000739  0.49000739  0.24291295  1
  O  O1  1  0.24291295  0.49000739  0.49000739  1
  O  O2  1  0.50999261  0.50999261  0.75708705  1
  O  O3  1  0.49000739  0.00000000  0.24709444  1
  O  O4  1  0.00000000  0.24709444  0.49000739  1
  O  O5  1  0.00000000  0.49000739  0.24709444  1
  O  O6  1  0.49000739  0.24709444  0.00000000  1
  O  O7  1  0.00000000  0.75290556  0.50999261  1
  O  O8  1  0.24291295  0.75290556  0.75290556  1
  O  O9  1  0.50999261  0.75290556  0.00000000  1
  O  O10  1  0.24709444  0.24709444  0.75708705  1
  O  O11  1  0.50999261  0.00000000  0.75290556  1
  O  O12  1  0.49000739  0.24291295  0.49000739  1
  O  O13  1  0.00000000  0.50999261  0.75290556  1
  O  O14  1  0.50999261  0.75708705  0.50999261  1
  O  O15  1  0.75290556  0.24291295  0.75290556  1
  O  O16  1  0.24709444  0.75708705  0.24709444  1
  O  O17  1  0.75290556  0.50999261  0.00000000  1
  O  O18  1  0.75708705  0.50999261  0.50999261  1
  O  O19  1  0.24709444  0.49000739  0.00000000  1
  O  O20  1  0.24709444  0.00000000  0.49000739  1
  O  O21  1  0.75290556  0.75290556  0.24291295  1
  O  O22  1  0.75708705  0.24709444  0.24709444  1
  O  O23  1  0.75290556  0.00000000  0.50999261  1
loop_
_geom_bond_atom_site_label_1
_geom_bond_atom_site_label_2
_geom_bond_distance
_geom_bond_site_symmetry_2
O0 Sb7 2.049997 1_555
O0 Sb8 2.303133 1_555
O0 Yb4 2.338382 1_555
O0 Yb0 2.338382 1_555
O1 Sb3 2.049997 1_555
O1 Sb8 2.303133 1_555
O1 Yb5 2.338382 1_555
O1 Yb2 2.338382 1_555
O2 Sb6 2.049997 1_556
O2 Sb8 2.303133 1_555
O2 Yb5 2.338382 1_555
O2 Yb1 2.338382 1_555
O3 Sb2 2.049997 1_555
O3 Sb1 2.303133 1_555
O3 Yb4 2.338382 1_545
O3 Yb3 2.338382 1_555
O4 Sb3 2.049997 1_555
O4 Sb9 2.303133 1_555
O4 Yb3 2.338382 1_455
O4 Yb5 2.338382 1_555
O5 Sb3 2.049997 1_555
O5 Sb5 2.303133 1_555
O5 Yb0 2.338382 1_455
O5 Yb2 2.338382 1_555
O6 Sb7 2.049997 1_555
O6 Sb1 2.303133 1_555
O6 Yb0 2.338382 1_555
O6 Yb1 2.338382 1_554
O7 Sb4 2.049997 1_555
O7 Sb9 2.303133 1_565
O7 Yb0 2.338382 1_455
O7 Yb2 2.338382 1_555
O8 Sb4 2.049997 1_555
O8 Sb1 2.303133 1_566
O8 Yb2 2.338382 1_555
O8 Yb5 2.338382 1_555
O9 Sb6 2.049997 1_555
O9 Sb1 2.303133 1_565
O9 Yb4 2.338382 1_555
O9 Yb5 2.338382 1_554
O10 Sb7 2.049997 1_556
O10 Sb9 2.303133 1_555
O10 Yb5 2.338382 1_555
O10 Yb1 2.338382 1_555
O11 Sb0 2.049997 1_555
O11 Sb1 2.303133 1_556
O11 Yb2 2.338382 1_545
O11 Yb1 2.338382 1_555
O12 Sb2 2.049997 1_555
O12 Sb8 2.303133 1_555
O12 Yb1 2.338382 1_555
O12 Yb3 2.338382 1_555
O13 Sb4 2.049997 1_555
O13 Sb5 2.303133 1_556
O13 Yb5 2.338382 1_555
O13 Yb3 2.338382 1_455
O14 Sb0 2.049997 1_565
O14 Sb8 2.303133 1_555
O14 Yb4 2.338382 1_555
O14 Yb2 2.338382 1_555
O15 Sb0 2.049997 1_555
O15 Sb5 2.303133 1_656
O15 Yb1 2.338382 1_555
O15 Yb3 2.338382 1_555
O16 Sb2 2.049997 1_565
O16 Sb5 2.303133 1_555
O16 Yb2 2.338382 1_555
O16 Yb4 2.338382 1_555
O17 Sb6 2.049997 1_555
O17 Sb5 2.303133 1_655
O17 Yb0 2.338382 1_555
O17 Yb1 2.338382 1_554
O18 Sb4 2.049997 1_655
O18 Sb8 2.303133 1_555
O18 Yb3 2.338382 1_555
O18 Yb0 2.338382 1_555
O19 Sb7 2.049997 1_555
O19 Sb5 2.303133 1_555
O19 Yb5 2.338382 1_554
O19 Yb4 2.338382 1_555
O20 Sb2 2.049997 1_555
O20 Sb9 2.303133 1_555
O20 Yb1 2.338382 1_555
O20 Yb2 2.338382 1_545
O21 Sb6 2.049997 1_555
O21 Sb9 2.303133 1_665
O21 Yb0 2.338382 1_555
O21 Yb4 2.338382 1_555
O22 Sb3 2.049997 1_655
O22 Sb1 2.303133 1_555
O22 Yb3 2.338382 1_555
O22 Yb0 2.338382 1_555
O23 Sb0 2.049997 1_555
O23 Sb9 2.303133 1_655
O23 Yb3 2.338382 1_555
O23 Yb4 2.338382 1_545
