# generated using pymatgen
data_Ba2Pr4Mg(CuO5)2
_symmetry_space_group_name_H-M   'P 1'
_cell_length_a   5.99352612
_cell_length_b   7.44933493
_cell_length_c   7.44933493
_cell_angle_alpha   99.66645202
_cell_angle_beta   90.00000000
_cell_angle_gamma   90.00000000
_symmetry_Int_Tables_number   1
_chemical_formula_structural   Ba2Pr4Mg(CuO5)2
_chemical_formula_sum   'Ba2 Pr4 Mg1 Cu2 O10'
_cell_volume   327.87407603
_cell_formula_units_Z   1
loop_
 _symmetry_equiv_pos_site_id
 _symmetry_equiv_pos_as_xyz
  1  'x, y, z'
loop_
 _atom_site_type_symbol
 _atom_site_label
 _atom_site_symmetry_multiplicity
 _atom_site_fract_x
 _atom_site_fract_y
 _atom_site_fract_z
 _atom_site_occupancy
  Ba  Ba0  1  0.00000000  0.50000000  0.50000000  1
  Ba  Ba1  1  0.00000000  -0.00000000  -0.00000000  1
  Pr  Pr0  1  0.50000000  0.82494790  0.32494790  1
  Pr  Pr1  1  0.50000000  0.73383976  0.76616024  1
  Pr  Pr2  1  0.50000000  0.26616024  0.23383976  1
  Pr  Pr3  1  0.50000000  0.17505210  0.67505210  1
  Mg  Mg0  1  0.50000000  0.50000000  -0.00000000  1
  Cu  Cu0  1  0.00000000  0.50000000  -0.00000000  1
  Cu  Cu1  1  0.00000000  -0.00000000  0.50000000  1
  O  O0  1  0.26064706  0.64371891  0.14371891  1
  O  O1  1  0.26064706  0.35628109  0.85628109  1
  O  O2  1  0.24734934  0.12785981  0.37214019  1
  O  O3  1  0.24734934  0.87214019  0.62785981  1
  O  O4  1  0.73935294  0.64371891  0.14371891  1
  O  O5  1  0.75265066  0.87214019  0.62785981  1
  O  O6  1  0.75265066  0.12785981  0.37214019  1
  O  O7  1  0.73935294  0.35628109  0.85628109  1
  O  O8  1  0.50000000  -0.00000000  -0.00000000  1
  O  O9  1  0.50000000  0.50000000  0.50000000  1
loop_
_geom_bond_atom_site_label_1
_geom_bond_atom_site_label_2
_geom_bond_distance
_geom_bond_site_symmetry_2
Ba0 O9 2.996763 1_555
Ba0 O9 2.996763 1_455
Ba0 O6 3.146958 1_455
Ba0 O3 3.146958 1_555
Ba0 O5 3.146958 1_455
Ba0 O2 3.146958 1_555
Ba0 O4 3.403661 1_455
Ba0 O0 3.403661 1_555
Ba0 O7 3.403661 1_455
Ba0 O1 3.403661 1_555
Ba1 O8 2.996763 1_555
Ba1 O8 2.996763 1_455
Ba1 O6 3.146958 1_455
Ba1 O5 3.146958 1_444
Ba1 O3 3.146958 1_544
Ba1 O2 3.146958 1_555
Ba1 O4 3.403661 1_445
Ba1 O0 3.403661 1_545
Ba1 O7 3.403661 1_454
Ba1 O1 3.403661 1_554
Mg0 O4 1.991350 1_555
Mg0 O7 1.991350 1_554
Mg0 O0 1.991350 1_555
Mg0 O1 1.991350 1_554
Cu0 O0 2.085172 1_555
Cu0 O7 2.085172 1_454
Cu0 O1 2.085172 1_554
Cu0 O4 2.085172 1_455
Cu1 O2 2.077703 1_555
Cu1 O5 2.077703 1_445
Cu1 O6 2.077703 1_455
Cu1 O3 2.077703 1_545
O0 Pr0 2.256348 1_555
O1 Pr3 2.256348 1_555
O2 Pr2 2.184552 1_555
O2 Pr3 2.691088 1_555
O2 Pr0 2.691088 1_545
O3 Pr1 2.184552 1_555
O3 Pr0 2.691088 1_555
O3 Pr3 2.691088 1_565
O4 Pr0 2.256348 1_555
O5 Pr1 2.184552 1_555
O5 Pr0 2.691088 1_555
O5 Pr3 2.691088 1_565
O6 Pr2 2.184552 1_555
O6 Pr3 2.691088 1_555
O6 Pr0 2.691088 1_545
O7 Pr3 2.256348 1_555
O8 Pr2 2.409500 1_555
O8 Pr1 2.409500 1_544
O8 Pr3 2.935993 1_554
O8 Pr0 2.935993 1_545
O9 Pr1 2.409500 1_555
O9 Pr2 2.409500 1_555
O9 Pr0 2.935993 1_555
O9 Pr3 2.935993 1_555
