# generated using pymatgen
data_Na7Zr2Sc2Si3(PO8)3
_symmetry_space_group_name_H-M   'P 1'
_cell_length_a   9.17717949
_cell_length_b   9.14792940
_cell_length_c   22.89081782
_cell_angle_alpha   89.98064396
_cell_angle_beta   90.04576001
_cell_angle_gamma   120.00241553
_symmetry_Int_Tables_number   1
_chemical_formula_structural   Na7Zr2Sc2Si3(PO8)3
_chemical_formula_sum   'Na21 Zr6 Sc6 Si9 P9 O72'
_cell_volume   1664.22966890
_cell_formula_units_Z   3
loop_
 _symmetry_equiv_pos_site_id
 _symmetry_equiv_pos_as_xyz
  1  'x, y, z'
loop_
 _atom_site_type_symbol
 _atom_site_label
 _atom_site_symmetry_multiplicity
 _atom_site_fract_x
 _atom_site_fract_y
 _atom_site_fract_z
 _atom_site_occupancy
  Na  Na0  1  0.63464722  0.00359493  0.25172321  1
  Na  Na1  1  0.36541434  0.36888436  0.24831735  1
  Na  Na2  1  0.99991682  0.62619225  0.24991652  1
  Na  Na3  1  0.63328980  0.63535051  0.74977196  1
  Na  Na4  1  0.99479890  0.36402417  0.74940740  1
  Na  Na5  1  0.37188080  0.00097060  0.74860934  1
  Na  Na6  1  0.03303217  0.69674318  0.58320199  1
  Na  Na7  1  0.66368136  0.97077024  0.58312724  1
  Na  Na8  1  0.66641194  0.69142585  0.08249365  1
  Na  Na9  1  0.03093591  0.33585738  0.08506012  1
  Na  Na10  1  0.96152397  0.66505667  0.91828504  1
  Na  Na11  1  0.70015830  0.03151166  0.91643648  1
  Na  Na12  1  0.33846648  0.30279519  0.91770248  1
  Na  Na13  1  0.96672828  0.30386582  0.41599313  1
  Na  Na14  1  0.33537786  0.02843621  0.41776936  1
  Na  Na15  1  0.00037387  0.99921169  0.50010414  1
  Na  Na16  1  0.00625651  0.99580945  0.00015378  1
  Na  Na17  1  0.66670435  0.33331640  0.83340927  1
  Na  Na18  1  0.67258605  0.33917775  0.33392340  1
  Na  Na19  1  0.32692970  0.66626515  0.16698958  1
  Na  Na20  1  0.33353506  0.66266019  0.66556821  1
  Zr  Zr0  1  0.98862551  0.99393225  0.35315346  1
  Zr  Zr1  1  0.00358889  0.00798421  0.64751209  1
  Zr  Zr2  1  0.01128269  0.00485228  0.14682063  1
  Zr  Zr3  1  0.66714300  0.33304412  0.48193274  1
  Zr  Zr4  1  0.33502199  0.67013600  0.01952016  1
  Zr  Zr5  1  0.33306655  0.66721844  0.51811121  1
  Sc  Sc0  1  0.99165826  0.99772335  0.84997920  1
  Sc  Sc1  1  0.66775178  0.32649893  0.68211987  1
  Sc  Sc2  1  0.67146047  0.33659502  0.18133570  1
  Sc  Sc3  1  0.66300363  0.34002011  0.98471398  1
  Sc  Sc4  1  0.32846402  0.66476456  0.31825737  1
  Sc  Sc5  1  0.34154637  0.66928593  0.81673503  1
  Si  Si0  1  0.99981593  0.29764703  0.24988001  1
  Si  Si1  1  0.70385351  0.00058879  0.75056512  1
  Si  Si2  1  0.96156192  0.33506490  0.58422730  1
  Si  Si3  1  0.37219665  0.04072718  0.58374296  1
  Si  Si4  1  0.95955793  0.62640572  0.08314672  1
  Si  Si5  1  0.37550580  0.33226103  0.08330837  1
  Si  Si6  1  0.62958625  0.66605109  0.91598997  1
  Si  Si7  1  0.62473812  0.95784435  0.41587543  1
  Si  Si8  1  0.03877168  0.66658341  0.41577024  1
  P  P0  1  0.29458631  0.00048122  0.25121150  1
  P  P1  1  0.70539249  0.70580534  0.24874784  1
  P  P2  1  0.29333581  0.29350570  0.75202413  1
  P  P3  1  0.99941872  0.70640383  0.75076911  1
  P  P4  1  0.66542372  0.62352478  0.58552296  1
  P  P5  1  0.66595196  0.04200824  0.08342425  1
  P  P6  1  0.04069852  0.37374366  0.91568097  1
  P  P7  1  0.33379515  0.96015993  0.91521878  1
  P  P8  1  0.33521604  0.37546095  0.41491834  1
  O  O0  1  0.20995415  0.02851661  0.30536628  1
  O  O1  1  0.82366753  0.79335355  0.30197679  1
  O  O2  1  0.97108524  0.17444961  0.30651941  1
  O  O3  1  0.21300725  0.18142080  0.80617304  1
  O  O4  1  0.97359419  0.79210707  0.80489877  1
  O  O5  1  0.82554223  0.03323763  0.80721437  1
  O  O6  1  0.79409019  0.96679265  0.69375190  1
  O  O7  1  0.17706835  0.20476506  0.69839345  1
  O  O8  1  0.03034207  0.81977905  0.69610310  1
  O  O9  1  0.79000760  0.81868745  0.19458044  1
  O  O10  1  0.02868289  0.20336612  0.19334795  1
  O  O11  1  0.17629497  0.96961920  0.19802042  1
  O  O12  1  0.87828510  0.36975511  0.64151121  1
  O  O13  1  0.48999116  0.12360518  0.64109457  1
  O  O14  1  0.64105676  0.51992451  0.64085090  1
  O  O15  1  0.87844507  0.50895639  0.14113610  1
  O  O16  1  0.63979217  0.12108417  0.13857345  1
  O  O17  1  0.49090764  0.36839811  0.14139897  1
  O  O18  1  0.45664961  0.30375179  0.02451581  1
  O  O19  1  0.84344226  0.54275255  0.02521561  1
  O  O20  1  0.69842751  0.15122513  0.02843699  1
  O  O21  1  0.45791113  0.15433507  0.52530837  1
  O  O22  1  0.69693071  0.54083539  0.53175303  1
  O  O23  1  0.84130472  0.30139263  0.52662595  1
  O  O24  1  0.53983850  0.69993065  0.97285571  1
  O  O25  1  0.15322512  0.45951683  0.97036648  1
  O  O26  1  0.30233515  0.84286747  0.96848994  1
  O  O27  1  0.54058910  0.84503578  0.47450271  1
  O  O28  1  0.30198360  0.45772480  0.46841949  1
  O  O29  1  0.15858227  0.69806169  0.47347659  1
  O  O30  1  0.12239484  0.63122752  0.35862716  1
  O  O31  1  0.50901450  0.87541769  0.35825674  1
  O  O32  1  0.36027579  0.48007663  0.35972420  1
  O  O33  1  0.12199946  0.48623416  0.86161354  1
  O  O34  1  0.36050330  0.87674296  0.86063280  1
  O  O35  1  0.50798850  0.63384295  0.85939103  1
  O  O36  1  0.03467475  0.84316091  0.41013677  1
  O  O37  1  0.81798166  0.98983078  0.41160626  1
  O  O38  1  0.17434737  0.19645766  0.40952731  1
  O  O39  1  0.02932229  0.19870953  0.91117232  1
  O  O40  1  0.17609978  0.97986724  0.91020801  1
  O  O41  1  0.81678788  0.83640132  0.91126525  1
  O  O42  1  0.96790964  0.15895035  0.58946734  1
  O  O43  1  0.17900323  0.00578010  0.58975914  1
  O  O44  1  0.82792810  0.80197718  0.59014760  1
  O  O45  1  0.96699112  0.80886835  0.09021136  1
  O  O46  1  0.82455060  0.02065360  0.09025737  1
  O  O47  1  0.18118174  0.17207692  0.08846137  1
  O  O48  1  0.68767605  0.17109118  0.74581668  1
  O  O49  1  0.47016259  0.31502602  0.74446301  1
  O  O50  1  0.83798152  0.53189923  0.74511317  1
  O  O51  1  0.68898270  0.52967611  0.24491452  1
  O  O52  1  0.82807959  0.30982298  0.24570862  1
  O  O53  1  0.46825684  0.16009099  0.24427221  1
  O  O54  1  0.64628801  0.49583495  0.92050218  1
  O  O55  1  0.86273221  0.35087230  0.92240352  1
  O  O56  1  0.49545696  0.13411483  0.92181876  1
  O  O57  1  0.64251670  0.14662396  0.42188850  1
  O  O58  1  0.48758796  0.34896827  0.42211055  1
  O  O59  1  0.85514066  0.49649371  0.42296639  1
  O  O60  1  0.35526698  0.50274049  0.07644628  1
  O  O61  1  0.14396247  0.63963146  0.07617193  1
  O  O62  1  0.51184875  0.86093693  0.07733702  1
  O  O63  1  0.35790820  0.85313170  0.57798228  1
  O  O64  1  0.51378106  0.65153467  0.57795101  1
  O  O65  1  0.14558620  0.50413841  0.57715198  1
  O  O66  1  0.31088307  0.84065691  0.25500203  1
  O  O67  1  0.53196220  0.69188391  0.25556578  1
  O  O68  1  0.17173767  0.48197579  0.25397692  1
  O  O69  1  0.30418062  0.46812173  0.75580101  1
  O  O70  1  0.15708618  0.68662127  0.75634429  1
  O  O71  1  0.51690968  0.83031327  0.75543590  1
loop_
_geom_bond_atom_site_label_1
_geom_bond_atom_site_label_2
_geom_bond_distance
_geom_bond_site_symmetry_2
Na0 O52 2.458586 1_555
Na0 O67 2.517838 1_545
Na0 O53 2.568262 1_555
Na0 O66 2.574262 1_545
Na0 O31 2.702168 1_545
Na0 O16 2.795268 1_555
Na0 O2 2.952665 1_555
Na0 O9 3.003567 1_545
Na1 O68 2.466914 1_555
Na1 O53 2.520045 1_555
Na1 O67 2.564715 1_555
Na1 O51 2.572826 1_555
Na1 O17 2.706661 1_555
Na1 O32 2.755047 1_555
Na1 O10 2.956554 1_555
Na1 O0 2.998894 1_555
Na2 O52 2.511520 1_555
Na2 O68 2.513097 1_655
Na2 O66 2.531226 1_655
Na2 O51 2.532797 1_555
Na2 O15 2.719391 1_555
Na2 O30 2.720633 1_655
Na2 O11 2.969197 1_655
Na2 O1 2.975341 1_555
Na3 O50 2.492784 1_555
Na3 O71 2.498757 1_555
Na3 O49 2.540755 1_555
Na3 O69 2.619399 1_555
Na3 O14 2.722841 1_555
Na3 O35 2.758197 1_555
Na3 O6 2.922484 1_555
Na3 O4 2.986345 1_555
Na4 O48 2.467929 1_555
Na4 O69 2.507006 1_655
Na4 O70 2.560614 1_655
Na4 O50 2.578590 1_555
Na4 O12 2.701464 1_555
Na4 O33 2.810994 1_655
Na4 O5 2.936053 1_555
Na4 O7 2.953910 1_655
Na5 O71 2.512087 1_545
Na5 O48 2.512918 1_555
Na5 O49 2.546547 1_555
Na5 O70 2.552969 1_545
Na5 O13 2.697547 1_555
Na5 O34 2.785289 1_545
Na5 O8 2.969153 1_545
Na5 O3 2.999760 1_555
Na6 O65 2.451737 1_555
Na6 O43 2.453942 1_565
Na6 O44 2.511517 1_455
Na6 O63 2.585497 1_555
Na6 O29 2.761714 1_555
Na6 O8 2.824249 1_555
Na6 O12 2.915135 1_455
Na6 O22 2.920771 1_455
Na7 O42 2.443858 1_565
Na7 O63 2.454767 1_555
Na7 O64 2.533213 1_555
Na7 O44 2.647488 1_555
Na7 O27 2.734922 1_555
Na7 O6 2.807980 1_555
Na7 O13 2.913699 1_565
Na7 O23 2.923658 1_565
Na8 O45 2.414572 1_555
Na8 O60 2.494489 1_555
Na8 O62 2.574854 1_555
Na8 O46 2.614801 1_565
Na8 O24 2.782002 1_554
Na8 O9 2.811008 1_555
Na8 O17 2.895770 1_555
Na8 O19 2.902180 1_555
Na9 O61 2.440677 1_555
Na9 O47 2.493540 1_555
Na9 O46 2.540517 1_455
Na9 O60 2.585570 1_555
Na9 O10 2.754423 1_555
Na9 O25 2.857467 1_554
Na9 O15 2.886864 1_455
Na9 O20 2.947055 1_455
Na10 O54 2.507933 1_555
Na10 O41 2.515681 1_555
Na10 O55 2.546667 1_555
Na10 O40 2.556234 1_655
Na10 O19 2.684648 1_556
Na10 O4 2.823013 1_555
Na10 O26 2.942216 1_655
Na10 O33 2.990249 1_655
Na11 O56 2.487781 1_555
Na11 O41 2.501240 1_545
Na11 O55 2.533886 1_555
Na11 O39 2.618953 1_655
Na11 O5 2.749838 1_555
Na11 O20 2.791399 1_556
Na11 O24 2.927565 1_545
Na11 O34 2.988939 1_545
Na12 O54 2.472578 1_555
Na12 O39 2.505154 1_555
Na12 O40 2.564048 1_545
Na12 O56 2.586246 1_555
Na12 O18 2.672253 1_556
Na12 O3 2.791954 1_555
Na12 O35 2.943138 1_555
Na12 O25 2.973307 1_555
Na13 O59 2.446316 1_555
Na13 O37 2.490877 1_545
Na13 O38 2.547654 1_655
Na13 O57 2.580766 1_555
Na13 O23 2.778021 1_555
Na13 O2 2.780728 1_555
Na13 O30 2.907786 1_655
Na13 O28 2.924347 1_655
Na14 O36 2.416705 1_545
Na14 O57 2.464685 1_555
Na14 O58 2.542187 1_555
Na14 O38 2.617825 1_555
Na14 O21 2.711642 1_555
Na14 O0 2.818035 1_555
Na14 O29 2.913641 1_545
Na14 O31 2.930872 1_545
Na15 O37 2.600768 1_455
Na15 O43 2.607489 1_565
Na15 O36 2.613547 1_555
Na15 O42 2.616667 1_465
Na15 O44 2.674971 1_455
Na15 O38 2.688028 1_565
Na16 O47 2.582949 1_565
Na16 O45 2.585855 1_455
Na16 O41 2.598190 1_454
Na16 O40 2.631088 1_554
Na16 O39 2.691463 1_564
Na16 O46 2.733365 1_465
Na17 O54 2.549732 1_555
Na17 O48 2.558891 1_555
Na17 O50 2.646294 1_555
Na17 O56 2.650416 1_555
Na17 O55 2.667873 1_555
Na17 O49 2.668218 1_555
Na18 O52 2.564024 1_555
Na18 O59 2.572486 1_555
Na18 O57 2.597278 1_555
Na18 O51 2.635663 1_555
Na18 O58 2.668919 1_555
Na18 O53 2.708419 1_555
Na19 O68 2.537029 1_555
Na19 O61 2.605040 1_555
Na19 O66 2.619783 1_555
Na19 O60 2.644447 1_555
Na19 O62 2.691405 1_555
Na19 O67 2.694388 1_555
Na20 O65 2.582480 1_555
Na20 O63 2.591202 1_555
Na20 O71 2.613711 1_555
Na20 O64 2.634942 1_555
Na20 O69 2.650451 1_555
Na20 O70 2.710843 1_555
O0 P0 1.551354 1_555
O0 Zr0 2.187007 1_445
O1 P1 1.559931 1_555
O1 Zr0 2.061932 1_555
O2 Si0 1.650153 1_555
O2 Zr0 2.038826 1_545
O3 P2 1.541378 1_555
O3 Sc0 2.131696 1_445
O4 P3 1.546958 1_555
O4 Sc0 2.078359 1_555
O5 Si1 1.637770 1_555
O5 Sc0 1.969918 1_545
O6 Si1 1.652483 1_565
O6 Zr1 2.058451 1_665
O7 P2 1.561079 1_555
O7 Zr1 2.064951 1_555
O8 P3 1.558020 1_455
O8 Zr1 2.163950 1_565
O9 P1 1.550974 1_555
O9 Zr2 2.182410 1_665
O10 Si0 1.648773 1_455
O10 Zr2 2.041734 1_555
O11 P0 1.559591 1_565
O11 Zr2 2.062950 1_565
O12 Si2 1.627468 1_555
O12 Sc1 1.997928 1_555
O13 Si3 1.626556 1_555
O13 Sc1 1.989669 1_555
O14 P4 1.529678 1_555
O14 Sc1 2.124944 1_555
O15 Si4 1.634416 1_555
O15 Sc2 1.986868 1_555
O16 P5 1.532766 1_555
O16 Sc2 2.087392 1_555
O17 Si5 1.626969 1_555
O17 Sc2 2.036028 1_555
O18 Si5 1.621672 1_555
O18 Sc3 1.975007 1_554
O19 Si4 1.631737 1_555
O19 Sc3 1.992117 1_554
O20 P5 1.540563 1_555
O20 Sc3 2.156392 1_554
O21 Si3 1.634395 1_555
O21 Zr3 2.051367 1_555
O22 P4 1.546188 1_555
O22 Zr3 2.114206 1_555
O23 Si2 1.646023 1_555
O23 Zr3 2.035954 1_555
O24 Si6 1.651098 1_555
O24 Zr4 2.058886 1_556
O25 P6 1.561198 1_555
O25 Zr4 2.132018 1_556
O26 P7 1.552902 1_555
O26 Zr4 2.103224 1_556
O27 Si7 1.632815 1_555
O27 Zr5 2.042864 1_555
O28 P8 1.545942 1_555
O28 Zr5 2.121839 1_555
O29 Si8 1.648655 1_555
O29 Zr5 2.033871 1_555
O30 Si8 1.629315 1_555
O30 Sc4 1.986664 1_555
O31 Si7 1.622845 1_555
O31 Sc4 2.025547 1_555
O32 P8 1.531205 1_555
O32 Sc4 2.081449 1_555
O33 P6 1.542783 1_555
O33 Sc5 2.132358 1_555
O34 P7 1.546566 1_555
O34 Sc5 2.076650 1_555
O35 Si6 1.637009 1_555
O35 Sc5 1.970887 1_555
O36 Si8 1.639477 1_555
O36 Zr0 2.088821 1_455
O37 Si7 1.649704 1_555
O37 Zr0 2.046641 1_555
O38 P8 1.567919 1_555
O38 Zr0 2.200643 1_445
O39 P6 1.555091 1_555
O39 Sc0 2.197154 1_445
O40 P7 1.549414 1_555
O40 Sc0 2.250592 1_455
O41 Si6 1.647540 1_555
O41 Sc0 2.086888 1_555
O42 Si2 1.645323 1_555
O42 Zr1 2.056737 1_655
O43 Si3 1.642591 1_555
O43 Zr1 2.091766 1_555
O44 P4 1.570149 1_555
O44 Zr1 2.198772 1_665
O45 Si4 1.644135 1_555
O45 Zr2 2.081018 1_665
O46 P5 1.570045 1_555
O46 Zr2 2.208639 1_655
O47 Si5 1.651755 1_555
O47 Zr2 2.042654 1_555
O48 Si1 1.642589 1_555
O48 Sc1 2.106814 1_555
O49 P2 1.543707 1_555
O49 Sc1 2.269227 1_555
O50 P3 1.547471 1_555
O50 Sc1 2.261202 1_555
O51 P1 1.543961 1_555
O51 Sc2 2.231830 1_555
O52 Si0 1.637311 1_555
O52 Sc2 2.155373 1_555
O53 P0 1.539578 1_555
O53 Sc2 2.269729 1_555
O54 Si6 1.642362 1_555
O54 Sc3 2.105383 1_555
O55 P6 1.547105 1_655
O55 Sc3 2.286063 1_555
O56 P7 1.547564 1_545
O56 Sc3 2.255404 1_555
O57 Si7 1.657178 1_545
O57 Zr3 2.112846 1_555
O58 P8 1.542637 1_555
O58 Zr3 2.201820 1_555
O59 Si8 1.632807 1_655
O59 Zr3 2.111094 1_555
O60 Si5 1.667569 1_555
O60 Zr4 2.088131 1_555
O61 Si4 1.643079 1_455
O61 Zr4 2.085187 1_555
O62 P5 1.555737 1_565
O62 Zr4 2.144060 1_555
O63 Si3 1.659728 1_565
O63 Zr5 2.106185 1_555
O64 P4 1.545506 1_555
O64 Zr5 2.209421 1_555
O65 Si2 1.630513 1_455
O65 Zr5 2.108975 1_555
O66 P0 1.544698 1_565
O66 Sc4 2.229207 1_555
O67 P1 1.539949 1_555
O67 Sc4 2.269218 1_555
O68 Si0 1.637282 1_455
O68 Sc4 2.150103 1_555
O69 P2 1.552442 1_555
O69 Sc5 2.195334 1_555
O70 P3 1.550561 1_455
O70 Sc5 2.250866 1_555
O71 Si1 1.646127 1_565
O71 Sc5 2.088111 1_555
