# generated using pymatgen
data_RbEu2I5
_symmetry_space_group_name_H-M   'P 1'
_cell_length_a   9.03974678
_cell_length_b   10.09577818
_cell_length_c   14.33202269
_cell_angle_alpha   89.74442487
_cell_angle_beta   90.00308189
_cell_angle_gamma   90.00212183
_symmetry_Int_Tables_number   1
_chemical_formula_structural   RbEu2I5
_chemical_formula_sum   'Rb4 Eu8 I20'
_cell_volume   1307.97436042
_cell_formula_units_Z   4
loop_
 _symmetry_equiv_pos_site_id
 _symmetry_equiv_pos_as_xyz
  1  'x, y, z'
loop_
 _atom_site_type_symbol
 _atom_site_label
 _atom_site_symmetry_multiplicity
 _atom_site_fract_x
 _atom_site_fract_y
 _atom_site_fract_z
 _atom_site_occupancy
  Rb  Rb0  1  0.94706694  0.50719006  0.16862509  1
  Rb  Rb1  1  0.44706635  0.49281335  0.33136534  1
  Rb  Rb2  1  0.05294655  0.49281402  0.83137221  1
  Rb  Rb3  1  0.55293862  0.50718555  0.66863334  1
  Eu  Eu0  1  0.97340427  0.00284710  0.18032162  1
  Eu  Eu1  1  0.92602409  0.24672383  0.49391077  1
  Eu  Eu2  1  0.42603264  0.75326545  0.00610227  1
  Eu  Eu3  1  0.07396263  0.75325298  0.50610159  1
  Eu  Eu4  1  0.57397604  0.24674180  0.99390550  1
  Eu  Eu5  1  0.52661428  0.00287648  0.68027018  1
  Eu  Eu6  1  0.02660001  0.99715079  0.81969804  1
  Eu  Eu7  1  0.47340802  0.99714296  0.31969152  1
  I  I0  1  0.18811961  0.77303512  0.28311332  1
  I  I1  1  0.83664817  0.78297786  0.68291731  1
  I  I2  1  0.33664954  0.21701719  0.81706494  1
  I  I3  1  0.16335716  0.21700740  0.31705408  1
  I  I4  1  0.66336105  0.78300328  0.18293788  1
  I  I5  1  0.81189021  0.22697351  0.71685526  1
  I  I6  1  0.31189890  0.77307013  0.78309998  1
  I  I7  1  0.95533789  0.21249391  0.99747281  1
  I  I8  1  0.83760740  0.95780616  0.40133401  1
  I  I9  1  0.33757850  0.04218262  0.09868069  1
  I  I10  1  0.16234615  0.04219941  0.59867805  1
  I  I11  1  0.66237554  0.95775764  0.90131476  1
  I  I12  1  0.04469459  0.78751023  0.00252841  1
  I  I13  1  0.45535750  0.78752025  0.50252613  1
  I  I14  1  0.67519098  0.53764260  0.91904938  1
  I  I15  1  0.54467005  0.21247643  0.49747703  1
  I  I16  1  0.82476948  0.53764043  0.41902167  1
  I  I17  1  0.32476299  0.46234700  0.08096167  1
  I  I18  1  0.17522943  0.46237477  0.58097766  1
  I  I19  1  0.68811444  0.22695867  0.21693347  1
loop_
_geom_bond_atom_site_label_1
_geom_bond_atom_site_label_2
_geom_bond_distance
_geom_bond_site_symmetry_2
Eu0 I0 3.360100 1_645
Eu0 I7 3.365182 1_554
Eu0 I3 3.391263 1_655
Eu0 I12 3.418224 1_645
Eu0 I8 3.425584 1_545
Eu0 I19 3.472282 1_555
Eu0 I9 3.515752 1_655
Eu0 I4 3.575132 1_545
Eu1 I16 3.253908 1_555
Eu1 I8 3.307794 1_545
Eu1 I10 3.324783 1_655
Eu1 I3 3.335427 1_655
Eu1 I5 3.362811 1_555
Eu1 I18 3.375741 1_655
Eu1 I15 3.464984 1_555
Eu2 I17 3.253795 1_555
Eu2 I9 3.307968 1_565
Eu2 I11 3.324839 1_554
Eu2 I4 3.335000 1_555
Eu2 I6 3.363527 1_554
Eu2 I14 3.375397 1_554
Eu2 I12 3.464859 1_555
Eu3 I18 3.253529 1_555
Eu3 I10 3.307976 1_565
Eu3 I8 3.325158 1_455
Eu3 I1 3.334880 1_455
Eu3 I0 3.363489 1_555
Eu3 I16 3.375486 1_455
Eu3 I13 3.465373 1_555
Eu4 I14 3.253480 1_555
Eu4 I11 3.308517 1_545
Eu4 I9 3.325495 1_556
Eu4 I2 3.335031 1_555
Eu4 I19 3.363877 1_556
Eu4 I17 3.375629 1_556
Eu4 I7 3.465075 1_555
Eu5 I6 3.360291 1_545
Eu5 I15 3.364269 1_555
Eu5 I2 3.391897 1_555
Eu5 I13 3.417683 1_545
Eu5 I11 3.425887 1_545
Eu5 I5 3.471868 1_555
Eu5 I10 3.516210 1_555
Eu5 I1 3.575538 1_545
Eu6 I5 3.360464 1_465
Eu6 I12 3.364950 1_556
Eu6 I1 3.391741 1_455
Eu6 I7 3.418019 1_465
Eu6 I10 3.425531 1_565
Eu6 I6 3.472109 1_555
Eu6 I11 3.516127 1_455
Eu6 I2 3.575320 1_565
Eu7 I19 3.359861 1_565
Eu7 I13 3.364871 1_555
Eu7 I4 3.391494 1_555
Eu7 I15 3.417990 1_565
Eu7 I9 3.425558 1_565
Eu7 I0 3.472008 1_555
Eu7 I8 3.515883 1_555
Eu7 I3 3.575443 1_565
I0 Rb1 3.734176 1_555
I0 Rb0 3.831778 1_455
I1 Rb3 3.791628 1_555
I1 Rb2 4.108040 1_655
I2 Rb2 3.791795 1_555
I2 Rb3 4.107866 1_555
I3 Rb1 3.791749 1_555
I3 Rb0 4.107949 1_455
I4 Rb0 3.791939 1_555
I4 Rb1 4.108015 1_555
I5 Rb3 3.734051 1_555
I5 Rb2 3.831942 1_655
I6 Rb2 3.734438 1_555
I6 Rb3 3.832071 1_555
I7 Rb2 3.794038 1_655
I7 Rb0 3.865162 1_556
I12 Rb0 3.794044 1_455
I12 Rb2 3.865195 1_554
I13 Rb3 3.794138 1_555
I13 Rb1 3.865318 1_555
I14 Rb2 3.667487 1_655
I14 Rb3 3.769078 1_555
I15 Rb1 3.794243 1_555
I15 Rb3 3.865290 1_555
I16 Rb1 3.666784 1_555
I16 Rb0 3.769046 1_555
I17 Rb0 3.666936 1_455
I17 Rb1 3.769052 1_555
I18 Rb3 3.666811 1_555
I18 Rb2 3.768970 1_555
I19 Rb0 3.734344 1_555
I19 Rb1 3.831688 1_555
