# generated using pymatgen
data_MoPb2O5
_symmetry_space_group_name_H-M   'P 1'
_cell_length_a   7.68748201
_cell_length_b   7.68748201
_cell_length_c   7.35280557
_cell_angle_alpha   68.33076660
_cell_angle_beta   68.33076660
_cell_angle_gamma   44.46351493
_symmetry_Int_Tables_number   1
_chemical_formula_structural   MoPb2O5
_chemical_formula_sum   'Mo2 Pb4 O10'
_cell_volume   279.10514937
_cell_formula_units_Z   2
loop_
 _symmetry_equiv_pos_site_id
 _symmetry_equiv_pos_as_xyz
  1  'x, y, z'
loop_
 _atom_site_type_symbol
 _atom_site_label
 _atom_site_symmetry_multiplicity
 _atom_site_fract_x
 _atom_site_fract_y
 _atom_site_fract_z
 _atom_site_occupancy
  Mo  Mo0  1  0.16932462  0.16932462  0.34044425  1
  Mo  Mo1  1  0.83067538  0.83067538  0.65955575  1
  Pb  Pb0  1  0.48762977  0.48762977  0.25540553  1
  Pb  Pb1  1  0.51237023  0.51237023  0.74459447  1
  Pb  Pb2  1  0.86352591  0.86352591  0.11272851  1
  Pb  Pb3  1  0.13647409  0.13647409  0.88727149  1
  O  O0  1  0.25300557  0.74699443  0.00000000  1
  O  O1  1  0.74699443  0.25300557  0.00000000  1
  O  O2  1  0.29975523  0.29975523  0.30540638  1
  O  O3  1  0.70024477  0.70024477  0.69459362  1
  O  O4  1  0.09633215  0.61203457  0.77892558  1
  O  O5  1  0.38796543  0.90366785  0.22107442  1
  O  O6  1  0.08972533  0.08972533  0.59978488  1
  O  O7  1  0.91027467  0.91027467  0.40021512  1
  O  O8  1  0.61203457  0.09633215  0.77892558  1
  O  O9  1  0.90366785  0.38796543  0.22107442  1
loop_
_geom_bond_atom_site_label_1
_geom_bond_atom_site_label_2
_geom_bond_distance
_geom_bond_site_symmetry_2
Mo0 O9 1.760906 1_455
Mo0 O5 1.760906 1_545
Mo0 O2 1.769364 1_555
Mo0 O6 1.787772 1_555
Mo1 O8 1.760906 1_565
Mo1 O4 1.760906 1_655
Mo1 O3 1.769364 1_555
Mo1 O7 1.787772 1_555
O0 Pb2 2.311123 1_455
O0 Pb3 2.311123 1_564
O0 Pb1 2.314808 1_554
O0 Pb0 2.314808 1_555
O1 Pb2 2.311123 1_545
O1 Pb3 2.311123 1_654
O1 Pb0 2.314808 1_555
O1 Pb1 2.314808 1_554
O2 Pb0 2.549564 1_555
O3 Pb1 2.549564 1_555
O4 Pb1 2.632234 1_555
O5 Pb0 2.632234 1_555
O6 Pb3 2.456212 1_555
O7 Pb2 2.456212 1_555
O8 Pb1 2.632234 1_555
O9 Pb0 2.632234 1_555
