# generated using pymatgen
data_Na6Y2Sc2Si3(SO8)3
_symmetry_space_group_name_H-M   'P 1'
_cell_length_a   9.31142186
_cell_length_b   9.24753241
_cell_length_c   23.00361816
_cell_angle_alpha   90.57231929
_cell_angle_beta   89.72186500
_cell_angle_gamma   119.92322754
_symmetry_Int_Tables_number   1
_chemical_formula_structural   Na6Y2Sc2Si3(SO8)3
_chemical_formula_sum   'Na18 Y6 Sc6 Si9 S9 O72'
_cell_volume   1716.65265841
_cell_formula_units_Z   3
loop_
 _symmetry_equiv_pos_site_id
 _symmetry_equiv_pos_as_xyz
  1  'x, y, z'
loop_
 _atom_site_type_symbol
 _atom_site_label
 _atom_site_symmetry_multiplicity
 _atom_site_fract_x
 _atom_site_fract_y
 _atom_site_fract_z
 _atom_site_occupancy
  Na  Na0  1  0.63797765  0.01161509  0.26385778  1
  Na  Na1  1  0.34593623  0.34810903  0.25722245  1
  Na  Na2  1  0.65368921  0.65351955  0.73028323  1
  Na  Na3  1  0.97818969  0.35911380  0.73974179  1
  Na  Na4  1  0.01630195  0.68187466  0.59552005  1
  Na  Na5  1  0.68029450  0.97013436  0.58358671  1
  Na  Na6  1  0.31929939  0.97355420  0.10202647  1
  Na  Na7  1  0.01631344  0.32027549  0.08366851  1
  Na  Na8  1  0.97182987  0.64528685  0.89363797  1
  Na  Na9  1  0.71134877  0.04625300  0.90624329  1
  Na  Na10  1  0.95323465  0.28958954  0.42265354  1
  Na  Na11  1  0.34815170  0.03089987  0.41233233  1
  Na  Na12  1  0.96787145  0.99115573  0.50634441  1
  Na  Na13  1  0.98402859  0.01795308  0.99924816  1
  Na  Na14  1  0.66864002  0.32162872  0.81850868  1
  Na  Na15  1  0.67851880  0.33552447  0.33594625  1
  Na  Na16  1  0.32400376  0.67534394  0.17712183  1
  Na  Na17  1  0.33301848  0.66575315  0.66418817  1
  Y  Y0  1  0.00158043  0.01129971  0.84332107  1
  Y  Y1  1  0.99507729  0.00110083  0.15610556  1
  Y  Y2  1  0.67442030  0.32996037  0.98340615  1
  Y  Y3  1  0.33736504  0.65945440  0.01914714  1
  Y  Y4  1  0.35084439  0.66280334  0.52006043  1
  Y  Y5  1  0.32145925  0.66765559  0.80850716  1
  Sc  Sc0  1  0.99238010  0.00549062  0.34743124  1
  Sc  Sc1  1  0.98664899  0.99104557  0.64756368  1
  Sc  Sc2  1  0.67914336  0.34184226  0.68159103  1
  Sc  Sc3  1  0.66971945  0.31613293  0.19163750  1
  Sc  Sc4  1  0.67733714  0.33447344  0.48787846  1
  Sc  Sc5  1  0.33083476  0.68529466  0.31536199  1
  Si  Si0  1  0.29944309  0.00107494  0.24973030  1
  Si  Si1  1  0.00784077  0.31083383  0.24982694  1
  Si  Si2  1  0.99390100  0.69732447  0.74813165  1
  Si  Si3  1  0.69700564  0.00225282  0.74771122  1
  Si  Si4  1  0.96566992  0.33135416  0.58287329  1
  Si  Si5  1  0.67155030  0.62774256  0.58619727  1
  Si  Si6  1  0.66496182  0.02822076  0.08501117  1
  Si  Si7  1  0.03280839  0.36174825  0.92024647  1
  Si  Si8  1  0.63803100  0.97302801  0.41592654  1
  S  S0  1  0.69572580  0.69638977  0.25251139  1
  S  S1  1  0.30218002  0.29338663  0.74613072  1
  S  S2  1  0.37210144  0.04550581  0.58120702  1
  S  S3  1  0.96252645  0.63239800  0.08500959  1
  S  S4  1  0.37063647  0.33213943  0.08766495  1
  S  S5  1  0.63703790  0.66935102  0.91443987  1
  S  S6  1  0.32834384  0.96370385  0.92049784  1
  S  S7  1  0.33299335  0.36307604  0.41088059  1
  S  S8  1  0.03714135  0.66991375  0.41668953  1
  O  O0  1  0.19495861  0.02074113  0.30374551  1
  O  O1  1  0.80146314  0.78058514  0.30351777  1
  O  O2  1  0.97148195  0.17265646  0.30135725  1
  O  O3  1  0.23077137  0.20731974  0.80216513  1
  O  O4  1  0.98799075  0.78204743  0.81103772  1
  O  O5  1  0.80161712  0.03390456  0.80939394  1
  O  O6  1  0.80706372  0.98736551  0.69431589  1
  O  O7  1  0.19319355  0.20376524  0.69733980  1
  O  O8  1  0.00917457  0.81656414  0.69412894  1
  O  O9  1  0.76881429  0.79849371  0.19976359  1
  O  O10  1  0.04029189  0.23785813  0.18875539  1
  O  O11  1  0.20337363  0.97722945  0.18818781  1
  O  O12  1  0.86884871  0.35330242  0.63938883  1
  O  O13  1  0.48019912  0.13571479  0.63066697  1
  O  O14  1  0.65388588  0.52592166  0.64546552  1
  O  O15  1  0.86287726  0.52934926  0.13383971  1
  O  O16  1  0.65251361  0.13825745  0.14025078  1
  O  O17  1  0.46394653  0.34328394  0.14045673  1
  O  O18  1  0.46273843  0.33455393  0.03463777  1
  O  O19  1  0.87798011  0.55877129  0.02867258  1
  O  O20  1  0.68005984  0.13188418  0.02519574  1
  O  O21  1  0.44843131  0.13298741  0.52540735  1
  O  O22  1  0.68101861  0.51977205  0.53045018  1
  O  O23  1  0.85077724  0.30437082  0.52371943  1
  O  O24  1  0.54969629  0.68547438  0.96670474  1
  O  O25  1  0.12163432  0.44729725  0.98300016  1
  O  O26  1  0.31907063  0.87146414  0.97459312  1
  O  O27  1  0.55150095  0.87205864  0.47498564  1
  O  O28  1  0.30525047  0.44506678  0.46254071  1
  O  O29  1  0.13418815  0.69304910  0.47023763  1
  O  O30  1  0.12508363  0.64458128  0.36640663  1
  O  O31  1  0.51609172  0.87305037  0.35977371  1
  O  O32  1  0.34947935  0.45906744  0.35826218  1
  O  O33  1  0.13502213  0.48382520  0.86647613  1
  O  O34  1  0.35445652  0.87970631  0.86995344  1
  O  O35  1  0.54613017  0.65954139  0.86159671  1
  O  O36  1  0.02468920  0.82201101  0.40817560  1
  O  O37  1  0.82752900  0.00042872  0.40888994  1
  O  O38  1  0.17902940  0.19181357  0.40756743  1
  O  O39  1  0.00227553  0.17109757  0.91776156  1
  O  O40  1  0.17214333  0.96688120  0.91605932  1
  O  O41  1  0.80552664  0.82106220  0.91492000  1
  O  O42  1  0.97911319  0.16246796  0.58733377  1
  O  O43  1  0.20495140  0.02352438  0.58606935  1
  O  O44  1  0.84674258  0.81033865  0.58557662  1
  O  O45  1  0.99629184  0.80606307  0.08760514  1
  O  O46  1  0.83597049  0.01880151  0.08713119  1
  O  O47  1  0.20711676  0.17304550  0.08596762  1
  O  O48  1  0.67550165  0.16554415  0.74093475  1
  O  O49  1  0.46898906  0.31615106  0.74149824  1
  O  O50  1  0.81968925  0.51513955  0.74661107  1
  O  O51  1  0.67379955  0.52761025  0.24565958  1
  O  O52  1  0.83660765  0.32244309  0.24670499  1
  O  O53  1  0.48381781  0.17714658  0.24824508  1
  O  O54  1  0.65689969  0.52044990  0.91920326  1
  O  O55  1  0.84566166  0.34763009  0.91639722  1
  O  O56  1  0.47348433  0.13515829  0.92279637  1
  O  O57  1  0.65159211  0.16089110  0.41700222  1
  O  O58  1  0.47714945  0.34001485  0.41778248  1
  O  O59  1  0.87118647  0.51616178  0.41956921  1
  O  O60  1  0.33801989  0.47498473  0.08735140  1
  O  O61  1  0.12661214  0.63697887  0.08612748  1
  O  O62  1  0.48844799  0.84965278  0.08605312  1
  O  O63  1  0.35534441  0.87440567  0.57941297  1
  O  O64  1  0.52027239  0.67101408  0.58420749  1
  O  O65  1  0.14016799  0.50869212  0.57852425  1
  O  O66  1  0.33903011  0.84673257  0.25633426  1
  O  O67  1  0.52821419  0.67874309  0.25931671  1
  O  O68  1  0.17840995  0.48725444  0.26116032  1
  O  O69  1  0.31657675  0.46328854  0.74911882  1
  O  O70  1  0.14639916  0.65486797  0.74587718  1
  O  O71  1  0.52501420  0.82234465  0.74983342  1
loop_
_geom_bond_atom_site_label_1
_geom_bond_atom_site_label_2
_geom_bond_distance
_geom_bond_site_symmetry_2
Na0 O66 2.422461 1_545
Na0 O31 2.525774 1_545
Na0 O52 2.559340 1_555
Na0 O53 2.596329 1_555
Na0 O67 2.717882 1_545
Na0 O2 2.826987 1_555
Na1 O68 2.469028 1_555
Na1 O53 2.491275 1_555
Na1 O32 2.524986 1_555
Na1 O67 2.655573 1_555
Na1 O51 2.662950 1_555
Na1 O0 2.844393 1_555
Na1 O17 2.905528 1_555
Na1 O10 2.955715 1_555
Na2 O14 2.270528 1_555
Na2 O71 2.433551 1_555
Na2 O50 2.481219 1_555
Na2 O49 2.723296 1_555
Na2 O69 2.761979 1_555
Na2 O6 2.809987 1_555
Na3 O70 2.382008 1_655
Na3 O48 2.472951 1_555
Na3 O12 2.516802 1_555
Na3 O50 2.530349 1_555
Na3 O69 2.806531 1_655
Na4 O44 2.415893 1_455
Na4 O65 2.423615 1_555
Na4 O8 2.593418 1_555
Na4 O43 2.754612 1_565
Na4 O63 2.769075 1_555
Na4 O12 2.832229 1_455
Na5 O64 2.400080 1_555
Na5 O42 2.444317 1_565
Na5 O44 2.621988 1_555
Na5 O63 2.697559 1_555
Na5 O27 2.720394 1_555
Na5 O6 2.782131 1_555
Na6 O11 2.260361 1_555
Na6 O62 2.390587 1_555
Na6 O47 2.563364 1_565
Na6 O45 2.628085 1_455
Na6 O61 2.729959 1_555
Na6 O16 2.829261 1_565
Na7 O46 2.435364 1_455
Na7 O25 2.566548 1_554
Na7 O61 2.575221 1_555
Na7 O10 2.585783 1_555
Na7 O60 2.598391 1_555
Na7 O47 2.725559 1_555
Na8 O4 2.255629 1_555
Na8 O55 2.455115 1_555
Na8 O54 2.626249 1_555
Na8 O40 2.652160 1_655
Na8 O33 2.676678 1_655
Na8 O41 2.787077 1_555
Na9 O39 2.371093 1_655
Na9 O5 2.399061 1_555
Na9 O55 2.428661 1_555
Na9 O41 2.641480 1_545
Na9 O56 2.743867 1_555
Na9 O20 2.894587 1_556
Na9 O34 3.001230 1_545
Na10 O37 2.341949 1_555
Na10 O57 2.446976 1_555
Na10 O23 2.536955 1_555
Na10 O59 2.564999 1_555
Na10 O38 2.691027 1_655
Na11 O57 2.459997 1_555
Na11 O58 2.489682 1_555
Na11 O36 2.647011 1_545
Na11 O38 2.655006 1_555
Na11 O21 2.761175 1_555
Na11 O0 2.859936 1_555
Na11 O31 2.874306 1_545
Na12 O44 2.355718 1_555
Na12 O42 2.401901 1_565
Na12 O37 2.623894 1_565
Na12 O43 2.774056 1_665
Na12 O36 2.927390 1_655
Na12 O38 2.978759 1_665
Na13 O39 2.314756 1_655
Na13 O46 2.443579 1_556
Na13 O41 2.604277 1_545
Na13 O47 2.713344 1_656
Na13 O40 2.779928 1_645
Na13 O45 2.879018 1_546
Na14 O48 2.304624 1_555
Na14 O50 2.332678 1_555
Na14 O49 2.555990 1_555
Na14 O55 2.734072 1_555
Na14 O54 2.978395 1_555
Na14 O56 2.990803 1_555
Na15 O57 2.408146 1_555
Na15 O52 2.557177 1_555
Na15 O59 2.586251 1_555
Na15 O53 2.613295 1_555
Na15 O58 2.665192 1_555
Na15 O51 2.761033 1_555
Na16 O66 2.361230 1_555
Na16 O68 2.507920 1_555
Na16 O62 2.627814 1_555
Na16 O67 2.676898 1_555
Na16 O61 2.693980 1_555
Na16 O60 2.806530 1_555
Na17 O64 2.512678 1_555
Na17 O70 2.521596 1_555
Na17 O71 2.562986 1_555
Na17 O65 2.567568 1_555
Na17 O69 2.670230 1_555
Na17 O63 2.690789 1_555
O0 Si0 1.638230 1_555
O0 Sc0 2.075307 1_455
O1 S0 1.476636 1_555
O1 Sc0 2.189309 1_565
O2 Si1 1.657495 1_655
O2 Sc0 1.971232 1_555
O3 S1 1.490395 1_555
O3 Y0 2.211725 1_555
O4 Si2 1.652412 1_555
O4 Y0 2.182616 1_665
O5 Si3 1.663890 1_555
O5 Y0 2.127277 1_655
O6 Si3 1.644082 1_565
O6 Sc1 1.969904 1_555
O7 S1 1.459386 1_555
O7 Sc1 2.254201 1_445
O8 Si2 1.627425 1_455
O8 Sc1 2.041863 1_455
O9 S0 1.483503 1_555
O9 Y1 2.244236 1_565
O10 Si1 1.643396 1_555
O10 Y1 2.141378 1_455
O11 Si0 1.631655 1_565
O11 Y1 2.190775 1_465
O12 Si4 1.646221 1_555
O12 Sc2 1.967890 1_555
O13 S2 1.469002 1_555
O13 Sc2 2.211538 1_555
O14 Si5 1.625245 1_555
O14 Sc2 2.018226 1_555
O15 S3 1.469659 1_555
O15 Sc3 2.319782 1_555
O16 Si6 1.659517 1_555
O16 Sc3 1.956727 1_555
O17 S4 1.469252 1_555
O17 Sc3 2.372372 1_555
O18 S4 1.481625 1_555
O18 Y2 2.309925 1_554
O19 S3 1.490083 1_555
O19 Y2 2.264504 1_554
O20 Si6 1.649864 1_555
O20 Y2 2.100879 1_554
O21 S2 1.498489 1_555
O21 Sc4 2.193651 1_555
O22 Si5 1.646315 1_555
O22 Sc4 1.950559 1_555
O23 Si4 1.673151 1_555
O23 Sc4 1.957402 1_555
O24 S5 1.495671 1_555
O24 Y3 2.220400 1_556
O25 Si7 1.652208 1_555
O25 Y3 2.151145 1_556
O26 S6 1.493394 1_555
O26 Y3 2.301805 1_556
O27 Si8 1.621998 1_555
O27 Y4 2.173654 1_555
O28 S7 1.492739 1_555
O28 Y4 2.254920 1_555
O29 S8 1.480654 1_555
O29 Y4 2.460366 1_555
O30 S8 1.496706 1_555
O30 Sc5 2.111470 1_555
O31 Si8 1.659994 1_555
O31 Sc5 2.006881 1_555
O32 S7 1.469816 1_555
O32 Sc5 2.405397 1_555
O33 Si7 1.629338 1_555
O33 Y5 2.181817 1_555
O34 S6 1.477165 1_555
O34 Y5 2.298999 1_555
O35 S5 1.460678 1_555
O35 Y5 2.461061 1_555
O36 S8 1.482747 1_555
O36 Sc0 2.341513 1_465
O37 Si8 1.660070 1_545
O37 Sc0 2.065364 1_555
O38 S7 1.517491 1_555
O38 Sc0 2.211590 1_455
O39 Si7 1.640275 1_555
O39 Y0 2.248572 1_555
O40 S6 1.473380 1_555
O40 Y0 2.486197 1_565
O41 S5 1.494547 1_555
O41 Y0 2.442296 1_665
O42 Si4 1.632092 1_555
O42 Sc1 2.143202 1_545
O43 S2 1.469472 1_555
O43 Sc1 2.365299 1_445
O44 Si5 1.662730 1_555
O44 Sc1 2.078804 1_555
O45 S3 1.475154 1_555
O45 Y1 2.387379 1_565
O46 Si6 1.638508 1_555
O46 Y1 2.238104 1_555
O47 S4 1.499628 1_555
O47 Y1 2.432667 1_455
O48 Si3 1.628276 1_555
O48 Sc2 2.124032 1_555
O49 S1 1.463153 1_555
O49 Sc2 2.302454 1_555
O50 Si2 1.656445 1_555
O50 Sc2 2.096837 1_555
O51 S0 1.476510 1_555
O51 Sc3 2.290868 1_555
O52 Si1 1.652547 1_655
O52 Sc3 1.987471 1_555
O53 Si0 1.676714 1_555
O53 Sc3 2.033689 1_555
O54 S5 1.483081 1_555
O54 Y2 2.377386 1_555
O55 Si7 1.683993 1_655
O55 Y2 2.160191 1_555
O56 S6 1.484710 1_545
O56 Y2 2.302655 1_555
O57 Si8 1.677789 1_545
O57 Sc4 2.204540 1_555
O58 S7 1.469962 1_555
O58 Sc4 2.490663 1_555
O59 S8 1.490883 1_655
O59 Sc4 2.355787 1_555
O60 S4 1.495897 1_555
O60 Y3 2.331442 1_555
O61 S3 1.507525 1_455
O61 Y3 2.416278 1_555
O62 Si6 1.649677 1_565
O62 Y3 2.222560 1_555
O63 S2 1.510638 1_565
O63 Y4 2.358030 1_555
O64 Si5 1.646133 1_555
O64 Y4 2.138441 1_555
O65 Si4 1.637906 1_455
O65 Y4 2.216182 1_555
O66 Si0 1.651020 1_565
O66 Sc5 2.001043 1_555
O67 S0 1.492722 1_555
O67 Sc5 2.264986 1_555
O68 Si1 1.631723 1_555
O68 Sc5 2.073953 1_555
O69 S1 1.509662 1_555
O69 Y5 2.302914 1_555
O70 Si2 1.651744 1_455
O70 Y5 2.138649 1_555
O71 Si3 1.636370 1_565
O71 Y5 2.183850 1_555
