# generated using pymatgen
data_Nd4In5S13
_symmetry_space_group_name_H-M   'P 1'
_cell_length_a   3.97330000
_cell_length_b   12.00425900
_cell_length_c   21.70219900
_cell_angle_alpha   90.00000000
_cell_angle_beta   90.00000000
_cell_angle_gamma   90.00000000
_symmetry_Int_Tables_number   1
_chemical_formula_structural   Nd4In5S13
_chemical_formula_sum   'Nd8 In10 S26'
_cell_volume   1035.11941823
_cell_formula_units_Z   2
loop_
 _symmetry_equiv_pos_site_id
 _symmetry_equiv_pos_as_xyz
  1  'x, y, z'
loop_
 _atom_site_type_symbol
 _atom_site_label
 _atom_site_symmetry_multiplicity
 _atom_site_fract_x
 _atom_site_fract_y
 _atom_site_fract_z
 _atom_site_occupancy
  Nd  Nd0  1  0.00000000  0.48206800  0.83057200  1
  Nd  Nd1  1  0.00000000  0.51793200  0.16942800  1
  Nd  Nd2  1  0.00000000  0.98206800  0.66942800  1
  Nd  Nd3  1  0.00000000  0.01793200  0.33057200  1
  Nd  Nd4  1  0.00000000  0.66907600  0.34224900  1
  Nd  Nd5  1  0.00000000  0.33092400  0.65775100  1
  Nd  Nd6  1  0.00000000  0.16907600  0.15775100  1
  Nd  Nd7  1  0.00000000  0.83092400  0.84224900  1
  In  In0  1  0.50000000  0.65402800  0.67003100  1
  In  In1  1  0.50000000  0.34597200  0.32996900  1
  In  In2  1  0.50000000  0.15402800  0.82996900  1
  In  In3  1  0.50000000  0.84597200  0.17003100  1
  In  In4  1  0.50000000  0.84486400  0.49274900  1
  In  In5  1  0.50000000  0.15513600  0.50725100  1
  In  In6  1  0.50000000  0.34486400  0.00725100  1
  In  In7  1  0.50000000  0.65513600  0.99274900  1
  In  In8  1  0.00000000  0.50000000  0.50000000  1
  In  In9  1  0.00000000  0.00000000  0.00000000  1
  S  S0  1  0.00000000  0.00000000  0.50000000  1
  S  S1  1  0.00000000  0.50000000  0.00000000  1
  S  S2  1  0.50000000  0.83849200  0.61335900  1
  S  S3  1  0.50000000  0.16150800  0.38664100  1
  S  S4  1  0.50000000  0.33849200  0.88664100  1
  S  S5  1  0.50000000  0.66150800  0.11335900  1
  S  S6  1  0.00000000  0.66868800  0.73907200  1
  S  S7  1  0.00000000  0.33131200  0.26092800  1
  S  S8  1  0.00000000  0.16868800  0.76092800  1
  S  S9  1  0.00000000  0.83131200  0.23907200  1
  S  S10  1  0.00000000  0.70254200  0.47682500  1
  S  S11  1  0.00000000  0.29745800  0.52317500  1
  S  S12  1  0.00000000  0.20254200  0.02317500  1
  S  S13  1  0.00000000  0.79745800  0.97682500  1
  S  S14  1  0.50000000  0.49822200  0.59173700  1
  S  S15  1  0.50000000  0.50177800  0.40826300  1
  S  S16  1  0.50000000  0.99822200  0.90826300  1
  S  S17  1  0.50000000  0.00177800  0.09173700  1
  S  S18  1  0.50000000  0.65225600  0.86702400  1
  S  S19  1  0.50000000  0.34774400  0.13297600  1
  S  S20  1  0.50000000  0.15225600  0.63297600  1
  S  S21  1  0.50000000  0.84774400  0.36702400  1
  S  S22  1  0.50000000  0.07870300  0.23892000  1
  S  S23  1  0.50000000  0.92129700  0.76108000  1
  S  S24  1  0.50000000  0.57870300  0.26108000  1
  S  S25  1  0.50000000  0.42129700  0.73892000  1
loop_
_geom_bond_atom_site_label_1
_geom_bond_atom_site_label_2
_geom_bond_distance
_geom_bond_site_symmetry_2
Nd0 S4 2.897924 1_555
Nd0 S4 2.897924 1_455
Nd0 S25 2.904356 1_455
Nd0 S25 2.904356 1_555
Nd0 S18 2.957426 1_455
Nd0 S18 2.957426 1_555
Nd0 S6 2.993637 1_555
Nd1 S5 2.897924 1_455
Nd1 S5 2.897924 1_555
Nd1 S24 2.904356 1_455
Nd1 S24 2.904356 1_555
Nd1 S19 2.957426 1_455
Nd1 S19 2.957426 1_555
Nd1 S7 2.993637 1_555
Nd2 S2 2.897924 1_555
Nd2 S2 2.897924 1_455
Nd2 S23 2.904356 1_455
Nd2 S23 2.904356 1_555
Nd2 S20 2.957426 1_465
Nd2 S20 2.957426 1_565
Nd2 S8 2.993637 1_565
Nd3 S3 2.897924 1_555
Nd3 S3 2.897924 1_455
Nd3 S22 2.904356 1_455
Nd3 S22 2.904356 1_555
Nd3 S21 2.957426 1_545
Nd3 S21 2.957426 1_445
Nd3 S9 2.993637 1_545
Nd4 S24 2.868230 1_455
Nd4 S24 2.868230 1_555
Nd4 S10 2.948095 1_555
Nd4 S9 2.967612 1_555
Nd4 S21 2.972530 1_455
Nd4 S21 2.972530 1_555
Nd4 S15 3.167410 1_555
Nd4 S15 3.167410 1_455
Nd5 S25 2.868230 1_455
Nd5 S25 2.868230 1_555
Nd5 S11 2.948095 1_555
Nd5 S8 2.967612 1_555
Nd5 S20 2.972530 1_455
Nd5 S20 2.972530 1_555
Nd5 S14 3.167410 1_555
Nd5 S14 3.167410 1_455
Nd6 S22 2.868230 1_555
Nd6 S22 2.868230 1_455
Nd6 S12 2.948095 1_555
Nd6 S7 2.967612 1_555
Nd6 S19 2.972530 1_555
Nd6 S19 2.972530 1_455
Nd6 S17 3.167410 1_555
Nd6 S17 3.167410 1_455
Nd7 S23 2.868230 1_555
Nd7 S23 2.868230 1_455
Nd7 S13 2.948095 1_555
Nd7 S6 2.967612 1_555
Nd7 S18 2.972530 1_455
Nd7 S18 2.972530 1_555
Nd7 S16 3.167410 1_555
Nd7 S16 3.167410 1_455
In0 S6 2.494549 1_655
In0 S6 2.494549 1_555
In0 S14 2.526910 1_555
In0 S2 2.532989 1_555
In1 S7 2.494549 1_555
In1 S7 2.494549 1_655
In1 S15 2.526910 1_555
In1 S3 2.532989 1_555
In2 S8 2.494549 1_555
In2 S8 2.494549 1_655
In2 S16 2.526910 1_545
In2 S4 2.532989 1_555
In3 S9 2.494549 1_655
In3 S9 2.494549 1_555
In3 S17 2.526910 1_565
In3 S5 2.532989 1_555
In4 S2 2.618620 1_555
In4 S10 2.642930 1_555
In4 S10 2.642930 1_655
In4 S0 2.727577 1_565
In4 S0 2.727577 1_665
In4 S21 2.728728 1_555
In5 S3 2.618620 1_555
In5 S11 2.642930 1_555
In5 S11 2.642930 1_655
In5 S0 2.727577 1_555
In5 S0 2.727577 1_655
In5 S20 2.728728 1_555
In6 S4 2.618620 1_554
In6 S12 2.642930 1_555
In6 S12 2.642930 1_655
In6 S1 2.727577 1_555
In6 S1 2.727577 1_655
In6 S19 2.728728 1_555
In7 S5 2.618620 1_556
In7 S13 2.642930 1_555
In7 S13 2.642930 1_655
In7 S1 2.727577 1_556
In7 S1 2.727577 1_656
In7 S18 2.728728 1_555
In8 S11 2.482841 1_555
In8 S10 2.482841 1_555
In8 S14 2.812631 1_555
In8 S14 2.812631 1_455
In8 S15 2.812631 1_455
In8 S15 2.812631 1_555
In9 S12 2.482841 1_555
In9 S13 2.482841 1_544
In9 S16 2.812631 1_544
In9 S16 2.812631 1_444
In9 S17 2.812631 1_455
In9 S17 2.812631 1_555
