# generated using pymatgen
data_MgCo6(O2F)4
_symmetry_space_group_name_H-M   'P 1'
_cell_length_a   5.07090835
_cell_length_b   5.07891023
_cell_length_c   8.56939289
_cell_angle_alpha   87.63141441
_cell_angle_beta   92.43463429
_cell_angle_gamma   103.21771602
_symmetry_Int_Tables_number   1
_chemical_formula_structural   MgCo6(O2F)4
_chemical_formula_sum   'Mg1 Co6 O8 F4'
_cell_volume   214.54788783
_cell_formula_units_Z   1
loop_
 _symmetry_equiv_pos_site_id
 _symmetry_equiv_pos_as_xyz
  1  'x, y, z'
loop_
 _atom_site_type_symbol
 _atom_site_label
 _atom_site_symmetry_multiplicity
 _atom_site_fract_x
 _atom_site_fract_y
 _atom_site_fract_z
 _atom_site_occupancy
  Mg  Mg0  1  0.95486797  0.47219622  0.66076822  1
  Co  Co0  1  0.97363680  0.03421037  0.02882267  1
  Co  Co1  1  0.00966663  0.99517891  0.33249037  1
  Co  Co2  1  0.03456144  0.98780813  0.66744234  1
  Co  Co3  1  0.55747269  0.44877520  0.17270748  1
  Co  Co4  1  0.48533030  0.52427918  0.84289124  1
  Co  Co5  1  0.42977975  0.58673760  0.48988601  1
  O  O0  1  0.16954208  0.78685766  0.49754280  1
  O  O1  1  0.32066339  0.30535455  0.33306302  1
  O  O2  1  0.32803031  0.29588760  0.00808528  1
  O  O3  1  0.29757128  0.33296961  0.67104498  1
  O  O4  1  0.69005230  0.69808064  0.67095424  1
  O  O5  1  0.69981821  0.68690795  0.01003268  1
  O  O6  1  0.69480768  0.69558740  0.33067169  1
  O  O7  1  0.82310897  0.19212366  0.17611484  1
  F  F0  1  0.17642747  0.82640553  0.16242937  1
  F  F1  1  0.17283517  0.74685372  0.82866524  1
  F  F2  1  0.83462908  0.19153903  0.83058648  1
  F  F3  1  0.83330948  0.19224703  0.50722905  1
loop_
_geom_bond_atom_site_label_1
_geom_bond_atom_site_label_2
_geom_bond_distance
_geom_bond_site_symmetry_2
Mg0 O4 1.962093 1_555
Mg0 O3 2.017817 1_655
Mg0 O0 2.201039 1_655
Co0 O7 1.806805 1_555
Co0 F0 1.943878 1_645
Co0 O2 1.985663 1_655
Co0 O5 1.987394 1_545
Co0 F2 2.016139 1_554
Co1 O6 1.937413 1_455
Co1 O1 1.957720 1_565
Co1 O7 1.976216 1_465
Co1 O0 1.987055 1_555
Co1 F0 2.028070 1_555
Co1 F3 2.165811 1_465
Co2 O3 1.945419 1_565
Co2 O4 2.010812 1_455
Co2 F1 2.017032 1_555
Co2 O0 2.038835 1_555
Co2 F3 2.062100 1_465
Co2 F2 2.184673 1_465
Co3 O5 1.863870 1_555
Co3 O2 1.866735 1_555
Co3 O1 1.875725 1_555
Co3 O6 1.884060 1_555
Co3 O7 2.076275 1_555
Co4 O5 1.863144 1_556
Co4 O2 1.876924 1_556
Co4 O3 1.896127 1_555
Co4 O4 1.905567 1_555
Co4 F1 2.143640 1_555
Co5 O0 1.845277 1_555
Co5 O6 1.930534 1_555
Co5 O1 1.971929 1_555
Co5 O4 2.006624 1_555
Co5 O3 2.012099 1_555
F1 Mg0 2.136202 1_455
F2 Mg0 2.006942 1_555
F3 Mg0 1.953887 1_555
