# generated using pymatgen
data_H5N2ClO4
_symmetry_space_group_name_H-M   'P 1'
_cell_length_a   7.73744140
_cell_length_b   7.73744140
_cell_length_c   13.19709871
_cell_angle_alpha   66.91476509
_cell_angle_beta   66.91476509
_cell_angle_gamma   41.26295869
_symmetry_Int_Tables_number   1
_chemical_formula_structural   H5N2ClO4
_chemical_formula_sum   'H20 N8 Cl4 O16'
_cell_volume   473.13412122
_cell_formula_units_Z   4
loop_
 _symmetry_equiv_pos_site_id
 _symmetry_equiv_pos_as_xyz
  1  'x, y, z'
loop_
 _atom_site_type_symbol
 _atom_site_label
 _atom_site_symmetry_multiplicity
 _atom_site_fract_x
 _atom_site_fract_y
 _atom_site_fract_z
 _atom_site_occupancy
  H  H0  1  0.34032500  0.34516900  0.30284900  1
  H  H1  1  0.34516900  0.34032500  0.80284900  1
  H  H2  1  0.65967500  0.65483100  0.69715100  1
  H  H3  1  0.65483100  0.65967500  0.19715100  1
  H  H4  1  0.60325400  0.19029500  0.70240300  1
  H  H5  1  0.80970500  0.39674600  0.79759700  1
  H  H6  1  0.39674600  0.80970500  0.29759700  1
  H  H7  1  0.19029500  0.60325400  0.20240300  1
  H  H8  1  0.60034100  0.22812100  0.12867100  1
  H  H9  1  0.77187900  0.39965900  0.37132900  1
  H  H10  1  0.39965900  0.77187900  0.87132900  1
  H  H11  1  0.22812100  0.60034100  0.62867100  1
  H  H12  1  0.35348700  0.32556400  0.08883300  1
  H  H13  1  0.06224500  0.50416800  0.69296600  1
  H  H14  1  0.64651300  0.67443600  0.91116700  1
  H  H15  1  0.32556400  0.35348700  0.58883300  1
  H  H16  1  0.50416800  0.06224500  0.19296600  1
  H  H17  1  0.93775500  0.49583200  0.30703400  1
  H  H18  1  0.49583200  0.93775500  0.80703400  1
  H  H19  1  0.67443600  0.64651300  0.41116700  1
  N  N0  1  0.44051100  0.24873200  0.15677500  1
  N  N1  1  0.75638800  0.57317800  0.76182700  1
  N  N2  1  0.57317800  0.75638800  0.26182700  1
  N  N3  1  0.24361200  0.42682200  0.23817300  1
  N  N4  1  0.75126800  0.55948900  0.34322500  1
  N  N5  1  0.24873200  0.44051100  0.65677500  1
  N  N6  1  0.55948900  0.75126800  0.84322500  1
  N  N7  1  0.42682200  0.24361200  0.73817300  1
  Cl  Cl0  1  0.81910700  0.97098800  0.42370400  1
  Cl  Cl1  1  0.97098800  0.81910700  0.92370400  1
  Cl  Cl2  1  0.18089300  0.02901200  0.57629700  1
  Cl  Cl3  1  0.02901200  0.18089300  0.07629700  1
  O  O0  1  0.21837300  0.07920400  0.65781600  1
  O  O1  1  0.86994500  0.08139400  0.89544500  1
  O  O2  1  0.91860600  0.13005500  0.60455500  1
  O  O3  1  0.13005500  0.91860600  0.10455500  1
  O  O4  1  0.78162700  0.92079600  0.34218400  1
  O  O5  1  0.07920400  0.21837300  0.15781600  1
  O  O6  1  0.08139400  0.86994500  0.39544500  1
  O  O7  1  0.92079600  0.78162700  0.84218400  1
  O  O8  1  0.78961000  0.84378700  0.53504300  1
  O  O9  1  0.15621300  0.21039000  0.96495700  1
  O  O10  1  0.21039000  0.15621300  0.46495700  1
  O  O11  1  0.84378700  0.78961000  0.03504300  1
  O  O12  1  0.61406200  0.26094900  0.42217700  1
  O  O13  1  0.73905100  0.38593800  0.07782300  1
  O  O14  1  0.38593800  0.73905100  0.57782300  1
  O  O15  1  0.26094900  0.61406200  0.92217700  1
loop_
_geom_bond_atom_site_label_1
_geom_bond_atom_site_label_2
_geom_bond_distance
_geom_bond_site_symmetry_2
H0 N3 1.027076 1_555
H1 N7 1.027076 1_555
H2 N1 1.027076 1_555
H3 N2 1.027076 1_555
H4 N7 1.028259 1_555
H5 N1 1.028259 1_555
H6 N2 1.028259 1_555
H7 N3 1.028259 1_555
H8 N0 1.040459 1_555
H9 N4 1.040459 1_555
H10 N6 1.040459 1_555
H11 N5 1.040459 1_555
H12 N0 1.031707 1_555
H13 N5 1.062235 1_555
H14 N6 1.031707 1_555
H15 N5 1.031707 1_555
H16 N0 1.062235 1_555
H17 N4 1.062235 1_555
H18 N6 1.062235 1_555
H19 N4 1.031707 1_555
Cl0 O6 1.455578 1_655
Cl0 O8 1.456159 1_555
Cl0 O4 1.460804 1_555
Cl0 O12 1.479664 1_565
Cl1 O1 1.455578 1_565
Cl1 O11 1.456159 1_556
Cl1 O7 1.460804 1_555
Cl1 O15 1.479664 1_655
Cl2 O2 1.455579 1_455
Cl2 O10 1.456168 1_555
Cl2 O0 1.460792 1_555
Cl2 O14 1.479666 1_545
Cl3 O3 1.455579 1_545
Cl3 O9 1.456168 1_554
Cl3 O5 1.460792 1_555
Cl3 O13 1.479666 1_455
