# generated using pymatgen
data_In7Br9
_symmetry_space_group_name_H-M   'P 1'
_cell_length_a   12.92131100
_cell_length_b   12.92131100
_cell_length_c   12.92131100
_cell_angle_alpha   90.00000000
_cell_angle_beta   90.00000000
_cell_angle_gamma   90.00000000
_symmetry_Int_Tables_number   1
_chemical_formula_structural   In7Br9
_chemical_formula_sum   'In28 Br36'
_cell_volume   2157.34567615
_cell_formula_units_Z   4
loop_
 _symmetry_equiv_pos_site_id
 _symmetry_equiv_pos_as_xyz
  1  'x, y, z'
loop_
 _atom_site_type_symbol
 _atom_site_label
 _atom_site_symmetry_multiplicity
 _atom_site_fract_x
 _atom_site_fract_y
 _atom_site_fract_z
 _atom_site_occupancy
  In  In0  1  0.81766700  0.43311000  0.32849300  1
  In  In1  1  0.31766700  0.06689000  0.67150700  1
  In  In2  1  0.18233300  0.93311000  0.17150700  1
  In  In3  1  0.06689000  0.67150700  0.31766700  1
  In  In4  1  0.17150700  0.18233300  0.93311000  1
  In  In5  1  0.67150700  0.31766700  0.06689000  1
  In  In6  1  0.43311000  0.32849300  0.81766700  1
  In  In7  1  0.32849300  0.81766700  0.43311000  1
  In  In8  1  0.93311000  0.17150700  0.18233300  1
  In  In9  1  0.56689000  0.82849300  0.68233300  1
  In  In10  1  0.82849300  0.68233300  0.56689000  1
  In  In11  1  0.68233300  0.56689000  0.82849300  1
  In  In12  1  0.18233300  0.56689000  0.67150700  1
  In  In13  1  0.68233300  0.93311000  0.32849300  1
  In  In14  1  0.81766700  0.06689000  0.82849300  1
  In  In15  1  0.93311000  0.32849300  0.68233300  1
  In  In16  1  0.82849300  0.81766700  0.06689000  1
  In  In17  1  0.32849300  0.68233300  0.93311000  1
  In  In18  1  0.56689000  0.67150700  0.18233300  1
  In  In19  1  0.67150700  0.18233300  0.56689000  1
  In  In20  1  0.06689000  0.82849300  0.81766700  1
  In  In21  1  0.43311000  0.17150700  0.31766700  1
  In  In22  1  0.17150700  0.31766700  0.43311000  1
  In  In23  1  0.31766700  0.43311000  0.17150700  1
  In  In24  1  0.50000000  0.50000000  0.50000000  1
  In  In25  1  0.50000000  0.00000000  0.00000000  1
  In  In26  1  0.00000000  0.00000000  0.50000000  1
  In  In27  1  0.00000000  0.50000000  0.00000000  1
  Br  Br0  1  0.94765000  0.19994300  0.45482800  1
  Br  Br1  1  0.44765000  0.30005700  0.54517200  1
  Br  Br2  1  0.05235000  0.69994300  0.04517200  1
  Br  Br3  1  0.30005700  0.54517200  0.44765000  1
  Br  Br4  1  0.04517200  0.05235000  0.69994300  1
  Br  Br5  1  0.54517200  0.44765000  0.30005700  1
  Br  Br6  1  0.19994300  0.45482800  0.94765000  1
  Br  Br7  1  0.45482800  0.94765000  0.19994300  1
  Br  Br8  1  0.69994300  0.04517200  0.05235000  1
  Br  Br9  1  0.80005700  0.95482800  0.55235000  1
  Br  Br10  1  0.95482800  0.55235000  0.80005700  1
  Br  Br11  1  0.55235000  0.80005700  0.95482800  1
  Br  Br12  1  0.05235000  0.80005700  0.54517200  1
  Br  Br13  1  0.55235000  0.69994300  0.45482800  1
  Br  Br14  1  0.94765000  0.30005700  0.95482800  1
  Br  Br15  1  0.82904000  0.67096000  0.32904000  1
  Br  Br16  1  0.69994300  0.45482800  0.55235000  1
  Br  Br17  1  0.45482800  0.55235000  0.69994300  1
  Br  Br18  1  0.80005700  0.54517200  0.05235000  1
  Br  Br19  1  0.54517200  0.05235000  0.80005700  1
  Br  Br20  1  0.30005700  0.95482800  0.94765000  1
  Br  Br21  1  0.19994300  0.04517200  0.44765000  1
  Br  Br22  1  0.04517200  0.44765000  0.19994300  1
  Br  Br23  1  0.44765000  0.19994300  0.04517200  1
  Br  Br24  1  0.17096000  0.32904000  0.67096000  1
  Br  Br25  1  0.32904000  0.67096000  0.17096000  1
  Br  Br26  1  0.67096000  0.17096000  0.32904000  1
  Br  Br27  1  0.82904000  0.82904000  0.82904000  1
  Br  Br28  1  0.00000000  0.00000000  0.00000000  1
  Br  Br29  1  0.50000000  0.00000000  0.50000000  1
  Br  Br30  1  0.50000000  0.50000000  0.00000000  1
  Br  Br31  1  0.00000000  0.50000000  0.50000000  1
  Br  Br32  1  0.17096000  0.17096000  0.17096000  1
  Br  Br33  1  0.32904000  0.82904000  0.67096000  1
  Br  Br34  1  0.67096000  0.32904000  0.82904000  1
  Br  Br35  1  0.95482800  0.94765000  0.30005700  1
loop_
_geom_bond_atom_site_label_1
_geom_bond_atom_site_label_2
_geom_bond_distance
_geom_bond_site_symmetry_2
Br0 In26 2.733651 1_655
Br0 In22 3.280145 1_655
Br0 In15 3.381708 1_555
Br1 In24 2.733651 1_555
Br1 In19 3.280145 1_555
Br1 In21 3.381708 1_555
Br2 In27 2.733651 1_555
Br2 In16 3.280145 1_455
Br2 In20 3.381708 1_554
Br3 In24 2.733651 1_555
Br3 In12 3.280145 1_555
Br3 In22 3.381708 1_555
Br4 In26 2.733651 1_555
Br4 In20 3.280145 1_545
Br4 In14 3.381708 1_455
Br5 In24 2.733651 1_555
Br5 In18 3.280145 1_555
Br5 In23 3.381708 1_555
Br6 In27 2.733651 1_556
Br6 In23 3.280145 1_556
Br6 In17 3.381708 1_555
Br7 In25 2.733651 1_565
Br7 In21 3.280145 1_565
Br7 In13 3.381708 1_555
Br8 In25 2.733651 1_555
Br8 In14 3.280145 1_554
Br8 In16 3.381708 1_545
Br9 In26 2.733651 1_665
Br9 In13 3.280145 1_555
Br9 In19 3.381708 1_565
Br10 In27 2.733651 1_656
Br10 In15 3.280145 1_555
Br10 In12 3.381708 1_655
Br11 In25 2.733651 1_566
Br11 In17 3.280145 1_555
Br11 In18 3.381708 1_556
Br12 In26 2.733651 1_565
Br12 In10 3.280145 1_455
Br12 In3 3.381708 1_555
Br13 In24 2.733651 1_555
Br13 In7 3.280145 1_555
Br13 In9 3.381708 1_555
Br14 In27 2.733651 1_656
Br14 In4 3.280145 1_655
Br14 In8 3.381708 1_556
Br15 In3 3.076853 1_655
Br15 In10 3.076853 1_555
Br15 In0 3.076853 1_555
Br16 In24 2.733651 1_555
Br16 In0 3.280145 1_555
Br16 In10 3.381708 1_555
Br17 In24 2.733651 1_555
Br17 In6 3.280145 1_555
Br17 In11 3.381708 1_555
Br18 In27 2.733651 1_655
Br18 In11 3.280145 1_554
Br18 In5 3.381708 1_555
Br19 In25 2.733651 1_556
Br19 In9 3.280145 1_545
Br19 In1 3.381708 1_555
Br20 In25 2.733651 1_566
Br20 In2 3.280145 1_556
Br20 In4 3.381708 1_565
Br21 In26 2.733651 1_555
Br21 In1 3.280145 1_555
Br21 In7 3.381708 1_545
Br22 In27 2.733651 1_555
Br22 In3 3.280145 1_555
Br22 In0 3.381708 1_455
Br23 In25 2.733651 1_555
Br23 In5 3.280145 1_555
Br23 In6 3.381708 1_554
Br24 In12 3.076853 1_555
Br24 In22 3.076853 1_555
Br24 In15 3.076853 1_455
Br25 In17 3.076853 1_554
Br25 In23 3.076853 1_555
Br25 In18 3.076853 1_555
Br26 In13 3.076853 1_545
Br26 In19 3.076853 1_555
Br26 In21 3.076853 1_555
Br27 In14 3.076853 1_565
Br27 In16 3.076853 1_556
Br27 In20 3.076853 1_655
Br28 In14 3.347947 1_454
Br28 In20 3.347947 1_544
Br28 In16 3.347947 1_445
Br28 In8 3.347947 1_455
Br28 In2 3.347947 1_545
Br28 In4 3.347947 1_554
Br29 In19 3.347947 1_555
Br29 In9 3.347947 1_545
Br29 In7 3.347947 1_545
Br29 In13 3.347947 1_545
Br29 In1 3.347947 1_555
Br29 In21 3.347947 1_555
Br30 In6 3.347947 1_554
Br30 In11 3.347947 1_554
Br30 In17 3.347947 1_554
Br30 In5 3.347947 1_555
Br30 In18 3.347947 1_555
Br30 In23 3.347947 1_555
Br31 In15 3.347947 1_455
Br31 In0 3.347947 1_455
Br31 In12 3.347947 1_555
Br31 In10 3.347947 1_455
Br31 In22 3.347947 1_555
Br31 In3 3.347947 1_555
Br32 In4 3.076853 1_554
Br32 In8 3.076853 1_455
Br32 In2 3.076853 1_545
Br33 In1 3.076853 1_565
Br33 In7 3.076853 1_555
Br33 In9 3.076853 1_555
Br34 In5 3.076853 1_556
Br34 In11 3.076853 1_555
Br34 In6 3.076853 1_555
Br35 In26 2.733651 1_665
Br35 In8 3.280145 1_565
Br35 In2 3.381708 1_655
