# generated using pymatgen
data_LiLa4CuO8
_symmetry_space_group_name_H-M   'P 1'
_cell_length_a   7.11242369
_cell_length_b   7.11242369
_cell_length_c   5.30500300
_cell_angle_alpha   90.00000000
_cell_angle_beta   90.00000000
_cell_angle_gamma   136.14225948
_symmetry_Int_Tables_number   1
_chemical_formula_structural   LiLa4CuO8
_chemical_formula_sum   'Li1 La4 Cu1 O8'
_cell_volume   185.93996617
_cell_formula_units_Z   1
loop_
 _symmetry_equiv_pos_site_id
 _symmetry_equiv_pos_as_xyz
  1  'x, y, z'
loop_
 _atom_site_type_symbol
 _atom_site_label
 _atom_site_symmetry_multiplicity
 _atom_site_fract_x
 _atom_site_fract_y
 _atom_site_fract_z
 _atom_site_occupancy
  Li  Li0  1  0.50000000  0.50000000  0.50000000  1
  La  La0  1  0.86058200  0.13941800  0.50000000  1
  La  La1  1  0.13941800  0.86058200  0.50000000  1
  La  La2  1  0.36205200  0.63794800  0.00000000  1
  La  La3  1  0.63794800  0.36205200  0.00000000  1
  Cu  Cu0  1  0.00000000  0.00000000  0.00000000  1
  O  O0  1  0.24297400  0.24297400  0.24490900  1
  O  O1  1  0.18618500  0.81381500  0.00000000  1
  O  O2  1  0.81381500  0.18618500  0.00000000  1
  O  O3  1  0.32055600  0.67944400  0.50000000  1
  O  O4  1  0.67944400  0.32055600  0.50000000  1
  O  O5  1  0.75702600  0.75702600  0.75509100  1
  O  O6  1  0.75702600  0.75702600  0.24490900  1
  O  O7  1  0.24297400  0.24297400  0.75509100  1
loop_
_geom_bond_atom_site_label_1
_geom_bond_atom_site_label_2
_geom_bond_distance
_geom_bond_site_symmetry_2
Li0 O7 1.922409 1_555
Li0 O5 1.922409 1_555
Li0 O0 1.922409 1_555
Li0 O6 1.922409 1_555
Li0 O3 2.367881 1_555
Li0 O4 2.367881 1_555
La0 O4 2.390234 1_555
La0 O7 2.623340 1_655
La0 O6 2.623340 1_545
La0 O5 2.623340 1_545
La0 O0 2.623340 1_655
La0 O3 2.708175 1_545
La0 O3 2.708175 1_655
La0 O2 2.723344 1_555
La0 O2 2.723344 1_556
La1 O3 2.390234 1_555
La1 O5 2.623340 1_455
La1 O7 2.623340 1_565
La1 O0 2.623340 1_565
La1 O6 2.623340 1_455
La1 O4 2.708175 1_455
La1 O4 2.708175 1_565
La1 O1 2.723344 1_555
La1 O1 2.723344 1_556
La2 O1 2.320680 1_555
La2 O7 2.620290 1_554
La2 O0 2.620290 1_555
La2 O5 2.620290 1_554
La2 O6 2.620290 1_555
La2 O3 2.708430 1_555
La2 O3 2.708430 1_554
La2 O2 2.731374 1_455
La2 O2 2.731374 1_565
La3 O2 2.320680 1_555
La3 O7 2.620290 1_554
La3 O0 2.620290 1_555
La3 O5 2.620290 1_554
La3 O6 2.620290 1_555
La3 O4 2.708430 1_555
La3 O4 2.708430 1_554
La3 O1 2.731374 1_545
La3 O1 2.731374 1_655
Cu0 O0 1.831420 1_555
Cu0 O7 1.831420 1_554
Cu0 O6 1.831420 1_445
Cu0 O5 1.831420 1_444
Cu0 O2 2.456833 1_455
Cu0 O1 2.456833 1_545
