# generated using pymatgen
data_Na3TaGa3P5SO24
_symmetry_space_group_name_H-M   'P 1'
_cell_length_a   8.62638489
_cell_length_b   8.61045799
_cell_length_c   22.23917231
_cell_angle_alpha   89.60682594
_cell_angle_beta   90.18427040
_cell_angle_gamma   119.98266365
_symmetry_Int_Tables_number   1
_chemical_formula_structural   Na3TaGa3P5SO24
_chemical_formula_sum   'Na9 Ta3 Ga9 P15 S3 O72'
_cell_volume   1430.77037050
_cell_formula_units_Z   3
loop_
 _symmetry_equiv_pos_site_id
 _symmetry_equiv_pos_as_xyz
  1  'x, y, z'
loop_
 _atom_site_type_symbol
 _atom_site_label
 _atom_site_symmetry_multiplicity
 _atom_site_fract_x
 _atom_site_fract_y
 _atom_site_fract_z
 _atom_site_occupancy
  Na  Na0  1  0.63960851  0.63556026  0.74799214  1
  Na  Na1  1  0.30071077  0.96601886  0.08476661  1
  Na  Na2  1  0.32985003  0.02778129  0.41397939  1
  Na  Na3  1  0.99164122  0.99983034  0.50075397  1
  Na  Na4  1  0.99447740  0.00039149  0.99909521  1
  Na  Na5  1  0.66675645  0.32740692  0.83096601  1
  Na  Na6  1  0.66864844  0.33536391  0.32897794  1
  Na  Na7  1  0.33332668  0.66326813  0.16734435  1
  Na  Na8  1  0.32732074  0.66364785  0.66235508  1
  Ta  Ta0  1  0.66842790  0.33437385  0.97991413  1
  Ta  Ta1  1  0.67781717  0.34236467  0.47970783  1
  Ta  Ta2  1  0.32850025  0.66624319  0.81218951  1
  Ga  Ga0  1  0.00114272  0.00179699  0.35151285  1
  Ga  Ga1  1  0.00127069  0.00156206  0.85178479  1
  Ga  Ga2  1  0.99306442  0.00104822  0.64839056  1
  Ga  Ga3  1  0.00064584  0.99863537  0.14762474  1
  Ga  Ga4  1  0.67450807  0.33667008  0.68559926  1
  Ga  Ga5  1  0.65918271  0.32683607  0.18394424  1
  Ga  Ga6  1  0.33367859  0.66148398  0.01900784  1
  Ga  Ga7  1  0.33350848  0.65665116  0.51733069  1
  Ga  Ga8  1  0.33340619  0.67340238  0.31552286  1
  P  P0  1  0.29145165  -0.00004076  0.24999334  1
  P  P1  1  0.28625847  0.27859539  0.74888315  1
  P  P2  1  0.99771668  0.71563630  0.74876308  1
  P  P3  1  0.71812332  0.01012313  0.74969769  1
  P  P4  1  0.96348540  0.33458237  0.58602801  1
  P  P5  1  0.66658675  0.62923956  0.58602925  1
  P  P6  1  0.95702737  0.62259250  0.08625114  1
  P  P7  1  0.67025071  0.03935281  0.08565539  1
  P  P8  1  0.37479797  0.33828541  0.08536510  1
  P  P9  1  0.62691231  0.67468554  0.91771407  1
  P  P10  1  0.04646984  0.37228372  0.91835512  1
  P  P11  1  0.32648538  0.95353836  0.91829803  1
  P  P12  1  0.62482016  0.94799194  0.41643124  1
  P  P13  1  0.32728067  0.38025252  0.41507259  1
  P  P14  1  0.05174208  0.67105800  0.41573892  1
  S  S0  1  0.70965655  0.70966203  0.25010826  1
  S  S1  1  0.00029804  0.29069362  0.24977005  1
  S  S2  1  0.37390612  0.03995450  0.58458522  1
  O  O0  1  0.20911400  0.03243857  0.30746714  1
  O  O1  1  0.82026200  0.78898277  0.30457279  1
  O  O2  1  0.96617663  0.17867972  0.30451697  1
  O  O3  1  0.20817708  0.17316434  0.80678028  1
  O  O4  1  0.96133805  0.79112457  0.80575050  1
  O  O5  1  0.82508291  0.03440561  0.80687305  1
  O  O6  1  0.78556665  0.95590385  0.69423411  1
  O  O7  1  0.17189081  0.20760552  0.69252530  1
  O  O8  1  0.03763836  0.83025417  0.69227337  1
  O  O9  1  0.78790318  0.82198666  0.19547100  1
  O  O10  1  0.03090899  0.21061571  0.19550025  1
  O  O11  1  0.17571479  0.96722736  0.19264391  1
  O  O12  1  0.87356937  0.36602588  0.63966759  1
  O  O13  1  0.48776484  0.12302360  0.63742012  1
  O  O14  1  0.63179520  0.50905709  0.64168152  1
  O  O15  1  0.87049908  0.50301815  0.14086211  1
  O  O16  1  0.62754387  0.12290719  0.13913100  1
  O  O17  1  0.49335181  0.36916908  0.13993916  1
  O  O18  1  0.46333346  0.30015103  0.02858219  1
  O  O19  1  0.83775576  0.53453556  0.02838653  1
  O  O20  1  0.69895785  0.16121906  0.02808225  1
  O  O21  1  0.45758830  0.15315444  0.52828385  1
  O  O22  1  0.69390944  0.53236200  0.52927054  1
  O  O23  1  0.83911303  0.30374768  0.52851210  1
  O  O24  1  0.53936139  0.70036455  0.97266203  1
  O  O25  1  0.15943718  0.45963266  0.97332996  1
  O  O26  1  0.30086153  0.84310948  0.97510997  1
  O  O27  1  0.54095221  0.84091565  0.47392996  1
  O  O28  1  0.29736242  0.45545605  0.47272212  1
  O  O29  1  0.16449896  0.70682428  0.47270590  1
  O  O30  1  0.12302760  0.62804745  0.35980602  1
  O  O31  1  0.50339828  0.87921524  0.36080107  1
  O  O32  1  0.37008685  0.49653599  0.35886451  1
  O  O33  1  0.13001158  0.49497406  0.86121808  1
  O  O34  1  0.36408461  0.86821882  0.86189238  1
  O  O35  1  0.50748601  0.63531419  0.85977663  1
  O  O36  1  0.02498689  0.83455008  0.40945904  1
  O  O37  1  0.81358951  0.97781925  0.40839405  1
  O  O38  1  0.16849359  0.18605612  0.40941776  1
  O  O39  1  0.02277256  0.18763974  0.90948216  1
  O  O40  1  0.16474218  0.97627068  0.90937028  1
  O  O41  1  0.81248827  0.83516915  0.90910142  1
  O  O42  1  0.97555023  0.16312266  0.58936535  1
  O  O43  1  0.19819922  0.02787230  0.58853739  1
  O  O44  1  0.83940952  0.81068003  0.58930425  1
  O  O45  1  0.97674808  0.81110090  0.08955193  1
  O  O46  1  0.83932173  0.02592719  0.09107088  1
  O  O47  1  0.19176985  0.16290416  0.08949995  1
  O  O48  1  0.68674020  0.16841253  0.74230917  1
  O  O49  1  0.48062041  0.31549344  0.74285171  1
  O  O50  1  0.83239221  0.52556025  0.74369300  1
  O  O51  1  0.69391325  0.53054192  0.24408931  1
  O  O52  1  0.83856627  0.30944944  0.24377021  1
  O  O53  1  0.47977600  0.17036638  0.24364467  1
  O  O54  1  0.63996387  0.49945232  0.92363059  1
  O  O55  1  0.85937618  0.36000735  0.92338730  1
  O  O56  1  0.50061340  0.14098394  0.92348408  1
  O  O57  1  0.63939974  0.14014670  0.42540536  1
  O  O58  1  0.49657115  0.35275636  0.42478876  1
  O  O59  1  0.85896500  0.50130049  0.42393127  1
  O  O60  1  0.35760439  0.50384887  0.07617564  1
  O  O61  1  0.14451252  0.64652205  0.07671861  1
  O  O62  1  0.49775486  0.85840935  0.07593781  1
  O  O63  1  0.35893916  0.86373104  0.57687137  1
  O  O64  1  0.49847158  0.64400534  0.57658825  1
  O  O65  1  0.14431568  0.50478706  0.57603677  1
  O  O66  1  0.30903649  0.82920676  0.25654861  1
  O  O67  1  0.52941477  0.69094431  0.25614134  1
  O  O68  1  0.16336092  0.46949495  0.25600160  1
  O  O69  1  0.31254939  0.47603015  0.75745462  1
  O  O70  1  0.16604107  0.69209959  0.75711860  1
  O  O71  1  0.52614301  0.83384510  0.75812099  1
loop_
_geom_bond_atom_site_label_1
_geom_bond_atom_site_label_2
_geom_bond_distance
_geom_bond_site_symmetry_2
Na0 O50 2.290954 1_555
Na0 O71 2.366576 1_555
Na0 O49 2.390551 1_555
Na0 O69 2.453059 1_555
Na0 O14 2.596474 1_555
Na0 O6 2.667611 1_555
Na0 O4 2.726145 1_555
Na0 O35 2.737685 1_555
Na1 O47 2.315945 1_565
Na1 O62 2.316269 1_555
Na1 O61 2.390822 1_555
Na1 O45 2.423782 1_455
Na1 O11 2.635649 1_555
Na1 O26 2.665325 1_554
Na1 O16 2.725690 1_565
Na1 O18 2.781105 1_565
Na2 O36 2.306915 1_545
Na2 O57 2.355407 1_555
Na2 O38 2.387081 1_555
Na2 O58 2.437378 1_555
Na2 O0 2.592660 1_555
Na2 O31 2.687490 1_545
Na2 O29 2.720344 1_545
Na2 O21 2.769885 1_555
Na3 O44 2.467817 1_555
Na3 O42 2.472742 1_565
Na3 O37 2.511591 1_555
Na3 O38 2.560235 1_665
Na3 O43 2.568769 1_665
Na3 O36 2.585121 1_655
Na4 O39 2.489276 1_655
Na4 O41 2.506131 1_545
Na4 O46 2.518249 1_556
Na4 O45 2.536651 1_546
Na4 O40 2.551765 1_645
Na4 O47 2.556003 1_656
Na5 O48 2.463016 1_555
Na5 O49 2.499324 1_555
Na5 O50 2.501095 1_555
Na5 O56 2.557031 1_555
Na5 O55 2.565946 1_555
Na5 O54 2.623343 1_555
Na6 O53 2.444993 1_555
Na6 O51 2.455369 1_555
Na6 O52 2.477839 1_555
Na6 O59 2.621183 1_555
Na6 O58 2.648188 1_555
Na6 O57 2.649146 1_555
Na7 O68 2.519803 1_555
Na7 O66 2.522257 1_555
Na7 O60 2.523325 1_555
Na7 O67 2.529797 1_555
Na7 O61 2.546345 1_555
Na7 O62 2.560680 1_555
Na8 O65 2.430344 1_555
Na8 O64 2.473586 1_555
Na8 O63 2.478976 1_555
Na8 O70 2.608375 1_555
Na8 O69 2.616877 1_555
Na8 O71 2.670636 1_555
Ga0 O0 1.944829 1_555
Ga0 O37 1.983979 1_445
Ga0 O2 1.984504 1_455
Ga0 O38 1.996605 1_555
Ga0 O1 2.010042 1_445
Ga0 O36 2.011387 1_545
Ga1 O3 1.930280 1_555
Ga1 O5 1.950259 1_455
Ga1 O4 1.961966 1_445
Ga1 O40 1.991873 1_545
Ga1 O39 1.994393 1_555
Ga1 O41 1.996456 1_445
Ga2 O6 1.924928 1_545
Ga2 O7 1.943796 1_655
Ga2 O8 1.950906 1_645
Ga2 O42 1.969205 1_555
Ga2 O44 2.004306 1_545
Ga2 O43 2.135170 1_655
Ga3 O11 1.936755 1_555
Ga3 O46 1.971110 1_465
Ga3 O45 2.003020 1_455
Ga3 O9 2.003529 1_455
Ga3 O47 2.011876 1_565
Ga3 O10 2.020377 1_565
Ga4 O12 1.905241 1_555
Ga4 O14 1.953803 1_555
Ga4 O48 1.956405 1_555
Ga4 O50 1.993219 1_555
Ga4 O49 2.039001 1_555
Ga4 O13 2.044815 1_555
Ga5 O17 1.908991 1_555
Ga5 O16 1.922045 1_555
Ga5 O15 1.941553 1_555
Ga5 O53 1.969199 1_555
Ga5 O52 2.098261 1_555
Ga5 O51 2.111821 1_555
Ga6 O25 1.927512 1_554
Ga6 O24 1.932843 1_554
Ga6 O60 1.938009 1_555
Ga6 O26 1.974509 1_554
Ga6 O62 2.025000 1_555
Ga6 O61 2.031683 1_555
Ga7 O28 1.887924 1_555
Ga7 O27 1.950271 1_555
Ga7 O29 1.977739 1_555
Ga7 O64 1.978490 1_555
Ga7 O65 1.983753 1_555
Ga7 O63 2.149493 1_555
Ga8 O30 1.927113 1_555
Ga8 O31 1.929371 1_555
Ga8 O32 1.951393 1_555
Ga8 O66 1.954490 1_555
Ga8 O67 2.093350 1_555
Ga8 O68 2.105192 1_555
O0 P0 1.557466 1_555
O1 S0 1.482076 1_555
O2 S1 1.483812 1_655
O3 P1 1.521206 1_555
O4 P2 1.531301 1_555
O5 P3 1.521554 1_555
O6 P3 1.536833 1_565
O7 P1 1.522395 1_555
O8 P2 1.522142 1_455
O9 S0 1.484628 1_555
O10 S1 1.482310 1_555
O11 P0 1.555114 1_565
O12 P4 1.522571 1_555
O13 S2 1.469315 1_555
O14 P5 1.538551 1_555
O15 P6 1.520784 1_555
O16 P7 1.532028 1_555
O17 P8 1.521272 1_555
O18 P8 1.596350 1_555
O18 Ta0 1.968580 1_554
O19 P6 1.585770 1_555
O19 Ta0 1.940432 1_554
O20 P7 1.589232 1_555
O20 Ta0 1.951537 1_554
O21 S2 1.524701 1_555
O21 Ta1 2.079906 1_555
O22 P5 1.599238 1_555
O22 Ta1 1.925448 1_555
O23 P4 1.602752 1_555
O23 Ta1 1.916331 1_555
O24 P9 1.512982 1_555
O25 P10 1.510784 1_555
O26 P11 1.524635 1_555
O27 P12 1.526986 1_555
O28 P13 1.519931 1_555
O29 P14 1.531020 1_555
O30 P14 1.517053 1_555
O31 P12 1.536280 1_555
O32 P13 1.522392 1_555
O33 P10 1.573706 1_555
O33 Ta2 1.939487 1_555
O34 P11 1.572218 1_555
O34 Ta2 1.957330 1_555
O35 P9 1.576339 1_555
O35 Ta2 1.992849 1_555
O36 P14 1.541539 1_555
O37 P12 1.527361 1_555
O38 P13 1.549392 1_555
O39 P10 1.512489 1_555
O40 P11 1.514967 1_555
O41 P9 1.515344 1_555
O42 P4 1.532305 1_555
O43 S2 1.469378 1_555
O44 P5 1.530230 1_555
O45 P6 1.547416 1_555
O46 P7 1.523876 1_555
O47 P8 1.548462 1_555
O48 P3 1.524249 1_555
O49 P1 1.548713 1_555
O50 P2 1.547205 1_555
O51 S0 1.486082 1_555
O52 S1 1.487972 1_655
O53 P0 1.558281 1_555
O54 P9 1.572752 1_555
O54 Ta0 1.992451 1_555
O55 P10 1.568118 1_655
O55 Ta0 1.997105 1_555
O56 P11 1.566175 1_545
O56 Ta0 2.012725 1_555
O57 P12 1.609206 1_545
O57 Ta1 2.012341 1_555
O58 P13 1.605691 1_555
O58 Ta1 2.017494 1_555
O59 P14 1.582410 1_655
O59 Ta1 1.924874 1_555
O60 P8 1.517620 1_555
O61 P6 1.540019 1_455
O62 P7 1.540684 1_565
O63 S2 1.468373 1_565
O64 P5 1.531458 1_555
O65 P4 1.530800 1_455
O66 P0 1.557481 1_565
O67 S0 1.487305 1_555
O68 S1 1.485024 1_555
O69 P1 1.611398 1_555
O69 Ta2 1.996034 1_555
O70 P2 1.573486 1_455
O70 Ta2 1.952080 1_555
O71 P3 1.602279 1_565
O71 Ta2 1.991361 1_555
