# generated using pymatgen
data_MgTi4(CoO5)2
_symmetry_space_group_name_H-M   'P 1'
_cell_length_a   3.77929541
_cell_length_b   5.36053133
_cell_length_c   10.12090033
_cell_angle_alpha   90.00000000
_cell_angle_beta   90.00000000
_cell_angle_gamma   110.64766502
_symmetry_Int_Tables_number   1
_chemical_formula_structural   MgTi4(CoO5)2
_chemical_formula_sum   'Mg1 Ti4 Co2 O10'
_cell_volume   191.86922657
_cell_formula_units_Z   1
loop_
 _symmetry_equiv_pos_site_id
 _symmetry_equiv_pos_as_xyz
  1  'x, y, z'
loop_
 _atom_site_type_symbol
 _atom_site_label
 _atom_site_symmetry_multiplicity
 _atom_site_fract_x
 _atom_site_fract_y
 _atom_site_fract_z
 _atom_site_occupancy
  Mg  Mg0  1  0.54997657  0.10652586  0.25000000  1
  Ti  Ti0  1  0.12451980  0.24918518  0.56828501  1
  Ti  Ti1  1  0.12451980  0.24918518  0.93171499  1
  Ti  Ti2  1  0.85736783  0.71491080  0.05977463  1
  Ti  Ti3  1  0.85736783  0.71491080  0.44022537  1
  Co  Co0  1  0.29223012  0.58617932  0.25000000  1
  Co  Co1  1  0.80073396  0.60148312  0.75000000  1
  O  O0  1  0.03391540  0.06746054  0.11936281  1
  O  O1  1  0.30691094  0.61402225  0.04805493  1
  O  O2  1  0.03391540  0.06746054  0.38063719  1
  O  O3  1  0.30691094  0.61402225  0.45194507  1
  O  O4  1  0.20435714  0.40878173  0.75000000  1
  O  O5  1  0.75315988  0.50765943  0.25000000  1
  O  O6  1  0.67260155  0.34534752  0.55658543  1
  O  O7  1  0.94552715  0.89125898  0.88653877  1
  O  O8  1  0.67260155  0.34534752  0.94341457  1
  O  O9  1  0.94552715  0.89125898  0.61346123  1
loop_
_geom_bond_atom_site_label_1
_geom_bond_atom_site_label_2
_geom_bond_distance
_geom_bond_site_symmetry_2
Mg0 O5 2.012192 1_555
Mg0 O0 2.303865 1_555
Mg0 O2 2.303865 1_555
Mg0 O0 2.325325 1_655
Mg0 O2 2.325325 1_655
Co0 O5 1.929513 1_455
Co0 O5 1.931007 1_555
Co0 O3 2.048634 1_555
Co0 O1 2.048634 1_555
Co0 Mg0 2.610182 1_565
Co1 O7 2.005621 1_555
Co1 O9 2.005621 1_555
Co1 O4 2.122520 1_555
Co1 O4 2.122544 1_655
Co1 O8 2.341518 1_555
Co1 O6 2.341518 1_555
O0 Ti2 1.868468 1_445
O0 Ti1 2.106605 1_554
O1 Ti2 1.959824 1_555
O1 Ti2 1.959846 1_455
O1 Ti1 2.176162 1_554
O2 Ti3 1.868468 1_445
O2 Ti0 2.106605 1_555
O3 Ti3 1.959824 1_555
O3 Ti3 1.959846 1_455
O3 Ti0 2.176162 1_555
O4 Ti0 2.005809 1_555
O4 Ti1 2.005809 1_555
O5 Ti3 2.188013 1_555
O5 Ti2 2.188013 1_555
O6 Ti0 1.953783 1_555
O6 Ti0 1.953887 1_655
O6 Ti3 2.196246 1_555
O7 Ti1 1.852735 1_665
O7 Ti2 1.963819 1_556
O8 Ti1 1.953783 1_555
O8 Ti1 1.953887 1_655
O8 Ti2 2.196246 1_556
O9 Ti0 1.852735 1_665
O9 Ti3 1.963819 1_555
