# generated using pymatgen
data_P3BrCl14
_symmetry_space_group_name_H-M   'P 1'
_cell_length_a   8.75408749
_cell_length_b   8.75408749
_cell_length_c   8.75408749
_cell_angle_alpha   119.10300398
_cell_angle_beta   119.10300398
_cell_angle_gamma   91.56079357
_symmetry_Int_Tables_number   1
_chemical_formula_structural   P3BrCl14
_chemical_formula_sum   'P3 Br1 Cl14'
_cell_volume   480.60905573
_cell_formula_units_Z   1
loop_
 _symmetry_equiv_pos_site_id
 _symmetry_equiv_pos_as_xyz
  1  'x, y, z'
loop_
 _atom_site_type_symbol
 _atom_site_label
 _atom_site_symmetry_multiplicity
 _atom_site_fract_x
 _atom_site_fract_y
 _atom_site_fract_z
 _atom_site_occupancy
  P  P0  1  0.24806404  0.74806404  0.50000000  1
  P  P1  1  0.49821795  0.49821795  -0.00000000  1
  P  P2  1  0.74806404  0.24806404  0.50000000  1
  Br  Br0  1  -0.00240250  -0.00240250  -0.00000000  1
  Cl  Cl0  1  0.32261939  0.32261939  -0.00000000  1
  Cl  Cl1  1  0.51479513  0.88272130  0.71744780  1
  Cl  Cl2  1  0.88272130  0.16527249  0.36792617  1
  Cl  Cl3  1  0.79734632  0.51479513  0.63207383  1
  Cl  Cl4  1  0.16527249  0.79734632  0.28255220  1
  Cl  Cl5  1  0.19878138  0.48137213  0.36804740  1
  Cl  Cl6  1  0.48137213  0.11332473  0.28259075  1
  Cl  Cl7  1  0.83073299  0.19878138  0.71740925  1
  Cl  Cl8  1  0.11332473  0.83073299  0.63195260  1
  Cl  Cl9  1  0.38916925  0.28036370  0.67321871  1
  Cl  Cl10  1  0.28036370  0.60714599  0.89119445  1
  Cl  Cl11  1  0.71595053  0.38916925  0.10880555  1
  Cl  Cl12  1  0.60714599  0.71595053  0.32678129  1
  Cl  Cl13  1  0.67376215  0.67376215  -0.00000000  1
loop_
_geom_bond_atom_site_label_1
_geom_bond_atom_site_label_2
_geom_bond_distance
_geom_bond_site_symmetry_2
Cl0 P1 2.144126 1_555
Cl1 P0 1.951618 1_555
Cl2 P2 1.951619 1_555
Cl3 P2 1.951619 1_555
Cl4 P0 1.951611 1_555
Cl5 P0 1.951412 1_555
Cl6 P2 1.951412 1_555
Cl7 P2 1.951413 1_555
Cl8 P0 1.951411 1_555
Cl9 P1 2.160821 1_556
Cl10 P1 2.160827 1_556
Cl11 P1 2.160821 1_555
Cl12 P1 2.160819 1_555
Cl13 P1 2.143462 1_555
