# generated using pymatgen
data_BaEu2NiO5
_symmetry_space_group_name_H-M   'P 1'
_cell_length_a   6.79611241
_cell_length_b   6.79611241
_cell_length_c   6.79611241
_cell_angle_alpha   147.16727616
_cell_angle_beta   128.49417427
_cell_angle_gamma   62.43903704
_symmetry_Int_Tables_number   1
_chemical_formula_structural   BaEu2NiO5
_chemical_formula_sum   'Ba1 Eu2 Ni1 O5'
_cell_volume   131.84988856
_cell_formula_units_Z   1
loop_
 _symmetry_equiv_pos_site_id
 _symmetry_equiv_pos_as_xyz
  1  'x, y, z'
loop_
 _atom_site_type_symbol
 _atom_site_label
 _atom_site_symmetry_multiplicity
 _atom_site_fract_x
 _atom_site_fract_y
 _atom_site_fract_z
 _atom_site_occupancy
  Ba  Ba0  1  0.50000000  0.00000000  0.50000000  1
  Eu  Eu0  1  0.79517700  0.79517700  0.00000000  1
  Eu  Eu1  1  0.20482300  0.20482300  0.00000000  1
  Ni  Ni0  1  0.00000000  0.50000000  0.50000000  1
  O  O0  1  0.00000000  0.00000000  0.00000000  1
  O  O1  1  0.09949100  0.35916500  0.74032500  1
  O  O2  1  0.90050900  0.64083500  0.25967500  1
  O  O3  1  0.38116000  0.64083500  0.74032500  1
  O  O4  1  0.61884000  0.35916500  0.25967500  1
loop_
_geom_bond_atom_site_label_1
_geom_bond_atom_site_label_2
_geom_bond_distance
_geom_bond_site_symmetry_2
Ba0 O0 2.952850 1_555
Ba0 O0 2.952850 1_656
Ba0 O1 2.953092 1_555
Ba0 O2 2.953092 1_545
Ba0 O2 2.953095 1_556
Ba0 O1 2.953095 1_544
Ba0 O4 2.953098 1_545
Ba0 O3 2.953098 1_555
Ba0 O3 2.953098 1_544
Ba0 O4 2.953098 1_556
Eu0 O3 2.360181 1_554
Eu0 O2 2.360183 1_555
Eu0 O0 2.380843 1_665
Eu0 O4 2.501327 1_565
Eu0 O4 2.501327 1_554
Eu0 O1 2.501329 1_665
Eu0 O1 2.501332 1_654
Eu1 O4 2.360181 1_555
Eu1 O1 2.360183 1_554
Eu1 O0 2.380843 1_555
Eu1 O3 2.501327 1_555
Eu1 O3 2.501327 1_544
Eu1 O2 2.501329 1_444
Eu1 O2 2.501332 1_455
Ni0 O0 1.920686 1_566
Ni0 O0 1.920686 1_555
Ni0 O1 2.166635 1_555
Ni0 O2 2.166635 1_455
Ni0 O3 2.166637 1_555
Ni0 O4 2.166637 1_455
