# generated using pymatgen
data_MgCrCo3O8
_symmetry_space_group_name_H-M   'P 1'
_cell_length_a   5.86465485
_cell_length_b   5.84225029
_cell_length_c   5.86210283
_cell_angle_alpha   59.45243610
_cell_angle_beta   59.46051642
_cell_angle_gamma   59.50789004
_symmetry_Int_Tables_number   1
_chemical_formula_structural   MgCrCo3O8
_chemical_formula_sum   'Mg1 Cr1 Co3 O8'
_cell_volume   140.32319766
_cell_formula_units_Z   1
loop_
 _symmetry_equiv_pos_site_id
 _symmetry_equiv_pos_as_xyz
  1  'x, y, z'
loop_
 _atom_site_type_symbol
 _atom_site_label
 _atom_site_symmetry_multiplicity
 _atom_site_fract_x
 _atom_site_fract_y
 _atom_site_fract_z
 _atom_site_occupancy
  Mg  Mg0  1  0.00000000  0.50000000  0.00000000  1
  Cr  Cr0  1  0.50000000  0.50000000  0.50000000  1
  Co  Co0  1  0.00000000  0.50000000  0.50000000  1
  Co  Co1  1  0.50000000  0.00000000  0.50000000  1
  Co  Co2  1  0.50000000  0.50000000  0.00000000  1
  O  O0  1  0.25158600  0.28079900  0.25223000  1
  O  O1  1  0.24094600  0.27684900  0.71395000  1
  O  O2  1  0.25816100  0.69889700  0.25778400  1
  O  O3  1  0.71327500  0.27539400  0.24189400  1
  O  O4  1  0.28672500  0.72460600  0.75810600  1
  O  O5  1  0.74183900  0.30110300  0.74221600  1
  O  O6  1  0.75905400  0.72315100  0.28605000  1
  O  O7  1  0.74841400  0.71920100  0.74777000  1
loop_
_geom_bond_atom_site_label_1
_geom_bond_atom_site_label_2
_geom_bond_distance
_geom_bond_site_symmetry_2
Mg0 O7 2.092369 1_454
Mg0 O0 2.092369 1_555
Mg0 O1 2.110177 1_554
Mg0 O6 2.110177 1_455
Mg0 O3 2.117743 1_455
Mg0 O4 2.117743 1_554
Cr0 O1 1.998083 1_555
Cr0 O6 1.998083 1_555
Cr0 O3 2.001232 1_555
Cr0 O4 2.001232 1_555
Cr0 O2 2.018623 1_555
Cr0 O5 2.018623 1_555
Co0 O1 1.881182 1_555
Co0 O6 1.881182 1_455
Co0 O5 1.892660 1_455
Co0 O2 1.892660 1_555
Co0 O0 1.929228 1_555
Co0 O7 1.929228 1_455
Co1 O3 2.021594 1_555
Co1 O4 2.021594 1_545
Co1 O1 2.032012 1_555
Co1 O6 2.032012 1_545
Co1 O0 2.055777 1_555
Co1 O7 2.055777 1_545
Co2 O3 1.882149 1_555
Co2 O4 1.882149 1_554
Co2 O5 1.892016 1_554
Co2 O2 1.892016 1_555
Co2 O0 1.930842 1_555
Co2 O7 1.930842 1_554
