# generated using pymatgen
data_Na3Ta4Zn2(PO4)9
_symmetry_space_group_name_H-M   'P 1'
_cell_length_a   8.75393291
_cell_length_b   8.75393263
_cell_length_c   22.72909075
_cell_angle_alpha   90.00000000
_cell_angle_beta   90.00000000
_cell_angle_gamma   120.00000109
_symmetry_Int_Tables_number   1
_chemical_formula_structural   Na3Ta4Zn2(PO4)9
_chemical_formula_sum   'Na6 Ta8 Zn4 P18 O72'
_cell_volume   1508.40896032
_cell_formula_units_Z   2
loop_
 _symmetry_equiv_pos_site_id
 _symmetry_equiv_pos_as_xyz
  1  'x, y, z'
loop_
 _atom_site_type_symbol
 _atom_site_label
 _atom_site_symmetry_multiplicity
 _atom_site_fract_x
 _atom_site_fract_y
 _atom_site_fract_z
 _atom_site_occupancy
  Na  Na0  1  -0.00000000  -0.00000000  0.49344375  1
  Na  Na1  1  -0.00000000  -0.00000000  0.99344375  1
  Na  Na2  1  0.66666700  0.33333300  0.82302194  1
  Na  Na3  1  0.66666700  0.33333300  0.32302194  1
  Na  Na4  1  0.33333300  0.66666700  0.16729546  1
  Na  Na5  1  0.33333300  0.66666700  0.66729546  1
  Ta  Ta0  1  -0.00000000  -0.00000000  0.64891091  1
  Ta  Ta1  1  -0.00000000  -0.00000000  0.14891091  1
  Ta  Ta2  1  0.66666700  0.33333300  0.97869341  1
  Ta  Ta3  1  0.66666700  0.33333300  0.47869341  1
  Ta  Ta4  1  0.33333300  0.66666700  0.02013283  1
  Ta  Ta5  1  0.33333300  0.66666700  0.52013283  1
  Ta  Ta6  1  0.33333300  0.66666700  0.30952432  1
  Ta  Ta7  1  0.33333300  0.66666700  0.80952432  1
  Zn  Zn0  1  -0.00000000  -0.00000000  0.35210524  1
  Zn  Zn1  1  -0.00000000  -0.00000000  0.85210524  1
  Zn  Zn2  1  0.66666700  0.33333300  0.68556519  1
  Zn  Zn3  1  0.66666700  0.33333300  0.18556519  1
  P  P0  1  0.29262659  0.00644356  0.25266167  1
  P  P1  1  0.71381697  0.70737341  0.25266167  1
  P  P2  1  0.99355644  0.28618303  0.25266167  1
  P  P3  1  0.29262659  0.28618303  0.75266167  1
  P  P4  1  0.99355644  0.70737341  0.75266167  1
  P  P5  1  0.71381697  0.00644356  0.75266167  1
  P  P6  1  0.95381296  0.33199511  0.58453472  1
  P  P7  1  0.37818315  0.04618704  0.58453472  1
  P  P8  1  0.66800489  0.62181685  0.58453472  1
  P  P9  1  0.95381296  0.62181685  0.08453472  1
  P  P10  1  0.66800489  0.04618704  0.08453472  1
  P  P11  1  0.37818315  0.33199511  0.08453472  1
  P  P12  1  0.62369093  0.66886130  0.91628511  1
  P  P13  1  0.04516937  0.37630907  0.91628511  1
  P  P14  1  0.33113870  0.95483063  0.91628511  1
  P  P15  1  0.62369093  0.95483063  0.41628511  1
  P  P16  1  0.33113870  0.37630907  0.41628511  1
  P  P17  1  0.04516937  0.66886130  0.41628511  1
  O  O0  1  0.20803117  0.02699250  0.30707583  1
  O  O1  1  0.81896133  0.79196883  0.30707583  1
  O  O2  1  0.97300750  0.18103867  0.30707583  1
  O  O3  1  0.20803117  0.18103867  0.80707583  1
  O  O4  1  0.97300750  0.79196883  0.80707583  1
  O  O5  1  0.81896133  0.02699250  0.80707583  1
  O  O6  1  0.80122323  0.97132470  0.69549426  1
  O  O7  1  0.17010147  0.19877677  0.69549426  1
  O  O8  1  0.02867530  0.82989853  0.69549426  1
  O  O9  1  0.80122323  0.82989853  0.19549426  1
  O  O10  1  0.02867530  0.19877677  0.19549426  1
  O  O11  1  0.17010147  0.97132470  0.19549426  1
  O  O12  1  0.88409580  0.37175802  0.63853885  1
  O  O13  1  0.48766322  0.11590420  0.63853885  1
  O  O14  1  0.62824198  0.51233678  0.63853885  1
  O  O15  1  0.88409580  0.51233678  0.13853885  1
  O  O16  1  0.62824198  0.11590420  0.13853885  1
  O  O17  1  0.48766322  0.37175802  0.13853885  1
  O  O18  1  0.46699651  0.30497770  0.02814447  1
  O  O19  1  0.83798220  0.53300349  0.02814447  1
  O  O20  1  0.69502230  0.16201780  0.02814447  1
  O  O21  1  0.46699651  0.16201780  0.52814447  1
  O  O22  1  0.69502230  0.53300349  0.52814447  1
  O  O23  1  0.83798220  0.30497770  0.52814447  1
  O  O24  1  0.52424760  0.68304381  0.97133992  1
  O  O25  1  0.15879521  0.47575240  0.97133992  1
  O  O26  1  0.31695619  0.84120479  0.97133992  1
  O  O27  1  0.52424760  0.84120479  0.47133992  1
  O  O28  1  0.31695619  0.47575240  0.47133992  1
  O  O29  1  0.15879521  0.68304381  0.47133992  1
  O  O30  1  0.13305218  0.63630679  0.36188195  1
  O  O31  1  0.50325361  0.86694782  0.36188195  1
  O  O32  1  0.36369321  0.49674639  0.36188195  1
  O  O33  1  0.13305218  0.49674639  0.86188195  1
  O  O34  1  0.36369321  0.86694782  0.86188195  1
  O  O35  1  0.50325361  0.63630679  0.86188195  1
  O  O36  1  0.02573681  0.82886339  0.41424455  1
  O  O37  1  0.80312658  0.97426319  0.41424455  1
  O  O38  1  0.17113661  0.19687342  0.41424455  1
  O  O39  1  0.02573681  0.19687342  0.91424455  1
  O  O40  1  0.17113661  0.97426319  0.91424455  1
  O  O41  1  0.80312658  0.82886339  0.91424455  1
  O  O42  1  0.97534104  0.16583104  0.58940718  1
  O  O43  1  0.19049000  0.02465896  0.58940718  1
  O  O44  1  0.83416896  0.80951000  0.58940718  1
  O  O45  1  0.97534104  0.80951000  0.08940718  1
  O  O46  1  0.83416896  0.02465896  0.08940718  1
  O  O47  1  0.19049000  0.16583104  0.08940718  1
  O  O48  1  0.68191902  0.15771020  0.74296057  1
  O  O49  1  0.47579219  0.31808098  0.74296057  1
  O  O50  1  0.84228980  0.52420781  0.74296057  1
  O  O51  1  0.68191902  0.52420781  0.24296057  1
  O  O52  1  0.84228980  0.31808098  0.24296057  1
  O  O53  1  0.47579219  0.15771020  0.24296057  1
  O  O54  1  0.63238053  0.49497632  0.92529201  1
  O  O55  1  0.86259680  0.36761947  0.92529201  1
  O  O56  1  0.50502368  0.13740320  0.92529201  1
  O  O57  1  0.63238053  0.13740320  0.42529201  1
  O  O58  1  0.50502368  0.36761947  0.42529201  1
  O  O59  1  0.86259680  0.49497632  0.42529201  1
  O  O60  1  0.34940296  0.49276593  0.07199071  1
  O  O61  1  0.14336196  0.65059704  0.07199071  1
  O  O62  1  0.50723407  0.85663804  0.07199071  1
  O  O63  1  0.34940296  0.85663804  0.57199071  1
  O  O64  1  0.50723407  0.65059704  0.57199071  1
  O  O65  1  0.14336196  0.49276593  0.57199071  1
  O  O66  1  0.30025983  0.82698992  0.25725050  1
  O  O67  1  0.52672910  0.69974017  0.25725050  1
  O  O68  1  0.17301008  0.47327090  0.25725050  1
  O  O69  1  0.30025983  0.47327090  0.75725050  1
  O  O70  1  0.17301008  0.69974017  0.75725050  1
  O  O71  1  0.52672910  0.82698992  0.75725050  1
loop_
_geom_bond_atom_site_label_1
_geom_bond_atom_site_label_2
_geom_bond_distance
_geom_bond_site_symmetry_2
Na0 O38 2.423447 1_555
Na0 O36 2.423447 1_545
Na0 O37 2.423447 1_445
Na0 O44 2.687895 1_445
Na0 O42 2.687895 1_455
Na0 O43 2.687895 1_555
Na1 O39 2.423447 1_555
Na1 O41 2.423447 1_445
Na1 O40 2.423447 1_545
Na1 O45 2.687895 1_446
Na1 O47 2.687895 1_556
Na1 O46 2.687895 1_456
Na2 O50 2.428590 1_555
Na2 O49 2.428590 1_555
Na2 O48 2.428590 1_555
Na2 O54 2.814317 1_555
Na2 O56 2.814318 1_555
Na2 O55 2.814318 1_555
Na3 O51 2.428590 1_555
Na3 O53 2.428590 1_555
Na3 O52 2.428590 1_555
Na3 O58 2.814318 1_555
Na3 O59 2.814318 1_555
Na3 O57 2.814318 1_555
Na4 O66 2.576861 1_555
Na4 O68 2.576861 1_555
Na4 O67 2.576861 1_555
Na4 O60 2.691426 1_555
Na4 O62 2.691426 1_555
Na4 O61 2.691426 1_555
Na5 O70 2.576861 1_555
Na5 O71 2.576861 1_555
Na5 O69 2.576861 1_555
Na5 O64 2.691426 1_555
Na5 O65 2.691426 1_555
Na5 O63 2.691426 1_555
O0 P0 1.497868 1_555
O0 Zn0 1.997350 1_555
O1 P1 1.497868 1_555
O1 Zn0 1.997349 1_665
O2 P2 1.497868 1_555
O2 Zn0 1.997349 1_655
O3 P3 1.497868 1_555
O3 Zn1 1.997349 1_555
O4 P4 1.497868 1_555
O4 Zn1 1.997349 1_665
O5 P5 1.497868 1_555
O5 Zn1 1.997350 1_655
O6 P5 1.613548 1_565
O6 Ta0 1.942972 1_665
O7 P3 1.613548 1_555
O7 Ta0 1.942972 1_555
O8 P4 1.613548 1_455
O8 Ta0 1.942972 1_565
O9 P1 1.613548 1_555
O9 Ta1 1.942972 1_665
O10 P2 1.613548 1_455
O10 Ta1 1.942972 1_555
O11 P0 1.613548 1_565
O11 Ta1 1.942972 1_565
O12 P6 1.487525 1_555
O12 Zn2 2.058678 1_555
O13 P7 1.487525 1_555
O13 Zn2 2.058678 1_555
O14 P8 1.487525 1_555
O14 Zn2 2.058678 1_555
O15 P9 1.487525 1_555
O15 Zn3 2.058678 1_555
O16 P10 1.487525 1_555
O16 Zn3 2.058678 1_555
O17 P11 1.487525 1_555
O17 Zn3 2.058678 1_555
O18 P11 1.577029 1_555
O18 Ta2 1.986513 1_554
O19 P9 1.577029 1_555
O19 Ta2 1.986513 1_554
O20 P10 1.577029 1_555
O20 Ta2 1.986514 1_554
O21 P7 1.577029 1_555
O21 Ta3 1.986513 1_555
O22 P8 1.577029 1_555
O22 Ta3 1.986513 1_555
O23 P6 1.577029 1_555
O23 Ta3 1.986514 1_555
O24 P12 1.564341 1_555
O24 Ta4 1.950377 1_556
O25 P13 1.564341 1_555
O25 Ta4 1.950377 1_556
O26 P14 1.564341 1_555
O26 Ta4 1.950377 1_556
O27 P15 1.564341 1_555
O27 Ta5 1.950377 1_555
O28 P16 1.564341 1_555
O28 Ta5 1.950377 1_555
O29 P17 1.564341 1_555
O29 Ta5 1.950377 1_555
O30 P17 1.556061 1_555
O30 Ta6 2.023546 1_555
O31 P15 1.556061 1_555
O31 Ta6 2.023546 1_555
O32 P16 1.556061 1_555
O32 Ta6 2.023546 1_555
O33 P13 1.556061 1_555
O33 Ta7 2.023546 1_555
O34 P14 1.556061 1_555
O34 Ta7 2.023546 1_555
O35 P12 1.556061 1_555
O35 Ta7 2.023546 1_555
O36 P17 1.493710 1_555
O36 Zn0 2.151146 1_565
O37 P15 1.493718 1_555
O37 Zn0 2.151146 1_665
O38 P16 1.493715 1_555
O38 Zn0 2.151146 1_555
O39 P13 1.493718 1_555
O39 Zn1 2.151146 1_555
O40 P14 1.493710 1_555
O40 Zn1 2.151146 1_565
O41 P12 1.493715 1_555
O41 Zn1 2.151146 1_665
O42 P6 1.561325 1_555
O42 Ta0 2.072795 1_655
O43 P7 1.561333 1_555
O43 Ta0 2.072795 1_555
O44 P8 1.561330 1_555
O44 Ta0 2.072795 1_665
O45 P9 1.561333 1_555
O45 Ta1 2.072795 1_665
O46 P10 1.561325 1_555
O46 Ta1 2.072795 1_655
O47 P11 1.561330 1_555
O47 Ta1 2.072795 1_555
O48 P5 1.499930 1_555
O48 Zn2 2.070869 1_555
O49 P3 1.499939 1_555
O49 Zn2 2.070869 1_555
O50 P4 1.499936 1_555
O50 Zn2 2.070869 1_555
O51 P1 1.499939 1_555
O51 Zn3 2.070869 1_555
O52 P2 1.499930 1_555
O52 Zn3 2.070869 1_555
O53 P0 1.499936 1_555
O53 Zn3 2.070869 1_555
O54 P12 1.574963 1_555
O54 Ta2 1.997569 1_555
O55 P13 1.574946 1_655
O55 Ta2 1.997569 1_555
O56 P14 1.574954 1_545
O56 Ta2 1.997569 1_555
O57 P15 1.574946 1_545
O57 Ta3 1.997569 1_555
O58 P16 1.574963 1_555
O58 Ta3 1.997569 1_555
O59 P17 1.574954 1_655
O59 Ta3 1.997569 1_555
O60 P11 1.574817 1_555
O60 Ta4 1.985116 1_555
O61 P9 1.574800 1_455
O61 Ta4 1.985117 1_555
O62 P10 1.574806 1_565
O62 Ta4 1.985117 1_555
O63 P7 1.574800 1_565
O63 Ta5 1.985117 1_555
O64 P8 1.574817 1_555
O64 Ta5 1.985117 1_555
O65 P6 1.574806 1_455
O65 Ta5 1.985117 1_555
O66 P0 1.608763 1_565
O66 Ta6 1.967615 1_555
O67 P1 1.608772 1_555
O67 Ta6 1.967615 1_555
O68 P2 1.608768 1_455
O68 Ta6 1.967615 1_555
O69 P3 1.608772 1_555
O69 Ta7 1.967615 1_555
O70 P4 1.608763 1_455
O70 Ta7 1.967615 1_555
O71 P5 1.608768 1_565
O71 Ta7 1.967615 1_555
