# generated using pymatgen
data_MgV4(PbO6)2
_symmetry_space_group_name_H-M   'P 1'
_cell_length_a   3.72450554
_cell_length_b   8.86468428
_cell_length_c   9.81342266
_cell_angle_alpha   104.80982428
_cell_angle_beta   89.96980381
_cell_angle_gamma   102.08428212
_symmetry_Int_Tables_number   1
_chemical_formula_structural   MgV4(PbO6)2
_chemical_formula_sum   'Mg1 V4 Pb2 O12'
_cell_volume   305.81921130
_cell_formula_units_Z   1
loop_
 _symmetry_equiv_pos_site_id
 _symmetry_equiv_pos_as_xyz
  1  'x, y, z'
loop_
 _atom_site_type_symbol
 _atom_site_label
 _atom_site_symmetry_multiplicity
 _atom_site_fract_x
 _atom_site_fract_y
 _atom_site_fract_z
 _atom_site_occupancy
  Mg  Mg0  1  0.24334000  0.48534900  0.44530000  1
  V  V0  1  0.58732200  0.17478200  0.83539200  1
  V  V1  1  0.40651100  0.81200900  0.16167300  1
  V  V2  1  0.85216900  0.70320500  0.36473800  1
  V  V3  1  0.16652700  0.33318000  0.65767200  1
  Pb  Pb0  1  0.86667100  0.73524200  0.75888400  1
  Pb  Pb1  1  0.09759800  0.19776400  0.17991200  1
  O  O0  1  0.66759800  0.33560400  0.72230200  1
  O  O1  1  0.34092300  0.68051500  0.29959100  1
  O  O2  1  0.90895400  0.81698900  0.21236500  1
  O  O3  1  0.09756800  0.19526800  0.79106700  1
  O  O4  1  0.62645000  0.25342900  0.01527400  1
  O  O5  1  0.35549200  0.70929600  0.99493700  1
  O  O6  1  0.12952800  0.25853600  0.47804800  1
  O  O7  1  0.90279100  0.80500100  0.53675800  1
  O  O8  1  0.48694700  0.97372500  0.80259600  1
  O  O9  1  0.74341700  0.48523300  0.36728100  1
  O  O10  1  0.27862500  0.55745600  0.65756600  1
  O  O11  1  0.50942800  0.01866400  0.17003400  1
loop_
_geom_bond_atom_site_label_1
_geom_bond_atom_site_label_2
_geom_bond_distance
_geom_bond_site_symmetry_2
Mg0 O10 2.012312 1_555
Mg0 O9 2.013309 1_455
Mg0 O9 2.013491 1_555
Mg0 O6 2.073381 1_555
Mg0 O1 2.484106 1_555
O0 V3 1.965470 1_555
O0 V3 1.965802 1_655
O0 V0 1.995873 1_555
O1 V2 1.961952 1_455
O1 V2 1.962169 1_555
O1 V1 1.984238 1_555
O2 V1 1.925007 1_655
O2 V1 1.925237 1_555
O2 V2 1.994855 1_555
O3 V0 1.931003 1_455
O3 V0 1.931169 1_555
O3 V3 1.990115 1_555
O4 V0 1.718139 1_554
O4 Pb1 2.589648 1_655
O4 Pb1 2.594395 1_555
O5 V1 1.645817 1_556
O6 V3 1.711674 1_555
O7 V2 1.688162 1_555
O7 Pb0 2.409581 1_555
O8 V0 1.687559 1_565
O8 Pb0 2.727848 1_555
O8 Pb0 2.735500 1_455
O9 V2 1.896109 1_555
O10 V3 1.944353 1_555
O10 Pb0 2.454641 1_555
O10 Pb0 2.456897 1_455
O11 V1 1.771669 1_545
O11 Pb1 2.407134 1_655
O11 Pb1 2.413218 1_555
