# generated using pymatgen
data_NaTa3Zn(PO4)6
_symmetry_space_group_name_H-M   'P 1'
_cell_length_a   8.74548674
_cell_length_b   8.74548646
_cell_length_c   22.69696742
_cell_angle_alpha   90.00000000
_cell_angle_beta   90.00000000
_cell_angle_gamma   120.00000107
_symmetry_Int_Tables_number   1
_chemical_formula_structural   NaTa3Zn(PO4)6
_chemical_formula_sum   'Na3 Ta9 Zn3 P18 O72'
_cell_volume   1503.37186582
_cell_formula_units_Z   3
loop_
 _symmetry_equiv_pos_site_id
 _symmetry_equiv_pos_as_xyz
  1  'x, y, z'
loop_
 _atom_site_type_symbol
 _atom_site_label
 _atom_site_symmetry_multiplicity
 _atom_site_fract_x
 _atom_site_fract_y
 _atom_site_fract_z
 _atom_site_occupancy
  Na  Na0  1  -0.00000000  0.00000000  0.98595979  1
  Na  Na1  1  0.66666700  0.33333300  0.84305642  1
  Na  Na2  1  0.66666700  0.33333300  0.34250298  1
  Ta  Ta0  1  -0.00000000  0.00000000  0.36037078  1
  Ta  Ta1  1  -0.00000000  0.00000000  0.64693787  1
  Ta  Ta2  1  -0.00000000  -0.00000000  0.14363233  1
  Ta  Ta3  1  0.66666700  0.33333300  0.68755383  1
  Ta  Ta4  1  0.66666700  0.33333300  0.18466131  1
  Ta  Ta5  1  0.33333300  0.66666700  0.01861833  1
  Ta  Ta6  1  0.33333300  0.66666700  0.52662170  1
  Ta  Ta7  1  0.33333300  0.66666700  0.31121488  1
  Ta  Ta8  1  0.33333300  0.66666700  0.81146742  1
  Zn  Zn0  1  -0.00000000  -0.00000000  0.85418286  1
  Zn  Zn1  1  0.66666700  0.33333300  0.97591013  1
  Zn  Zn2  1  0.66666700  0.33333300  0.48245208  1
  P  P0  1  0.28625371  0.00251473  0.25105999  1
  P  P1  1  0.71626102  0.71374629  0.25105999  1
  P  P2  1  0.99748527  0.28373898  0.25105999  1
  P  P3  1  0.28639703  0.28533744  0.75215785  1
  P  P4  1  0.99894041  0.71360297  0.75215785  1
  P  P5  1  0.71466256  0.00105959  0.75215785  1
  P  P6  1  0.94894977  0.32821549  0.58133325  1
  P  P7  1  0.37926673  0.05105024  0.58133325  1
  P  P8  1  0.67178451  0.62073327  0.58133325  1
  P  P9  1  0.95442023  0.61939957  0.08083661  1
  P  P10  1  0.66498034  0.04557977  0.08083661  1
  P  P11  1  0.38060043  0.33501966  0.08083661  1
  P  P12  1  0.62609700  0.66682839  0.91576008  1
  P  P13  1  0.04073039  0.37390300  0.91576008  1
  P  P14  1  0.33317161  0.95926961  0.91576008  1
  P  P15  1  0.61606228  0.95506745  0.41714428  1
  P  P16  1  0.33900418  0.38393772  0.41714428  1
  P  P17  1  0.04493255  0.66099582  0.41714428  1
  O  O0  1  0.19917193  0.03222288  0.30539970  1
  O  O1  1  0.83305095  0.80082807  0.30539970  1
  O  O2  1  0.96777712  0.16694905  0.30539970  1
  O  O3  1  0.21806179  0.17321810  0.80564141  1
  O  O4  1  0.95515630  0.78193821  0.80564141  1
  O  O5  1  0.82678190  0.04484370  0.80564141  1
  O  O6  1  0.80117712  0.97386380  0.69570211  1
  O  O7  1  0.17268668  0.19882288  0.69570211  1
  O  O8  1  0.02613620  0.82731332  0.69570211  1
  O  O9  1  0.80181327  0.82809613  0.19628793  1
  O  O10  1  0.02628286  0.19818673  0.19628793  1
  O  O11  1  0.17190387  0.97371714  0.19628793  1
  O  O12  1  0.86660329  0.36389979  0.63652926  1
  O  O13  1  0.49729749  0.13339671  0.63652926  1
  O  O14  1  0.63610021  0.50270251  0.63652926  1
  O  O15  1  0.86408434  0.50545982  0.13876720  1
  O  O16  1  0.64137648  0.13591566  0.13876720  1
  O  O17  1  0.49454018  0.35862352  0.13876720  1
  O  O18  1  0.45089913  0.28831701  0.02893772  1
  O  O19  1  0.83741888  0.54910087  0.02893772  1
  O  O20  1  0.71168299  0.16258112  0.02893772  1
  O  O21  1  0.44883638  0.15665704  0.52635470  1
  O  O22  1  0.70782166  0.55116362  0.52635470  1
  O  O23  1  0.84334296  0.29217834  0.52635470  1
  O  O24  1  0.52360807  0.68359545  0.97214548  1
  O  O25  1  0.15998638  0.47639193  0.97214548  1
  O  O26  1  0.31640455  0.84001362  0.97214548  1
  O  O27  1  0.53102672  0.83580360  0.47101288  1
  O  O28  1  0.30477588  0.46897328  0.47101288  1
  O  O29  1  0.16419640  0.69522412  0.47101288  1
  O  O30  1  0.14358982  0.64725280  0.36102699  1
  O  O31  1  0.50366198  0.85641018  0.36102699  1
  O  O32  1  0.35274720  0.49633802  0.36102699  1
  O  O33  1  0.14433149  0.49384284  0.86127928  1
  O  O34  1  0.34951036  0.85566851  0.86127928  1
  O  O35  1  0.50615716  0.65048964  0.86127928  1
  O  O36  1  0.03663995  0.83508530  0.40571297  1
  O  O37  1  0.79844535  0.96336005  0.40571297  1
  O  O38  1  0.16491470  0.20155465  0.40571297  1
  O  O39  1  0.03887485  0.20104837  0.91463341  1
  O  O40  1  0.16217352  0.96112515  0.91463341  1
  O  O41  1  0.79895163  0.83782648  0.91463341  1
  O  O42  1  0.98159119  0.17407997  0.59641943  1
  O  O43  1  0.19248878  0.01840881  0.59641943  1
  O  O44  1  0.82592003  0.80751122  0.59641943  1
  O  O45  1  0.98087983  0.80795771  0.09665754  1
  O  O46  1  0.82707788  0.01912017  0.09665754  1
  O  O47  1  0.19204229  0.17292212  0.09665754  1
  O  O48  1  0.68536794  0.16134297  0.73741258  1
  O  O49  1  0.47597603  0.31463206  0.73741258  1
  O  O50  1  0.83865703  0.52402397  0.73741258  1
  O  O51  1  0.69414412  0.52757737  0.24248884  1
  O  O52  1  0.83343425  0.30585588  0.24248884  1
  O  O53  1  0.47242263  0.16656575  0.24248884  1
  O  O54  1  0.62753395  0.49565893  0.91925821  1
  O  O55  1  0.86812598  0.37246605  0.91925821  1
  O  O56  1  0.50434107  0.13187402  0.91925821  1
  O  O57  1  0.63875848  0.13620584  0.41855949  1
  O  O58  1  0.49744836  0.36124152  0.41855949  1
  O  O59  1  0.86379416  0.50255164  0.41855949  1
  O  O60  1  0.35790023  0.49733086  0.07702494  1
  O  O61  1  0.13942964  0.64209977  0.07702494  1
  O  O62  1  0.50266914  0.86057036  0.07702494  1
  O  O63  1  0.35856694  0.86184110  0.57349009  1
  O  O64  1  0.50327316  0.64143306  0.57349009  1
  O  O65  1  0.13815890  0.49672684  0.57349009  1
  O  O66  1  0.30676743  0.83890897  0.26027258  1
  O  O67  1  0.53214054  0.69323257  0.26027258  1
  O  O68  1  0.16109103  0.46785946  0.26027258  1
  O  O69  1  0.30940644  0.47210065  0.75786763  1
  O  O70  1  0.16269320  0.69059356  0.75786763  1
  O  O71  1  0.52789935  0.83730680  0.75786763  1
loop_
_geom_bond_atom_site_label_1
_geom_bond_atom_site_label_2
_geom_bond_distance
_geom_bond_site_symmetry_2
Na0 O39 2.286946 1_555
Na0 O41 2.286946 1_445
Na0 O40 2.286946 1_545
Na1 O56 2.368467 1_555
Na1 O54 2.368467 1_555
Na1 O55 2.368467 1_555
Na1 O50 2.878297 1_555
Na1 O48 2.878297 1_555
Na1 O49 2.878297 1_555
Na2 O57 2.364492 1_555
Na2 O59 2.364492 1_555
Na2 O58 2.364493 1_555
Na2 O51 2.772779 1_555
Na2 O53 2.772779 1_555
Na2 O52 2.772779 1_555
O0 P0 1.538345 1_555
O0 Ta0 2.044336 1_555
O1 P1 1.538345 1_555
O1 Ta0 2.044336 1_665
O2 P2 1.538345 1_555
O2 Ta0 2.044336 1_655
O3 P3 1.485330 1_555
O3 Zn0 2.063153 1_555
O4 P4 1.485330 1_555
O4 Zn0 2.063153 1_665
O5 P5 1.485330 1_555
O5 Zn0 2.063153 1_655
O6 P5 1.565536 1_565
O6 Ta1 1.975663 1_665
O7 P3 1.565536 1_555
O7 Ta1 1.975663 1_555
O8 P4 1.565536 1_455
O8 Ta1 1.975663 1_565
O9 P1 1.535286 1_555
O9 Ta2 2.021602 1_665
O10 P2 1.535286 1_455
O10 Ta2 2.021602 1_555
O11 P0 1.535286 1_565
O11 Ta2 2.021602 1_565
O12 P6 1.552492 1_555
O12 Ta3 2.000658 1_555
O13 P7 1.552492 1_555
O13 Ta3 2.000658 1_555
O14 P8 1.552491 1_555
O14 Ta3 2.000658 1_555
O15 P9 1.599585 1_555
O15 Ta4 1.932082 1_555
O16 P10 1.599585 1_555
O16 Ta4 1.932082 1_555
O17 P11 1.599585 1_555
O17 Ta4 1.932082 1_555
O18 P11 1.477654 1_555
O18 Zn1 2.102718 1_554
O19 P9 1.477654 1_555
O19 Zn1 2.102718 1_554
O20 P10 1.477654 1_555
O20 Zn1 2.102718 1_554
O21 P7 1.489421 1_555
O21 Zn2 2.016425 1_555
O22 P8 1.489421 1_555
O22 Zn2 2.016425 1_555
O23 P6 1.489421 1_555
O23 Zn2 2.016425 1_555
O24 P12 1.610635 1_555
O24 Ta5 1.912382 1_556
O25 P13 1.610635 1_555
O25 Ta5 1.912382 1_556
O26 P14 1.610635 1_555
O26 Ta5 1.912382 1_556
O27 P15 1.536281 1_555
O27 Ta6 2.052510 1_555
O28 P16 1.536281 1_555
O28 Ta6 2.052510 1_555
O29 P17 1.536281 1_555
O29 Ta6 2.052510 1_555
O30 P17 1.576348 1_555
O30 Ta7 1.943939 1_555
O31 P15 1.576348 1_555
O31 Ta7 1.943939 1_555
O32 P16 1.576348 1_555
O32 Ta7 1.943939 1_555
O33 P13 1.581091 1_555
O33 Ta8 1.948457 1_555
O34 P14 1.581091 1_555
O34 Ta8 1.948457 1_555
O35 P12 1.581091 1_555
O35 Ta8 1.948457 1_555
O36 P17 1.581452 1_555
O36 Ta0 1.924590 1_565
O37 P15 1.581461 1_555
O37 Ta0 1.924590 1_665
O38 P16 1.581457 1_555
O38 Ta0 1.924590 1_555
O39 P13 1.503867 1_555
O39 Zn0 2.119390 1_555
O40 P14 1.503858 1_555
O40 Zn0 2.119390 1_565
O41 P12 1.503863 1_555
O41 Zn0 2.119390 1_665
O42 P6 1.549392 1_555
O42 Ta1 1.975725 1_655
O43 P7 1.549401 1_555
O43 Ta1 1.975725 1_555
O44 P8 1.549398 1_555
O44 Ta1 1.975725 1_665
O45 P9 1.587517 1_555
O45 Ta2 1.924735 1_665
O46 P10 1.587508 1_555
O46 Ta2 1.924735 1_655
O47 P11 1.587514 1_555
O47 Ta2 1.924735 1_555
O48 P5 1.581672 1_555
O48 Ta3 1.953404 1_555
O49 P3 1.581681 1_555
O49 Ta3 1.953405 1_555
O50 P4 1.581677 1_555
O50 Ta3 1.953404 1_555
O51 P1 1.552795 1_555
O51 Ta4 2.063493 1_555
O52 P2 1.552786 1_555
O52 Ta4 2.063493 1_555
O53 P0 1.552791 1_555
O53 Ta4 2.063493 1_555
O54 P12 1.505378 1_555
O54 Zn1 2.066795 1_555
O55 P13 1.505361 1_655
O55 Zn1 2.066795 1_555
O56 P14 1.505369 1_545
O56 Zn1 2.066795 1_555
O57 P15 1.495160 1_545
O57 Zn2 2.171144 1_555
O58 P16 1.495178 1_555
O58 Zn2 2.171144 1_555
O59 P17 1.495167 1_655
O59 Zn2 2.171144 1_555
O60 P11 1.530899 1_555
O60 Ta5 2.077220 1_555
O61 P9 1.530882 1_455
O61 Ta5 2.077220 1_555
O62 P10 1.530889 1_565
O62 Ta5 2.077220 1_555
O63 P7 1.582095 1_565
O63 Ta6 1.927980 1_555
O64 P8 1.582112 1_555
O64 Ta6 1.927980 1_555
O65 P6 1.582102 1_455
O65 Ta6 1.927980 1_555
O66 P0 1.542667 1_565
O66 Ta7 2.002469 1_555
O67 P1 1.542676 1_555
O67 Ta7 2.002469 1_555
O68 P2 1.542672 1_455
O68 Ta7 2.002469 1_555
O69 P3 1.548030 1_555
O69 Ta8 2.015713 1_555
O70 P4 1.548022 1_455
O70 Ta8 2.015713 1_555
O71 P5 1.548027 1_565
O71 Ta8 2.015713 1_555
