# generated using pymatgen
data_Na6MgV2(S3O)2
_symmetry_space_group_name_H-M   'P 1'
_cell_length_a   5.79833758
_cell_length_b   7.88352477
_cell_length_c   7.88352571
_cell_angle_alpha   99.23469598
_cell_angle_beta   90.74502041
_cell_angle_gamma   89.25497476
_symmetry_Int_Tables_number   1
_chemical_formula_structural   Na6MgV2(S3O)2
_chemical_formula_sum   'Na6 Mg1 V2 S6 O2'
_cell_volume   355.64406836
_cell_formula_units_Z   1
loop_
 _symmetry_equiv_pos_site_id
 _symmetry_equiv_pos_as_xyz
  1  'x, y, z'
loop_
 _atom_site_type_symbol
 _atom_site_label
 _atom_site_symmetry_multiplicity
 _atom_site_fract_x
 _atom_site_fract_y
 _atom_site_fract_z
 _atom_site_occupancy
  Na  Na0  1  0.48479900  0.11102100  0.88897900  1
  Na  Na1  1  0.47365400  0.16553000  0.41219900  1
  Na  Na2  1  0.47365400  0.58780100  0.83447000  1
  Na  Na3  1  0.03852400  0.40243200  0.11818400  1
  Na  Na4  1  0.93537000  0.87608000  0.12392000  1
  Na  Na5  1  0.03852400  0.88181600  0.59756800  1
  Mg  Mg0  1  0.83132400  0.54145300  0.45854700  1
  V  V0  1  0.36735400  0.69821700  0.30178300  1
  V  V1  1  0.86653400  0.29238200  0.70761800  1
  S  S0  1  0.54283700  0.44160900  0.20388200  1
  S  S1  1  0.00056800  0.11482400  0.88517600  1
  S  S2  1  0.54283700  0.79611800  0.55839100  1
  S  S3  1  0.97998300  0.21928300  0.42521300  1
  S  S4  1  0.97998300  0.57478700  0.78071700  1
  S  S5  1  0.44469300  0.87896200  0.12103800  1
  O  O0  1  0.57225600  0.30288200  0.69711800  1
  O  O1  1  0.06797700  0.66480200  0.33519800  1
loop_
_geom_bond_atom_site_label_1
_geom_bond_atom_site_label_2
_geom_bond_distance
_geom_bond_site_symmetry_2
Na0 O0 2.367887 1_555
Na0 S5 2.800738 1_546
Na0 S1 2.807327 1_555
Na0 S1 2.991731 1_655
Na0 S2 3.315575 1_545
Na0 S0 3.315575 1_556
Na1 O0 2.397228 1_555
Na1 S3 2.888941 1_455
Na1 S5 2.955715 1_545
Na1 S0 2.963458 1_555
Na1 S3 2.969845 1_555
Na1 S2 3.317434 1_545
Na2 O0 2.397228 1_555
Na2 S4 2.888941 1_455
Na2 S5 2.955715 1_556
Na2 S2 2.963458 1_555
Na2 S4 2.969845 1_555
Na2 S0 3.317434 1_556
Na3 O1 2.469862 1_555
Na3 S1 2.688745 1_554
Na3 S0 2.961937 1_455
Na3 S0 3.001296 1_555
Na3 S3 3.035528 1_455
Na3 S4 3.188119 1_454
Na4 O1 2.638858 1_655
Na4 S5 2.844731 1_555
Na4 S1 2.898593 1_664
Na4 S5 2.954020 1_655
Na4 S3 3.311922 1_565
Na4 S4 3.311922 1_554
Na5 O1 2.469862 1_555
Na5 S1 2.688745 1_565
Na5 S2 2.961937 1_455
Na5 S2 3.001296 1_555
Na5 S4 3.035528 1_455
Na5 S3 3.188118 1_465
Mg0 O1 2.036428 1_655
Mg0 S2 2.624506 1_555
Mg0 S0 2.624506 1_555
Mg0 S3 2.645290 1_555
Mg0 S4 2.645290 1_555
S0 V0 2.277983 1_555
S1 V1 2.257230 1_455
S2 V0 2.277983 1_555
S3 V1 2.310385 1_555
S4 V1 2.310385 1_555
S5 V0 2.224121 1_555
O0 V1 1.708829 1_555
O1 V0 1.788339 1_555
