# generated using pymatgen
data_Na2Ca3Ge(SO4)6
_symmetry_space_group_name_H-M   'P 1'
_cell_length_a   9.02380581
_cell_length_b   9.02380550
_cell_length_c   23.50657525
_cell_angle_alpha   90.00000000
_cell_angle_beta   90.00000000
_cell_angle_gamma   120.00000111
_symmetry_Int_Tables_number   1
_chemical_formula_structural   Na2Ca3Ge(SO4)6
_chemical_formula_sum   'Na6 Ca9 Ge3 S18 O72'
_cell_volume   1657.67525114
_cell_formula_units_Z   3
loop_
 _symmetry_equiv_pos_site_id
 _symmetry_equiv_pos_as_xyz
  1  'x, y, z'
loop_
 _atom_site_type_symbol
 _atom_site_label
 _atom_site_symmetry_multiplicity
 _atom_site_fract_x
 _atom_site_fract_y
 _atom_site_fract_z
 _atom_site_occupancy
  Na  Na0  1  0.00000000  0.00000000  0.50047201  1
  Na  Na1  1  0.00000000  0.00000000  0.99762966  1
  Na  Na2  1  0.66666700  0.33333300  0.83093320  1
  Na  Na3  1  0.66666700  0.33333300  0.33575102  1
  Na  Na4  1  0.33333300  0.66666700  0.16867711  1
  Na  Na5  1  0.33333300  0.66666700  0.65358063  1
  Ca  Ca0  1  0.00000000  0.00000000  0.64247065  1
  Ca  Ca1  1  0.00000000  0.00000000  0.14531148  1
  Ca  Ca2  1  0.66666700  0.33333300  0.68181101  1
  Ca  Ca3  1  0.66666700  0.33333300  0.18673547  1
  Ca  Ca4  1  0.66666700  0.33333300  0.98137762  1
  Ca  Ca5  1  0.66666700  0.33333300  0.48085863  1
  Ca  Ca6  1  0.33333300  0.66666700  0.51035692  1
  Ca  Ca7  1  0.33333300  0.66666700  0.31841605  1
  Ca  Ca8  1  0.33333300  0.66666700  0.81371993  1
  Ge  Ge0  1  0.00000000  0.00000000  0.34985877  1
  Ge  Ge1  1  0.00000000  0.00000000  0.84613288  1
  Ge  Ge2  1  0.33333300  0.66666700  0.01583403  1
  S  S0  1  0.28833919  0.00827811  0.25493430  1
  S  S1  1  0.71993892  0.71166081  0.25493430  1
  S  S2  1  0.99172189  0.28006108  0.25493430  1
  S  S3  1  0.28937991  0.27881206  0.75627469  1
  S  S4  1  0.98943215  0.71062009  0.75627469  1
  S  S5  1  0.72118794  0.01056785  0.75627469  1
  S  S6  1  0.97443848  0.34058098  0.58230765  1
  S  S7  1  0.36614350  0.02556152  0.58230765  1
  S  S8  1  0.65941902  0.63385650  0.58230765  1
  S  S9  1  0.98770786  0.63556182  0.07687221  1
  S  S10  1  0.64785495  0.01229214  0.07687221  1
  S  S11  1  0.36443818  0.35214505  0.07687221  1
  S  S12  1  0.64069729  0.68820725  0.91729227  1
  S  S13  1  0.04750896  0.35930271  0.91729227  1
  S  S14  1  0.31179275  0.95249104  0.91729227  1
  S  S15  1  0.65924729  0.97533258  0.41001039  1
  S  S16  1  0.31608429  0.34075271  0.41001039  1
  S  S17  1  0.02466742  0.68391571  0.41001039  1
  O  O0  1  0.19616398  0.02264365  0.30765026  1
  O  O1  1  0.82647966  0.80383602  0.30765026  1
  O  O2  1  0.97735635  0.17352034  0.30765026  1
  O  O3  1  0.19988906  0.17196226  0.81283897  1
  O  O4  1  0.97207320  0.80011094  0.81283897  1
  O  O5  1  0.82803774  0.02792680  0.81283897  1
  O  O6  1  0.81221003  0.00446551  0.70618904  1
  O  O7  1  0.19225548  0.18778997  0.70618904  1
  O  O8  1  -0.00446551  0.80774452  0.70618904  1
  O  O9  1  0.80539762  0.80487273  0.20257755  1
  O  O10  1  -0.00052489  0.19460238  0.20257755  1
  O  O11  1  0.19512727  0.00052489  0.20257755  1
  O  O12  1  0.88858296  0.34284890  0.63579516  1
  O  O13  1  0.45426694  0.11141704  0.63579516  1
  O  O14  1  0.65715110  0.54573306  0.63579516  1
  O  O15  1  0.91580542  0.53960548  0.13000351  1
  O  O16  1  0.62380106  0.08419458  0.13000351  1
  O  O17  1  0.46039452  0.37619894  0.13000351  1
  O  O18  1  0.44888418  0.33328111  0.02663483  1
  O  O19  1  0.88439794  0.55111582  0.02663483  1
  O  O20  1  0.66671889  0.11560206  0.02663483  1
  O  O21  1  0.45998941  0.12118412  0.53154387  1
  O  O22  1  0.66119571  0.54001059  0.53154387  1
  O  O23  1  0.87881588  0.33880429  0.53154387  1
  O  O24  1  0.55745195  0.71241292  0.97124445  1
  O  O25  1  0.15495997  0.44254805  0.97124445  1
  O  O26  1  0.28758708  0.84504003  0.97124445  1
  O  O27  1  0.58592542  0.87681323  0.46267752  1
  O  O28  1  0.29088681  0.41407458  0.46267752  1
  O  O29  1  0.12318677  0.70911319  0.46267752  1
  O  O30  1  0.10886497  0.66386135  0.35970458  1
  O  O31  1  0.55499538  0.89113503  0.35970458  1
  O  O32  1  0.33613865  0.44500462  0.35970458  1
  O  O33  1  0.12922943  0.46086250  0.86689915  1
  O  O34  1  0.33163207  0.87077057  0.86689915  1
  O  O35  1  0.53913750  0.66836793  0.86689915  1
  O  O36  1  0.01850504  0.85153123  0.40435740  1
  O  O37  1  0.83302619  0.98149496  0.40435740  1
  O  O38  1  0.14846877  0.16697381  0.40435740  1
  O  O39  1  0.03519307  0.18451253  0.91409509  1
  O  O40  1  0.14931947  0.96480693  0.91409509  1
  O  O41  1  0.81548747  0.85068053  0.91409509  1
  O  O42  1  0.99260462  0.18540093  0.58022709  1
  O  O43  1  0.19279631  0.00739538  0.58022709  1
  O  O44  1  0.81459907  0.80720369  0.58022709  1
  O  O45  1  0.02332516  0.81457230  0.08003984  1
  O  O46  1  0.79124714  0.97667484  0.08003984  1
  O  O47  1  0.18542770  0.20875286  0.08003984  1
  O  O48  1  0.70376443  0.16421433  0.75923788  1
  O  O49  1  0.46045090  0.29623557  0.75923788  1
  O  O50  1  0.83578567  0.53954910  0.75923788  1
  O  O51  1  0.70512665  0.54067389  0.25536806  1
  O  O52  1  0.83554824  0.29487335  0.25536806  1
  O  O53  1  0.45932611  0.16445176  0.25536806  1
  O  O54  1  0.66446831  0.53828896  0.92327137  1
  O  O55  1  0.87382165  0.33553169  0.92327137  1
  O  O56  1  0.46171104  0.12617835  0.92327137  1
  O  O57  1  0.69364901  0.15283701  0.41365365  1
  O  O58  1  0.45918900  0.30635099  0.41365365  1
  O  O59  1  0.84716299  0.54081100  0.41365365  1
  O  O60  1  0.35938876  0.52173896  0.07088327  1
  O  O61  1  0.16234921  0.64061124  0.07088327  1
  O  O62  1  0.47826104  0.83765079  0.07088327  1
  O  O63  1  0.34777066  0.85196556  0.58216100  1
  O  O64  1  0.50419390  0.65222934  0.58216100  1
  O  O65  1  0.14803444  0.49580610  0.58216100  1
  O  O66  1  0.30275620  0.85294765  0.25802499  1
  O  O67  1  0.55019045  0.69724380  0.25802499  1
  O  O68  1  0.14705235  0.44980955  0.25802499  1
  O  O69  1  0.29740961  0.44450278  0.76058759  1
  O  O70  1  0.14709217  0.70259039  0.76058759  1
  O  O71  1  0.55549722  0.85290783  0.76058759  1
loop_
_geom_bond_atom_site_label_1
_geom_bond_atom_site_label_2
_geom_bond_distance
_geom_bond_site_symmetry_2
Na0 O44 2.535717 1_445
Na0 O42 2.535717 1_455
Na0 O43 2.535717 1_555
Na0 O38 2.674153 1_555
Na0 O36 2.674153 1_545
Na0 O37 2.674153 1_445
Na1 O39 2.490000 1_555
Na1 O41 2.490001 1_445
Na1 O40 2.490001 1_545
Na1 O47 2.636091 1_556
Na1 O45 2.636091 1_546
Na1 O46 2.636091 1_446
Na2 O50 2.406694 1_555
Na2 O48 2.406694 1_555
Na2 O49 2.406694 1_555
Na2 O56 2.858143 1_555
Na2 O54 2.858143 1_555
Na2 O55 2.858143 1_555
Na3 O59 2.542065 1_555
Na3 O57 2.542065 1_555
Na3 O58 2.542066 1_555
Na3 O51 2.557749 1_555
Na3 O53 2.557749 1_555
Na3 O52 2.557749 1_555
Na4 O62 2.712489 1_555
Na4 O61 2.712489 1_555
Na4 O60 2.712489 1_555
Na4 O68 2.788668 1_555
Na4 O66 2.788668 1_555
Na4 O67 2.788668 1_555
Na5 O63 2.326696 1_555
Na5 O65 2.326696 1_555
Na5 O64 2.326696 1_555
Ca0 O44 2.248524 1_445
Ca0 O42 2.248524 1_455
Ca0 O43 2.248524 1_555
Ca0 O8 2.277042 1_545
Ca0 O7 2.277042 1_555
Ca0 O6 2.277042 1_455
Ca1 O10 2.214527 1_555
Ca1 O9 2.214527 1_445
Ca1 O11 2.214527 1_555
Ca1 O47 2.355933 1_555
Ca1 O45 2.355933 1_545
Ca1 O46 2.355933 1_445
Ca2 O13 2.239542 1_555
Ca2 O14 2.239542 1_555
Ca2 O12 2.239543 1_555
Ca2 O50 2.502888 1_555
Ca2 O48 2.502888 1_555
Ca2 O49 2.502888 1_555
Ca3 O51 2.361050 1_555
Ca3 O53 2.361050 1_555
Ca3 O52 2.361050 1_555
Ca3 O16 2.472391 1_555
Ca3 O15 2.472391 1_555
Ca3 O17 2.472391 1_555
Ca4 O19 2.234495 1_556
Ca4 O18 2.234495 1_556
Ca4 O20 2.234495 1_556
Ca4 O56 2.307228 1_555
Ca4 O54 2.307228 1_555
Ca4 O55 2.307228 1_555
Ca5 O21 2.234353 1_555
Ca5 O22 2.234353 1_555
Ca5 O23 2.234353 1_555
Ca5 O59 2.367352 1_555
Ca5 O57 2.367352 1_555
Ca5 O58 2.367352 1_555
Ca6 O63 2.333225 1_555
Ca6 O65 2.333225 1_555
Ca6 O64 2.333225 1_555
Ca6 O28 2.392743 1_555
Ca6 O27 2.392743 1_555
Ca6 O29 2.392743 1_555
Ca7 O31 2.234772 1_555
Ca7 O32 2.234772 1_555
Ca7 O30 2.234772 1_555
Ca7 O68 2.319654 1_555
Ca7 O66 2.319654 1_555
Ca7 O67 2.319654 1_555
Ca8 O33 2.232342 1_555
Ca8 O34 2.232342 1_555
Ca8 O35 2.232342 1_555
Ca8 O69 2.243701 1_555
Ca8 O71 2.243701 1_555
Ca8 O70 2.243701 1_555
Ge0 O38 1.920338 1_555
Ge0 O36 1.920338 1_545
Ge0 O37 1.920338 1_445
Ge0 O1 1.948817 1_445
Ge0 O0 1.948817 1_555
Ge0 O2 1.948817 1_455
Ge1 O4 1.864136 1_445
Ge1 O3 1.864136 1_555
Ge1 O5 1.864136 1_455
Ge1 O39 2.212809 1_555
Ge1 O41 2.212810 1_445
Ge1 O40 2.212810 1_545
Ge2 O62 1.935874 1_555
Ge2 O61 1.935874 1_555
Ge2 O60 1.935874 1_555
Ge2 O25 2.127038 1_554
Ge2 O26 2.127038 1_554
Ge2 O24 2.127038 1_554
O0 S0 1.533629 1_555
O1 S1 1.533629 1_555
O2 S2 1.533629 1_555
O3 S3 1.603462 1_555
O4 S4 1.603462 1_555
O5 S5 1.603462 1_555
O6 S5 1.452253 1_555
O7 S3 1.452253 1_555
O8 S4 1.452253 1_455
O9 S1 1.472491 1_555
O10 S2 1.472491 1_455
O11 S0 1.472492 1_555
O12 S6 1.482338 1_555
O13 S7 1.482338 1_555
O14 S8 1.482338 1_555
O15 S9 1.472675 1_555
O16 S10 1.472675 1_555
O17 S11 1.472675 1_555
O18 S11 1.460794 1_555
O19 S9 1.460794 1_555
O20 S10 1.460794 1_555
O21 S7 1.467960 1_555
O22 S8 1.467960 1_555
O23 S6 1.467960 1_555
O24 S12 1.544178 1_555
O25 S13 1.544178 1_555
O26 S14 1.544178 1_555
O27 S15 1.473980 1_555
O28 S16 1.473980 1_555
O29 S17 1.473980 1_555
O30 S17 1.464876 1_555
O31 S15 1.464876 1_555
O32 S16 1.464876 1_555
O33 S13 1.452955 1_555
O34 S14 1.452955 1_555
O35 S12 1.452955 1_555
O36 S17 1.546805 1_555
O37 S15 1.546814 1_555
O38 S16 1.546810 1_555
O39 S13 1.526596 1_555
O40 S14 1.526587 1_555
O41 S12 1.526592 1_555
O42 S6 1.489864 1_555
O43 S7 1.489873 1_555
O44 S8 1.489869 1_555
O45 S9 1.482915 1_455
O46 S10 1.482907 1_565
O47 S11 1.482912 1_555
O48 S5 1.473051 1_555
O49 S3 1.473060 1_555
O50 S4 1.473056 1_555
O51 S1 1.480688 1_555
O52 S2 1.480679 1_555
O53 S0 1.480684 1_555
O54 S12 1.478551 1_555
O55 S13 1.478534 1_655
O56 S14 1.478541 1_545
O57 S15 1.473809 1_545
O58 S16 1.473827 1_555
O59 S17 1.473815 1_655
O60 S11 1.560031 1_555
O61 S9 1.560013 1_455
O62 S10 1.560022 1_565
O63 S7 1.490535 1_565
O64 S8 1.490553 1_555
O65 S6 1.490543 1_455
O66 S0 1.472834 1_565
O67 S1 1.472843 1_555
O68 S2 1.472839 1_455
O69 S3 1.463796 1_555
O70 S4 1.463787 1_455
O71 S5 1.463791 1_565
