# generated using pymatgen
data_Li5Cu(PO4)2
_symmetry_space_group_name_H-M   'P 1'
_cell_length_a   5.36779100
_cell_length_b   6.19177401
_cell_length_c   9.94605453
_cell_angle_alpha   89.59998907
_cell_angle_beta   89.07205632
_cell_angle_gamma   89.25885469
_symmetry_Int_Tables_number   1
_chemical_formula_structural   Li5Cu(PO4)2
_chemical_formula_sum   'Li10 Cu2 P4 O16'
_cell_volume   330.48996155
_cell_formula_units_Z   2
loop_
 _symmetry_equiv_pos_site_id
 _symmetry_equiv_pos_as_xyz
  1  'x, y, z'
loop_
 _atom_site_type_symbol
 _atom_site_label
 _atom_site_symmetry_multiplicity
 _atom_site_fract_x
 _atom_site_fract_y
 _atom_site_fract_z
 _atom_site_occupancy
  Li  Li0  1  0.83856100  0.99652300  0.75060000  1
  Li  Li1  1  0.85083900  0.00696200  0.25280700  1
  Li  Li2  1  0.67430900  0.24903000  0.50822000  1
  Li  Li3  1  0.67492200  0.75809500  0.50155600  1
  Li  Li4  1  0.66845700  0.74719300  0.99953600  1
  Li  Li5  1  0.33432900  0.75235800  0.24980300  1
  Li  Li6  1  0.32329800  0.73969800  0.74800400  1
  Li  Li7  1  0.14975900  0.50105600  0.99725500  1
  Li  Li8  1  0.15883600  0.49947900  0.50035000  1
  Li  Li9  1  0.32038600  0.24739600  0.75129900  1
  Cu  Cu0  1  0.65384000  0.24654200  0.00967200  1
  Cu  Cu1  1  0.37196400  0.24952200  0.23714400  1
  P  P0  1  0.16519300  0.98974100  0.99192000  1
  P  P1  1  0.83486000  0.51171300  0.25311500  1
  P  P2  1  0.17623700  0.99969900  0.49953400  1
  P  P3  1  0.82135700  0.49950500  0.74470500  1
  O  O0  1  0.31348100  0.79185500  0.04710900  1
  O  O1  1  0.31142900  0.20374100  0.55203300  1
  O  O2  1  0.89960200  0.99986800  0.55041600  1
  O  O3  1  0.16967400  0.98949200  0.83606500  1
  O  O4  1  0.68180600  0.29024700  0.79126600  1
  O  O5  1  0.89350900  0.98299300  0.04900000  1
  O  O6  1  0.18065600  0.00074500  0.34235800  1
  O  O7  1  0.31434200  0.79153800  0.55039400  1
  O  O8  1  0.68995300  0.71664600  0.30240500  1
  O  O9  1  0.68066000  0.70381700  0.79962700  1
  O  O10  1  0.10868700  0.51618000  0.30153400  1
  O  O11  1  0.83076200  0.50609400  0.09611700  1
  O  O12  1  0.82200100  0.50498000  0.58835100  1
  O  O13  1  0.09447800  0.49603600  0.79615600  1
  O  O14  1  0.71024700  0.30291000  0.31246500  1
  O  O15  1  0.28156400  0.20834500  0.03762700  1
loop_
_geom_bond_atom_site_label_1
_geom_bond_atom_site_label_2
_geom_bond_distance
_geom_bond_site_symmetry_2
Li0 O3 1.982381 1_655
Li0 O2 2.012586 1_555
Li0 O4 2.034410 1_565
Li0 O9 2.062733 1_555
Li1 O6 1.994467 1_655
Li1 O5 2.042500 1_545
Li1 O8 2.057766 1_545
Li1 O14 2.060183 1_555
Li2 O12 1.961080 1_555
Li2 O14 1.979826 1_555
Li2 O2 1.994449 1_545
Li2 O1 2.011873 1_555
Li3 O12 1.948310 1_555
Li3 O7 1.996407 1_555
Li3 O8 1.999299 1_555
Li3 O2 2.001887 1_555
Li4 O11 1.970725 1_556
Li4 O0 1.972318 1_556
Li4 O5 1.976852 1_556
Li4 O9 2.008125 1_555
Li5 O6 1.963548 1_565
Li5 O10 1.971132 1_555
Li5 O8 1.996593 1_555
Li5 O0 2.033796 1_555
Li6 O3 1.949830 1_555
Li6 O7 1.990514 1_555
Li6 O9 2.002980 1_555
Li6 O13 2.008222 1_555
Li7 O11 1.960699 1_456
Li7 O15 1.977993 1_556
Li7 O13 2.027293 1_555
Li7 O0 2.080322 1_556
Li8 O12 1.995969 1_455
Li8 O10 2.001767 1_555
Li8 O1 2.061533 1_555
Li8 O7 2.068759 1_555
Li9 O3 1.976823 1_545
Li9 O13 1.995849 1_555
Li9 O1 2.003559 1_555
Li9 O4 2.007956 1_555
Cu0 O15 2.029718 1_555
Cu0 O11 2.075832 1_555
Cu0 O5 2.103339 1_545
Cu0 O4 2.190168 1_554
Cu1 O14 2.007683 1_555
Cu1 O15 2.068767 1_555
Cu1 O6 2.122726 1_555
Cu1 O10 2.249110 1_555
O0 P0 1.554250 1_554
O1 P2 1.562242 1_545
O2 P2 1.561001 1_655
O3 P0 1.549951 1_555
O4 P3 1.568394 1_555
O5 P0 1.557320 1_654
O6 P2 1.563046 1_545
O7 P2 1.563648 1_555
O8 P1 1.557646 1_555
O9 P3 1.562275 1_555
O10 P1 1.554765 1_455
O11 P1 1.562658 1_555
O12 P3 1.555187 1_555
O13 P3 1.560444 1_455
O14 P1 1.570443 1_555
O15 P0 1.571181 1_544
