# generated using pymatgen
data_AsC6NF4
_symmetry_space_group_name_H-M   'P 1'
_cell_length_a   7.76144199
_cell_length_b   8.84576736
_cell_length_c   11.34800497
_cell_angle_alpha   64.86093826
_cell_angle_beta   90.00000000
_cell_angle_gamma   90.00000000
_symmetry_Int_Tables_number   1
_chemical_formula_structural   AsC6NF4
_chemical_formula_sum   'As4 C24 N4 F16'
_cell_volume   705.31006104
_cell_formula_units_Z   4
loop_
 _symmetry_equiv_pos_site_id
 _symmetry_equiv_pos_as_xyz
  1  'x, y, z'
loop_
 _atom_site_type_symbol
 _atom_site_label
 _atom_site_symmetry_multiplicity
 _atom_site_fract_x
 _atom_site_fract_y
 _atom_site_fract_z
 _atom_site_occupancy
  As  As0  1  0.59712898  0.00468889  0.14090185  1
  As  As1  1  0.09712898  0.49531111  0.85909815  1
  As  As2  1  0.40287102  0.99531111  0.85909815  1
  As  As3  1  0.90287102  0.50468889  0.14090185  1
  C  C0  1  0.79651728  0.96494096  0.26625684  1
  C  C1  1  0.29651728  0.53505904  0.73374316  1
  C  C2  1  0.20348272  0.03505904  0.73374316  1
  C  C3  1  0.70348272  0.46494096  0.26625684  1
  C  C4  1  0.40965995  0.01801981  0.26910633  1
  C  C5  1  0.90965995  0.48198019  0.73089367  1
  C  C6  1  0.59034005  0.98198019  0.73089367  1
  C  C7  1  0.09034005  0.51801981  0.26910633  1
  C  C8  1  0.23682677  0.25687142  0.26633998  1
  C  C9  1  0.73682677  0.24312858  0.73366002  1
  C  C10  1  0.76317323  0.74312858  0.73366002  1
  C  C11  1  0.26317323  0.75687142  0.26633998  1
  C  C12  1  0.16975392  0.35992074  0.29590975  1
  C  C13  1  0.66975392  0.14007926  0.70409025  1
  C  C14  1  0.83024608  0.64007926  0.70409025  1
  C  C15  1  0.33024608  0.85992074  0.29590975  1
  C  C16  1  0.23102519  0.21100114  0.08621886  1
  C  C17  1  0.73102519  0.28899886  0.91378114  1
  C  C18  1  0.76897481  0.78899886  0.91378114  1
  C  C19  1  0.26897481  0.71100114  0.08621886  1
  C  C20  1  0.16049747  0.28179189  0.98012013  1
  C  C21  1  0.66049747  0.21820811  0.01987987  1
  C  C22  1  0.83950253  0.71820811  0.01987987  1
  C  C23  1  0.33950253  0.78179189  0.98012013  1
  N  N0  1  0.29064513  0.16209985  0.20764314  1
  N  N1  1  0.79064513  0.33790015  0.79235686  1
  N  N2  1  0.70935487  0.83790015  0.79235686  1
  N  N3  1  0.20935487  0.66209985  0.20764314  1
  F  F0  1  0.84306229  0.09653582  0.29013278  1
  F  F1  1  0.34306229  0.40346418  0.70986722  1
  F  F2  1  0.15693771  0.90346418  0.70986722  1
  F  F3  1  0.65693771  0.59653582  0.29013278  1
  F  F4  1  0.93486037  0.92555261  0.21118686  1
  F  F5  1  0.43486037  0.57444739  0.78881314  1
  F  F6  1  0.06513963  0.07444739  0.78881314  1
  F  F7  1  0.56513963  0.42555261  0.21118686  1
  F  F8  1  0.76653678  0.83490299  0.38157333  1
  F  F9  1  0.26653678  0.66509701  0.61842667  1
  F  F10  1  0.23346322  0.16509701  0.61842667  1
  F  F11  1  0.73346322  0.33490299  0.38157333  1
  F  F12  1  0.47665906  0.03387240  0.37507014  1
  F  F13  1  0.97665906  0.46612760  0.62492986  1
  F  F14  1  0.52334094  0.96612760  0.62492986  1
  F  F15  1  0.02334094  0.53387240  0.37507014  1
loop_
_geom_bond_atom_site_label_1
_geom_bond_atom_site_label_2
_geom_bond_distance
_geom_bond_site_symmetry_2
As0 C21 1.868549 1_555
As0 C0 2.029074 1_545
As0 C4 2.096047 1_555
As1 C20 1.868549 1_555
As1 C1 2.029074 1_555
As1 C5 2.096047 1_455
As2 C23 1.868549 1_555
As2 C2 2.029074 1_565
As2 C6 2.096047 1_555
As3 C22 1.868549 1_555
As3 C3 2.029074 1_555
As3 C7 2.096047 1_655
C0 F8 1.345672 1_555
C0 F0 1.351635 1_565
C0 F4 1.360096 1_555
C1 F9 1.345672 1_555
C1 F1 1.351635 1_555
C1 F5 1.360096 1_555
C2 F10 1.345672 1_555
C2 F2 1.351635 1_545
C2 F6 1.360096 1_555
C3 F11 1.345672 1_555
C3 F3 1.351635 1_555
C3 F7 1.360096 1_555
C4 F12 1.370873 1_555
C4 N0 1.486212 1_555
C5 F13 1.370873 1_555
C5 N1 1.486212 1_555
C6 F14 1.370873 1_555
C6 N2 1.486212 1_555
C7 F15 1.370873 1_555
C7 N3 1.486212 1_555
C8 N0 1.339921 1_555
C9 N1 1.339921 1_555
C10 C14 1.214254 1_555
C10 N2 1.339921 1_555
C11 C15 1.214254 1_555
C11 N3 1.339921 1_555
C12 C8 1.214254 1_555
C12 C7 1.437648 1_555
C13 C9 1.214254 1_555
C13 C6 1.437648 1_545
C14 C5 1.437648 1_555
C15 C4 1.437648 1_565
C16 C20 1.225082 1_554
C16 N0 1.339213 1_555
C17 C21 1.225082 1_556
C17 N1 1.339213 1_555
C18 C22 1.225082 1_556
C18 N2 1.339213 1_555
C19 C23 1.225082 1_554
C19 N3 1.339213 1_555
