# generated using pymatgen
data_Eu3TaO7
_symmetry_space_group_name_H-M   'P 1'
_cell_length_a   6.53349889
_cell_length_b   6.53349889
_cell_length_c   7.65167872
_cell_angle_alpha   90.00000000
_cell_angle_beta   90.00000000
_cell_angle_gamma   110.48519032
_symmetry_Int_Tables_number   1
_chemical_formula_structural   Eu3TaO7
_chemical_formula_sum   'Eu6 Ta2 O14'
_cell_volume   305.96936843
_cell_formula_units_Z   2
loop_
 _symmetry_equiv_pos_site_id
 _symmetry_equiv_pos_as_xyz
  1  'x, y, z'
loop_
 _atom_site_type_symbol
 _atom_site_label
 _atom_site_symmetry_multiplicity
 _atom_site_fract_x
 _atom_site_fract_y
 _atom_site_fract_z
 _atom_site_occupancy
  Eu  Eu0  1  0.00216825  0.46890990  0.74883580  1
  Eu  Eu1  1  0.99783175  0.53109010  0.24883580  1
  Eu  Eu2  1  0.53109010  0.99783175  0.75116420  1
  Eu  Eu3  1  0.46890990  0.00216825  0.25116420  1
  Eu  Eu4  1  0.50132957  0.50132957  0.50000000  1
  Eu  Eu5  1  0.49867043  0.49867043  0.00000000  1
  Ta  Ta0  1  0.99955361  0.99955361  0.50000000  1
  Ta  Ta1  1  0.00044639  0.00044639  0.00000000  1
  O  O0  1  0.63616432  0.36383568  0.75000000  1
  O  O1  1  0.36383568  0.63616432  0.25000000  1
  O  O2  1  0.94337077  0.05662923  0.75000000  1
  O  O3  1  0.05662923  0.94337077  0.25000000  1
  O  O4  1  0.92599401  0.67952637  0.52781574  1
  O  O5  1  0.07400599  0.32047363  0.02781574  1
  O  O6  1  0.32047363  0.07400599  0.97218426  1
  O  O7  1  0.67952637  0.92599401  0.47218426  1
  O  O8  1  0.37209388  0.62790612  0.75000000  1
  O  O9  1  0.62790612  0.37209388  0.25000000  1
  O  O10  1  0.92912088  0.68219713  0.96920506  1
  O  O11  1  0.07087912  0.31780287  0.46920506  1
  O  O12  1  0.31780287  0.07087912  0.53079494  1
  O  O13  1  0.68219713  0.92912088  0.03079494  1
loop_
_geom_bond_atom_site_label_1
_geom_bond_atom_site_label_2
_geom_bond_distance
_geom_bond_site_symmetry_2
Eu0 O0 2.245126 1_455
Eu0 O8 2.272296 1_555
Eu0 O10 2.340597 1_455
Eu0 O4 2.341079 1_455
Eu0 O5 2.456870 1_556
Eu0 O11 2.462620 1_555
Eu0 O2 2.584387 1_455
Eu1 O1 2.245126 1_655
Eu1 O9 2.272296 1_555
Eu1 O11 2.340597 1_655
Eu1 O5 2.341079 1_655
Eu1 O4 2.456870 1_555
Eu1 O10 2.462620 1_554
Eu1 O3 2.584387 1_655
Eu2 O0 2.245126 1_565
Eu2 O8 2.272296 1_555
Eu2 O12 2.340597 1_565
Eu2 O6 2.341079 1_565
Eu2 O7 2.456870 1_555
Eu2 O13 2.462620 1_556
Eu2 O2 2.584387 1_565
Eu3 O1 2.245126 1_545
Eu3 O9 2.272296 1_555
Eu3 O13 2.340597 1_545
Eu3 O7 2.341079 1_545
Eu3 O6 2.456870 1_554
Eu3 O12 2.462620 1_555
Eu3 O3 2.584387 1_545
Eu4 O9 2.354753 1_555
Eu4 O8 2.354753 1_555
Eu4 O1 2.407529 1_555
Eu4 O0 2.407529 1_555
Eu4 O7 2.614941 1_555
Eu4 O4 2.614941 1_555
Eu4 O11 2.653730 1_555
Eu4 O12 2.653730 1_555
Eu5 O9 2.354753 1_555
Eu5 O8 2.354753 1_554
Eu5 O1 2.407529 1_555
Eu5 O0 2.407529 1_554
Eu5 O5 2.614941 1_555
Eu5 O6 2.614941 1_554
Eu5 O13 2.653730 1_555
Eu5 O10 2.653730 1_554
O2 Ta0 2.007204 1_545
O2 Ta1 2.007204 1_656
O3 Ta1 2.007204 1_565
O3 Ta0 2.007204 1_455
O4 Ta0 1.986147 1_555
O5 Ta1 1.986147 1_555
O6 Ta1 1.986147 1_556
O7 Ta0 1.986147 1_555
O10 Ta1 1.979367 1_666
O11 Ta0 1.979367 1_445
O12 Ta0 1.979367 1_445
O13 Ta1 1.979367 1_665
