# generated using pymatgen
data_Na6Ca3GeP4(SO12)2
_symmetry_space_group_name_H-M   'P 1'
_cell_length_a   9.23333450
_cell_length_b   9.24373479
_cell_length_c   22.64119551
_cell_angle_alpha   90.45823236
_cell_angle_beta   89.73057529
_cell_angle_gamma   119.95983364
_symmetry_Int_Tables_number   1
_chemical_formula_structural   Na6Ca3GeP4(SO12)2
_chemical_formula_sum   'Na18 Ca9 Ge3 P12 S6 O72'
_cell_volume   1674.16258919
_cell_formula_units_Z   3
loop_
 _symmetry_equiv_pos_site_id
 _symmetry_equiv_pos_as_xyz
  1  'x, y, z'
loop_
 _atom_site_type_symbol
 _atom_site_label
 _atom_site_symmetry_multiplicity
 _atom_site_fract_x
 _atom_site_fract_y
 _atom_site_fract_z
 _atom_site_occupancy
  Na  Na0  1  0.36220488  0.36139479  0.25674198  1
  Na  Na1  1  0.65391454  0.65738966  0.74723116  1
  Na  Na2  1  0.99765233  0.34983351  0.75472608  1
  Na  Na3  1  0.29523664  0.34756207  0.57985643  1
  Na  Na4  1  0.02781346  0.69157434  0.57873520  1
  Na  Na5  1  0.66969010  0.95539650  0.57839946  1
  Na  Na6  1  0.29249016  0.96137944  0.07459027  1
  Na  Na7  1  0.65717215  0.68794126  0.07793220  1
  Na  Na8  1  0.04743121  0.34416727  0.07703250  1
  Na  Na9  1  0.32129011  0.30005895  0.91024175  1
  Na  Na10  1  0.99018894  0.31717724  0.41547409  1
  Na  Na11  1  0.67491331  0.66616491  0.41525468  1
  Na  Na12  1  0.00763648  0.00008549  0.49432435  1
  Na  Na13  1  0.98971892  0.97930980  0.99092422  1
  Na  Na14  1  0.65392668  0.30323338  0.83303343  1
  Na  Na15  1  0.66058149  0.30946064  0.33677854  1
  Na  Na16  1  0.32328040  0.67230586  0.17321688  1
  Na  Na17  1  0.33861240  0.67336745  0.67392997  1
  Ca  Ca0  1  0.00168392  0.99304227  0.35170316  1
  Ca  Ca1  1  0.99965651  0.99777908  0.85194870  1
  Ca  Ca2  1  0.99289071  0.00725905  0.65455980  1
  Ca  Ca3  1  0.99965165  0.99264538  0.14793421  1
  Ca  Ca4  1  0.65492581  0.32456457  0.68863116  1
  Ca  Ca5  1  0.67693184  0.33765755  0.18569608  1
  Ca  Ca6  1  0.33528444  0.67008282  0.01061223  1
  Ca  Ca7  1  0.33156979  0.66987724  0.50926095  1
  Ca  Ca8  1  0.33722526  0.68203865  0.32492019  1
  Ge  Ge0  1  0.67017059  0.34733102  0.97304613  1
  Ge  Ge1  1  0.67395082  0.33971202  0.48176716  1
  Ge  Ge2  1  0.34542714  0.67213736  0.82765122  1
  P  P0  1  0.30649474  0.33000669  0.75831915  1
  P  P1  1  0.67460462  0.98041591  0.75423294  1
  P  P2  1  0.95329923  0.32986636  0.58161700  1
  P  P3  1  0.66963253  0.62421800  0.58150873  1
  P  P4  1  0.94894010  0.61988358  0.07494846  1
  P  P5  1  0.37927677  0.32872492  0.07718965  1
  P  P6  1  0.63175504  0.65400522  0.91990398  1
  P  P7  1  0.02513860  0.37887370  0.91852147  1
  P  P8  1  0.35497054  0.97756443  0.92074749  1
  P  P9  1  0.64527121  0.99176772  0.42524799  1
  P  P10  1  0.34972174  0.35648046  0.42139623  1
  P  P11  1  0.01044523  0.65405490  0.42475941  1
  S  S0  1  0.30702221  0.99772610  0.24597335  1
  S  S1  1  0.68349665  0.69146930  0.24981890  1
  S  S2  1  0.00874107  0.30979287  0.25091149  1
  S  S3  1  0.01621203  0.69750385  0.75010062  1
  S  S4  1  0.37163775  0.04564706  0.57951966  1
  S  S5  1  0.67284317  0.04655205  0.07820021  1
  O  O0  1  0.20500116  0.00384524  0.29484386  1
  O  O1  1  0.77509434  0.78489881  0.30308553  1
  O  O2  1  0.00758127  0.21490355  0.30368499  1
  O  O3  1  0.22157650  0.22073231  0.81138426  1
  O  O4  1  0.99221458  0.78655919  0.79872544  1
  O  O5  1  0.80504357  0.00596538  0.79995444  1
  O  O6  1  0.72531263  0.93583111  0.69361719  1
  O  O7  1  0.20245572  0.26110930  0.70060333  1
  O  O8  1  0.02993274  0.78158473  0.69255842  1
  O  O9  1  0.77071359  0.77708324  0.19466159  1
  O  O10  1  0.01268826  0.22257665  0.19549302  1
  O  O11  1  0.22597491  0.98991963  0.18813015  1
  O  O12  1  0.87258972  0.34010499  0.63909788  1
  O  O13  1  0.46454220  0.11996333  0.63427210  1
  O  O14  1  0.65225744  0.52929636  0.63831807  1
  O  O15  1  0.87010285  0.51572576  0.12956334  1
  O  O16  1  0.65529160  0.12075441  0.13346854  1
  O  O17  1  0.47353411  0.34087725  0.13384538  1
  O  O18  1  0.47674554  0.31346570  0.01988121  1
  O  O19  1  0.83428605  0.52555125  0.01831446  1
  O  O20  1  0.69003685  0.15024622  0.02560930  1
  O  O21  1  0.46098429  0.15017567  0.52674643  1
  O  O22  1  0.68356751  0.52373786  0.52527960  1
  O  O23  1  0.83988354  0.31645773  0.52601610  1
  O  O24  1  0.56333486  0.67186499  0.97865731  1
  O  O25  1  0.11516738  0.44704874  0.97692870  1
  O  O26  1  0.33620841  0.89694292  0.98071700  1
  O  O27  1  0.57600480  0.89151701  0.48226865  1
  O  O28  1  0.32271779  0.43796086  0.47659440  1
  O  O29  1  0.10148221  0.68052110  0.48347115  1
  O  O30  1  0.10101776  0.62073407  0.37414624  1
  O  O31  1  0.53400380  0.90456720  0.37205865  1
  O  O32  1  0.38710453  0.47122494  0.36680881  1
  O  O33  1  0.13035449  0.50263296  0.86453149  1
  O  O34  1  0.37688665  0.87051185  0.86909658  1
  O  O35  1  0.50305725  0.62716079  0.86727447  1
  O  O36  1  0.96742011  0.79263263  0.41557037  1
  O  O37  1  0.82522520  0.02282139  0.41698917  1
  O  O38  1  0.19578110  0.18346217  0.41398801  1
  O  O39  1  0.00946932  0.20834211  0.90889797  1
  O  O40  1  0.20957773  0.00710052  0.90978820  1
  O  O41  1  0.80672925  0.79523457  0.90972011  1
  O  O42  1  0.96927583  0.17000934  0.57869894  1
  O  O43  1  0.20476194  0.03369852  0.58143349  1
  O  O44  1  0.83320669  0.79622286  0.58015030  1
  O  O45  1  0.95415696  0.79060115  0.07581796  1
  O  O46  1  0.82599605  0.02992066  0.07937795  1
  O  O47  1  0.20333223  0.16883427  0.07458281  1
  O  O48  1  0.65515245  0.13531383  0.75252536  1
  O  O49  1  0.48870194  0.37008343  0.75362366  1
  O  O50  1  0.86809475  0.52399020  0.74941085  1
  O  O51  1  0.66299015  0.52092325  0.25336748  1
  O  O52  1  0.86206922  0.33188194  0.25349535  1
  O  O53  1  0.47145834  0.15540407  0.25014902  1
  O  O54  1  0.62726742  0.47768584  0.91745974  1
  O  O55  1  0.84599270  0.36416592  0.91834305  1
  O  O56  1  0.52196000  0.15841742  0.92041050  1
  O  O57  1  0.66021540  0.17074087  0.42956972  1
  O  O58  1  0.51521562  0.34472305  0.42812584  1
  O  O59  1  0.83330049  0.48347646  0.42627234  1
  O  O60  1  0.35788237  0.48456329  0.07515563  1
  O  O61  1  0.12940917  0.65110818  0.07224289  1
  O  O62  1  0.52429704  0.87455406  0.07585331  1
  O  O63  1  0.34876641  0.87481520  0.57583341  1
  O  O64  1  0.51583805  0.64788367  0.57645038  1
  O  O65  1  0.12956510  0.48608493  0.57714719  1
  O  O66  1  0.32968785  0.85095029  0.24943547  1
  O  O67  1  0.51289327  0.67066412  0.24844547  1
  O  O68  1  0.16772178  0.47424830  0.25084783  1
  O  O69  1  0.30989732  0.50657808  0.76710173  1
  O  O70  1  0.17019338  0.68305210  0.75704352  1
  O  O71  1  0.49912157  0.81397450  0.76789494  1
loop_
_geom_bond_atom_site_label_1
_geom_bond_atom_site_label_2
_geom_bond_distance
_geom_bond_site_symmetry_2
Na0 O51 2.408912 1_555
Na0 O67 2.485410 1_555
Na0 O68 2.491219 1_555
Na0 O53 2.564786 1_555
Na0 O32 2.650594 1_555
Na1 O49 2.314921 1_555
Na1 O71 2.530972 1_555
Na1 O6 2.623068 1_555
Na1 O14 2.723704 1_555
Na1 O69 2.794518 1_555
Na1 O50 2.805603 1_555
Na2 O50 2.442343 1_555
Na2 O69 2.513718 1_655
Na2 O70 2.669340 1_655
Na2 O7 2.694690 1_655
Na2 O48 2.769849 1_555
Na2 O33 2.814439 1_655
Na2 O12 2.848893 1_555
Na2 O5 2.950243 1_555
Na3 O65 2.437589 1_555
Na3 O28 2.458185 1_555
Na3 O64 2.493146 1_555
Na3 O43 2.587888 1_555
Na3 O42 2.611338 1_455
Na3 O7 2.859306 1_555
Na4 O29 2.275390 1_555
Na4 O44 2.429107 1_455
Na4 O65 2.504602 1_555
Na4 O63 2.577197 1_555
Na4 O8 2.698887 1_555
Na4 O43 2.740748 1_565
Na5 O27 2.306763 1_555
Na5 O64 2.462839 1_555
Na5 O42 2.471103 1_565
Na5 O44 2.581905 1_555
Na5 O63 2.671169 1_555
Na5 O6 2.685989 1_555
Na6 O26 2.290609 1_554
Na6 O47 2.435541 1_565
Na6 O61 2.486138 1_555
Na6 O62 2.634910 1_555
Na6 O11 2.681662 1_555
Na6 O45 2.706694 1_455
Na7 O24 2.389419 1_554
Na7 O45 2.413029 1_555
Na7 O60 2.446573 1_555
Na7 O62 2.568796 1_555
Na7 O46 2.738811 1_565
Na7 O9 2.809155 1_555
Na8 O25 2.420649 1_554
Na8 O60 2.487373 1_555
Na8 O61 2.548332 1_555
Na8 O46 2.586621 1_455
Na8 O47 2.651409 1_555
Na8 O10 2.870501 1_555
Na9 O40 2.367964 1_555
Na9 O3 2.390389 1_555
Na9 O54 2.463994 1_555
Na9 O39 2.563513 1_555
Na9 O56 2.762634 1_555
Na9 O35 2.805136 1_555
Na9 O18 2.844069 1_556
Na10 O37 2.363545 1_555
Na10 O59 2.595395 1_555
Na10 O30 2.638449 1_655
Na10 O57 2.663735 1_555
Na10 O2 2.726765 1_655
Na10 O38 2.733985 1_655
Na10 O23 2.854557 1_555
Na11 O36 2.346833 1_555
Na11 O58 2.592634 1_555
Na11 O32 2.593296 1_555
Na11 O1 2.741992 1_555
Na11 O59 2.744008 1_555
Na11 O22 2.846871 1_555
Na11 O37 2.867974 1_565
Na12 O36 2.496985 1_445
Na12 O38 2.505612 1_555
Na12 O37 2.516733 1_455
Na12 O42 2.596800 1_455
Na12 O43 2.599673 1_555
Na12 O44 2.630382 1_445
Na13 O41 2.497607 1_555
Na13 O45 2.514104 1_556
Na13 O40 2.648256 1_665
Na13 O47 2.660450 1_666
Na13 O46 2.679149 1_566
Na13 O39 2.763803 1_665
Na14 O56 2.362411 1_555
Na14 O48 2.388338 1_555
Na14 O55 2.492013 1_555
Na14 O54 2.580244 1_555
Na14 O49 2.631907 1_555
Na14 O50 2.766841 1_555
Na15 O57 2.469163 1_555
Na15 O53 2.535384 1_555
Na15 O58 2.566196 1_555
Na15 O52 2.578334 1_555
Na15 O59 2.579248 1_555
Na15 O51 2.720869 1_555
Na16 O66 2.359280 1_555
Na16 O68 2.430123 1_555
Na16 O67 2.453873 1_555
Na16 O61 2.854881 1_555
Na16 O62 2.891588 1_555
Na16 O60 2.920396 1_555
Na17 O70 2.464998 1_555
Na17 O71 2.544291 1_555
Na17 O69 2.556535 1_555
Na17 O64 2.819053 1_555
Na17 O65 2.857624 1_555
Na17 O63 2.880813 1_555
Ca0 O0 2.232399 1_565
Ca0 O36 2.253030 1_455
Ca0 O38 2.265423 1_565
Ca0 O1 2.293037 1_455
Ca0 O2 2.305299 1_565
Ca0 O37 2.309574 1_465
Ca1 O5 2.185779 1_565
Ca1 O41 2.252922 1_555
Ca1 O3 2.254841 1_665
Ca1 O4 2.257895 1_555
Ca1 O39 2.289980 1_665
Ca1 O40 2.309658 1_665
Ca2 O42 2.373477 1_555
Ca2 O6 2.383590 1_545
Ca2 O7 2.404574 1_655
Ca2 O44 2.432223 1_545
Ca2 O8 2.439866 1_645
Ca2 O43 2.475170 1_655
Ca3 O11 2.294919 1_655
Ca3 O9 2.316004 1_555
Ca3 O10 2.323891 1_665
Ca3 O45 2.346203 1_555
Ca3 O46 2.383854 1_565
Ca3 O47 2.429437 1_665
Ca4 O13 2.200986 1_555
Ca4 O14 2.227350 1_555
Ca4 O12 2.238427 1_555
Ca4 O48 2.279755 1_555
Ca4 O49 2.304746 1_555
Ca4 O50 2.350951 1_555
Ca5 O15 2.141428 1_555
Ca5 O17 2.232314 1_555
Ca5 O16 2.241068 1_555
Ca5 O53 2.321225 1_555
Ca5 O52 2.323480 1_555
Ca5 O51 2.325589 1_555
Ca6 O25 2.183380 1_554
Ca6 O26 2.204666 1_554
Ca6 O24 2.215573 1_554
Ca6 O61 2.288519 1_555
Ca6 O62 2.342030 1_555
Ca6 O60 2.349521 1_555
Ca7 O28 2.224785 1_555
Ca7 O27 2.247997 1_555
Ca7 O29 2.255080 1_555
Ca7 O63 2.354140 1_555
Ca7 O65 2.361682 1_555
Ca7 O64 2.371729 1_555
Ca8 O31 2.218505 1_555
Ca8 O30 2.252293 1_555
Ca8 O66 2.348610 1_555
Ca8 O67 2.404366 1_555
Ca8 O32 2.416423 1_555
Ca8 O68 2.433533 1_555
Ge0 O19 1.885457 1_556
Ge0 O54 1.923148 1_555
Ge0 O18 1.959896 1_556
Ge0 O55 1.981302 1_555
Ge0 O56 1.984347 1_555
Ge0 O20 2.267030 1_556
Ge1 O59 1.888378 1_555
Ge1 O57 1.904313 1_555
Ge1 O22 1.922316 1_555
Ge1 O58 1.926333 1_555
Ge1 O23 1.934966 1_555
Ge1 O21 2.131224 1_555
Ge2 O71 1.927519 1_555
Ge2 O35 1.928374 1_555
Ge2 O34 1.941774 1_555
Ge2 O69 1.948931 1_555
Ge2 O33 1.998355 1_555
Ge2 O70 2.318122 1_555
O0 S0 1.468768 1_545
O1 S1 1.476160 1_555
O2 S2 1.484727 1_555
O3 P0 1.515949 1_555
O4 S3 1.450581 1_655
O5 P1 1.517122 1_545
O6 P1 1.565318 1_555
O7 P0 1.556746 1_555
O8 S3 1.494581 1_555
O9 S1 1.484654 1_555
O10 S2 1.496129 1_555
O11 S0 1.494704 1_555
O12 P2 1.522299 1_555
O13 S4 1.467083 1_555
O14 P3 1.524969 1_555
O15 P4 1.515421 1_555
O16 S5 1.469004 1_555
O17 P5 1.525143 1_555
O18 P5 1.620584 1_555
O19 P4 1.611879 1_555
O20 S5 1.492071 1_555
O21 S4 1.501631 1_555
O22 P3 1.612118 1_555
O23 P2 1.605310 1_555
O24 P6 1.512833 1_555
O25 P7 1.520098 1_555
O26 P8 1.521182 1_555
O27 P9 1.534253 1_555
O28 P10 1.536527 1_555
O29 P11 1.527540 1_555
O30 P11 1.532985 1_555
O31 P9 1.524624 1_555
O32 P10 1.556585 1_555
O33 P7 1.627252 1_555
O34 P8 1.602200 1_555
O35 P6 1.614815 1_555
O36 P11 1.534703 1_655
O37 P9 1.549114 1_545
O38 P10 1.527673 1_555
O39 P7 1.523252 1_555
O40 P8 1.519410 1_545
O41 P6 1.504109 1_555
O42 P2 1.557471 1_555
O43 S4 1.489187 1_555
O44 P3 1.553040 1_555
O45 P4 1.554541 1_555
O46 S5 1.497202 1_555
O47 P5 1.558351 1_555
O48 P1 1.530266 1_545
O49 P0 1.534730 1_555
O50 S3 1.500695 1_655
O51 S1 1.493771 1_555
O52 S2 1.467792 1_655
O53 S0 1.492457 1_545
O54 P6 1.610067 1_555
O55 P7 1.590609 1_655
O56 P8 1.611764 1_545
O57 P9 1.592207 1_545
O58 P10 1.593211 1_555
O59 P11 1.608462 1_655
O60 P5 1.549720 1_555
O61 P4 1.543590 1_455
O62 S5 1.494372 1_565
O63 S4 1.486668 1_565
O64 P3 1.545857 1_555
O65 P2 1.548470 1_455
O66 S0 1.475189 1_555
O67 S1 1.488998 1_555
O68 S2 1.495650 1_555
O69 P0 1.627325 1_555
O70 S3 1.502032 1_555
O71 P1 1.612817 1_555
