# generated using pymatgen
data_Na3Zr2SiSn2P5O24
_symmetry_space_group_name_H-M   'P 1'
_cell_length_a   8.89549005
_cell_length_b   8.87133788
_cell_length_c   23.06141248
_cell_angle_alpha   90.06349318
_cell_angle_beta   89.86302534
_cell_angle_gamma   119.87514113
_symmetry_Int_Tables_number   1
_chemical_formula_structural   Na3Zr2SiSn2P5O24
_chemical_formula_sum   'Na9 Zr6 Si3 Sn6 P15 O72'
_cell_volume   1578.04480488
_cell_formula_units_Z   3
loop_
 _symmetry_equiv_pos_site_id
 _symmetry_equiv_pos_as_xyz
  1  'x, y, z'
loop_
 _atom_site_type_symbol
 _atom_site_label
 _atom_site_symmetry_multiplicity
 _atom_site_fract_x
 _atom_site_fract_y
 _atom_site_fract_z
 _atom_site_occupancy
  Na  Na0  1  0.37006698  0.00088962  0.74824624  1
  Na  Na1  1  0.66287626  0.96860311  0.58654923  1
  Na  Na2  1  0.66972203  0.69728399  0.08128983  1
  Na  Na3  1  0.01752471  0.00188829  0.50037019  1
  Na  Na4  1  0.01006846  0.00591879  0.99784210  1
  Na  Na5  1  0.68005673  0.34091072  0.83406232  1
  Na  Na6  1  0.66675849  0.33348383  0.33348646  1
  Na  Na7  1  0.31606444  0.66470832  0.16752950  1
  Na  Na8  1  0.32622088  0.65219959  0.66677876  1
  Zr  Zr0  1  -0.00018013  -0.00029639  0.35231931  1
  Zr  Zr1  1  0.00680083  0.00278061  0.14666203  1
  Zr  Zr2  1  0.32176916  0.66658281  0.01861627  1
  Zr  Zr3  1  0.32803805  0.66629777  0.51985222  1
  Zr  Zr4  1  0.33340113  0.66658932  0.31464147  1
  Zr  Zr5  1  0.34060313  0.66643999  0.81475691  1
  Si  Si0  1  0.71290431  0.00493652  0.74828249  1
  Si  Si1  1  0.37250411  0.04647036  0.58472303  1
  Si  Si2  1  0.95312859  0.61845237  0.08394912  1
  Sn  Sn0  1  0.99463752  -0.00019797  0.85206146  1
  Sn  Sn1  1  0.00154820  0.99889092  0.64736500  1
  Sn  Sn2  1  0.67098467  0.33598304  0.68592974  1
  Sn  Sn3  1  0.66984466  0.33207524  0.18646380  1
  Sn  Sn4  1  0.66858427  0.33394115  0.98022299  1
  Sn  Sn5  1  0.66103385  0.33210869  0.48098952  1
  P  P0  1  0.29879337  0.00568211  0.24956294  1
  P  P1  1  0.70617697  0.70256452  0.24855836  1
  P  P2  1  0.99512960  0.29243349  0.24980362  1
  P  P3  1  0.28903102  0.28735481  0.74923996  1
  P  P4  1  0.99626460  0.70819217  0.75063873  1
  P  P5  1  0.95439032  0.33191231  0.58383716  1
  P  P6  1  0.67020889  0.62318698  0.58368502  1
  P  P7  1  0.66572139  0.04493973  0.08320135  1
  P  P8  1  0.38146520  0.33343628  0.08228705  1
  P  P9  1  0.63191953  0.66574888  0.91877187  1
  P  P10  1  0.03664525  0.36866801  0.91583326  1
  P  P11  1  0.33266056  0.96724438  0.91485525  1
  P  P12  1  0.62714948  0.96429133  0.41814234  1
  P  P13  1  0.33814501  0.37450948  0.41717507  1
  P  P14  1  0.03361521  0.65991547  0.41734606  1
  O  O0  1  0.20983950  0.02923399  0.30338042  1
  O  O1  1  0.82243412  0.79650981  0.30127820  1
  O  O2  1  0.97531521  0.18078936  0.30359152  1
  O  O3  1  0.21322680  0.16755127  0.80296280  1
  O  O4  1  0.96685275  0.78920237  0.80542655  1
  O  O5  1  0.83187864  0.03713903  0.80501884  1
  O  O6  1  0.78801842  0.97013299  0.68797189  1
  O  O7  1  0.17923882  0.20818263  0.69470470  1
  O  O8  1  0.04025477  0.82690593  0.69677176  1
  O  O9  1  0.78905108  0.80826856  0.19276213  1
  O  O10  1  0.01832700  0.20602131  0.19538403  1
  O  O11  1  0.18806978  0.98098120  0.19518190  1
  O  O12  1  0.87958559  0.36826885  0.63875330  1
  O  O13  1  0.49150366  0.12108207  0.64347054  1
  O  O14  1  0.64170976  0.51475996  0.63878316  1
  O  O15  1  0.87334751  0.50372605  0.14196426  1
  O  O16  1  0.62805461  0.11936687  0.13781884  1
  O  O17  1  0.49553425  0.36880515  0.13648006  1
  O  O18  1  0.45685606  0.29648031  0.02769174  1
  O  O19  1  0.82764314  0.54175356  0.02723163  1
  O  O20  1  0.69554206  0.15462093  0.02835672  1
  O  O21  1  0.45979898  0.16359808  0.52727100  1
  O  O22  1  0.70480415  0.54547959  0.52929570  1
  O  O23  1  0.83861631  0.29698230  0.53012114  1
  O  O24  1  0.54852715  0.68797137  0.97415178  1
  O  O25  1  0.14551558  0.45822567  0.97046145  1
  O  O26  1  0.30850247  0.85110765  0.96827164  1
  O  O27  1  0.54431391  0.85853231  0.47399243  1
  O  O28  1  0.31546362  0.46188851  0.47148053  1
  O  O29  1  0.14580072  0.68548099  0.47155188  1
  O  O30  1  0.12295444  0.63686020  0.36355248  1
  O  O31  1  0.51080622  0.87097049  0.36553021  1
  O  O32  1  0.35888827  0.48588948  0.36326595  1
  O  O33  1  0.12552243  0.48016505  0.86209343  1
  O  O34  1  0.35650723  0.88280172  0.85946227  1
  O  O35  1  0.51829896  0.64793159  0.86528952  1
  O  O36  1  0.01601326  0.82357603  0.41111061  1
  O  O37  1  0.80740997  0.98060964  0.41098200  1
  O  O38  1  0.17653407  0.19204783  0.41087240  1
  O  O39  1  0.02353463  0.18798694  0.91270599  1
  O  O40  1  0.16798053  0.98351796  0.91035901  1
  O  O41  1  0.81419642  0.82907166  0.91290483  1
  O  O42  1  0.96187888  0.16097432  0.58893722  1
  O  O43  1  0.17918463  0.02371959  0.58902821  1
  O  O44  1  0.82838727  0.81046190  0.58835746  1
  O  O45  1  0.96723743  0.81001209  0.08948389  1
  O  O46  1  0.82785630  0.02418653  0.08979062  1
  O  O47  1  0.19801958  0.17600920  0.08930359  1
  O  O48  1  0.68440298  0.17479724  0.74584428  1
  O  O49  1  0.47167458  0.30630113  0.74345795  1
  O  O50  1  0.83136103  0.52982769  0.74351867  1
  O  O51  1  0.68696491  0.51960166  0.24588147  1
  O  O52  1  0.82763899  0.30427576  0.24716259  1
  O  O53  1  0.47874375  0.17012318  0.24450530  1
  O  O54  1  0.64376566  0.49724419  0.91968198  1
  O  O55  1  0.85351513  0.34824658  0.92057907  1
  O  O56  1  0.49786098  0.14696887  0.92109302  1
  O  O57  1  0.64519594  0.14657938  0.42157468  1
  O  O58  1  0.50515986  0.36187273  0.42028423  1
  O  O59  1  0.85400322  0.49571485  0.42308796  1
  O  O60  1  0.37276106  0.50309420  0.07525017  1
  O  O61  1  0.14687626  0.64300174  0.07771196  1
  O  O62  1  0.50945984  0.85784670  0.07593400  1
  O  O63  1  0.36282303  0.85614691  0.57806912  1
  O  O64  1  0.50827237  0.64533067  0.57745846  1
  O  O65  1  0.13828862  0.48879195  0.57711418  1
  O  O66  1  0.31741509  0.84259557  0.25567916  1
  O  O67  1  0.52568237  0.68640986  0.25574967  1
  O  O68  1  0.15711141  0.47501378  0.25590058  1
  O  O69  1  0.30733608  0.46825068  0.75716883  1
  O  O70  1  0.16005165  0.69045640  0.75800261  1
  O  O71  1  0.51515452  0.83531280  0.75541581  1
loop_
_geom_bond_atom_site_label_1
_geom_bond_atom_site_label_2
_geom_bond_distance
_geom_bond_site_symmetry_2
Na0 O49 2.393861 1_555
Na0 O71 2.396010 1_545
Na0 O48 2.429750 1_555
Na0 O70 2.449269 1_545
Na0 O13 2.643480 1_555
Na0 O34 2.751144 1_545
Na0 O3 2.786965 1_555
Na0 O8 2.810741 1_545
Na1 O42 2.338456 1_565
Na1 O63 2.346707 1_555
Na1 O44 2.489128 1_555
Na1 O64 2.496156 1_555
Na1 O6 2.589868 1_555
Na1 O27 2.790178 1_555
Na1 O13 2.813834 1_565
Na1 O23 2.843512 1_565
Na2 O45 2.324930 1_555
Na2 O60 2.330867 1_555
Na2 O62 2.469973 1_555
Na2 O46 2.522608 1_565
Na2 O24 2.682775 1_554
Na2 O19 2.711105 1_555
Na2 O9 2.769651 1_555
Na2 O17 2.830738 1_555
Na3 O43 2.453876 1_555
Na3 O36 2.590645 1_545
Na3 O38 2.592887 1_555
Na3 O44 2.641369 1_445
Na3 O42 2.663318 1_455
Na3 O37 2.728476 1_445
Na4 O39 2.508209 1_555
Na4 O40 2.519243 1_545
Na4 O41 2.572993 1_445
Na4 O45 2.641342 1_446
Na4 O47 2.649068 1_556
Na4 O46 2.719250 1_456
Na5 O55 2.506050 1_555
Na5 O48 2.522259 1_555
Na5 O54 2.522554 1_555
Na5 O50 2.593736 1_555
Na5 O56 2.613299 1_555
Na5 O49 2.710406 1_555
Na6 O52 2.536328 1_555
Na6 O58 2.546044 1_555
Na6 O51 2.559311 1_555
Na6 O57 2.569352 1_555
Na6 O53 2.589103 1_555
Na6 O59 2.595598 1_555
Na7 O61 2.513525 1_555
Na7 O66 2.568493 1_555
Na7 O68 2.570579 1_555
Na7 O67 2.704211 1_555
Na7 O62 2.722382 1_555
Na7 O60 2.747217 1_555
Na8 O65 2.601456 1_555
Na8 O69 2.601774 1_555
Na8 O71 2.632683 1_555
Na8 O64 2.636544 1_555
Na8 O63 2.642508 1_555
Na8 O70 2.685000 1_555
O0 P0 1.539342 1_555
O0 Zr0 2.082219 1_555
O1 P1 1.545111 1_555
O1 Zr0 2.072510 1_665
O2 P2 1.542220 1_555
O2 Zr0 2.060358 1_655
O3 P3 1.550540 1_555
O3 Sn0 2.094774 1_455
O4 P4 1.537873 1_555
O4 Sn0 2.060354 1_565
O5 Si0 1.618097 1_555
O5 Sn0 1.966950 1_555
O6 Si0 1.635963 1_565
O6 Sn1 2.014749 1_655
O7 P3 1.532781 1_555
O7 Sn1 2.053699 1_545
O8 P4 1.547725 1_455
O8 Sn1 2.067296 1_555
O9 P1 1.545305 1_555
O9 Zr1 2.127023 1_665
O10 P2 1.536057 1_455
O10 Zr1 2.082246 1_555
O11 P0 1.543108 1_565
O11 Zr1 2.051649 1_565
O12 P5 1.536090 1_555
O12 Sn2 2.042187 1_555
O13 Si1 1.643472 1_555
O13 Sn2 2.028160 1_555
O14 P6 1.536968 1_555
O14 Sn2 2.044984 1_555
O15 Si2 1.615065 1_555
O15 Sn3 1.974179 1_555
O16 P7 1.533376 1_555
O16 Sn3 2.062994 1_555
O17 P8 1.542077 1_555
O17 Sn3 2.086117 1_555
O18 P8 1.535096 1_555
O18 Sn4 2.055114 1_554
O19 Si2 1.633456 1_555
O19 Sn4 1.995054 1_554
O20 P7 1.536498 1_555
O20 Sn4 2.050751 1_554
O21 Si1 1.622472 1_555
O21 Sn5 1.976567 1_555
O22 P6 1.533223 1_555
O22 Sn5 2.058836 1_555
O23 P5 1.542244 1_555
O23 Sn5 2.091897 1_555
O24 P9 1.536504 1_555
O24 Zr2 2.183005 1_556
O25 P10 1.547036 1_555
O25 Zr2 2.055413 1_556
O26 P11 1.551169 1_555
O26 Zr2 2.058865 1_556
O27 P12 1.546460 1_555
O27 Zr3 2.110413 1_555
O28 P13 1.537027 1_555
O28 Zr3 2.083098 1_555
O29 P14 1.545913 1_555
O29 Zr3 2.044872 1_555
O30 P14 1.539169 1_555
O30 Zr4 2.084474 1_555
O31 P12 1.542337 1_555
O31 Zr4 2.075755 1_555
O32 P13 1.541414 1_555
O32 Zr4 2.060550 1_555
O33 P10 1.535680 1_555
O33 Zr5 2.104113 1_555
O34 P11 1.546908 1_555
O34 Zr5 2.119638 1_555
O35 P9 1.553743 1_555
O35 Zr5 2.037495 1_555
O36 P14 1.542796 1_555
O36 Zr0 2.128424 1_565
O37 P12 1.544987 1_555
O37 Zr0 2.118725 1_665
O38 P13 1.546029 1_555
O38 Zr0 2.130470 1_555
O39 P10 1.549706 1_555
O39 Sn0 2.092393 1_455
O40 P11 1.545639 1_555
O40 Sn0 2.106722 1_465
O41 P9 1.551010 1_555
O41 Sn0 2.100289 1_565
O42 P5 1.555299 1_555
O42 Sn1 2.125955 1_645
O43 Si1 1.631355 1_555
O43 Sn1 1.999774 1_545
O44 P6 1.556638 1_555
O44 Sn1 2.111536 1_655
O45 Si2 1.645324 1_555
O45 Zr1 2.045660 1_665
O46 P7 1.550087 1_555
O46 Zr1 2.145154 1_655
O47 P8 1.538954 1_555
O47 Zr1 2.096263 1_555
O48 Si0 1.648946 1_555
O48 Sn2 2.035508 1_555
O49 P3 1.553274 1_555
O49 Sn2 2.120672 1_555
O50 P4 1.539723 1_555
O50 Sn2 2.077558 1_555
O51 P1 1.546298 1_555
O51 Sn3 2.100461 1_555
O52 P2 1.546274 1_555
O52 Sn3 2.084595 1_555
O53 P0 1.541831 1_555
O53 Sn3 2.075059 1_555
O54 P9 1.550215 1_555
O54 Sn4 2.102706 1_555
O55 P10 1.550396 1_655
O55 Sn4 2.096619 1_555
O56 P11 1.545530 1_545
O56 Sn4 2.100589 1_555
O57 P12 1.545422 1_545
O57 Sn5 2.090730 1_555
O58 P13 1.546415 1_555
O58 Sn5 2.080147 1_555
O59 P14 1.540463 1_655
O59 Sn5 2.085060 1_555
O60 P8 1.553812 1_555
O60 Zr2 2.162757 1_555
O61 Si2 1.632010 1_455
O61 Zr2 1.996927 1_555
O62 P7 1.554726 1_565
O62 Zr2 2.144101 1_555
O63 Si1 1.654198 1_565
O63 Zr3 2.052463 1_555
O64 P6 1.554743 1_555
O64 Zr3 2.162815 1_555
O65 P5 1.538892 1_455
O65 Zr3 2.102051 1_555
O66 P0 1.542683 1_565
O66 Zr4 2.129316 1_555
O67 P1 1.547741 1_555
O67 Zr4 2.119157 1_555
O68 P2 1.547550 1_455
O68 Zr4 2.128995 1_555
O69 P3 1.540929 1_555
O69 Zr5 2.102611 1_555
O70 P4 1.551116 1_455
O70 Zr5 2.165536 1_555
O71 Si0 1.657690 1_565
O71 Zr5 2.050631 1_555
