# generated using pymatgen
data_MgSc2Cr2O8
_symmetry_space_group_name_H-M   'P 1'
_cell_length_a   5.30521895
_cell_length_b   5.30522857
_cell_length_c   6.48057100
_cell_angle_alpha   90.00028582
_cell_angle_beta   89.99990459
_cell_angle_gamma   65.64776960
_symmetry_Int_Tables_number   1
_chemical_formula_structural   MgSc2Cr2O8
_chemical_formula_sum   'Mg1 Sc2 Cr2 O8'
_cell_volume   166.16987691
_cell_formula_units_Z   1
loop_
 _symmetry_equiv_pos_site_id
 _symmetry_equiv_pos_as_xyz
  1  'x, y, z'
loop_
 _atom_site_type_symbol
 _atom_site_label
 _atom_site_symmetry_multiplicity
 _atom_site_fract_x
 _atom_site_fract_y
 _atom_site_fract_z
 _atom_site_occupancy
  Mg  Mg0  1  0.66078600  0.66078600  0.24999800  1
  Sc  Sc0  1  0.00474400  0.00474300  0.99393300  1
  Sc  Sc1  1  0.00474400  0.00474500  0.50606700  1
  Cr  Cr0  1  0.34472900  0.34473000  0.25000200  1
  Cr  Cr1  1  0.64632500  0.64632600  0.74999900  1
  O  O0  1  0.27103700  0.78647800  0.74999900  1
  O  O1  1  0.24767400  0.73257300  0.24999900  1
  O  O2  1  0.23027000  0.23029200  0.03682400  1
  O  O3  1  0.23029300  0.23027100  0.46318100  1
  O  O4  1  0.76392800  0.76391500  0.52152300  1
  O  O5  1  0.76391600  0.76392900  0.97847500  1
  O  O6  1  0.73257300  0.24767500  0.25000200  1
  O  O7  1  0.78647900  0.27103600  0.75000100  1
loop_
_geom_bond_atom_site_label_1
_geom_bond_atom_site_label_2
_geom_bond_distance
_geom_bond_site_symmetry_2
Mg0 O5 1.985436 1_554
Mg0 O4 1.985440 1_555
Mg0 O6 2.063980 1_555
Mg0 O1 2.063981 1_555
Cr0 O2 1.717537 1_555
Cr0 O3 1.717540 1_555
Cr0 O1 1.903970 1_555
Cr0 O6 1.903971 1_555
Cr1 O4 1.814322 1_555
Cr1 O5 1.814324 1_555
Cr1 O0 1.815495 1_555
Cr1 O7 1.815508 1_555
O0 Sc0 2.118157 1_565
O0 Sc1 2.118162 1_565
O1 Sc0 2.228238 1_564
O1 Sc1 2.228238 1_565
O2 Sc0 2.030099 1_554
O3 Sc1 2.030095 1_555
O4 Sc1 2.149607 1_665
O5 Sc0 2.149590 1_665
O6 Sc1 2.228235 1_655
O6 Sc0 2.228244 1_654
O7 Sc1 2.118152 1_655
O7 Sc0 2.118161 1_655
