# generated using pymatgen
data_MgVZn2WO6
_symmetry_space_group_name_H-M   'P 1'
_cell_length_a   5.28084916
_cell_length_b   5.95711833
_cell_length_c   7.95797826
_cell_angle_alpha   99.20397916
_cell_angle_beta   131.53836131
_cell_angle_gamma   116.35443265
_symmetry_Int_Tables_number   1
_chemical_formula_structural   MgVZn2WO6
_chemical_formula_sum   'Mg1 V1 Zn2 W1 O6'
_cell_volume   123.52256831
_cell_formula_units_Z   1
loop_
 _symmetry_equiv_pos_site_id
 _symmetry_equiv_pos_as_xyz
  1  'x, y, z'
loop_
 _atom_site_type_symbol
 _atom_site_label
 _atom_site_symmetry_multiplicity
 _atom_site_fract_x
 _atom_site_fract_y
 _atom_site_fract_z
 _atom_site_occupancy
  Mg  Mg0  1  0.00138900  0.30314900  0.34227800  1
  V  V0  1  0.00193700  0.93427400  0.52703300  1
  Zn  Zn0  1  0.00213800  0.63341000  0.17779700  1
  Zn  Zn1  1  0.00164600  0.47120900  0.75863400  1
  W  W0  1  0.00168200  0.99408400  0.99701700  1
  O  O0  1  0.73577100  0.84119800  0.13238900  1
  O  O1  1  0.35504900  0.13653200  0.92817900  1
  O  O2  1  0.35011400  0.48515700  0.27620000  1
  O  O3  1  0.30058400  0.78375100  0.57508200  1
  O  O4  1  0.65114000  0.10719500  0.39831200  1
  O  O5  1  0.61756800  0.45731700  0.74848700  1
loop_
_geom_bond_atom_site_label_1
_geom_bond_atom_site_label_2
_geom_bond_distance
_geom_bond_site_symmetry_2
Mg0 O0 2.079796 1_445
Mg0 O4 2.079898 1_455
Mg0 O5 2.080385 1_555
Mg0 O1 2.126783 1_454
Mg0 O3 2.128457 1_555
Mg0 O2 2.130115 1_555
O0 Zn1 1.938517 1_554
O0 Zn0 2.157839 1_655
O0 V0 2.245618 1_655
O0 W0 2.268610 1_654
O1 V0 1.999928 1_545
O1 Zn0 2.126169 1_656
O1 W0 2.144991 1_545
O2 V0 1.998389 1_655
O2 Zn0 2.126889 1_555
O2 W0 2.144688 1_544
O3 V0 2.000747 1_555
O3 Zn0 2.124672 1_555
O3 W0 2.144780 1_655
O4 Zn1 1.938746 1_655
O4 Zn0 2.154640 1_545
O4 V0 2.248849 1_645
O4 W0 2.269167 1_544
O5 Zn1 1.938768 1_655
O5 Zn0 2.158022 1_656
O5 V0 2.243815 1_545
O5 W0 2.268997 1_655
