# generated using pymatgen
data_Na18Ca16Ta8Si9(S3O16)9
_symmetry_space_group_name_H-M   'P 1'
_cell_length_a   18.31695775
_cell_length_b   9.18362268
_cell_length_c   23.38982568
_cell_angle_alpha   90.04516119
_cell_angle_beta   90.20184366
_cell_angle_gamma   120.03055224
_symmetry_Int_Tables_number   1
_chemical_formula_structural   Na18Ca16Ta8Si9(S3O16)9
_chemical_formula_sum   'Na18 Ca16 Ta8 Si9 S27 O144'
_cell_volume   3406.32926333
_cell_formula_units_Z   1
loop_
 _symmetry_equiv_pos_site_id
 _symmetry_equiv_pos_as_xyz
  1  'x, y, z'
loop_
 _atom_site_type_symbol
 _atom_site_label
 _atom_site_symmetry_multiplicity
 _atom_site_fract_x
 _atom_site_fract_y
 _atom_site_fract_z
 _atom_site_occupancy
  Na  Na0  1  0.35620507  0.04108228  0.90389113  1
  Na  Na1  1  0.84722127  0.03519924  0.90370011  1
  Na  Na2  1  0.66455678  0.28139663  0.90311908  1
  Na  Na3  1  0.16397624  0.04817711  0.40795937  1
  Na  Na4  1  0.34405786  0.65371783  0.42075133  1
  Na  Na5  1  0.85581261  0.67374629  0.40717073  1
  Na  Na6  1  0.01360599  0.04584735  0.50051111  1
  Na  Na7  1  0.51038471  0.01128986  0.50780351  1
  Na  Na8  1  0.00820936  0.00777803  0.99840448  1
  Na  Na9  1  0.50984613  0.98110924  0.99098820  1
  Na  Na10  1  0.32138789  0.32172965  0.81760020  1
  Na  Na11  1  0.81983177  0.30402445  0.82113977  1
  Na  Na12  1  0.31874315  0.31359019  0.32939706  1
  Na  Na13  1  0.82129167  0.32261307  0.31885142  1
  Na  Na14  1  0.16572583  0.67208497  0.16423340  1
  Na  Na15  1  0.67272113  0.67557461  0.16199357  1
  Na  Na16  1  0.16983797  0.67091595  0.66321687  1
  Na  Na17  1  0.66943609  0.66300960  0.66794465  1
  Ca  Ca0  1  0.00359337  0.01070586  0.34823731  1
  Ca  Ca1  1  0.50604534  0.00883359  0.35191797  1
  Ca  Ca2  1  0.00393225  0.00488415  0.84950144  1
  Ca  Ca3  1  0.50319271  0.99630695  0.84783457  1
  Ca  Ca4  1  0.32970174  0.32767909  0.68428801  1
  Ca  Ca5  1  0.82820480  0.32978281  0.68629275  1
  Ca  Ca6  1  0.32811022  0.32442857  0.18514263  1
  Ca  Ca7  1  0.83117010  0.33108256  0.18488893  1
  Ca  Ca8  1  0.33121958  0.33992655  0.98203207  1
  Ca  Ca9  1  0.83267283  0.32525143  0.98037077  1
  Ca  Ca10  1  0.33173476  0.33379908  0.48544657  1
  Ca  Ca11  1  0.83060206  0.32160188  0.48638662  1
  Ca  Ca12  1  0.16463980  0.66265645  0.02113913  1
  Ca  Ca13  1  0.66464942  0.67375776  0.01920443  1
  Ca  Ca14  1  0.16494196  0.65557812  0.52224247  1
  Ca  Ca15  1  0.66419894  0.66633584  0.52269427  1
  Ta  Ta0  1  0.99965653  0.00905898  0.65629145  1
  Ta  Ta1  1  0.49959057  0.01046234  0.65875508  1
  Ta  Ta2  1  0.00004996  0.98715193  0.15689034  1
  Ta  Ta3  1  0.50482292  0.99975417  0.15179284  1
  Ta  Ta4  1  0.16348715  0.65852805  0.31234721  1
  Ta  Ta5  1  0.66930571  0.67423040  0.30758728  1
  Ta  Ta6  1  0.16771744  0.66269828  0.80724649  1
  Ta  Ta7  1  0.67105518  0.68147828  0.80910425  1
  Si  Si0  1  0.15151565  0.99420223  0.25642605  1
  Si  Si1  1  0.64924826  0.99754699  0.25355734  1
  Si  Si2  1  0.85221947  0.70122078  0.25703323  1
  Si  Si3  1  0.15036249  0.29956346  0.75362911  1
  Si  Si4  1  0.65016151  0.31091155  0.75689198  1
  Si  Si5  1  0.35090429  0.00161989  0.75710290  1
  Si  Si6  1  0.85246949  0.00297201  0.75647446  1
  Si  Si7  1  0.66646013  0.96292379  0.91679024  1
  Si  Si8  1  0.16734649  0.36861002  0.41655848  1
  S  S0  1  0.35076069  0.71455483  0.25118427  1
  S  S1  1  0.00701890  0.30215886  0.24855066  1
  S  S2  1  0.50507358  0.29777750  0.24995862  1
  S  S3  1  0.00610115  0.71421425  0.74976482  1
  S  S4  1  0.50609144  0.71141609  0.74807790  1
  S  S5  1  0.48383009  0.31871760  0.58655241  1
  S  S6  1  0.98264495  0.31956224  0.58782407  1
  S  S7  1  0.17339077  0.02701755  0.58420930  1
  S  S8  1  0.67383145  0.02981130  0.58614271  1
  S  S9  1  0.34289389  0.65425048  0.58466271  1
  S  S10  1  0.84187100  0.65013645  0.58325344  1
  S  S11  1  0.48245308  0.64304899  0.08906736  1
  S  S12  1  0.98405666  0.64602127  0.08700851  1
  S  S13  1  0.33989725  0.03149146  0.08534975  1
  S  S14  1  0.84200894  0.03030895  0.08606036  1
  S  S15  1  0.17490774  0.32026790  0.08719917  1
  S  S16  1  0.67575129  0.32430037  0.08599758  1
  S  S17  1  0.30632897  0.66019691  0.91337482  1
  S  S18  1  0.80852883  0.66320479  0.91414981  1
  S  S19  1  0.02252207  0.38038061  0.91425565  1
  S  S20  1  0.51986078  0.37877875  0.91467257  1
  S  S21  1  0.16811148  0.95151251  0.91494908  1
  S  S22  1  0.30731932  0.95025745  0.41297629  1
  S  S23  1  0.80623217  0.95345999  0.41338413  1
  S  S24  1  0.66901002  0.38696428  0.41418507  1
  S  S25  1  0.02094841  0.65870862  0.41340198  1
  S  S26  1  0.52080106  0.66101164  0.41322559  1
  O  O0  1  0.11367665  0.01294114  0.31483233  1
  O  O1  1  0.60499747  0.01883343  0.30723639  1
  O  O2  1  0.39508721  0.78613609  0.30476837  1
  O  O3  1  0.89457260  0.77876291  0.31656103  1
  O  O4  1  0.48960245  0.20029075  0.30162681  1
  O  O5  1  0.99472319  0.21211737  0.30151275  1
  O  O6  1  0.11082551  0.19308301  0.80871764  1
  O  O7  1  0.61327891  0.20817855  0.81386584  1
  O  O8  1  0.49238667  0.77609252  0.80068229  1
  O  O9  1  0.99255053  0.78070559  0.80197041  1
  O  O10  1  0.39411797  0.00910920  0.81613222  1
  O  O11  1  0.89462278  0.00746101  0.81588419  1
  O  O12  1  0.40546161  0.97044982  0.70164235  1
  O  O13  1  0.90788034  0.97305714  0.70084789  1
  O  O14  1  0.08348227  0.19062632  0.69652845  1
  O  O15  1  0.58101461  0.18847707  0.70075006  1
  O  O16  1  0.01993240  0.82972340  0.69924731  1
  O  O17  1  0.51723652  0.82820016  0.69811274  1
  O  O18  1  0.39781190  0.83134389  0.20143878  1
  O  O19  1  0.90719427  0.84155406  0.20197264  1
  O  O20  1  0.01980690  0.21313381  0.19883866  1
  O  O21  1  0.51598356  0.20485983  0.19945743  1
  O  O22  1  0.08308381  0.97679496  0.20057031  1
  O  O23  1  0.58137945  0.97463307  0.19651588  1
  O  O24  1  0.44240506  0.34070062  0.63574336  1
  O  O25  1  0.93880860  0.33586822  0.63650194  1
  O  O26  1  0.22933031  0.11887874  0.63168221  1
  O  O27  1  0.72792433  0.11478685  0.63490827  1
  O  O28  1  0.33384776  0.54153736  0.63113710  1
  O  O29  1  0.83174495  0.53911416  0.63064190  1
  O  O30  1  0.43908777  0.54289002  0.13868421  1
  O  O31  1  0.94298736  0.54355807  0.13676817  1
  O  O32  1  0.32958430  0.12129979  0.13318915  1
  O  O33  1  0.83179406  0.12124784  0.13358855  1
  O  O34  1  0.22872097  0.34502241  0.13679206  1
  O  O35  1  0.72868811  0.34106474  0.13446457  1
  O  O36  1  0.20992733  0.29298660  0.03412127  1
  O  O37  1  0.70476880  0.29159862  0.03180434  1
  O  O38  1  0.43565503  0.57860017  0.03545854  1
  O  O39  1  0.93629972  0.58008358  0.03374273  1
  O  O40  1  0.35477772  0.12301257  0.03094243  1
  O  O41  1  0.85455382  0.11929297  0.03116654  1
  O  O42  1  0.20617889  0.11607805  0.52892081  1
  O  O43  1  0.70797989  0.12455613  0.53212871  1
  O  O44  1  0.35389201  0.58988347  0.52854505  1
  O  O45  1  0.85289378  0.58254611  0.52785668  1
  O  O46  1  0.43641913  0.29039863  0.53274617  1
  O  O47  1  0.93662093  0.29328430  0.53332520  1
  O  O48  1  0.26523885  0.67299102  0.96511909  1
  O  O49  1  0.76775376  0.67630365  0.96597174  1
  O  O50  1  0.06878509  0.46166385  0.96677422  1
  O  O51  1  0.56732942  0.45516731  0.96753813  1
  O  O52  1  0.16502466  0.86257349  0.96766872  1
  O  O53  1  0.66573179  0.86485932  0.97283032  1
  O  O54  1  0.26750672  0.85822382  0.46485841  1
  O  O55  1  0.76428693  0.85590811  0.46415367  1
  O  O56  1  0.17049579  0.47950285  0.46928274  1
  O  O57  1  0.66492068  0.46942162  0.46643765  1
  O  O58  1  0.07122947  0.67905898  0.46410653  1
  O  O59  1  0.56882165  0.68031710  0.46548293  1
  O  O60  1  0.07021470  0.65152416  0.36047873  1
  O  O61  1  0.57025743  0.65692975  0.36195195  1
  O  O62  1  0.25230165  0.85346044  0.36046451  1
  O  O63  1  0.75185288  0.85241789  0.36056079  1
  O  O64  1  0.16978567  0.49472106  0.35717333  1
  O  O65  1  0.67095510  0.49039756  0.36254567  1
  O  O66  1  0.07178881  0.48351754  0.86314946  1
  O  O67  1  0.56657996  0.48069051  0.86383658  1
  O  O68  1  0.17054839  0.85223233  0.86368147  1
  O  O69  1  0.66902962  0.84213655  0.85912529  1
  O  O70  1  0.25248017  0.65325786  0.86141061  1
  O  O71  1  0.75487613  0.65250426  0.86182890  1
  O  O72  1  0.01045461  0.80739928  0.40894572  1
  O  O73  1  0.50441119  0.80418319  0.41007635  1
  O  O74  1  0.38969941  0.96060701  0.40703931  1
  O  O75  1  0.88906716  0.96580489  0.40931643  1
  O  O76  1  0.08687990  0.18080480  0.41782669  1
  O  O77  1  0.59534420  0.21745020  0.41177360  1
  O  O78  1  0.00974272  0.20769422  0.91316575  1
  O  O79  1  0.50827497  0.20612648  0.91199345  1
  O  O80  1  0.09452562  0.97406061  0.91310683  1
  O  O81  1  0.58722288  0.99405021  0.91633710  1
  O  O82  1  0.38953369  0.81327137  0.91015036  1
  O  O83  1  0.89289487  0.81327817  0.91097197  1
  O  O84  1  0.48984195  0.15725670  0.59551945  1
  O  O85  1  0.98921084  0.15807159  0.59521817  1
  O  O86  1  0.08803538  0.01417633  0.59345328  1
  O  O87  1  0.58805746  0.01546740  0.59456339  1
  O  O88  1  0.42235086  0.82375372  0.59378353  1
  O  O89  1  0.92090827  0.81994090  0.59313989  1
  O  O90  1  0.48767090  0.81843592  0.09763721  1
  O  O91  1  0.99046872  0.82110700  0.09644566  1
  O  O92  1  0.41839007  0.01683211  0.09799669  1
  O  O93  1  0.92233013  0.02084664  0.09663147  1
  O  O94  1  0.08929817  0.16268338  0.09615981  1
  O  O95  1  0.58739557  0.16176975  0.09730354  1
  O  O96  1  0.33464577  0.15110517  0.74413849  1
  O  O97  1  0.83876599  0.15589364  0.74403788  1
  O  O98  1  0.24565276  0.35765523  0.74190113  1
  O  O99  1  0.74344019  0.35428496  0.74367545  1
  O  O100  1  0.43745460  0.54297420  0.73630958  1
  O  O101  1  0.93847048  0.54538992  0.73767651  1
  O  O102  1  0.33970810  0.54843292  0.24118976  1
  O  O103  1  0.83527831  0.51860024  0.24412035  1
  O  O104  1  0.43776726  0.33364424  0.23846323  1
  O  O105  1  0.93880549  0.33593476  0.23832253  1
  O  O106  1  0.24454308  0.14561866  0.24593158  1
  O  O107  1  0.74374369  0.13526519  0.24293938  1
  O  O108  1  0.31210464  0.50657706  0.91196243  1
  O  O109  1  0.81162172  0.50556338  0.91364677  1
  O  O110  1  0.43418696  0.36101761  0.91606610  1
  O  O111  1  0.93896853  0.36903307  0.91284538  1
  O  O112  1  0.24911959  0.11599374  0.91365188  1
  O  O113  1  0.75584479  0.14384646  0.91045318  1
  O  O114  1  0.31290280  0.11595733  0.41173309  1
  O  O115  1  0.81171695  0.11808758  0.41175441  1
  O  O116  1  0.25605479  0.36390196  0.41010936  1
  O  O117  1  0.74965330  0.38353973  0.41252501  1
  O  O118  1  0.43797599  0.50358928  0.41284234  1
  O  O119  1  0.93762591  0.50423044  0.41275854  1
  O  O120  1  0.16124586  0.46532210  0.08298911  1
  O  O121  1  0.65851540  0.46342781  0.08393349  1
  O  O122  1  0.07158512  0.68073629  0.08344276  1
  O  O123  1  0.56931944  0.67620277  0.08709469  1
  O  O124  1  0.26770432  0.85860385  0.08247018  1
  O  O125  1  0.77027900  0.85589018  0.08452868  1
  O  O126  1  0.16019448  0.85495956  0.58216391  1
  O  O127  1  0.66061057  0.85772655  0.58184969  1
  O  O128  1  0.27028996  0.68274000  0.58377861  1
  O  O129  1  0.76890756  0.67776901  0.58056181  1
  O  O130  1  0.06940280  0.46218402  0.58550139  1
  O  O131  1  0.57116755  0.45966168  0.58247570  1
  O  O132  1  0.15122940  0.80833909  0.25800187  1
  O  O133  1  0.64514682  0.80636888  0.25845742  1
  O  O134  1  0.26492103  0.70281511  0.25346489  1
  O  O135  1  0.75538029  0.69307252  0.25964363  1
  O  O136  1  0.08882729  0.47353455  0.25276267  1
  O  O137  1  0.58746154  0.46325729  0.25510002  1
  O  O138  1  0.14516041  0.48252992  0.75941414  1
  O  O139  1  0.64407911  0.48776606  0.75969088  1
  O  O140  1  0.08811437  0.70913468  0.75534638  1
  O  O141  1  0.58785230  0.70891487  0.75101822  1
  O  O142  1  0.25482225  0.81641367  0.75990640  1
  O  O143  1  0.75684788  0.81942494  0.75757799  1
loop_
_geom_bond_atom_site_label_1
_geom_bond_atom_site_label_2
_geom_bond_distance
_geom_bond_site_symmetry_2
Na0 O10 2.234973 1_555
Na0 O112 2.392986 1_555
Na0 O79 2.421167 1_555
Na0 O82 2.459544 1_545
Na0 O110 2.559160 1_555
Na1 O11 2.295819 1_555
Na1 O113 2.344158 1_555
Na1 O83 2.566823 1_545
Na1 O78 2.587482 1_655
Na1 O111 2.666194 1_555
Na2 O7 2.245953 1_555
Na2 O81 2.308398 1_545
Na2 O109 2.449287 1_555
Na2 O113 2.556093 1_555
Na2 O79 2.596004 1_555
Na3 O76 2.292268 1_555
Na3 O0 2.320468 1_555
Na3 O114 2.476939 1_555
Na3 O116 2.521626 1_555
Na3 O72 2.564054 1_545
Na3 O42 2.913845 1_555
Na4 O116 2.333689 1_555
Na4 O74 2.527817 1_555
Na4 O73 2.557759 1_555
Na4 O44 2.614914 1_555
Na4 O118 2.696360 1_555
Na4 O2 2.932109 1_555
Na5 O3 2.292222 1_555
Na5 O117 2.390580 1_555
Na5 O75 2.435531 1_555
Na5 O72 2.459851 1_655
Na5 O119 2.649595 1_555
Na5 O45 2.938137 1_555
Na6 O76 2.331268 1_555
Na6 O85 2.575503 1_455
Na6 O86 2.654448 1_555
Na6 O89 2.896256 1_445
Na6 O75 2.928950 1_445
Na6 O72 3.041499 1_545
Na7 O87 2.463449 1_555
Na7 O84 2.579501 1_555
Na7 O88 2.619028 1_545
Na7 O77 2.851958 1_555
Na7 O73 2.938979 1_545
Na8 O80 2.662196 1_545
Na8 O78 2.702034 1_555
Na8 O94 2.704421 1_556
Na8 O91 2.785129 1_446
Na8 O93 2.825144 1_456
Na8 O83 2.832245 1_445
Na9 O81 2.218295 1_555
Na9 O82 2.715424 1_555
Na9 O79 2.783920 1_565
Na9 O90 2.832842 1_556
Na9 O95 2.926393 1_566
Na10 O98 2.368541 1_555
Na10 O96 2.417909 1_555
Na10 O112 2.809579 1_555
Na10 O100 2.823882 1_555
Na10 O108 2.840365 1_555
Na10 O110 2.987034 1_555
Na11 O97 2.386616 1_555
Na11 O99 2.466535 1_555
Na11 O113 2.489580 1_555
Na11 O111 2.894898 1_555
Na11 O109 2.899062 1_555
Na11 O101 2.943148 1_555
Na12 O116 2.375055 1_555
Na12 O106 2.432303 1_555
Na12 O114 2.612861 1_555
Na12 O118 2.788205 1_555
Na12 O102 2.870380 1_555
Na12 O104 2.990356 1_555
Na13 O107 2.379449 1_555
Na13 O103 2.430446 1_555
Na13 O117 2.754753 1_555
Na13 O115 2.821343 1_555
Na13 O105 2.821584 1_555
Na13 O119 2.924197 1_555
Na14 O122 2.581678 1_555
Na14 O132 2.603626 1_555
Na14 O124 2.628385 1_555
Na14 O136 2.655624 1_555
Na14 O120 2.657189 1_555
Na14 O134 2.682555 1_555
Na15 O125 2.506799 1_555
Na15 O123 2.577579 1_555
Na15 O121 2.584705 1_555
Na15 O135 2.695641 1_555
Na15 O133 2.720233 1_555
Na15 O137 2.822433 1_555
Na16 O128 2.583420 1_555
Na16 O126 2.604528 1_555
Na16 O130 2.608517 1_555
Na16 O142 2.685465 1_555
Na16 O138 2.736910 1_555
Na16 O140 2.748631 1_555
Na17 O139 2.583620 1_555
Na17 O143 2.586867 1_555
Na17 O141 2.614602 1_555
Na17 O129 2.700925 1_555
Na17 O131 2.707035 1_555
Na17 O127 2.751675 1_555
Ca0 O0 2.155559 1_555
Ca0 O3 2.191674 1_445
Ca0 O5 2.223706 1_455
Ca0 O76 2.238324 1_555
Ca0 O72 2.399145 1_545
Ca0 O75 2.401643 1_445
Ca1 O1 2.057356 1_555
Ca1 O4 2.257593 1_555
Ca1 O77 2.269143 1_555
Ca1 O73 2.309031 1_545
Ca1 O2 2.312969 1_545
Ca1 O74 2.339985 1_545
Ca2 O6 2.087909 1_555
Ca2 O11 2.159645 1_455
Ca2 O9 2.254579 1_445
Ca2 O78 2.343898 1_555
Ca2 O80 2.345306 1_545
Ca2 O83 2.396369 1_445
Ca3 O7 2.137723 1_565
Ca3 O10 2.186356 1_565
Ca3 O8 2.222561 1_555
Ca3 O81 2.225162 1_555
Ca3 O79 2.405937 1_565
Ca3 O82 2.409720 1_555
Ca4 O98 2.167964 1_555
Ca4 O96 2.178788 1_555
Ca4 O26 2.241143 1_555
Ca4 O28 2.294294 1_555
Ca4 O24 2.309730 1_555
Ca4 O100 2.314870 1_555
Ca5 O99 2.150957 1_555
Ca5 O97 2.173163 1_555
Ca5 O27 2.251114 1_555
Ca5 O29 2.296519 1_555
Ca5 O25 2.316719 1_555
Ca5 O101 2.328232 1_555
Ca6 O106 2.136431 1_555
Ca6 O34 2.226979 1_555
Ca6 O32 2.237053 1_555
Ca6 O30 2.296745 1_555
Ca6 O104 2.325728 1_555
Ca6 O102 2.356266 1_555
Ca7 O103 2.180924 1_555
Ca7 O107 2.186018 1_555
Ca7 O35 2.253878 1_555
Ca7 O33 2.274181 1_555
Ca7 O31 2.299734 1_555
Ca7 O105 2.312062 1_555
Ca8 O110 2.372902 1_555
Ca8 O36 2.380647 1_556
Ca8 O108 2.384783 1_555
Ca8 O38 2.409838 1_556
Ca8 O112 2.435405 1_555
Ca8 O40 2.514706 1_556
Ca9 O113 2.250129 1_555
Ca9 O111 2.384566 1_555
Ca9 O41 2.430793 1_556
Ca9 O109 2.442405 1_555
Ca9 O39 2.484081 1_556
Ca9 O37 2.515406 1_556
Ca10 O116 2.338861 1_555
Ca10 O42 2.395414 1_555
Ca10 O44 2.397877 1_555
Ca10 O46 2.410466 1_555
Ca10 O118 2.468299 1_555
Ca10 O114 2.528560 1_555
Ca11 O43 2.327206 1_555
Ca11 O47 2.352666 1_555
Ca11 O45 2.421678 1_555
Ca11 O115 2.450212 1_555
Ca11 O117 2.516817 1_555
Ca11 O119 2.521738 1_555
Ca12 O50 2.200792 1_554
Ca12 O52 2.219391 1_554
Ca12 O48 2.227887 1_554
Ca12 O120 2.296284 1_555
Ca12 O122 2.314486 1_555
Ca12 O124 2.331637 1_555
Ca13 O53 2.055553 1_554
Ca13 O51 2.251030 1_554
Ca13 O49 2.256080 1_554
Ca13 O125 2.368897 1_555
Ca13 O123 2.372729 1_555
Ca13 O121 2.413390 1_555
Ca14 O56 2.078911 1_555
Ca14 O58 2.279584 1_555
Ca14 O54 2.305764 1_555
Ca14 O130 2.305978 1_555
Ca14 O128 2.314198 1_555
Ca14 O126 2.341115 1_555
Ca15 O57 2.241015 1_555
Ca15 O59 2.251127 1_555
Ca15 O55 2.256900 1_555
Ca15 O127 2.262869 1_555
Ca15 O131 2.290220 1_555
Ca15 O129 2.302487 1_555
O0 Si0 1.581754 1_545
O1 Si1 1.561076 1_545
O2 S0 1.455845 1_555
O3 Si2 1.576528 1_555
O4 S2 1.446550 1_555
O5 S1 1.444380 1_655
O6 Si3 1.562273 1_555
O7 Si4 1.578837 1_555
O8 S4 1.442212 1_555
O9 S3 1.441588 1_655
O10 Si5 1.573284 1_555
O11 Si6 1.577752 1_555
O12 Si5 1.748778 1_565
O12 Ta1 1.868857 1_565
O13 Si6 1.756787 1_565
O13 Ta0 1.864929 1_565
O14 Si3 1.744998 1_555
O14 Ta0 1.856986 1_455
O15 Si4 1.775760 1_555
O15 Ta1 1.846217 1_555
O16 S3 1.523392 1_555
O16 Ta0 2.114727 1_465
O17 S4 1.530440 1_555
O17 Ta1 2.072550 1_565
O18 S0 1.526682 1_555
O18 Ta3 2.137056 1_555
O19 Si2 1.745364 1_555
O19 Ta2 1.879139 1_655
O20 S1 1.505787 1_555
O20 Ta2 2.154810 1_545
O21 S2 1.527781 1_555
O21 Ta3 2.107695 1_545
O22 Si0 1.758158 1_555
O22 Ta2 1.870848 1_555
O23 Si1 1.759488 1_555
O23 Ta3 1.851412 1_555
O24 S5 1.448939 1_555
O25 S6 1.445686 1_555
O26 S7 1.455966 1_555
O27 S8 1.452043 1_555
O28 S9 1.453243 1_555
O29 S10 1.454810 1_555
O30 S11 1.449385 1_555
O31 S12 1.450971 1_555
O32 S13 1.457382 1_555
O33 S14 1.457639 1_555
O34 S15 1.461520 1_555
O35 S16 1.446234 1_555
O36 S15 1.476987 1_555
O37 S16 1.464019 1_555
O38 S11 1.463149 1_555
O39 S12 1.464595 1_555
O40 S13 1.474791 1_555
O41 S14 1.478153 1_555
O42 S7 1.489114 1_555
O43 S8 1.485597 1_555
O44 S9 1.494227 1_555
O45 S10 1.493644 1_555
O46 S5 1.473564 1_555
O47 S6 1.477208 1_555
O48 S17 1.462802 1_555
O49 S18 1.462043 1_555
O50 S19 1.463677 1_555
O51 S20 1.468890 1_555
O52 S21 1.465172 1_555
O53 Si7 1.587232 1_555
O54 S22 1.452482 1_555
O55 S23 1.456774 1_555
O56 Si8 1.581136 1_555
O57 S24 1.459017 1_555
O58 S25 1.452363 1_555
O59 S26 1.461198 1_555
O60 S25 1.555102 1_555
O60 Ta4 2.023381 1_555
O61 S26 1.517199 1_555
O61 Ta5 2.159111 1_555
O62 S22 1.551536 1_555
O62 Ta4 2.046184 1_555
O63 S23 1.563368 1_555
O63 Ta5 2.001570 1_555
O64 Si8 1.795507 1_555
O64 Ta4 1.884411 1_555
O65 S24 1.526654 1_555
O65 Ta5 2.134884 1_555
O66 S19 1.514674 1_555
O66 Ta6 2.151853 1_555
O67 S20 1.493102 1_555
O67 Ta7 2.278194 1_555
O68 S21 1.520069 1_555
O68 Ta6 2.163417 1_555
O69 Si7 1.761311 1_555
O69 Ta7 1.897233 1_555
O70 S17 1.543612 1_555
O70 Ta6 2.035712 1_555
O71 S18 1.538755 1_555
O71 Ta7 2.084468 1_555
O72 S25 1.474873 1_555
O73 S26 1.489776 1_555
O74 S22 1.470782 1_555
O75 S23 1.467283 1_555
O76 Si8 1.613668 1_555
O77 S24 1.464298 1_555
O78 S19 1.482838 1_555
O79 S20 1.491965 1_555
O80 S21 1.463030 1_555
O81 Si7 1.613539 1_555
O82 S17 1.470089 1_555
O83 S18 1.470461 1_555
O84 S5 1.555173 1_555
O84 Ta1 2.068610 1_555
O85 S6 1.556488 1_555
O85 Ta0 2.052598 1_555
O86 S7 1.524110 1_555
O86 Ta0 2.173427 1_455
O87 S8 1.523032 1_555
O87 Ta1 2.196577 1_555
O88 S9 1.522014 1_555
O88 Ta1 2.191741 1_565
O89 S10 1.522677 1_555
O89 Ta0 2.179979 1_565
O90 S11 1.577625 1_555
O90 Ta3 1.986505 1_555
O91 S12 1.567853 1_555
O91 Ta2 2.020370 1_655
O92 S13 1.537386 1_555
O92 Ta3 2.085464 1_545
O93 S14 1.535796 1_555
O93 Ta2 2.129876 1_645
O94 S15 1.525976 1_555
O94 Ta2 2.161263 1_545
O95 S16 1.582033 1_555
O95 Ta3 1.972267 1_545
O96 Si5 1.573053 1_555
O97 Si6 1.572530 1_555
O98 Si3 1.574151 1_555
O99 Si4 1.579934 1_555
O100 S4 1.448993 1_555
O101 S3 1.446639 1_655
O102 S0 1.453635 1_555
O103 Si2 1.574126 1_555
O104 S2 1.450849 1_555
O105 S1 1.449323 1_655
O106 Si0 1.590364 1_545
O107 Si1 1.571485 1_545
O108 S17 1.466950 1_555
O109 S18 1.476926 1_555
O110 S20 1.494819 1_555
O111 S19 1.481289 1_655
O112 S21 1.497103 1_545
O113 Si7 1.656045 1_545
O114 S22 1.473523 1_545
O115 S23 1.464721 1_545
O116 Si8 1.654343 1_555
O117 S24 1.493767 1_555
O118 S26 1.482000 1_555
O119 S25 1.474717 1_655
O120 S15 1.476675 1_555
O121 S16 1.462274 1_555
O122 S12 1.472549 1_455
O123 S11 1.463611 1_555
O124 S13 1.473695 1_565
O125 S14 1.478640 1_565
O126 S7 1.474784 1_565
O127 S8 1.477425 1_565
O128 S9 1.478362 1_555
O129 S10 1.481015 1_555
O130 S6 1.470109 1_455
O131 S5 1.473904 1_555
O132 Si0 1.704707 1_555
O132 Ta4 1.966967 1_555
O133 Si1 1.723266 1_555
O133 Ta5 1.877514 1_555
O134 S0 1.522363 1_555
O134 Ta4 2.185588 1_555
O135 Si2 1.738851 1_555
O135 Ta5 1.874274 1_555
O136 S1 1.539580 1_555
O136 Ta4 2.087140 1_555
O137 S2 1.517982 1_555
O137 Ta5 2.141145 1_555
O138 Si3 1.735157 1_555
O138 Ta6 1.862701 1_555
O139 Si4 1.683927 1_555
O139 Ta7 1.964083 1_555
O140 S3 1.531239 1_555
O140 Ta6 2.095768 1_555
O141 S4 1.510564 1_555
O141 Ta7 2.145297 1_555
O142 Si5 1.731882 1_565
O142 Ta6 1.877496 1_555
O143 Si6 1.719022 1_565
O143 Ta7 1.884142 1_555
