# generated using pymatgen
data_MgCrSbO4
_symmetry_space_group_name_H-M   'P 1'
_cell_length_a   5.42775927
_cell_length_b   5.42775898
_cell_length_c   5.42795166
_cell_angle_alpha   130.57703522
_cell_angle_beta   132.91631036
_cell_angle_gamma   70.64339241
_symmetry_Int_Tables_number   1
_chemical_formula_structural   MgCrSbO4
_chemical_formula_sum   'Mg1 Cr1 Sb1 O4'
_cell_volume   87.14444957
_cell_formula_units_Z   1
loop_
 _symmetry_equiv_pos_site_id
 _symmetry_equiv_pos_as_xyz
  1  'x, y, z'
loop_
 _atom_site_type_symbol
 _atom_site_label
 _atom_site_symmetry_multiplicity
 _atom_site_fract_x
 _atom_site_fract_y
 _atom_site_fract_z
 _atom_site_occupancy
  Mg  Mg0  1  0.49227600  0.49227600  0.00000000  1
  Cr  Cr0  1  0.73778400  0.23778400  0.50000000  1
  Sb  Sb0  1  0.97104300  0.97104300  0.00000000  1
  O  O0  1  0.51266900  0.01266900  0.50000000  1
  O  O1  1  0.25746500  0.25746500  0.00000000  1
  O  O2  1  0.96433200  0.46433200  0.50000000  1
  O  O3  1  0.73109700  0.73109700  0.00000000  1
loop_
_geom_bond_atom_site_label_1
_geom_bond_atom_site_label_2
_geom_bond_distance
_geom_bond_site_symmetry_2
Mg0 O1 2.079773 1_555
Mg0 O3 2.115290 1_555
Mg0 O2 2.182069 1_555
Mg0 O2 2.182070 1_454
Mg0 O0 2.276288 1_554
Mg0 O0 2.276288 1_565
Cr0 O0 1.993893 1_555
Cr0 O2 2.006586 1_555
Cr0 O1 2.174984 1_555
Cr0 O1 2.174984 1_656
Cr0 O3 2.269883 1_556
Cr0 O3 2.269883 1_545
O0 Sb0 2.199114 1_546
O0 Sb0 2.199114 1_445
O1 Sb0 2.536903 1_445
O2 Sb0 2.269889 1_545
O2 Sb0 2.269889 1_556
O3 Sb0 2.125255 1_555
