# generated using pymatgen
data_Np3Se4
_symmetry_space_group_name_H-M   'P 1'
_cell_length_a   7.69036301
_cell_length_b   7.69042564
_cell_length_c   7.69018403
_cell_angle_alpha   109.43783757
_cell_angle_beta   109.63067313
_cell_angle_gamma   109.34493918
_symmetry_Int_Tables_number   1
_chemical_formula_structural   Np3Se4
_chemical_formula_sum   'Np6 Se8'
_cell_volume   350.11529809
_cell_formula_units_Z   2
loop_
 _symmetry_equiv_pos_site_id
 _symmetry_equiv_pos_as_xyz
  1  'x, y, z'
loop_
 _atom_site_type_symbol
 _atom_site_label
 _atom_site_symmetry_multiplicity
 _atom_site_fract_x
 _atom_site_fract_y
 _atom_site_fract_z
 _atom_site_occupancy
  Np  Np0  1  0.25003752  0.12035530  0.87035204  1
  Np  Np1  1  0.12536985  0.87540376  0.24999114  1
  Np  Np2  1  0.75002440  0.37967552  0.62970440  1
  Np  Np3  1  0.87923127  0.24998155  0.12922659  1
  Np  Np4  1  0.62080463  0.75000683  0.37080339  1
  Np  Np5  1  0.37457219  0.62459279  0.74995560  1
  Se  Se0  1  0.50000515  -0.00001865  0.64850211  1
  Se  Se1  1  -0.00002911  0.64846906  0.49996528  1
  Se  Se2  1  0.64852011  0.50002737  0.00001975  1
  Se  Se3  1  0.00026014  0.14872712  0.50061290  1
  Se  Se4  1  0.85149432  0.85152505  0.85149933  1
  Se  Se5  1  0.35190934  0.35127739  0.35157162  1
  Se  Se6  1  0.14806175  0.49961218  0.99938462  1
  Se  Se7  1  0.49973945  0.00036574  0.14841324  1
loop_
_geom_bond_atom_site_label_1
_geom_bond_atom_site_label_2
_geom_bond_distance
_geom_bond_site_symmetry_2
Np0 Se7 2.973177 1_556
Np0 Se3 2.973695 1_555
Np0 Se2 2.998626 1_556
Np0 Se4 2.998840 1_445
Np0 Se0 3.129612 1_555
Np0 Se1 3.130048 1_545
Np0 Se6 3.196634 1_555
Np0 Se5 3.196659 1_556
Np1 Se4 2.982153 1_454
Np1 Se0 2.982445 1_565
Np1 Se3 2.991332 1_565
Np1 Se6 2.991623 1_554
Np1 Se5 3.161866 1_565
Np1 Se7 3.162330 1_565
Np1 Se2 3.167539 1_455
Np1 Se1 3.167767 1_555
Np2 Se6 2.973209 1_655
Np2 Se5 2.973605 1_555
Np2 Se1 2.998686 1_655
Np2 Se0 2.998729 1_555
Np2 Se2 3.129528 1_556
Np2 Se4 3.129871 1_555
Np2 Se3 3.196541 1_655
Np2 Se7 3.196965 1_555
Np3 Se4 2.983606 1_544
Np3 Se1 2.983782 1_655
Np3 Se6 2.998349 1_654
Np3 Se7 2.998382 1_555
Np3 Se3 3.131104 1_655
Np3 Se5 3.131351 1_655
Np3 Se0 3.190451 1_554
Np3 Se2 3.190697 1_555
Np4 Se0 2.983796 1_565
Np4 Se2 2.983805 1_555
Np4 Se3 2.998622 1_665
Np4 Se5 2.998764 1_555
Np4 Se6 3.131720 1_554
Np4 Se7 3.131779 1_565
Np4 Se4 3.190154 1_555
Np4 Se1 3.190241 1_655
Np5 Se1 2.982094 1_555
Np5 Se2 2.982484 1_556
Np5 Se5 2.991143 1_555
Np5 Se7 2.991450 1_566
Np5 Se3 3.161865 1_555
Np5 Se6 3.162347 1_555
Np5 Se0 3.167525 1_565
Np5 Se4 3.167883 1_555
