# generated using pymatgen
data_MgCr2(SbO4)2
_symmetry_space_group_name_H-M   'P 1'
_cell_length_a   6.33740897
_cell_length_b   6.90972789
_cell_length_c   6.28679758
_cell_angle_alpha   52.51069907
_cell_angle_beta   59.73332834
_cell_angle_gamma   62.70409092
_symmetry_Int_Tables_number   1
_chemical_formula_structural   MgCr2(SbO4)2
_chemical_formula_sum   'Mg1 Cr2 Sb2 O8'
_cell_volume   183.97525690
_cell_formula_units_Z   1
loop_
 _symmetry_equiv_pos_site_id
 _symmetry_equiv_pos_as_xyz
  1  'x, y, z'
loop_
 _atom_site_type_symbol
 _atom_site_label
 _atom_site_symmetry_multiplicity
 _atom_site_fract_x
 _atom_site_fract_y
 _atom_site_fract_z
 _atom_site_occupancy
  Mg  Mg0  1  -0.00000000  0.50000000  -0.00000000  1
  Cr  Cr0  1  0.50000000  0.00000000  0.50000000  1
  Cr  Cr1  1  0.50000000  0.50000000  -0.00000000  1
  Sb  Sb0  1  -0.00000000  0.50000000  0.50000000  1
  Sb  Sb1  1  0.50000000  0.50000000  0.50000000  1
  O  O0  1  0.23557594  0.29318567  0.28815438  1
  O  O1  1  0.20613796  0.31947111  0.76825196  1
  O  O2  1  0.29231960  0.69316004  0.22219977  1
  O  O3  1  0.68308402  0.29318567  0.28815438  1
  O  O4  1  0.31691598  0.70681433  0.71184562  1
  O  O5  1  0.79386204  0.68052889  0.23174804  1
  O  O6  1  0.70768040  0.30683996  0.77780023  1
  O  O7  1  0.76442406  0.70681433  0.71184562  1
loop_
_geom_bond_atom_site_label_1
_geom_bond_atom_site_label_2
_geom_bond_distance
_geom_bond_site_symmetry_2
Mg0 O1 2.045555 1_554
Mg0 O5 2.045555 1_455
Mg0 O3 2.274034 1_455
Mg0 O4 2.274034 1_554
Mg0 O7 2.274034 1_454
Mg0 O0 2.274034 1_555
Cr0 O0 2.130250 1_555
Cr0 O7 2.130250 1_545
Cr0 O4 2.130250 1_545
Cr0 O3 2.130250 1_555
Cr1 O7 2.029069 1_554
Cr1 O0 2.029069 1_555
Cr1 O3 2.029069 1_555
Cr1 O4 2.029069 1_554
Cr1 O2 2.066393 1_555
Cr1 O6 2.066393 1_554
O0 Sb0 2.097697 1_555
O1 Sb0 2.066968 1_555
O1 Sb1 2.066973 1_555
O2 Sb0 2.105336 1_555
O2 Sb1 2.105341 1_555
O3 Sb1 2.097697 1_555
O4 Sb1 2.097697 1_555
O5 Sb0 2.066968 1_655
O5 Sb1 2.066973 1_555
O6 Sb0 2.105336 1_655
O6 Sb1 2.105341 1_555
O7 Sb0 2.097697 1_655
