# generated using pymatgen
data_Ba2MgVFeO6
_symmetry_space_group_name_H-M   'P 1'
_cell_length_a   6.65096035
_cell_length_b   5.71568424
_cell_length_c   6.65111274
_cell_angle_alpha   63.93594534
_cell_angle_beta   50.72185618
_cell_angle_gamma   63.93550252
_symmetry_Int_Tables_number   1
_chemical_formula_structural   Ba2MgVFeO6
_chemical_formula_sum   'Ba2 Mg1 V1 Fe1 O6'
_cell_volume   171.02459391
_cell_formula_units_Z   1
loop_
 _symmetry_equiv_pos_site_id
 _symmetry_equiv_pos_as_xyz
  1  'x, y, z'
loop_
 _atom_site_type_symbol
 _atom_site_label
 _atom_site_symmetry_multiplicity
 _atom_site_fract_x
 _atom_site_fract_y
 _atom_site_fract_z
 _atom_site_occupancy
  Ba  Ba0  1  0.31750500  0.68390100  0.31751800  1
  Ba  Ba1  1  0.68249500  0.31609900  0.68248200  1
  Mg  Mg0  1  0.00000000  0.00000000  0.00000000  1
  V  V0  1  0.00000000  0.50000000  0.00000000  1
  Fe  Fe0  1  0.50000000  0.00000000  0.50000000  1
  O  O0  1  0.75284800  0.23997500  0.25282300  1
  O  O1  1  0.25275900  0.24003700  0.75279400  1
  O  O2  1  0.24715200  0.76002500  0.74717700  1
  O  O3  1  0.74724100  0.75996300  0.24720600  1
  O  O4  1  0.82110400  0.67617100  0.82124100  1
  O  O5  1  0.17889600  0.32382900  0.17875900  1
loop_
_geom_bond_atom_site_label_1
_geom_bond_atom_site_label_2
_geom_bond_distance
_geom_bond_site_symmetry_2
Ba0 O2 2.792026 1_555
Ba0 O3 2.792425 1_555
Ba0 O1 2.816110 1_555
Ba0 O0 2.816509 1_555
Ba0 O4 2.848762 1_554
Ba0 O4 2.849470 1_455
Ba0 O5 3.198072 1_565
Ba0 O5 3.217273 1_555
Ba1 O0 2.792026 1_555
Ba1 O1 2.792425 1_555
Ba1 O3 2.816110 1_555
Ba1 O2 2.816509 1_555
Ba1 O5 2.848762 1_556
Ba1 O5 2.849470 1_655
Ba1 O4 3.198072 1_545
Ba1 O4 3.217273 1_555
Mg0 O1 1.989101 1_554
Mg0 O3 1.989101 1_445
Mg0 O0 1.989133 1_455
Mg0 O2 1.989133 1_544
Fe0 O0 1.989226 1_555
Fe0 O2 1.989226 1_545
Fe0 O1 1.989253 1_555
Fe0 O3 1.989253 1_545
O0 V0 2.046803 1_655
O1 V0 2.046774 1_556
O2 V0 2.046803 1_556
O3 V0 2.046774 1_655
O4 V0 1.878702 1_656
O5 V0 1.878702 1_555
