# generated using pymatgen
data_LiNiO2
_symmetry_space_group_name_H-M   'P 1'
_cell_length_a   2.99559428
_cell_length_b   2.99559428
_cell_length_c   5.06252784
_cell_angle_alpha   86.49057177
_cell_angle_beta   86.49057177
_cell_angle_gamma   56.21203427
_symmetry_Int_Tables_number   1
_chemical_formula_structural   LiNiO2
_chemical_formula_sum   'Li1 Ni1 O2'
_cell_volume   37.66509767
_cell_formula_units_Z   1
loop_
 _symmetry_equiv_pos_site_id
 _symmetry_equiv_pos_as_xyz
  1  'x, y, z'
loop_
 _atom_site_type_symbol
 _atom_site_label
 _atom_site_symmetry_multiplicity
 _atom_site_fract_x
 _atom_site_fract_y
 _atom_site_fract_z
 _atom_site_occupancy
  Li  Li0  1  0.33901400  0.33901400  0.59554100  1
  Ni  Ni0  1  0.00351200  0.00351200  0.02838900  1
  O  O0  1  0.64839100  0.64839100  0.80346500  1
  O  O1  1  0.34068600  0.34068600  0.22180400  1
loop_
_geom_bond_atom_site_label_1
_geom_bond_atom_site_label_2
_geom_bond_distance
_geom_bond_site_symmetry_2
Li0 O1 1.891461 1_555
Li0 O0 1.991796 1_455
Li0 O0 1.991796 1_545
Li0 O0 2.004987 1_555
Ni0 O1 1.890465 1_545
Ni0 O1 1.890465 1_455
Ni0 O0 1.937369 1_544
Ni0 O0 1.937369 1_454
Ni0 O1 2.091879 1_555
Ni0 O0 2.261685 1_444
