# generated using pymatgen
data_MgFe6(OF)6
_symmetry_space_group_name_H-M   'P 1'
_cell_length_a   5.51034153
_cell_length_b   5.15804824
_cell_length_c   8.70926694
_cell_angle_alpha   89.80237579
_cell_angle_beta   89.95769539
_cell_angle_gamma   91.37328145
_symmetry_Int_Tables_number   1
_chemical_formula_structural   MgFe6(OF)6
_chemical_formula_sum   'Mg1 Fe6 O6 F6'
_cell_volume   247.46741972
_cell_formula_units_Z   1
loop_
 _symmetry_equiv_pos_site_id
 _symmetry_equiv_pos_as_xyz
  1  'x, y, z'
loop_
 _atom_site_type_symbol
 _atom_site_label
 _atom_site_symmetry_multiplicity
 _atom_site_fract_x
 _atom_site_fract_y
 _atom_site_fract_z
 _atom_site_occupancy
  Mg  Mg0  1  0.96213700  0.50306200  0.67463100  1
  Fe  Fe0  1  0.92834900  0.94453400  0.99125500  1
  Fe  Fe1  1  0.92315100  0.94146900  0.33765000  1
  Fe  Fe2  1  0.19016900  0.01740300  0.66211600  1
  Fe  Fe3  1  0.59995400  0.43738900  0.16391300  1
  Fe  Fe4  1  0.43712100  0.56027600  0.84910800  1
  Fe  Fe5  1  0.42346500  0.56910700  0.48245300  1
  O  O0  1  0.13266800  0.76391500  0.49056500  1
  O  O1  1  0.11532600  0.77678200  0.83002100  1
  O  O2  1  0.31530800  0.36596000  0.66123000  1
  O  O3  1  0.66820900  0.69403400  0.00456400  1
  O  O4  1  0.65844500  0.68856200  0.33366100  1
  O  O5  1  0.83282800  0.16883900  0.16875500  1
  F  F0  1  0.11722600  0.78939300  0.16727000  1
  F  F1  1  0.35259700  0.28890700  0.02282800  1
  F  F2  1  0.36596800  0.28991400  0.33378100  1
  F  F3  1  0.66465400  0.70470300  0.64773500  1
  F  F4  1  0.85693900  0.23212500  0.83476300  1
  F  F5  1  0.88604300  0.20807300  0.50799100  1
loop_
_geom_bond_atom_site_label_1
_geom_bond_atom_site_label_2
_geom_bond_distance
_geom_bond_site_symmetry_2
Mg0 O2 2.089785 1_655
Mg0 O1 2.120177 1_655
Mg0 O0 2.277173 1_655
Fe0 O3 1.909892 1_556
Fe0 O1 1.957311 1_655
Fe0 O5 2.011407 1_566
Fe1 O4 1.933831 1_555
Fe1 O5 1.950384 1_565
Fe1 O0 1.997451 1_655
Fe2 O2 1.910072 1_555
Fe2 O1 1.952168 1_545
Fe2 O0 2.009120 1_545
Fe3 O5 1.911036 1_555
Fe3 O3 1.944887 1_555
Fe3 O4 1.990446 1_555
Fe4 O3 1.974191 1_556
Fe4 O2 2.028112 1_555
Fe4 O1 2.124399 1_555
Fe5 O0 1.913068 1_555
Fe5 O4 1.920744 1_555
Fe5 O2 1.958293 1_555
F0 Fe1 2.001693 1_455
F0 Fe0 2.026663 1_454
F1 Fe3 1.978167 1_555
F1 Fe4 2.101994 1_554
F2 Fe5 1.960207 1_555
F2 Fe3 2.090969 1_555
F3 Mg0 1.975934 1_555
F3 Fe5 2.071917 1_555
F3 Fe4 2.268428 1_555
F4 Mg0 2.044647 1_555
F4 Fe0 2.056147 1_545
F4 Fe2 2.638962 1_655
F5 Fe1 2.039823 1_545
F5 Mg0 2.140757 1_555
F5 Fe2 2.377121 1_655
