# generated using pymatgen
data_Ta2Zn3O8
_symmetry_space_group_name_H-M   'P 1'
_cell_length_a   6.11858135
_cell_length_b   6.11857964
_cell_length_c   9.51521320
_cell_angle_alpha   71.39814522
_cell_angle_beta   71.39813469
_cell_angle_gamma   86.94086499
_symmetry_Int_Tables_number   1
_chemical_formula_structural   Ta2Zn3O8
_chemical_formula_sum   'Ta4 Zn6 O16'
_cell_volume   319.50950801
_cell_formula_units_Z   2
loop_
 _symmetry_equiv_pos_site_id
 _symmetry_equiv_pos_as_xyz
  1  'x, y, z'
loop_
 _atom_site_type_symbol
 _atom_site_label
 _atom_site_symmetry_multiplicity
 _atom_site_fract_x
 _atom_site_fract_y
 _atom_site_fract_z
 _atom_site_occupancy
  Ta  Ta0  1  0.06177001  0.77641281  0.62693592  1
  Ta  Ta1  1  0.22358768  0.93822922  0.87306415  1
  Ta  Ta2  1  0.93822947  0.22358611  0.37306443  1
  Ta  Ta3  1  0.77641247  0.06177107  0.12693575  1
  Zn  Zn0  1  0.76133877  0.23866161  0.75000025  1
  Zn  Zn1  1  0.23866306  0.76133685  0.24999980  1
  Zn  Zn2  1  0.68058334  0.63634263  0.00387119  1
  Zn  Zn3  1  0.36365737  0.31941724  0.49612831  1
  Zn  Zn4  1  0.31941897  0.36365650  0.99612965  1
  Zn  Zn5  1  0.63634345  0.68058089  0.50387040  1
  O  O0  1  0.17934622  0.42628583  0.35517426  1
  O  O1  1  0.57371408  0.82065456  0.14482543  1
  O  O2  1  0.82065234  0.57371455  0.64482715  1
  O  O3  1  0.42628562  0.17934699  0.85517332  1
  O  O4  1  0.30961435  0.58062300  0.59075963  1
  O  O5  1  0.41937759  0.69038569  0.90924059  1
  O  O6  1  0.69038464  0.41937702  0.40924056  1
  O  O7  1  0.58062270  0.30961497  0.09075982  1
  O  O8  1  0.98535339  0.71520816  0.85523250  1
  O  O9  1  0.28479200  0.01464695  0.64476736  1
  O  O10  1  0.06127473  0.85862407  0.10467472  1
  O  O11  1  0.14137636  0.93872552  0.39532510  1
  O  O12  1  0.93872540  0.14137741  0.89532555  1
  O  O13  1  0.85862239  0.06127422  0.60467456  1
  O  O14  1  0.71520646  0.98535349  0.35523220  1
  O  O15  1  0.01464615  0.28479363  0.14476742  1
loop_
_geom_bond_atom_site_label_1
_geom_bond_atom_site_label_2
_geom_bond_distance
_geom_bond_site_symmetry_2
O0 Ta2 1.908933 1_455
O0 Zn3 1.955736 1_555
O0 Zn1 1.968427 1_555
O1 Ta3 1.908928 1_565
O1 Zn2 1.955741 1_555
O1 Zn1 1.968428 1_555
O2 Ta0 1.908928 1_655
O2 Zn5 1.955744 1_555
O2 Zn0 1.968435 1_555
O3 Ta1 1.908928 1_545
O3 Zn4 1.955743 1_555
O3 Zn0 1.968436 1_555
O4 Ta0 1.894567 1_555
O4 Zn5 1.951287 1_555
O4 Zn3 2.036208 1_555
O5 Ta1 1.894564 1_555
O5 Zn4 1.951288 1_555
O5 Zn2 2.036204 1_556
O6 Ta2 1.894573 1_555
O6 Zn3 1.951279 1_555
O6 Zn5 2.036189 1_555
O7 Ta3 1.894565 1_555
O7 Zn2 1.951282 1_555
O7 Zn4 2.036191 1_554
O8 Zn2 1.920558 1_556
O8 Ta0 1.982275 1_655
O8 Ta1 2.129180 1_655
O9 Zn3 1.920560 1_555
O9 Ta1 1.982276 1_545
O9 Ta0 2.129182 1_545
O10 Zn1 1.951383 1_555
O10 Ta1 2.012674 1_554
O10 Ta3 2.080609 1_465
O11 Zn1 1.951386 1_555
O11 Ta0 2.012675 1_555
O11 Ta2 2.080600 1_465
O12 Zn0 1.951376 1_555
O12 Ta3 2.012670 1_556
O12 Ta1 2.080613 1_645
O13 Zn0 1.951382 1_555
O13 Ta2 2.012668 1_555
O13 Ta0 2.080607 1_645
O14 Zn5 1.920567 1_555
O14 Ta3 1.982272 1_565
O14 Ta2 2.129183 1_565
O15 Zn4 1.920566 1_554
O15 Ta2 1.982276 1_455
O15 Ta3 2.129183 1_455
