# generated using pymatgen
data_MgMn2Zn2O6
_symmetry_space_group_name_H-M   'P 1'
_cell_length_a   5.92739414
_cell_length_b   5.88895174
_cell_length_c   5.91257603
_cell_angle_alpha   52.49429586
_cell_angle_beta   52.42547477
_cell_angle_gamma   52.51091703
_symmetry_Int_Tables_number   1
_chemical_formula_structural   MgMn2Zn2O6
_chemical_formula_sum   'Mg1 Mn2 Zn2 O6'
_cell_volume   120.16029546
_cell_formula_units_Z   1
loop_
 _symmetry_equiv_pos_site_id
 _symmetry_equiv_pos_as_xyz
  1  'x, y, z'
loop_
 _atom_site_type_symbol
 _atom_site_label
 _atom_site_symmetry_multiplicity
 _atom_site_fract_x
 _atom_site_fract_y
 _atom_site_fract_z
 _atom_site_occupancy
  Mg  Mg0  1  0.29230936  0.29415742  0.29725091  1
  Mn  Mn0  1  0.47856093  0.47989945  0.48120808  1
  Mn  Mn1  1  0.65485484  0.65606250  0.65562636  1
  Zn  Zn0  1  0.03714270  0.03927057  0.03853152  1
  Zn  Zn1  1  0.84733844  0.84201382  0.84727291  1
  O  O0  1  0.05229086  0.69752606  0.43995453  1
  O  O1  1  0.43613519  0.05680636  0.69390675  1
  O  O2  1  0.69787516  0.44338608  0.05119266  1
  O  O3  1  0.26792206  0.58796692  0.87680383  1
  O  O4  1  0.58817258  0.87469154  0.26782230  1
  O  O5  1  0.87358788  0.26631427  0.58852515  1
loop_
_geom_bond_atom_site_label_1
_geom_bond_atom_site_label_2
_geom_bond_distance
_geom_bond_site_symmetry_2
Mg0 O4 2.021364 1_545
Mg0 O3 2.022552 1_554
Mg0 O5 2.022708 1_455
Mg0 O1 2.275305 1_555
Mg0 O0 2.289444 1_555
Mg0 O2 2.327478 1_555
Mn0 O1 2.101007 1_555
Mn0 O2 2.120138 1_555
Mn0 O0 2.124960 1_555
Mn0 O4 2.164784 1_555
Mn0 O3 2.172222 1_555
Mn0 O5 2.173129 1_555
Mn1 O1 1.967183 1_565
Mn1 O2 1.968613 1_556
Mn1 O0 1.972988 1_655
Mn1 O3 1.988511 1_555
Mn1 O4 1.990596 1_555
Mn1 O5 1.991396 1_555
O0 Zn0 1.978662 1_565
O0 Zn1 2.380890 1_455
O1 Zn0 1.979812 1_556
O1 Zn1 2.430860 1_545
O2 Zn0 1.980194 1_655
O2 Zn1 2.351936 1_554
O3 Zn1 2.038764 1_455
O4 Zn1 2.035687 1_554
O5 Zn1 2.033783 1_545
