# generated using pymatgen
data_AlP(H2O3)2
_symmetry_space_group_name_H-M   'P 1'
_cell_length_a   9.60964000
_cell_length_b   5.21059700
_cell_length_c   9.98736854
_cell_angle_alpha   58.88588728
_cell_angle_beta   90.00000000
_cell_angle_gamma   90.00000000
_symmetry_Int_Tables_number   1
_chemical_formula_structural   AlP(H2O3)2
_chemical_formula_sum   'Al4 P4 H16 O24'
_cell_volume   428.14451161
_cell_formula_units_Z   4
loop_
 _symmetry_equiv_pos_site_id
 _symmetry_equiv_pos_as_xyz
  1  'x, y, z'
loop_
 _atom_site_type_symbol
 _atom_site_label
 _atom_site_symmetry_multiplicity
 _atom_site_fract_x
 _atom_site_fract_y
 _atom_site_fract_z
 _atom_site_occupancy
  Al  Al0  1  0.32540000  0.09571900  0.30728600  1
  Al  Al1  1  0.82540000  0.90428100  0.19271400  1
  Al  Al2  1  0.67460000  0.90428100  0.69271400  1
  Al  Al3  1  0.17460000  0.09571900  0.80728600  1
  P  P0  1  0.14728600  0.72522700  0.18407500  1
  P  P1  1  0.64728600  0.27477300  0.31592500  1
  P  P2  1  0.85271400  0.27477300  0.81592500  1
  P  P3  1  0.35271400  0.72522700  0.68407500  1
  H  H0  1  0.14658600  0.53793800  0.51968600  1
  H  H1  1  0.64658600  0.46206200  0.98031400  1
  H  H2  1  0.85341400  0.46206200  0.48031400  1
  H  H3  1  0.35341400  0.53793800  0.01968600  1
  H  H4  1  0.17231300  0.24456700  0.51396800  1
  H  H5  1  0.67231300  0.75543300  0.98603200  1
  H  H6  1  0.82768700  0.75543300  0.48603200  1
  H  H7  1  0.32768700  0.24456700  0.01396800  1
  H  H8  1  0.94035700  0.40420200  0.16865200  1
  H  H9  1  0.44035700  0.59579800  0.33134800  1
  H  H10  1  0.95749600  0.87681300  0.78195400  1
  H  H11  1  0.45749600  0.12318700  0.71804600  1
  H  H12  1  0.04250400  0.12318700  0.21804600  1
  H  H13  1  0.54250400  0.87681300  0.28195400  1
  H  H14  1  0.05964300  0.59579800  0.83134800  1
  H  H15  1  0.55964300  0.40420200  0.66865200  1
  O  O0  1  0.28277100  0.89099600  0.52156000  1
  O  O1  1  0.70646100  0.59482000  0.21868800  1
  O  O2  1  0.79353900  0.59482000  0.71868800  1
  O  O3  1  0.20646100  0.40518000  0.28131200  1
  O  O4  1  0.98638600  0.70885400  0.17260300  1
  O  O5  1  0.48638600  0.29114600  0.32739700  1
  O  O6  1  0.01361400  0.29114600  0.82739700  1
  O  O7  1  0.51361400  0.70885400  0.67260300  1
  O  O8  1  0.44834800  0.79282500  0.32528300  1
  O  O9  1  0.94834800  0.20717500  0.17471700  1
  O  O10  1  0.55165200  0.20717500  0.67471700  1
  O  O11  1  0.05165200  0.79282500  0.82528300  1
  O  O12  1  0.36449700  0.31905000  0.08007100  1
  O  O13  1  0.86449700  0.68095000  0.41992900  1
  O  O14  1  0.63550300  0.68095000  0.91992900  1
  O  O15  1  0.13550300  0.31905000  0.58007100  1
  O  O16  1  0.71722900  0.10900400  0.47844000  1
  O  O17  1  0.21722900  0.89099600  0.02156000  1
  O  O18  1  0.32323000  0.89612300  0.77153400  1
  O  O19  1  0.82323000  0.10387700  0.72846600  1
  O  O20  1  0.67677000  0.10387700  0.22846600  1
  O  O21  1  0.17677000  0.89612300  0.27153400  1
  O  O22  1  0.29353900  0.40518000  0.78131200  1
  O  O23  1  0.78277100  0.10900400  0.97844000  1
loop_
_geom_bond_atom_site_label_1
_geom_bond_atom_site_label_2
_geom_bond_distance
_geom_bond_site_symmetry_2
Al0 O0 1.877813 1_545
Al0 O3 1.881869 1_555
Al0 O8 1.904189 1_545
Al0 O21 1.906018 1_545
Al0 O5 1.918829 1_555
Al0 O12 1.978835 1_555
Al1 O23 1.877813 1_564
Al1 O1 1.881869 1_555
Al1 O9 1.904189 1_565
Al1 O20 1.906018 1_565
Al1 O4 1.918829 1_555
Al1 O13 1.978835 1_555
Al2 O16 1.877813 1_565
Al2 O2 1.881869 1_555
Al2 O10 1.904189 1_565
Al2 O19 1.906018 1_565
Al2 O7 1.918829 1_555
Al2 O14 1.978835 1_555
Al3 O17 1.877813 1_546
Al3 O22 1.881869 1_555
Al3 O11 1.904189 1_545
Al3 O18 1.906018 1_545
Al3 O6 1.918829 1_555
Al3 O15 1.978835 1_555
H0 O15 0.982346 1_555
H1 O14 0.982346 1_555
H2 O13 0.982346 1_555
H3 O12 0.982346 1_555
H4 O15 0.988134 1_555
H5 O14 0.988134 1_555
H6 O13 0.988134 1_555
H7 O12 0.988134 1_555
H8 O9 0.999631 1_555
H8 O4 1.667885 1_555
H9 O8 0.999631 1_555
H9 O5 1.667885 1_555
H10 O11 1.000867 1_655
H10 O19 1.642172 1_565
H11 O10 1.000867 1_555
H11 O18 1.642172 1_545
H12 O9 1.000867 1_455
H12 O21 1.642172 1_545
H13 O8 1.000867 1_555
H13 O20 1.642172 1_565
H14 O11 0.999631 1_555
H14 O6 1.667885 1_555
H15 O10 0.999631 1_555
H15 O7 1.667885 1_555
O0 P3 1.543815 1_555
O1 P1 1.540696 1_555
O2 P2 1.540696 1_555
O3 P0 1.540696 1_555
O4 P0 1.556025 1_655
O5 P1 1.556025 1_555
O6 P2 1.556025 1_455
O7 P3 1.556025 1_555
O16 P1 1.543815 1_555
O17 P0 1.543815 1_555
O18 P3 1.562066 1_555
O19 P2 1.562066 1_555
O20 P1 1.562066 1_555
O21 P0 1.562066 1_555
O22 P3 1.540696 1_555
O23 P2 1.543815 1_555
