# generated using pymatgen
data_Na4LaInSi2SO12
_symmetry_space_group_name_H-M   'P 1'
_cell_length_a   9.54499176
_cell_length_b   9.53871722
_cell_length_c   23.35562993
_cell_angle_alpha   90.06304099
_cell_angle_beta   89.90542959
_cell_angle_gamma   119.82142850
_symmetry_Int_Tables_number   1
_chemical_formula_structural   Na4LaInSi2SO12
_chemical_formula_sum   'Na24 La6 In6 Si12 S6 O72'
_cell_volume   1844.87012029
_cell_formula_units_Z   6
loop_
 _symmetry_equiv_pos_site_id
 _symmetry_equiv_pos_as_xyz
  1  'x, y, z'
loop_
 _atom_site_type_symbol
 _atom_site_label
 _atom_site_symmetry_multiplicity
 _atom_site_fract_x
 _atom_site_fract_y
 _atom_site_fract_z
 _atom_site_occupancy
  Na  Na0  1  0.64584514  0.99833545  0.25775438  1
  Na  Na1  1  0.36547254  0.38140400  0.24325367  1
  Na  Na2  1  0.98963589  0.61872823  0.25707349  1
  Na  Na3  1  0.62150154  0.62650497  0.73390573  1
  Na  Na4  1  0.99493474  0.34571305  0.75227587  1
  Na  Na5  1  0.38923105  0.02190832  0.74957610  1
  Na  Na6  1  0.31685452  0.32994974  0.59149009  1
  Na  Na7  1  0.03449728  0.71896401  0.57502859  1
  Na  Na8  1  0.66147329  0.95251340  0.59100700  1
  Na  Na9  1  0.28221476  0.96779116  0.07474539  1
  Na  Na10  1  0.66836356  0.67996042  0.09334182  1
  Na  Na11  1  0.04977539  0.34421180  0.09192847  1
  Na  Na12  1  0.98845003  0.66721315  0.92402833  1
  Na  Na13  1  0.69868937  0.05070971  0.90446894  1
  Na  Na14  1  0.31837973  0.28130107  0.92185859  1
  Na  Na15  1  0.95106442  0.29955438  0.40635555  1
  Na  Na16  1  0.33199334  0.01812374  0.42112048  1
  Na  Na17  1  0.71567242  0.67774394  0.41978141  1
  Na  Na18  1  0.98914165  0.97326140  0.49956168  1
  Na  Na19  1  0.03043157  0.01340630  0.99975701  1
  Na  Na20  1  0.65436330  0.30387339  0.83133090  1
  Na  Na21  1  0.68881851  0.34462774  0.33424242  1
  Na  Na22  1  0.32020158  0.63866503  0.17007534  1
  Na  Na23  1  0.36242537  0.67894768  0.66594455  1
  La  La0  1  0.00839964  0.01478154  0.84230954  1
  La  La1  1  0.99673205  0.99905353  0.15986689  1
  La  La2  1  0.66702081  0.33419659  0.98822670  1
  La  La3  1  0.32072527  0.65684372  0.01661014  1
  La  La4  1  0.34119362  0.67948325  0.51389010  1
  La  La5  1  0.33307204  0.66694560  0.81492474  1
  In  In0  1  0.97591200  0.98802745  0.34723355  1
  In  In1  1  0.00223594  0.00134271  0.64831526  1
  In  In2  1  0.65035971  0.32192294  0.67912209  1
  In  In3  1  0.67932329  0.35463879  0.18589129  1
  In  In4  1  0.66392012  0.33434191  0.48413776  1
  In  In5  1  0.33083803  0.67022325  0.32150736  1
  Si  Si0  1  0.68237582  0.68840524  0.25283329  1
  Si  Si1  1  0.00087768  0.31020229  0.25282990  1
  Si  Si2  1  0.30909017  0.30392803  0.74345411  1
  Si  Si3  1  0.70089494  0.00925554  0.74294032  1
  Si  Si4  1  0.36459239  0.03944310  0.58302077  1
  Si  Si5  1  0.67592272  0.62996322  0.58487068  1
  Si  Si6  1  0.97219227  0.64044882  0.08586683  1
  Si  Si7  1  0.36623841  0.33221154  0.08846010  1
  Si  Si8  1  0.01960794  0.35336333  0.91488597  1
  Si  Si9  1  0.33240116  0.97664055  0.91657543  1
  Si  Si10  1  0.64008483  0.97825750  0.41531567  1
  Si  Si11  1  0.02584419  0.66938866  0.41472508  1
  S  S0  1  0.31021354  0.00008420  0.25360225  1
  S  S1  1  0.99069374  0.69057032  0.74450040  1
  S  S2  1  0.95624637  0.32660065  0.58387730  1
  S  S3  1  0.66658486  0.03236212  0.08847567  1
  S  S4  1  0.64403017  0.66961650  0.91652373  1
  S  S5  1  0.33070392  0.35739225  0.41404923  1
  O  O0  1  0.22395177  0.02494849  0.30332847  1
  O  O1  1  0.81252762  0.77573897  0.30550186  1
  O  O2  1  0.97451551  0.18742378  0.30718627  1
  O  O3  1  0.23675095  0.20383108  0.80338102  1
  O  O4  1  0.96912654  0.75963046  0.79895292  1
  O  O5  1  0.79371162  0.03079388  0.80442481  1
  O  O6  1  0.79521309  0.97753069  0.68942221  1
  O  O7  1  0.18851435  0.20572497  0.68949543  1
  O  O8  1  0.01085055  0.79764324  0.69539768  1
  O  O9  1  0.75060435  0.79348761  0.19370261  1
  O  O10  1  0.03997152  0.24356759  0.19376363  1
  O  O11  1  0.21526373  0.97490843  0.20011551  1
  O  O12  1  0.87911771  0.35016786  0.63603647  1
  O  O13  1  0.47807004  0.11351222  0.63981695  1
  O  O14  1  0.65980265  0.52488610  0.64259422  1
  O  O15  1  0.88006162  0.52074517  0.14068203  1
  O  O16  1  0.65224751  0.12251295  0.13838236  1
  O  O17  1  0.47703383  0.33658267  0.14386315  1
  O  O18  1  0.43949067  0.31265350  0.02706208  1
  O  O19  1  0.87768284  0.56442289  0.02515209  1
  O  O20  1  0.67952612  0.11794816  0.03374373  1
  O  O21  1  0.45055730  0.15125240  0.52536605  1
  O  O22  1  0.70177406  0.54692410  0.52634870  1
  O  O23  1  0.86088463  0.31119247  0.53121813  1
  O  O24  1  0.56576875  0.68489944  0.96883753  1
  O  O25  1  0.12843029  0.43988141  0.97223555  1
  O  O26  1  0.32642852  0.87777043  0.97527268  1
  O  O27  1  0.56805923  0.86475415  0.47246773  1
  O  O28  1  0.30205839  0.42705477  0.46691107  1
  O  O29  1  0.13315714  0.70258771  0.47319021  1
  O  O30  1  0.11367662  0.63284880  0.36013334  1
  O  O31  1  0.52058637  0.88879132  0.35983487  1
  O  O32  1  0.35479334  0.46525963  0.36381011  1
  O  O33  1  0.11308877  0.45894441  0.85751349  1
  O  O34  1  0.35069912  0.88622343  0.85923828  1
  O  O35  1  0.54797421  0.65762620  0.86502104  1
  O  O36  1  0.01621185  0.83877320  0.40732381  1
  O  O37  1  0.82571604  0.00535738  0.41049597  1
  O  O38  1  0.18993958  0.19306181  0.40658859  1
  O  O39  1  0.99422659  0.16935874  0.91594296  1
  O  O40  1  0.16056300  0.97900793  0.91683589  1
  O  O41  1  0.80818844  0.81284338  0.91362952  1
  O  O42  1  0.96755997  0.17685829  0.58676360  1
  O  O43  1  0.18437904  0.02876157  0.58626470  1
  O  O44  1  0.83839238  0.81464608  0.58704614  1
  O  O45  1  0.98466004  0.81911296  0.08918617  1
  O  O46  1  0.81274695  0.01776575  0.09086970  1
  O  O47  1  0.18153334  0.17538882  0.08985336  1
  O  O48  1  0.69845733  0.18247289  0.73908660  1
  O  O49  1  0.49343905  0.32785466  0.74243290  1
  O  O50  1  0.84844952  0.52663783  0.73928245  1
  O  O51  1  0.66058567  0.50430214  0.25056337  1
  O  O52  1  0.82738631  0.31403040  0.24898559  1
  O  O53  1  0.47357605  0.14534305  0.24953545  1
  O  O54  1  0.65658102  0.51980686  0.91695041  1
  O  O55  1  0.84211890  0.34312873  0.91478734  1
  O  O56  1  0.48951181  0.16075389  0.91478644  1
  O  O57  1  0.65086656  0.15773569  0.42126234  1
  O  O58  1  0.48259525  0.34787270  0.41842967  1
  O  O59  1  0.84249040  0.50608880  0.41934857  1
  O  O60  1  0.36458863  0.50479092  0.09080096  1
  O  O61  1  0.15559062  0.66355541  0.08796665  1
  O  O62  1  0.51980229  0.86886855  0.08799059  1
  O  O63  1  0.33426071  0.85274811  0.58091837  1
  O  O64  1  0.50790384  0.64136327  0.58381698  1
  O  O65  1  0.12232298  0.47026419  0.58054717  1
  O  O66  1  0.32437617  0.85293302  0.25935224  1
  O  O67  1  0.50309594  0.67359040  0.26185724  1
  O  O68  1  0.15859374  0.49416346  0.26029189  1
  O  O69  1  0.32253879  0.48359643  0.74296794  1
  O  O70  1  0.14047105  0.67730818  0.74618671  1
  O  O71  1  0.51655013  0.85183588  0.74289947  1
loop_
_geom_bond_atom_site_label_1
_geom_bond_atom_site_label_2
_geom_bond_distance
_geom_bond_site_symmetry_2
Na0 O52 2.631155 1_565
Na0 O31 2.637993 1_555
Na0 O53 2.646104 1_565
Na0 O66 2.665934 1_555
Na0 O67 2.695087 1_555
Na0 O2 2.967730 1_565
Na0 O9 2.997958 1_555
Na0 O16 3.019017 1_565
Na1 O67 2.457652 1_555
Na1 O51 2.460668 1_555
Na1 O17 2.673523 1_555
Na1 O68 2.706176 1_555
Na1 O53 2.910081 1_555
Na1 O32 2.941664 1_555
Na1 O10 2.943336 1_555
Na2 O68 2.434067 1_655
Na2 O52 2.530683 1_555
Na2 O30 2.657779 1_655
Na2 O51 2.769583 1_555
Na2 O66 2.846621 1_655
Na2 O15 2.896316 1_555
Na2 O1 2.981319 1_555
Na3 O14 2.442681 1_555
Na3 O69 2.485109 1_555
Na3 O49 2.487213 1_555
Na3 O50 2.769346 1_555
Na3 O71 2.794147 1_555
Na4 O48 2.479289 1_555
Na4 O33 2.696569 1_655
Na4 O50 2.725422 1_555
Na4 O69 2.731848 1_655
Na4 O70 2.754032 1_655
Na4 O5 2.908255 1_555
Na4 O12 2.941282 1_555
Na5 O71 2.468317 1_545
Na5 O48 2.572895 1_555
Na5 O49 2.578239 1_555
Na5 O13 2.704601 1_555
Na5 O34 2.810875 1_545
Na5 O70 2.947232 1_545
Na5 O3 3.034772 1_555
Na6 O43 2.500844 1_555
Na6 O7 2.587883 1_555
Na6 O64 2.606487 1_555
Na6 O65 2.788992 1_555
Na7 O44 2.472313 1_455
Na7 O63 2.490673 1_555
Na7 O43 2.577359 1_565
Na7 O29 2.589705 1_555
Na7 O65 2.885482 1_555
Na7 O8 2.946068 1_555
Na7 O22 2.982603 1_455
Na8 O64 2.580388 1_555
Na8 O6 2.583668 1_555
Na8 O44 2.607229 1_555
Na8 O42 2.627959 1_565
Na8 O63 2.785961 1_555
Na8 O27 2.901960 1_555
Na9 O45 2.486620 1_455
Na9 O61 2.547563 1_555
Na9 O26 2.581804 1_554
Na9 O47 2.619035 1_565
Na9 O62 2.874040 1_555
Na9 O11 3.003878 1_555
Na10 O60 2.526737 1_555
Na10 O9 2.537358 1_555
Na10 O45 2.626702 1_555
Na10 O62 2.795682 1_555
Na10 O46 2.805142 1_565
Na11 O47 2.488199 1_555
Na11 O10 2.549947 1_555
Na11 O60 2.607349 1_555
Na11 O61 2.692192 1_555
Na11 O46 2.794385 1_455
Na11 O25 2.920364 1_554
Na12 O19 2.573545 1_556
Na12 O40 2.590969 1_655
Na12 O55 2.694245 1_555
Na12 O41 2.707108 1_555
Na12 O54 2.758604 1_555
Na13 O55 2.431899 1_555
Na13 O39 2.477230 1_555
Na13 O5 2.545934 1_555
Na13 O56 2.688610 1_555
Na14 O56 2.425787 1_555
Na14 O40 2.505419 1_545
Na14 O18 2.669644 1_556
Na14 O39 2.729011 1_455
Na14 O3 2.870548 1_555
Na14 O54 2.881783 1_555
Na15 O37 2.444740 1_555
Na15 O57 2.510800 1_555
Na15 O2 2.605700 1_555
Na15 O59 2.659991 1_555
Na15 O30 2.962432 1_655
Na16 O36 2.643658 1_545
Na16 O38 2.644104 1_555
Na16 O57 2.646865 1_555
Na16 O21 2.719214 1_555
Na16 O58 2.732557 1_555
Na16 O29 2.908419 1_545
Na16 O0 2.951753 1_555
Na16 O31 3.001252 1_545
Na17 O59 2.473368 1_555
Na17 O36 2.507764 1_655
Na17 O22 2.758748 1_555
Na17 O37 2.766237 1_565
Na17 O58 2.808699 1_555
Na17 O1 2.826697 1_555
Na18 O44 2.523148 1_555
Na18 O36 2.583623 1_655
Na18 O43 2.623462 1_665
Na18 O37 2.709480 1_565
Na18 O42 2.889598 1_565
Na18 O38 2.963776 1_665
Na19 O40 2.407738 1_545
Na19 O47 2.584924 1_556
Na19 O39 2.585381 1_455
Na19 O45 2.681115 1_446
Na19 O41 2.859296 1_445
Na19 O46 2.986382 1_456
Na20 O56 2.449095 1_555
Na20 O55 2.548277 1_555
Na20 O48 2.576027 1_555
Na20 O49 2.661507 1_555
Na20 O54 2.861718 1_555
Na20 O50 2.941200 1_555
Na21 O52 2.484648 1_555
Na21 O59 2.496100 1_555
Na21 O51 2.574592 1_555
Na21 O57 2.608294 1_555
Na21 O58 2.790944 1_555
Na21 O53 2.805218 1_555
Na22 O60 2.401785 1_555
Na22 O61 2.566051 1_555
Na22 O68 2.569048 1_555
Na22 O67 2.680674 1_555
Na22 O62 2.821918 1_555
Na22 O66 2.904564 1_555
Na23 O71 2.388194 1_555
Na23 O69 2.480499 1_555
Na23 O64 2.494153 1_555
Na23 O63 2.686358 1_555
Na23 O70 2.820423 1_555
Na23 O65 2.943083 1_555
La0 O3 2.217439 1_555
La0 O5 2.307167 1_455
La0 O39 2.311267 1_455
La0 O40 2.399626 1_545
La0 O4 2.485516 1_445
La0 O41 2.544084 1_445
La1 O10 2.297077 1_665
La1 O9 2.324679 1_555
La1 O45 2.341392 1_555
La1 O47 2.379103 1_665
La1 O11 2.402576 1_655
La1 O46 2.456512 1_565
La2 O18 2.265293 1_556
La2 O19 2.284575 1_556
La2 O55 2.364689 1_555
La2 O20 2.376842 1_556
La2 O56 2.401097 1_555
La2 O54 2.469470 1_555
La3 O25 2.224758 1_554
La3 O26 2.294829 1_554
La3 O61 2.314621 1_555
La3 O60 2.427613 1_555
La3 O24 2.481261 1_554
La3 O62 2.580914 1_555
La4 O27 2.222358 1_555
La4 O63 2.299863 1_555
La4 O29 2.310225 1_555
La4 O64 2.432477 1_555
La4 O28 2.498422 1_555
La4 O65 2.572985 1_555
La5 O34 2.262782 1_555
La5 O33 2.277884 1_555
La5 O69 2.390068 1_555
La5 O35 2.402908 1_555
La5 O71 2.435578 1_555
La5 O70 2.481450 1_555
In0 O1 2.083818 1_555
In0 O37 2.119875 1_565
In0 O2 2.126438 1_565
In0 O36 2.166885 1_655
In0 O0 2.438085 1_665
In0 O38 2.439207 1_665
In1 O6 2.103772 1_445
In1 O7 2.107379 1_555
In1 O43 2.175204 1_555
In1 O44 2.212835 1_445
In1 O8 2.270517 1_545
In1 O42 2.353105 1_455
In2 O13 2.061200 1_555
In2 O14 2.076996 1_555
In2 O49 2.123645 1_555
In2 O48 2.134279 1_555
In2 O12 2.293708 1_555
In2 O50 2.385982 1_555
In3 O15 2.067398 1_555
In3 O17 2.096784 1_555
In3 O51 2.144717 1_555
In3 O52 2.207140 1_555
In3 O16 2.372133 1_555
In3 O53 2.479785 1_555
In4 O22 2.117160 1_555
In4 O21 2.141147 1_555
In4 O57 2.190038 1_555
In4 O59 2.257980 1_555
In4 O23 2.283114 1_555
In4 O58 2.366152 1_555
In5 O30 2.120618 1_555
In5 O67 2.141343 1_555
In5 O31 2.161913 1_555
In5 O68 2.196311 1_555
In5 O66 2.293762 1_555
In5 O32 2.302268 1_555
O0 S0 1.507803 1_555
O1 Si0 1.650432 1_555
O2 Si1 1.660037 1_655
O3 Si2 1.640551 1_555
O4 S1 1.491944 1_555
O5 Si3 1.646733 1_555
O6 Si3 1.652526 1_565
O7 Si2 1.649292 1_555
O8 S1 1.483834 1_455
O9 Si0 1.639180 1_555
O10 Si1 1.636646 1_555
O11 S0 1.492043 1_565
O12 S2 1.495858 1_555
O13 Si4 1.635101 1_555
O14 Si5 1.641568 1_555
O15 Si6 1.648308 1_555
O16 S3 1.493699 1_555
O17 Si7 1.659832 1_555
O18 Si7 1.644943 1_555
O19 Si6 1.643712 1_555
O20 S3 1.489047 1_555
O21 Si4 1.659245 1_555
O22 Si5 1.657521 1_555
O23 S2 1.494316 1_555
O24 S4 1.475473 1_555
O25 Si8 1.644278 1_555
O26 Si9 1.649602 1_555
O27 Si10 1.639031 1_555
O28 S5 1.489424 1_555
O29 Si11 1.641672 1_555
O30 Si11 1.654127 1_555
O31 Si10 1.656097 1_555
O32 S5 1.501595 1_555
O33 Si8 1.646573 1_555
O34 Si9 1.647471 1_555
O35 S4 1.483124 1_555
O36 Si11 1.672504 1_555
O37 Si10 1.662167 1_545
O38 S5 1.482611 1_555
O39 Si8 1.648355 1_655
O40 Si9 1.651541 1_555
O41 S4 1.482211 1_555
O42 S2 1.486619 1_555
O43 Si4 1.673397 1_555
O44 Si5 1.671457 1_555
O45 Si6 1.650026 1_555
O46 S3 1.470486 1_555
O47 Si7 1.650407 1_555
O48 Si3 1.666497 1_555
O49 Si2 1.658110 1_555
O50 S1 1.480525 1_555
O51 Si0 1.663292 1_555
O52 Si1 1.676986 1_655
O53 S0 1.487011 1_555
O54 S4 1.492236 1_555
O55 Si8 1.647766 1_655
O56 Si9 1.647849 1_545
O57 Si10 1.668858 1_545
O58 S5 1.500694 1_555
O59 Si11 1.670109 1_655
O60 Si7 1.654916 1_555
O61 Si6 1.652838 1_455
O62 S3 1.490641 1_565
O63 Si4 1.656699 1_565
O64 Si5 1.660722 1_555
O65 S2 1.495350 1_455
O66 S0 1.481787 1_565
O67 Si0 1.658626 1_555
O68 Si1 1.657896 1_555
O69 Si2 1.653774 1_555
O70 S1 1.497147 1_455
O71 Si3 1.650144 1_565
