# generated using pymatgen
data_Cu2SO4
_symmetry_space_group_name_H-M   'P 1'
_cell_length_a   9.26802219
_cell_length_b   7.85210969
_cell_length_c   5.90323555
_cell_angle_alpha   83.42970647
_cell_angle_beta   57.31600332
_cell_angle_gamma   39.25429021
_symmetry_Int_Tables_number   1
_chemical_formula_structural   Cu2SO4
_chemical_formula_sum   'Cu4 S2 O8'
_cell_volume   187.93808495
_cell_formula_units_Z   2
loop_
 _symmetry_equiv_pos_site_id
 _symmetry_equiv_pos_as_xyz
  1  'x, y, z'
loop_
 _atom_site_type_symbol
 _atom_site_label
 _atom_site_symmetry_multiplicity
 _atom_site_fract_x
 _atom_site_fract_y
 _atom_site_fract_z
 _atom_site_occupancy
  Cu  Cu0  1  0.44828800  0.44828800  0.05171200  1
  Cu  Cu1  1  0.05171200  0.05171200  0.44828800  1
  Cu  Cu2  1  0.80171200  0.80171200  0.19828800  1
  Cu  Cu3  1  0.19828800  0.19828800  0.80171200  1
  S  S0  1  0.75000000  0.75000000  0.75000000  1
  S  S1  1  0.50000000  0.50000000  0.50000000  1
  O  O0  1  0.70257300  0.91561700  0.95397800  1
  O  O1  1  0.42783200  0.95397800  0.91561700  1
  O  O2  1  0.95397800  0.42783200  0.70257300  1
  O  O3  1  0.91561700  0.70257300  0.42783200  1
  O  O4  1  0.54742700  0.33438300  0.29602200  1
  O  O5  1  0.82216800  0.29602200  0.33438300  1
  O  O6  1  0.33438300  0.54742700  0.82216800  1
  O  O7  1  0.29602200  0.82216800  0.54742700  1
loop_
_geom_bond_atom_site_label_1
_geom_bond_atom_site_label_2
_geom_bond_distance
_geom_bond_site_symmetry_2
Cu0 O4 1.894058 1_555
Cu0 O6 1.894058 1_554
Cu1 O7 1.894058 1_545
Cu1 O5 1.894058 1_455
Cu2 O0 1.894058 1_554
Cu2 O3 1.894058 1_555
Cu3 O2 1.894058 1_455
Cu3 O1 1.894058 1_545
O0 S0 1.495243 1_555
O1 S0 1.495243 1_555
O2 S0 1.495243 1_555
O3 S0 1.495243 1_555
O4 S1 1.495243 1_555
O5 S1 1.495243 1_555
O6 S1 1.495243 1_555
O7 S1 1.495243 1_555
