# generated using pymatgen
data_Mg(BiO2)4
_symmetry_space_group_name_H-M   'P 1'
_cell_length_a   5.62608818
_cell_length_b   7.93709688
_cell_length_c   7.52854772
_cell_angle_alpha   65.96628476
_cell_angle_beta   55.84103581
_cell_angle_gamma   52.85512185
_symmetry_Int_Tables_number   1
_chemical_formula_structural   Mg(BiO2)4
_chemical_formula_sum   'Mg1 Bi4 O8'
_cell_volume   220.55732601
_cell_formula_units_Z   1
loop_
 _symmetry_equiv_pos_site_id
 _symmetry_equiv_pos_as_xyz
  1  'x, y, z'
loop_
 _atom_site_type_symbol
 _atom_site_label
 _atom_site_symmetry_multiplicity
 _atom_site_fract_x
 _atom_site_fract_y
 _atom_site_fract_z
 _atom_site_occupancy
  Mg  Mg0  1  0.18605775  0.05413153  0.00686035  1
  Bi  Bi0  1  0.44361232  0.25379603  0.16199716  1
  Bi  Bi1  1  0.80557860  0.02462150  0.56468875  1
  Bi  Bi2  1  0.65002173  0.58036079  0.17292052  1
  Bi  Bi3  1  0.61801028  0.58543222  0.67569752  1
  O  O0  1  0.31490063  0.43561316  0.37338844  1
  O  O1  1  0.22465724  0.51895167  0.95646380  1
  O  O2  1  0.30926427  0.77253970  0.48555590  1
  O  O3  1  0.93646789  0.31201656  0.35374141  1
  O  O4  1  0.50195860  0.85027153  0.78684694  1
  O  O5  1  0.83998471  0.33707774  0.94611653  1
  O  O6  1  0.84094879  0.99120710  0.27303695  1
  O  O7  1  0.55612921  0.03986048  0.99856475  1
loop_
_geom_bond_atom_site_label_1
_geom_bond_atom_site_label_2
_geom_bond_distance
_geom_bond_site_symmetry_2
Mg0 O4 1.981083 1_544
Mg0 O5 1.981488 1_454
Mg0 O7 1.981568 1_554
Mg0 O6 2.005374 1_445
Bi0 O7 2.080130 1_554
Bi0 O0 2.110503 1_555
Bi0 O1 2.167503 1_554
Bi0 O3 2.182679 1_455
Bi0 O5 2.210528 1_554
Bi0 O6 2.256698 1_545
Bi1 O2 2.148546 1_645
Bi1 O6 2.202505 1_545
Bi1 O4 2.321934 1_545
Bi1 O3 2.456061 1_555
Bi1 O7 2.760939 1_555
Bi2 O3 2.223377 1_555
Bi2 O0 2.271696 1_555
Bi2 O2 2.422288 1_555
Bi2 O5 2.435258 1_554
Bi2 O1 2.484507 1_654
Bi3 O4 2.169541 1_555
Bi3 O1 2.211913 1_555
Bi3 O2 2.284138 1_555
Bi3 O5 2.490654 1_555
