# generated using pymatgen
data_BaLa2CoS5
_symmetry_space_group_name_H-M   'P 1'
_cell_length_a   8.80880909
_cell_length_b   8.80880909
_cell_length_c   8.80880909
_cell_angle_alpha   126.06872135
_cell_angle_beta   126.06872135
_cell_angle_gamma   79.77522176
_symmetry_Int_Tables_number   1
_chemical_formula_structural   BaLa2CoS5
_chemical_formula_sum   'Ba2 La4 Co2 S10'
_cell_volume   431.36946903
_cell_formula_units_Z   2
loop_
 _symmetry_equiv_pos_site_id
 _symmetry_equiv_pos_as_xyz
  1  'x, y, z'
loop_
 _atom_site_type_symbol
 _atom_site_label
 _atom_site_symmetry_multiplicity
 _atom_site_fract_x
 _atom_site_fract_y
 _atom_site_fract_z
 _atom_site_occupancy
  Ba  Ba0  1  0.25000000  0.25000000  0.00000000  1
  Ba  Ba1  1  0.75000000  0.75000000  0.00000000  1
  La  La0  1  0.33572600  0.16427400  0.50000000  1
  La  La1  1  0.16427400  0.66427400  0.82854900  1
  La  La2  1  0.83572600  0.33572600  0.17145100  1
  La  La3  1  0.66427400  0.83572600  0.50000000  1
  Co  Co0  1  0.75000000  0.25000000  0.50000000  1
  Co  Co1  1  0.25000000  0.75000000  0.50000000  1
  S  S0  1  0.49159200  0.99159200  0.20797400  1
  S  S1  1  0.21638200  0.71638200  0.20797400  1
  S  S2  1  0.50840800  0.00840800  0.79202600  1
  S  S3  1  0.00840800  0.21638200  0.50000000  1
  S  S4  1  0.71638200  0.50840800  0.50000000  1
  S  S5  1  0.99159200  0.78361800  0.50000000  1
  S  S6  1  0.28361800  0.49159200  0.50000000  1
  S  S7  1  0.78361800  0.28361800  0.79202600  1
  S  S8  1  0.50000000  0.50000000  0.00000000  1
  S  S9  1  0.00000000  0.00000000  0.00000000  1
loop_
_geom_bond_atom_site_label_1
_geom_bond_atom_site_label_2
_geom_bond_distance
_geom_bond_site_symmetry_2
Ba0 S8 3.379516 1_555
Ba0 S9 3.379516 1_555
Ba0 S3 3.415603 1_554
Ba0 S4 3.415603 1_555
Ba0 S1 3.415603 1_555
Ba0 S6 3.415603 1_555
Ba0 S2 3.415603 1_554
Ba0 S5 3.415603 1_444
Ba0 S7 3.415603 1_454
Ba0 S0 3.415603 1_545
Ba1 S8 3.379516 1_555
Ba1 S9 3.379516 1_665
Ba1 S2 3.415603 1_564
Ba1 S7 3.415603 1_554
Ba1 S0 3.415603 1_555
Ba1 S3 3.415603 1_665
Ba1 S4 3.415603 1_554
Ba1 S6 3.415603 1_554
Ba1 S1 3.415603 1_655
Ba1 S5 3.415603 1_555
La0 S3 2.837983 1_555
La0 S6 2.837983 1_555
La0 S8 2.985914 1_556
La0 S9 2.985914 1_555
La0 S7 3.102584 1_555
La0 S1 3.102584 1_545
La0 S0 3.102584 1_545
La0 S2 3.102584 1_555
La1 S1 2.837975 1_556
La1 S0 2.837984 1_556
La1 S8 2.985913 1_556
La1 S9 2.985913 1_566
La1 S3 3.102584 1_555
La1 S4 3.102584 1_455
La1 S5 3.102592 1_455
La1 S6 3.102592 1_555
La2 S7 2.837975 1_554
La2 S2 2.837984 1_554
La2 S9 2.985913 1_655
La2 S8 2.985913 1_555
La2 S5 3.102584 1_555
La2 S6 3.102584 1_655
La2 S3 3.102592 1_655
La2 S4 3.102592 1_555
La3 S4 2.837983 1_555
La3 S5 2.837983 1_555
La3 S9 2.985914 1_666
La3 S8 2.985914 1_555
La3 S1 3.102584 1_555
La3 S2 3.102584 1_565
La3 S0 3.102584 1_555
La3 S7 3.102584 1_565
Co0 S3 2.242716 1_655
Co0 S4 2.242716 1_555
Co0 S0 2.242716 1_545
Co0 S7 2.242716 1_555
Co1 S2 2.242716 1_565
Co1 S1 2.242716 1_555
Co1 S6 2.242716 1_555
Co1 S5 2.242716 1_455
