# generated using pymatgen
data_Tl2PdSe2
_symmetry_space_group_name_H-M   'P 1'
_cell_length_a   3.70698103
_cell_length_b   6.15641444
_cell_length_c   11.47438861
_cell_angle_alpha   90.00000000
_cell_angle_beta   90.00000000
_cell_angle_gamma   90.00000000
_symmetry_Int_Tables_number   1
_chemical_formula_structural   Tl2PdSe2
_chemical_formula_sum   'Tl4 Pd2 Se4'
_cell_volume   261.86518698
_cell_formula_units_Z   2
loop_
 _symmetry_equiv_pos_site_id
 _symmetry_equiv_pos_as_xyz
  1  'x, y, z'
loop_
 _atom_site_type_symbol
 _atom_site_label
 _atom_site_symmetry_multiplicity
 _atom_site_fract_x
 _atom_site_fract_y
 _atom_site_fract_z
 _atom_site_occupancy
  Tl  Tl0  1  0.00000000  0.61146080  0.15301535  1
  Tl  Tl1  1  0.00000000  0.38853920  0.84698465  1
  Tl  Tl2  1  -0.00000000  0.11146080  0.34698465  1
  Tl  Tl3  1  -0.00000000  0.88853920  0.65301535  1
  Pd  Pd0  1  0.00000000  0.00000000  0.00000000  1
  Pd  Pd1  1  0.00000000  0.50000000  0.50000000  1
  Se  Se0  1  0.50000000  0.67775661  0.38962246  1
  Se  Se1  1  0.50000000  0.32224339  0.61037754  1
  Se  Se2  1  0.50000000  0.17775661  0.11037754  1
  Se  Se3  1  0.50000000  0.82224339  0.88962246  1
loop_
_geom_bond_atom_site_label_1
_geom_bond_atom_site_label_2
_geom_bond_distance
_geom_bond_site_symmetry_2
Pd0 Se2 2.497413 1_555
Pd0 Se2 2.497413 1_455
Pd0 Se3 2.497413 1_544
Pd0 Se3 2.497413 1_444
Pd0 Tl1 2.967219 1_554
Pd0 Tl0 2.967219 1_545
Pd1 Se0 2.497413 1_555
Pd1 Se1 2.497413 1_555
Pd1 Se0 2.497413 1_455
Pd1 Se1 2.497413 1_455
Pd1 Tl2 2.967219 1_555
Pd1 Tl3 2.967219 1_555
Se0 Tl2 3.286947 1_565
Se0 Tl2 3.286947 1_665
Se0 Tl0 3.312523 1_655
Se0 Tl0 3.312523 1_555
Se1 Tl3 3.286947 1_545
Se1 Tl3 3.286947 1_645
Se1 Tl1 3.312523 1_555
Se1 Tl1 3.312523 1_655
Se2 Tl0 3.286947 1_555
Se2 Tl0 3.286947 1_655
Se2 Tl2 3.312523 1_655
Se2 Tl2 3.312523 1_555
Se3 Tl1 3.286947 1_555
Se3 Tl1 3.286947 1_655
Se3 Tl3 3.312523 1_655
Se3 Tl3 3.312523 1_555
