# generated using pymatgen
data_MgCo6(O5F)2
_symmetry_space_group_name_H-M   'P 1'
_cell_length_a   4.80649520
_cell_length_b   13.91036533
_cell_length_c   2.90560500
_cell_angle_alpha   90.00000000
_cell_angle_beta   90.00000000
_cell_angle_gamma   96.50687172
_symmetry_Int_Tables_number   1
_chemical_formula_structural   MgCo6(O5F)2
_chemical_formula_sum   'Mg1 Co6 O10 F2'
_cell_volume   193.01762458
_cell_formula_units_Z   1
loop_
 _symmetry_equiv_pos_site_id
 _symmetry_equiv_pos_as_xyz
  1  'x, y, z'
loop_
 _atom_site_type_symbol
 _atom_site_label
 _atom_site_symmetry_multiplicity
 _atom_site_fract_x
 _atom_site_fract_y
 _atom_site_fract_z
 _atom_site_occupancy
  Mg  Mg0  1  0.50000000  0.00000000  0.47509700  1
  Co  Co0  1  0.00000000  0.00000000  0.97707700  1
  Co  Co1  1  0.95104600  0.35564500  0.99443100  1
  Co  Co2  1  0.04895400  0.64435500  0.99443100  1
  Co  Co3  1  0.45599600  0.19085600  0.48732800  1
  Co  Co4  1  0.50000000  0.50000000  0.49646100  1
  Co  Co5  1  0.54400500  0.80914400  0.48732800  1
  O  O0  1  0.13006900  0.92985000  0.47783300  1
  O  O1  1  0.21562700  0.58244700  0.49527100  1
  O  O2  1  0.36424700  0.74411800  0.98948900  1
  O  O3  1  0.34791100  0.08999000  0.97878700  1
  O  O4  1  0.30893500  0.43344600  0.99594200  1
  O  O5  1  0.69106600  0.56655400  0.99594200  1
  O  O6  1  0.63575300  0.25588200  0.98948900  1
  O  O7  1  0.65208900  0.91001000  0.97878700  1
  O  O8  1  0.86993100  0.07015000  0.47783300  1
  O  O9  1  0.78437300  0.41755300  0.49527100  1
  F  F0  1  0.12327600  0.27266000  0.49201800  1
  F  F1  1  0.87672400  0.72734000  0.49201800  1
loop_
_geom_bond_atom_site_label_1
_geom_bond_atom_site_label_2
_geom_bond_distance
_geom_bond_site_symmetry_2
Mg0 O0 1.928877 1_545
Mg0 O8 1.928877 1_555
Mg0 O7 2.094843 1_544
Mg0 O3 2.094843 1_554
Mg0 O7 2.109662 1_545
Mg0 O3 2.109662 1_555
Co0 O0 1.893562 1_545
Co0 O8 1.893562 1_455
Co0 O0 1.896930 1_546
Co0 O8 1.896930 1_456
Co0 O3 1.972040 1_555
Co0 O7 1.972040 1_445
Co1 O9 1.908741 1_555
Co1 O9 1.912453 1_556
Co1 O4 1.925717 1_655
Co1 O6 1.935454 1_555
Co1 F0 2.079594 1_656
Co1 F0 2.089367 1_655
Co2 O1 1.908741 1_555
Co2 O1 1.912453 1_556
Co2 O5 1.925713 1_455
Co2 O2 1.935454 1_555
Co2 F1 2.079594 1_456
Co2 F1 2.089367 1_455
Co3 O6 1.865472 1_554
Co3 O6 1.875226 1_555
Co3 O3 2.027923 1_555
Co3 O3 2.063174 1_554
Co3 F0 2.065187 1_555
Co4 O1 1.881182 1_555
Co4 O9 1.881182 1_555
Co4 O4 1.901058 1_555
Co4 O5 1.901060 1_555
Co4 O4 1.903362 1_554
Co4 O5 1.903364 1_554
Co5 O2 1.865474 1_554
Co5 O2 1.875228 1_555
Co5 O7 2.027922 1_555
Co5 O7 2.063173 1_554
Co5 F1 2.065183 1_555
