# generated using pymatgen
data_MgCd2(FeO2)4
_symmetry_space_group_name_H-M   'P 1'
_cell_length_a   6.56960215
_cell_length_b   6.44340793
_cell_length_c   6.71281192
_cell_angle_alpha   55.13171739
_cell_angle_beta   56.66123251
_cell_angle_gamma   59.02751880
_symmetry_Int_Tables_number   1
_chemical_formula_structural   MgCd2(FeO2)4
_chemical_formula_sum   'Mg1 Cd2 Fe4 O8'
_cell_volume   186.26242573
_cell_formula_units_Z   1
loop_
 _symmetry_equiv_pos_site_id
 _symmetry_equiv_pos_as_xyz
  1  'x, y, z'
loop_
 _atom_site_type_symbol
 _atom_site_label
 _atom_site_symmetry_multiplicity
 _atom_site_fract_x
 _atom_site_fract_y
 _atom_site_fract_z
 _atom_site_occupancy
  Mg  Mg0  1  0.81530707  0.12999710  0.03335085  1
  Cd  Cd0  1  0.16665248  0.14176750  0.14565245  1
  Cd  Cd1  1  0.92482243  0.82356481  0.79288459  1
  Fe  Fe0  1  0.47408714  0.00724897  0.53887811  1
  Fe  Fe1  1  0.00410988  0.49070659  0.51007073  1
  Fe  Fe2  1  0.42420181  0.58072982  0.00984752  1
  Fe  Fe3  1  0.55983184  0.51760822  0.45752466  1
  O  O0  1  0.73131803  0.70433143  0.72408194  1
  O  O1  1  0.15820621  0.20537627  0.78844847  1
  O  O2  1  0.27100569  0.69578374  0.31247050  1
  O  O3  1  0.71803934  0.26231849  0.29433612  1
  O  O4  1  0.75481720  0.26323754  0.70779077  1
  O  O5  1  0.32487001  0.69316025  0.70881771  1
  O  O6  1  0.27219038  0.28274748  0.28430047  1
  O  O7  1  0.78595748  0.75350478  0.24362813  1
loop_
_geom_bond_atom_site_label_1
_geom_bond_atom_site_label_2
_geom_bond_distance
_geom_bond_site_symmetry_2
Mg0 O3 2.030064 1_555
Mg0 O4 2.032058 1_554
Mg0 O1 2.038567 1_654
Mg0 O7 2.044903 1_545
Cd0 O6 2.120465 1_555
Cd0 O1 2.218077 1_554
Cd0 O2 2.262444 1_545
Cd0 O3 2.362725 1_455
Cd1 O0 2.115639 1_555
Cd1 O5 2.137921 1_655
Cd1 O4 2.279001 1_565
Cd1 O7 2.453418 1_556
Fe0 O0 2.085895 1_545
Fe0 O6 2.104854 1_555
Fe0 O5 2.128650 1_545
Fe0 O1 2.154102 1_555
Fe0 O3 2.167697 1_555
Fe0 O7 2.567665 1_545
Fe1 O0 2.015528 1_455
Fe1 O1 2.032856 1_555
Fe1 O6 2.037965 1_555
Fe1 O2 2.098602 1_555
Fe1 O4 2.109296 1_455
Fe1 O7 2.230964 1_455
Fe2 O6 1.996167 1_555
Fe2 O0 2.009419 1_554
Fe2 O5 2.079230 1_554
Fe2 O2 2.096661 1_555
Fe3 O5 2.007551 1_555
Fe3 O3 2.008791 1_555
Fe3 O7 2.015680 1_555
Fe3 O4 2.050804 1_555
Fe3 O2 2.092156 1_555
