# generated using pymatgen
data_RbBrF4
_symmetry_space_group_name_H-M   'P 1'
_cell_length_a   7.51832365
_cell_length_b   7.51832365
_cell_length_c   7.51832365
_cell_angle_alpha   123.20385940
_cell_angle_beta   123.20385940
_cell_angle_gamma   84.53491421
_symmetry_Int_Tables_number   1
_chemical_formula_structural   RbBrF4
_chemical_formula_sum   'Rb2 Br2 F8'
_cell_volume   284.53541465
_cell_formula_units_Z   2
loop_
 _symmetry_equiv_pos_site_id
 _symmetry_equiv_pos_as_xyz
  1  'x, y, z'
loop_
 _atom_site_type_symbol
 _atom_site_label
 _atom_site_symmetry_multiplicity
 _atom_site_fract_x
 _atom_site_fract_y
 _atom_site_fract_z
 _atom_site_occupancy
  Rb  Rb0  1  0.50000000  0.50000000  0.00000000  1
  Rb  Rb1  1  0.00000000  0.00000000  0.00000000  1
  Br  Br0  1  0.00000000  0.50000000  0.50000000  1
  Br  Br1  1  0.50000000  0.00000000  0.50000000  1
  F  F0  1  0.47788000  0.97788000  0.21958700  1
  F  F1  1  0.24170700  0.74170700  0.21958700  1
  F  F2  1  0.52212000  0.02212000  0.78041300  1
  F  F3  1  0.02212000  0.24170700  0.50000000  1
  F  F4  1  0.75829300  0.25829300  0.78041300  1
  F  F5  1  0.25829300  0.47788000  0.50000000  1
  F  F6  1  0.97788000  0.75829300  0.50000000  1
  F  F7  1  0.74170700  0.52212000  0.50000000  1
loop_
_geom_bond_atom_site_label_1
_geom_bond_atom_site_label_2
_geom_bond_distance
_geom_bond_site_symmetry_2
Br0 F7 1.933193 1_455
Br0 F6 1.933193 1_455
Br0 F5 1.933193 1_555
Br0 F3 1.933193 1_555
Br1 F2 1.933193 1_555
Br1 F4 1.933193 1_555
Br1 F1 1.933193 1_545
Br1 F0 1.933193 1_545
F0 Rb1 3.058148 1_565
F0 Rb0 3.058148 1_555
F1 Rb1 3.058148 1_565
F1 Rb0 3.058148 1_555
F2 Rb1 3.058148 1_656
F2 Rb0 3.058148 1_556
F3 Rb0 3.058148 1_556
F3 Rb1 3.058148 1_555
F4 Rb1 3.058148 1_656
F4 Rb0 3.058148 1_556
F5 Rb0 3.058148 1_556
F5 Rb1 3.058148 1_555
F6 Rb1 3.058148 1_666
F6 Rb0 3.058148 1_555
F7 Rb0 3.058148 1_555
F7 Rb1 3.058148 1_666
