# generated using pymatgen
data_Rb3NaMg(RuO4)2
_symmetry_space_group_name_H-M   'P 1'
_cell_length_a   6.10063000
_cell_length_b   6.10063038
_cell_length_c   9.50633700
_cell_angle_alpha   90.00000000
_cell_angle_beta   90.00000000
_cell_angle_gamma   119.99999793
_symmetry_Int_Tables_number   1
_chemical_formula_structural   Rb3NaMg(RuO4)2
_chemical_formula_sum   'Rb3 Na1 Mg1 Ru2 O8'
_cell_volume   306.40316430
_cell_formula_units_Z   1
loop_
 _symmetry_equiv_pos_site_id
 _symmetry_equiv_pos_as_xyz
  1  'x, y, z'
loop_
 _atom_site_type_symbol
 _atom_site_label
 _atom_site_symmetry_multiplicity
 _atom_site_fract_x
 _atom_site_fract_y
 _atom_site_fract_z
 _atom_site_occupancy
  Rb  Rb0  1  0.66666700  0.33333300  0.36976800  1
  Rb  Rb1  1  0.00000000  0.00000000  0.91531400  1
  Rb  Rb2  1  0.33333300  0.66666700  0.61410300  1
  Na  Na0  1  0.00000000  0.00000000  0.56034900  1
  Mg  Mg0  1  0.00000000  0.00000000  0.27369900  1
  Ru  Ru0  1  0.66666700  0.33333300  0.76844900  1
  Ru  Ru1  1  0.33333300  0.66666700  0.22572900  1
  O  O0  1  0.17276000  0.34552100  0.32737000  1
  O  O1  1  0.65447900  0.82724000  0.32737000  1
  O  O2  1  0.17276000  0.82724000  0.32737000  1
  O  O3  1  0.82448300  0.64896600  0.68929800  1
  O  O4  1  0.82448300  0.17551700  0.68929800  1
  O  O5  1  0.35103400  0.17551700  0.68929800  1
  O  O6  1  0.66666700  0.33333300  0.95466300  1
  O  O7  1  0.33333300  0.66666700  0.04292400  1
loop_
_geom_bond_atom_site_label_1
_geom_bond_atom_site_label_2
_geom_bond_distance
_geom_bond_site_symmetry_2
Na0 O5 2.223123 1_555
Na0 O4 2.223123 1_455
Na0 O3 2.223123 1_445
Mg0 O2 1.895447 1_545
Mg0 O1 1.895452 1_445
Mg0 O0 1.895452 1_555
O0 Ru1 1.952546 1_555
O0 Rb0 3.077496 1_455
O0 Rb0 3.077508 1_555
O0 Rb2 3.210718 1_555
O1 Ru1 1.952546 1_555
O1 Rb0 3.077496 1_565
O1 Rb0 3.077508 1_555
O1 Rb2 3.210718 1_555
O2 Ru1 1.952546 1_555
O2 Rb0 3.077502 1_455
O2 Rb0 3.077502 1_565
O2 Rb2 3.210718 1_555
O3 Ru0 1.829480 1_555
O3 Rb1 2.838313 1_665
O3 Rb2 3.134347 1_655
O3 Rb2 3.134353 1_555
O3 Rb0 3.465199 1_555
O4 Ru0 1.829475 1_555
O4 Rb1 2.838313 1_655
O4 Rb2 3.134350 1_655
O4 Rb2 3.134350 1_545
O4 Rb0 3.465197 1_555
O5 Ru0 1.829480 1_555
O5 Rb1 2.838313 1_555
O5 Rb2 3.134347 1_545
O5 Rb2 3.134353 1_555
O5 Rb0 3.465199 1_555
O6 Ru0 1.770213 1_555
O7 Ru1 1.737806 1_555
