# generated using pymatgen
data_Na14Ca5Si6Sn3(SO8)6
_symmetry_space_group_name_H-M   'P 1'
_cell_length_a   18.80652836
_cell_length_b   9.39079360
_cell_length_c   22.87252220
_cell_angle_alpha   90.17961457
_cell_angle_beta   89.57567464
_cell_angle_gamma   120.07422863
_symmetry_Int_Tables_number   1
_chemical_formula_structural   Na14Ca5Si6Sn3(SO8)6
_chemical_formula_sum   'Na42 Ca15 Si18 Sn9 S18 O144'
_cell_volume   3495.57225191
_cell_formula_units_Z   3
loop_
 _symmetry_equiv_pos_site_id
 _symmetry_equiv_pos_as_xyz
  1  'x, y, z'
loop_
 _atom_site_type_symbol
 _atom_site_label
 _atom_site_symmetry_multiplicity
 _atom_site_fract_x
 _atom_site_fract_y
 _atom_site_fract_z
 _atom_site_occupancy
  Na  Na0  1  0.19632139  0.36320474  0.24605778  1
  Na  Na1  1  0.69191763  0.36048463  0.24463908  1
  Na  Na2  1  0.99487448  0.64924979  0.25288830  1
  Na  Na3  1  0.49334700  0.63651002  0.23940711  1
  Na  Na4  1  0.31655942  0.63551516  0.74695193  1
  Na  Na5  1  0.81516798  0.63116180  0.73333757  1
  Na  Na6  1  0.18950643  0.02728629  0.74471685  1
  Na  Na7  1  0.69185050  0.02585373  0.74542158  1
  Na  Na8  1  0.15285011  0.32063997  0.57617125  1
  Na  Na9  1  0.67028870  0.35140192  0.57986438  1
  Na  Na10  1  0.00851137  0.70196099  0.58107411  1
  Na  Na11  1  0.51573730  0.70122819  0.58465200  1
  Na  Na12  1  0.32104121  0.97499163  0.59635761  1
  Na  Na13  1  0.82224083  0.95844795  0.59531475  1
  Na  Na14  1  0.15704283  0.97980667  0.07866941  1
  Na  Na15  1  0.64489604  0.95943126  0.07135487  1
  Na  Na16  1  0.81725426  0.66424594  0.09667143  1
  Na  Na17  1  0.01605319  0.33004638  0.08340777  1
  Na  Na18  1  0.52014122  0.35353527  0.09110488  1
  Na  Na19  1  0.49439706  0.68174179  0.92630977  1
  Na  Na20  1  0.99444056  0.68608388  0.91698889  1
  Na  Na21  1  0.84270504  0.03180375  0.90173737  1
  Na  Na22  1  0.16486621  0.27980916  0.90588199  1
  Na  Na23  1  0.66205094  0.26917936  0.91223668  1
  Na  Na24  1  0.49571748  0.30883105  0.41877622  1
  Na  Na25  1  0.99067443  0.30044247  0.42231615  1
  Na  Na26  1  0.16290808  0.05701053  0.41294296  1
  Na  Na27  1  0.66518551  0.05807787  0.41285278  1
  Na  Na28  1  0.34690800  0.65337676  0.40160609  1
  Na  Na29  1  0.84658898  0.65438947  0.41498710  1
  Na  Na30  1  0.00714131  0.00202594  0.50502033  1
  Na  Na31  1  0.52255298  0.03125482  0.49988412  1
  Na  Na32  1  0.01406260  0.00693911  0.99867273  1
  Na  Na33  1  0.50438094  0.99326827  0.00349379  1
  Na  Na34  1  0.33251467  0.29478127  0.82879048  1
  Na  Na35  1  0.82303550  0.30362276  0.82399053  1
  Na  Na36  1  0.32063759  0.32623598  0.32359857  1
  Na  Na37  1  0.81516669  0.32257052  0.32660807  1
  Na  Na38  1  0.18981468  0.67591666  0.16518949  1
  Na  Na39  1  0.66309212  0.66412593  0.16388311  1
  Na  Na40  1  0.16106074  0.66996317  0.66840676  1
  Na  Na41  1  0.67494767  0.67423840  0.66307483  1
  Ca  Ca0  1  0.00117646  0.00166108  0.34743984  1
  Ca  Ca1  1  0.50174305  0.00032735  0.34506763  1
  Ca  Ca2  1  0.00294936  0.00900343  0.84562714  1
  Ca  Ca3  1  0.49959044  0.00669835  0.85060554  1
  Ca  Ca4  1  0.33080756  0.32385870  0.68460239  1
  Ca  Ca5  1  0.83001799  0.32759481  0.68281254  1
  Ca  Ca6  1  0.33024803  0.33349986  0.18374895  1
  Ca  Ca7  1  0.82740304  0.32306697  0.18396117  1
  Ca  Ca8  1  0.81842528  0.31223427  0.98506835  1
  Ca  Ca9  1  0.32084533  0.32483227  0.48418931  1
  Ca  Ca10  1  0.82189864  0.33839533  0.48898076  1
  Ca  Ca11  1  0.17250134  0.66857540  0.01802262  1
  Ca  Ca12  1  0.66455248  0.66381989  0.01730691  1
  Ca  Ca13  1  0.16679701  0.66902955  0.51690353  1
  Ca  Ca14  1  0.67035569  0.66949863  0.51851860  1
  Si  Si0  1  0.15219747  0.98952558  0.25521563  1
  Si  Si1  1  0.65100499  0.98748637  0.25489497  1
  Si  Si2  1  0.35116185  0.70546694  0.25374847  1
  Si  Si3  1  0.85096500  0.70379577  0.25127364  1
  Si  Si4  1  0.15001467  0.31261920  0.75299133  1
  Si  Si5  1  0.65205188  0.31182559  0.75680107  1
  Si  Si6  1  0.34955526  0.99588337  0.75067270  1
  Si  Si7  1  0.84905915  0.99841746  0.75526759  1
  Si  Si8  1  0.17510007  0.02270051  0.58645381  1
  Si  Si9  1  0.67133162  0.02379431  0.58730238  1
  Si  Si10  1  0.84104392  0.65492894  0.58635727  1
  Si  Si11  1  0.47821119  0.62752066  0.08279678  1
  Si  Si12  1  0.17535316  0.32247635  0.08925528  1
  Si  Si13  1  0.67344067  0.32107759  0.08759102  1
  Si  Si14  1  0.16989825  0.96756621  0.92112902  1
  Si  Si15  1  0.66702071  0.96338037  0.91559341  1
  Si  Si16  1  0.16635450  0.37282591  0.41636541  1
  Si  Si17  1  0.66541036  0.37067516  0.41517110  1
  Sn  Sn0  1  0.00038429  0.01229210  0.65479981  1
  Sn  Sn1  1  0.50618658  0.02773003  0.65949565  1
  Sn  Sn2  1  0.00654131  0.99255344  0.15724796  1
  Sn  Sn3  1  0.50196397  0.96886605  0.15187975  1
  Sn  Sn4  1  0.32323420  0.32380737  0.98854129  1
  Sn  Sn5  1  0.17846697  0.67662822  0.31176515  1
  Sn  Sn6  1  0.67690215  0.67208920  0.31032090  1
  Sn  Sn7  1  0.17419582  0.68324890  0.81348972  1
  Sn  Sn8  1  0.67095681  0.67557063  0.81198974  1
  S  S0  1  0.00496352  0.30482383  0.24963262  1
  S  S1  1  0.50347434  0.30476677  0.25104332  1
  S  S2  1  0.00519121  0.70428244  0.75223983  1
  S  S3  1  0.50336112  0.70630475  0.75015654  1
  S  S4  1  0.48174425  0.32467316  0.58204968  1
  S  S5  1  0.98390928  0.32887782  0.58231991  1
  S  S6  1  0.33949550  0.64871354  0.58468998  1
  S  S7  1  0.98368210  0.63912969  0.08343777  1
  S  S8  1  0.33716761  0.04132962  0.08272733  1
  S  S9  1  0.84306627  0.03308483  0.08303471  1
  S  S10  1  0.31393258  0.65218827  0.91524148  1
  S  S11  1  0.81678480  0.66441319  0.91664420  1
  S  S12  1  0.02036271  0.38025829  0.91683802  1
  S  S13  1  0.51425760  0.37556486  0.91712315  1
  S  S14  1  0.31550460  0.96768688  0.41679433  1
  S  S15  1  0.81486488  0.96934510  0.41536112  1
  S  S16  1  0.01850829  0.66051294  0.41414915  1
  S  S17  1  0.51827605  0.66200147  0.41629334  1
  O  O0  1  0.10930806  0.01341186  0.31202036  1
  O  O1  1  0.61229195  0.01498594  0.31337440  1
  O  O2  1  0.39179012  0.78157752  0.31545098  1
  O  O3  1  0.89771439  0.78619034  0.31047852  1
  O  O4  1  0.49608487  0.21760986  0.30592027  1
  O  O5  1  0.99268768  0.21143839  0.30241702  1
  O  O6  1  0.11669492  0.20229361  0.81102214  1
  O  O7  1  0.61227040  0.19739577  0.81282613  1
  O  O8  1  0.49336646  0.77934176  0.80443236  1
  O  O9  1  0.99425304  0.77520540  0.80672173  1
  O  O10  1  0.39803064  0.98668842  0.80502209  1
  O  O11  1  0.89124155  0.99807018  0.81573089  1
  O  O12  1  0.39277230  0.96727968  0.68772347  1
  O  O13  1  0.89702066  0.96932856  0.69747374  1
  O  O14  1  0.09127408  0.21920499  0.69409829  1
  O  O15  1  0.59662504  0.23084693  0.69507238  1
  O  O16  1  0.01805170  0.81473610  0.70061786  1
  O  O17  1  0.51501734  0.81646953  0.69776590  1
  O  O18  1  0.40048918  0.83277625  0.19739354  1
  O  O19  1  0.89819469  0.82150817  0.19015294  1
  O  O20  1  0.01433963  0.21707966  0.19597078  1
  O  O21  1  0.51185674  0.21673383  0.19900196  1
  O  O22  1  0.08921080  0.94744645  0.19538257  1
  O  O23  1  0.58896631  0.94683820  0.19602135  1
  O  O24  1  0.43976394  0.34763728  0.63218691  1
  O  O25  1  0.94081677  0.34552354  0.63253136  1
  O  O26  1  0.23792458  0.10783146  0.64013826  1
  O  O27  1  0.73008178  0.10571265  0.64281105  1
  O  O28  1  0.33210298  0.55046938  0.63694283  1
  O  O29  1  0.83196428  0.54299014  0.64232714  1
  O  O30  1  0.44191184  0.51809490  0.14013557  1
  O  O31  1  0.94364911  0.53904656  0.13575501  1
  O  O32  1  0.32416788  0.11923231  0.13396256  1
  O  O33  1  0.83482870  0.12034780  0.13323828  1
  O  O34  1  0.22291541  0.33605765  0.14765923  1
  O  O35  1  0.73394393  0.35468704  0.14202340  1
  O  O36  1  0.21750894  0.28268437  0.02928095  1
  O  O37  1  0.70547439  0.27534054  0.02717489  1
  O  O38  1  0.41985268  0.53096653  0.02133944  1
  O  O39  1  0.93620345  0.55974187  0.02987742  1
  O  O40  1  0.34789397  0.14472909  0.02808034  1
  O  O41  1  0.85510628  0.12855296  0.02835967  1
  O  O42  1  0.20923527  0.12767918  0.52529137  1
  O  O43  1  0.70359011  0.13516340  0.52743470  1
  O  O44  1  0.34925493  0.56899925  0.53135252  1
  O  O45  1  0.86184556  0.58674457  0.52600152  1
  O  O46  1  0.43575896  0.30412807  0.52719897  1
  O  O47  1  0.93944061  0.31122604  0.52686678  1
  O  O48  1  0.27330327  0.66966121  0.96661521  1
  O  O49  1  0.77689722  0.67906390  0.97033290  1
  O  O50  1  0.06596231  0.45191080  0.97150689  1
  O  O51  1  0.56018140  0.44796498  0.97130473  1
  O  O52  1  0.15708709  0.86260990  0.97917874  1
  O  O53  1  0.66489708  0.86794859  0.97425058  1
  O  O54  1  0.27656410  0.87565054  0.47080249  1
  O  O55  1  0.77556680  0.87719707  0.46937700  1
  O  O56  1  0.16062892  0.45678055  0.47652608  1
  O  O57  1  0.65487885  0.45418250  0.47362483  1
  O  O58  1  0.06683177  0.68069418  0.46729524  1
  O  O59  1  0.56557178  0.68092415  0.46985190  1
  O  O60  1  0.06396303  0.65150775  0.36067383  1
  O  O61  1  0.56255402  0.64930214  0.36321289  1
  O  O62  1  0.25987847  0.88273325  0.36522417  1
  O  O63  1  0.76041634  0.88349855  0.36339324  1
  O  O64  1  0.17520378  0.49493413  0.35768852  1
  O  O65  1  0.67545395  0.49136397  0.35555197  1
  O  O66  1  0.06742818  0.48755205  0.86555045  1
  O  O67  1  0.55864377  0.48504743  0.86565968  1
  O  O68  1  0.17842776  0.87192851  0.85964272  1
  O  O69  1  0.67560322  0.86112662  0.85575172  1
  O  O70  1  0.26456978  0.63345156  0.86073198  1
  O  O71  1  0.76412162  0.64397692  0.86416349  1
  O  O72  1  0.00547420  0.80353050  0.41171441  1
  O  O73  1  0.50525569  0.80554250  0.41342176  1
  O  O74  1  0.39653666  0.97990331  0.41108452  1
  O  O75  1  0.89597894  0.98112909  0.41039956  1
  O  O76  1  0.08218268  0.19231813  0.41436438  1
  O  O77  1  0.58208679  0.18828175  0.41292895  1
  O  O78  1  0.00914024  0.21239446  0.91197695  1
  O  O79  1  0.50464311  0.21062349  0.91158354  1
  O  O80  1  0.08867737  0.98883991  0.91546571  1
  O  O81  1  0.58260700  0.97402539  0.91570649  1
  O  O82  1  0.39913382  0.78837480  0.91115353  1
  O  O83  1  0.89961763  0.81334102  0.91259757  1
  O  O84  1  0.48470738  0.16583588  0.58816954  1
  O  O85  1  0.99024489  0.17417673  0.58684900  1
  O  O86  1  0.08535226  0.02144702  0.59550013  1
  O  O87  1  0.57627276  0.01205824  0.59570731  1
  O  O88  1  0.41458256  0.81629453  0.58780564  1
  O  O89  1  0.92441496  0.84619979  0.59302256  1
  O  O90  1  0.48538283  0.81375656  0.08345645  1
  O  O91  1  0.98686938  0.80478588  0.08701399  1
  O  O92  1  0.41382507  0.03399382  0.08563845  1
  O  O93  1  0.91994498  0.01931909  0.08829026  1
  O  O94  1  0.08115166  0.13954158  0.09085015  1
  O  O95  1  0.57749435  0.15177368  0.09663321  1
  O  O96  1  0.33330989  0.14823640  0.74855851  1
  O  O97  1  0.83322816  0.15054874  0.74946718  1
  O  O98  1  0.24407037  0.35224601  0.74320225  1
  O  O99  1  0.74512734  0.34664065  0.74949261  1
  O  O100  1  0.43101504  0.54518659  0.74157844  1
  O  O101  1  0.93505237  0.53989756  0.74415229  1
  O  O102  1  0.34376281  0.52618665  0.24838272  1
  O  O103  1  0.84586433  0.52608648  0.24533451  1
  O  O104  1  0.43491821  0.33611800  0.24641736  1
  O  O105  1  0.93724697  0.33861053  0.24096296  1
  O  O106  1  0.24165781  0.14671796  0.24776809  1
  O  O107  1  0.74079382  0.14611948  0.24660653  1
  O  O108  1  0.31532344  0.49122268  0.91790319  1
  O  O109  1  0.82642152  0.51681188  0.91824792  1
  O  O110  1  0.43197390  0.36790483  0.91902035  1
  O  O111  1  0.93920520  0.37139758  0.91808557  1
  O  O112  1  0.25524236  0.16050379  0.92284800  1
  O  O113  1  0.75134193  0.14428803  0.90905525  1
  O  O114  1  0.32593794  0.13501854  0.41776339  1
  O  O115  1  0.82559068  0.13703453  0.41686424  1
  O  O116  1  0.25047680  0.36005298  0.41006234  1
  O  O117  1  0.74999544  0.35983769  0.41089930  1
  O  O118  1  0.43685034  0.50684794  0.41850971  1
  O  O119  1  0.93854550  0.50398379  0.41555346  1
  O  O120  1  0.15462153  0.46878520  0.08070842  1
  O  O121  1  0.66396550  0.48492736  0.08356889  1
  O  O122  1  0.06861717  0.66861692  0.08049972  1
  O  O123  1  0.57197293  0.66411467  0.07618781  1
  O  O124  1  0.26356003  0.87640950  0.07719071  1
  O  O125  1  0.77026458  0.86490475  0.08019749  1
  O  O126  1  0.15654259  0.83195508  0.58435278  1
  O  O127  1  0.65320818  0.83496161  0.58240618  1
  O  O128  1  0.26480848  0.66587872  0.58185336  1
  O  O129  1  0.75858418  0.67306605  0.58434610  1
  O  O130  1  0.06890678  0.47237237  0.58100497  1
  O  O131  1  0.56651415  0.46532147  0.57975432  1
  O  O132  1  0.14779694  0.80367653  0.25694241  1
  O  O133  1  0.64796023  0.80328706  0.25677671  1
  O  O134  1  0.25496661  0.67620879  0.24959347  1
  O  O135  1  0.75548178  0.67519905  0.24778023  1
  O  O136  1  0.08446967  0.46724028  0.25075584  1
  O  O137  1  0.58337255  0.47114904  0.25103973  1
  O  O138  1  0.15450823  0.49728886  0.75858245  1
  O  O139  1  0.65523369  0.49470978  0.75919278  1
  O  O140  1  0.08499205  0.70079910  0.75443033  1
  O  O141  1  0.58095824  0.69719810  0.75111642  1
  O  O142  1  0.25520380  0.82085685  0.74878387  1
  O  O143  1  0.75587048  0.82033440  0.75053760  1
loop_
_geom_bond_atom_site_label_1
_geom_bond_atom_site_label_2
_geom_bond_distance
_geom_bond_site_symmetry_2
Na0 O34 2.342638 1_555
Na0 O102 2.404645 1_555
Na0 O106 2.568999 1_555
Na0 O134 2.571668 1_555
Na0 O136 2.728852 1_555
Na0 O64 2.943602 1_555
Na1 O35 2.480177 1_555
Na1 O103 2.507767 1_555
Na1 O135 2.574439 1_555
Na1 O107 2.599050 1_555
Na1 O137 2.718339 1_555
Na1 O65 2.896951 1_555
Na2 O103 2.445046 1_555
Na2 O132 2.491139 1_655
Na2 O105 2.567001 1_555
Na2 O22 2.780026 1_655
Na2 O60 2.790343 1_655
Na2 O31 2.863297 1_555
Na3 O104 2.466633 1_555
Na3 O102 2.470040 1_555
Na3 O30 2.503293 1_555
Na3 O133 2.552381 1_555
Na3 O23 2.729582 1_555
Na3 O137 2.827181 1_555
Na4 O98 2.303869 1_555
Na4 O142 2.524727 1_555
Na4 O138 2.658760 1_555
Na4 O100 2.682045 1_555
Na4 O28 2.695361 1_555
Na4 O70 2.769959 1_555
Na5 O29 2.315205 1_555
Na5 O99 2.341405 1_555
Na5 O143 2.555179 1_555
Na5 O139 2.674730 1_555
Na5 O101 2.797355 1_555
Na5 O13 2.868010 1_555
Na6 O96 2.352885 1_555
Na6 O26 2.532115 1_555
Na6 O98 2.688550 1_555
Na6 O140 2.696462 1_545
Na6 O142 2.774253 1_545
Na6 O68 2.965290 1_545
Na6 O16 2.997279 1_545
Na6 O6 3.014151 1_555
Na7 O97 2.309036 1_555
Na7 O27 2.456262 1_555
Na7 O99 2.657428 1_555
Na7 O141 2.727500 1_545
Na7 O143 2.742365 1_545
Na7 O69 2.897213 1_545
Na8 O86 2.475057 1_555
Na8 O56 2.583839 1_555
Na8 O130 2.604935 1_555
Na8 O85 2.660556 1_455
Na8 O42 2.767067 1_555
Na8 O128 2.849735 1_555
Na8 O14 2.896212 1_555
Na9 O129 2.620264 1_555
Na9 O131 2.654428 1_555
Na9 O43 2.683669 1_555
Na9 O57 2.688085 1_555
Na9 O87 2.786267 1_555
Na9 O15 2.921877 1_555
Na10 O126 2.417154 1_555
Na10 O89 2.559116 1_455
Na10 O86 2.618025 1_565
Na10 O45 2.723473 1_455
Na10 O58 2.861713 1_555
Na10 O130 2.897040 1_555
Na10 O16 2.903216 1_555
Na11 O127 2.237895 1_555
Na11 O87 2.559166 1_565
Na11 O17 2.803850 1_555
Na11 O59 2.819378 1_555
Na11 O131 2.819461 1_555
Na12 O12 2.516512 1_555
Na12 O128 2.564608 1_555
Na12 O26 2.631663 1_565
Na12 O84 2.680652 1_565
Na12 O126 2.701072 1_555
Na12 O88 2.823939 1_555
Na12 O54 3.008933 1_555
Na13 O129 2.337311 1_555
Na13 O89 2.614267 1_555
Na13 O13 2.711323 1_555
Na13 O85 2.775373 1_565
Na13 O127 2.802596 1_555
Na13 O27 2.908881 1_565
Na13 O55 3.000409 1_555
Na14 O52 2.524839 1_554
Na14 O122 2.536982 1_555
Na14 O94 2.549901 1_565
Na14 O124 2.627751 1_555
Na14 O36 2.723697 1_565
Na14 O91 2.775107 1_455
Na14 O22 2.900378 1_555
Na14 O32 3.019354 1_565
Na15 O123 2.402460 1_555
Na15 O53 2.472246 1_554
Na15 O90 2.612355 1_555
Na15 O95 2.735129 1_565
Na15 O37 2.781073 1_565
Na15 O125 2.914388 1_555
Na15 O23 3.013980 1_555
Na16 O125 2.480327 1_555
Na16 O121 2.525946 1_555
Na16 O19 2.616328 1_555
Na16 O35 2.722402 1_555
Na16 O91 2.781710 1_555
Na16 O93 2.903327 1_565
Na16 O49 3.014385 1_554
Na17 O120 2.255594 1_555
Na17 O93 2.550895 1_455
Na17 O94 2.632194 1_555
Na17 O50 2.765446 1_554
Na17 O20 2.781480 1_555
Na17 O122 2.817942 1_555
Na17 O41 2.937482 1_455
Na18 O121 2.349001 1_555
Na18 O123 2.593260 1_555
Na18 O95 2.611713 1_555
Na18 O92 2.646877 1_555
Na18 O21 2.752937 1_555
Na18 O30 2.837886 1_555
Na18 O51 2.859570 1_554
Na19 O81 2.404010 1_555
Na19 O82 2.478318 1_555
Na19 O110 2.573718 1_555
Na19 O38 2.584431 1_556
Na20 O80 2.484977 1_655
Na20 O111 2.595392 1_555
Na20 O83 2.599547 1_555
Na20 O9 2.660395 1_555
Na20 O109 2.734430 1_555
Na20 O39 2.819420 1_556
Na21 O11 2.250042 1_545
Na21 O113 2.431008 1_555
Na21 O78 2.723313 1_655
Na21 O83 2.761158 1_545
Na21 O111 2.793833 1_555
Na21 O69 2.922560 1_545
Na21 O41 3.008123 1_556
Na22 O6 2.327317 1_555
Na22 O80 2.375384 1_545
Na22 O112 2.493129 1_555
Na22 O108 2.530121 1_555
Na22 O78 2.670875 1_555
Na23 O81 2.402125 1_545
Na23 O7 2.426999 1_555
Na23 O113 2.484404 1_555
Na23 O79 2.726733 1_555
Na23 O37 2.750455 1_556
Na23 O109 2.789633 1_555
Na24 O77 2.403449 1_555
Na24 O118 2.597500 1_555
Na24 O74 2.697839 1_545
Na24 O46 2.707901 1_555
Na24 O4 2.718234 1_555
Na24 O114 2.763557 1_555
Na24 O57 2.889058 1_555
Na25 O76 2.402348 1_655
Na25 O119 2.553572 1_555
Na25 O47 2.592158 1_555
Na25 O75 2.624385 1_545
Na25 O115 2.690514 1_555
Na25 O5 2.869942 1_555
Na26 O76 2.419258 1_555
Na26 O116 2.473363 1_555
Na26 O0 2.475309 1_555
Na26 O42 2.691800 1_555
Na26 O72 2.714858 1_545
Na26 O114 2.775380 1_555
Na27 O77 2.419189 1_555
Na27 O1 2.440219 1_555
Na27 O117 2.458857 1_555
Na27 O43 2.721449 1_555
Na27 O115 2.724033 1_555
Na27 O73 2.742517 1_545
Na28 O2 2.239828 1_555
Na28 O116 2.430084 1_555
Na28 O73 2.593805 1_555
Na28 O118 2.692562 1_555
Na28 O74 2.729661 1_555
Na29 O117 2.434073 1_555
Na29 O72 2.588197 1_655
Na29 O3 2.638576 1_555
Na29 O45 2.671491 1_555
Na29 O75 2.726290 1_555
Na29 O119 2.726618 1_555
Na30 O86 2.500687 1_555
Na30 O89 2.510710 1_445
Na30 O85 2.589314 1_455
Na30 O76 2.633792 1_555
Na30 O72 2.819154 1_545
Na30 O75 2.957370 1_445
Na31 O77 2.390477 1_555
Na31 O87 2.464671 1_555
Na31 O84 2.654372 1_555
Na31 O73 2.793159 1_545
Na31 O88 2.845865 1_545
Na31 O74 2.982298 1_545
Na32 O80 2.411936 1_545
Na32 O94 2.456803 1_556
Na32 O91 2.642702 1_446
Na32 O93 2.738450 1_456
Na32 O78 2.805160 1_555
Na32 O83 2.816429 1_445
Na33 O90 2.391753 1_555
Na33 O81 2.539511 1_554
Na33 O95 2.572315 1_565
Na33 O92 2.679103 1_565
Na33 O82 2.881003 1_554
Na33 O79 2.932961 1_564
Na34 O96 2.294794 1_555
Na34 O112 2.542491 1_555
Na34 O110 2.643941 1_555
Na34 O98 2.800824 1_555
Na34 O108 2.868172 1_555
Na34 O100 2.923880 1_555
Na35 O97 2.294455 1_555
Na35 O113 2.408266 1_555
Na35 O99 2.418249 1_555
Na35 O101 2.824786 1_555
Na35 O111 2.911626 1_555
Na35 O109 2.916718 1_555
Na36 O106 2.359379 1_555
Na36 O102 2.421838 1_555
Na36 O116 2.475951 1_555
Na36 O104 2.736620 1_555
Na36 O114 2.842541 1_555
Na36 O118 2.949233 1_555
Na37 O117 2.394234 1_555
Na37 O107 2.397163 1_555
Na37 O103 2.518346 1_555
Na37 O115 2.776097 1_555
Na37 O119 2.917431 1_555
Na37 O105 2.952943 1_555
Na38 O134 2.293449 1_555
Na38 O120 2.580782 1_555
Na38 O124 2.623904 1_555
Na38 O132 2.716233 1_555
Na38 O136 2.769669 1_555
Na38 O122 2.976597 1_555
Na39 O121 2.492899 1_555
Na39 O135 2.564994 1_555
Na39 O133 2.578674 1_555
Na39 O137 2.600228 1_555
Na39 O123 2.647746 1_555
Na39 O125 2.727253 1_555
Na40 O142 2.457610 1_555
Na40 O126 2.483502 1_555
Na40 O140 2.524226 1_555
Na40 O138 2.591454 1_555
Na40 O130 2.692221 1_555
Na40 O128 2.782967 1_555
Na41 O129 2.385804 1_555
Na41 O143 2.477016 1_555
Na41 O127 2.548856 1_555
Na41 O139 2.682854 1_555
Na41 O141 2.748199 1_555
Na41 O131 2.768362 1_555
Ca0 O0 2.134289 1_555
Ca0 O3 2.159323 1_445
Ca0 O76 2.270081 1_555
Ca0 O5 2.301544 1_455
Ca0 O75 2.366899 1_445
Ca0 O72 2.408167 1_545
Ca1 O1 2.135021 1_555
Ca1 O2 2.170109 1_545
Ca1 O77 2.269862 1_555
Ca1 O4 2.281885 1_555
Ca1 O74 2.410137 1_545
Ca1 O73 2.436219 1_545
Ca2 O6 2.142329 1_555
Ca2 O11 2.167094 1_445
Ca2 O9 2.295445 1_445
Ca2 O80 2.352198 1_545
Ca2 O78 2.392970 1_555
Ca2 O83 2.427716 1_445
Ca3 O10 2.106882 1_545
Ca3 O7 2.150225 1_555
Ca3 O81 2.294830 1_545
Ca3 O79 2.329036 1_555
Ca3 O8 2.329107 1_545
Ca3 O82 2.405736 1_545
Ca4 O26 2.159367 1_555
Ca4 O98 2.220279 1_555
Ca4 O96 2.226210 1_555
Ca4 O24 2.278737 1_555
Ca4 O100 2.379798 1_555
Ca4 O28 2.383213 1_555
Ca5 O27 2.190812 1_555
Ca5 O29 2.210726 1_555
Ca5 O99 2.270520 1_555
Ca5 O97 2.282549 1_555
Ca5 O25 2.303705 1_555
Ca5 O101 2.433436 1_555
Ca6 O30 2.177484 1_555
Ca6 O34 2.197709 1_555
Ca6 O106 2.246688 1_555
Ca6 O102 2.247701 1_555
Ca6 O32 2.261744 1_555
Ca6 O104 2.433759 1_555
Ca7 O35 2.155788 1_555
Ca7 O107 2.176010 1_555
Ca7 O103 2.247869 1_555
Ca7 O33 2.289045 1_555
Ca7 O31 2.375523 1_555
Ca7 O105 2.392714 1_555
Ca8 O37 2.189528 1_556
Ca8 O113 2.263384 1_555
Ca8 O41 2.375938 1_556
Ca8 O109 2.403066 1_555
Ca8 O39 2.493552 1_556
Ca8 O111 2.550364 1_555
Ca9 O42 2.191848 1_555
Ca9 O116 2.282721 1_555
Ca9 O44 2.339196 1_555
Ca9 O114 2.376302 1_555
Ca9 O46 2.475849 1_555
Ca9 O118 2.483576 1_555
Ca10 O45 2.227455 1_555
Ca10 O43 2.256575 1_555
Ca10 O117 2.317231 1_555
Ca10 O47 2.509500 1_555
Ca10 O115 2.532116 1_555
Ca10 O119 2.567874 1_555
Ca11 O52 2.176452 1_554
Ca11 O48 2.219041 1_554
Ca11 O120 2.250847 1_555
Ca11 O50 2.284395 1_554
Ca11 O124 2.289391 1_555
Ca11 O122 2.412140 1_555
Ca12 O53 2.154948 1_554
Ca12 O123 2.194370 1_555
Ca12 O51 2.257945 1_554
Ca12 O121 2.261954 1_555
Ca12 O49 2.302835 1_554
Ca12 O125 2.418722 1_555
Ca13 O56 2.144174 1_555
Ca13 O126 2.243800 1_555
Ca13 O58 2.252251 1_555
Ca13 O54 2.259280 1_555
Ca13 O130 2.349231 1_555
Ca13 O128 2.387649 1_555
Ca14 O57 2.151536 1_555
Ca14 O129 2.236568 1_555
Ca14 O55 2.257338 1_555
Ca14 O127 2.265984 1_555
Ca14 O59 2.319282 1_555
Ca14 O131 2.382303 1_555
O0 Si0 1.597812 1_545
O1 Si1 1.599282 1_545
O2 Si2 1.596470 1_555
O3 Si3 1.592073 1_555
O4 S1 1.467832 1_555
O5 S0 1.442069 1_655
O6 Si4 1.604194 1_555
O7 Si5 1.595374 1_555
O8 S3 1.472178 1_555
O9 S2 1.472100 1_655
O10 Si6 1.574878 1_555
O11 Si7 1.600237 1_555
O12 Si6 1.733445 1_555
O12 Sn1 2.014166 1_565
O13 Si7 1.691929 1_555
O13 Sn0 2.020539 1_665
O14 Si4 1.687538 1_555
O14 Sn0 2.046529 1_555
O15 Si5 1.696731 1_555
O15 Sn1 1.988101 1_555
O16 S2 1.510134 1_555
O16 Sn0 2.299041 1_565
O17 S3 1.526710 1_555
O17 Sn1 2.252316 1_565
O18 Si2 1.682780 1_555
O18 Sn3 1.973186 1_555
O19 Si3 1.724089 1_555
O19 Sn2 2.000744 1_655
O20 S0 1.533815 1_555
O20 Sn2 2.220795 1_545
O21 S1 1.498935 1_555
O21 Sn3 2.483456 1_545
O22 Si0 1.727339 1_555
O22 Sn2 2.009936 1_555
O23 Si1 1.701164 1_555
O23 Sn3 2.025916 1_555
O24 S4 1.463069 1_555
O25 S5 1.453354 1_555
O26 Si8 1.616007 1_555
O27 Si9 1.608505 1_555
O28 S6 1.474719 1_555
O29 Si10 1.611926 1_555
O30 Si11 1.591880 1_555
O31 S7 1.471938 1_555
O32 S8 1.462155 1_555
O33 S9 1.460405 1_555
O34 Si12 1.582131 1_555
O35 Si13 1.613368 1_555
O36 Si12 1.710996 1_555
O36 Sn4 2.043551 1_554
O37 Si13 1.643246 1_555
O38 Si11 1.737851 1_555
O38 Sn4 2.029096 1_554
O39 S7 1.482281 1_555
O40 S8 1.534075 1_555
O40 Sn4 2.158336 1_554
O41 S9 1.489393 1_555
O42 Si8 1.643798 1_555
O43 Si9 1.642455 1_555
O44 S6 1.486953 1_555
O45 Si10 1.645082 1_555
O46 S4 1.485404 1_555
O47 S5 1.486960 1_555
O48 S10 1.450052 1_555
O49 S11 1.475926 1_555
O50 S12 1.477836 1_555
O51 S13 1.471739 1_555
O52 Si14 1.599334 1_555
O53 Si15 1.604867 1_555
O54 S14 1.472486 1_555
O55 S15 1.474328 1_555
O56 Si16 1.613290 1_555
O57 Si17 1.608383 1_555
O58 S16 1.477083 1_555
O59 S17 1.476403 1_555
O60 S16 1.513355 1_555
O60 Sn5 2.324032 1_555
O61 S17 1.505086 1_555
O61 Sn6 2.373991 1_555
O62 S14 1.515944 1_555
O62 Sn5 2.151341 1_555
O63 S15 1.515248 1_555
O63 Sn6 2.183985 1_555
O64 Si16 1.720139 1_555
O64 Sn5 1.980834 1_555
O65 Si17 1.723666 1_555
O65 Sn6 1.978794 1_555
O66 S12 1.507637 1_555
O66 Sn7 2.259860 1_555
O67 S13 1.507414 1_555
O67 Sn8 2.314580 1_555
O68 Si14 1.715599 1_555
O68 Sn7 2.026904 1_555
O69 Si15 1.722025 1_555
O69 Sn8 1.970698 1_555
O70 S10 1.516335 1_555
O70 Sn7 2.258747 1_555
O71 S11 1.511387 1_555
O71 Sn8 2.266310 1_555
O72 S16 1.482428 1_555
O73 S17 1.487578 1_555
O74 S14 1.474622 1_555
O75 S15 1.476659 1_555
O76 Si16 1.640903 1_555
O77 Si17 1.643940 1_555
O78 S12 1.485821 1_555
O79 S13 1.471851 1_555
O80 Si14 1.642811 1_555
O81 Si15 1.639890 1_555
O82 S10 1.468510 1_555
O83 S11 1.485387 1_555
O84 S4 1.527196 1_555
O84 Sn1 2.248282 1_555
O85 S5 1.519891 1_555
O85 Sn0 2.252275 1_655
O86 Si8 1.693133 1_555
O86 Sn0 2.057043 1_555
O87 Si9 1.744318 1_555
O87 Sn1 2.013022 1_555
O88 S6 1.499761 1_555
O88 Sn1 2.488402 1_565
O89 Si10 1.699155 1_555
O89 Sn0 2.062342 1_665
O90 Si11 1.685389 1_555
O90 Sn3 2.050828 1_555
O91 S7 1.528439 1_555
O91 Sn2 2.272420 1_655
O92 S8 1.479376 1_555
O92 Sn3 2.544850 1_545
O93 S9 1.520380 1_555
O93 Sn2 2.377794 1_645
O94 Si12 1.743636 1_555
O94 Sn2 2.054506 1_545
O95 Si13 1.716896 1_555
O95 Sn3 2.026445 1_545
O96 Si6 1.606665 1_545
O97 Si7 1.604775 1_545
O98 Si4 1.628625 1_555
O99 Si5 1.619032 1_555
O100 S3 1.455268 1_555
O101 S2 1.455399 1_655
O102 Si2 1.622665 1_555
O103 Si3 1.628183 1_555
O104 S1 1.463841 1_555
O105 S0 1.473409 1_655
O106 Si0 1.595894 1_545
O107 Si1 1.606989 1_545
O108 S10 1.526282 1_555
O108 Sn4 2.314764 1_555
O109 S11 1.485811 1_555
O110 S13 1.513005 1_555
O110 Sn4 2.447296 1_555
O111 S12 1.486400 1_655
O112 Si14 1.716487 1_545
O112 Sn4 2.072009 1_555
O113 Si15 1.649616 1_545
O114 S14 1.482918 1_545
O115 S15 1.484274 1_545
O116 Si16 1.650682 1_555
O117 Si17 1.646295 1_555
O118 S17 1.494516 1_555
O119 S16 1.485705 1_655
O120 Si12 1.617928 1_555
O121 Si13 1.638195 1_555
O122 S7 1.479151 1_455
O123 Si11 1.624605 1_555
O124 S8 1.477682 1_565
O125 S9 1.485453 1_565
O126 Si8 1.644946 1_565
O127 Si9 1.633042 1_565
O128 S6 1.493801 1_555
O129 Si10 1.643739 1_555
O130 S5 1.487494 1_455
O131 S4 1.475685 1_555
O132 Si0 1.705872 1_555
O132 Sn5 2.009552 1_555
O133 Si1 1.702475 1_555
O133 Sn6 2.001379 1_555
O134 Si2 1.691616 1_555
O134 Sn5 2.016766 1_555
O135 Si3 1.679806 1_555
O135 Sn6 2.038798 1_555
O136 S0 1.509082 1_555
O136 Sn5 2.339699 1_555
O137 S1 1.531693 1_555
O137 Sn6 2.277250 1_555
O138 Si4 1.697885 1_555
O138 Sn7 2.027068 1_555
O139 Si5 1.688962 1_555
O139 Sn8 1.979765 1_555
O140 S2 1.518630 1_555
O140 Sn7 2.231228 1_555
O141 S3 1.504331 1_555
O141 Sn8 2.285999 1_555
O142 Si6 1.711616 1_555
O142 Sn7 2.046147 1_555
O143 Si7 1.715841 1_555
O143 Sn8 2.043727 1_555
