# generated using pymatgen
data_BiSBr
_symmetry_space_group_name_H-M   'P 1'
_cell_length_a   4.08533051
_cell_length_b   8.38961381
_cell_length_c   10.01116512
_cell_angle_alpha   90.00000000
_cell_angle_beta   90.00000000
_cell_angle_gamma   90.00000000
_symmetry_Int_Tables_number   1
_chemical_formula_structural   BiSBr
_chemical_formula_sum   'Bi4 S4 Br4'
_cell_volume   343.12612983
_cell_formula_units_Z   4
loop_
 _symmetry_equiv_pos_site_id
 _symmetry_equiv_pos_as_xyz
  1  'x, y, z'
loop_
 _atom_site_type_symbol
 _atom_site_label
 _atom_site_symmetry_multiplicity
 _atom_site_fract_x
 _atom_site_fract_y
 _atom_site_fract_z
 _atom_site_occupancy
  Bi  Bi0  1  0.25000000  0.37201449  0.36741117  1
  Bi  Bi1  1  0.75000000  0.62798551  0.63258883  1
  Bi  Bi2  1  0.25000000  0.87201449  0.13258883  1
  Bi  Bi3  1  0.75000000  0.12798551  0.86741117  1
  S  S0  1  0.75000000  0.33473232  0.54762202  1
  S  S1  1  0.25000000  0.16526768  0.04762202  1
  S  S2  1  0.75000000  0.83473232  0.95237798  1
  S  S3  1  0.25000000  0.66526768  0.45237798  1
  Br  Br0  1  0.25000000  0.48737018  0.82110625  1
  Br  Br1  1  0.75000000  0.01262982  0.32110625  1
  Br  Br2  1  0.25000000  0.98737018  0.67889375  1
  Br  Br3  1  0.75000000  0.51262982  0.17889375  1
loop_
_geom_bond_atom_site_label_1
_geom_bond_atom_site_label_2
_geom_bond_distance
_geom_bond_site_symmetry_2
Bi0 S3 2.603177 1_555
Bi0 S0 2.743204 1_455
Bi0 S0 2.743204 1_555
Bi0 Br3 3.020930 1_455
Bi0 Br3 3.020930 1_555
Bi1 S0 2.603177 1_555
Bi1 S3 2.743204 1_555
Bi1 S3 2.743204 1_655
Bi1 Br0 3.020930 1_555
Bi1 Br0 3.020930 1_655
Bi2 S1 2.603177 1_565
Bi2 S2 2.743204 1_554
Bi2 S2 2.743204 1_454
Bi2 Br1 3.020930 1_565
Bi2 Br1 3.020930 1_465
Bi3 S2 2.603177 1_545
Bi3 S1 2.743204 1_656
Bi3 S1 2.743204 1_556
Bi3 Br2 3.020930 1_645
Bi3 Br2 3.020930 1_545
