# generated using pymatgen
data_Pt
_symmetry_space_group_name_H-M   'P 1'
_cell_length_a   5.48789906
_cell_length_b   5.48789906
_cell_length_c   5.48789906
_cell_angle_alpha   109.47122063
_cell_angle_beta   109.47122063
_cell_angle_gamma   109.47122063
_symmetry_Int_Tables_number   1
_chemical_formula_structural   Pt
_chemical_formula_sum   Pt8
_cell_volume   127.23202915
_cell_formula_units_Z   8
loop_
 _symmetry_equiv_pos_site_id
 _symmetry_equiv_pos_as_xyz
  1  'x, y, z'
loop_
 _atom_site_type_symbol
 _atom_site_label
 _atom_site_symmetry_multiplicity
 _atom_site_fract_x
 _atom_site_fract_y
 _atom_site_fract_z
 _atom_site_occupancy
  Pt  Pt0_0  1  0.00000000  0.00000000  0.00000000  1
  Pt  Pt0_1  1  0.00000000  0.00000000  0.50000000  1
  Pt  Pt0_2  1  0.00000000  0.50000000  0.00000000  1
  Pt  Pt0_3  1  0.00000000  0.50000000  0.50000000  1
  Pt  Pt0_4  1  0.50000000  0.00000000  0.00000000  1
  Pt  Pt0_5  1  0.50000000  0.00000000  0.50000000  1
  Pt  Pt0_6  1  0.50000000  0.50000000  0.00000000  1
  Pt  Pt0_7  1  0.50000000  0.50000000  0.50000000  1
loop_
_geom_bond_atom_site_label_1
_geom_bond_atom_site_label_2
_geom_bond_distance
_geom_bond_site_symmetry_2
Pt0_0 Pt0_1 2.743950 1_555
Pt0_0 Pt0_2 2.743950 1_555
Pt0_0 Pt0_7 2.743950 1_444
Pt0_0 Pt0_1 2.743950 1_554
Pt0_0 Pt0_4 2.743950 1_455
Pt0_0 Pt0_4 2.743950 1_555
Pt0_0 Pt0_2 2.743950 1_545
Pt0_0 Pt0_7 2.743950 1_555
Pt0_1 Pt0_6 2.743950 1_556
Pt0_1 Pt0_5 2.743950 1_555
Pt0_1 Pt0_5 2.743950 1_455
Pt0_1 Pt0_3 2.743950 1_545
Pt0_1 Pt0_3 2.743950 1_555
Pt0_1 Pt0_6 2.743950 1_445
Pt0_2 Pt0_6 2.743950 1_455
Pt0_2 Pt0_5 2.743950 1_454
Pt0_2 Pt0_5 2.743950 1_565
Pt0_2 Pt0_3 2.743950 1_554
Pt0_2 Pt0_6 2.743950 1_555
Pt0_2 Pt0_3 2.743950 1_555
Pt0_3 Pt0_7 2.743950 1_455
Pt0_3 Pt0_4 2.743950 1_566
Pt0_3 Pt0_4 2.743950 1_455
Pt0_3 Pt0_7 2.743950 1_555
Pt0_4 Pt0_5 2.743950 1_554
Pt0_4 Pt0_6 2.743950 1_545
Pt0_4 Pt0_5 2.743950 1_555
Pt0_4 Pt0_6 2.743950 1_555
Pt0_5 Pt0_7 2.743950 1_555
Pt0_5 Pt0_7 2.743950 1_545
Pt0_6 Pt0_7 2.743950 1_555
Pt0_6 Pt0_7 2.743950 1_554
