# generated using pymatgen
data_ZrSbPd
_symmetry_space_group_name_H-M   'P 1'
_cell_length_a   4.33303262
_cell_length_b   6.84561222
_cell_length_c   7.98528182
_cell_angle_alpha   90.00000000
_cell_angle_beta   90.00000000
_cell_angle_gamma   90.00000000
_symmetry_Int_Tables_number   1
_chemical_formula_structural   ZrSbPd
_chemical_formula_sum   'Zr4 Sb4 Pd4'
_cell_volume   236.86151393
_cell_formula_units_Z   4
loop_
 _symmetry_equiv_pos_site_id
 _symmetry_equiv_pos_as_xyz
  1  'x, y, z'
loop_
 _atom_site_type_symbol
 _atom_site_label
 _atom_site_symmetry_multiplicity
 _atom_site_fract_x
 _atom_site_fract_y
 _atom_site_fract_z
 _atom_site_occupancy
  Zr  Zr0  1  0.75000000  0.48430628  0.30459251  1
  Zr  Zr1  1  0.25000000  0.51569372  0.69540749  1
  Zr  Zr2  1  0.75000000  0.98430628  0.19540749  1
  Zr  Zr3  1  0.25000000  0.01569372  0.80459251  1
  Sb  Sb0  1  0.75000000  0.73058476  0.89595825  1
  Sb  Sb1  1  0.25000000  0.26941524  0.10404175  1
  Sb  Sb2  1  0.75000000  0.23058476  0.60404175  1
  Sb  Sb3  1  0.25000000  0.76941524  0.39595825  1
  Pd  Pd0  1  0.75000000  0.33309188  0.92365786  1
  Pd  Pd1  1  0.25000000  0.66690812  0.07634214  1
  Pd  Pd2  1  0.75000000  0.83309188  0.57634214  1
  Pd  Pd3  1  0.25000000  0.16690812  0.42365786  1
loop_
_geom_bond_atom_site_label_1
_geom_bond_atom_site_label_2
_geom_bond_distance
_geom_bond_site_symmetry_2
Sb0 Zr2 2.955423 1_556
Sb0 Zr3 3.005893 1_665
Sb0 Zr3 3.005893 1_565
Sb0 Zr1 3.069604 1_655
Sb0 Zr1 3.069604 1_555
Sb1 Zr3 2.955423 1_554
Sb1 Zr2 3.005893 1_445
Sb1 Zr2 3.005893 1_545
Sb1 Zr0 3.069604 1_455
Sb1 Zr0 3.069604 1_555
Sb2 Zr0 2.955423 1_555
Sb2 Zr1 3.005893 1_655
Sb2 Zr1 3.005893 1_555
Sb2 Zr3 3.069604 1_655
Sb2 Zr3 3.069604 1_555
Sb3 Zr1 2.955423 1_555
Sb3 Zr0 3.005893 1_555
Sb3 Zr0 3.005893 1_455
Sb3 Zr2 3.069604 1_555
Sb3 Zr2 3.069604 1_455
Pd0 Sb1 2.637917 1_556
Pd0 Sb1 2.637917 1_656
Pd0 Sb2 2.646936 1_555
Pd0 Sb0 2.730057 1_555
Pd0 Zr1 3.094895 1_655
Pd0 Zr1 3.094895 1_555
Pd0 Zr3 3.212281 1_555
Pd0 Zr3 3.212281 1_655
Pd0 Zr0 3.213180 1_556
Pd0 Zr2 3.226417 1_546
Pd1 Sb0 2.637917 1_554
Pd1 Sb0 2.637917 1_454
Pd1 Sb3 2.646936 1_555
Pd1 Sb1 2.730057 1_555
Pd1 Zr0 3.094895 1_455
Pd1 Zr0 3.094895 1_555
Pd1 Zr2 3.212281 1_455
Pd1 Zr2 3.212281 1_555
Pd1 Zr1 3.213180 1_554
Pd1 Zr3 3.226417 1_564
Pd2 Sb3 2.637917 1_555
Pd2 Sb3 2.637917 1_655
Pd2 Sb0 2.646936 1_555
Pd2 Sb2 2.730057 1_565
Pd2 Zr3 3.094895 1_665
Pd2 Zr3 3.094895 1_565
Pd2 Zr1 3.212281 1_655
Pd2 Zr1 3.212281 1_555
Pd2 Zr2 3.213180 1_555
Pd2 Zr0 3.226417 1_555
Pd3 Sb2 2.637917 1_455
Pd3 Sb2 2.637917 1_555
Pd3 Sb1 2.646936 1_555
Pd3 Sb3 2.730057 1_545
Pd3 Zr2 3.094895 1_445
Pd3 Zr2 3.094895 1_545
Pd3 Zr0 3.212281 1_455
Pd3 Zr0 3.212281 1_555
Pd3 Zr3 3.213180 1_555
Pd3 Zr1 3.226417 1_555
