# generated using pymatgen
data_FeSn2(CN)6
_symmetry_space_group_name_H-M   'P 1'
_cell_length_a   7.24406944
_cell_length_b   7.24406944
_cell_length_c   5.56480700
_cell_angle_alpha   90.00000000
_cell_angle_beta   90.00000000
_cell_angle_gamma   119.99999488
_symmetry_Int_Tables_number   1
_chemical_formula_structural   FeSn2(CN)6
_chemical_formula_sum   'Fe1 Sn2 C6 N6'
_cell_volume   252.89833501
_cell_formula_units_Z   1
loop_
 _symmetry_equiv_pos_site_id
 _symmetry_equiv_pos_as_xyz
  1  'x, y, z'
loop_
 _atom_site_type_symbol
 _atom_site_label
 _atom_site_symmetry_multiplicity
 _atom_site_fract_x
 _atom_site_fract_y
 _atom_site_fract_z
 _atom_site_occupancy
  Fe  Fe0  1  0.00000000  0.00000000  0.00000000  1
  Sn  Sn0  1  0.66666700  0.33333300  0.44372300  1
  Sn  Sn1  1  0.33333300  0.66666700  0.55627700  1
  C  C0  1  0.24212000  0.16198500  0.80914000  1
  C  C1  1  0.83801500  0.08013500  0.80914000  1
  C  C2  1  0.91986500  0.75788000  0.80914000  1
  C  C3  1  0.08013500  0.24212000  0.19086000  1
  C  C4  1  0.75788000  0.83801500  0.19086000  1
  C  C5  1  0.16198500  0.91986500  0.19086000  1
  N  N0  1  0.73008100  0.12731500  0.69543700  1
  N  N1  1  0.39723400  0.26991900  0.69543700  1
  N  N2  1  0.87268500  0.60276600  0.69543700  1
  N  N3  1  0.26991900  0.87268500  0.30456300  1
  N  N4  1  0.12731500  0.39723400  0.30456300  1
  N  N5  1  0.60276600  0.73008100  0.30456300  1
loop_
_geom_bond_atom_site_label_1
_geom_bond_atom_site_label_2
_geom_bond_distance
_geom_bond_site_symmetry_2
C0 N1 1.181410 1_555
C0 Fe0 1.877008 1_556
C1 N0 1.181410 1_555
C1 Fe0 1.877008 1_656
C2 N2 1.181410 1_555
C2 Fe0 1.877008 1_666
C3 N4 1.181410 1_555
C3 Fe0 1.877008 1_555
C4 N5 1.181410 1_555
C4 Fe0 1.877008 1_665
C5 N3 1.181410 1_555
C5 Fe0 1.877008 1_565
N0 Sn0 2.255207 1_555
N1 Sn0 2.255212 1_555
N2 Sn0 2.255211 1_555
N3 Sn1 2.255207 1_555
N4 Sn1 2.255211 1_555
N5 Sn1 2.255212 1_555
