# generated using pymatgen
data_K4Br2O
_symmetry_space_group_name_H-M   'P 1'
_cell_length_a   5.14252132
_cell_length_b   5.14252131
_cell_length_c   9.01560084
_cell_angle_alpha   106.57088731
_cell_angle_beta   106.57088471
_cell_angle_gamma   90.00000050
_symmetry_Int_Tables_number   1
_chemical_formula_structural   K4Br2O
_chemical_formula_sum   'K4 Br2 O1'
_cell_volume   218.16882853
_cell_formula_units_Z   1
loop_
 _symmetry_equiv_pos_site_id
 _symmetry_equiv_pos_as_xyz
  1  'x, y, z'
loop_
 _atom_site_type_symbol
 _atom_site_label
 _atom_site_symmetry_multiplicity
 _atom_site_fract_x
 _atom_site_fract_y
 _atom_site_fract_z
 _atom_site_occupancy
  K  K0  1  0.15485166  0.15485166  0.30970332  1
  K  K1  1  -0.00000000  0.50000000  0.00000000  1
  K  K2  1  0.84514834  0.84514834  0.69029668  1
  K  K3  1  0.50000000  -0.00000000  0.00000000  1
  Br  Br0  1  0.35584683  0.35584683  0.71169366  1
  Br  Br1  1  0.64415317  0.64415317  0.28830634  1
  O  O0  1  -0.00000000  -0.00000000  0.00000000  1
loop_
_geom_bond_atom_site_label_1
_geom_bond_atom_site_label_2
_geom_bond_distance
_geom_bond_site_symmetry_2
K0 O0 2.554973 1_555
K1 O0 2.571261 1_555
K1 O0 2.571261 1_565
K2 O0 2.554973 1_666
K3 O0 2.571261 1_655
K3 O0 2.571261 1_555
Br0 K0 3.316318 1_555
Br0 K3 3.502631 1_566
Br0 K1 3.502631 1_656
Br0 K1 3.502631 1_556
Br0 K3 3.502631 1_556
Br0 K2 3.640594 1_445
Br0 K2 3.640594 1_545
Br0 K2 3.640594 1_555
Br0 K2 3.640594 1_455
Br1 K2 3.316318 1_555
Br1 K3 3.502631 1_555
Br1 K1 3.502631 1_555
Br1 K1 3.502631 1_655
Br1 K3 3.502631 1_565
Br1 K0 3.640594 1_665
Br1 K0 3.640594 1_565
Br1 K0 3.640594 1_555
Br1 K0 3.640594 1_655
