# generated using pymatgen
data_Na3Si2SnGePO12
_symmetry_space_group_name_H-M   'P 1'
_cell_length_a   15.31516819
_cell_length_b   8.87089689
_cell_length_c   8.98374743
_cell_angle_alpha   89.78360620
_cell_angle_beta   125.41072025
_cell_angle_gamma   90.29719920
_symmetry_Int_Tables_number   1
_chemical_formula_structural   Na3Si2SnGePO12
_chemical_formula_sum   'Na12 Si8 Sn4 Ge4 P4 O48'
_cell_volume   994.73807702
_cell_formula_units_Z   4
loop_
 _symmetry_equiv_pos_site_id
 _symmetry_equiv_pos_as_xyz
  1  'x, y, z'
loop_
 _atom_site_type_symbol
 _atom_site_label
 _atom_site_symmetry_multiplicity
 _atom_site_fract_x
 _atom_site_fract_y
 _atom_site_fract_z
 _atom_site_occupancy
  Na  Na0  1  0.24896859  0.77034845  0.00116098  1
  Na  Na1  1  0.74244167  0.72957657  0.49142767  1
  Na  Na2  1  0.74087737  0.27227338  0.99128456  1
  Na  Na3  1  0.24920959  0.23333339  0.50123416  1
  Na  Na4  1  0.50196941  0.11786755  0.75041478  1
  Na  Na5  1  0.49972736  0.87734026  0.24986678  1
  Na  Na6  1  0.00022898  0.60856359  0.74668998  1
  Na  Na7  1  0.00191924  0.39990738  0.25316045  1
  Na  Na8  1  0.80709610  0.93313257  0.21435116  1
  Na  Na9  1  0.80870995  0.06500137  0.71832071  1
  Na  Na10  1  0.31775694  0.43610734  0.23714721  1
  Na  Na11  1  0.31166581  0.56959969  0.71652784  1
  Si  Si0  1  0.35478840  0.88904427  0.74854623  1
  Si  Si1  1  0.64132798  0.89487863  0.74374017  1
  Si  Si2  1  0.64387859  0.10113070  0.24464802  1
  Si  Si3  1  0.35930681  0.10174625  0.26144638  1
  Si  Si4  1  0.84835050  0.39135480  0.75098911  1
  Si  Si5  1  0.14748469  0.40039196  0.74272097  1
  Si  Si6  1  0.15124449  0.61305989  0.25341572  1
  Si  Si7  1  0.85188519  0.61012125  0.25307005  1
  Sn  Sn0  1  0.89624508  0.74588633  0.93422307  1
  Sn  Sn1  1  0.89494339  0.25365288  0.43376474  1
  Sn  Sn2  1  0.10502295  0.25019707  0.06377962  1
  Sn  Sn3  1  0.39585347  0.24479740  0.93682371  1
  Ge  Ge0  1  0.10503208  0.74680416  0.56147632  1
  Ge  Ge1  1  0.60450626  0.24524423  0.55759113  1
  Ge  Ge2  1  0.39671734  0.75868056  0.44178661  1
  Ge  Ge3  1  0.60350268  0.75377007  0.05801822  1
  P  P0  1  0.00541478  0.95548141  0.74521348  1
  P  P1  1  0.00614987  0.03509109  0.25530888  1
  P  P2  1  0.50683098  0.47087422  0.74819215  1
  P  P3  1  0.50491062  0.53742358  0.25445454  1
  O  O0  1  0.14882543  0.58683423  0.73264874  1
  O  O1  1  0.84595190  0.57506149  0.75051626  1
  O  O2  1  0.84642836  0.42575154  0.25201431  1
  O  O3  1  0.15520200  0.42632134  0.25123629  1
  O  O4  1  0.64419914  0.08228443  0.73229150  1
  O  O5  1  0.35167239  0.07337010  0.75077082  1
  O  O6  1  0.35634111  0.91702282  0.27317940  1
  O  O7  1  0.64398720  0.91409087  0.23379367  1
  O  O8  1  0.43326370  0.56477773  0.57123251  1
  O  O9  1  0.57241015  0.56937514  0.92216570  1
  O  O10  1  0.57068975  0.43183018  0.42079995  1
  O  O11  1  0.42666133  0.44803197  0.07527190  1
  O  O12  1  0.93391855  0.04886481  0.57007878  1
  O  O13  1  0.06996493  0.05159888  0.91892841  1
  O  O14  1  0.06539650  0.93112679  0.42287692  1
  O  O15  1  0.93570448  0.94999822  0.07142077  1
  O  O16  1  0.25053303  0.81175687  0.72745949  1
  O  O17  1  0.74695623  0.83838632  0.75526508  1
  O  O18  1  0.74972285  0.15777635  0.25753593  1
  O  O19  1  0.26069605  0.18565491  0.24846052  1
  O  O20  1  0.74555643  0.30755823  0.72746617  1
  O  O21  1  0.25123197  0.33931286  0.75288882  1
  O  O22  1  0.26022745  0.67258817  0.27533068  1
  O  O23  1  0.74898436  0.69202262  0.23140782  1
  O  O24  1  0.36228572  0.85082600  0.57950505  1
  O  O25  1  0.64079136  0.86844097  0.92540825  1
  O  O26  1  0.64007350  0.13260272  0.42136383  1
  O  O27  1  0.35895786  0.12631782  0.08189088  1
  O  O28  1  0.85756904  0.35225139  0.58543696  1
  O  O29  1  0.14784890  0.37313139  0.92334641  1
  O  O30  1  0.13952199  0.64253724  0.42181371  1
  O  O31  1  0.85654324  0.64334191  0.08081505  1
  O  O32  1  0.45901382  0.81123436  0.93782417  1
  O  O33  1  0.53772972  0.81969140  0.55939600  1
  O  O34  1  0.54598154  0.17517966  0.05468669  1
  O  O35  1  0.46351469  0.18623294  0.44212131  1
  O  O36  1  0.95060717  0.31869462  0.94395219  1
  O  O37  1  0.04505855  0.32971142  0.55506729  1
  O  O38  1  0.04975004  0.67586213  0.05697693  1
  O  O39  1  0.95934873  0.68258235  0.44130261  1
  O  O40  1  0.08487275  0.85403230  0.73953158  1
  O  O41  1  0.92181140  0.85456849  0.74739918  1
  O  O42  1  0.92291699  0.13623357  0.25537900  1
  O  O43  1  0.08844452  0.13783981  0.25850155  1
  O  O44  1  0.58359680  0.36676260  0.73832539  1
  O  O45  1  0.42547682  0.36849583  0.75546918  1
  O  O46  1  0.42735599  0.64069948  0.26808731  1
  O  O47  1  0.58243642  0.63865046  0.24056363  1
loop_
_geom_bond_atom_site_label_1
_geom_bond_atom_site_label_2
_geom_bond_distance
_geom_bond_site_symmetry_2
Na0 O40 2.356327 1_554
Na0 O6 2.390360 1_555
Na0 O16 2.498576 1_554
Na0 O22 2.518285 1_555
Na0 O0 2.556890 1_554
Na0 O46 2.637553 1_555
Na1 O47 2.308221 1_555
Na1 O1 2.352003 1_555
Na1 O23 2.419747 1_555
Na1 O7 2.502468 1_555
Na1 O17 2.526108 1_555
Na1 O41 2.594393 1_555
Na2 O44 2.309128 1_555
Na2 O2 2.359364 1_556
Na2 O20 2.431330 1_555
Na2 O18 2.525648 1_556
Na2 O4 2.541224 1_555
Na2 O42 2.684393 1_556
Na3 O43 2.303315 1_555
Na3 O5 2.328946 1_555
Na3 O19 2.416110 1_555
Na3 O21 2.435290 1_555
Na3 O3 2.509412 1_555
Na3 O45 2.604546 1_555
Na4 O4 2.299899 1_555
Na4 O5 2.335233 1_555
Na4 O34 2.461008 1_556
Na4 O45 2.531195 1_555
Na4 O35 2.546809 1_555
Na4 O44 2.564461 1_555
Na4 O25 2.834889 1_545
Na4 O24 2.951962 1_545
Na5 O7 2.317391 1_555
Na5 O6 2.351954 1_555
Na5 O46 2.417752 1_555
Na5 O47 2.499344 1_555
Na5 O33 2.539596 1_555
Na5 O32 2.564022 1_554
Na5 O27 2.838542 1_565
Na5 O26 2.873925 1_565
Na6 O0 2.360012 1_555
Na6 O1 2.399790 1_455
Na6 O41 2.498182 1_455
Na6 O38 2.501971 1_556
Na6 O39 2.519947 1_455
Na6 O40 2.548041 1_555
Na6 O29 2.803166 1_555
Na6 O28 2.889190 1_455
Na7 O3 2.368014 1_555
Na7 O2 2.387638 1_455
Na7 O37 2.468900 1_555
Na7 O36 2.516443 1_454
Na7 O42 2.633173 1_455
Na7 O43 2.668395 1_555
Na7 O30 2.765267 1_555
Na7 O31 2.836805 1_455
Na8 O18 2.304966 1_565
Na8 O23 2.350768 1_555
Na8 O42 2.396362 1_565
Na8 O25 2.426705 1_554
Na8 O7 2.607736 1_555
Na9 O17 2.320530 1_545
Na9 O20 2.384755 1_555
Na9 O41 2.461462 1_545
Na9 O26 2.483207 1_555
Na9 O4 2.599578 1_555
Na9 O15 2.780735 1_546
Na9 O12 2.904314 1_555
Na9 O36 2.962267 1_555
Na10 O46 2.370688 1_555
Na10 O22 2.381087 1_555
Na10 O19 2.406497 1_555
Na10 O29 2.554672 1_554
Na10 O3 2.565988 1_555
Na10 O8 2.700428 1_555
Na10 O11 2.777723 1_555
Na10 O35 2.923053 1_555
Na11 O21 2.337159 1_555
Na11 O16 2.372718 1_555
Na11 O45 2.379916 1_555
Na11 O30 2.508953 1_555
Na11 O0 2.585868 1_555
Na11 O8 2.827019 1_555
Na11 O11 2.840293 1_556
Na11 O32 2.902148 1_555
Ge0 O30 1.868332 1_555
Ge0 O0 1.904339 1_555
Ge0 O16 1.914055 1_555
Ge0 O39 1.915258 1_455
Ge0 O14 1.926510 1_555
Ge0 O40 2.036104 1_555
Ge1 O35 1.846431 1_555
Ge1 O20 1.864030 1_555
Ge1 O26 1.892189 1_555
Ge1 O10 1.942683 1_555
Ge1 O4 1.951627 1_555
Ge1 O44 2.126087 1_555
Ge2 O24 1.801430 1_555
Ge2 O33 1.849634 1_555
Ge2 O6 1.886069 1_555
Ge2 O22 1.886434 1_555
Ge2 O8 1.965942 1_555
Ge2 O46 2.148629 1_555
Ge3 O25 1.885055 1_554
Ge3 O32 1.887089 1_554
Ge3 O23 1.917015 1_555
Ge3 O9 1.930146 1_554
Ge3 O7 1.942641 1_555
Ge3 O47 2.105580 1_555
O0 Si5 1.656713 1_555
O1 Si4 1.630182 1_555
O1 Sn0 2.036418 1_555
O2 Si7 1.637008 1_555
O2 Sn1 2.033675 1_555
O3 Si6 1.658565 1_555
O3 Sn2 2.091722 1_555
O4 Si1 1.667174 1_545
O5 Si0 1.636614 1_545
O5 Sn3 2.064472 1_555
O6 Si3 1.643733 1_565
O7 Si2 1.662508 1_565
O8 P2 1.553925 1_555
O9 P2 1.548255 1_555
O10 P3 1.542761 1_555
O11 P3 1.555774 1_555
O11 Sn3 2.085186 1_554
O12 P0 1.537453 1_645
O12 Sn1 2.074497 1_555
O13 P0 1.534023 1_545
O13 Sn2 2.069597 1_556
O14 P1 1.534705 1_565
O15 P1 1.548678 1_665
O15 Sn0 2.074891 1_554
O16 Si0 1.641480 1_555
O17 Si1 1.640968 1_555
O17 Sn0 2.057981 1_555
O18 Si2 1.633435 1_555
O18 Sn1 2.021484 1_555
O19 Si3 1.629513 1_555
O19 Sn2 2.046380 1_555
O20 Si4 1.636820 1_555
O21 Si5 1.633066 1_555
O21 Sn3 2.026492 1_555
O22 Si6 1.647518 1_555
O23 Si7 1.644605 1_555
O24 Si0 1.625026 1_555
O25 Si1 1.652671 1_555
O26 Si2 1.646952 1_555
O27 Si3 1.623865 1_555
O27 Sn3 1.989797 1_554
O28 Si4 1.612452 1_555
O28 Sn1 1.966555 1_555
O29 Si5 1.636522 1_555
O29 Sn2 2.037709 1_556
O30 Si6 1.645460 1_555
O31 Si7 1.615843 1_555
O31 Sn0 1.960797 1_554
O32 Si0 1.665208 1_555
O33 Si1 1.630099 1_555
O34 Si2 1.621227 1_555
O34 Sn3 1.994372 1_554
O35 Si3 1.654736 1_555
O36 Si4 1.651992 1_555
O36 Sn2 2.044637 1_656
O37 Si5 1.621428 1_555
O37 Sn1 2.003603 1_455
O38 Si6 1.632032 1_555
O38 Sn0 2.033342 1_454
O39 Si7 1.659354 1_555
O40 P0 1.541776 1_555
O41 P0 1.567891 1_655
O41 Sn0 2.155275 1_555
O42 P1 1.562926 1_655
O42 Sn1 2.156300 1_555
O43 P1 1.538341 1_555
O43 Sn2 2.148717 1_555
O44 P2 1.541332 1_555
O45 P2 1.569613 1_555
O45 Sn3 2.214112 1_555
O46 P3 1.563913 1_555
O47 P3 1.546435 1_555
