# generated using pymatgen
data_TmBH4
_symmetry_space_group_name_H-M   'P 1'
_cell_length_a   4.04339582
_cell_length_b   5.60644106
_cell_length_c   6.75021811
_cell_angle_alpha   114.52990471
_cell_angle_beta   107.33430986
_cell_angle_gamma   90.01774932
_symmetry_Int_Tables_number   1
_chemical_formula_structural   TmBH4
_chemical_formula_sum   'Tm3 B3 H12'
_cell_volume   131.52575771
_cell_formula_units_Z   3
loop_
 _symmetry_equiv_pos_site_id
 _symmetry_equiv_pos_as_xyz
  1  'x, y, z'
loop_
 _atom_site_type_symbol
 _atom_site_label
 _atom_site_symmetry_multiplicity
 _atom_site_fract_x
 _atom_site_fract_y
 _atom_site_fract_z
 _atom_site_occupancy
  Tm  Tm0  1  0.99984000  0.53458800  0.99980800  1
  Tm  Tm1  1  0.35531100  0.89394800  0.67446100  1
  Tm  Tm2  1  0.64452500  0.21950200  0.32558700  1
  B  B0  1  0.99995500  0.05216200  0.00003700  1
  B  B1  1  0.32665700  0.38659000  0.66769700  1
  B  B2  1  0.67350000  0.71886800  0.33233300  1
  H  H0  1  0.90456200  0.09129200  0.81337300  1
  H  H1  1  0.09548300  0.27796700  0.18663700  1
  H  H2  1  0.74503500  0.91018400  0.99516900  1
  H  H3  1  0.25479600  0.91515200  0.00482300  1
  H  H4  1  0.08069800  0.52524200  0.67760000  1
  H  H5  1  0.91960300  0.84752800  0.32237000  1
  H  H6  1  0.41238400  0.33485100  0.84233100  1
  H  H7  1  0.58739500  0.49249800  0.15767200  1
  H  H8  1  0.58482100  0.52135200  0.67259600  1
  H  H9  1  0.41548600  0.84870500  0.32755500  1
  H  H10  1  0.23449200  0.17541000  0.48073800  1
  H  H11  1  0.76545500  0.69456200  0.51921400  1
loop_
_geom_bond_atom_site_label_1
_geom_bond_atom_site_label_2
_geom_bond_distance
_geom_bond_site_symmetry_2
B0 H3 1.286123 1_645
B0 H2 1.286352 1_544
B0 H1 1.313071 1_655
B0 H0 1.313213 1_554
B1 H4 1.262826 1_555
B1 H10 1.269700 1_555
B1 H8 1.272700 1_555
B1 H6 1.278438 1_555
B2 H5 1.262836 1_555
B2 H11 1.269424 1_555
B2 H9 1.272479 1_555
B2 H7 1.278529 1_555
H0 Tm1 2.220726 1_545
H0 Tm0 2.241074 1_555
H0 Tm1 2.362895 1_645
H1 Tm2 2.220472 1_555
H1 Tm0 2.241936 1_454
H1 Tm2 2.363473 1_455
H2 Tm1 2.231926 1_555
H2 Tm2 2.340107 1_566
H2 Tm0 2.352347 1_555
H3 Tm2 2.231674 1_565
H3 Tm1 2.339286 1_554
H3 Tm0 2.352453 1_454
H4 Tm0 2.273601 1_455
H4 Tm1 2.356980 1_555
H4 Tm2 2.411156 1_455
H5 Tm0 2.274568 1_554
H5 Tm2 2.359004 1_565
H5 Tm1 2.410637 1_655
H6 Tm1 2.228359 1_545
H6 Tm0 2.288192 1_455
H6 Tm0 2.351898 1_555
H7 Tm2 2.228297 1_555
H7 Tm0 2.289081 1_554
H7 Tm0 2.352835 1_454
H8 Tm1 2.282833 1_555
H8 Tm0 2.314137 1_555
H8 Tm2 2.335525 1_555
H9 Tm2 2.282219 1_565
H9 Tm0 2.316868 1_454
H9 Tm1 2.335254 1_555
H10 Tm2 2.270696 1_555
H10 Tm2 2.361149 1_455
H10 Tm1 2.402489 1_545
H11 Tm1 2.272012 1_555
H11 Tm1 2.360592 1_655
H11 Tm2 2.401862 1_555
