# generated using pymatgen
data_Na6Zr3ZnSi4(SO12)2
_symmetry_space_group_name_H-M   'P 1'
_cell_length_a   9.22450241
_cell_length_b   9.20700184
_cell_length_c   22.84294312
_cell_angle_alpha   89.82620587
_cell_angle_beta   90.20486620
_cell_angle_gamma   119.93132281
_symmetry_Int_Tables_number   1
_chemical_formula_structural   Na6Zr3ZnSi4(SO12)2
_chemical_formula_sum   'Na18 Zr9 Zn3 Si12 S6 O72'
_cell_volume   1681.28281260
_cell_formula_units_Z   3
loop_
 _symmetry_equiv_pos_site_id
 _symmetry_equiv_pos_as_xyz
  1  'x, y, z'
loop_
 _atom_site_type_symbol
 _atom_site_label
 _atom_site_symmetry_multiplicity
 _atom_site_fract_x
 _atom_site_fract_y
 _atom_site_fract_z
 _atom_site_occupancy
  Na  Na0  1  0.98916190  0.35514650  0.75229043  1
  Na  Na1  1  0.39130612  0.02092247  0.74777089  1
  Na  Na2  1  0.32476378  0.33503938  0.58536492  1
  Na  Na3  1  0.03021707  0.70448770  0.57393127  1
  Na  Na4  1  0.65341797  0.96378364  0.59092131  1
  Na  Na5  1  0.32062674  0.98157179  0.08501911  1
  Na  Na6  1  0.65590478  0.67810104  0.08886165  1
  Na  Na7  1  0.02279579  0.33838835  0.08620687  1
  Na  Na8  1  0.32855560  0.29364654  0.92495588  1
  Na  Na9  1  0.96476552  0.29051688  0.40711837  1
  Na  Na10  1  0.32136208  0.03040298  0.40988521  1
  Na  Na11  1  0.71264223  0.67941593  0.41032053  1
  Na  Na12  1  0.00045593  0.99321559  0.48900257  1
  Na  Na13  1  -0.00040626  0.99288155  0.99853538  1
  Na  Na14  1  0.66386677  0.32002485  0.83040948  1
  Na  Na15  1  0.66871696  0.33428590  0.31951933  1
  Na  Na16  1  0.33571868  0.66524182  0.16627711  1
  Na  Na17  1  0.37273678  0.67349538  0.66916088  1
  Zr  Zr0  1  0.00310694  0.01532781  0.85338094  1
  Zr  Zr1  1  0.99569462  0.99962327  0.64841567  1
  Zr  Zr2  1  0.00362761  0.00123519  0.14860095  1
  Zr  Zr3  1  0.67233387  0.32233487  0.98183873  1
  Zr  Zr4  1  0.65600460  0.33575053  0.47835133  1
  Zr  Zr5  1  0.32257112  0.66954031  0.01895104  1
  Zr  Zr6  1  0.34412393  0.67310296  0.51566791  1
  Zr  Zr7  1  0.33334134  0.66858958  0.31653513  1
  Zr  Zr8  1  0.33768229  0.67431832  0.81424378  1
  Zn  Zn0  1  0.00037626  0.99872338  0.35493425  1
  Zn  Zn1  1  0.62657498  0.31718973  0.68518363  1
  Zn  Zn2  1  0.66585990  0.33110834  0.16643555  1
  Si  Si0  1  0.29736883  0.30201405  0.74959237  1
  Si  Si1  1  0.70353929  0.00496828  0.74765479  1
  Si  Si2  1  0.36931312  0.03143005  0.58555541  1
  Si  Si3  1  0.66676280  0.62471361  0.58487384  1
  Si  Si4  1  0.95401536  0.62049520  0.08582386  1
  Si  Si5  1  0.66271563  0.03479565  0.08715415  1
  Si  Si6  1  0.37731262  0.33736496  0.08317203  1
  Si  Si7  1  0.03486378  0.37663221  0.91482505  1
  Si  Si8  1  0.33298758  0.96763760  0.91560179  1
  Si  Si9  1  0.63185175  0.96499756  0.41586817  1
  Si  Si10  1  0.32949924  0.37135139  0.41703772  1
  Si  Si11  1  0.03765463  0.66309719  0.41739974  1
  S  S0  1  0.29746634  0.00128960  0.25318515  1
  S  S1  1  0.70430939  0.70411419  0.25283710  1
  S  S2  1  0.00034056  0.29651207  0.25286194  1
  S  S3  1  0.00097553  0.70767504  0.75071341  1
  S  S4  1  0.96077598  0.33395923  0.58525171  1
  S  S5  1  0.62750287  0.66781601  0.91748677  1
  O  O0  1  0.20836863  0.00542729  0.30654692  1
  O  O1  1  0.79804775  0.79196655  0.30654795  1
  O  O2  1  0.99520052  0.20257750  0.30635907  1
  O  O3  1  0.19449866  0.18334798  0.80666623  1
  O  O4  1  0.98645342  0.79505615  0.80200600  1
  O  O5  1  0.82294934  0.01187300  0.80226216  1
  O  O6  1  0.78891965  0.97930188  0.68709210  1
  O  O7  1  0.17918443  0.20446530  0.69097540  1
  O  O8  1  0.01934666  0.80851714  0.69635365  1
  O  O9  1  0.79373486  0.80770651  0.19965445  1
  O  O10  1  0.01484919  0.20706120  0.19964251  1
  O  O11  1  0.19350686  0.98736548  0.19983194  1
  O  O12  1  0.88754197  0.35349856  0.63809052  1
  O  O13  1  0.48335417  0.09993207  0.64393711  1
  O  O14  1  0.63616886  0.50158332  0.63891278  1
  O  O15  1  0.88988268  0.49759772  0.14136194  1
  O  O16  1  0.60340799  0.10251513  0.14134052  1
  O  O17  1  0.50280430  0.38905038  0.13800071  1
  O  O18  1  0.45233677  0.29428793  0.02417936  1
  O  O19  1  0.82893225  0.53866151  0.02888304  1
  O  O20  1  0.70892727  0.16278377  0.03013119  1
  O  O21  1  0.46343623  0.15489352  0.52871878  1
  O  O22  1  0.69843866  0.54606763  0.52420815  1
  O  O23  1  0.85970473  0.31431745  0.53170483  1
  O  O24  1  0.55225769  0.68797634  0.97166634  1
  O  O25  1  0.15570657  0.46461762  0.97181367  1
  O  O26  1  0.32360753  0.85997380  0.97394580  1
  O  O27  1  0.54535437  0.84907120  0.47517309  1
  O  O28  1  0.30456734  0.45524322  0.47706207  1
  O  O29  1  0.15142383  0.69003289  0.47674355  1
  O  O30  1  0.13441753  0.63426401  0.36196057  1
  O  O31  1  0.50074935  0.87094199  0.36150952  1
  O  O32  1  0.36446001  0.50108908  0.36238845  1
  O  O33  1  0.13313638  0.48499775  0.85592360  1
  O  O34  1  0.35202028  0.87226771  0.85755054  1
  O  O35  1  0.52059347  0.65186216  0.86566811  1
  O  O36  1  0.01892630  0.82869470  0.41131369  1
  O  O37  1  0.81377959  0.98073465  0.40986116  1
  O  O38  1  0.16727961  0.18646563  0.41088313  1
  O  O39  1  0.01958967  0.18858532  0.91246227  1
  O  O40  1  0.16276257  0.98335472  0.91238042  1
  O  O41  1  0.79705823  0.81326804  0.91142278  1
  O  O42  1  0.97758022  0.17785766  0.58560961  1
  O  O43  1  0.18391778  0.01956694  0.58925228  1
  O  O44  1  0.83489792  0.81500104  0.58913039  1
  O  O45  1  0.97534898  0.81101014  0.09433409  1
  O  O46  1  0.83616037  0.02294420  0.09576488  1
  O  O47  1  0.18911674  0.16535284  0.09358975  1
  O  O48  1  0.69881363  0.17975212  0.74724106  1
  O  O49  1  0.47525012  0.30787549  0.75113420  1
  O  O50  1  0.86097292  0.53653699  0.74673134  1
  O  O51  1  0.68517857  0.53777619  0.24927806  1
  O  O52  1  0.85239817  0.31378047  0.24929844  1
  O  O53  1  0.46218002  0.14869917  0.24972094  1
  O  O54  1  0.63188668  0.50842600  0.91930997  1
  O  O55  1  0.85155104  0.36124450  0.91918643  1
  O  O56  1  0.49416069  0.15894248  0.91844332  1
  O  O57  1  0.64828113  0.14960883  0.42227629  1
  O  O58  1  0.50141536  0.35736915  0.41975722  1
  O  O59  1  0.85491880  0.49117903  0.42173693  1
  O  O60  1  0.34323553  0.49567092  0.07451939  1
  O  O61  1  0.14859728  0.65762903  0.07612682  1
  O  O62  1  0.50930145  0.84218395  0.07588017  1
  O  O63  1  0.33758045  0.83861235  0.57806765  1
  O  O64  1  0.49876425  0.64691622  0.57998971  1
  O  O65  1  0.13350688  0.48085266  0.57878787  1
  O  O66  1  0.30583513  0.84095580  0.25171720  1
  O  O67  1  0.53541940  0.69518681  0.25183356  1
  O  O68  1  0.15970434  0.46570834  0.25177207  1
  O  O69  1  0.30152440  0.48281416  0.75261170  1
  O  O70  1  0.16336968  0.70449427  0.75269844  1
  O  O71  1  0.51291870  0.84114595  0.75274504  1
loop_
_geom_bond_atom_site_label_1
_geom_bond_atom_site_label_2
_geom_bond_distance
_geom_bond_site_symmetry_2
Na0 O48 2.340354 1_555
Na0 O50 2.484320 1_555
Na0 O69 2.510807 1_655
Na0 O33 2.684658 1_655
Na0 O12 2.766336 1_555
Na0 O70 2.787479 1_655
Na1 O49 2.354742 1_555
Na1 O71 2.421157 1_545
Na1 O48 2.458776 1_555
Na1 O13 2.502689 1_555
Na1 O70 2.609222 1_545
Na1 O34 2.789945 1_545
Na2 O64 2.497302 1_555
Na2 O43 2.523041 1_555
Na2 O65 2.701469 1_555
Na2 O7 2.731864 1_555
Na2 O28 2.750607 1_555
Na2 O14 2.773032 1_555
Na2 O42 2.779560 1_455
Na2 O21 2.864216 1_555
Na3 O63 2.465253 1_555
Na3 O44 2.497619 1_455
Na3 O29 2.522790 1_555
Na3 O43 2.538951 1_565
Na3 O65 2.667442 1_555
Na3 O22 2.883513 1_455
Na3 O8 2.976890 1_555
Na4 O6 2.492557 1_555
Na4 O64 2.541124 1_555
Na4 O63 2.558870 1_555
Na4 O42 2.638310 1_565
Na4 O44 2.640055 1_555
Na4 O13 2.735705 1_565
Na4 O27 2.836813 1_555
Na5 O47 2.534799 1_565
Na5 O61 2.594854 1_555
Na5 O16 2.604913 1_565
Na5 O62 2.636817 1_555
Na5 O45 2.768974 1_455
Na5 O26 2.782121 1_554
Na5 O18 2.862552 1_565
Na5 O11 2.888166 1_555
Na6 O62 2.496435 1_555
Na6 O60 2.531685 1_555
Na6 O17 2.565053 1_555
Na6 O45 2.568284 1_555
Na6 O46 2.757353 1_565
Na6 O9 2.815464 1_555
Na6 O19 2.853768 1_555
Na6 O24 2.855895 1_554
Na7 O46 2.540808 1_455
Na7 O61 2.575439 1_555
Na7 O60 2.576306 1_555
Na7 O15 2.656123 1_455
Na7 O47 2.712207 1_555
Na7 O20 2.819957 1_455
Na7 O10 2.841761 1_555
Na7 O25 2.874819 1_554
Na8 O56 2.405684 1_555
Na8 O40 2.494963 1_545
Na8 O54 2.497134 1_555
Na8 O39 2.526790 1_555
Na8 O18 2.532965 1_556
Na8 O3 2.932797 1_555
Na8 O25 2.948376 1_555
Na9 O37 2.472643 1_545
Na9 O38 2.489818 1_655
Na9 O2 2.504929 1_555
Na9 O59 2.534917 1_555
Na9 O57 2.559461 1_555
Na10 O36 2.462331 1_545
Na10 O38 2.474624 1_555
Na10 O0 2.541259 1_555
Na10 O58 2.623682 1_555
Na10 O57 2.659286 1_555
Na10 O31 2.926115 1_545
Na10 O21 2.982328 1_555
Na11 O37 2.446216 1_555
Na11 O36 2.448794 1_655
Na11 O1 2.548997 1_555
Na11 O58 2.620777 1_555
Na11 O59 2.656834 1_555
Na11 O22 2.848683 1_555
Na12 O36 2.397676 1_555
Na12 O38 2.446680 1_565
Na12 O37 2.455245 1_455
Na12 O43 2.780810 1_565
Na12 O44 2.785233 1_455
Na12 O42 2.861559 1_465
Na13 O40 2.510041 1_555
Na13 O39 2.606895 1_565
Na13 O41 2.663676 1_455
Na13 O45 2.692630 1_456
Na13 O47 2.741533 1_566
Na13 O46 2.779642 1_466
Na14 O48 2.411615 1_555
Na14 O49 2.470529 1_555
Na14 O56 2.526194 1_555
Na14 O55 2.564718 1_555
Na14 O50 2.705197 1_555
Na14 O54 2.784985 1_555
Na15 O51 2.409828 1_555
Na15 O52 2.412468 1_555
Na15 O53 2.416134 1_555
Na15 O59 2.829248 1_555
Na15 O58 2.832887 1_555
Na15 O57 2.845242 1_555
Na16 O67 2.599945 1_555
Na16 O68 2.617158 1_555
Na16 O62 2.623343 1_555
Na16 O60 2.639031 1_555
Na16 O66 2.640160 1_555
Na16 O61 2.660784 1_555
Na17 O71 2.389255 1_555
Na17 O64 2.421639 1_555
Na17 O69 2.446484 1_555
Na17 O63 2.685914 1_555
Na17 O70 2.834170 1_555
Na17 O65 2.891559 1_555
O0 S0 1.483727 1_555
O0 Zn0 2.191625 1_545
O1 S1 1.485844 1_555
O1 Zn0 2.186617 1_655
O2 S2 1.482116 1_655
O2 Zn0 2.198318 1_645
O3 Si0 1.661166 1_555
O3 Zr0 1.981601 1_555
O4 S3 1.467107 1_655
O4 Zr0 2.283863 1_665
O5 Si1 1.641373 1_555
O5 Zr0 2.014927 1_655
O6 Si1 1.668990 1_565
O6 Zr1 2.026975 1_555
O7 Si0 1.675647 1_555
O7 Zr1 2.044688 1_445
O8 S3 1.506702 1_555
O8 Zr1 2.170785 1_455
O9 S1 1.510301 1_555
O9 Zr2 2.201013 1_665
O10 S2 1.513709 1_555
O10 Zr2 2.185885 1_555
O11 S0 1.513707 1_565
O11 Zr2 2.159020 1_565
O12 S4 1.440135 1_555
O12 Zn1 2.505452 1_555
O13 Si2 1.617378 1_555
O13 Zn1 1.999915 1_555
O14 Si3 1.601039 1_555
O14 Zn1 1.961397 1_555
O15 Si4 1.602637 1_555
O15 Zn2 1.946843 1_555
O16 Si5 1.603138 1_555
O16 Zn2 1.971061 1_555
O17 Si6 1.605814 1_555
O17 Zn2 1.939193 1_555
O18 Si6 1.654086 1_555
O18 Zr3 2.147095 1_554
O19 Si4 1.648782 1_555
O19 Zr3 2.083078 1_554
O20 Si5 1.661440 1_555
O20 Zr3 1.992770 1_554
O21 Si2 1.657052 1_555
O21 Zr4 2.074399 1_555
O22 Si3 1.658374 1_555
O22 Zr4 2.062298 1_555
O23 S4 1.490979 1_555
O23 Zr4 2.325349 1_555
O24 S5 1.477849 1_555
O24 Zr5 2.311042 1_556
O25 Si7 1.639621 1_555
O25 Zr5 2.047138 1_556
O26 Si8 1.635091 1_555
O26 Zr5 2.025716 1_556
O27 Si9 1.661371 1_555
O27 Zr6 1.981977 1_555
O28 Si10 1.647858 1_555
O28 Zr6 2.052378 1_555
O29 Si11 1.653069 1_555
O29 Zr6 2.058875 1_555
O30 Si11 1.648492 1_555
O30 Zr7 1.994151 1_555
O31 Si9 1.644684 1_555
O31 Zr7 2.010064 1_555
O32 Si10 1.642746 1_555
O32 Zr7 1.996905 1_555
O33 Si7 1.650924 1_555
O33 Zr8 2.055637 1_555
O34 Si8 1.650103 1_555
O34 Zr8 2.021670 1_555
O35 S5 1.497802 1_555
O35 Zr8 2.145219 1_555
O36 Si11 1.623313 1_555
O36 Zn0 2.095722 1_555
O37 Si9 1.617106 1_555
O37 Zn0 2.072226 1_655
O38 Si10 1.616974 1_555
O38 Zn0 2.082115 1_545
O39 Si7 1.666556 1_555
O39 Zr0 2.039284 1_555
O40 Si8 1.648598 1_555
O40 Zr0 2.118496 1_565
O41 S5 1.472784 1_555
O41 Zr0 2.303451 1_665
O42 S4 1.520513 1_555
O42 Zr1 2.244270 1_545
O43 Si2 1.660828 1_555
O43 Zr1 2.138204 1_445
O44 Si3 1.665146 1_555
O44 Zr1 2.099288 1_555
O45 Si4 1.676487 1_555
O45 Zr2 2.055978 1_665
O46 Si5 1.668006 1_555
O46 Zr2 2.043618 1_655
O47 Si6 1.683911 1_555
O47 Zr2 2.052745 1_555
O48 Si1 1.631421 1_555
O48 Zn1 2.208753 1_555
O49 Si0 1.614876 1_555
O49 Zn1 2.029836 1_555
O50 S3 1.458839 1_655
O50 Zn1 2.523527 1_555
O51 S1 1.454000 1_555
O52 S2 1.452565 1_655
O53 S0 1.448860 1_555
O54 S5 1.488548 1_555
O54 Zr3 2.394614 1_555
O55 Si7 1.628319 1_655
O55 Zr3 2.081441 1_555
O56 Si8 1.644301 1_545
O56 Zr3 2.142500 1_555
O57 Si9 1.636374 1_545
O57 Zr4 2.115132 1_555
O58 Si10 1.654780 1_555
O58 Zr4 2.032875 1_555
O59 Si11 1.641431 1_655
O59 Zr4 2.114838 1_555
O60 Si6 1.648415 1_555
O60 Zr5 2.121471 1_555
O61 Si4 1.666640 1_455
O61 Zr5 2.032676 1_555
O62 Si5 1.646098 1_565
O62 Zr5 2.109256 1_555
O63 Si2 1.658144 1_565
O63 Zr6 2.112599 1_555
O64 Si3 1.664503 1_555
O64 Zr6 2.139600 1_555
O65 S4 1.496568 1_455
O65 Zr6 2.357835 1_555
O66 S0 1.516665 1_565
O66 Zr7 2.271570 1_555
O67 S1 1.518679 1_555
O67 Zr7 2.298066 1_555
O68 S2 1.517608 1_555
O68 Zr7 2.292892 1_555
O69 Si0 1.647486 1_555
O69 Zr8 2.151034 1_555
O70 S3 1.513347 1_555
O70 Zr8 2.250877 1_555
O71 Si1 1.653526 1_565
O71 Zr8 2.114509 1_555
