# generated using pymatgen
data_LiCo(PO3)3
_symmetry_space_group_name_H-M   'P 1'
_cell_length_a   9.43482200
_cell_length_b   9.43960079
_cell_length_c   9.71210819
_cell_angle_alpha   109.43722918
_cell_angle_beta   104.88938113
_cell_angle_gamma   108.65477426
_symmetry_Int_Tables_number   1
_chemical_formula_structural   LiCo(PO3)3
_chemical_formula_sum   'Li4 Co4 P12 O36'
_cell_volume   706.00852507
_cell_formula_units_Z   4
loop_
 _symmetry_equiv_pos_site_id
 _symmetry_equiv_pos_as_xyz
  1  'x, y, z'
loop_
 _atom_site_type_symbol
 _atom_site_label
 _atom_site_symmetry_multiplicity
 _atom_site_fract_x
 _atom_site_fract_y
 _atom_site_fract_z
 _atom_site_occupancy
  Li  Li0  1  0.35588100  0.15110000  0.32406700  1
  Li  Li1  1  0.34704200  0.93225000  0.50272000  1
  Li  Li2  1  0.64411900  0.84890000  0.67593300  1
  Li  Li3  1  0.65295800  0.06775000  0.49728000  1
  Co  Co0  1  0.09862500  0.29756800  0.21266900  1
  Co  Co1  1  0.74832600  0.23037100  0.27534200  1
  Co  Co2  1  0.25167400  0.76962900  0.72465800  1
  Co  Co3  1  0.90137500  0.70243200  0.78733100  1
  P  P0  1  0.30656900  0.43294500  0.59135700  1
  P  P1  1  0.57115200  0.33805800  0.70644200  1
  P  P2  1  0.94491700  0.21242200  0.83849700  1
  P  P3  1  0.48752600  0.84968700  0.10360700  1
  P  P4  1  0.00219400  0.60924800  0.35425400  1
  P  P5  1  0.51247400  0.15031300  0.89639300  1
  P  P6  1  0.99780600  0.39075200  0.64574600  1
  P  P7  1  0.81128200  0.91154700  0.07678400  1
  P  P8  1  0.69343100  0.56705500  0.40864300  1
  P  P9  1  0.42884800  0.66194200  0.29355800  1
  P  P10  1  0.18871800  0.08845300  0.92321600  1
  P  P11  1  0.05508300  0.78757800  0.16150300  1
  O  O0  1  0.15512700  0.74861000  0.49572700  1
  O  O1  1  0.72646600  0.47931900  0.74550300  1
  O  O2  1  0.63424900  0.38200700  0.35557600  1
  O  O3  1  0.36561800  0.18698300  0.93037900  1
  O  O4  1  0.15100400  0.35957300  0.62993600  1
  O  O5  1  0.43094200  0.40097300  0.71031300  1
  O  O6  1  0.50280100  0.17637100  0.55586700  1
  O  O7  1  0.36575100  0.61799300  0.64442400  1
  O  O8  1  0.95543200  0.27375900  0.00462100  1
  O  O9  1  0.00136900  0.37360300  0.80393000  1
  O  O10  1  0.19621400  0.13960100  0.09057100  1
  O  O11  1  0.04456800  0.72624100  0.99537900  1
  O  O12  1  0.36702100  0.82448900  0.95469900  1
  O  O13  1  0.84487300  0.25139000  0.50427300  1
  O  O14  1  0.90669200  0.83623500  0.17004100  1
  O  O15  1  0.73338600  0.68196700  0.57978000  1
  O  O16  1  0.80378600  0.86039900  0.90942900  1
  O  O17  1  0.21277700  0.92511000  0.29682800  1
  O  O18  1  0.40422000  0.69673600  0.13932400  1
  O  O19  1  0.09330800  0.16376500  0.82995900  1
  O  O20  1  0.49719900  0.82362900  0.44413300  1
  O  O21  1  0.63438200  0.81301700  0.06962100  1
  O  O22  1  0.56905800  0.59902700  0.28968700  1
  O  O23  1  0.11767800  0.90244700  0.81170600  1
  O  O24  1  0.55964200  0.01490400  0.25260600  1
  O  O25  1  0.96986600  0.43108300  0.32291600  1
  O  O26  1  0.27353400  0.52068100  0.25449700  1
  O  O27  1  0.44035800  0.98509600  0.74739400  1
  O  O28  1  0.88232200  0.09755300  0.18829400  1
  O  O29  1  0.84899600  0.64042700  0.37006400  1
  O  O30  1  0.59578000  0.30326400  0.86067600  1
  O  O31  1  0.26661400  0.31803300  0.42022000  1
  O  O32  1  0.03013400  0.56891700  0.67708400  1
  O  O33  1  0.99863100  0.62639700  0.19607000  1
  O  O34  1  0.78722300  0.07489000  0.70317200  1
  O  O35  1  0.63297900  0.17551100  0.04530100  1
loop_
_geom_bond_atom_site_label_1
_geom_bond_atom_site_label_2
_geom_bond_distance
_geom_bond_site_symmetry_2
Li0 O17 2.010463 1_545
Li0 O31 2.082863 1_555
Li0 O6 2.207688 1_555
Li0 O10 2.323728 1_555
Li1 O0 2.034362 1_555
Li1 O17 2.040033 1_555
Li1 O20 2.082638 1_555
Li1 O6 2.094858 1_565
Li1 O27 2.127372 1_555
Li2 O34 2.010463 1_565
Li2 O15 2.082863 1_555
Li2 O20 2.207688 1_555
Li2 O16 2.323728 1_555
Li3 O13 2.034362 1_555
Li3 O34 2.040033 1_555
Li3 O6 2.082638 1_555
Li3 O20 2.094858 1_545
Li3 O24 2.127372 1_555
Co0 O8 2.014727 1_455
Co0 O26 2.046116 1_555
Co0 O31 2.125028 1_555
Co0 O10 2.177160 1_555
Co0 O28 2.185152 1_455
Co0 O25 2.227211 1_455
Co1 O35 2.015940 1_555
Co1 O13 2.088681 1_555
Co1 O2 2.118659 1_555
Co1 O24 2.130131 1_555
Co1 O25 2.135339 1_555
Co1 O28 2.177775 1_555
Co2 O12 2.015940 1_555
Co2 O0 2.088681 1_555
Co2 O7 2.118659 1_555
Co2 O27 2.130131 1_555
Co2 O32 2.135339 1_555
Co2 O23 2.177775 1_555
Co3 O11 2.014727 1_655
Co3 O1 2.046116 1_555
Co3 O15 2.125028 1_555
Co3 O16 2.177160 1_555
Co3 O23 2.185152 1_655
Co3 O32 2.227211 1_655
O0 P4 1.504751 1_555
O1 P1 1.482194 1_555
O2 P8 1.502536 1_555
O3 P10 1.599912 1_555
O3 P5 1.616897 1_555
O4 P6 1.598591 1_455
O4 P0 1.606027 1_555
O5 P0 1.601471 1_555
O5 P1 1.617827 1_555
O6 P1 1.511338 1_555
O7 P0 1.502536 1_555
O8 P2 1.485750 1_554
O9 P6 1.590601 1_455
O9 P2 1.620102 1_455
O10 P10 1.508883 1_554
O11 P11 1.485750 1_556
O12 P3 1.481147 1_556
O13 P6 1.504751 1_555
O14 P7 1.598434 1_555
O14 P11 1.619766 1_655
O15 P8 1.515849 1_555
O16 P7 1.508883 1_556
O17 P11 1.500071 1_555
O18 P3 1.603160 1_555
O18 P9 1.613404 1_555
O19 P10 1.598434 1_555
O19 P2 1.619766 1_455
O20 P9 1.511338 1_555
O21 P7 1.599912 1_555
O21 P3 1.616897 1_555
O22 P8 1.601471 1_555
O22 P9 1.617827 1_555
O23 P10 1.521040 1_565
O24 P3 1.517378 1_545
O25 P4 1.515782 1_655
O26 P9 1.482194 1_555
O27 P5 1.517378 1_565
O28 P7 1.521040 1_545
O29 P4 1.598591 1_655
O29 P8 1.606027 1_555
O30 P5 1.603160 1_555
O30 P1 1.613404 1_555
O31 P0 1.515849 1_555
O32 P6 1.515782 1_455
O33 P4 1.590601 1_655
O33 P11 1.620102 1_655
O34 P2 1.500071 1_555
O35 P5 1.481147 1_554
