# generated using pymatgen
data_MgScNi2SbO6
_symmetry_space_group_name_H-M   'P 1'
_cell_length_a   5.35783860
_cell_length_b   5.35534020
_cell_length_c   5.99123202
_cell_angle_alpha   63.50255284
_cell_angle_beta   63.50103804
_cell_angle_gamma   59.98045332
_symmetry_Int_Tables_number   1
_chemical_formula_structural   MgScNi2SbO6
_chemical_formula_sum   'Mg1 Sc1 Ni2 Sb1 O6'
_cell_volume   127.57686195
_cell_formula_units_Z   1
loop_
 _symmetry_equiv_pos_site_id
 _symmetry_equiv_pos_as_xyz
  1  'x, y, z'
loop_
 _atom_site_type_symbol
 _atom_site_label
 _atom_site_symmetry_multiplicity
 _atom_site_fract_x
 _atom_site_fract_y
 _atom_site_fract_z
 _atom_site_occupancy
  Mg  Mg0  1  0.66340300  0.66498000  0.00696300  1
  Sc  Sc0  1  0.83859600  0.83958100  0.48212900  1
  Ni  Ni0  1  0.02781600  0.02918000  0.91458200  1
  Ni  Ni1  1  0.49242300  0.49447900  0.51911200  1
  Sb  Sb0  1  0.30620900  0.30749900  0.07946400  1
  O  O0  1  0.25220900  0.86067400  0.24179800  1
  O  O1  1  0.85955600  0.64388500  0.24247900  1
  O  O2  1  0.64488000  0.25323800  0.24104100  1
  O  O3  1  0.72393500  0.07820900  0.75888200  1
  O  O4  1  0.07719100  0.43917300  0.75865200  1
  O  O5  1  0.43788300  0.72570000  0.75819300  1
loop_
_geom_bond_atom_site_label_1
_geom_bond_atom_site_label_2
_geom_bond_distance
_geom_bond_site_symmetry_2
Mg0 O1 2.042194 1_555
Mg0 O0 2.042296 1_555
Mg0 O2 2.043070 1_555
Mg0 O3 2.136490 1_564
Mg0 O5 2.137424 1_554
Mg0 O4 2.137808 1_654
Ni0 O4 2.072185 1_555
Ni0 O5 2.072526 1_545
Ni0 O3 2.073400 1_455
Ni0 O2 2.350461 1_456
Ni0 O0 2.354172 1_546
Ni0 O1 2.365037 1_446
Ni1 O5 2.125453 1_555
Ni1 O4 2.127844 1_555
Ni1 O3 2.130147 1_555
Ni1 O0 2.176708 1_555
Ni1 O1 2.176835 1_555
Ni1 O2 2.182222 1_555
O0 Sc0 2.062743 1_455
O0 Sb0 2.262862 1_565
O1 Sc0 2.062409 1_555
O1 Sb0 2.257588 1_655
O2 Sc0 2.062280 1_545
O2 Sb0 2.258985 1_555
O3 Sc0 2.226212 1_545
O3 Sb0 2.392610 1_556
O4 Sc0 2.225783 1_455
O4 Sb0 2.393032 1_556
O5 Sc0 2.226712 1_555
O5 Sb0 2.396043 1_556
