# generated using pymatgen
data_MgV2Zn4O8
_symmetry_space_group_name_H-M   'P 1'
_cell_length_a   6.34505330
_cell_length_b   6.00322671
_cell_length_c   6.01429900
_cell_angle_alpha   59.93897480
_cell_angle_beta   61.70990616
_cell_angle_gamma   61.24401653
_symmetry_Int_Tables_number   1
_chemical_formula_structural   MgV2Zn4O8
_chemical_formula_sum   'Mg1 V2 Zn4 O8'
_cell_volume   165.42813574
_cell_formula_units_Z   1
loop_
 _symmetry_equiv_pos_site_id
 _symmetry_equiv_pos_as_xyz
  1  'x, y, z'
loop_
 _atom_site_type_symbol
 _atom_site_label
 _atom_site_symmetry_multiplicity
 _atom_site_fract_x
 _atom_site_fract_y
 _atom_site_fract_z
 _atom_site_occupancy
  Mg  Mg0  1  0.62500000  0.12500000  0.12500000  1
  V  V0  1  0.62500000  0.62500000  0.12500000  1
  V  V1  1  0.62500000  0.62500000  0.62500000  1
  Zn  Zn0  1  0.08120700  0.95407500  0.98235900  1
  Zn  Zn1  1  0.16879300  0.29592500  0.26764100  1
  Zn  Zn2  1  0.12500000  0.62500000  0.62500000  1
  Zn  Zn3  1  0.62500000  0.12500000  0.62500000  1
  O  O0  1  0.38884700  0.38435100  0.35980600  1
  O  O1  1  0.39826000  0.87271900  0.36451000  1
  O  O2  1  0.38884700  0.38435100  0.86699400  1
  O  O3  1  0.43443000  0.85009400  0.85773900  1
  O  O4  1  0.81557000  0.39990600  0.39226100  1
  O  O5  1  0.86115300  0.86564900  0.38300600  1
  O  O6  1  0.85174000  0.37728100  0.88549000  1
  O  O7  1  0.86115300  0.86564900  0.89019400  1
loop_
_geom_bond_atom_site_label_1
_geom_bond_atom_site_label_2
_geom_bond_distance
_geom_bond_site_symmetry_2
Mg0 O6 2.094022 1_554
Mg0 O1 2.094022 1_545
Mg0 O0 2.148476 1_555
Mg0 O7 2.148476 1_544
Mg0 O5 2.148485 1_545
Mg0 O2 2.148485 1_554
O0 Zn1 2.068845 1_555
O0 V0 2.087994 1_555
O0 Zn3 2.178529 1_555
O0 Zn2 2.209995 1_555
O1 V0 2.116489 1_555
O1 V1 2.116494 1_555
O1 Zn1 2.162409 1_565
O1 Zn2 2.290016 1_555
O2 Zn1 2.068854 1_556
O2 V1 2.087993 1_555
O2 Zn3 2.178521 1_555
O2 Zn2 2.209987 1_555
O3 Zn0 1.872131 1_555
O3 V0 1.991460 1_556
O3 V1 1.991469 1_555
O3 Zn3 2.036267 1_565
O4 Zn1 1.872131 1_655
O4 V0 1.991460 1_555
O4 V1 1.991469 1_555
O4 Zn3 2.036267 1_555
O5 Zn0 2.068854 1_654
O5 V1 2.087993 1_555
O5 Zn3 2.178521 1_565
O5 Zn2 2.209987 1_655
O6 V0 2.116489 1_556
O6 V1 2.116494 1_555
O6 Zn0 2.162409 1_645
O6 Zn2 2.290016 1_655
O7 Zn0 2.068845 1_655
O7 V0 2.087994 1_556
O7 Zn3 2.178529 1_565
O7 Zn2 2.209995 1_655
