# generated using pymatgen
data_MgTi2V2O6
_symmetry_space_group_name_H-M   'P 1'
_cell_length_a   5.88745588
_cell_length_b   5.88745535
_cell_length_c   5.88745441
_cell_angle_alpha   52.54059375
_cell_angle_beta   52.54059792
_cell_angle_gamma   52.54060108
_symmetry_Int_Tables_number   1
_chemical_formula_structural   MgTi2V2O6
_chemical_formula_sum   'Mg1 Ti2 V2 O6'
_cell_volume   119.03430480
_cell_formula_units_Z   1
loop_
 _symmetry_equiv_pos_site_id
 _symmetry_equiv_pos_as_xyz
  1  'x, y, z'
loop_
 _atom_site_type_symbol
 _atom_site_label
 _atom_site_symmetry_multiplicity
 _atom_site_fract_x
 _atom_site_fract_y
 _atom_site_fract_z
 _atom_site_occupancy
  Mg  Mg0  1  0.00000000  0.00000000  0.00000000  1
  Ti  Ti0  1  0.17318600  0.17318600  0.17318600  1
  Ti  Ti1  1  0.82681400  0.82681400  0.82681400  1
  V  V0  1  0.34797600  0.34797600  0.34797600  1
  V  V1  1  0.65202400  0.65202400  0.65202400  1
  O  O0  1  0.05243000  0.78113200  0.41424000  1
  O  O1  1  0.41424000  0.05243000  0.78113200  1
  O  O2  1  0.78113200  0.41424000  0.05243000  1
  O  O3  1  0.21886800  0.58576000  0.94757000  1
  O  O4  1  0.58576000  0.94757000  0.21886800  1
  O  O5  1  0.94757000  0.21886800  0.58576000  1
loop_
_geom_bond_atom_site_label_1
_geom_bond_atom_site_label_2
_geom_bond_distance
_geom_bond_site_symmetry_2
Mg0 O5 2.076724 1_454
Mg0 O0 2.076724 1_545
Mg0 O3 2.076724 1_544
Mg0 O2 2.076724 1_455
Mg0 O1 2.076724 1_554
Mg0 O4 2.076724 1_445
O0 Ti1 2.042609 1_455
O0 Ti0 2.152090 1_565
O0 V0 2.161057 1_555
O0 V1 2.228391 1_455
O1 Ti1 2.042609 1_545
O1 Ti0 2.152090 1_556
O1 V0 2.161057 1_555
O1 V1 2.228391 1_545
O2 Ti1 2.042609 1_554
O2 Ti0 2.152090 1_655
O2 V0 2.161057 1_555
O2 V1 2.228391 1_554
O3 Ti0 2.042609 1_556
O3 Ti1 2.152090 1_455
O3 V1 2.161057 1_555
O3 V0 2.228391 1_556
O4 Ti0 2.042609 1_565
O4 Ti1 2.152090 1_554
O4 V1 2.161057 1_555
O4 V0 2.228391 1_565
O5 Ti0 2.042609 1_655
O5 Ti1 2.152090 1_545
O5 V1 2.161057 1_555
O5 V0 2.228391 1_655
