# generated using pymatgen
data_Na8Zr3ZnSi4(PO12)2
_symmetry_space_group_name_H-M   'P 1'
_cell_length_a   9.25659776
_cell_length_b   9.24061123
_cell_length_c   22.65194153
_cell_angle_alpha   89.91892672
_cell_angle_beta   90.21305480
_cell_angle_gamma   120.07351955
_symmetry_Int_Tables_number   1
_chemical_formula_structural   Na8Zr3ZnSi4(PO12)2
_chemical_formula_sum   'Na24 Zr9 Zn3 Si12 P6 O72'
_cell_volume   1676.72900810
_cell_formula_units_Z   3
loop_
 _symmetry_equiv_pos_site_id
 _symmetry_equiv_pos_as_xyz
  1  'x, y, z'
loop_
 _atom_site_type_symbol
 _atom_site_label
 _atom_site_symmetry_multiplicity
 _atom_site_fract_x
 _atom_site_fract_y
 _atom_site_fract_z
 _atom_site_occupancy
  Na  Na0  1  0.63744234  0.01863185  0.24138807  1
  Na  Na1  1  0.38276778  0.36245577  0.24220496  1
  Na  Na2  1  0.98042229  0.61910035  0.24222511  1
  Na  Na3  1  0.63537796  0.61930446  0.74452568  1
  Na  Na4  1  0.98004866  0.36600565  0.74806677  1
  Na  Na5  1  0.38405374  0.01389144  0.74283297  1
  Na  Na6  1  0.31236745  0.33474758  0.58594055  1
  Na  Na7  1  0.03028051  0.69844220  0.58436948  1
  Na  Na8  1  0.66149809  0.97087751  0.59000124  1
  Na  Na9  1  0.30924295  0.97120584  0.08351742  1
  Na  Na10  1  0.66199899  0.69061263  0.08351541  1
  Na  Na11  1  0.02899981  0.33796275  0.08329496  1
  Na  Na12  1  0.96630274  0.66447054  0.91699489  1
  Na  Na13  1  0.69914546  0.03530178  0.91696169  1
  Na  Na14  1  0.33428850  0.30083353  0.91812944  1
  Na  Na15  1  0.96903615  0.28943006  0.41166797  1
  Na  Na16  1  0.31506995  0.03237061  0.41397516  1
  Na  Na17  1  0.71440507  0.67886184  0.41090350  1
  Na  Na18  1  0.00592862  0.99813777  0.49367406  1
  Na  Na19  1  0.00090017  0.00106786  0.99878292  1
  Na  Na20  1  0.67077363  0.33350867  0.82727863  1
  Na  Na21  1  0.66773098  0.33684223  0.32652294  1
  Na  Na22  1  0.33439884  0.66748998  0.16169290  1
  Na  Na23  1  0.33897478  0.67509690  0.66851172  1
  Zr  Zr0  1  0.99386902  0.99531905  0.85156554  1
  Zr  Zr1  1  0.99780573  0.99296056  0.64805161  1
  Zr  Zr2  1  0.00040768  0.99985583  0.14791163  1
  Zr  Zr3  1  0.66718193  0.33361843  0.98297023  1
  Zr  Zr4  1  0.66344976  0.33825543  0.48177952  1
  Zr  Zr5  1  0.33319000  0.66679127  0.01800352  1
  Zr  Zr6  1  0.33163836  0.66644695  0.51802713  1
  Zr  Zr7  1  0.32988630  0.66194932  0.31567977  1
  Zr  Zr8  1  0.33402899  0.67056044  0.81461876  1
  Zn  Zn0  1  0.00772966  0.00032668  0.35035693  1
  Zn  Zn1  1  0.66606903  0.33227108  0.68235868  1
  Zn  Zn2  1  0.66674574  0.33326867  0.17121383  1
  Si  Si0  1  0.99803291  0.69879819  0.74960272  1
  Si  Si1  1  0.70205890  0.00172908  0.74890426  1
  Si  Si2  1  0.37402147  0.04002286  0.58556585  1
  Si  Si3  1  0.66508120  0.62680226  0.58605183  1
  Si  Si4  1  0.96231254  0.62710393  0.08658115  1
  Si  Si5  1  0.66548825  0.03828507  0.08653720  1
  Si  Si6  1  0.37332369  0.33478570  0.08629011  1
  Si  Si7  1  0.62782297  0.66529646  0.91648333  1
  Si  Si8  1  0.03739089  0.37076398  0.91613847  1
  Si  Si9  1  0.33388170  0.96415002  0.91667479  1
  Si  Si10  1  0.33093805  0.36733585  0.41640990  1
  Si  Si11  1  0.03449112  0.66601476  0.41602021  1
  P  P0  1  0.29676182  0.00054205  0.25288853  1
  P  P1  1  0.70625448  0.70798810  0.25352582  1
  P  P2  1  0.99978182  0.29255902  0.25342785  1
  P  P3  1  0.29233896  0.29434733  0.75025416  1
  P  P4  1  0.96070063  0.33413183  0.58428474  1
  P  P5  1  0.62697518  0.96162709  0.41641722  1
  O  O0  1  0.21417699  0.02070584  0.30845131  1
  O  O1  1  0.81005850  0.79348532  0.30894834  1
  O  O2  1  0.98043854  0.18853614  0.30875768  1
  O  O3  1  0.20084587  0.18643763  0.80516310  1
  O  O4  1  0.98041478  0.79698757  0.80744451  1
  O  O5  1  0.81826657  0.02228692  0.80726283  1
  O  O6  1  0.79629855  0.97680521  0.69108011  1
  O  O7  1  0.18399292  0.20919566  0.69427599  1
  O  O8  1  0.02938895  0.82119533  0.69167170  1
  O  O9  1  0.79365843  0.81729308  0.19749888  1
  O  O10  1  0.02412500  0.20705950  0.19756406  1
  O  O11  1  0.18440361  0.97545647  0.19734290  1
  O  O12  1  0.88867954  0.36781907  0.63932607  1
  O  O13  1  0.48967162  0.11594128  0.64341823  1
  O  O14  1  0.62804938  0.51131185  0.64350480  1
  O  O15  1  0.88711847  0.51482967  0.14523419  1
  O  O16  1  0.62825750  0.11327209  0.14506615  1
  O  O17  1  0.48578771  0.37233512  0.14507314  1
  O  O18  1  0.45768041  0.30049981  0.02793642  1
  O  O19  1  0.84375786  0.54298857  0.02793311  1
  O  O20  1  0.69969138  0.15699617  0.02804671  1
  O  O21  1  0.46390380  0.15542364  0.52627604  1
  O  O22  1  0.69759117  0.54074199  0.52688506  1
  O  O23  1  0.85073012  0.30690636  0.52843623  1
  O  O24  1  0.54145479  0.69627361  0.97439045  1
  O  O25  1  0.15423202  0.45849983  0.97445563  1
  O  O26  1  0.30256010  0.84614450  0.97464015  1
  O  O27  1  0.53811967  0.85196531  0.47146306  1
  O  O28  1  0.31150367  0.46390868  0.47402979  1
  O  O29  1  0.15273328  0.69170659  0.47394090  1
  O  O30  1  0.13064050  0.63971357  0.35881976  1
  O  O31  1  0.51433334  0.87566028  0.36142497  1
  O  O32  1  0.36468072  0.49171767  0.35900460  1
  O  O33  1  0.12628020  0.48892222  0.85837158  1
  O  O34  1  0.36357202  0.87422479  0.85914037  1
  O  O35  1  0.51032820  0.63597666  0.85849477  1
  O  O36  1  0.01264041  0.82937229  0.41275503  1
  O  O37  1  0.79959344  0.97809530  0.41317530  1
  O  O38  1  0.16379201  0.18520195  0.41310296  1
  O  O39  1  0.02097170  0.18620419  0.91247077  1
  O  O40  1  0.16870918  0.98438532  0.91194607  1
  O  O41  1  0.81365604  0.83315130  0.91297720  1
  O  O42  1  0.98049160  0.17657098  0.58784021  1
  O  O43  1  0.18941687  0.02790314  0.58742849  1
  O  O44  1  0.83413488  0.81505057  0.58738807  1
  O  O45  1  0.97976479  0.81419986  0.09115483  1
  O  O46  1  0.83467335  0.02056361  0.09126066  1
  O  O47  1  0.18602629  0.16548976  0.09102473  1
  O  O48  1  0.68404330  0.16675157  0.74742085  1
  O  O49  1  0.46438976  0.31031922  0.74882663  1
  O  O50  1  0.83063699  0.51785228  0.74680130  1
  O  O51  1  0.68353330  0.53179682  0.24950524  1
  O  O52  1  0.84761379  0.31654359  0.24903065  1
  O  O53  1  0.47213984  0.15476115  0.24830078  1
  O  O54  1  0.64575279  0.49863882  0.92160576  1
  O  O55  1  0.85330351  0.35411289  0.92133815  1
  O  O56  1  0.50240283  0.14755596  0.92137575  1
  O  O57  1  0.64095158  0.13559745  0.42115279  1
  O  O58  1  0.50184513  0.35346764  0.42020677  1
  O  O59  1  0.85425559  0.49030543  0.41969132  1
  O  O60  1  0.34761581  0.49730240  0.07875442  1
  O  O61  1  0.15016314  0.65283227  0.07903988  1
  O  O62  1  0.50302523  0.84994240  0.07897917  1
  O  O63  1  0.34491777  0.84874800  0.57811071  1
  O  O64  1  0.50221659  0.65312501  0.57764490  1
  O  O65  1  0.13926768  0.48999752  0.57662074  1
  O  O66  1  0.30979680  0.83646403  0.25438991  1
  O  O67  1  0.53036770  0.69746244  0.25443706  1
  O  O68  1  0.16566519  0.47012186  0.25459811  1
  O  O69  1  0.30423589  0.46825973  0.75324143  1
  O  O70  1  0.16916367  0.68586719  0.75221157  1
  O  O71  1  0.52028514  0.82620501  0.75184450  1
loop_
_geom_bond_atom_site_label_1
_geom_bond_atom_site_label_2
_geom_bond_distance
_geom_bond_site_symmetry_2
Na0 O16 2.366510 1_555
Na0 O53 2.424790 1_555
Na0 O52 2.454485 1_555
Na0 O67 2.632342 1_545
Na0 O66 2.647126 1_545
Na1 O17 2.384635 1_555
Na1 O51 2.420350 1_555
Na1 O53 2.444699 1_555
Na1 O68 2.667595 1_555
Na1 O67 2.699503 1_555
Na1 O32 2.944038 1_555
Na2 O15 2.378892 1_555
Na2 O52 2.430461 1_555
Na2 O51 2.451842 1_555
Na2 O66 2.695146 1_655
Na2 O68 2.697246 1_655
Na2 O30 2.941742 1_655
Na2 O11 3.035730 1_655
Na3 O50 2.417791 1_555
Na3 O49 2.477512 1_555
Na3 O14 2.484815 1_555
Na3 O71 2.619429 1_555
Na3 O69 2.664347 1_555
Na3 O35 2.868879 1_555
Na4 O50 2.413919 1_555
Na4 O48 2.416930 1_555
Na4 O70 2.573605 1_655
Na4 O12 2.604130 1_555
Na4 O69 2.658512 1_655
Na4 O33 2.794180 1_655
Na5 O48 2.405045 1_555
Na5 O13 2.450036 1_555
Na5 O49 2.456283 1_555
Na5 O71 2.613202 1_545
Na5 O70 2.673614 1_545
Na5 O34 2.896813 1_545
Na6 O43 2.470205 1_555
Na6 O64 2.568706 1_555
Na6 O65 2.640169 1_555
Na6 O42 2.660130 1_455
Na6 O7 2.722529 1_555
Na6 O28 2.802076 1_555
Na6 O14 2.846156 1_555
Na6 O21 2.981616 1_555
Na7 O63 2.525870 1_555
Na7 O44 2.534600 1_455
Na7 O65 2.590070 1_555
Na7 O43 2.635994 1_565
Na7 O8 2.685499 1_555
Na7 O29 2.763699 1_555
Na7 O12 2.930820 1_455
Na7 O22 2.963235 1_455
Na8 O64 2.556187 1_555
Na8 O63 2.571813 1_555
Na8 O42 2.590376 1_565
Na8 O6 2.590948 1_555
Na8 O44 2.633958 1_555
Na8 O13 2.818948 1_565
Na8 O27 2.906789 1_555
Na9 O61 2.547896 1_555
Na9 O62 2.549500 1_555
Na9 O47 2.570494 1_565
Na9 O45 2.646692 1_455
Na9 O26 2.712410 1_554
Na9 O11 2.837753 1_555
Na9 O16 2.911469 1_565
Na9 O18 2.922998 1_565
Na10 O60 2.541576 1_555
Na10 O62 2.552167 1_555
Na10 O45 2.572218 1_555
Na10 O46 2.645167 1_565
Na10 O24 2.719501 1_554
Na10 O9 2.842074 1_555
Na10 O17 2.907276 1_555
Na10 O19 2.932166 1_555
Na11 O61 2.542119 1_555
Na11 O60 2.554710 1_555
Na11 O46 2.565909 1_455
Na11 O47 2.646225 1_555
Na11 O25 2.717014 1_554
Na11 O10 2.846478 1_555
Na11 O20 2.919478 1_455
Na11 O15 2.921634 1_455
Na12 O55 2.514380 1_555
Na12 O54 2.570653 1_555
Na12 O41 2.576895 1_555
Na12 O40 2.590791 1_655
Na12 O4 2.740080 1_555
Na12 O19 2.756612 1_556
Na13 O56 2.509496 1_555
Na13 O55 2.551786 1_555
Na13 O41 2.570355 1_545
Na13 O39 2.582230 1_655
Na13 O5 2.749388 1_555
Na13 O20 2.756544 1_556
Na14 O54 2.525199 1_555
Na14 O40 2.535214 1_545
Na14 O39 2.543342 1_555
Na14 O56 2.577026 1_555
Na14 O18 2.733835 1_556
Na14 O3 2.804768 1_555
Na15 O38 2.432761 1_655
Na15 O37 2.493126 1_545
Na15 O2 2.533984 1_555
Na15 O59 2.566391 1_555
Na15 O57 2.639554 1_555
Na15 O23 2.901985 1_555
Na16 O38 2.436691 1_555
Na16 O36 2.468421 1_545
Na16 O0 2.545722 1_555
Na16 O58 2.582827 1_555
Na16 O57 2.673742 1_555
Na16 O21 2.841510 1_555
Na17 O36 2.389249 1_655
Na17 O37 2.466793 1_555
Na17 O1 2.511561 1_555
Na17 O59 2.647456 1_555
Na17 O58 2.651193 1_555
Na17 O22 2.889616 1_555
Na18 O36 2.429345 1_555
Na18 O38 2.435910 1_565
Na18 O37 2.574446 1_455
Na18 O43 2.641455 1_565
Na18 O44 2.686260 1_455
Na18 O42 2.779705 1_465
Na19 O39 2.541359 1_555
Na19 O41 2.545135 1_445
Na19 O40 2.563081 1_545
Na19 O47 2.642683 1_556
Na19 O45 2.655639 1_446
Na19 O46 2.662908 1_456
Na20 O48 2.420962 1_555
Na20 O50 2.428920 1_555
Na20 O49 2.533612 1_555
Na20 O55 2.661310 1_555
Na20 O56 2.693548 1_555
Na20 O54 2.704549 1_555
Na21 O51 2.457505 1_555
Na21 O53 2.485963 1_555
Na21 O52 2.494934 1_555
Na21 O59 2.640744 1_555
Na21 O58 2.673287 1_555
Na21 O57 2.764983 1_555
Na22 O62 2.482887 1_555
Na22 O61 2.485461 1_555
Na22 O60 2.494120 1_555
Na22 O67 2.692695 1_555
Na22 O66 2.695948 1_555
Na22 O68 2.711696 1_555
Na23 O71 2.442317 1_555
Na23 O70 2.500971 1_555
Na23 O63 2.583464 1_555
Na23 O69 2.611206 1_555
Na23 O64 2.625446 1_555
Na23 O65 2.736444 1_555
O0 P0 1.534199 1_555
O0 Zn0 2.059311 1_555
O1 P1 1.535110 1_555
O1 Zn0 2.090050 1_665
O2 P2 1.533828 1_555
O2 Zn0 2.100093 1_655
O3 P3 1.554524 1_555
O3 Zr0 2.124398 1_445
O4 Si0 1.649181 1_555
O4 Zr0 2.036829 1_555
O5 Si1 1.651072 1_555
O5 Zr0 2.025961 1_545
O6 Si1 1.655409 1_565
O6 Zr1 2.045863 1_555
O7 P3 1.560546 1_555
O7 Zr1 2.144850 1_445
O8 Si0 1.659845 1_455
O8 Zr1 2.009850 1_455
O9 P1 1.571763 1_555
O9 Zr2 2.131931 1_655
O10 P2 1.568329 1_455
O10 Zr2 2.135932 1_545
O11 P0 1.570994 1_565
O11 Zr2 2.139011 1_555
O12 P4 1.520235 1_555
O12 Zn1 2.154035 1_555
O13 Si2 1.610899 1_555
O13 Zn1 2.040405 1_555
O14 Si3 1.607131 1_555
O14 Zn1 2.052505 1_555
O15 Si4 1.614087 1_555
O15 Zn2 1.974444 1_555
O16 Si5 1.613065 1_555
O16 Zn2 1.971396 1_555
O17 Si6 1.614357 1_555
O17 Zn2 1.970992 1_555
O18 Si6 1.647464 1_555
O18 Zr3 2.076276 1_554
O19 Si4 1.646377 1_555
O19 Zr3 2.067825 1_554
O20 Si5 1.646183 1_555
O20 Zr3 2.069327 1_554
O21 Si2 1.657761 1_555
O21 Zr4 2.040474 1_555
O22 Si3 1.662857 1_555
O22 Zr4 2.013749 1_555
O23 P4 1.560320 1_555
O23 Zr4 2.166793 1_555
O24 Si7 1.637039 1_555
O24 Zr5 2.062460 1_556
O25 Si8 1.638805 1_555
O25 Zr5 2.054155 1_556
O26 Si9 1.636793 1_555
O26 Zr5 2.063069 1_556
O27 P5 1.557832 1_555
O27 Zr6 2.104879 1_555
O28 Si10 1.642625 1_555
O28 Zr6 2.045752 1_555
O29 Si11 1.644840 1_555
O29 Zr6 2.041744 1_555
O30 Si11 1.660209 1_555
O30 Zr7 2.007925 1_555
O31 P5 1.559796 1_555
O31 Zr7 2.121825 1_555
O32 Si10 1.657855 1_555
O32 Zr7 2.010567 1_555
O33 Si8 1.638597 1_555
O33 Zr8 2.066909 1_555
O34 Si9 1.642908 1_555
O34 Zr8 2.030082 1_555
O35 Si7 1.636082 1_555
O35 Zr8 2.064665 1_555
O36 Si11 1.621917 1_555
O36 Zn0 2.135549 1_565
O37 P5 1.529328 1_555
O37 Zn0 2.324181 1_665
O38 Si10 1.619184 1_555
O38 Zn0 2.131606 1_555
O39 Si8 1.636787 1_555
O39 Zr0 2.153701 1_445
O40 Si9 1.633809 1_555
O40 Zr0 2.155745 1_455
O41 Si7 1.642493 1_555
O41 Zr0 2.114120 1_555
O42 P4 1.557800 1_555
O42 Zr1 2.242538 1_545
O43 Si2 1.656224 1_555
O43 Zr1 2.139814 1_445
O44 Si3 1.657497 1_555
O44 Zr1 2.093084 1_555
O45 Si4 1.657204 1_555
O45 Zr2 2.075688 1_655
O46 Si5 1.657286 1_555
O46 Zr2 2.077452 1_645
O47 Si6 1.657502 1_555
O47 Zr2 2.080994 1_545
O48 Si1 1.615228 1_555
O48 Zn1 2.187679 1_555
O49 P3 1.524472 1_555
O49 Zn1 2.331041 1_555
O50 Si0 1.613606 1_555
O50 Zn1 2.182809 1_555
O51 P1 1.536352 1_555
O51 Zn2 2.501239 1_555
O52 P2 1.534551 1_555
O52 Zn2 2.484076 1_555
O53 P0 1.536003 1_555
O53 Zn2 2.460129 1_555
O54 Si7 1.633457 1_555
O54 Zr3 2.142873 1_555
O55 Si8 1.637043 1_655
O55 Zr3 2.154828 1_555
O56 Si9 1.632995 1_545
O56 Zr3 2.142884 1_555
O57 P5 1.550658 1_545
O57 Zr4 2.247352 1_555
O58 Si10 1.651891 1_555
O58 Zr4 2.097018 1_555
O59 Si11 1.646940 1_655
O59 Zr4 2.144160 1_555
O60 Si6 1.642609 1_555
O60 Zr5 2.136963 1_555
O61 Si4 1.642285 1_455
O61 Zr5 2.143928 1_555
O62 Si5 1.641856 1_565
O62 Zr5 2.137161 1_555
O63 Si2 1.657837 1_565
O63 Zr6 2.122017 1_555
O64 Si3 1.653315 1_555
O64 Zr6 2.123801 1_555
O65 P4 1.565945 1_455
O65 Zr6 2.166243 1_555
O66 P0 1.580409 1_565
O66 Zr7 2.203384 1_555
O67 P1 1.581827 1_555
O67 Zr7 2.209889 1_555
O68 P2 1.589171 1_455
O68 Zr7 2.158249 1_555
O69 P3 1.556348 1_555
O69 Zr8 2.234153 1_555
O70 Si0 1.648058 1_455
O70 Zr8 2.132388 1_555
O71 Si1 1.652780 1_565
O71 Zr8 2.142498 1_555
