# generated using pymatgen
data_Na10Zr6Zn2Si7S5O48
_symmetry_space_group_name_H-M   'P 1'
_cell_length_a   18.26676525
_cell_length_b   9.15329492
_cell_length_c   23.03024201
_cell_angle_alpha   90.07314497
_cell_angle_beta   90.06269879
_cell_angle_gamma   120.09695227
_symmetry_Int_Tables_number   1
_chemical_formula_structural   Na10Zr6Zn2Si7S5O48
_chemical_formula_sum   'Na30 Zr18 Zn6 Si21 S15 O144'
_cell_volume   3331.51592812
_cell_formula_units_Z   3
loop_
 _symmetry_equiv_pos_site_id
 _symmetry_equiv_pos_as_xyz
  1  'x, y, z'
loop_
 _atom_site_type_symbol
 _atom_site_label
 _atom_site_symmetry_multiplicity
 _atom_site_fract_x
 _atom_site_fract_y
 _atom_site_fract_z
 _atom_site_occupancy
  Na  Na0  1  0.81720010  0.01140994  0.24742697  1
  Na  Na1  1  0.18788457  0.37487644  0.24615082  1
  Na  Na2  1  0.68980537  0.36129889  0.25145541  1
  Na  Na3  1  0.99233167  0.61527275  0.25155226  1
  Na  Na4  1  0.49453194  0.63446517  0.24460365  1
  Na  Na5  1  0.31825915  0.62160719  0.74778559  1
  Na  Na6  1  0.99463626  0.35351355  0.74623826  1
  Na  Na7  1  0.49164763  0.37195640  0.75068406  1
  Na  Na8  1  0.19229515  0.02268224  0.74705874  1
  Na  Na9  1  0.68676222  0.99778758  0.74685382  1
  Na  Na10  1  0.14832127  0.32728870  0.58163549  1
  Na  Na11  1  0.01618181  0.69429085  0.58387892  1
  Na  Na12  1  0.48765716  0.66460320  0.91795689  1
  Na  Na13  1  0.99141493  0.67605585  0.92006402  1
  Na  Na14  1  0.84907236  0.02597969  0.91427639  1
  Na  Na15  1  0.49163194  0.30941011  0.41973480  1
  Na  Na16  1  0.16402523  0.02483963  0.41902912  1
  Na  Na17  1  0.35032657  0.66898060  0.41335168  1
  Na  Na18  1  0.99671190  0.00334014  0.49969392  1
  Na  Na19  1  0.51081201  0.00934009  0.49552974  1
  Na  Na20  1  0.00936599  0.01132825  0.99579759  1
  Na  Na21  1  0.50278512  0.00975843  0.00052918  1
  Na  Na22  1  0.32874934  0.31797353  0.82899574  1
  Na  Na23  1  0.83100202  0.33357991  0.83021770  1
  Na  Na24  1  0.33622943  0.33883692  0.32983844  1
  Na  Na25  1  0.83184646  0.33852861  0.33073948  1
  Na  Na26  1  0.17363457  0.67023275  0.16129910  1
  Na  Na27  1  0.66239228  0.67088247  0.16347400  1
  Na  Na28  1  0.16969637  0.67509881  0.66451474  1
  Na  Na29  1  0.67215418  0.67692343  0.66167466  1
  Zr  Zr0  1  0.99504671  0.99775174  0.35325304  1
  Zr  Zr1  1  0.50517335  0.99268727  0.35422139  1
  Zr  Zr2  1  0.00354897  0.01596765  0.85472524  1
  Zr  Zr3  1  0.49882007  0.00265545  0.85322876  1
  Zr  Zr4  1  0.99660393  0.01219365  0.64647450  1
  Zr  Zr5  1  0.49797635  0.99211000  0.64826100  1
  Zr  Zr6  1  0.99740746  0.00440535  0.14746078  1
  Zr  Zr7  1  0.49473820  0.97524844  0.14602217  1
  Zr  Zr8  1  0.33456314  0.32454266  0.98115830  1
  Zr  Zr9  1  0.83188259  0.33705314  0.97852539  1
  Zr  Zr10  1  0.33131608  0.32581979  0.48095330  1
  Zr  Zr11  1  0.83507731  0.33917603  0.47848909  1
  Zr  Zr12  1  0.66112583  0.66059511  0.01620339  1
  Zr  Zr13  1  0.16475680  0.67168789  0.51616622  1
  Zr  Zr14  1  0.16885944  0.66349329  0.31653899  1
  Zr  Zr15  1  0.66568486  0.66295787  0.31662388  1
  Zr  Zr16  1  0.16620467  0.66920670  0.81717639  1
  Zr  Zr17  1  0.67001786  0.67415416  0.81652816  1
  Zn  Zn0  1  0.32945659  0.31869131  0.68931205  1
  Zn  Zn1  1  0.83753018  0.31326435  0.67795142  1
  Zn  Zn2  1  0.33893133  0.35941948  0.17728317  1
  Zn  Zn3  1  0.83391895  0.33495357  0.19033029  1
  Zn  Zn4  1  0.15883548  0.66818025  0.01108882  1
  Zn  Zn5  1  0.65744272  0.64967809  0.51059849  1
  Si  Si0  1  0.64793565  0.00038480  0.24858404  1
  Si  Si1  1  0.35098470  0.70043784  0.25101863  1
  Si  Si2  1  0.85253647  0.70571720  0.24898842  1
  Si  Si3  1  0.00052218  0.29599539  0.24950955  1
  Si  Si4  1  0.14794802  0.29723953  0.74919057  1
  Si  Si5  1  0.49964241  0.70308128  0.75039408  1
  Si  Si6  1  0.35265147  -0.00105648  0.74964481  1
  Si  Si7  1  0.85085277  0.00071497  0.75078188  1
  Si  Si8  1  0.97983896  0.33644431  0.58436252  1
  Si  Si9  1  0.18708902  0.03767113  0.58726405  1
  Si  Si10  1  0.48162458  0.62438680  0.08403700  1
  Si  Si11  1  0.81230480  0.66822859  0.91765252  1
  Si  Si12  1  0.02356952  0.37775894  0.92026274  1
  Si  Si13  1  0.51940844  0.37044240  0.91469248  1
  Si  Si14  1  0.16747031  0.96126185  0.91780362  1
  Si  Si15  1  0.66515278  0.95943261  0.91713029  1
  Si  Si16  1  0.31386673  0.95841587  0.41641318  1
  Si  Si17  1  0.16520076  0.37120404  0.41863805  1
  Si  Si18  1  0.66735556  0.37422703  0.41764179  1
  Si  Si19  1  0.01803937  0.66489243  0.41420434  1
  Si  Si20  1  0.52273614  0.66878735  0.41993543  1
  S  S0  1  0.14632598  0.00189812  0.24911723  1
  S  S1  1  0.49762413  0.28825033  0.25021560  1
  S  S2  1  0.64664843  0.29109930  0.74874230  1
  S  S3  1  0.99726099  0.70491134  0.75029401  1
  S  S4  1  0.48263669  0.33641731  0.58577961  1
  S  S5  1  0.68672023  0.03760790  0.58444764  1
  S  S6  1  0.33510614  0.62777633  0.58412856  1
  S  S7  1  0.82922932  0.61828085  0.58577850  1
  S  S8  1  0.98119027  0.62649140  0.08588862  1
  S  S9  1  0.33089377  0.03857020  0.08633008  1
  S  S10  1  0.83341675  0.04175238  0.08447141  1
  S  S11  1  0.18669131  0.33588130  0.08472045  1
  S  S12  1  0.68794615  0.33474974  0.08599389  1
  S  S13  1  0.31192567  0.66546600  0.91887823  1
  S  S14  1  0.81107962  0.95724268  0.41895276  1
  O  O0  1  0.10717359  0.02781112  0.30248328  1
  O  O1  1  0.60358371  0.03460496  0.30448888  1
  O  O2  1  0.41075366  0.79100069  0.30789174  1
  O  O3  1  0.91438856  0.79854361  0.30493345  1
  O  O4  1  0.48969848  0.19234583  0.30382275  1
  O  O5  1  0.98780232  0.17239917  0.30466420  1
  O  O6  1  0.09971762  0.16979871  0.80308919  1
  O  O7  1  0.60631678  0.18341340  0.80094511  1
  O  O8  1  0.48744616  0.79686519  0.80754546  1
  O  O9  1  0.98963185  0.78862439  0.80275560  1
  O  O10  1  0.41443582  0.02409405  0.80484928  1
  O  O11  1  0.91014848  0.03063121  0.80792528  1
  O  O12  1  0.40039872  0.96831378  0.69335024  1
  O  O13  1  0.89907590  0.97760577  0.69451122  1
  O  O14  1  0.08789678  0.21059149  0.69103724  1
  O  O15  1  0.59134944  0.20884917  0.69708580  1
  O  O16  1  0.01149686  0.81008902  0.69765188  1
  O  O17  1  0.51839987  0.83720449  0.69557023  1
  O  O18  1  0.39852820  0.81961760  0.19434856  1
  O  O19  1  0.90066477  0.83431370  0.19344801  1
  O  O20  1  0.01911393  0.20329962  0.19369742  1
  O  O21  1  0.51262916  0.20963568  0.19906952  1
  O  O22  1  0.09001585  0.97463503  0.19824168  1
  O  O23  1  0.58432206  0.96635312  0.19331113  1
  O  O24  1  0.44088470  0.35365980  0.63760805  1
  O  O25  1  0.94607032  0.38028385  0.64330140  1
  O  O26  1  0.24117074  0.12635315  0.64437964  1
  O  O27  1  0.73356777  0.11753210  0.63931394  1
  O  O28  1  0.32441201  0.52831543  0.63614874  1
  O  O29  1  0.81857213  0.51565525  0.63746512  1
  O  O30  1  0.44401100  0.52300963  0.14405590  1
  O  O31  1  0.93779439  0.52514678  0.13764662  1
  O  O32  1  0.31955927  0.12077786  0.13764866  1
  O  O33  1  0.82424283  0.12145440  0.13686802  1
  O  O34  1  0.23352331  0.34949823  0.13941004  1
  O  O35  1  0.73719700  0.35507065  0.13875781  1
  O  O36  1  0.22933331  0.31021733  0.03379672  1
  O  O37  1  0.73013223  0.31115149  0.03381326  1
  O  O38  1  0.42217897  0.53113971  0.02628253  1
  O  O39  1  0.92845106  0.54625238  0.03223041  1
  O  O40  1  0.34289675  0.14460650  0.03272260  1
  O  O41  1  0.84376757  0.14344303  0.03129780  1
  O  O42  1  0.22991749  0.15819126  0.52862618  1
  O  O43  1  0.72858670  0.14737222  0.53359736  1
  O  O44  1  0.34644943  0.54943201  0.53063050  1
  O  O45  1  0.84364390  0.53865529  0.53284670  1
  O  O46  1  0.42977989  0.31146840  0.53205756  1
  O  O47  1  0.91849117  0.31376698  0.52949860  1
  O  O48  1  0.27409695  0.69126082  0.96955117  1
  O  O49  1  0.76958450  0.70519921  0.97315799  1
  O  O50  1  0.08125671  0.45828996  0.97541024  1
  O  O51  1  0.57879516  0.46322543  0.97095809  1
  O  O52  1  0.14780711  0.84095005  0.97267887  1
  O  O53  1  0.64811367  0.83405534  0.97129866  1
  O  O54  1  0.26983429  0.83533344  0.47177968  1
  O  O55  1  0.77271654  0.85513473  0.46991608  1
  O  O56  1  0.15324445  0.45728029  0.47662321  1
  O  O57  1  0.64802098  0.45554195  0.47268349  1
  O  O58  1  0.07833500  0.70043322  0.47187171  1
  O  O59  1  0.58065696  0.70600333  0.47529841  1
  O  O60  1  0.06204428  0.64006191  0.35625394  1
  O  O61  1  0.56252728  0.63323283  0.35987581  1
  O  O62  1  0.25037258  0.87534535  0.36105893  1
  O  O63  1  0.76145147  0.87984534  0.36413157  1
  O  O64  1  0.18385921  0.49174888  0.36139849  1
  O  O65  1  0.68240491  0.48860191  0.35741231  1
  O  O66  1  0.06166382  0.49244485  0.86004984  1
  O  O67  1  0.56048670  0.48854005  0.85677915  1
  O  O68  1  0.18256875  0.87657453  0.85764258  1
  O  O69  1  0.68557892  0.88254883  0.85875543  1
  O  O70  1  0.26222094  0.64267831  0.86396756  1
  O  O71  1  0.75293480  0.63394702  0.86059974  1
  O  O72  1  0.01360005  0.83903162  0.40886844  1
  O  O73  1  0.50416703  0.82598407  0.41219513  1
  O  O74  1  0.40741375  0.98349814  0.40911235  1
  O  O75  1  0.89802801  0.97973670  0.41187022  1
  O  O76  1  0.08626542  0.17987305  0.41037143  1
  O  O77  1  0.57959271  0.19129991  0.40835328  1
  O  O78  1  0.00374883  0.18290763  0.91253218  1
  O  O79  1  0.50800859  0.18305547  0.90975031  1
  O  O80  1  0.08002529  0.96948120  0.90827126  1
  O  O81  1  0.57944299  0.97013023  0.91055201  1
  O  O82  1  0.39976686  0.81483527  0.91130637  1
  O  O83  1  0.90678633  0.83219002  0.90978674  1
  O  O84  1  0.48946581  0.17791753  0.58900202  1
  O  O85  1  0.99018498  0.16612451  0.58600763  1
  O  O86  1  0.08948023  0.01135435  0.59001677  1
  O  O87  1  0.60028578  0.02448903  0.58801576  1
  O  O88  1  0.41179891  0.80146721  0.58687504  1
  O  O89  1  0.91244569  0.78635940  0.58932724  1
  O  O90  1  0.48868098  0.81492822  0.08517341  1
  O  O91  1  0.98837743  0.79881281  0.08927145  1
  O  O92  1  0.41195918  0.03266518  0.08951379  1
  O  O93  1  0.91272559  0.02760673  0.08688644  1
  O  O94  1  0.10039114  0.17564313  0.08752527  1
  O  O95  1  0.60136518  0.18387906  0.08845566  1
  O  O96  1  0.34510703  0.16644134  0.74734939  1
  O  O97  1  0.84075578  0.17023470  0.74579132  1
  O  O98  1  0.24170506  0.32324453  0.74608319  1
  O  O99  1  0.72996713  0.30664322  0.74249918  1
  O  O100  1  0.41536406  0.52164382  0.74219659  1
  O  O101  1  0.92389275  0.53435872  0.74613049  1
  O  O102  1  0.34053483  0.51064246  0.24628393  1
  O  O103  1  0.84305879  0.52129961  0.24350297  1
  O  O104  1  0.42444110  0.31296831  0.24576746  1
  O  O105  1  0.91602530  0.30889719  0.24377471  1
  O  O106  1  0.22966853  0.15320750  0.24266865  1
  O  O107  1  0.74115969  0.16441982  0.24286137  1
  O  O108  1  0.32289371  0.51408402  0.92181566  1
  O  O109  1  0.82677954  0.50531332  0.92620338  1
  O  O110  1  0.42777787  0.36343633  0.92330106  1
  O  O111  1  0.92756029  0.35979383  0.92666116  1
  O  O112  1  0.24958141  0.15168905  0.92427809  1
  O  O113  1  0.75154162  0.14270970  0.92663568  1
  O  O114  1  0.32361367  0.14621444  0.42507239  1
  O  O115  1  0.81982850  0.12765077  0.42210180  1
  O  O116  1  0.25262463  0.35874154  0.42432533  1
  O  O117  1  0.74859890  0.34588541  0.42415930  1
  O  O118  1  0.42743736  0.49538407  0.42533929  1
  O  O119  1  0.92521726  0.49854213  0.42317994  1
  O  O120  1  0.17743999  0.48478381  0.07933197  1
  O  O121  1  0.68105309  0.48879583  0.07856218  1
  O  O122  1  0.06558851  0.64622803  0.08097351  1
  O  O123  1  0.57753882  0.64974090  0.07815863  1
  O  O124  1  0.25840214  0.86721377  0.07871231  1
  O  O125  1  0.75910368  0.87022066  0.07890006  1
  O  O126  1  0.17350027  0.84677872  0.57891110  1
  O  O127  1  0.67765645  0.86978914  0.57942049  1
  O  O128  1  0.25765549  0.64201448  0.57831550  1
  O  O129  1  0.75859852  0.64880950  0.57776427  1
  O  O130  1  0.07690670  0.50042818  0.57726538  1
  O  O131  1  0.56750361  0.48509466  0.58015164  1
  O  O132  1  0.14995726  0.84420862  0.25367836  1
  O  O133  1  0.65409355  0.82715197  0.25588067  1
  O  O134  1  0.25646349  0.67967752  0.25447473  1
  O  O135  1  0.75970531  0.69353838  0.25460066  1
  O  O136  1  0.08516112  0.48361130  0.25403876  1
  O  O137  1  0.57765807  0.46188212  0.25449585  1
  O  O138  1  0.15255259  0.48144638  0.75651680  1
  O  O139  1  0.64999523  0.45548315  0.75433790  1
  O  O140  1  0.07738841  0.69288164  0.75427709  1
  O  O141  1  0.58485685  0.68600105  0.75410719  1
  O  O142  1  0.25936431  0.82522538  0.75451823  1
  O  O143  1  0.75612463  0.83337595  0.75387360  1
loop_
_geom_bond_atom_site_label_1
_geom_bond_atom_site_label_2
_geom_bond_distance
_geom_bond_site_symmetry_2
Na0 O105 2.398225 1_555
Na0 O107 2.419311 1_555
Na0 O135 2.555937 1_545
Na0 O133 2.592642 1_545
Na0 O33 2.718745 1_555
Na0 O63 2.914702 1_545
Na0 O19 2.995879 1_545
Na0 O5 3.000184 1_555
Na1 O102 2.417494 1_555
Na1 O134 2.425419 1_555
Na1 O106 2.501749 1_555
Na1 O136 2.533355 1_555
Na1 O34 2.643727 1_555
Na1 O64 2.875162 1_555
Na1 O20 2.925943 1_555
Na2 O107 2.421084 1_555
Na2 O103 2.430063 1_555
Na2 O137 2.634557 1_555
Na2 O135 2.643605 1_555
Na2 O65 2.735351 1_555
Na2 O35 2.746468 1_555
Na2 O1 2.864333 1_555
Na3 O103 2.419813 1_555
Na3 O105 2.432517 1_555
Na3 O136 2.525965 1_655
Na3 O132 2.575291 1_655
Na3 O60 2.681339 1_655
Na3 O31 2.778323 1_555
Na3 O3 2.957463 1_555
Na4 O102 2.449889 1_555
Na4 O30 2.509915 1_555
Na4 O133 2.552436 1_555
Na4 O104 2.553686 1_555
Na4 O137 2.694239 1_555
Na4 O23 2.886245 1_555
Na4 O61 2.932135 1_555
Na4 O2 2.952639 1_555
Na5 O98 2.363221 1_555
Na5 O100 2.372359 1_555
Na5 O142 2.581798 1_555
Na5 O138 2.637402 1_555
Na5 O28 2.728236 1_555
Na5 O70 2.906386 1_555
Na6 O97 2.446654 1_555
Na6 O138 2.521571 1_655
Na6 O101 2.560356 1_555
Na6 O25 2.584956 1_555
Na6 O140 2.693912 1_655
Na6 O66 2.899890 1_655
Na6 O14 2.909533 1_655
Na6 O11 2.928432 1_555
Na7 O96 2.378848 1_555
Na7 O100 2.402516 1_555
Na7 O141 2.501733 1_555
Na7 O139 2.596062 1_555
Na7 O67 2.707577 1_555
Na7 O24 2.739969 1_555
Na8 O96 2.416493 1_555
Na8 O98 2.427700 1_555
Na8 O26 2.539714 1_555
Na8 O142 2.649190 1_545
Na8 O140 2.682058 1_545
Na8 O68 2.842103 1_545
Na8 O6 2.936406 1_555
Na9 O143 2.410137 1_555
Na9 O97 2.439671 1_565
Na9 O141 2.512273 1_555
Na9 O99 2.527514 1_565
Na9 O27 2.671692 1_565
Na9 O69 2.781879 1_555
Na9 O17 2.909921 1_555
Na9 O7 3.016755 1_565
Na10 O85 2.501559 1_455
Na10 O130 2.509388 1_555
Na10 O86 2.537674 1_555
Na10 O128 2.554226 1_555
Na10 O56 2.678298 1_555
Na10 O14 2.745523 1_555
Na10 O42 2.901822 1_555
Na11 O89 2.432799 1_455
Na11 O126 2.489531 1_555
Na11 O86 2.517277 1_565
Na11 O130 2.525114 1_555
Na11 O58 2.808738 1_555
Na11 O16 2.842658 1_555
Na11 O25 2.845373 1_455
Na11 O45 2.971296 1_455
Na12 O110 2.405796 1_555
Na12 O81 2.441374 1_555
Na12 O82 2.589619 1_555
Na12 O108 2.608927 1_555
Na12 O38 2.774113 1_556
Na12 O53 2.816659 1_555
Na12 O8 2.818512 1_555
Na12 O67 2.915583 1_555
Na13 O80 2.355854 1_655
Na13 O111 2.525616 1_555
Na13 O83 2.589224 1_555
Na13 O109 2.606600 1_555
Na13 O52 2.751520 1_655
Na13 O39 2.837485 1_556
Na13 O9 2.898649 1_555
Na13 O66 2.922746 1_655
Na14 O78 2.444997 1_655
Na14 O83 2.478676 1_545
Na14 O113 2.511192 1_555
Na14 O111 2.660131 1_555
Na14 O11 2.684055 1_555
Na14 O49 2.882201 1_545
Na14 O69 2.886651 1_545
Na14 O41 2.919975 1_556
Na15 O77 2.358284 1_555
Na15 O118 2.508227 1_555
Na15 O74 2.592369 1_545
Na15 O114 2.658835 1_555
Na15 O57 2.755520 1_555
Na15 O46 2.827746 1_555
Na15 O4 2.868812 1_555
Na15 O61 2.920219 1_555
Na16 O72 2.410023 1_545
Na16 O76 2.468355 1_555
Na16 O114 2.549975 1_555
Na16 O116 2.648187 1_555
Na16 O42 2.796686 1_555
Na16 O58 2.846095 1_545
Na16 O0 2.881997 1_555
Na16 O62 2.882227 1_545
Na17 O73 2.431655 1_555
Na17 O116 2.496581 1_555
Na17 O74 2.524862 1_555
Na17 O118 2.613453 1_555
Na17 O2 2.672282 1_555
Na17 O64 2.889557 1_555
Na17 O44 2.903076 1_555
Na17 O54 2.921574 1_555
Na18 O85 2.521295 1_555
Na18 O76 2.623652 1_655
Na18 O75 2.643368 1_545
Na18 O86 2.659182 1_655
Na18 O72 2.681627 1_645
Na18 O89 2.743443 1_545
Na19 O77 2.509727 1_555
Na19 O73 2.510340 1_545
Na19 O87 2.644165 1_555
Na19 O74 2.669603 1_545
Na19 O84 2.786373 1_555
Na19 O88 2.807890 1_545
Na20 O78 2.514598 1_555
Na20 O80 2.524974 1_545
Na20 O94 2.639234 1_556
Na20 O83 2.650590 1_445
Na20 O93 2.794706 1_456
Na20 O91 2.798145 1_446
Na21 O90 2.568252 1_545
Na21 O79 2.598696 1_554
Na21 O81 2.626829 1_544
Na21 O95 2.643611 1_555
Na21 O92 2.711379 1_555
Na21 O82 2.749850 1_544
Na22 O96 2.441105 1_555
Na22 O98 2.499437 1_555
Na22 O112 2.651636 1_555
Na22 O100 2.651973 1_555
Na22 O110 2.719663 1_555
Na22 O108 2.826049 1_555
Na23 O97 2.511623 1_555
Na23 O101 2.625951 1_555
Na23 O99 2.661254 1_555
Na23 O109 2.734344 1_555
Na23 O113 2.750189 1_555
Na23 O111 2.769035 1_555
Na24 O102 2.462943 1_555
Na24 O104 2.605682 1_555
Na24 O118 2.693705 1_555
Na24 O106 2.715116 1_555
Na24 O116 2.717727 1_555
Na24 O114 2.752382 1_555
Na25 O103 2.557922 1_555
Na25 O107 2.591647 1_555
Na25 O105 2.621627 1_555
Na25 O117 2.656184 1_555
Na25 O119 2.658050 1_555
Na25 O115 2.790625 1_555
Na26 O124 2.545836 1_555
Na26 O120 2.561284 1_555
Na26 O134 2.600506 1_555
Na26 O122 2.630936 1_555
Na26 O136 2.709177 1_555
Na26 O132 2.816634 1_555
Na27 O123 2.447867 1_555
Na27 O133 2.609288 1_555
Na27 O125 2.650969 1_555
Na27 O135 2.688544 1_555
Na27 O121 2.698356 1_555
Na27 O137 2.738135 1_555
Na28 O126 2.501928 1_555
Na28 O142 2.568186 1_555
Na28 O130 2.594835 1_555
Na28 O128 2.666027 1_555
Na28 O138 2.680259 1_555
Na28 O140 2.724923 1_555
Na29 O127 2.558532 1_555
Na29 O143 2.587334 1_555
Na29 O129 2.589799 1_555
Na29 O131 2.622919 1_555
Na29 O141 2.687228 1_555
Na29 O139 2.831341 1_555
O0 S0 1.499862 1_555
O0 Zr0 2.253618 1_445
O1 Si0 1.633372 1_555
O1 Zr1 2.001107 1_545
O2 Si1 1.637420 1_555
O2 Zr1 2.078181 1_555
O3 Si2 1.640041 1_555
O3 Zr0 2.007683 1_555
O4 S1 1.480359 1_555
O4 Zr1 2.299957 1_545
O5 Si3 1.639515 1_655
O5 Zr0 2.010380 1_545
O6 Si4 1.628837 1_555
O6 Zr2 2.002709 1_555
O7 S2 1.495454 1_555
O7 Zr3 2.189752 1_555
O8 Si5 1.645756 1_555
O8 Zr3 2.073693 1_565
O9 S3 1.473573 1_555
O9 Zr2 2.299968 1_665
O10 Si6 1.636661 1_555
O10 Zr3 1.988993 1_555
O11 Si7 1.636642 1_555
O11 Zr2 2.077636 1_655
O12 Si6 1.663419 1_565
O12 Zr5 1.979407 1_555
O13 Si7 1.639754 1_565
O13 Zr4 1.984309 1_565
O14 Si4 1.657565 1_555
O14 Zr4 2.021462 1_455
O15 S2 1.494934 1_555
O15 Zr5 2.169274 1_545
O16 S3 1.488913 1_455
O16 Zr4 2.322712 1_465
O17 Si5 1.673850 1_555
O17 Zr5 1.967307 1_555
O18 Si1 1.644251 1_555
O18 Zr7 1.963177 1_555
O19 Si2 1.662224 1_555
O19 Zr6 1.979258 1_565
O20 Si3 1.665705 1_555
O20 Zr6 1.968659 1_455
O21 S1 1.475379 1_555
O21 Zr7 2.343370 1_545
O22 S0 1.494090 1_565
O22 Zr6 2.182311 1_465
O23 Si0 1.643298 1_565
O23 Zr7 2.000125 1_555
O24 S4 1.467497 1_555
O24 Zn0 2.239688 1_555
O25 Si8 1.622554 1_555
O25 Zn1 1.931064 1_555
O26 Si9 1.598519 1_555
O26 Zn0 1.978699 1_555
O27 S5 1.493837 1_555
O27 Zn1 2.046449 1_555
O28 S6 1.458494 1_555
O28 Zn0 2.317810 1_555
O29 S7 1.468742 1_555
O29 Zn1 2.251300 1_555
O30 Si10 1.615449 1_555
O30 Zn2 1.906734 1_555
O31 S8 1.475516 1_555
O31 Zn3 2.191050 1_555
O32 S9 1.469842 1_555
O32 Zn2 2.224589 1_555
O33 S10 1.461935 1_555
O33 Zn3 2.239007 1_555
O34 S11 1.491322 1_555
O34 Zn2 2.072967 1_555
O35 S12 1.466221 1_555
O35 Zn3 2.210979 1_555
O36 S11 1.490689 1_555
O36 Zr8 2.221353 1_554
O37 S12 1.500983 1_555
O37 Zr9 2.167041 1_554
O38 Si10 1.655657 1_555
O38 Zr8 2.042898 1_554
O39 S8 1.509990 1_555
O39 Zr9 2.215767 1_554
O40 S9 1.518073 1_555
O40 Zr8 2.098121 1_554
O41 S10 1.492884 1_555
O41 Zr9 2.248469 1_554
O42 Si9 1.671303 1_555
O42 Zr10 2.036875 1_555
O43 S5 1.483277 1_555
O43 Zr11 2.250095 1_555
O44 S6 1.490809 1_555
O44 Zr10 2.236188 1_555
O45 S7 1.509131 1_555
O45 Zr11 2.152376 1_555
O46 S4 1.513491 1_555
O46 Zr10 2.206852 1_555
O47 Si8 1.630440 1_555
O47 Zr11 2.026824 1_555
O48 S13 1.435215 1_555
O48 Zn4 2.225199 1_556
O49 Si11 1.619714 1_555
O49 Zr12 2.066073 1_556
O50 Si12 1.575584 1_555
O50 Zn4 1.907156 1_556
O51 Si13 1.627055 1_555
O51 Zr12 1.969301 1_556
O52 Si14 1.595859 1_555
O52 Zn4 1.909619 1_556
O53 Si15 1.617543 1_555
O53 Zr12 2.007247 1_556
O54 Si16 1.624555 1_555
O54 Zr13 2.024235 1_555
O55 S14 1.445646 1_555
O55 Zn5 2.210352 1_555
O56 Si17 1.619356 1_555
O56 Zr13 2.075143 1_555
O57 Si18 1.596183 1_555
O57 Zn5 1.907550 1_555
O58 Si19 1.648969 1_555
O58 Zr13 2.003928 1_555
O59 Si20 1.579750 1_555
O59 Zn5 1.902083 1_555
O60 Si19 1.632111 1_555
O60 Zr14 2.067446 1_555
O61 Si20 1.669051 1_555
O61 Zr15 2.026732 1_555
O62 Si16 1.630444 1_555
O62 Zr14 2.030855 1_555
O63 S14 1.506264 1_555
O63 Zr15 2.169259 1_555
O64 Si17 1.642835 1_555
O64 Zr14 2.012265 1_555
O65 Si18 1.676762 1_555
O65 Zr15 2.003684 1_555
O66 Si12 1.668052 1_555
O66 Zr16 2.036870 1_555
O67 Si13 1.644034 1_555
O67 Zr17 2.085138 1_555
O68 Si14 1.676048 1_555
O68 Zr16 1.996620 1_555
O69 Si15 1.644346 1_555
O69 Zr17 2.028786 1_555
O70 S13 1.507971 1_555
O70 Zr16 2.172571 1_555
O71 Si11 1.629590 1_555
O71 Zr17 2.004086 1_555
O72 Si19 1.640871 1_555
O72 Zr0 2.088942 1_455
O73 Si20 1.645353 1_555
O73 Zr1 2.021981 1_555
O74 Si16 1.615006 1_555
O74 Zr1 2.156069 1_555
O75 S14 1.504748 1_555
O75 Zr0 2.168657 1_555
O76 Si17 1.627370 1_555
O76 Zr0 2.118860 1_445
O77 Si18 1.650935 1_555
O77 Zr1 2.054036 1_545
O78 Si12 1.641700 1_555
O78 Zr2 2.023990 1_555
O79 Si13 1.624650 1_555
O79 Zr3 2.040911 1_555
O80 Si14 1.650801 1_555
O80 Zr2 2.060837 1_565
O81 Si15 1.623898 1_555
O81 Zr3 2.106386 1_565
O82 S13 1.508426 1_555
O82 Zr3 2.215818 1_565
O83 Si11 1.633229 1_555
O83 Zr2 2.142489 1_665
O84 S4 1.519092 1_555
O84 Zr5 2.247197 1_545
O85 Si8 1.662294 1_555
O85 Zr4 2.026954 1_555
O86 Si9 1.676500 1_555
O86 Zr4 2.141687 1_455
O87 S5 1.524529 1_555
O87 Zr5 2.226377 1_545
O88 S6 1.503320 1_555
O88 Zr5 2.180727 1_555
O89 S7 1.529116 1_555
O89 Zr4 2.273761 1_565
O90 Si10 1.683309 1_555
O90 Zr7 1.990240 1_555
O91 S8 1.517625 1_555
O91 Zr6 2.246381 1_565
O92 S9 1.510338 1_555
O92 Zr7 2.247392 1_545
O93 S10 1.518752 1_555
O93 Zr6 2.170146 1_555
O94 S11 1.523829 1_555
O94 Zr6 2.225956 1_455
O95 S12 1.490476 1_555
O95 Zr7 2.340905 1_545
O96 Si6 1.607624 1_555
O96 Zn0 2.052765 1_555
O97 Si7 1.655996 1_555
O97 Zn1 2.059330 1_555
O98 Si4 1.608218 1_555
O98 Zn0 2.086151 1_555
O99 S2 1.463093 1_555
O99 Zn1 2.441568 1_555
O100 Si5 1.611872 1_555
O100 Zn0 2.112642 1_555
O101 S3 1.464042 1_555
O101 Zn1 2.415417 1_555
O102 Si1 1.653257 1_555
O102 Zn2 2.096594 1_555
O103 Si2 1.612973 1_555
O103 Zn3 2.036032 1_555
O104 S1 1.466924 1_555
O104 Zn2 2.402200 1_555
O105 Si3 1.611254 1_655
O105 Zn3 2.043713 1_555
O106 S0 1.464334 1_555
O106 Zn2 2.459545 1_555
O107 Si0 1.615022 1_555
O107 Zn3 2.031719 1_555
O108 S13 1.497786 1_555
O108 Zr8 2.302072 1_555
O109 Si11 1.651811 1_555
O109 Zr9 1.995290 1_555
O110 Si13 1.654724 1_555
O110 Zr8 2.049322 1_555
O111 Si12 1.684008 1_655
O111 Zr9 2.040810 1_555
O112 Si14 1.639183 1_545
O112 Zr8 2.038638 1_555
O113 Si15 1.641857 1_545
O113 Zr9 2.029468 1_555
O114 Si16 1.648770 1_545
O114 Zr10 2.034928 1_555
O115 S14 1.487764 1_545
O115 Zr11 2.228132 1_555
O116 Si17 1.662139 1_555
O116 Zr10 2.071036 1_555
O117 Si18 1.636451 1_555
O117 Zr11 2.039094 1_555
O118 Si20 1.671820 1_555
O118 Zr10 2.099799 1_555
O119 Si19 1.627385 1_655
O119 Zr11 2.015438 1_555
O120 S11 1.460471 1_555
O120 Zn4 2.445669 1_555
O121 S12 1.487267 1_555
O121 Zr12 2.290535 1_555
O122 S8 1.464015 1_455
O122 Zn4 2.279388 1_555
O123 Si10 1.653676 1_555
O123 Zr12 2.056711 1_555
O124 S9 1.469734 1_565
O124 Zn4 2.390763 1_555
O125 S10 1.478463 1_565
O125 Zr12 2.347945 1_555
O126 Si9 1.647940 1_565
O126 Zr13 2.102141 1_555
O127 S5 1.464526 1_565
O127 Zn5 2.439707 1_555
O128 S6 1.490316 1_555
O128 Zr13 2.336672 1_555
O129 S7 1.462174 1_555
O129 Zn5 2.411561 1_555
O130 Si8 1.660018 1_455
O130 Zr13 2.121359 1_555
O131 S4 1.468698 1_555
O131 Zn5 2.250360 1_555
O132 S0 1.481611 1_565
O132 Zr14 2.351396 1_555
O133 Si0 1.653694 1_565
O133 Zr15 2.141138 1_555
O134 Si1 1.641604 1_555
O134 Zr14 2.096085 1_555
O135 Si2 1.647891 1_555
O135 Zr15 2.143032 1_555
O136 Si3 1.639115 1_555
O136 Zr14 2.141215 1_555
O137 S1 1.530330 1_555
O137 Zr15 2.245077 1_555
O138 Si4 1.653930 1_555
O138 Zr16 2.128556 1_555
O139 S2 1.480391 1_555
O139 Zr17 2.334244 1_555
O140 S3 1.524545 1_455
O140 Zr16 2.264015 1_555
O141 Si5 1.642726 1_555
O141 Zr17 2.159397 1_555
O142 Si6 1.651704 1_565
O142 Zr16 2.142650 1_555
O143 Si7 1.639435 1_565
O143 Zr17 2.095567 1_555
