# generated using pymatgen
data_K8MgTi2O8
_symmetry_space_group_name_H-M   'P 1'
_cell_length_a   7.77945708
_cell_length_b   7.77945708
_cell_length_c   7.22815325
_cell_angle_alpha   90.00000000
_cell_angle_beta   90.00000000
_cell_angle_gamma   77.91924660
_symmetry_Int_Tables_number   1
_chemical_formula_structural   K8MgTi2O8
_chemical_formula_sum   'K8 Mg1 Ti2 O8'
_cell_volume   427.75960194
_cell_formula_units_Z   1
loop_
 _symmetry_equiv_pos_site_id
 _symmetry_equiv_pos_as_xyz
  1  'x, y, z'
loop_
 _atom_site_type_symbol
 _atom_site_label
 _atom_site_symmetry_multiplicity
 _atom_site_fract_x
 _atom_site_fract_y
 _atom_site_fract_z
 _atom_site_occupancy
  K  K0  1  0.14201673  0.75206871  0.52134461  1
  K  K1  1  0.14201673  0.75206871  0.97865539  1
  K  K2  1  0.52487939  0.83106715  0.25000000  1
  K  K3  1  0.07613527  0.39779621  0.75000000  1
  K  K4  1  0.39779621  0.07613527  0.75000000  1
  K  K5  1  0.83106715  0.52487939  0.25000000  1
  K  K6  1  0.75206871  0.14201673  0.97865539  1
  K  K7  1  0.75206871  0.14201673  0.52134461  1
  Mg  Mg0  1  0.15055493  0.15055493  0.25000000  1
  Ti  Ti0  1  0.37622906  0.37622906  0.25000000  1
  Ti  Ti1  1  0.66704138  0.66704138  0.75000000  1
  O  O0  1  0.30588948  0.61166459  0.25000000  1
  O  O1  1  0.42329048  0.74682524  0.75000000  1
  O  O2  1  0.27080093  0.27080093  0.05537198  1
  O  O3  1  0.27080093  0.27080093  0.44462802  1
  O  O4  1  0.76090855  0.76090855  0.95616033  1
  O  O5  1  0.76090855  0.76090855  0.54383967  1
  O  O6  1  0.74682524  0.42329048  0.75000000  1
  O  O7  1  0.61166459  0.30588948  0.25000000  1
loop_
_geom_bond_atom_site_label_1
_geom_bond_atom_site_label_2
_geom_bond_distance
_geom_bond_site_symmetry_2
K0 O0 2.466209 1_555
K0 O1 2.735678 1_555
K0 O5 2.955664 1_455
K1 O0 2.466209 1_556
K1 O1 2.735678 1_555
K1 O4 2.955664 1_455
K2 O0 2.651934 1_555
K2 O5 2.785854 1_555
K2 O4 2.785854 1_554
K3 O6 2.527795 1_455
K3 O3 2.741395 1_555
K3 O2 2.741395 1_556
K4 O1 2.527795 1_545
K4 O3 2.741395 1_555
K4 O2 2.741395 1_556
K5 O7 2.651934 1_555
K5 O5 2.785854 1_555
K5 O4 2.785854 1_554
K6 O7 2.466209 1_556
K6 O6 2.735678 1_555
K6 O4 2.955664 1_545
K7 O7 2.466209 1_555
K7 O6 2.735678 1_555
K7 O5 2.955664 1_545
Mg0 O3 2.023735 1_555
Mg0 O2 2.023735 1_555
O0 Ti0 1.798480 1_555
O1 Ti1 1.867713 1_555
O2 Ti0 1.898955 1_555
O3 Ti0 1.898955 1_555
O4 Ti1 1.873570 1_555
O5 Ti1 1.873570 1_555
O6 Ti1 1.867713 1_555
O7 Ti0 1.798480 1_555
