# generated using pymatgen
data_Na2La2Nb6Si7S5O48
_symmetry_space_group_name_H-M   'P 1'
_cell_length_a   18.00622405
_cell_length_b   9.06029212
_cell_length_c   23.47454117
_cell_angle_alpha   90.00968734
_cell_angle_beta   90.03559513
_cell_angle_gamma   120.17580241
_symmetry_Int_Tables_number   1
_chemical_formula_structural   Na2La2Nb6Si7S5O48
_chemical_formula_sum   'Na6 La6 Nb18 Si21 S15 O144'
_cell_volume   3310.70405208
_cell_formula_units_Z   3
loop_
 _symmetry_equiv_pos_site_id
 _symmetry_equiv_pos_as_xyz
  1  'x, y, z'
loop_
 _atom_site_type_symbol
 _atom_site_label
 _atom_site_symmetry_multiplicity
 _atom_site_fract_x
 _atom_site_fract_y
 _atom_site_fract_z
 _atom_site_occupancy
  Na  Na0  1  0.99412204  0.00067845  0.49758596  1
  Na  Na1  1  0.49546178  0.00341763  0.99413097  1
  Na  Na2  1  0.33840732  0.32043970  0.83172606  1
  Na  Na3  1  0.82350777  0.34061424  0.82953097  1
  Na  Na4  1  0.32454649  0.30855816  0.33477551  1
  Na  Na5  1  0.83588290  0.35571194  0.34031711  1
  La  La0  1  0.99965290  0.97874719  0.35415603  1
  La  La1  1  0.50048582  0.02107679  0.85183127  1
  La  La2  1  0.99101433  0.01317791  0.64955885  1
  La  La3  1  0.49273371  0.98089037  0.15387848  1
  La  La4  1  0.83931515  0.33484654  0.97807770  1
  La  La5  1  0.33821508  0.34184644  0.47802779  1
  Nb  Nb0  1  0.50137540  0.99663576  0.35739584  1
  Nb  Nb1  1  0.00186526  0.00430154  0.85464125  1
  Nb  Nb2  1  0.50262483  0.00762515  0.64611240  1
  Nb  Nb3  1  0.00142049  0.99752196  0.14643715  1
  Nb  Nb4  1  0.32216891  0.33443257  0.68756484  1
  Nb  Nb5  1  0.83278796  0.30522535  0.68542119  1
  Nb  Nb6  1  0.33052311  0.35007498  0.18833407  1
  Nb  Nb7  1  0.82277108  0.30898012  0.18911988  1
  Nb  Nb8  1  0.32268391  0.32617948  0.97211600  1
  Nb  Nb9  1  0.82739649  0.31722669  0.47450959  1
  Nb  Nb10  1  0.16800586  0.66887062  0.02175322  1
  Nb  Nb11  1  0.67959776  0.67382003  0.01944826  1
  Nb  Nb12  1  0.17174298  0.67313531  0.52401739  1
  Nb  Nb13  1  0.66965339  0.66611739  0.52239045  1
  Nb  Nb14  1  0.16325178  0.68293513  0.31227834  1
  Nb  Nb15  1  0.68406735  0.68018857  0.31087643  1
  Nb  Nb16  1  0.18336935  0.68753238  0.80963616  1
  Nb  Nb17  1  0.66195466  0.64243857  0.81039846  1
  Si  Si0  1  0.14892539  0.00572379  0.24875427  1
  Si  Si1  1  0.64432655  0.99172255  0.25382879  1
  Si  Si2  1  0.34782325  0.70255779  0.25609234  1
  Si  Si3  1  0.85584799  0.69874395  0.24615799  1
  Si  Si4  1  0.14599835  0.29748498  0.75328572  1
  Si  Si5  1  0.65316402  0.29239292  0.74797088  1
  Si  Si6  1  0.35675465  0.01429319  0.74621711  1
  Si  Si7  1  0.84766912  0.99439717  0.75594316  1
  Si  Si8  1  0.97754132  0.34361957  0.57811352  1
  Si  Si9  1  0.68767228  0.03918016  0.58151470  1
  Si  Si10  1  0.33618080  0.63237773  0.58387049  1
  Si  Si11  1  0.83427783  0.03852902  0.08418078  1
  Si  Si12  1  0.18882975  0.33656048  0.08270252  1
  Si  Si13  1  0.31133696  0.67147300  0.91946534  1
  Si  Si14  1  0.81277703  0.66970590  0.91152137  1
  Si  Si15  1  0.52322049  0.38943248  0.92141437  1
  Si  Si16  1  0.16110227  0.93929829  0.91663098  1
  Si  Si17  1  0.31049613  0.95167887  0.41516729  1
  Si  Si18  1  0.81116389  0.95342597  0.41994420  1
  Si  Si19  1  0.66395358  0.38313252  0.41694251  1
  Si  Si20  1  0.02247030  0.65675012  0.42079140  1
  S  S0  1  0.99909589  0.29794955  0.24605675  1
  S  S1  1  0.49971355  0.30203203  0.25497561  1
  S  S2  1  0.00011944  0.70091439  0.75576418  1
  S  S3  1  0.49832533  0.69790528  0.74638901  1
  S  S4  1  0.48313532  0.33584660  0.58691425  1
  S  S5  1  0.18720413  0.03128884  0.58417718  1
  S  S6  1  0.82852762  0.60701058  0.57762266  1
  S  S7  1  0.47624552  0.60549797  0.07854110  1
  S  S8  1  0.98342396  0.63154946  0.08678174  1
  S  S9  1  0.32930829  0.04858449  0.07766005  1
  S  S10  1  0.68626851  0.34211295  0.08351313  1
  S  S11  1  0.03204830  0.38286560  0.91299347  1
  S  S12  1  0.66463793  0.93895366  0.91725342  1
  S  S13  1  0.16547661  0.39265082  0.41719403  1
  S  S14  1  0.53166683  0.67940792  0.41263277  1
  O  O0  1  0.12920294  0.07177619  0.30618430  1
  O  O1  1  0.59736626  0.03376348  0.30602435  1
  O  O2  1  0.42048938  0.80787711  0.30556070  1
  O  O3  1  0.90499133  0.73999948  0.30538436  1
  O  O4  1  0.48098551  0.18056288  0.30285221  1
  O  O5  1  0.97389453  0.19529714  0.29801570  1
  O  O6  1  0.09894114  0.16445559  0.80679077  1
  O  O7  1  0.62940066  0.18902072  0.80658333  1
  O  O8  1  0.47417101  0.75115919  0.79890057  1
  O  O9  1  0.98526700  0.79195962  0.80451599  1
  O  O10  1  0.40371384  0.06857878  0.80656742  1
  O  O11  1  0.92002231  0.03145217  0.80628953  1
  O  O12  1  0.40892751  0.98127615  0.69606914  1
  O  O13  1  0.87221376  0.94173860  0.69755396  1
  O  O14  1  0.09838423  0.23401060  0.69421292  1
  O  O15  1  0.58513623  0.18525733  0.69700534  1
  O  O16  1  0.01930804  0.79934505  0.70304463  1
  O  O17  1  0.51212665  0.81089524  0.69760258  1
  O  O18  1  0.37365281  0.79984407  0.19635063  1
  O  O19  1  0.90844405  0.83518847  0.19523459  1
  O  O20  1  0.01142143  0.21044016  0.19671884  1
  O  O21  1  0.51930763  0.24200887  0.20190915  1
  O  O22  1  0.08440950  0.98357584  0.19633065  1
  O  O23  1  0.59766773  0.96191889  0.19383474  1
  O  O24  1  0.43723653  0.35837797  0.63473328  1
  O  O25  1  0.93177505  0.36333735  0.63808631  1
  O  O26  1  0.23969244  0.12982206  0.63558272  1
  O  O27  1  0.75340934  0.12939494  0.63781238  1
  O  O28  1  0.31880417  0.49538902  0.63770084  1
  O  O29  1  0.81835229  0.50935994  0.62982207  1
  O  O30  1  0.43664533  0.51053472  0.13349078  1
  O  O31  1  0.93792272  0.51678655  0.13442355  1
  O  O32  1  0.32205751  0.12995826  0.13000419  1
  O  O33  1  0.81706273  0.14173853  0.13705278  1
  O  O34  1  0.25646086  0.37627084  0.13778803  1
  O  O35  1  0.73820716  0.35309583  0.13486526  1
  O  O36  1  0.23749134  0.30844414  0.02829353  1
  O  O37  1  0.72403472  0.31771371  0.03174205  1
  O  O38  1  0.41906054  0.50799113  0.03031100  1
  O  O39  1  0.93476287  0.57801755  0.03338073  1
  O  O40  1  0.33545862  0.14765599  0.02614216  1
  O  O41  1  0.85768625  0.14945545  0.02773657  1
  O  O42  1  0.22471895  0.13228487  0.53267448  1
  O  O43  1  0.73265374  0.16187282  0.52685581  1
  O  O44  1  0.36044330  0.56439484  0.52866923  1
  O  O45  1  0.83194730  0.52209663  0.52535487  1
  O  O46  1  0.43451762  0.29183619  0.53351264  1
  O  O47  1  0.91105702  0.32654308  0.52653951  1
  O  O48  1  0.25276760  0.67892841  0.97355235  1
  O  O49  1  0.76836554  0.68869337  0.97286064  1
  O  O50  1  0.07312619  0.45941920  0.96947023  1
  O  O51  1  0.58697507  0.50523965  0.97462489  1
  O  O52  1  0.14819654  0.82239135  0.97370669  1
  O  O53  1  0.67027447  0.85418195  0.97178162  1
  O  O54  1  0.26598747  0.84455073  0.47369327  1
  O  O55  1  0.75227512  0.82633712  0.47335355  1
  O  O56  1  0.17041463  0.48360133  0.47165495  1
  O  O57  1  0.64769087  0.47380858  0.47325087  1
  O  O58  1  0.08812470  0.67135014  0.47207943  1
  O  O59  1  0.57217584  0.68613618  0.46867772  1
  O  O60  1  0.06465210  0.63909759  0.35941760  1
  O  O61  1  0.58002851  0.66846894  0.36484730  1
  O  O62  1  0.24531919  0.84582748  0.36074587  1
  O  O63  1  0.76125961  0.85921222  0.36025939  1
  O  O64  1  0.16171701  0.48484093  0.36665564  1
  O  O65  1  0.67929214  0.50484741  0.36130677  1
  O  O66  1  0.08059797  0.49451532  0.86571358  1
  O  O67  1  0.56341380  0.49217388  0.86089530  1
  O  O68  1  0.18201310  0.85677988  0.86185638  1
  O  O69  1  0.66081131  0.84014284  0.86689474  1
  O  O70  1  0.26054954  0.66004906  0.86028366  1
  O  O71  1  0.74319630  0.64303034  0.86127773  1
  O  O72  1  0.01702860  0.82778428  0.42454870  1
  O  O73  1  0.52674166  0.84088067  0.40864371  1
  O  O74  1  0.40301303  0.95947167  0.40133876  1
  O  O75  1  0.90488697  0.98150016  0.42378806  1
  O  O76  1  0.08821625  0.22330035  0.42115807  1
  O  O77  1  0.57957697  0.19575580  0.40206464  1
  O  O78  1  0.02776601  0.21372959  0.90888925  1
  O  O79  1  0.51698429  0.20728832  0.92498543  1
  O  O80  1  0.07978323  0.96522637  0.90335997  1
  O  O81  1  0.58710399  0.95190892  0.92321983  1
  O  O82  1  0.40553058  0.82878472  0.92387605  1
  O  O83  1  0.90380843  0.84713625  0.90176615  1
  O  O84  1  0.49900043  0.19086553  0.59845581  1
  O  O85  1  0.98372523  0.17301331  0.57643924  1
  O  O86  1  0.09854585  0.99273974  0.58997359  1
  O  O87  1  0.59599640  0.02086483  0.59939584  1
  O  O88  1  0.41641541  0.81690045  0.60416149  1
  O  O89  1  0.90377001  0.77989211  0.57897405  1
  O  O90  1  0.48223468  0.77446460  0.07939746  1
  O  O91  1  0.99965048  0.80836228  0.09814271  1
  O  O92  1  0.40415274  0.02423173  0.07847311  1
  O  O93  1  0.91431947  0.01256665  0.10357730  1
  O  O94  1  0.09711307  0.17136495  0.09901178  1
  O  O95  1  0.59729419  0.20228208  0.08846917  1
  O  O96  1  0.33770720  0.16634087  0.72690629  1
  O  O97  1  0.84460344  0.17613618  0.74605054  1
  O  O98  1  0.24523289  0.32053421  0.74612614  1
  O  O99  1  0.75081503  0.34061231  0.72832785  1
  O  O100  1  0.42353069  0.51906060  0.73361192  1
  O  O101  1  0.92146943  0.53036091  0.75054330  1
  O  O102  1  0.34526728  0.51296788  0.24405936  1
  O  O103  1  0.83712199  0.50916480  0.22551845  1
  O  O104  1  0.42068258  0.31646871  0.24562498  1
  O  O105  1  0.92341079  0.32588753  0.23254115  1
  O  O106  1  0.24748020  0.15917307  0.22757708  1
  O  O107  1  0.74367973  0.16794996  0.24521299  1
  O  O108  1  0.30963912  0.48650397  0.92617264  1
  O  O109  1  0.82319393  0.50491416  0.91072583  1
  O  O110  1  0.42585506  0.36875005  0.92968683  1
  O  O111  1  0.94446588  0.35603588  0.91074374  1
  O  O112  1  0.24696075  0.13195731  0.92685394  1
  O  O113  1  0.74319483  0.10876261  0.91346978  1
  O  O114  1  0.32426956  0.14064689  0.41102504  1
  O  O115  1  0.80767570  0.13143830  0.42367791  1
  O  O116  1  0.24434807  0.37984177  0.41213346  1
  O  O117  1  0.74847263  0.36378604  0.42578681  1
  O  O118  1  0.44350128  0.53221947  0.40955234  1
  O  O119  1  0.92536718  0.48417814  0.42568522  1
  O  O120  1  0.17623581  0.50166611  0.07017596  1
  O  O121  1  0.68749746  0.50910526  0.07953406  1
  O  O122  1  0.06852963  0.64343195  0.07860719  1
  O  O123  1  0.56217962  0.62493016  0.07372319  1
  O  O124  1  0.24886344  0.87326733  0.07288003  1
  O  O125  1  0.74615879  0.85268265  0.07395583  1
  O  O126  1  0.19114175  0.87121276  0.58212050  1
  O  O127  1  0.67423969  0.84777354  0.56974100  1
  O  O128  1  0.24956604  0.64360508  0.57418407  1
  O  O129  1  0.74872968  0.62751658  0.57333622  1
  O  O130  1  0.07271262  0.51323727  0.56948045  1
  O  O131  1  0.56819719  0.49331652  0.57930546  1
  O  O132  1  0.15580529  0.83227697  0.25738992  1
  O  O133  1  0.66015100  0.83549259  0.26960576  1
  O  O134  1  0.25067185  0.65089422  0.27370262  1
  O  O135  1  0.76053340  0.68224009  0.25495443  1
  O  O136  1  0.07503549  0.46718112  0.25277653  1
  O  O137  1  0.57212034  0.47357069  0.26877010  1
  O  O138  1  0.16068545  0.48489833  0.77012957  1
  O  O139  1  0.65508778  0.47719834  0.75821254  1
  O  O140  1  0.07427314  0.67743329  0.77031859  1
  O  O141  1  0.57484529  0.68089610  0.75417656  1
  O  O142  1  0.26116968  0.83940285  0.75544152  1
  O  O143  1  0.75083485  0.84839983  0.77508809  1
loop_
_geom_bond_atom_site_label_1
_geom_bond_atom_site_label_2
_geom_bond_distance
_geom_bond_site_symmetry_2
Na0 O75 2.308426 1_545
Na0 O85 2.488515 1_555
Na0 O72 2.492595 1_645
Na0 O76 2.593693 1_655
Na0 O89 2.651791 1_545
Na0 O86 2.893972 1_645
Na1 O82 2.294683 1_545
Na1 O79 2.340700 1_555
Na1 O81 2.547345 1_545
Na1 O92 2.640895 1_556
Na1 O90 2.805614 1_546
Na1 O95 2.860952 1_556
Na2 O98 2.617205 1_555
Na2 O110 2.694687 1_555
Na2 O112 2.791638 1_555
Na2 O96 2.825795 1_555
Na2 O100 2.850486 1_555
Na2 O108 2.869048 1_555
Na3 O109 2.419994 1_555
Na3 O101 2.541960 1_555
Na3 O97 2.602755 1_555
Na3 O113 2.708797 1_555
Na3 O99 2.711701 1_555
Na3 O111 2.843678 1_555
Na4 O114 2.347676 1_555
Na4 O116 2.596262 1_555
Na4 O104 2.694655 1_555
Na4 O118 2.721425 1_555
Na4 O102 2.722438 1_555
Na4 O106 2.862922 1_555
Na5 O119 2.465096 1_555
Na5 O117 2.574435 1_555
Na5 O115 2.679787 1_555
Na5 O107 2.790934 1_555
La0 O72 2.264851 1_655
La0 O3 2.277129 1_555
La0 O0 2.333894 1_665
La0 O75 2.372854 1_555
La0 O76 2.523856 1_665
La0 O5 2.591585 1_565
La1 O10 2.258830 1_555
La1 O7 2.298826 1_555
La1 O79 2.319088 1_555
La1 O82 2.414305 1_545
La1 O8 2.565605 1_545
La1 O81 2.571643 1_545
La2 O13 2.208071 1_545
La2 O14 2.224365 1_655
La2 O85 2.291772 1_555
La2 O86 2.470525 1_645
La2 O89 2.517606 1_545
La2 O16 2.565490 1_645
La3 O18 2.179369 1_555
La3 O23 2.191743 1_555
La3 O21 2.440830 1_565
La3 O95 2.476671 1_565
La3 O90 2.496726 1_555
La3 O92 2.541244 1_565
La4 O41 2.201926 1_556
La4 O109 2.325547 1_555
La4 O37 2.366272 1_556
La4 O39 2.383870 1_556
La4 O111 2.399688 1_555
La4 O113 2.433767 1_555
La5 O44 2.196898 1_555
La5 O114 2.323438 1_555
La5 O42 2.351661 1_555
La5 O46 2.386619 1_555
La5 O118 2.422886 1_555
La5 O116 2.439227 1_555
Nb0 O74 1.928010 1_555
Nb0 O77 1.944405 1_565
Nb0 O1 1.993264 1_565
Nb0 O2 2.004923 1_555
Nb0 O73 2.072487 1_555
Nb0 O4 2.272970 1_565
Nb1 O83 1.960689 1_445
Nb1 O6 1.968705 1_555
Nb1 O11 1.970536 1_455
Nb1 O80 1.974639 1_545
Nb1 O78 2.132700 1_555
Nb1 O9 2.143813 1_445
Nb2 O88 1.914775 1_545
Nb2 O15 1.954006 1_555
Nb2 O87 1.960430 1_555
Nb2 O12 1.968836 1_545
Nb2 O84 2.030160 1_555
Nb2 O17 2.230327 1_545
Nb3 O93 1.924475 1_465
Nb3 O19 1.950828 1_455
Nb3 O22 1.951518 1_555
Nb3 O94 1.990935 1_565
Nb3 O91 2.041546 1_455
Nb3 O20 2.190158 1_565
Nb4 O28 1.894679 1_555
Nb4 O98 1.910979 1_555
Nb4 O96 1.918098 1_555
Nb4 O100 2.055584 1_555
Nb4 O26 2.088173 1_555
Nb4 O24 2.330118 1_555
Nb5 O27 1.880999 1_555
Nb5 O97 1.920720 1_555
Nb5 O25 1.935981 1_555
Nb5 O99 1.942526 1_555
Nb5 O29 2.382317 1_555
Nb5 O101 2.401871 1_555
Nb6 O106 1.865035 1_555
Nb6 O34 1.886527 1_555
Nb6 O102 1.888080 1_555
Nb6 O30 2.152514 1_555
Nb6 O104 2.243054 1_555
Nb6 O32 2.359799 1_555
Nb7 O107 1.888979 1_555
Nb7 O103 1.901183 1_555
Nb7 O33 1.908694 1_555
Nb7 O105 2.016151 1_555
Nb7 O35 2.170249 1_555
Nb7 O31 2.360548 1_555
Nb8 O112 1.915746 1_555
Nb8 O108 1.916132 1_555
Nb8 O36 1.967950 1_556
Nb8 O110 1.968254 1_555
Nb8 O40 2.156834 1_556
Nb8 O38 2.171116 1_556
Nb9 O47 1.907357 1_555
Nb9 O115 1.944561 1_555
Nb9 O43 1.997666 1_555
Nb9 O119 2.008525 1_555
Nb9 O117 2.026450 1_555
Nb9 O45 2.173236 1_555
Nb10 O48 1.865569 1_554
Nb10 O52 1.957765 1_554
Nb10 O120 1.958341 1_555
Nb10 O124 2.067901 1_555
Nb10 O122 2.151917 1_555
Nb10 O50 2.182565 1_554
Nb11 O49 1.885378 1_554
Nb11 O51 1.912579 1_554
Nb11 O125 1.935113 1_555
Nb11 O53 2.055918 1_554
Nb11 O121 2.109674 1_555
Nb11 O123 2.313355 1_555
Nb12 O58 1.930536 1_555
Nb12 O128 1.948596 1_555
Nb12 O130 1.955325 1_555
Nb12 O54 2.010206 1_555
Nb12 O56 2.101979 1_555
Nb12 O126 2.138100 1_555
Nb13 O55 1.864728 1_555
Nb13 O127 1.952895 1_555
Nb13 O57 1.956767 1_555
Nb13 O129 2.019554 1_555
Nb13 O131 2.168405 1_555
Nb13 O59 2.240720 1_555
Nb14 O62 1.860417 1_555
Nb14 O132 1.921393 1_555
Nb14 O60 1.956532 1_555
Nb14 O134 1.960400 1_555
Nb14 O64 2.191438 1_555
Nb14 O136 2.273788 1_555
Nb15 O135 1.896292 1_555
Nb15 O63 1.907245 1_555
Nb15 O133 1.926939 1_555
Nb15 O65 1.948350 1_555
Nb15 O137 2.178994 1_555
Nb15 O61 2.220104 1_555
Nb16 O142 1.881298 1_555
Nb16 O138 1.908561 1_555
Nb16 O70 1.937219 1_555
Nb16 O68 1.972753 1_555
Nb16 O140 2.129826 1_555
Nb16 O66 2.228461 1_555
Nb17 O71 1.885850 1_555
Nb17 O139 1.889574 1_555
Nb17 O143 1.931428 1_555
Nb17 O67 1.995407 1_555
Nb17 O141 2.206915 1_555
Nb17 O69 2.237008 1_555
O0 Si0 1.586106 1_555
O1 Si1 1.638991 1_545
O2 Si2 1.647307 1_555
O3 Si3 1.587919 1_555
O4 S1 1.488563 1_555
O5 S0 1.461306 1_555
O6 Si4 1.650263 1_555
O7 Si5 1.597393 1_555
O8 S3 1.467279 1_555
O9 S2 1.511135 1_655
O10 Si6 1.595021 1_555
O11 Si7 1.662844 1_545
O12 Si6 1.625301 1_565
O13 Si7 1.585613 1_555
O14 Si4 1.578391 1_555
O15 Si5 1.635994 1_555
O16 S2 1.461990 1_555
O17 S3 1.471846 1_555
O18 Si2 1.596591 1_555
O19 Si3 1.636788 1_555
O20 S0 1.481953 1_455
O21 S1 1.471472 1_555
O22 Si0 1.633402 1_565
O23 Si1 1.591383 1_555
O24 S4 1.468154 1_555
O25 Si8 1.685934 1_555
O26 S5 1.515388 1_555
O27 Si9 1.685456 1_555
O28 Si10 1.686944 1_555
O29 S6 1.468170 1_555
O30 S7 1.515706 1_555
O31 S8 1.465699 1_555
O32 S9 1.472112 1_555
O33 Si11 1.674051 1_555
O34 Si12 1.685817 1_555
O35 S10 1.497562 1_555
O36 Si12 1.640006 1_555
O37 S10 1.462987 1_555
O38 S7 1.485351 1_555
O39 S8 1.464785 1_555
O40 S9 1.476864 1_555
O41 Si11 1.587024 1_555
O42 S5 1.461266 1_555
O43 Si9 1.623174 1_555
O44 Si10 1.587565 1_555
O45 S6 1.465783 1_555
O46 S4 1.464364 1_555
O47 Si8 1.653703 1_555
O48 Si13 1.673941 1_555
O49 Si14 1.697669 1_555
O50 S11 1.506170 1_555
O51 Si15 1.663091 1_555
O52 Si16 1.650600 1_555
O53 S12 1.522239 1_555
O54 Si17 1.640643 1_555
O55 Si18 1.672375 1_555
O56 S13 1.499070 1_555
O57 Si19 1.658268 1_555
O58 Si20 1.644859 1_555
O59 S14 1.490209 1_555
O60 Si20 1.673785 1_555
O61 S14 1.454091 1_555
O62 Si17 1.671931 1_555
O63 Si18 1.651068 1_555
O64 S13 1.472006 1_555
O65 Si19 1.640984 1_555
O66 S11 1.460103 1_555
O67 Si15 1.653184 1_555
O68 Si16 1.623982 1_555
O69 S12 1.463294 1_555
O70 Si13 1.637154 1_555
O71 Si14 1.647083 1_555
O72 Si20 1.603531 1_555
O73 S14 1.512429 1_555
O74 Si17 1.663717 1_555
O75 Si18 1.577687 1_555
O76 S13 1.467173 1_555
O77 Si19 1.648801 1_555
O78 S11 1.498231 1_555
O79 Si15 1.599007 1_555
O80 Si16 1.625276 1_555
O81 S12 1.465418 1_555
O82 Si13 1.577445 1_555
O83 Si14 1.635560 1_555
O84 S4 1.502580 1_555
O85 Si8 1.605079 1_555
O86 S5 1.459025 1_565
O87 Si9 1.629160 1_555
O88 Si10 1.637022 1_555
O89 S6 1.468523 1_555
O90 S7 1.479752 1_555
O91 S8 1.500677 1_555
O92 S9 1.471106 1_555
O93 Si11 1.637036 1_555
O94 Si12 1.621779 1_555
O95 S10 1.464613 1_555
O96 Si6 1.641919 1_555
O97 Si7 1.691090 1_545
O98 Si4 1.699972 1_555
O99 Si5 1.650459 1_555
O100 S3 1.528024 1_555
O101 S2 1.485991 1_655
O102 Si2 1.718395 1_555
O103 Si3 1.648032 1_555
O104 S1 1.509008 1_555
O105 S0 1.538912 1_555
O106 Si0 1.688274 1_555
O107 Si1 1.708709 1_545
O108 Si13 1.668192 1_555
O109 Si14 1.595712 1_555
O110 Si15 1.678286 1_555
O111 S11 1.470851 1_655
O112 Si16 1.667656 1_545
O113 S12 1.479246 1_545
O114 Si17 1.604832 1_545
O115 Si18 1.647632 1_545
O116 S13 1.486735 1_555
O117 Si19 1.630249 1_555
O118 S14 1.474920 1_555
O119 Si20 1.663428 1_655
O120 Si12 1.648247 1_555
O121 S10 1.504916 1_555
O122 S8 1.493746 1_455
O123 S7 1.471199 1_555
O124 S9 1.523330 1_565
O125 Si11 1.650441 1_565
O126 S5 1.488016 1_565
O127 Si9 1.649368 1_565
O128 Si10 1.628949 1_555
O129 S6 1.541884 1_555
O130 Si8 1.640874 1_455
O131 S4 1.488948 1_555
O132 Si0 1.649780 1_565
O133 Si1 1.620950 1_555
O134 Si2 1.621090 1_555
O135 Si3 1.659213 1_555
O136 S0 1.462026 1_455
O137 S1 1.477303 1_555
O138 Si4 1.630262 1_555
O139 Si5 1.674554 1_555
O140 S2 1.493270 1_555
O141 S3 1.472671 1_555
O142 Si6 1.666991 1_565
O143 Si7 1.635370 1_555
