# generated using pymatgen
data_La4MgTi4O10
_symmetry_space_group_name_H-M   'P 1'
_cell_length_a   5.58689901
_cell_length_b   5.76424709
_cell_length_c   9.19965615
_cell_angle_alpha   108.24461694
_cell_angle_beta   107.63526709
_cell_angle_gamma   90.11743123
_symmetry_Int_Tables_number   1
_chemical_formula_structural   La4MgTi4O10
_chemical_formula_sum   'La4 Mg1 Ti4 O10'
_cell_volume   266.60986175
_cell_formula_units_Z   1
loop_
 _symmetry_equiv_pos_site_id
 _symmetry_equiv_pos_as_xyz
  1  'x, y, z'
loop_
 _atom_site_type_symbol
 _atom_site_label
 _atom_site_symmetry_multiplicity
 _atom_site_fract_x
 _atom_site_fract_y
 _atom_site_fract_z
 _atom_site_occupancy
  La  La0  1  0.62956800  0.12273200  0.27916900  1
  La  La1  1  0.40971400  0.86935000  0.83203700  1
  La  La2  1  0.07729500  0.53744500  0.16812400  1
  La  La3  1  0.85139000  0.34466000  0.72090100  1
  Mg  Mg0  1  0.23483900  0.83531200  0.50017400  1
  Ti  Ti0  1  0.99072300  0.98409300  0.99827900  1
  Ti  Ti1  1  0.49211400  0.48589600  0.00164200  1
  Ti  Ti2  1  0.24395800  0.33818600  0.50006800  1
  Ti  Ti3  1  0.73296600  0.72577000  0.49995200  1
  O  O0  1  0.22090600  0.22924000  0.96933800  1
  O  O1  1  0.26010200  0.75874500  0.02818900  1
  O  O2  1  0.73233600  0.23095500  0.97121000  1
  O  O3  1  0.75133400  0.76104400  0.03118200  1
  O  O4  1  0.11981000  0.17325200  0.25083700  1
  O  O5  1  0.86018500  0.81491400  0.74608200  1
  O  O6  1  0.61425500  0.56955100  0.25398100  1
  O  O7  1  0.36729700  0.42224700  0.74905600  1
  O  O8  1  0.97139200  0.05570900  0.49964000  1
  O  O9  1  0.50591300  0.05042500  0.50013800  1
loop_
_geom_bond_atom_site_label_1
_geom_bond_atom_site_label_2
_geom_bond_distance
_geom_bond_site_symmetry_2
La0 O8 2.461073 1_555
La0 O9 2.482680 1_555
La0 O6 2.656537 1_555
La0 O4 2.804426 1_555
La0 O3 2.825278 1_545
La0 O1 2.838162 1_545
La0 O4 2.851544 1_655
La0 O6 3.122957 1_545
La1 O7 2.436582 1_555
La1 O3 2.447719 1_556
La1 O1 2.448183 1_556
La1 O2 2.479526 1_565
La1 O0 2.487426 1_565
La1 O5 2.848058 1_555
La1 Mg0 2.851458 1_555
La1 O5 2.918790 1_455
La2 O4 2.436236 1_555
La2 O2 2.446187 1_454
La2 O0 2.450491 1_554
La2 O1 2.479351 1_555
La2 O3 2.490182 1_455
La2 O6 2.851007 1_555
La2 Mg0 2.852151 1_555
La2 O6 2.915301 1_455
La3 O8 2.464879 1_555
La3 O9 2.486229 1_555
La3 O5 2.646343 1_555
La3 O7 2.817576 1_555
La3 O0 2.833210 1_655
La3 O7 2.836318 1_655
La3 O2 2.836545 1_555
La3 O5 3.133228 1_545
Mg0 O8 1.946160 1_465
Mg0 O9 1.955498 1_565
O0 Ti1 2.003888 1_556
O0 Ti0 2.038900 1_445
O1 Ti0 2.002228 1_454
O1 Ti1 2.042820 1_555
O2 Ti1 2.004320 1_556
O2 Ti0 2.045306 1_545
O3 Ti0 2.003836 1_554
O3 Ti1 2.041798 1_555
O4 Ti2 2.076260 1_555
O4 Ti0 2.121934 1_444
O5 Ti3 2.047230 1_555
O5 Ti0 2.102616 1_555
O6 Ti3 2.045374 1_555
O6 Ti1 2.103597 1_555
O7 Ti2 2.074553 1_555
O7 Ti1 2.122215 1_556
O8 Ti2 2.225393 1_655
O8 Ti3 2.320944 1_545
O9 Ti2 2.214339 1_555
O9 Ti3 2.262808 1_545
