# generated using pymatgen
data_MgMn3SbO8
_symmetry_space_group_name_H-M   'P 1'
_cell_length_a   10.69526579
_cell_length_b   10.59327289
_cell_length_c   14.88458642
_cell_angle_alpha   19.48442732
_cell_angle_beta   20.06597850
_cell_angle_gamma   34.28834145
_symmetry_Int_Tables_number   1
_chemical_formula_structural   MgMn3SbO8
_chemical_formula_sum   'Mg1 Mn3 Sb1 O8'
_cell_volume   165.07021289
_cell_formula_units_Z   1
loop_
 _symmetry_equiv_pos_site_id
 _symmetry_equiv_pos_as_xyz
  1  'x, y, z'
loop_
 _atom_site_type_symbol
 _atom_site_label
 _atom_site_symmetry_multiplicity
 _atom_site_fract_x
 _atom_site_fract_y
 _atom_site_fract_z
 _atom_site_occupancy
  Mg  Mg0  1  0.50002300  0.49996200  0.50001000  1
  Mn  Mn0  1  0.99995700  0.49999700  0.00004300  1
  Mn  Mn1  1  0.49975100  0.99956900  0.00047800  1
  Mn  Mn2  1  0.49997800  0.50012800  0.99980100  1
  Sb  Sb0  1  0.00014700  0.00020700  0.99979700  1
  O  O0  1  0.07239500  0.05929400  0.18183500  1
  O  O1  1  0.95208500  0.50123400  0.28851400  1
  O  O2  1  0.51478900  0.96317400  0.27912200  1
  O  O3  1  0.92776500  0.94088800  0.81794600  1
  O  O4  1  0.45683800  0.52191400  0.27442000  1
  O  O5  1  0.04796200  0.49874400  0.71148200  1
  O  O6  1  0.48531600  0.03691600  0.72074000  1
  O  O7  1  0.54299400  0.47797400  0.72580900  1
loop_
_geom_bond_atom_site_label_1
_geom_bond_atom_site_label_2
_geom_bond_distance
_geom_bond_site_symmetry_2
Mg0 O0 2.112602 1_556
Mg0 O3 2.112961 1_554
Mg0 O5 2.172800 1_555
Mg0 O1 2.172852 1_555
Mg0 O6 2.190458 1_555
Mg0 O2 2.190741 1_555
Mn0 O3 1.964794 1_554
Mn0 O0 1.964807 1_655
Mn0 O6 1.977735 1_555
Mn0 O2 1.978432 1_654
Mn0 O4 2.338418 1_555
Mn0 O7 2.338456 1_654
Mn1 O3 1.959883 1_554
Mn1 O0 1.959970 1_565
Mn1 O4 1.964864 1_555
Mn1 O7 1.966580 1_564
Mn1 O5 1.981754 1_555
Mn1 O1 1.984090 1_564
Mn2 O0 2.172923 1_665
Mn2 O3 2.174200 1_446
Mn2 O2 2.196484 1_546
Mn2 O6 2.197498 1_565
Mn2 O1 2.340978 1_456
Mn2 O5 2.343750 1_655
O1 Sb0 2.045137 1_664
O2 Sb0 2.032681 1_664
O4 Sb0 2.000814 1_555
O5 Sb0 2.043718 1_555
O6 Sb0 2.031930 1_555
O7 Sb0 2.002110 1_664
