# generated using pymatgen
data_Na2MnGaF7
_symmetry_space_group_name_H-M   'P 1'
_cell_length_a   7.51853002
_cell_length_b   7.51853002
_cell_length_c   18.43424400
_cell_angle_alpha   90.00000000
_cell_angle_beta   90.00000000
_cell_angle_gamma   120.00000016
_symmetry_Int_Tables_number   1
_chemical_formula_structural   Na2MnGaF7
_chemical_formula_sum   'Na12 Mn6 Ga6 F42'
_cell_volume   902.44727652
_cell_formula_units_Z   6
loop_
 _symmetry_equiv_pos_site_id
 _symmetry_equiv_pos_as_xyz
  1  'x, y, z'
loop_
 _atom_site_type_symbol
 _atom_site_label
 _atom_site_symmetry_multiplicity
 _atom_site_fract_x
 _atom_site_fract_y
 _atom_site_fract_z
 _atom_site_occupancy
  Na  Na0  1  0.50566100  0.88652300  0.66545600  1
  Na  Na1  1  0.11347700  0.61913800  0.99878900  1
  Na  Na2  1  0.38086200  0.49433900  0.33212200  1
  Na  Na3  1  0.61913800  0.11347700  0.00121100  1
  Na  Na4  1  0.49433900  0.38086200  0.66787800  1
  Na  Na5  1  0.88652300  0.50566100  0.33454400  1
  Na  Na6  1  0.86022300  0.00000000  0.33333300  1
  Na  Na7  1  0.00000000  0.86022300  0.66666700  1
  Na  Na8  1  0.13977700  0.13977700  0.00000000  1
  Na  Na9  1  0.84458300  0.00000000  0.83333300  1
  Na  Na10  1  0.00000000  0.84458300  0.16666700  1
  Na  Na11  1  0.15541700  0.15541700  0.50000000  1
  Mn  Mn0  1  0.49556400  0.83601600  0.17120700  1
  Mn  Mn1  1  0.16398400  0.65954900  0.50454100  1
  Mn  Mn2  1  0.34045100  0.50443600  0.83787400  1
  Mn  Mn3  1  0.65954900  0.16398400  0.49545900  1
  Mn  Mn4  1  0.50443600  0.34045100  0.16212600  1
  Mn  Mn5  1  0.83601600  0.49556400  0.82879300  1
  Ga  Ga0  1  0.31512400  0.00000000  0.33333300  1
  Ga  Ga1  1  0.00000000  0.31512400  0.66666700  1
  Ga  Ga2  1  0.68487600  0.68487600  0.00000000  1
  Ga  Ga3  1  0.33467400  0.00000000  0.83333300  1
  Ga  Ga4  1  0.00000000  0.33467400  0.16666700  1
  Ga  Ga5  1  0.66532600  0.66532600  0.50000000  1
  F  F0  1  0.42701600  0.04773000  0.12235900  1
  F  F1  1  0.95227000  0.37928600  0.45569200  1
  F  F2  1  0.62071400  0.57298400  0.78902500  1
  F  F3  1  0.37928600  0.95227000  0.54430800  1
  F  F4  1  0.57298400  0.62071400  0.21097500  1
  F  F5  1  0.04773000  0.42701600  0.87764100  1
  F  F6  1  0.23898200  0.18702700  0.86016300  1
  F  F7  1  0.81297300  0.05195500  0.19349700  1
  F  F8  1  0.94804500  0.76101800  0.52683000  1
  F  F9  1  0.05195500  0.81297300  0.80650300  1
  F  F10  1  0.76101800  0.94804500  0.47317000  1
  F  F11  1  0.18702700  0.23898200  0.13983700  1
  F  F12  1  0.37215100  0.07429900  0.73136200  1
  F  F13  1  0.92570100  0.29785200  0.06469600  1
  F  F14  1  0.70214800  0.62784900  0.39802900  1
  F  F15  1  0.29785200  0.92570100  0.93530400  1
  F  F16  1  0.62784900  0.70214800  0.60197100  1
  F  F17  1  0.07429900  0.37215100  0.26863800  1
  F  F18  1  0.42864600  0.81191300  0.80884300  1
  F  F19  1  0.18808700  0.61673400  0.14217600  1
  F  F20  1  0.38326600  0.57135400  0.47551000  1
  F  F21  1  0.61673400  0.18808700  0.85782400  1
  F  F22  1  0.57135400  0.38326600  0.52449000  1
  F  F23  1  0.81191300  0.42864600  0.19115700  1
  F  F24  1  0.77008400  0.19872600  0.60300100  1
  F  F25  1  0.80127400  0.57135800  0.93633400  1
  F  F26  1  0.42864200  0.22991600  0.26966700  1
  F  F27  1  0.57135800  0.80127400  0.06366600  1
  F  F28  1  0.22991600  0.42864200  0.73033300  1
  F  F29  1  0.19872600  0.77008400  0.39699900  1
  F  F30  1  0.79999700  0.94246000  0.94892100  1
  F  F31  1  0.05754000  0.85753700  0.28225400  1
  F  F32  1  0.14246300  0.20000300  0.61558700  1
  F  F33  1  0.85753700  0.05754000  0.71774600  1
  F  F34  1  0.20000300  0.14246300  0.38441300  1
  F  F35  1  0.94246000  0.79999700  0.05107900  1
  F  F36  1  0.56560700  0.42574600  0.05122500  1
  F  F37  1  0.57425400  0.13986100  0.38455800  1
  F  F38  1  0.86013900  0.43439300  0.71789200  1
  F  F39  1  0.13986100  0.57425400  0.61544200  1
  F  F40  1  0.43439300  0.86013900  0.28210800  1
  F  F41  1  0.42574600  0.56560700  0.94877500  1
loop_
_geom_bond_atom_site_label_1
_geom_bond_atom_site_label_2
_geom_bond_distance
_geom_bond_site_symmetry_2
F0 Mn0 2.104900 1_545
F0 Mn4 2.106848 1_555
F0 Na3 2.569889 1_555
F0 Na10 2.898939 1_545
F1 Mn1 2.104912 1_655
F1 Mn3 2.106850 1_555
F1 Na5 2.569889 1_555
F1 Na11 2.898939 1_655
F2 Mn2 2.104914 1_555
F2 Mn5 2.106862 1_555
F2 Na4 2.569873 1_555
F2 Na9 2.898939 1_565
F3 Mn3 2.104912 1_565
F3 Mn1 2.106850 1_555
F3 Na0 2.569889 1_555
F3 Na11 2.898939 1_565
F4 Mn4 2.104914 1_555
F4 Mn0 2.106862 1_555
F4 Na2 2.569873 1_555
F4 Na10 2.898939 1_655
F5 Mn5 2.104900 1_455
F5 Mn2 2.106848 1_555
F5 Na1 2.569889 1_555
F5 Na9 2.898939 1_455
F6 Ga3 1.936812 1_555
F6 Mn2 2.150665 1_555
F6 Na9 2.616338 1_455
F6 Na8 2.657548 1_556
F7 Ga4 1.936812 1_655
F7 Mn0 2.150667 1_545
F7 Na10 2.616338 1_645
F7 Na6 2.657530 1_555
F8 Ga5 1.936812 1_555
F8 Mn1 2.150658 1_655
F8 Na11 2.616338 1_665
F8 Na7 2.657548 1_655
F9 Ga3 1.936812 1_565
F9 Mn5 2.150667 1_455
F9 Na9 2.616338 1_465
F9 Na7 2.657530 1_555
F10 Ga5 1.936812 1_555
F10 Mn3 2.150658 1_565
F10 Na11 2.616338 1_665
F10 Na6 2.657548 1_565
F11 Ga4 1.936812 1_555
F11 Mn4 2.150665 1_555
F11 Na10 2.616338 1_545
F11 Na8 2.657548 1_555
F12 Ga3 1.941015 1_555
F12 Na4 2.325648 1_555
F12 Na0 2.427756 1_545
F12 Na7 2.708938 1_545
F13 Ga4 1.941015 1_655
F13 Na3 2.325658 1_555
F13 Na1 2.427766 1_654
F13 Na8 2.708946 1_655
F14 Ga5 1.941015 1_555
F14 Na5 2.325658 1_555
F14 Na2 2.427766 1_555
F14 Na6 2.708946 1_565
F15 Ga3 1.941015 1_565
F15 Na1 2.325658 1_555
F15 Na3 2.427766 1_566
F15 Na8 2.708946 1_566
F16 Ga5 1.941015 1_555
F16 Na0 2.325658 1_555
F16 Na4 2.427766 1_555
F16 Na7 2.708946 1_655
F17 Ga4 1.941015 1_555
F17 Na2 2.325648 1_555
F17 Na5 2.427756 1_455
F17 Na6 2.708938 1_455
F18 Ga3 1.924036 1_565
F18 Mn2 2.130134 1_555
F18 Na0 2.704037 1_555
F18 Na9 2.749701 1_565
F19 Ga4 1.924046 1_555
F19 Mn0 2.130134 1_555
F19 Na1 2.704036 1_554
F19 Na10 2.749697 1_555
F20 Ga5 1.924043 1_555
F20 Mn1 2.130134 1_555
F20 Na2 2.704055 1_555
F20 Na11 2.749700 1_555
F21 Ga3 1.924046 1_555
F21 Mn5 2.130134 1_555
F21 Na3 2.704036 1_556
F21 Na9 2.749697 1_555
F22 Ga5 1.924043 1_555
F22 Mn3 2.130134 1_555
F22 Na4 2.704055 1_555
F22 Na11 2.749700 1_555
F23 Ga4 1.924036 1_655
F23 Mn4 2.130134 1_555
F23 Na5 2.704037 1_555
F23 Na10 2.749701 1_655
F24 Ga1 1.902277 1_655
F24 Mn3 2.114696 1_555
F24 Na0 2.474103 1_545
F25 Ga2 1.902277 1_556
F25 Mn5 2.114682 1_555
F25 Na1 2.474103 1_655
F26 Ga0 1.902277 1_555
F26 Mn4 2.114680 1_555
F26 Na2 2.474103 1_555
F27 Ga2 1.902277 1_555
F27 Mn0 2.114682 1_555
F27 Na3 2.474103 1_565
F28 Ga1 1.902277 1_555
F28 Mn2 2.114680 1_555
F28 Na4 2.474103 1_555
F29 Ga0 1.902277 1_565
F29 Mn1 2.114696 1_555
F29 Na5 2.474103 1_455
F30 Ga2 1.926175 1_556
F30 Na9 2.166730 1_565
F30 Na8 2.413255 1_666
F30 Na3 2.485937 1_566
F31 Ga0 1.926175 1_565
F31 Na10 2.166712 1_555
F31 Na6 2.413255 1_465
F31 Na5 2.485937 1_455
F32 Ga1 1.926184 1_555
F32 Na11 2.166712 1_555
F32 Na7 2.413263 1_545
F32 Na4 2.485944 1_555
F33 Ga1 1.926175 1_655
F33 Na9 2.166712 1_555
F33 Na7 2.413255 1_645
F33 Na0 2.485937 1_545
F34 Ga0 1.926184 1_555
F34 Na11 2.166712 1_555
F34 Na6 2.413263 1_455
F34 Na2 2.485944 1_555
F35 Ga2 1.926175 1_555
F35 Na10 2.166730 1_655
F35 Na8 2.413255 1_665
F35 Na1 2.485937 1_654
F36 Ga2 1.935076 1_555
F36 Mn4 2.123043 1_555
F36 Na3 2.732971 1_555
F37 Ga0 1.935076 1_555
F37 Mn3 2.123044 1_555
F37 Na5 2.732971 1_555
F38 Ga1 1.935076 1_655
F38 Mn5 2.123042 1_555
F38 Na4 2.732971 1_555
F39 Ga1 1.935076 1_555
F39 Mn1 2.123044 1_555
F39 Na0 2.732971 1_555
F40 Ga0 1.935076 1_565
F40 Mn0 2.123042 1_555
F40 Na2 2.732971 1_555
F41 Ga2 1.935076 1_556
F41 Mn2 2.123043 1_555
F41 Na1 2.732971 1_555
