# generated using pymatgen
data_Tm3SnC
_symmetry_space_group_name_H-M   'P 1'
_cell_length_a   5.52395100
_cell_length_b   5.52395100
_cell_length_c   5.52395100
_cell_angle_alpha   90.00000000
_cell_angle_beta   90.00000000
_cell_angle_gamma   90.00000000
_symmetry_Int_Tables_number   1
_chemical_formula_structural   Tm3SnC
_chemical_formula_sum   'Tm3 Sn1 C1'
_cell_volume   168.55803222
_cell_formula_units_Z   1
loop_
 _symmetry_equiv_pos_site_id
 _symmetry_equiv_pos_as_xyz
  1  'x, y, z'
loop_
 _atom_site_type_symbol
 _atom_site_label
 _atom_site_symmetry_multiplicity
 _atom_site_fract_x
 _atom_site_fract_y
 _atom_site_fract_z
 _atom_site_occupancy
  Tm  Tm0  1  0.00000000  0.50000000  0.50000000  1
  Tm  Tm1  1  0.50000000  0.00000000  0.50000000  1
  Tm  Tm2  1  0.50000000  0.50000000  0.00000000  1
  Sn  Sn0  1  0.50000000  0.50000000  0.50000000  1
  C  C0  1  0.00000000  0.00000000  0.00000000  1
loop_
_geom_bond_atom_site_label_1
_geom_bond_atom_site_label_2
_geom_bond_distance
_geom_bond_site_symmetry_2
Sn0 Tm2 2.761976 1_556
Sn0 Tm0 2.761976 1_555
Sn0 Tm2 2.761976 1_555
Sn0 Tm0 2.761976 1_655
Sn0 Tm1 2.761976 1_565
Sn0 Tm1 2.761976 1_555
