# generated using pymatgen
data_Ho2C(NO)2
_symmetry_space_group_name_H-M   'P 1'
_cell_length_a   3.71291327
_cell_length_b   3.71291327
_cell_length_c   8.18096700
_cell_angle_alpha   90.00000000
_cell_angle_beta   90.00000000
_cell_angle_gamma   119.99998694
_symmetry_Int_Tables_number   1
_chemical_formula_structural   Ho2C(NO)2
_chemical_formula_sum   'Ho2 C1 N2 O2'
_cell_volume   97.67084349
_cell_formula_units_Z   1
loop_
 _symmetry_equiv_pos_site_id
 _symmetry_equiv_pos_as_xyz
  1  'x, y, z'
loop_
 _atom_site_type_symbol
 _atom_site_label
 _atom_site_symmetry_multiplicity
 _atom_site_fract_x
 _atom_site_fract_y
 _atom_site_fract_z
 _atom_site_occupancy
  Ho  Ho0  1  0.66666700  0.33333300  0.17657300  1
  Ho  Ho1  1  0.33333300  0.66666700  0.82342700  1
  C  C0  1  0.00000000  0.00000000  0.50000000  1
  N  N0  1  0.00000000  0.00000000  0.34890000  1
  N  N1  1  0.00000000  0.00000000  0.65110000  1
  O  O0  1  0.33333300  0.66666700  0.10279900  1
  O  O1  1  0.66666700  0.33333300  0.89720100  1
loop_
_geom_bond_atom_site_label_1
_geom_bond_atom_site_label_2
_geom_bond_distance
_geom_bond_site_symmetry_2
Ho0 O0 2.226993 1_545
Ho0 O0 2.226993 1_655
Ho0 O0 2.226999 1_555
Ho0 O1 2.285533 1_554
Ho0 N0 2.565691 1_655
Ho0 N0 2.565694 1_555
Ho0 N0 2.565694 1_665
Ho1 O1 2.226993 1_455
Ho1 O1 2.226993 1_565
Ho1 O1 2.226999 1_555
Ho1 O0 2.285533 1_556
Ho1 N1 2.565691 1_565
Ho1 N1 2.565694 1_665
Ho1 N1 2.565694 1_555
C0 N0 1.236144 1_555
C0 N1 1.236144 1_555
