# generated using pymatgen
data_Pr3InO
_symmetry_space_group_name_H-M   'P 1'
_cell_length_a   5.01386593
_cell_length_b   5.01386074
_cell_length_c   5.01386074
_cell_angle_alpha   90.00000000
_cell_angle_beta   90.00000000
_cell_angle_gamma   90.00000000
_symmetry_Int_Tables_number   1
_chemical_formula_structural   Pr3InO
_chemical_formula_sum   'Pr3 In1 O1'
_cell_volume   126.04257043
_cell_formula_units_Z   1
loop_
 _symmetry_equiv_pos_site_id
 _symmetry_equiv_pos_as_xyz
  1  'x, y, z'
loop_
 _atom_site_type_symbol
 _atom_site_label
 _atom_site_symmetry_multiplicity
 _atom_site_fract_x
 _atom_site_fract_y
 _atom_site_fract_z
 _atom_site_occupancy
  Pr  Pr0  1  0.50000000  0.00000000  0.50000000  1
  Pr  Pr1  1  0.50000000  0.50000000  -0.00000000  1
  Pr  Pr2  1  0.00000000  0.50000000  0.50000000  1
  In  In0  1  -0.00000000  -0.00000000  -0.00000000  1
  O  O0  1  0.50000000  0.50000000  0.50000000  1
loop_
_geom_bond_atom_site_label_1
_geom_bond_atom_site_label_2
_geom_bond_distance
_geom_bond_site_symmetry_2
In0 Pr2 3.545335 1_545
In0 Pr2 3.545335 1_555
In0 Pr2 3.545335 1_544
In0 Pr2 3.545335 1_554
In0 Pr0 3.545337 1_454
In0 Pr1 3.545337 1_455
In0 Pr1 3.545337 1_545
In0 Pr0 3.545337 1_455
In0 Pr1 3.545337 1_445
In0 Pr1 3.545337 1_555
In0 Pr0 3.545337 1_555
In0 Pr0 3.545337 1_554
O0 Pr0 2.506930 1_565
O0 Pr0 2.506930 1_555
O0 Pr1 2.506930 1_556
O0 Pr1 2.506930 1_555
O0 Pr2 2.506933 1_655
O0 Pr2 2.506933 1_555
