# generated using pymatgen
data_NiBiO3
_symmetry_space_group_name_H-M   'P 1'
_cell_length_a   5.37565700
_cell_length_b   5.73356300
_cell_length_c   7.74435300
_cell_angle_alpha   90.00000000
_cell_angle_beta   90.00000000
_cell_angle_gamma   90.00000000
_symmetry_Int_Tables_number   1
_chemical_formula_structural   NiBiO3
_chemical_formula_sum   'Ni4 Bi4 O12'
_cell_volume   238.69387763
_cell_formula_units_Z   4
loop_
 _symmetry_equiv_pos_site_id
 _symmetry_equiv_pos_as_xyz
  1  'x, y, z'
loop_
 _atom_site_type_symbol
 _atom_site_label
 _atom_site_symmetry_multiplicity
 _atom_site_fract_x
 _atom_site_fract_y
 _atom_site_fract_z
 _atom_site_occupancy
  Ni  Ni0  1  0.00000000  0.50000000  0.50000000  1
  Ni  Ni1  1  0.50000000  0.00000000  0.50000000  1
  Ni  Ni2  1  0.00000000  0.50000000  0.00000000  1
  Ni  Ni3  1  0.50000000  0.00000000  0.00000000  1
  Bi  Bi0  1  0.51870800  0.56549100  0.75000000  1
  Bi  Bi1  1  0.48129200  0.43450900  0.25000000  1
  Bi  Bi2  1  0.01870800  0.93450900  0.25000000  1
  Bi  Bi3  1  0.98129200  0.06549100  0.75000000  1
  O  O0  1  0.68199800  0.31398000  0.55992100  1
  O  O1  1  0.31800200  0.68602000  0.44007900  1
  O  O2  1  0.18199800  0.18602000  0.44007900  1
  O  O3  1  0.81800200  0.81398000  0.55992100  1
  O  O4  1  0.31800200  0.68602000  0.05992100  1
  O  O5  1  0.68199800  0.31398000  0.94007900  1
  O  O6  1  0.81800200  0.81398000  0.94007900  1
  O  O7  1  0.18199800  0.18602000  0.05992100  1
  O  O8  1  0.13042700  0.44267900  0.75000000  1
  O  O9  1  0.86957300  0.55732100  0.25000000  1
  O  O10  1  0.63042700  0.05732100  0.25000000  1
  O  O11  1  0.36957300  0.94267900  0.75000000  1
loop_
_geom_bond_atom_site_label_1
_geom_bond_atom_site_label_2
_geom_bond_distance
_geom_bond_site_symmetry_2
Ni0 O0 2.067649 1_455
Ni0 O1 2.067649 1_555
Ni0 O8 2.085194 1_555
Ni0 O9 2.085194 1_455
Ni0 O2 2.100794 1_555
Ni0 O3 2.100794 1_455
Ni1 O3 2.067649 1_545
Ni1 O2 2.067649 1_555
Ni1 O10 2.085194 1_555
Ni1 O11 2.085194 1_545
Ni1 O1 2.100794 1_545
Ni1 O0 2.100794 1_555
Ni2 O4 2.067649 1_555
Ni2 O5 2.067649 1_454
Ni2 O8 2.085194 1_554
Ni2 O9 2.085194 1_455
Ni2 O7 2.100794 1_555
Ni2 O6 2.100794 1_454
Ni3 O7 2.067649 1_555
Ni3 O6 2.067649 1_544
Ni3 O10 2.085194 1_555
Ni3 O11 2.085194 1_544
Ni3 O4 2.100794 1_545
Ni3 O5 2.100794 1_554
Bi0 O8 2.202840 1_555
Bi0 O0 2.239852 1_555
Bi0 O5 2.239852 1_555
Bi0 O11 2.306446 1_555
Bi0 O3 2.604863 1_555
Bi0 O6 2.604863 1_555
Bi0 O4 2.720718 1_556
Bi0 O1 2.720718 1_555
Bi1 O9 2.202840 1_555
Bi1 O1 2.239852 1_555
Bi1 O4 2.239852 1_555
Bi1 O10 2.306446 1_555
Bi1 O2 2.604863 1_555
Bi1 O7 2.604863 1_555
Bi1 O0 2.720718 1_555
Bi1 O5 2.720718 1_554
Bi2 O10 2.202840 1_465
Bi2 O2 2.239852 1_565
Bi2 O7 2.239852 1_565
Bi2 O9 2.306446 1_455
Bi2 O1 2.604863 1_555
Bi2 O4 2.604863 1_555
Bi2 O6 2.720718 1_454
Bi2 O3 2.720718 1_455
Bi3 O11 2.202840 1_645
Bi3 O6 2.239852 1_545
Bi3 O3 2.239852 1_545
Bi3 O8 2.306446 1_655
Bi3 O5 2.604863 1_555
Bi3 O0 2.604863 1_555
Bi3 O7 2.720718 1_656
Bi3 O2 2.720718 1_655
