# generated using pymatgen
data_Na4Nb2Si5Sn2SO24
_symmetry_space_group_name_H-M   'P 1'
_cell_length_a   8.98089727
_cell_length_b   8.98615329
_cell_length_c   22.73298171
_cell_angle_alpha   90.12646232
_cell_angle_beta   89.95095729
_cell_angle_gamma   120.00762985
_symmetry_Int_Tables_number   1
_chemical_formula_structural   Na4Nb2Si5Sn2SO24
_chemical_formula_sum   'Na12 Nb6 Si15 Sn6 S3 O72'
_cell_volume   1588.71543578
_cell_formula_units_Z   3
loop_
 _symmetry_equiv_pos_site_id
 _symmetry_equiv_pos_as_xyz
  1  'x, y, z'
loop_
 _atom_site_type_symbol
 _atom_site_label
 _atom_site_symmetry_multiplicity
 _atom_site_fract_x
 _atom_site_fract_y
 _atom_site_fract_z
 _atom_site_occupancy
  Na  Na0  1  0.64220262  0.99962247  0.25063418  1
  Na  Na1  1  0.99216898  0.35888773  0.74998310  1
  Na  Na2  1  0.29769068  0.33608392  0.58002906  1
  Na  Na3  1  0.66830617  0.96768905  0.57936599  1
  Na  Na4  1  0.02491123  0.33107544  0.08443510  1
  Na  Na5  1  0.96209095  0.66467119  0.91476218  1
  Na  Na6  1  0.99885937  0.99944005  0.49291235  1
  Na  Na7  1  0.97883211  0.99159991  0.00153755  1
  Na  Na8  1  0.65222436  0.32830640  0.83330620  1
  Na  Na9  1  0.65864613  0.33959550  0.33413234  1
  Na  Na10  1  0.32990493  0.67742887  0.16632209  1
  Na  Na11  1  0.33127075  0.67813630  0.66420214  1
  Nb  Nb0  1  0.99665351  0.99369907  0.64614683  1
  Nb  Nb1  1  0.66555033  0.33611097  0.68723659  1
  Nb  Nb2  1  0.67675835  0.33232867  0.18938937  1
  Nb  Nb3  1  0.65502617  0.32343366  0.47785140  1
  Nb  Nb4  1  0.34307834  0.66668090  0.31107895  1
  Nb  Nb5  1  0.33704865  0.65350990  0.80985932  1
  Si  Si0  1  0.28537094  0.00034971  0.25027843  1
  Si  Si1  1  0.71690739  0.70942306  0.25154613  1
  Si  Si2  1  0.00914169  0.29152698  0.24775640  1
  Si  Si3  1  0.28763488  0.27735183  0.75074565  1
  Si  Si4  1  0.00136639  0.71310446  0.75325809  1
  Si  Si5  1  0.70519234  0.99850308  0.74896879  1
  Si  Si6  1  0.95662023  0.33901934  0.58286938  1
  Si  Si7  1  0.37455505  0.04048870  0.58320847  1
  Si  Si8  1  0.67084338  0.62193555  0.58124875  1
  Si  Si9  1  0.96176062  0.63330302  0.08156305  1
  Si  Si10  1  0.66546529  0.03921657  0.08268500  1
  Si  Si11  1  0.62437609  0.66461923  0.91903500  1
  Si  Si12  1  0.04646712  0.37218900  0.91832689  1
  Si  Si13  1  0.62954945  0.95558348  0.41755193  1
  Si  Si14  1  0.32790650  0.37117606  0.41816935  1
  Sn  Sn0  1  0.00031658  0.00644625  0.35155372  1
  Sn  Sn1  1  0.98888159  0.00311759  0.85237490  1
  Sn  Sn2  1  0.99073532  0.98885376  0.14923715  1
  Sn  Sn3  1  0.68100722  0.34204807  0.97985361  1
  Sn  Sn4  1  0.33909209  0.67092541  0.02123125  1
  Sn  Sn5  1  0.33470705  0.66407154  0.51922040  1
  S  S0  1  0.37876691  0.33081530  0.08277783  1
  S  S1  1  0.33540970  0.95847655  0.91596734  1
  S  S2  1  0.04336670  0.66614209  0.41686870  1
  O  O0  1  0.21030975  0.03995198  0.30886324  1
  O  O1  1  0.83154022  0.78540960  0.30984176  1
  O  O2  1  0.94615498  0.16054932  0.30288633  1
  O  O3  1  0.20570682  0.16539535  0.80878052  1
  O  O4  1  0.96860542  0.78898344  0.81331645  1
  O  O5  1  0.83288373  0.05424281  0.80513276  1
  O  O6  1  0.79505098  0.96901308  0.68993819  1
  O  O7  1  0.16563048  0.19916105  0.69184509  1
  O  O8  1  0.02624714  0.83718480  0.69609063  1
  O  O9  1  0.77805553  0.83655395  0.19483444  1
  O  O10  1  0.04307771  0.21964442  0.18627275  1
  O  O11  1  0.17084817  0.96148402  0.19142729  1
  O  O12  1  0.86819422  0.36093983  0.64285849  1
  O  O13  1  0.50272518  0.13727410  0.63891757  1
  O  O14  1  0.64005242  0.49927482  0.63864611  1
  O  O15  1  0.85331373  0.49866621  0.13596553  1
  O  O16  1  0.64410056  0.13588525  0.14147195  1
  O  O17  1  0.48270755  0.34989055  0.13543995  1
  O  O18  1  0.45668772  0.31050337  0.02792510  1
  O  O19  1  0.85481164  0.55825814  0.01983975  1
  O  O20  1  0.69819230  0.16240244  0.02528095  1
  O  O21  1  0.46419058  0.16642228  0.52561802  1
  O  O22  1  0.69521733  0.52657729  0.52438613  1
  O  O23  1  0.82695597  0.30143642  0.52724502  1
  O  O24  1  0.54218867  0.70373633  0.97603269  1
  O  O25  1  0.15389967  0.46348117  0.97833225  1
  O  O26  1  0.30386197  0.85289548  0.97033097  1
  O  O27  1  0.54308849  0.85141779  0.47865444  1
  O  O28  1  0.29891524  0.44862017  0.47973228  1
  O  O29  1  0.14464324  0.69104780  0.47178807  1
  O  O30  1  0.12847968  0.64571388  0.36453478  1
  O  O31  1  0.50606031  0.86353754  0.35991154  1
  O  O32  1  0.34898406  0.49934968  0.36307217  1
  O  O33  1  0.14275434  0.49936823  0.86034917  1
  O  O34  1  0.35875700  0.87524711  0.86352925  1
  O  O35  1  0.50453356  0.64804561  0.86040201  1
  O  O36  1  0.02268869  0.81900825  0.41330509  1
  O  O37  1  0.81711286  0.97156012  0.41309129  1
  O  O38  1  0.16511020  0.17832114  0.41261250  1
  O  O39  1  0.03101814  0.18467152  0.91416045  1
  O  O40  1  0.17694121  0.97122411  0.91146981  1
  O  O41  1  0.82228717  0.82557424  0.91256887  1
  O  O42  1  0.97209386  0.16331734  0.58979779  1
  O  O43  1  0.19107156  0.03485981  0.59049404  1
  O  O44  1  0.83777820  0.81498815  0.58862543  1
  O  O45  1  0.98705813  0.82403489  0.08719270  1
  O  O46  1  0.84746701  0.03781854  0.08719446  1
  O  O47  1  0.20312933  0.18048543  0.08594940  1
  O  O48  1  0.68949222  0.17068687  0.74045271  1
  O  O49  1  0.48140296  0.31199073  0.74220908  1
  O  O50  1  0.83711770  0.51910872  0.74261355  1
  O  O51  1  0.68375094  0.51572549  0.23977301  1
  O  O52  1  0.83401827  0.31103352  0.24086759  1
  O  O53  1  0.48425682  0.16536376  0.24067326  1
  O  O54  1  0.63320594  0.48553236  0.92008270  1
  O  O55  1  0.85835132  0.36483850  0.91707908  1
  O  O56  1  0.48938648  0.13131338  0.92140454  1
  O  O57  1  0.64601383  0.14835436  0.42323504  1
  O  O58  1  0.51011757  0.36572195  0.42201513  1
  O  O59  1  0.87228969  0.50754193  0.42146297  1
  O  O60  1  0.36073912  0.48810127  0.08088742  1
  O  O61  1  0.14349551  0.62697740  0.08026161  1
  O  O62  1  0.49232623  0.85032951  0.08081373  1
  O  O63  1  0.36355422  0.85572740  0.57811097  1
  O  O64  1  0.49875873  0.64100698  0.58057530  1
  O  O65  1  0.15004689  0.50351819  0.57911246  1
  O  O66  1  0.31996391  0.83578453  0.25916436  1
  O  O67  1  0.52271300  0.68889081  0.25996260  1
  O  O68  1  0.16906874  0.48541930  0.25891569  1
  O  O69  1  0.29939243  0.46870264  0.75683287  1
  O  O70  1  0.16937892  0.68570139  0.75753300  1
  O  O71  1  0.51604563  0.82887951  0.75719087  1
loop_
_geom_bond_atom_site_label_1
_geom_bond_atom_site_label_2
_geom_bond_distance
_geom_bond_site_symmetry_2
Na0 O67 2.449178 1_555
Na0 O52 2.455227 1_565
Na0 O66 2.513753 1_555
Na0 O53 2.529199 1_565
Na0 O2 2.646384 1_565
Na0 O9 2.649975 1_555
Na0 O16 2.765928 1_565
Na0 O31 2.770254 1_555
Na1 O48 2.386928 1_555
Na1 O69 2.426435 1_655
Na1 O50 2.459038 1_555
Na1 O70 2.551541 1_655
Na1 O12 2.682515 1_555
Na1 O5 2.684693 1_555
Na1 O33 2.828709 1_655
Na1 O7 2.908337 1_655
Na2 O43 2.389653 1_555
Na2 O64 2.412429 1_555
Na2 O65 2.453187 1_555
Na2 O28 2.494073 1_555
Na2 O42 2.543591 1_455
Na2 O7 2.816183 1_555
Na2 O21 2.891226 1_555
Na2 O14 2.977994 1_555
Na3 O63 2.397843 1_555
Na3 O42 2.406686 1_565
Na3 O44 2.516851 1_555
Na3 O27 2.533102 1_555
Na3 O64 2.542911 1_555
Na3 O6 2.757791 1_555
Na3 O23 2.857844 1_565
Na3 O13 2.936079 1_565
Na4 O46 2.299588 1_455
Na4 O61 2.319925 1_555
Na4 O47 2.561426 1_555
Na4 O10 2.561863 1_555
Na4 O60 2.614835 1_555
Na4 O25 2.684173 1_554
Na4 O20 2.874843 1_455
Na4 O15 2.885452 1_455
Na5 O41 2.342181 1_555
Na5 O55 2.370651 1_555
Na5 O40 2.449766 1_655
Na5 O4 2.552542 1_555
Na5 O54 2.564104 1_555
Na5 O19 2.575520 1_556
Na5 O26 2.946576 1_655
Na5 O33 2.961140 1_655
Na6 O37 2.369325 1_555
Na6 O38 2.398574 1_665
Na6 O36 2.506632 1_655
Na6 O44 2.680780 1_555
Na6 O42 2.723277 1_565
Na6 O43 2.730574 1_665
Na7 O46 2.416341 1_565
Na7 O41 2.487286 1_554
Na7 O45 2.487734 1_555
Na7 O39 2.525001 1_664
Na7 O47 2.682052 1_665
Na7 O40 2.776565 1_654
Na8 O54 2.478978 1_555
Na8 O49 2.538274 1_555
Na8 O55 2.560647 1_555
Na8 O56 2.589312 1_555
Na8 O48 2.652092 1_555
Na8 O50 2.666411 1_555
Na9 O58 2.476374 1_555
Na9 O51 2.610445 1_555
Na9 O57 2.624707 1_555
Na9 O53 2.637518 1_555
Na9 O59 2.645259 1_555
Na9 O52 2.727252 1_555
Na10 O62 2.462104 1_555
Na10 O61 2.465422 1_555
Na10 O66 2.569236 1_555
Na10 O68 2.648060 1_555
Na10 O60 2.683097 1_555
Na10 O67 2.714303 1_555
Na11 O63 2.451759 1_555
Na11 O65 2.508059 1_555
Na11 O64 2.546045 1_555
Na11 O70 2.590956 1_555
Na11 O71 2.608118 1_555
Na11 O69 2.745124 1_555
Nb0 O8 1.928548 1_655
Nb0 O6 1.978527 1_555
Nb0 O7 1.995692 1_665
Nb0 O44 2.006681 1_555
Nb0 O43 2.034311 1_665
Nb0 O42 2.087623 1_565
Nb1 O14 1.940566 1_555
Nb1 O13 1.979433 1_555
Nb1 O12 1.992832 1_555
Nb1 O49 1.995720 1_555
Nb1 O48 2.011866 1_555
Nb1 O50 2.030500 1_555
Nb2 O52 1.917016 1_555
Nb2 O15 1.964050 1_555
Nb2 O16 1.965447 1_555
Nb2 O51 1.979924 1_555
Nb2 O53 2.002234 1_555
Nb2 O17 2.201323 1_555
Nb3 O21 1.921479 1_555
Nb3 O57 1.971680 1_555
Nb3 O22 1.978591 1_555
Nb3 O58 1.987178 1_555
Nb3 O23 1.998332 1_555
Nb3 O59 2.227955 1_555
Nb4 O67 1.915352 1_555
Nb4 O32 1.936123 1_555
Nb4 O31 1.976954 1_555
Nb4 O68 1.987488 1_555
Nb4 O66 2.017156 1_555
Nb4 O30 2.204647 1_555
Nb5 O35 1.913681 1_555
Nb5 O69 1.937918 1_555
Nb5 O33 1.966438 1_555
Nb5 O71 1.993075 1_555
Nb5 O70 2.050967 1_555
Nb5 O34 2.257881 1_555
O0 Si0 1.609694 1_555
O0 Sn0 2.004846 1_555
O1 Si1 1.605485 1_555
O1 Sn0 2.030935 1_665
O2 Si2 1.617194 1_655
O2 Sn0 2.014872 1_655
O3 Si3 1.599339 1_555
O3 Sn1 2.015775 1_455
O4 Si4 1.615991 1_655
O4 Sn1 2.041204 1_565
O5 Si5 1.619041 1_545
O5 Sn1 1.993940 1_555
O6 Si5 1.653114 1_555
O7 Si3 1.647863 1_555
O8 Si4 1.654928 1_555
O9 Si1 1.626829 1_555
O9 Sn2 1.995996 1_555
O10 Si2 1.629700 1_555
O10 Sn2 2.061262 1_445
O11 Si0 1.615765 1_565
O11 Sn2 1.999639 1_455
O12 Si6 1.637882 1_555
O13 Si7 1.637543 1_555
O14 Si8 1.641589 1_555
O15 Si9 1.663665 1_555
O16 Si10 1.654855 1_555
O17 S0 1.474766 1_555
O18 S0 1.484325 1_555
O18 Sn3 2.181641 1_554
O19 Si9 1.642078 1_555
O19 Sn3 1.999709 1_554
O20 Si10 1.641641 1_555
O20 Sn3 1.988257 1_554
O21 Si7 1.654156 1_555
O22 Si8 1.623394 1_555
O23 Si6 1.635960 1_555
O24 Si11 1.613430 1_555
O24 Sn4 1.982381 1_556
O25 Si12 1.634104 1_555
O25 Sn4 2.021354 1_556
O26 S1 1.497817 1_555
O26 Sn4 2.153930 1_556
O27 Si13 1.638737 1_555
O27 Sn5 2.009862 1_555
O28 Si14 1.639220 1_555
O28 Sn5 2.006963 1_555
O29 S2 1.494384 1_555
O29 Sn5 2.133844 1_555
O30 S2 1.473507 1_555
O31 Si13 1.646597 1_555
O32 Si14 1.648983 1_555
O33 Si12 1.675479 1_555
O34 S1 1.475423 1_555
O35 Si11 1.672861 1_555
O36 S2 1.477742 1_555
O36 Sn0 2.279791 1_565
O37 Si13 1.620577 1_555
O37 Sn0 2.060216 1_665
O38 Si14 1.619236 1_555
O38 Sn0 2.051879 1_555
O39 Si12 1.622689 1_555
O39 Sn1 2.037396 1_455
O40 S1 1.487417 1_555
O40 Sn1 2.286734 1_465
O41 Si11 1.643746 1_555
O41 Sn1 2.067596 1_565
O42 Si6 1.660601 1_555
O43 Si7 1.631437 1_555
O44 Si8 1.637992 1_555
O45 Si9 1.617158 1_555
O45 Sn2 2.031263 1_555
O46 Si10 1.644146 1_555
O46 Sn2 2.100128 1_545
O47 S0 1.478888 1_555
O47 Sn2 2.322616 1_445
O48 Si5 1.634317 1_545
O49 Si3 1.618880 1_555
O50 Si4 1.643209 1_655
O51 Si1 1.633900 1_555
O52 Si2 1.674854 1_655
O53 Si0 1.669866 1_555
O54 Si11 1.650615 1_555
O54 Sn3 2.062867 1_555
O55 Si12 1.657667 1_655
O55 Sn3 2.070334 1_555
O56 S1 1.480197 1_545
O56 Sn3 2.246400 1_555
O57 Si13 1.667979 1_545
O58 Si14 1.663850 1_555
O59 S2 1.487574 1_655
O60 S0 1.501638 1_555
O60 Sn4 2.214904 1_555
O61 Si9 1.661536 1_455
O61 Sn4 2.084928 1_555
O62 Si10 1.631132 1_565
O62 Sn4 2.025332 1_555
O63 Si7 1.617054 1_565
O63 Sn5 2.090373 1_555
O64 Si8 1.638008 1_555
O64 Sn5 2.114073 1_555
O65 Si6 1.625398 1_455
O65 Sn5 2.072969 1_555
O66 Si0 1.668880 1_565
O67 Si1 1.670344 1_555
O68 Si2 1.630532 1_555
O69 Si3 1.674625 1_555
O70 Si4 1.648902 1_555
O71 Si5 1.629344 1_555
