# generated using pymatgen
data_Eu2SiS4
_symmetry_space_group_name_H-M   'P 1'
_cell_length_a   6.54390608
_cell_length_b   6.58889266
_cell_length_c   8.10187952
_cell_angle_alpha   90.00000000
_cell_angle_beta   108.11517581
_cell_angle_gamma   90.00000000
_symmetry_Int_Tables_number   1
_chemical_formula_structural   Eu2SiS4
_chemical_formula_sum   'Eu4 Si2 S8'
_cell_volume   332.01443463
_cell_formula_units_Z   2
loop_
 _symmetry_equiv_pos_site_id
 _symmetry_equiv_pos_as_xyz
  1  'x, y, z'
loop_
 _atom_site_type_symbol
 _atom_site_label
 _atom_site_symmetry_multiplicity
 _atom_site_fract_x
 _atom_site_fract_y
 _atom_site_fract_z
 _atom_site_occupancy
  Eu  Eu0  1  0.21781438  0.75000000  0.55026280  1
  Eu  Eu1  1  0.78218562  0.25000000  0.44973720  1
  Eu  Eu2  1  0.27157460  0.75000000  0.06964005  1
  Eu  Eu3  1  0.72842540  0.25000000  0.93035995  1
  Si  Si0  1  0.22276652  0.25000000  0.29832375  1
  Si  Si1  1  0.77723348  0.75000000  0.70167625  1
  S  S0  1  0.99139603  0.50017842  0.76115167  1
  S  S1  1  0.00860397  0.00017842  0.23884833  1
  S  S2  1  0.00860397  0.49982158  0.23884833  1
  S  S3  1  0.99139603  -0.00017842  0.76115167  1
  S  S4  1  0.41709441  0.25000000  0.13161955  1
  S  S5  1  0.58290559  0.75000000  0.86838045  1
  S  S6  1  0.39242737  0.25000000  0.56735808  1
  S  S7  1  0.60757263  0.75000000  0.43264192  1
loop_
_geom_bond_atom_site_label_1
_geom_bond_atom_site_label_2
_geom_bond_distance
_geom_bond_site_symmetry_2
Eu0 S5 2.919160 1_555
Eu0 S1 2.968041 1_565
Eu0 S2 2.968041 1_555
Eu0 S7 2.987444 1_555
Eu0 S3 3.065674 1_465
Eu0 S0 3.065674 1_455
Eu0 S6 3.475600 1_565
Eu0 S6 3.475600 1_555
Eu1 S4 2.919160 1_555
Eu1 S0 2.968041 1_555
Eu1 S3 2.968041 1_555
Eu1 S6 2.987444 1_555
Eu1 S1 3.065674 1_655
Eu1 S2 3.065674 1_655
Eu1 S7 3.475600 1_545
Eu1 S7 3.475600 1_555
Eu2 S5 2.979142 1_554
Eu2 S1 3.004161 1_565
Eu2 S2 3.004161 1_555
Eu2 S7 3.076149 1_555
Eu2 S0 3.077031 1_454
Eu2 S3 3.077031 1_464
Eu2 S4 3.422716 1_565
Eu2 S4 3.422716 1_555
Eu3 S4 2.979142 1_556
Eu3 S0 3.004161 1_555
Eu3 S3 3.004161 1_555
Eu3 S6 3.076149 1_555
Eu3 S1 3.077031 1_656
Eu3 S2 3.077031 1_656
Eu3 S5 3.422716 1_555
Eu3 S5 3.422716 1_545
S0 Si1 2.117972 1_555
S1 Si0 2.117972 1_555
S2 Si0 2.117972 1_555
S3 Si1 2.117972 1_545
S4 Si0 2.123524 1_555
S5 Si1 2.123524 1_555
S6 Si0 2.116314 1_555
S7 Si1 2.116314 1_555
