# generated using pymatgen
data_RbP(HO)2
_symmetry_space_group_name_H-M   'P 1'
_cell_length_a   6.45224800
_cell_length_b   7.72029000
_cell_length_c   8.27422300
_cell_angle_alpha   90.00000000
_cell_angle_beta   90.00000000
_cell_angle_gamma   90.00000000
_symmetry_Int_Tables_number   1
_chemical_formula_structural   RbP(HO)2
_chemical_formula_sum   'Rb4 P4 H8 O8'
_cell_volume   412.16573789
_cell_formula_units_Z   4
loop_
 _symmetry_equiv_pos_site_id
 _symmetry_equiv_pos_as_xyz
  1  'x, y, z'
loop_
 _atom_site_type_symbol
 _atom_site_label
 _atom_site_symmetry_multiplicity
 _atom_site_fract_x
 _atom_site_fract_y
 _atom_site_fract_z
 _atom_site_occupancy
  Rb  Rb0  1  0.25000000  0.36113100  0.13148400  1
  Rb  Rb1  1  0.75000000  0.63886900  0.86851600  1
  Rb  Rb2  1  0.75000000  0.86113100  0.36851600  1
  Rb  Rb3  1  0.25000000  0.13886900  0.63148400  1
  P  P0  1  0.75000000  0.17449300  0.87854700  1
  P  P1  1  0.25000000  0.82550700  0.12145300  1
  P  P2  1  0.25000000  0.67449300  0.62145300  1
  P  P3  1  0.75000000  0.32550700  0.37854700  1
  H  H0  1  0.75000000  0.05908800  0.74304300  1
  H  H1  1  0.25000000  0.94091200  0.25695700  1
  H  H2  1  0.25000000  0.55908800  0.75695700  1
  H  H3  1  0.75000000  0.44091200  0.24304300  1
  H  H4  1  0.75000000  0.05441200  0.01029500  1
  H  H5  1  0.25000000  0.94558800  0.98970500  1
  H  H6  1  0.25000000  0.55441200  0.48970500  1
  H  H7  1  0.75000000  0.44558800  0.51029500  1
  O  O0  1  0.54701100  0.22576300  0.37922900  1
  O  O1  1  0.04701100  0.77423700  0.62077100  1
  O  O2  1  0.45298900  0.72576300  0.12077100  1
  O  O3  1  0.95298900  0.27423700  0.87922900  1
  O  O4  1  0.45298900  0.77423700  0.62077100  1
  O  O5  1  0.95298900  0.22576300  0.37922900  1
  O  O6  1  0.54701100  0.27423700  0.87922900  1
  O  O7  1  0.04701100  0.72576300  0.12077100  1
loop_
_geom_bond_atom_site_label_1
_geom_bond_atom_site_label_2
_geom_bond_distance
_geom_bond_site_symmetry_2
H0 P0 1.432089 1_555
H1 P1 1.432089 1_555
H2 P2 1.432089 1_555
H3 P3 1.432089 1_555
H4 P0 1.431009 1_554
H5 P1 1.431009 1_556
H6 P2 1.431009 1_555
H7 P3 1.431009 1_555
O0 P3 1.519348 1_555
O0 Rb3 2.911880 1_555
O0 Rb0 2.994464 1_555
O0 Rb2 3.106099 1_545
O1 P2 1.519348 1_555
O1 Rb2 2.911880 1_455
O1 Rb1 2.994464 1_455
O1 Rb3 3.106099 1_565
O2 P1 1.519348 1_555
O2 Rb1 2.911880 1_554
O2 Rb2 2.994464 1_555
O2 Rb0 3.106099 1_555
O3 P0 1.519348 1_555
O3 Rb0 2.911880 1_656
O3 Rb3 2.994464 1_655
O3 Rb1 3.106099 1_555
O4 P2 1.519348 1_555
O4 Rb2 2.911880 1_555
O4 Rb1 2.994464 1_555
O4 Rb3 3.106099 1_565
O5 P3 1.519348 1_555
O5 Rb3 2.911880 1_655
O5 Rb0 2.994464 1_655
O5 Rb2 3.106099 1_545
O6 P0 1.519348 1_555
O6 Rb0 2.911880 1_556
O6 Rb3 2.994464 1_555
O6 Rb1 3.106099 1_555
O7 P1 1.519348 1_555
O7 Rb1 2.911880 1_454
O7 Rb2 2.994464 1_455
O7 Rb0 3.106099 1_555
