# generated using pymatgen
data_RbNiBr3
_symmetry_space_group_name_H-M   'P 1'
_cell_length_a   7.35620590
_cell_length_b   7.35620696
_cell_length_c   6.23210219
_cell_angle_alpha   90.00000000
_cell_angle_beta   90.00000000
_cell_angle_gamma   120.00000336
_symmetry_Int_Tables_number   1
_chemical_formula_structural   RbNiBr3
_chemical_formula_sum   'Rb2 Ni2 Br6'
_cell_volume   292.06061722
_cell_formula_units_Z   2
loop_
 _symmetry_equiv_pos_site_id
 _symmetry_equiv_pos_as_xyz
  1  'x, y, z'
loop_
 _atom_site_type_symbol
 _atom_site_label
 _atom_site_symmetry_multiplicity
 _atom_site_fract_x
 _atom_site_fract_y
 _atom_site_fract_z
 _atom_site_occupancy
  Rb  Rb0  1  0.66666700  0.33333300  0.25000000  1
  Rb  Rb1  1  0.33333300  0.66666700  0.75000000  1
  Ni  Ni0  1  -0.00000000  -0.00000000  0.50000000  1
  Ni  Ni1  1  -0.00000000  -0.00000000  -0.00000000  1
  Br  Br0  1  0.68179214  0.84089557  0.25000000  1
  Br  Br1  1  0.84089557  0.15910443  0.75000000  1
  Br  Br2  1  0.15910443  0.84089557  0.25000000  1
  Br  Br3  1  0.31820786  0.15910443  0.75000000  1
  Br  Br4  1  0.84089557  0.68179214  0.75000000  1
  Br  Br5  1  0.15910443  0.31820786  0.25000000  1
loop_
_geom_bond_atom_site_label_1
_geom_bond_atom_site_label_2
_geom_bond_distance
_geom_bond_site_symmetry_2
Br0 Ni1 2.556748 1_665
Br0 Ni0 2.556748 1_665
Br0 Rb0 3.679365 1_565
Br0 Rb0 3.679365 1_555
Br0 Rb1 3.825937 1_555
Br0 Rb1 3.825937 1_554
Br1 Ni1 2.556753 1_656
Br1 Ni0 2.556753 1_655
Br1 Rb1 3.679365 1_545
Br1 Rb1 3.679365 1_655
Br1 Rb0 3.825930 1_555
Br1 Rb0 3.825930 1_556
Br2 Ni0 2.556753 1_565
Br2 Ni1 2.556753 1_565
Br2 Rb0 3.679365 1_565
Br2 Rb0 3.679365 1_455
Br2 Rb1 3.825930 1_555
Br2 Rb1 3.825930 1_554
Br3 Ni1 2.556748 1_556
Br3 Ni0 2.556748 1_555
Br3 Rb1 3.679365 1_545
Br3 Rb1 3.679365 1_555
Br3 Rb0 3.825937 1_555
Br3 Rb0 3.825937 1_556
Br4 Ni0 2.556748 1_665
Br4 Ni1 2.556748 1_666
Br4 Rb1 3.679365 1_555
Br4 Rb1 3.679365 1_655
Br4 Rb0 3.825938 1_555
Br4 Rb0 3.825938 1_556
Br5 Ni1 2.556748 1_555
Br5 Ni0 2.556748 1_555
Br5 Rb0 3.679365 1_555
Br5 Rb0 3.679365 1_455
Br5 Rb1 3.825938 1_555
Br5 Rb1 3.825938 1_554
