# generated using pymatgen
data_Na6Al4Si5Sn4S7O48
_symmetry_space_group_name_H-M   'P 1'
_cell_length_a   17.42231669
_cell_length_b   8.73939422
_cell_length_c   22.45999928
_cell_angle_alpha   90.04931131
_cell_angle_beta   90.03001698
_cell_angle_gamma   120.34839410
_symmetry_Int_Tables_number   1
_chemical_formula_structural   Na6Al4Si5Sn4S7O48
_chemical_formula_sum   'Na18 Al12 Si15 Sn12 S21 O144'
_cell_volume   2951.15342591
_cell_formula_units_Z   3
loop_
 _symmetry_equiv_pos_site_id
 _symmetry_equiv_pos_as_xyz
  1  'x, y, z'
loop_
 _atom_site_type_symbol
 _atom_site_label
 _atom_site_symmetry_multiplicity
 _atom_site_fract_x
 _atom_site_fract_y
 _atom_site_fract_z
 _atom_site_occupancy
  Na  Na0  1  0.00066603  0.63060436  0.25386492  1
  Na  Na1  1  0.49637121  0.63734529  0.25120261  1
  Na  Na2  1  0.99586866  0.35793493  0.75017513  1
  Na  Na3  1  0.50259719  0.36328971  0.75197100  1
  Na  Na4  1  0.66407003  0.29996186  0.91703841  1
  Na  Na5  1  0.16544610  0.02807911  0.42573507  1
  Na  Na6  1  0.99947556  0.99359960  0.50288389  1
  Na  Na7  1  0.50640356  0.99921049  0.50290465  1
  Na  Na8  1  0.00518520  0.01140281  0.99901521  1
  Na  Na9  1  0.50138722  0.00963296  0.99800294  1
  Na  Na10  1  0.32972061  0.32393688  0.83481712  1
  Na  Na11  1  0.83239458  0.33317307  0.82532238  1
  Na  Na12  1  0.33983589  0.34270155  0.32927183  1
  Na  Na13  1  0.82666870  0.33176847  0.33650450  1
  Na  Na14  1  0.18031415  0.66419405  0.16797736  1
  Na  Na15  1  0.67145680  0.65504733  0.16455282  1
  Na  Na16  1  0.17203022  0.68904882  0.66658897  1
  Na  Na17  1  0.67908966  0.68490297  0.67275690  1
  Al  Al0  1  0.99733222  0.98996248  0.35378708  1
  Al  Al1  1  0.50290470  0.01689564  0.85113716  1
  Al  Al2  1  0.32309815  0.33587514  0.67815507  1
  Al  Al3  1  0.82110440  0.30584991  0.69766569  1
  Al  Al4  1  0.33307621  0.35382777  0.19019361  1
  Al  Al5  1  0.82013589  0.30881887  0.17485986  1
  Al  Al6  1  0.82668989  0.31338419  0.98640806  1
  Al  Al7  1  0.33218656  0.34324110  0.49361904  1
  Al  Al8  1  0.17062271  0.66359057  0.31792396  1
  Al  Al9  1  0.66215055  0.64297357  0.31504490  1
  Al  Al10  1  0.16615072  0.68805526  0.81288106  1
  Al  Al11  1  0.66687324  0.65468222  0.81027695  1
  Si  Si0  1  0.34812562  0.70760701  0.25152419  1
  Si  Si1  1  0.49833080  0.30541702  0.24838009  1
  Si  Si2  1  0.64436898  0.28960125  0.75237755  1
  Si  Si3  1  0.00005742  0.69206463  0.74788411  1
  Si  Si4  1  0.84957965  0.98983067  0.75187417  1
  Si  Si5  1  0.18933142  0.05282703  0.58346366  1
  Si  Si6  1  0.69526911  0.05070697  0.58500366  1
  Si  Si7  1  0.33372273  0.62159356  0.58330681  1
  Si  Si8  1  0.83115217  0.04708668  0.08177043  1
  Si  Si9  1  0.19539690  0.33997127  0.08533039  1
  Si  Si10  1  0.68911224  0.32902816  0.08229495  1
  Si  Si11  1  0.52298474  0.37910437  0.91208687  1
  Si  Si12  1  0.16287997  0.95034789  0.91539151  1
  Si  Si13  1  0.66444879  0.37680443  0.41530606  1
  Si  Si14  1  0.02400906  0.66737197  0.41086113  1
  Sn  Sn0  1  0.49943569  0.01353930  0.34892757  1
  Sn  Sn1  1  0.99934501  0.98406310  0.84840521  1
  Sn  Sn2  1  0.00192911  0.98930512  0.65057704  1
  Sn  Sn3  1  0.50485991  0.99884029  0.64546493  1
  Sn  Sn4  1  0.99905772  0.01005982  0.14261500  1
  Sn  Sn5  1  0.50169381  0.01471488  0.14971073  1
  Sn  Sn6  1  0.32913024  0.32336944  0.97541693  1
  Sn  Sn7  1  0.83027978  0.33765615  0.47716510  1
  Sn  Sn8  1  0.16731823  0.66486152  0.01823015  1
  Sn  Sn9  1  0.66674752  0.65757914  0.02204020  1
  Sn  Sn10  1  0.16591152  0.67606655  0.52425904  1
  Sn  Sn11  1  0.66690711  0.66790595  0.52027102  1
  S  S0  1  0.14419750  0.00090320  0.25184020  1
  S  S1  1  0.65574257  0.00500049  0.25121791  1
  S  S2  1  0.85449628  0.71107818  0.25182088  1
  S  S3  1  0.99938266  0.28941782  0.25442145  1
  S  S4  1  0.15566308  0.30678664  0.75150923  1
  S  S5  1  0.49712774  0.70501359  0.75387125  1
  S  S6  1  0.35292822  0.99706433  0.75146241  1
  S  S7  1  0.47276977  0.33372198  0.58449181  1
  S  S8  1  0.97467031  0.32752687  0.58473457  1
  S  S9  1  0.83373099  0.62141119  0.58533868  1
  S  S10  1  0.47484554  0.62155257  0.08524001  1
  S  S11  1  0.97325516  0.61058325  0.08526125  1
  S  S12  1  0.33272263  0.04702645  0.08586899  1
  S  S13  1  0.31446607  0.67725914  0.91033793  1
  S  S14  1  0.81316391  0.66235018  0.91706788  1
  S  S15  1  0.01659723  0.37327300  0.91531861  1
  S  S16  1  0.66637690  0.95508371  0.91466458  1
  S  S17  1  0.31230820  0.96074073  0.41624615  1
  S  S18  1  0.81350693  0.95139020  0.41026031  1
  S  S19  1  0.16567878  0.37413353  0.41349317  1
  S  S20  1  0.51737379  0.66051090  0.41508967  1
  O  O0  1  0.10122444  0.03009560  0.30465550  1
  O  O1  1  0.61657958  0.04066708  0.30453557  1
  O  O2  1  0.42001649  0.78742074  0.30778649  1
  O  O3  1  0.91579508  0.80247957  0.30292201  1
  O  O4  1  0.47470620  0.18260733  0.30775341  1
  O  O5  1  0.98643870  0.17182666  0.30546643  1
  O  O6  1  0.11673150  0.19256768  0.80466647  1
  O  O7  1  0.59787910  0.16266230  0.81019119  1
  O  O8  1  0.48092250  0.79069377  0.80496006  1
  O  O9  1  0.97689880  0.76727966  0.80770216  1
  O  O10  1  0.41201704  0.02726843  0.80335959  1
  O  O11  1  0.92236989  0.05464953  0.80789545  1
  O  O12  1  0.38756449  0.96306206  0.69596865  1
  O  O13  1  0.89418805  0.95568833  0.69186287  1
  O  O14  1  0.09595295  0.23432948  0.69824674  1
  O  O15  1  0.57325038  0.21076837  0.69498880  1
  O  O16  1  0.03213944  0.83004749  0.69190318  1
  O  O17  1  0.51208819  0.80640762  0.69767455  1
  O  O18  1  0.39372619  0.82918376  0.19175620  1
  O  O19  1  0.89311092  0.81626614  0.19625587  1
  O  O20  1  0.01593967  0.21711983  0.19868406  1
  O  O21  1  0.52927792  0.23252235  0.19201194  1
  O  O22  1  0.08301448  0.95511639  0.19861458  1
  O  O23  1  0.59540718  0.95722886  0.19835409  1
  O  O24  1  0.43261472  0.35496681  0.63985515  1
  O  O25  1  0.93581802  0.35540117  0.63762898  1
  O  O26  1  0.24993142  0.14158752  0.64162455  1
  O  O27  1  0.75607183  0.14831778  0.64119735  1
  O  O28  1  0.32350803  0.51116551  0.64300699  1
  O  O29  1  0.82608762  0.51839158  0.63702086  1
  O  O30  1  0.43504586  0.51511154  0.13933605  1
  O  O31  1  0.93299496  0.50984103  0.14173794  1
  O  O32  1  0.32466698  0.13476580  0.13856832  1
  O  O33  1  0.82392861  0.13347549  0.14382734  1
  O  O34  1  0.25358302  0.36017209  0.14302548  1
  O  O35  1  0.74781420  0.36143400  0.14211066  1
  O  O36  1  0.23232911  0.30989625  0.02278370  1
  O  O37  1  0.73416010  0.31143508  0.02068564  1
  O  O38  1  0.42371906  0.54397283  0.02987663  1
  O  O39  1  0.92123117  0.52962423  0.03131326  1
  O  O40  1  0.34750410  0.14609015  0.02953118  1
  O  O41  1  0.85078182  0.16893547  0.02366605  1
  O  O42  1  0.23362015  0.15689025  0.51997284  1
  O  O43  1  0.73089083  0.15111205  0.52077414  1
  O  O44  1  0.35226410  0.54105312  0.52331045  1
  O  O45  1  0.84903243  0.55473889  0.52765738  1
  O  O46  1  0.42113975  0.31571657  0.52961041  1
  O  O47  1  0.92536754  0.30392948  0.52774131  1
  O  O48  1  0.28177168  0.71004198  0.96847598  1
  O  O49  1  0.77713108  0.69601828  0.97226366  1
  O  O50  1  0.07194520  0.44815807  0.97104091  1
  O  O51  1  0.58541123  0.45237412  0.97246586  1
  O  O52  1  0.14701334  0.84014083  0.97848094  1
  O  O53  1  0.65194182  0.85386535  0.97098617  1
  O  O54  1  0.27470200  0.85413429  0.47071775  1
  O  O55  1  0.78095394  0.85191356  0.46726127  1
  O  O56  1  0.14876209  0.44421988  0.46838755  1
  O  O57  1  0.64775571  0.45727237  0.47706801  1
  O  O58  1  0.08854983  0.71970358  0.46968923  1
  O  O59  1  0.57297923  0.69511659  0.46958182  1
  O  O60  1  0.07302714  0.64412311  0.35245341  1
  O  O61  1  0.56237007  0.64504591  0.36079474  1
  O  O62  1  0.25455102  0.87428500  0.36349003  1
  O  O63  1  0.75389250  0.86162833  0.35960783  1
  O  O64  1  0.18082591  0.48978852  0.36170264  1
  O  O65  1  0.67901754  0.50096563  0.35883073  1
  O  O66  1  0.06208092  0.48015678  0.86203849  1
  O  O67  1  0.57234306  0.50470756  0.85560825  1
  O  O68  1  0.17806112  0.85366249  0.86016777  1
  O  O69  1  0.68156986  0.87223951  0.86334116  1
  O  O70  1  0.25333009  0.64530684  0.86066355  1
  O  O71  1  0.75614223  0.63228447  0.86485422  1
  O  O72  1  0.01444019  0.84592218  0.40251322  1
  O  O73  1  0.50697863  0.81808335  0.41074278  1
  O  O74  1  0.40009372  0.97431865  0.41187745  1
  O  O75  1  0.90374985  0.97337244  0.40202471  1
  O  O76  1  0.08502109  0.19282259  0.40377767  1
  O  O77  1  0.57718554  0.17429305  0.41229783  1
  O  O78  1  0.00603235  0.19467843  0.91171505  1
  O  O79  1  0.51033008  0.17895714  0.90603193  1
  O  O80  1  0.07692746  0.98028160  0.91260280  1
  O  O81  1  0.58547769  0.97385887  0.90871912  1
  O  O82  1  0.40415157  0.83414751  0.90212625  1
  O  O83  1  0.90173806  0.82469842  0.91295353  1
  O  O84  1  0.48032324  0.17318421  0.58573761  1
  O  O85  1  0.98455861  0.16820312  0.58799666  1
  O  O86  1  0.09129728  0.04134641  0.58527578  1
  O  O87  1  0.59567263  0.02587689  0.58669944  1
  O  O88  1  0.41774143  0.82570925  0.58844179  1
  O  O89  1  0.91166510  0.80665079  0.58590206  1
  O  O90  1  0.48367445  0.79922139  0.08986910  1
  O  O91  1  0.98386483  0.79087614  0.08978934  1
  O  O92  1  0.41047442  0.01883278  0.08716033  1
  O  O93  1  0.91604229  0.01234474  0.08513658  1
  O  O94  1  0.09641622  0.16029914  0.08890872  1
  O  O95  1  0.59089490  0.14178716  0.08532507  1
  O  O96  1  0.34752478  0.16175679  0.74606916  1
  O  O97  1  0.84601983  0.16924297  0.74420283  1
  O  O98  1  0.24285672  0.31842376  0.74242194  1
  O  O99  1  0.74011170  0.31082216  0.74405769  1
  O  O100  1  0.41891554  0.52005681  0.74660735  1
  O  O101  1  0.91442369  0.50063197  0.73483139  1
  O  O102  1  0.34128586  0.51576918  0.24423031  1
  O  O103  1  0.84932046  0.53658234  0.24675370  1
  O  O104  1  0.41070397  0.32254863  0.23626696  1
  O  O105  1  0.92078429  0.31190666  0.24832685  1
  O  O106  1  0.23171467  0.15815196  0.24399490  1
  O  O107  1  0.74313029  0.16865224  0.24203341  1
  O  O108  1  0.32243350  0.51663866  0.91600877  1
  O  O109  1  0.82202843  0.50184414  0.92342404  1
  O  O110  1  0.42744555  0.37054404  0.92010055  1
  O  O111  1  0.93004612  0.36645453  0.92256366  1
  O  O112  1  0.25195582  0.14686107  0.91582361  1
  O  O113  1  0.74610766  0.14098494  0.92127694  1
  O  O114  1  0.32112120  0.13826230  0.42125014  1
  O  O115  1  0.82406494  0.12964354  0.41520301  1
  O  O116  1  0.24442158  0.35007848  0.41844776  1
  O  O117  1  0.75318498  0.35853947  0.41630799  1
  O  O118  1  0.43040969  0.49387842  0.42137023  1
  O  O119  1  0.92812325  0.48671598  0.41900108  1
  O  O120  1  0.18162254  0.51575952  0.07978413  1
  O  O121  1  0.67591529  0.50133277  0.08237520  1
  O  O122  1  0.06361301  0.63099015  0.08272035  1
  O  O123  1  0.56419386  0.64114017  0.08090760  1
  O  O124  1  0.24987467  0.86823428  0.08235440  1
  O  O125  1  0.73922361  0.85456537  0.07792374  1
  O  O126  1  0.17611714  0.85364416  0.58278833  1
  O  O127  1  0.68256598  0.84706518  0.57976818  1
  O  O128  1  0.24067234  0.62618015  0.57734849  1
  O  O129  1  0.75085881  0.63319097  0.58105331  1
  O  O130  1  0.06542456  0.48787812  0.57930244  1
  O  O131  1  0.56283959  0.49564173  0.58126328  1
  O  O132  1  0.15204570  0.84028347  0.25833077  1
  O  O133  1  0.66528005  0.84871291  0.26133553  1
  O  O134  1  0.25208340  0.69137291  0.26362803  1
  O  O135  1  0.76688334  0.69499611  0.25938841  1
  O  O136  1  0.07968093  0.46870663  0.26024745  1
  O  O137  1  0.58359390  0.50816933  0.25886316  1
  O  O138  1  0.16544163  0.48243449  0.76154529  1
  O  O139  1  0.65059212  0.48219544  0.75855430  1
  O  O140  1  0.08583127  0.66241990  0.75847521  1
  O  O141  1  0.57772101  0.69001915  0.76045943  1
  O  O142  1  0.26386884  0.83801064  0.76000625  1
  O  O143  1  0.75333497  0.82035332  0.76462752  1
loop_
_geom_bond_atom_site_label_1
_geom_bond_atom_site_label_2
_geom_bond_distance
_geom_bond_site_symmetry_2
Na0 O132 2.332267 1_555
Na0 O103 2.337364 1_455
Na0 O105 2.406668 1_455
Na0 O136 2.426095 1_555
Na0 O60 2.520425 1_555
Na0 O22 2.745478 1_555
Na0 O31 2.753362 1_455
Na0 O3 2.810683 1_455
Na1 O137 2.312345 1_555
Na1 O102 2.356313 1_555
Na1 O104 2.399473 1_555
Na1 O133 2.574772 1_555
Na1 O2 2.620489 1_555
Na1 O61 2.702578 1_555
Na1 O23 2.708302 1_555
Na1 O30 2.726662 1_555
Na2 O97 2.280785 1_555
Na2 O140 2.314431 1_655
Na2 O101 2.340049 1_555
Na2 O138 2.593786 1_655
Na2 O11 2.631275 1_555
Na2 O25 2.731025 1_555
Na2 O14 2.733324 1_655
Na2 O66 2.744317 1_655
Na3 O139 2.245377 1_555
Na3 O96 2.368476 1_555
Na3 O100 2.456753 1_555
Na3 O141 2.474883 1_555
Na3 O15 2.566445 1_555
Na3 O67 2.626152 1_555
Na3 O24 2.782025 1_555
Na3 O10 2.787658 1_555
Na4 O79 2.343153 1_555
Na4 O109 2.408237 1_555
Na4 O113 2.447244 1_555
Na4 O81 2.467273 1_545
Na4 O37 2.606397 1_556
Na4 O51 2.654342 1_555
Na4 O7 2.668802 1_555
Na4 O71 2.771619 1_555
Na5 O72 2.343651 1_545
Na5 O114 2.377990 1_555
Na5 O42 2.408330 1_555
Na5 O116 2.434617 1_555
Na5 O76 2.513669 1_555
Na5 O58 2.527841 1_545
Na5 O62 2.877239 1_545
Na5 O0 2.943542 1_555
Na6 O86 2.340674 1_665
Na6 O89 2.443147 1_555
Na6 O85 2.539012 1_565
Na6 O72 2.674185 1_655
Na6 O76 2.755971 1_665
Na6 O75 2.764361 1_555
Na7 O87 2.375951 1_565
Na7 O88 2.453039 1_555
Na7 O77 2.470745 1_565
Na7 O84 2.583307 1_565
Na7 O73 2.607859 1_555
Na7 O74 2.691804 1_555
Na8 O80 2.397544 1_545
Na8 O93 2.483871 1_456
Na8 O94 2.489602 1_556
Na8 O78 2.528211 1_555
Na8 O83 2.581889 1_445
Na8 O91 2.700582 1_446
Na9 O95 2.405234 1_556
Na9 O79 2.500732 1_555
Na9 O92 2.580093 1_556
Na9 O81 2.594275 1_545
Na9 O90 2.677256 1_546
Na9 O82 2.687768 1_545
Na10 O112 2.330112 1_555
Na10 O110 2.455239 1_555
Na10 O108 2.527588 1_555
Na10 O96 2.553103 1_555
Na10 O98 2.553802 1_555
Na10 O100 2.568124 1_555
Na11 O99 2.373488 1_555
Na11 O97 2.401654 1_555
Na11 O101 2.491916 1_555
Na11 O113 2.680255 1_555
Na11 O111 2.691481 1_555
Na11 O109 2.706325 1_555
Na12 O102 2.429599 1_555
Na12 O104 2.478052 1_555
Na12 O118 2.529738 1_555
Na12 O106 2.595948 1_555
Na12 O116 2.625007 1_555
Na12 O114 2.642833 1_555
Na13 O117 2.282719 1_555
Na13 O119 2.442273 1_555
Na13 O115 2.484187 1_555
Na13 O107 2.558815 1_555
Na13 O103 2.591591 1_555
Na13 O105 2.632769 1_555
Na14 O120 2.373283 1_555
Na14 O134 2.435431 1_555
Na14 O124 2.484215 1_555
Na14 O136 2.696396 1_555
Na14 O122 2.698819 1_555
Na14 O132 2.736894 1_555
Na15 O121 2.306221 1_555
Na15 O125 2.479508 1_555
Na15 O137 2.549560 1_555
Na15 O123 2.608234 1_555
Na15 O135 2.613687 1_555
Na15 O133 2.789142 1_555
Na16 O126 2.349060 1_555
Na16 O140 2.493902 1_555
Na16 O128 2.532596 1_555
Na16 O142 2.558132 1_555
Na16 O130 2.659797 1_555
Na16 O138 2.760361 1_555
Na17 O143 2.403715 1_555
Na17 O139 2.493251 1_555
Na17 O127 2.508497 1_555
Na17 O129 2.565549 1_555
Na17 O141 2.661658 1_555
Na17 O131 2.768615 1_555
Al0 O72 1.803427 1_655
Al0 O75 1.901666 1_555
Al0 O3 1.910712 1_555
Al0 O0 1.994544 1_665
Al0 O76 1.998885 1_665
Al0 O5 2.011857 1_565
Al1 O7 1.755018 1_555
Al1 O79 1.831531 1_555
Al1 O10 1.952065 1_555
Al1 O82 2.012686 1_545
Al1 O8 2.088379 1_545
Al1 O81 2.104598 1_545
Al2 O28 1.720782 1_555
Al2 O26 1.729303 1_555
Al2 O98 1.961678 1_555
Al2 O24 2.022044 1_555
Al2 O100 2.240345 1_555
Al2 O96 2.341163 1_555
Al3 O99 1.772611 1_555
Al3 O27 1.790778 1_555
Al3 O97 1.797662 1_555
Al3 O101 1.853995 1_555
Al3 O25 2.264804 1_555
Al3 O29 2.270369 1_555
Al4 O34 1.766255 1_555
Al4 O102 1.813486 1_555
Al4 O104 1.829564 1_555
Al4 O30 1.980435 1_555
Al4 O106 2.111226 1_555
Al4 O32 2.177997 1_555
Al5 O35 1.710317 1_555
Al5 O33 1.714330 1_555
Al5 O107 1.980227 1_555
Al5 O31 2.004772 1_555
Al5 O105 2.397372 1_555
Al5 O103 2.408094 1_555
Al6 O41 1.734062 1_556
Al6 O37 1.779152 1_556
Al6 O39 2.037429 1_556
Al6 O113 2.058528 1_555
Al6 O111 2.161885 1_555
Al6 O109 2.204427 1_555
Al7 O44 1.715335 1_555
Al7 O42 1.768685 1_555
Al7 O46 1.867845 1_555
Al7 O118 2.241607 1_555
Al7 O116 2.298246 1_555
Al7 O114 2.352417 1_555
Al8 O134 1.792884 1_555
Al8 O60 1.797453 1_555
Al8 O64 1.892296 1_555
Al8 O62 1.962255 1_555
Al8 O136 2.087201 1_555
Al8 O132 2.188355 1_555
Al9 O65 1.721645 1_555
Al9 O137 1.794333 1_555
Al9 O61 2.027778 1_555
Al9 O63 2.028964 1_555
Al9 O135 2.064912 1_555
Al9 O133 2.143790 1_555
Al10 O68 1.720281 1_555
Al10 O140 1.783952 1_555
Al10 O142 1.943300 1_555
Al10 O70 2.042221 1_555
Al10 O66 2.117596 1_555
Al10 O138 2.129029 1_555
Al11 O143 1.793569 1_555
Al11 O139 1.807453 1_555
Al11 O67 1.813739 1_555
Al11 O141 2.059941 1_555
Al11 O71 2.065390 1_555
Al11 O69 2.145890 1_555
O0 S0 1.492045 1_555
O1 S1 1.487238 1_555
O1 Sn0 2.174682 1_555
O2 Si0 1.663163 1_555
O2 Sn0 1.976345 1_565
O3 S2 1.493652 1_555
O4 Si1 1.629807 1_555
O4 Sn0 1.967032 1_555
O5 S3 1.479687 1_555
O6 S4 1.483449 1_555
O6 Sn1 2.169662 1_445
O7 Si2 1.633528 1_555
O8 S5 1.472938 1_555
O9 Si3 1.633084 1_655
O9 Sn1 1.956011 1_555
O10 S6 1.487190 1_545
O11 Si4 1.668377 1_545
O11 Sn1 1.960244 1_545
O12 S6 1.478949 1_555
O12 Sn3 2.217635 1_555
O13 Si4 1.656652 1_555
O13 Sn2 1.978555 1_655
O14 S4 1.498660 1_555
O14 Sn2 2.205609 1_545
O15 Si2 1.674955 1_555
O15 Sn3 1.962735 1_545
O16 Si3 1.633922 1_555
O16 Sn2 1.953888 1_555
O17 S5 1.488328 1_555
O17 Sn3 2.106285 1_555
O18 Si0 1.647021 1_555
O18 Sn5 1.995394 1_565
O19 S2 1.494341 1_555
O19 Sn4 2.138646 1_565
O20 S3 1.494251 1_455
O20 Sn4 2.098763 1_455
O21 Si1 1.626589 1_555
O21 Sn5 1.956772 1_555
O22 S0 1.514028 1_565
O22 Sn4 2.158914 1_465
O23 S1 1.497792 1_565
O23 Sn5 2.222544 1_565
O24 S7 1.483870 1_555
O25 S8 1.447712 1_555
O26 Si5 1.609981 1_555
O27 Si6 1.589459 1_555
O28 Si7 1.609312 1_555
O29 S9 1.434067 1_555
O30 S10 1.474237 1_555
O31 S11 1.501654 1_555
O32 S12 1.454646 1_555
O33 Si8 1.619538 1_555
O34 Si9 1.598559 1_555
O35 Si10 1.623661 1_555
O36 Si9 1.621041 1_555
O36 Sn6 1.947143 1_554
O37 Si10 1.636176 1_555
O38 S10 1.478654 1_555
O38 Sn6 2.170740 1_554
O39 S11 1.462741 1_555
O40 S12 1.481177 1_555
O40 Sn6 2.117561 1_554
O41 Si8 1.608998 1_555
O42 Si5 1.658383 1_555
O43 Si6 1.639825 1_555
O43 Sn7 1.940985 1_555
O44 Si7 1.626095 1_555
O45 S9 1.498328 1_555
O45 Sn7 2.088455 1_555
O46 S7 1.486187 1_555
O47 S8 1.496102 1_555
O47 Sn7 2.147967 1_555
O48 S13 1.508857 1_555
O48 Sn8 2.142042 1_556
O49 S14 1.484713 1_555
O49 Sn9 2.100297 1_556
O50 S15 1.511317 1_555
O50 Sn8 2.070204 1_556
O51 Si11 1.650810 1_555
O51 Sn9 1.972527 1_556
O52 Si12 1.656995 1_555
O52 Sn8 1.954051 1_556
O53 S16 1.491100 1_555
O53 Sn9 2.185016 1_556
O54 S17 1.476495 1_555
O54 Sn10 2.117862 1_555
O55 S18 1.490270 1_555
O55 Sn11 2.174509 1_555
O56 S19 1.470935 1_555
O56 Sn10 2.270008 1_555
O57 Si13 1.645843 1_555
O57 Sn11 1.953814 1_555
O58 Si14 1.642274 1_555
O58 Sn10 1.995677 1_555
O59 S20 1.493304 1_555
O59 Sn11 2.102947 1_555
O60 Si14 1.633275 1_555
O61 S20 1.492550 1_555
O62 S17 1.488745 1_555
O63 S18 1.470468 1_555
O64 S19 1.475514 1_555
O65 Si13 1.604735 1_555
O66 S15 1.478999 1_555
O67 Si11 1.613447 1_555
O68 Si12 1.595843 1_555
O69 S16 1.454498 1_555
O70 S13 1.467957 1_555
O71 S14 1.471639 1_555
O72 Si14 1.661688 1_555
O73 S20 1.480182 1_555
O73 Sn0 2.256857 1_565
O74 S17 1.476360 1_555
O74 Sn0 2.125075 1_565
O75 S18 1.496064 1_555
O76 S19 1.510667 1_555
O77 Si13 1.651947 1_555
O77 Sn0 1.976328 1_555
O78 S15 1.478516 1_555
O78 Sn1 2.280810 1_445
O79 Si11 1.654250 1_555
O80 Si12 1.646401 1_555
O80 Sn1 1.987532 1_455
O81 S16 1.504941 1_555
O82 S13 1.480294 1_555
O83 S14 1.480149 1_555
O83 Sn1 2.132161 1_555
O84 S7 1.474163 1_555
O84 Sn3 2.228217 1_545
O85 S8 1.488747 1_555
O85 Sn2 2.234513 1_645
O86 Si5 1.660071 1_555
O86 Sn2 2.017466 1_545
O87 Si6 1.636780 1_555
O87 Sn3 1.981440 1_545
O88 Si7 1.642846 1_555
O88 Sn3 1.976697 1_555
O89 S9 1.497755 1_555
O89 Sn2 2.142001 1_655
O90 S10 1.484506 1_555
O90 Sn5 2.202161 1_565
O91 S11 1.494181 1_555
O91 Sn4 2.151842 1_565
O92 S12 1.494587 1_555
O92 Sn5 2.134539 1_555
O93 Si8 1.654989 1_555
O93 Sn4 1.945792 1_555
O94 Si9 1.646195 1_555
O94 Sn4 1.952038 1_455
O95 Si10 1.667699 1_555
O95 Sn5 2.000199 1_555
O96 S6 1.494110 1_545
O97 Si4 1.609577 1_545
O98 S4 1.484571 1_555
O99 Si2 1.593586 1_555
O100 S5 1.506571 1_555
O101 Si3 1.608480 1_655
O102 Si0 1.627718 1_555
O103 S2 1.485733 1_555
O104 Si1 1.630258 1_555
O105 S3 1.484702 1_555
O106 S0 1.458687 1_555
O107 S1 1.485434 1_555
O108 S13 1.484293 1_555
O108 Sn6 2.202215 1_555
O109 S14 1.493689 1_555
O110 Si11 1.638017 1_555
O110 Sn6 1.984190 1_555
O111 S15 1.487726 1_655
O112 Si12 1.632383 1_545
O112 Sn6 1.969147 1_555
O113 S16 1.519869 1_545
O114 S17 1.483951 1_545
O115 S18 1.477530 1_545
O115 Sn7 2.247181 1_555
O116 S19 1.493304 1_555
O117 Si13 1.632610 1_555
O117 Sn7 1.987943 1_555
O118 S20 1.485650 1_555
O119 Si14 1.628630 1_655
O119 Sn7 2.017605 1_555
O120 Si9 1.675150 1_555
O120 Sn8 2.000571 1_555
O121 Si10 1.634098 1_555
O121 Sn9 1.987414 1_555
O122 S11 1.493221 1_455
O122 Sn8 2.216557 1_555
O123 S10 1.480830 1_555
O123 Sn9 2.168995 1_555
O124 S12 1.500583 1_565
O124 Sn8 2.170752 1_555
O125 Si8 1.637077 1_565
O125 Sn9 1.982795 1_555
O126 Si5 1.636576 1_565
O126 Sn10 1.971183 1_555
O127 Si6 1.682781 1_565
O127 Sn11 1.968772 1_555
O128 Si7 1.647149 1_555
O128 Sn10 1.970150 1_555
O129 S9 1.501522 1_555
O129 Sn11 2.131211 1_555
O130 S8 1.496725 1_455
O130 Sn10 2.096292 1_555
O131 S7 1.492162 1_555
O131 Sn11 2.162928 1_555
O132 S0 1.484810 1_565
O133 S1 1.474672 1_565
O134 Si0 1.629276 1_555
O135 S2 1.470416 1_555
O136 S3 1.487868 1_455
O137 Si1 1.655568 1_555
O138 S4 1.473542 1_555
O139 Si2 1.636823 1_555
O140 Si3 1.657660 1_555
O141 S5 1.482017 1_555
O142 S6 1.482509 1_555
O143 Si4 1.605934 1_555
