# generated using pymatgen
data_MgMn4FeO8
_symmetry_space_group_name_H-M   'P 1'
_cell_length_a   6.02291595
_cell_length_b   6.11756041
_cell_length_c   6.02848178
_cell_angle_alpha   87.92253297
_cell_angle_beta   59.66752421
_cell_angle_gamma   59.82746793
_symmetry_Int_Tables_number   1
_chemical_formula_structural   MgMn4FeO8
_chemical_formula_sum   'Mg1 Mn4 Fe1 O8'
_cell_volume   158.53932863
_cell_formula_units_Z   1
loop_
 _symmetry_equiv_pos_site_id
 _symmetry_equiv_pos_as_xyz
  1  'x, y, z'
loop_
 _atom_site_type_symbol
 _atom_site_label
 _atom_site_symmetry_multiplicity
 _atom_site_fract_x
 _atom_site_fract_y
 _atom_site_fract_z
 _atom_site_occupancy
  Mg  Mg0  1  0.50000000  0.50000000  0.50000000  1
  Mn  Mn0  1  0.00000000  0.50000000  0.50000000  1
  Mn  Mn1  1  0.00000000  0.00000000  0.00000000  1
  Mn  Mn2  1  0.50000000  0.00000000  0.00000000  1
  Mn  Mn3  1  0.00000000  0.50000000  0.00000000  1
  Fe  Fe0  1  0.50000000  0.50000000  0.00000000  1
  O  O0  1  0.45041800  0.30142500  0.79653300  1
  O  O1  1  0.96763000  0.28794100  0.79498000  1
  O  O2  1  0.49722300  0.72779100  0.76310300  1
  O  O3  1  0.01200400  0.71789300  0.75731100  1
  O  O4  1  0.98799600  0.28210700  0.24268900  1
  O  O5  1  0.50277700  0.27220900  0.23689700  1
  O  O6  1  0.03237000  0.71205900  0.20502000  1
  O  O7  1  0.54958200  0.69857500  0.20346700  1
loop_
_geom_bond_atom_site_label_1
_geom_bond_atom_site_label_2
_geom_bond_distance
_geom_bond_site_symmetry_2
Mg0 O4 2.104376 1_555
Mg0 O3 2.104376 1_555
Mg0 O0 2.104423 1_555
Mg0 O7 2.104423 1_555
Mg0 O2 2.137280 1_555
Mg0 O5 2.137280 1_555
Mn0 O3 2.132677 1_555
Mn0 O4 2.132677 1_455
Mn0 O6 2.149430 1_555
Mn0 O1 2.149430 1_455
Mn0 O5 2.166734 1_555
Mn0 O2 2.166734 1_455
Mn1 O6 2.099714 1_545
Mn1 O1 2.099714 1_454
Mn1 O2 2.149584 1_544
Mn1 O5 2.149584 1_455
Mn1 O4 2.252762 1_455
Mn1 O3 2.252762 1_544
Mn2 O7 2.155563 1_545
Mn2 O0 2.155563 1_554
Mn2 O3 2.214697 1_644
Mn2 O4 2.214697 1_455
Mn2 O5 2.244427 1_555
Mn2 O2 2.244427 1_544
Mn3 O4 1.941956 1_455
Mn3 O3 1.941956 1_554
Mn3 O0 1.942705 1_554
Mn3 O7 1.942705 1_455
Mn3 O1 1.965304 1_454
Mn3 O6 1.965304 1_555
Fe0 O2 1.959121 1_554
Fe0 O5 1.959121 1_555
Fe0 O7 1.977906 1_555
Fe0 O0 1.977906 1_554
Fe0 O6 2.017573 1_555
Fe0 O1 2.017573 1_554
