# generated using pymatgen
data_ScCoGe2
_symmetry_space_group_name_H-M   'P 1'
_cell_length_a   7.97048900
_cell_length_b   9.19316900
_cell_length_c   10.12956600
_cell_angle_alpha   90.00000000
_cell_angle_beta   90.00000000
_cell_angle_gamma   90.00000000
_symmetry_Int_Tables_number   1
_chemical_formula_structural   ScCoGe2
_chemical_formula_sum   'Sc12 Co12 Ge24'
_cell_volume   742.23434977
_cell_formula_units_Z   12
loop_
 _symmetry_equiv_pos_site_id
 _symmetry_equiv_pos_as_xyz
  1  'x, y, z'
loop_
 _atom_site_type_symbol
 _atom_site_label
 _atom_site_symmetry_multiplicity
 _atom_site_fract_x
 _atom_site_fract_y
 _atom_site_fract_z
 _atom_site_occupancy
  Sc  Sc0  1  0.00000000  0.33569300  0.32208800  1
  Sc  Sc1  1  0.00000000  0.66430700  0.67791200  1
  Sc  Sc2  1  0.00000000  0.83569300  0.17791200  1
  Sc  Sc3  1  0.00000000  0.16430700  0.82208800  1
  Sc  Sc4  1  0.23811400  0.67414200  0.95198300  1
  Sc  Sc5  1  0.23811400  0.32585800  0.04801700  1
  Sc  Sc6  1  0.76188600  0.17414200  0.54801700  1
  Sc  Sc7  1  0.76188600  0.82585800  0.45198300  1
  Sc  Sc8  1  0.76188600  0.32585800  0.04801700  1
  Sc  Sc9  1  0.76188600  0.67414200  0.95198300  1
  Sc  Sc10  1  0.23811400  0.82585800  0.45198300  1
  Sc  Sc11  1  0.23811400  0.17414200  0.54801700  1
  Co  Co0  1  0.75257300  0.00000000  0.00000000  1
  Co  Co1  1  0.24742700  0.50000000  0.50000000  1
  Co  Co2  1  0.24742700  0.00000000  0.00000000  1
  Co  Co3  1  0.75257300  0.50000000  0.50000000  1
  Co  Co4  1  0.25324200  0.08967300  0.25404300  1
  Co  Co5  1  0.25324200  0.91032700  0.74595700  1
  Co  Co6  1  0.74675800  0.58967300  0.24595700  1
  Co  Co7  1  0.74675800  0.41032700  0.75404300  1
  Co  Co8  1  0.74675800  0.91032700  0.74595700  1
  Co  Co9  1  0.74675800  0.08967300  0.25404300  1
  Co  Co10  1  0.25324200  0.41032700  0.75404300  1
  Co  Co11  1  0.25324200  0.58967300  0.24595700  1
  Ge  Ge0  1  0.50000000  0.54198700  0.12311200  1
  Ge  Ge1  1  0.50000000  0.45801300  0.87688800  1
  Ge  Ge2  1  0.50000000  0.04198700  0.37688800  1
  Ge  Ge3  1  0.50000000  0.95801300  0.62311200  1
  Ge  Ge4  1  0.00000000  0.04067900  0.37627300  1
  Ge  Ge5  1  0.00000000  0.95932100  0.62372700  1
  Ge  Ge6  1  0.00000000  0.54067900  0.12372700  1
  Ge  Ge7  1  0.00000000  0.45932100  0.87627300  1
  Ge  Ge8  1  0.50000000  0.12714800  0.09581200  1
  Ge  Ge9  1  0.50000000  0.87285200  0.90418800  1
  Ge  Ge10  1  0.50000000  0.62714800  0.40418800  1
  Ge  Ge11  1  0.50000000  0.37285200  0.59581200  1
  Ge  Ge12  1  0.65678300  0.34174500  0.31934000  1
  Ge  Ge13  1  0.65678300  0.65825500  0.68066000  1
  Ge  Ge14  1  0.34321700  0.84174500  0.18066000  1
  Ge  Ge15  1  0.34321700  0.15825500  0.81934000  1
  Ge  Ge16  1  0.34321700  0.65825500  0.68066000  1
  Ge  Ge17  1  0.34321700  0.34174500  0.31934000  1
  Ge  Ge18  1  0.65678300  0.15825500  0.81934000  1
  Ge  Ge19  1  0.65678300  0.84174500  0.18066000  1
  Ge  Ge20  1  0.00000000  0.37363500  0.60366000  1
  Ge  Ge21  1  0.00000000  0.62636500  0.39634000  1
  Ge  Ge22  1  0.00000000  0.87363500  0.89634000  1
  Ge  Ge23  1  0.00000000  0.12636500  0.10366000  1
loop_
_geom_bond_atom_site_label_1
_geom_bond_atom_site_label_2
_geom_bond_distance
_geom_bond_site_symmetry_2
Co0 Ge18 2.459366 1_554
Co0 Ge19 2.459366 1_545
Co0 Ge23 2.518201 1_655
Co0 Ge22 2.518201 1_644
Co0 Ge8 2.522091 1_555
Co0 Ge9 2.522091 1_544
Co0 Co9 2.702565 1_555
Co0 Co8 2.702565 1_544
Co0 Sc8 3.035805 1_555
Co0 Sc9 3.035805 1_544
Co0 Sc3 3.068986 1_654
Co0 Sc2 3.068986 1_645
Co1 Ge16 2.459366 1_555
Co1 Ge17 2.459366 1_555
Co1 Ge21 2.518201 1_555
Co1 Ge20 2.518201 1_555
Co1 Ge10 2.522091 1_555
Co1 Ge11 2.522091 1_555
Co1 Co10 2.702565 1_555
Co1 Co11 2.702565 1_555
Co1 Sc11 3.035805 1_555
Co1 Sc10 3.035805 1_555
Co1 Sc1 3.068986 1_555
Co1 Sc0 3.068986 1_555
Co2 Ge15 2.459366 1_554
Co2 Ge14 2.459366 1_545
Co2 Ge23 2.518201 1_555
Co2 Ge22 2.518201 1_544
Co2 Ge8 2.522091 1_555
Co2 Ge9 2.522091 1_544
Co2 Co4 2.702565 1_555
Co2 Co5 2.702565 1_544
Co2 Sc5 3.035805 1_555
Co2 Sc4 3.035805 1_544
Co2 Sc3 3.068986 1_554
Co2 Sc2 3.068986 1_545
Co3 Ge13 2.459366 1_555
Co3 Ge12 2.459366 1_555
Co3 Ge21 2.518201 1_655
Co3 Ge20 2.518201 1_655
Co3 Ge10 2.522091 1_555
Co3 Ge11 2.522091 1_555
Co3 Co7 2.702565 1_555
Co3 Co6 2.702565 1_555
Co3 Sc6 3.035805 1_555
Co3 Sc7 3.035805 1_555
Co3 Sc1 3.068986 1_655
Co3 Sc0 3.068986 1_655
Co4 Ge2 2.368303 1_555
Co4 Ge4 2.410403 1_555
Co4 Ge14 2.502359 1_545
Co4 Ge17 2.514330 1_555
Co4 Ge23 2.551168 1_555
Co4 Ge8 2.560454 1_555
Co4 Sc5 3.014036 1_555
Co4 Sc11 3.079775 1_555
Co4 Sc10 3.149097 1_545
Co5 Ge3 2.368303 1_555
Co5 Ge5 2.410403 1_555
Co5 Ge15 2.502359 1_565
Co5 Ge16 2.514330 1_555
Co5 Ge22 2.551168 1_555
Co5 Ge9 2.560454 1_555
Co5 Sc4 3.014036 1_555
Co5 Sc10 3.079775 1_555
Co5 Sc11 3.149097 1_565
Co6 Ge0 2.368303 1_555
Co6 Ge6 2.410403 1_655
Co6 Ge12 2.502359 1_555
Co6 Ge19 2.514330 1_555
Co6 Ge21 2.551168 1_655
Co6 Ge10 2.560454 1_555
Co6 Sc7 3.014036 1_555
Co6 Sc9 3.079775 1_554
Co6 Sc8 3.149097 1_555
Co7 Ge1 2.368303 1_555
Co7 Ge7 2.410403 1_655
Co7 Ge13 2.502359 1_555
Co7 Ge18 2.514330 1_555
Co7 Ge20 2.551168 1_655
Co7 Ge11 2.560454 1_555
Co7 Sc6 3.014036 1_555
Co7 Sc8 3.079775 1_556
Co7 Sc9 3.149097 1_555
Co8 Ge3 2.368303 1_555
Co8 Ge5 2.410403 1_655
Co8 Ge18 2.502359 1_565
Co8 Ge13 2.514330 1_555
Co8 Ge22 2.551168 1_655
Co8 Ge9 2.560454 1_555
Co8 Sc9 3.014036 1_555
Co8 Sc7 3.079775 1_555
Co8 Sc6 3.149097 1_565
Co9 Ge2 2.368303 1_555
Co9 Ge4 2.410403 1_655
Co9 Ge19 2.502359 1_545
Co9 Ge12 2.514330 1_555
Co9 Ge23 2.551168 1_655
Co9 Ge8 2.560454 1_555
Co9 Sc8 3.014036 1_555
Co9 Sc6 3.079775 1_555
Co9 Sc7 3.149097 1_545
Co10 Ge1 2.368303 1_555
Co10 Ge7 2.410403 1_555
Co10 Ge16 2.502359 1_555
Co10 Ge15 2.514330 1_555
Co10 Ge20 2.551168 1_555
Co10 Ge11 2.560454 1_555
Co10 Sc11 3.014036 1_555
Co10 Sc5 3.079775 1_556
Co10 Sc4 3.149097 1_555
Co11 Ge0 2.368303 1_555
Co11 Ge6 2.410403 1_555
Co11 Ge17 2.502359 1_555
Co11 Ge14 2.514330 1_555
Co11 Ge21 2.551168 1_555
Co11 Ge10 2.560454 1_555
Co11 Sc10 3.014036 1_555
Co11 Sc4 3.079775 1_554
Co11 Sc5 3.149097 1_555
Ge0 Ge1 2.610883 1_554
Ge0 Sc9 2.972877 1_554
Ge0 Sc4 2.972877 1_554
Ge0 Sc8 2.980523 1_555
Ge0 Sc5 2.980523 1_555
Ge1 Sc8 2.972877 1_556
Ge1 Sc5 2.972877 1_556
Ge1 Sc4 2.980523 1_555
Ge1 Sc9 2.980523 1_555
Ge2 Ge3 2.610883 1_545
Ge2 Sc6 2.972877 1_555
Ge2 Sc11 2.972877 1_555
Ge2 Sc10 2.980523 1_545
Ge2 Sc7 2.980523 1_545
Ge3 Sc7 2.972877 1_555
Ge3 Sc10 2.972877 1_555
Ge3 Sc6 2.980523 1_565
Ge3 Sc11 2.980523 1_565
Ge4 Sc2 2.754734 1_545
Ge4 Sc0 2.767096 1_555
Ge4 Sc10 2.844344 1_545
Ge4 Sc7 2.844344 1_445
Ge4 Sc11 2.851999 1_555
Ge4 Sc6 2.851999 1_455
Ge5 Sc3 2.754734 1_565
Ge5 Sc1 2.767096 1_555
Ge5 Sc11 2.844344 1_565
Ge5 Sc6 2.844344 1_465
Ge5 Sc10 2.851999 1_555
Ge5 Sc7 2.851999 1_455
Ge6 Sc0 2.754734 1_555
Ge6 Sc2 2.767096 1_555
Ge6 Sc5 2.844344 1_555
Ge6 Sc8 2.844344 1_455
Ge6 Sc4 2.851999 1_554
Ge6 Sc9 2.851999 1_454
Ge7 Sc1 2.754734 1_555
Ge7 Sc3 2.767096 1_555
Ge7 Sc4 2.844344 1_555
Ge7 Sc9 2.844344 1_455
Ge7 Sc5 2.851999 1_556
Ge7 Sc8 2.851999 1_456
Ge8 Sc8 2.815772 1_555
Ge8 Sc5 2.815772 1_555
Ge9 Sc9 2.815772 1_555
Ge9 Sc4 2.815772 1_555
Ge10 Sc7 2.815772 1_555
Ge10 Sc10 2.815772 1_555
Ge11 Sc6 2.815772 1_555
Ge11 Sc11 2.815772 1_555
Ge12 Ge17 2.499274 1_555
Ge12 Sc0 2.736315 1_655
Ge12 Sc8 2.876930 1_555
Ge12 Sc6 2.905435 1_555
Ge13 Ge16 2.499274 1_555
Ge13 Sc1 2.736315 1_655
Ge13 Sc9 2.876930 1_555
Ge13 Sc7 2.905435 1_555
Ge14 Ge19 2.499274 1_555
Ge14 Sc2 2.736315 1_555
Ge14 Sc10 2.876930 1_555
Ge14 Sc4 2.905435 1_554
Ge15 Ge18 2.499274 1_555
Ge15 Sc3 2.736315 1_555
Ge15 Sc11 2.876930 1_555
Ge15 Sc5 2.905435 1_556
Ge16 Sc1 2.736315 1_555
Ge16 Sc4 2.876930 1_555
Ge16 Sc10 2.905435 1_555
Ge17 Sc0 2.736315 1_555
Ge17 Sc5 2.876930 1_555
Ge17 Sc11 2.905435 1_555
Ge18 Sc3 2.736315 1_655
Ge18 Sc6 2.876930 1_555
Ge18 Sc8 2.905435 1_556
Ge19 Sc2 2.736315 1_655
Ge19 Sc7 2.876930 1_555
Ge19 Sc9 2.905435 1_554
Ge20 Sc11 2.698724 1_555
Ge20 Sc6 2.698724 1_455
Ge20 Sc1 2.776032 1_555
Ge20 Sc0 2.873452 1_555
Ge20 Sc3 2.932368 1_555
Ge21 Sc10 2.698724 1_555
Ge21 Sc7 2.698724 1_455
Ge21 Sc0 2.776032 1_555
Ge21 Sc1 2.873452 1_555
Ge21 Sc2 2.932368 1_555
Ge22 Sc4 2.698724 1_555
Ge22 Sc9 2.698724 1_455
Ge22 Sc3 2.776032 1_565
Ge22 Sc2 2.873452 1_556
Ge22 Sc1 2.932368 1_555
Ge23 Sc5 2.698724 1_555
Ge23 Sc8 2.698724 1_455
Ge23 Sc2 2.776032 1_545
Ge23 Sc3 2.873452 1_554
Ge23 Sc0 2.932368 1_555
