# generated using pymatgen
data_Tb5Ge3
_symmetry_space_group_name_H-M   'P 1'
_cell_length_a   8.51081304
_cell_length_b   8.51081401
_cell_length_c   6.45215306
_cell_angle_alpha   90.00000000
_cell_angle_beta   90.00000000
_cell_angle_gamma   120.00000025
_symmetry_Int_Tables_number   1
_chemical_formula_structural   Tb5Ge3
_chemical_formula_sum   'Tb10 Ge6'
_cell_volume   404.74122546
_cell_formula_units_Z   2
loop_
 _symmetry_equiv_pos_site_id
 _symmetry_equiv_pos_as_xyz
  1  'x, y, z'
loop_
 _atom_site_type_symbol
 _atom_site_label
 _atom_site_symmetry_multiplicity
 _atom_site_fract_x
 _atom_site_fract_y
 _atom_site_fract_z
 _atom_site_occupancy
  Tb  Tb0  1  0.33333300  0.66666700  0.00000000  1
  Tb  Tb1  1  0.66666700  0.33333300  0.50000000  1
  Tb  Tb2  1  0.66666700  0.33333300  0.00000000  1
  Tb  Tb3  1  0.33333300  0.66666700  0.50000000  1
  Tb  Tb4  1  0.24243887  0.00000000  0.25000000  1
  Tb  Tb5  1  0.24243887  0.24243887  0.75000000  1
  Tb  Tb6  1  0.00000000  0.75756113  0.75000000  1
  Tb  Tb7  1  -0.00000000  0.24243887  0.25000000  1
  Tb  Tb8  1  0.75756113  0.75756113  0.25000000  1
  Tb  Tb9  1  0.75756113  -0.00000000  0.75000000  1
  Ge  Ge0  1  0.60681634  -0.00000000  0.25000000  1
  Ge  Ge1  1  0.60681634  0.60681634  0.75000000  1
  Ge  Ge2  1  -0.00000000  0.39318366  0.75000000  1
  Ge  Ge3  1  0.00000000  0.60681634  0.25000000  1
  Ge  Ge4  1  0.39318366  0.39318366  0.25000000  1
  Ge  Ge5  1  0.39318366  0.00000000  0.75000000  1
loop_
_geom_bond_atom_site_label_1
_geom_bond_atom_site_label_2
_geom_bond_distance
_geom_bond_site_symmetry_2
Ge0 Tb7 2.924142 1_655
Ge0 Tb8 2.924143 1_545
Ge0 Tb1 3.076441 1_555
Ge0 Tb2 3.076441 1_555
Ge0 Tb3 3.076443 1_545
Ge0 Tb0 3.076443 1_545
Ge0 Tb4 3.101149 1_555
Ge0 Tb9 3.471823 1_555
Ge0 Tb9 3.471823 1_554
Ge1 Tb6 2.924142 1_655
Ge1 Tb9 2.924143 1_565
Ge1 Tb3 3.076448 1_555
Ge1 Tb0 3.076448 1_556
Ge1 Tb1 3.076448 1_555
Ge1 Tb2 3.076448 1_556
Ge1 Tb5 3.101149 1_555
Ge1 Tb8 3.471823 1_556
Ge1 Tb8 3.471823 1_555
Ge2 Tb5 2.924143 1_555
Ge2 Tb9 2.924143 1_455
Ge2 Tb1 3.076440 1_455
Ge2 Tb2 3.076440 1_456
Ge2 Tb0 3.076443 1_556
Ge2 Tb3 3.076443 1_555
Ge2 Tb6 3.101149 1_555
Ge2 Tb7 3.471823 1_556
Ge2 Tb7 3.471823 1_555
Ge3 Tb8 2.924143 1_455
Ge3 Tb4 2.924143 1_565
Ge3 Tb0 3.076440 1_555
Ge3 Tb3 3.076440 1_555
Ge3 Tb2 3.076443 1_455
Ge3 Tb1 3.076443 1_455
Ge3 Tb7 3.101149 1_555
Ge3 Tb6 3.471823 1_554
Ge3 Tb6 3.471823 1_555
Ge4 Tb7 2.924142 1_555
Ge4 Tb4 2.924143 1_555
Ge4 Tb1 3.076448 1_555
Ge4 Tb2 3.076448 1_555
Ge4 Tb0 3.076448 1_555
Ge4 Tb3 3.076448 1_555
Ge4 Tb8 3.101149 1_555
Ge4 Tb5 3.471823 1_555
Ge4 Tb5 3.471823 1_554
Ge5 Tb6 2.924142 1_545
Ge5 Tb5 2.924143 1_555
Ge5 Tb0 3.076441 1_546
Ge5 Tb3 3.076441 1_545
Ge5 Tb2 3.076443 1_556
Ge5 Tb1 3.076443 1_555
Ge5 Tb9 3.101149 1_555
Ge5 Tb4 3.471823 1_555
Ge5 Tb4 3.471823 1_556
