# generated using pymatgen
data_Hf2Bi2O7
_symmetry_space_group_name_H-M   'P 1'
_cell_length_a   7.60687423
_cell_length_b   7.60687423
_cell_length_c   7.63561201
_cell_angle_alpha   59.98131113
_cell_angle_beta   59.98131113
_cell_angle_gamma   89.73197770
_symmetry_Int_Tables_number   1
_chemical_formula_structural   Hf2Bi2O7
_chemical_formula_sum   'Hf4 Bi4 O14'
_cell_volume   312.96949729
_cell_formula_units_Z   2
loop_
 _symmetry_equiv_pos_site_id
 _symmetry_equiv_pos_as_xyz
  1  'x, y, z'
loop_
 _atom_site_type_symbol
 _atom_site_label
 _atom_site_symmetry_multiplicity
 _atom_site_fract_x
 _atom_site_fract_y
 _atom_site_fract_z
 _atom_site_occupancy
  Hf  Hf0  1  0.62299156  0.87837202  0.25026062  1
  Hf  Hf1  1  0.12180304  0.87648380  0.75053068  1
  Hf  Hf2  1  0.12351620  0.87819696  0.24946932  1
  Hf  Hf3  1  0.12162798  0.37700844  0.74973938  1
  Bi  Bi0  1  0.66397820  0.43188044  0.69385100  1
  Bi  Bi1  1  0.12326225  0.36943496  0.20484409  1
  Bi  Bi2  1  0.63056504  0.87673775  0.79515591  1
  Bi  Bi3  1  0.56811956  0.33602180  0.30614900  1
  O  O0  1  0.81209669  0.18790331  -0.00000000  1
  O  O1  1  0.49284749  0.50715251  -0.00000000  1
  O  O2  1  0.21710336  0.20698466  0.59478942  1
  O  O3  1  0.44190468  0.92049910  0.10975877  1
  O  O4  1  0.18728752  0.20448688  0.01715113  1
  O  O5  1  0.44441151  0.97333643  0.47293734  1
  O  O6  1  0.46004940  0.53995060  0.50000000  1
  O  O7  1  0.03745583  0.96254417  0.50000000  1
  O  O8  1  0.74328293  0.25671707  0.50000000  1
  O  O9  1  0.02666357  0.55558849  0.52706266  1
  O  O10  1  0.79551312  0.81271248  0.98284887  1
  O  O11  1  0.07950090  0.55809532  0.89024123  1
  O  O12  1  0.79301534  0.78289664  0.40521058  1
  O  O13  1  0.18600282  0.81399718  -0.00000000  1
loop_
_geom_bond_atom_site_label_1
_geom_bond_atom_site_label_2
_geom_bond_distance
_geom_bond_site_symmetry_2
Hf0 O0 2.011025 1_565
Hf0 O5 2.041288 1_555
Hf0 O12 2.064597 1_555
Hf0 O3 2.069223 1_555
Hf0 O10 2.115189 1_554
Hf0 O6 2.133762 1_555
Hf1 O13 2.028683 1_556
Hf1 O11 2.045984 1_555
Hf1 O10 2.070619 1_455
Hf1 O5 2.075504 1_555
Hf1 O2 2.103182 1_565
Hf1 O7 2.114419 1_555
Hf2 O13 2.028683 1_555
Hf2 O3 2.045984 1_555
Hf2 O4 2.070619 1_565
Hf2 O9 2.075504 1_555
Hf2 O12 2.103182 1_455
Hf2 O7 2.114419 1_555
Hf3 O0 2.011025 1_456
Hf3 O9 2.041288 1_555
Hf3 O2 2.064597 1_555
Hf3 O11 2.069223 1_555
Hf3 O4 2.115189 1_556
Hf3 O6 2.133762 1_555
Bi0 O12 2.218625 1_555
Bi0 O8 2.324360 1_555
Bi0 O9 2.329938 1_655
Bi0 O1 2.403017 1_556
Bi0 O6 2.518158 1_555
Bi1 O4 2.227249 1_555
Bi1 O11 2.299379 1_554
Bi1 O1 2.331539 1_555
Bi1 O8 2.396014 1_455
Bi1 O7 2.579299 1_545
Bi2 O10 2.227249 1_555
Bi2 O3 2.299379 1_556
Bi2 O1 2.331539 1_556
Bi2 O8 2.396014 1_565
Bi2 O7 2.579299 1_655
Bi3 O2 2.218625 1_555
Bi3 O8 2.324360 1_555
Bi3 O5 2.329938 1_545
Bi3 O1 2.403017 1_555
Bi3 O6 2.518158 1_555
