# generated using pymatgen
data_Na3La2In2P3(SO8)3
_symmetry_space_group_name_H-M   'P 1'
_cell_length_a   9.21260601
_cell_length_b   9.19829195
_cell_length_c   24.21560835
_cell_angle_alpha   88.98179876
_cell_angle_beta   90.93370709
_cell_angle_gamma   119.87209176
_symmetry_Int_Tables_number   1
_chemical_formula_structural   Na3La2In2P3(SO8)3
_chemical_formula_sum   'Na9 La6 In6 P9 S9 O72'
_cell_volume   1779.05521375
_cell_formula_units_Z   3
loop_
 _symmetry_equiv_pos_site_id
 _symmetry_equiv_pos_as_xyz
  1  'x, y, z'
loop_
 _atom_site_type_symbol
 _atom_site_label
 _atom_site_symmetry_multiplicity
 _atom_site_fract_x
 _atom_site_fract_y
 _atom_site_fract_z
 _atom_site_occupancy
  Na  Na0  1  0.35872320  0.35868101  0.25324685  1
  Na  Na1  1  0.68599316  0.01947690  0.92012049  1
  Na  Na2  1  0.97851712  0.30964548  0.41441278  1
  Na  Na3  1  0.01023834  0.99462920  0.49568196  1
  Na  Na4  1  0.00373369  0.98845206  0.00488701  1
  Na  Na5  1  0.65550741  0.33663575  0.83774940  1
  Na  Na6  1  0.66745448  0.33447140  0.33430947  1
  Na  Na7  1  0.33338832  0.69490754  0.17223940  1
  Na  Na8  1  0.33378285  0.66776968  0.66847391  1
  La  La0  1  0.00342932  0.99328847  0.85228576  1
  La  La1  1  0.99079599  0.01037272  0.64552851  1
  La  La2  1  0.67358540  0.32379316  0.68368428  1
  La  La3  1  0.33898746  0.67284878  0.02419774  1
  La  La4  1  0.32328491  0.66172826  0.51147716  1
  La  La5  1  0.34715441  0.67655334  0.82152434  1
  In  In0  1  0.01073052  -0.00038987  0.34487136  1
  In  In1  1  0.99790496  0.00433774  0.15302115  1
  In  In2  1  0.67269747  0.31654168  0.18703329  1
  In  In3  1  0.66294814  0.33116682  0.98981721  1
  In  In4  1  0.66491139  0.34227049  0.47827351  1
  In  In5  1  0.31843934  0.66589304  0.31670933  1
  P  P0  1  0.29362260  0.99945069  0.24814770  1
  P  P1  1  0.00279957  0.29440526  0.25201370  1
  P  P2  1  0.69170404  0.99506234  0.75351976  1
  P  P3  1  0.95783451  0.33198678  0.57446933  1
  P  P4  1  0.68483376  0.04947609  0.08608966  1
  P  P5  1  0.63712554  0.65505446  0.92239557  1
  P  P6  1  0.34862462  0.98515345  0.92161131  1
  P  P7  1  0.33282815  0.36308456  0.41005021  1
  P  P8  1  0.02329315  0.66606563  0.41176577  1
  S  S0  1  0.70123684  0.70229954  0.24955819  1
  S  S1  1  0.30626879  0.30945400  0.74944574  1
  S  S2  1  0.00339541  0.69574145  0.74879197  1
  S  S3  1  0.37007479  0.04086573  0.57740224  1
  S  S4  1  0.66884822  0.62931017  0.57871814  1
  S  S5  1  0.94614673  0.62750334  0.08880243  1
  S  S6  1  0.37179592  0.31836837  0.08985204  1
  S  S7  1  0.01818739  0.36368409  0.92039534  1
  S  S8  1  0.63940251  0.97125854  0.41156425  1
  O  O0  1  0.21895436  0.03673696  0.29933774  1
  O  O1  1  0.80468118  0.78020395  0.29944368  1
  O  O2  1  0.97412858  0.18998707  0.30622371  1
  O  O3  1  0.22020981  0.21378179  0.80000009  1
  O  O4  1  0.00315716  0.78372005  0.79956670  1
  O  O5  1  0.77867332  -0.00448127  0.80894622  1
  O  O6  1  0.79484285  0.99649428  0.70333561  1
  O  O7  1  0.21327729  0.21825519  0.69915314  1
  O  O8  1  0.00888712  0.79265403  0.69866506  1
  O  O9  1  0.77784449  0.80337424  0.19882442  1
  O  O10  1  0.03508304  0.21086422  0.20214949  1
  O  O11  1  0.18194151  0.96780996  0.19604968  1
  O  O12  1  0.86901179  0.33532918  0.62751791  1
  O  O13  1  0.45558724  0.12103853  0.62993055  1
  O  O14  1  0.66011717  0.53923275  0.63099108  1
  O  O15  1  0.85981083  0.52655271  0.13837368  1
  O  O16  1  0.66184611  0.13750693  0.13551006  1
  O  O17  1  0.47367007  0.33892744  0.14053515  1
  O  O18  1  0.45305669  0.30598171  0.03882989  1
  O  O19  1  0.85219989  0.55014505  0.03664034  1
  O  O20  1  0.70139676  0.14480366  0.03000147  1
  O  O21  1  0.46246410  0.14286041  0.52844307  1
  O  O22  1  0.67045287  0.53643879  0.52953162  1
  O  O23  1  0.85916790  0.32677441  0.52085600  1
  O  O24  1  0.54079054  0.67838754  0.96966312  1
  O  O25  1  0.12326737  0.44771908  0.96878416  1
  O  O26  1  0.32496480  0.87088118  0.97165427  1
  O  O27  1  0.56961288  0.87643566  0.46343305  1
  O  O28  1  0.29955483  0.44380222  0.46021069  1
  O  O29  1  0.12580710  0.69959704  0.46552832  1
  O  O30  1  0.11137731  0.63042520  0.36350755  1
  O  O31  1  0.52989767  0.88574888  0.36320620  1
  O  O32  1  0.36194367  0.47373080  0.35675621  1
  O  O33  1  0.09520904  0.45551833  0.86833886  1
  O  O34  1  0.37039090  0.90443745  0.86863298  1
  O  O35  1  0.54076394  0.63077635  0.86707957  1
  O  O36  1  0.99618027  0.81752865  0.40214998  1
  O  O37  1  0.81198346  0.99533165  0.40519564  1
  O  O38  1  0.16793706  0.18915790  0.40479921  1
  O  O39  1  0.99143932  0.18874596  0.91840655  1
  O  O40  1  0.19867774  0.01504677  0.91824061  1
  O  O41  1  0.80861898  0.82242791  0.91970465  1
  O  O42  1  0.97469233  0.17186992  0.57414662  1
  O  O43  1  0.19963017  0.02100727  0.57653148  1
  O  O44  1  0.82515839  0.79569758  0.57765121  1
  O  O45  1  0.96413455  0.79850737  0.09145009  1
  O  O46  1  0.84706508  0.03503356  0.09125825  1
  O  O47  1  0.20426612  0.16218040  0.09240598  1
  O  O48  1  0.67427874  0.15413140  0.75357323  1
  O  O49  1  0.47696395  0.33064029  0.75009468  1
  O  O50  1  0.84736529  0.52993172  0.75029551  1
  O  O51  1  0.67661329  0.52750867  0.24476318  1
  O  O52  1  0.84915448  0.32067338  0.24532113  1
  O  O53  1  0.46805030  0.16649257  0.24208179  1
  O  O54  1  0.66148814  0.50157043  0.93031367  1
  O  O55  1  0.84876832  0.34714572  0.92442950  1
  O  O56  1  0.51811025  0.15392551  0.92653016  1
  O  O57  1  0.65976326  0.14444203  0.41544611  1
  O  O58  1  0.48911115  0.34163772  0.41866133  1
  O  O59  1  0.85160503  0.49695229  0.41694303  1
  O  O60  1  0.34833251  0.46675314  0.08648225  1
  O  O61  1  0.11516053  0.64314023  0.08693101  1
  O  O62  1  0.52785756  0.87123306  0.08475027  1
  O  O63  1  0.35886242  0.87417023  0.57703508  1
  O  O64  1  0.52090482  0.65320656  0.57739632  1
  O  O65  1  0.13411804  0.48922824  0.57653091  1
  O  O66  1  0.31941831  0.84471310  0.25628292  1
  O  O67  1  0.52863236  0.68124202  0.25493381  1
  O  O68  1  0.16975094  0.46926617  0.25676800  1
  O  O69  1  0.31540402  0.47504739  0.74861031  1
  O  O70  1  0.15169360  0.67291647  0.74884424  1
  O  O71  1  0.51650267  0.83638080  0.74858570  1
loop_
_geom_bond_atom_site_label_1
_geom_bond_atom_site_label_2
_geom_bond_distance
_geom_bond_site_symmetry_2
Na0 O68 2.417584 1_555
Na0 O53 2.451968 1_555
Na0 O51 2.551163 1_555
Na0 O67 2.575057 1_555
Na0 O32 2.732055 1_555
Na0 O0 2.793607 1_555
Na0 O10 2.858460 1_555
Na0 O17 2.984532 1_555
Na1 O56 2.421895 1_555
Na1 O39 2.445699 1_555
Na1 O41 2.569482 1_545
Na1 O55 2.616797 1_555
Na1 O34 2.826996 1_545
Na1 O5 2.882482 1_555
Na1 O20 2.891861 1_556
Na1 O24 2.968178 1_545
Na2 O38 2.505317 1_655
Na2 O59 2.520288 1_555
Na2 O37 2.521046 1_545
Na2 O57 2.547367 1_555
Na2 O28 2.793964 1_655
Na2 O30 2.836589 1_655
Na2 O2 2.851572 1_555
Na2 O23 2.856061 1_555
Na3 O43 2.533787 1_565
Na3 O42 2.652848 1_465
Na3 O44 2.658724 1_455
Na3 O38 2.744186 1_565
Na3 O36 2.777017 1_455
Na3 O37 2.831614 1_455
Na4 O45 2.615240 1_455
Na4 O41 2.659849 1_454
Na4 O40 2.711939 1_564
Na4 O46 2.718004 1_465
Na4 O47 2.740461 1_565
Na4 O39 2.802805 1_464
Na5 O56 2.624860 1_555
Na5 O49 2.648409 1_555
Na5 O55 2.701686 1_555
Na5 O54 2.713406 1_555
Na5 O48 2.724941 1_555
Na5 O50 2.761870 1_555
Na6 O59 2.566290 1_555
Na6 O57 2.584526 1_555
Na6 O58 2.664246 1_555
Na6 O51 2.753514 1_555
Na6 O52 2.792971 1_555
Na6 O53 2.812722 1_555
Na7 O66 2.518349 1_555
Na7 O67 2.712935 1_555
Na7 O62 2.726871 1_555
Na7 O61 2.735349 1_555
Na7 O68 2.757361 1_555
Na7 O60 3.031130 1_555
Na8 O71 2.530274 1_555
Na8 O69 2.554680 1_555
Na8 O70 2.606309 1_555
Na8 O63 2.826838 1_555
Na8 O65 2.832843 1_555
Na8 O64 2.866772 1_555
La0 O5 2.315150 1_465
La0 O40 2.320671 1_565
La0 O4 2.329857 1_555
La0 O41 2.356044 1_455
La0 O3 2.379356 1_565
La0 O39 2.472681 1_465
La1 O6 2.254144 1_545
La1 O42 2.310094 1_555
La1 O7 2.375087 1_655
La1 O8 2.434736 1_645
La1 O44 2.441623 1_545
La1 O43 2.532600 1_655
La2 O12 2.233138 1_555
La2 O48 2.283736 1_555
La2 O13 2.340089 1_555
La2 O14 2.391759 1_555
La2 O50 2.400187 1_555
La2 O49 2.466477 1_555
La3 O26 2.258402 1_554
La3 O24 2.277322 1_554
La3 O62 2.314438 1_555
La3 O60 2.435726 1_555
La3 O25 2.439420 1_554
La3 O61 2.482017 1_555
La4 O29 2.284884 1_555
La4 O28 2.291346 1_555
La4 O65 2.298365 1_555
La4 O63 2.429295 1_555
La4 O64 2.431417 1_555
La4 O27 2.437972 1_555
La5 O35 2.289789 1_555
La5 O34 2.317549 1_555
La5 O71 2.329758 1_555
La5 O33 2.471685 1_555
La5 O70 2.485966 1_555
La5 O69 2.489583 1_555
In0 O0 2.101239 1_555
In0 O36 2.108740 1_445
In0 O2 2.139097 1_455
In0 O38 2.179314 1_555
In0 O1 2.254142 1_445
In0 O37 2.345482 1_445
In1 O46 2.134428 1_555
In1 O10 2.135500 1_655
In1 O11 2.137893 1_645
In1 O9 2.241579 1_545
In1 O47 2.267697 1_655
In1 O45 2.324395 1_545
In2 O16 2.045391 1_555
In2 O52 2.121782 1_555
In2 O53 2.158902 1_555
In2 O15 2.181699 1_555
In2 O17 2.229964 1_555
In2 O51 2.397149 1_555
In3 O54 2.115025 1_555
In3 O20 2.131960 1_556
In3 O56 2.154582 1_555
In3 O18 2.195480 1_556
In3 O19 2.213830 1_556
In3 O55 2.299731 1_555
In4 O23 2.115429 1_555
In4 O58 2.149791 1_555
In4 O22 2.172338 1_555
In4 O59 2.181450 1_555
In4 O21 2.214893 1_555
In4 O57 2.374498 1_555
In5 O30 2.113513 1_555
In5 O66 2.178722 1_555
In5 O68 2.194317 1_555
In5 O32 2.203960 1_555
In5 O31 2.288571 1_555
In5 O67 2.412894 1_555
O0 P0 1.550914 1_545
O1 S0 1.481202 1_555
O2 P1 1.558622 1_655
O3 S1 1.483249 1_555
O4 S2 1.484549 1_555
O5 P2 1.550879 1_545
O6 P2 1.550618 1_555
O7 S1 1.485685 1_555
O8 S2 1.479617 1_555
O9 S0 1.485209 1_555
O10 P1 1.552200 1_555
O11 P0 1.551562 1_555
O12 P3 1.543202 1_555
O13 S3 1.484728 1_555
O14 S4 1.481532 1_555
O15 S5 1.480413 1_555
O16 P4 1.531742 1_555
O17 S6 1.488901 1_555
O18 S6 1.489991 1_555
O19 S5 1.494577 1_555
O20 P4 1.570997 1_555
O21 S3 1.485980 1_555
O22 S4 1.482554 1_555
O23 P3 1.560258 1_555
O24 P5 1.541243 1_555
O25 S7 1.468842 1_555
O26 P6 1.534916 1_555
O27 S8 1.476659 1_555
O28 P7 1.546457 1_555
O29 P8 1.538188 1_555
O30 P8 1.562413 1_555
O31 S8 1.487106 1_555
O32 P7 1.570335 1_555
O33 S7 1.483354 1_555
O34 P6 1.558146 1_555
O35 P5 1.551335 1_555
O36 P8 1.546235 1_655
O37 S8 1.502246 1_555
O38 P7 1.569487 1_555
O39 S7 1.503239 1_655
O40 P6 1.537673 1_545
O41 P5 1.564421 1_555
O42 P3 1.556156 1_555
O43 S3 1.487549 1_555
O44 S4 1.490340 1_555
O45 S5 1.499771 1_555
O46 P4 1.567851 1_555
O47 S6 1.497021 1_555
O48 P2 1.549410 1_545
O49 S1 1.484979 1_555
O50 S2 1.486464 1_655
O51 S0 1.514054 1_555
O52 P1 1.555643 1_655
O53 P0 1.582661 1_545
O54 P5 1.544316 1_555
O55 S7 1.495553 1_655
O56 P6 1.564642 1_545
O57 S8 1.512859 1_545
O58 P7 1.557894 1_555
O59 P8 1.576662 1_655
O60 S6 1.485145 1_555
O61 S5 1.492028 1_455
O62 P4 1.555315 1_565
O63 S3 1.484750 1_565
O64 S4 1.484489 1_555
O65 P3 1.546608 1_455
O66 P0 1.564153 1_555
O67 S0 1.510643 1_555
O68 P1 1.581908 1_555
O69 S1 1.482844 1_555
O70 S2 1.481985 1_555
O71 P2 1.550176 1_555
