# generated using pymatgen
data_Zr3SO9
_symmetry_space_group_name_H-M   'P 1'
_cell_length_a   6.43949006
_cell_length_b   6.43949006
_cell_length_c   9.91205300
_cell_angle_alpha   90.00000000
_cell_angle_beta   90.00000000
_cell_angle_gamma   120.00000065
_symmetry_Int_Tables_number   1
_chemical_formula_structural   Zr3SO9
_chemical_formula_sum   'Zr6 S2 O18'
_cell_volume   355.95672235
_cell_formula_units_Z   2
loop_
 _symmetry_equiv_pos_site_id
 _symmetry_equiv_pos_as_xyz
  1  'x, y, z'
loop_
 _atom_site_type_symbol
 _atom_site_label
 _atom_site_symmetry_multiplicity
 _atom_site_fract_x
 _atom_site_fract_y
 _atom_site_fract_z
 _atom_site_occupancy
  Zr  Zr0  1  0.69947200  0.66656800  0.35514500  1
  Zr  Zr1  1  0.96709600  0.30052800  0.35514500  1
  Zr  Zr2  1  0.33343200  0.03290400  0.35514500  1
  Zr  Zr3  1  0.30052800  0.33343200  0.64485500  1
  Zr  Zr4  1  0.03290400  0.69947200  0.64485500  1
  Zr  Zr5  1  0.66656800  0.96709600  0.64485500  1
  S  S0  1  0.33333300  0.66666700  0.15769600  1
  S  S1  1  0.66666700  0.33333300  0.84230400  1
  O  O0  1  0.11271100  0.43984400  0.12548200  1
  O  O1  1  0.32713300  0.88728900  0.12548200  1
  O  O2  1  0.56015600  0.67286700  0.12548200  1
  O  O3  1  0.88728900  0.56015600  0.87451800  1
  O  O4  1  0.67286700  0.11271100  0.87451800  1
  O  O5  1  0.43984400  0.32713300  0.87451800  1
  O  O6  1  0.33223200  0.33382300  0.43057700  1
  O  O7  1  0.00159200  0.66776800  0.43057700  1
  O  O8  1  0.00000000  0.00000000  0.71156700  1
  O  O9  1  0.00000000  0.00000000  0.28843300  1
  O  O10  1  0.66666700  0.33333300  0.68529900  1
  O  O11  1  0.33333300  0.66666700  0.31470100  1
  O  O12  1  0.33333300  0.66666700  0.71277800  1
  O  O13  1  0.66666700  0.33333300  0.28722200  1
  O  O14  1  0.33382300  0.00159200  0.56942300  1
  O  O15  1  0.99840800  0.33223200  0.56942300  1
  O  O16  1  0.66776800  0.66617700  0.56942300  1
  O  O17  1  0.66617700  0.99840800  0.43057700  1
loop_
_geom_bond_atom_site_label_1
_geom_bond_atom_site_label_2
_geom_bond_distance
_geom_bond_site_symmetry_2
O0 S0 1.476025 1_555
O0 Zr1 2.454589 1_455
O1 S0 1.476022 1_555
O1 Zr2 2.454589 1_565
O2 S0 1.476028 1_555
O2 Zr0 2.454589 1_555
O3 S1 1.476025 1_555
O3 Zr4 2.454589 1_655
O4 S1 1.476022 1_555
O4 Zr5 2.454589 1_545
O5 S1 1.476028 1_555
O5 Zr3 2.454589 1_555
O6 Zr2 2.080625 1_555
O6 Zr3 2.133605 1_555
O6 Zr1 2.372645 1_455
O6 Zr0 2.382338 1_555
O7 Zr0 2.080631 1_455
O7 Zr4 2.133605 1_555
O7 Zr2 2.372642 1_565
O7 Zr1 2.382335 1_455
O8 Zr3 2.153458 1_555
O8 Zr5 2.153458 1_445
O8 Zr4 2.153458 1_545
O9 Zr0 2.153458 1_445
O9 Zr2 2.153458 1_555
O9 Zr1 2.153458 1_455
O10 S1 1.556242 1_555
O10 Zr5 2.391894 1_545
O10 Zr4 2.391897 1_655
O10 Zr3 2.391901 1_555
O11 S0 1.556242 1_555
O11 Zr2 2.391894 1_565
O11 Zr1 2.391897 1_455
O11 Zr0 2.391901 1_555
O12 Zr4 2.156222 1_555
O12 Zr5 2.156226 1_555
O12 Zr3 2.156229 1_555
O13 Zr1 2.156222 1_555
O13 Zr2 2.156226 1_555
O13 Zr0 2.156229 1_555
O14 Zr4 2.080628 1_545
O14 Zr2 2.133605 1_555
O14 Zr3 2.372639 1_555
O14 Zr5 2.382342 1_545
O15 Zr3 2.080631 1_655
O15 Zr1 2.133605 1_555
O15 Zr5 2.372642 1_545
O15 Zr4 2.382335 1_655
O16 Zr5 2.080625 1_555
O16 Zr0 2.133605 1_555
O16 Zr4 2.372645 1_655
O16 Zr3 2.382338 1_555
O17 Zr1 2.080628 1_565
O17 Zr5 2.133605 1_555
O17 Zr0 2.372639 1_555
O17 Zr2 2.382342 1_565
