# generated using pymatgen
data_NaBH4
_symmetry_space_group_name_H-M   'P 1'
_cell_length_a   4.77952000
_cell_length_b   6.56590400
_cell_length_c   9.72979500
_cell_angle_alpha   90.00000000
_cell_angle_beta   90.00000000
_cell_angle_gamma   90.00000000
_symmetry_Int_Tables_number   1
_chemical_formula_structural   NaBH4
_chemical_formula_sum   'Na4 B4 H16'
_cell_volume   305.33915682
_cell_formula_units_Z   4
loop_
 _symmetry_equiv_pos_site_id
 _symmetry_equiv_pos_as_xyz
  1  'x, y, z'
loop_
 _atom_site_type_symbol
 _atom_site_label
 _atom_site_symmetry_multiplicity
 _atom_site_fract_x
 _atom_site_fract_y
 _atom_site_fract_z
 _atom_site_occupancy
  Na  Na0  1  0.75000000  0.91691800  0.85364700  1
  Na  Na1  1  0.75000000  0.58308200  0.35364700  1
  Na  Na2  1  0.25000000  0.08308200  0.14635300  1
  Na  Na3  1  0.25000000  0.41691800  0.64635300  1
  B  B0  1  0.25000000  0.34736600  0.36142300  1
  B  B1  1  0.25000000  0.15263400  0.86142300  1
  B  B2  1  0.75000000  0.65263400  0.63857700  1
  B  B3  1  0.75000000  0.84736600  0.13857700  1
  H  H0  1  0.45936800  0.32259400  0.29001700  1
  H  H1  1  0.04063200  0.17740600  0.79001700  1
  H  H2  1  0.95936800  0.67740600  0.70998300  1
  H  H3  1  0.54063200  0.82259400  0.20998300  1
  H  H4  1  0.54063200  0.67740600  0.70998300  1
  H  H5  1  0.95936800  0.82259400  0.20998300  1
  H  H6  1  0.04063200  0.32259400  0.29001700  1
  H  H7  1  0.45936800  0.17740600  0.79001700  1
  H  H8  1  0.25000000  0.22000300  0.45339100  1
  H  H9  1  0.25000000  0.27999700  0.95339100  1
  H  H10  1  0.75000000  0.77999700  0.54660900  1
  H  H11  1  0.75000000  0.72000300  0.04660900  1
  H  H12  1  0.25000000  0.52288700  0.40657500  1
  H  H13  1  0.25000000  0.97711300  0.90657500  1
  H  H14  1  0.75000000  0.47711300  0.59342500  1
  H  H15  1  0.75000000  0.02288700  0.09342500  1
loop_
_geom_bond_atom_site_label_1
_geom_bond_atom_site_label_2
_geom_bond_distance
_geom_bond_site_symmetry_2
B0 H8 1.224761 1_555
B0 H0 1.229029 1_555
B0 H6 1.229029 1_555
B0 H12 1.233350 1_555
B1 H9 1.224761 1_555
B1 H7 1.229029 1_555
B1 H1 1.229029 1_555
B1 H13 1.233350 1_545
B2 H10 1.224761 1_555
B2 H2 1.229029 1_555
B2 H4 1.229029 1_555
B2 H14 1.233350 1_555
B3 H11 1.224761 1_555
B3 H3 1.229029 1_555
B3 H5 1.229029 1_555
B3 H15 1.233350 1_565
H0 Na1 2.288690 1_555
H0 Na2 2.329887 1_555
H1 Na0 2.288690 1_445
H1 Na3 2.329887 1_555
H2 Na3 2.288690 1_655
H2 Na0 2.329887 1_555
H3 Na2 2.288690 1_565
H3 Na1 2.329887 1_555
H4 Na3 2.288690 1_555
H4 Na0 2.329887 1_555
H5 Na2 2.288690 1_665
H5 Na1 2.329887 1_555
H6 Na1 2.288690 1_455
H6 Na2 2.329887 1_555
H7 Na0 2.288690 1_545
H7 Na3 2.329887 1_555
H8 Na3 2.279603 1_555
H9 Na2 2.279603 1_556
H10 Na1 2.279603 1_555
H11 Na0 2.279603 1_554
H12 Na3 2.434535 1_555
H12 Na1 2.476361 1_455
H12 Na1 2.476361 1_555
H13 Na2 2.434535 1_566
H13 Na0 2.476361 1_455
H13 Na0 2.476361 1_555
H14 Na1 2.434535 1_555
H14 Na3 2.476361 1_655
H14 Na3 2.476361 1_555
H15 Na0 2.434535 1_544
H15 Na2 2.476361 1_655
H15 Na2 2.476361 1_555
