# generated using pymatgen
data_Y3GaCo3
_symmetry_space_group_name_H-M   'P 1'
_cell_length_a   5.39350210
_cell_length_b   5.39350210
_cell_length_c   12.89508600
_cell_angle_alpha   90.00000000
_cell_angle_beta   90.00000000
_cell_angle_gamma   134.99360448
_symmetry_Int_Tables_number   1
_chemical_formula_structural   Y3GaCo3
_chemical_formula_sum   'Y6 Ga2 Co6'
_cell_volume   265.27689274
_cell_formula_units_Z   2
loop_
 _symmetry_equiv_pos_site_id
 _symmetry_equiv_pos_as_xyz
  1  'x, y, z'
loop_
 _atom_site_type_symbol
 _atom_site_label
 _atom_site_symmetry_multiplicity
 _atom_site_fract_x
 _atom_site_fract_y
 _atom_site_fract_z
 _atom_site_occupancy
  Y  Y0  1  0.00027700  0.99972300  0.25000000  1
  Y  Y1  1  0.99972300  0.00027700  0.75000000  1
  Y  Y2  1  0.70845700  0.29154300  0.60297700  1
  Y  Y3  1  0.29154300  0.70845700  0.39702300  1
  Y  Y4  1  0.29154300  0.70845700  0.10297700  1
  Y  Y5  1  0.70845700  0.29154300  0.89702300  1
  Ga  Ga0  1  0.00000000  0.00000000  0.00000000  1
  Ga  Ga1  1  0.00000000  0.00000000  0.50000000  1
  Co  Co0  1  0.69657400  0.30342600  0.25000000  1
  Co  Co1  1  0.30342600  0.69657400  0.75000000  1
  Co  Co2  1  0.41832500  0.58167500  0.59583900  1
  Co  Co3  1  0.58167500  0.41832500  0.40416100  1
  Co  Co4  1  0.58167500  0.41832500  0.09583900  1
  Co  Co5  1  0.41832500  0.58167500  0.90416100  1
loop_
_geom_bond_atom_site_label_1
_geom_bond_atom_site_label_2
_geom_bond_distance
_geom_bond_site_symmetry_2
Y0 Y3 3.466953 1_555
Y0 Y4 3.466953 1_555
Y0 Y3 3.490375 1_455
Y0 Y3 3.490375 1_565
Y0 Y4 3.490375 1_455
Y0 Y4 3.490375 1_565
Y1 Y2 3.466953 1_555
Y1 Y5 3.466953 1_555
Y1 Y5 3.490375 1_545
Y1 Y2 3.490375 1_545
Y1 Y5 3.490375 1_655
Y1 Y2 3.490375 1_655
Ga0 Y1 3.223773 1_454
Ga0 Y0 3.223773 1_545
Ga1 Y1 3.223773 1_455
Ga1 Y0 3.223773 1_545
Co0 Co4 2.294112 1_555
Co0 Co3 2.294112 1_555
Co0 Y0 2.843957 1_655
Co0 Y0 2.843957 1_545
Co0 Y3 2.958264 1_545
Co0 Y3 2.958264 1_655
Co0 Y4 2.958264 1_545
Co0 Y4 2.958264 1_655
Co0 Y0 3.026601 1_645
Co1 Co5 2.294112 1_555
Co1 Co2 2.294112 1_555
Co1 Y1 2.843957 1_565
Co1 Y1 2.843957 1_455
Co1 Y5 2.958264 1_455
Co1 Y2 2.958264 1_455
Co1 Y2 2.958264 1_565
Co1 Y5 2.958264 1_565
Co1 Y1 3.026601 1_465
Co2 Ga1 2.539901 1_555
Co2 Ga1 2.539901 1_665
Co2 Y3 2.858174 1_555
Co2 Y2 2.892822 1_555
Co2 Y2 2.940067 1_455
Co2 Y2 2.940067 1_565
Co2 Co3 2.959620 1_555
Co2 Y1 2.978440 1_565
Co2 Y1 2.978440 1_455
Co3 Ga1 2.539901 1_555
Co3 Ga1 2.539901 1_665
Co3 Y2 2.858174 1_555
Co3 Y3 2.892822 1_555
Co3 Y3 2.940067 1_545
Co3 Y3 2.940067 1_655
Co3 Y0 2.978440 1_655
Co3 Y0 2.978440 1_545
Co4 Ga0 2.539901 1_555
Co4 Ga0 2.539901 1_665
Co4 Y5 2.858174 1_554
Co4 Y4 2.892822 1_555
Co4 Y4 2.940067 1_545
Co4 Y4 2.940067 1_655
Co4 Co5 2.959620 1_554
Co4 Y0 2.978440 1_655
Co4 Y0 2.978440 1_545
Co5 Ga0 2.539901 1_556
Co5 Ga0 2.539901 1_666
Co5 Y4 2.858174 1_556
Co5 Y5 2.892822 1_555
Co5 Y5 2.940067 1_455
Co5 Y5 2.940067 1_565
Co5 Y1 2.978440 1_565
Co5 Y1 2.978440 1_455
