# generated using pymatgen
data_BiBr3
_symmetry_space_group_name_H-M   'P 1'
_cell_length_a   12.79575656
_cell_length_b   7.40032958
_cell_length_c   7.67169737
_cell_angle_alpha   72.15300608
_cell_angle_beta   90.00000000
_cell_angle_gamma   90.00000000
_symmetry_Int_Tables_number   1
_chemical_formula_structural   BiBr3
_chemical_formula_sum   'Bi4 Br12'
_cell_volume   691.49642415
_cell_formula_units_Z   4
loop_
 _symmetry_equiv_pos_site_id
 _symmetry_equiv_pos_as_xyz
  1  'x, y, z'
loop_
 _atom_site_type_symbol
 _atom_site_label
 _atom_site_symmetry_multiplicity
 _atom_site_fract_x
 _atom_site_fract_y
 _atom_site_fract_z
 _atom_site_occupancy
  Bi  Bi0  1  0.33327531  0.49633146  0.00152357  1
  Bi  Bi1  1  0.83327531  0.00366854  0.99847643  1
  Bi  Bi2  1  0.16672469  0.99633146  0.00152357  1
  Bi  Bi3  1  0.66672469  0.50366854  0.99847643  1
  Br  Br0  1  0.18094147  0.24207798  0.23199482  1
  Br  Br1  1  0.50140336  0.28829891  0.23064162  1
  Br  Br2  1  0.32096759  0.24833120  0.77309950  1
  Br  Br3  1  0.82096759  0.25166880  0.22690050  1
  Br  Br4  1  0.00140336  0.21170109  0.76935838  1
  Br  Br5  1  0.31905853  0.74207798  0.23199482  1
  Br  Br6  1  0.68094147  0.25792202  0.76800518  1
  Br  Br7  1  0.99859664  0.78829891  0.23064162  1
  Br  Br8  1  0.17903241  0.74833120  0.77309950  1
  Br  Br9  1  0.67903241  0.75166880  0.22690050  1
  Br  Br10  1  0.49859664  0.71170109  0.76935838  1
  Br  Br11  1  0.81905853  0.75792202  0.76800518  1
loop_
_geom_bond_atom_site_label_1
_geom_bond_atom_site_label_2
_geom_bond_distance
_geom_bond_site_symmetry_2
Bi0 Br0 2.902892 1_555
Bi0 Br1 2.903311 1_555
Bi0 Br2 2.904363 1_554
Bi0 Br5 2.904747 1_555
Bi0 Br8 2.905316 1_554
Bi0 Br10 2.906458 1_554
Bi1 Br6 2.902892 1_555
Bi1 Br4 2.903311 1_655
Bi1 Br3 2.904363 1_556
Bi1 Br11 2.904747 1_545
Bi1 Br9 2.905316 1_546
Bi1 Br7 2.906458 1_546
Bi2 Br5 2.902892 1_555
Bi2 Br7 2.903311 1_455
Bi2 Br8 2.904363 1_554
Bi2 Br0 2.904747 1_565
Bi2 Br2 2.905316 1_564
Bi2 Br4 2.906458 1_564
Bi3 Br11 2.902892 1_555
Bi3 Br10 2.903311 1_555
Bi3 Br9 2.904363 1_556
Bi3 Br6 2.904747 1_555
Bi3 Br3 2.905316 1_556
Bi3 Br1 2.906458 1_556
