# generated using pymatgen
data_Ba2TmMg(CuO2)4
_symmetry_space_group_name_H-M   'P 1'
_cell_length_a   3.73930500
_cell_length_b   3.95893089
_cell_length_c   15.11083395
_cell_angle_alpha   96.75566900
_cell_angle_beta   90.00000000
_cell_angle_gamma   90.00000000
_symmetry_Int_Tables_number   1
_chemical_formula_structural   Ba2TmMg(CuO2)4
_chemical_formula_sum   'Ba2 Tm1 Mg1 Cu4 O8'
_cell_volume   222.14234068
_cell_formula_units_Z   1
loop_
 _symmetry_equiv_pos_site_id
 _symmetry_equiv_pos_as_xyz
  1  'x, y, z'
loop_
 _atom_site_type_symbol
 _atom_site_label
 _atom_site_symmetry_multiplicity
 _atom_site_fract_x
 _atom_site_fract_y
 _atom_site_fract_z
 _atom_site_occupancy
  Ba  Ba0  1  0.50000000  0.38689200  0.75416400  1
  Ba  Ba1  1  0.50000000  0.61310800  0.24583600  1
  Tm  Tm0  1  0.50000000  0.50000000  0.00000000  1
  Mg  Mg0  1  0.50000000  0.50000000  0.50000000  1
  Cu  Cu0  1  0.00000000  0.94852300  0.89494500  1
  Cu  Cu1  1  0.00000000  0.05147700  0.10505500  1
  Cu  Cu2  1  0.00000000  0.83997200  0.59184100  1
  Cu  Cu3  1  0.00000000  0.16002800  0.40815900  1
  O  O0  1  0.00000000  0.29906500  0.55417600  1
  O  O1  1  0.00000000  0.70093500  0.44582400  1
  O  O2  1  0.00000000  0.45278800  0.90441100  1
  O  O3  1  0.00000000  0.54721200  0.09558900  1
  O  O4  1  0.50000000  0.95471500  0.90706400  1
  O  O5  1  0.50000000  0.04528500  0.09293600  1
  O  O6  1  0.00000000  0.87427700  0.71655400  1
  O  O7  1  0.00000000  0.12572200  0.28344600  1
loop_
_geom_bond_atom_site_label_1
_geom_bond_atom_site_label_2
_geom_bond_distance
_geom_bond_site_symmetry_2
Ba0 O6 2.768706 1_545
Ba0 O6 2.768706 1_645
Ba0 O6 2.792784 1_655
Ba0 O6 2.792784 1_555
Ba0 O2 2.928964 1_555
Ba0 O2 2.928964 1_655
Ba0 O4 3.028132 1_555
Ba0 O4 3.032423 1_545
Ba1 O7 2.768703 1_565
Ba1 O7 2.768703 1_665
Ba1 O7 2.792787 1_555
Ba1 O7 2.792787 1_655
Ba1 O3 2.928964 1_655
Ba1 O3 2.928964 1_555
Ba1 O5 3.028132 1_555
Ba1 O5 3.032423 1_565
Mg0 O1 2.225263 1_655
Mg0 O0 2.225263 1_555
Mg0 O0 2.225263 1_655
Mg0 O1 2.225263 1_555
Cu0 O4 1.878478 1_455
Cu0 O4 1.878478 1_555
Cu0 O2 1.984497 1_555
Cu0 O2 1.984614 1_565
Cu0 O6 2.677021 1_555
Cu1 O5 1.878478 1_555
Cu1 O5 1.878478 1_455
Cu1 O3 1.984497 1_555
Cu1 O3 1.984614 1_545
Cu1 O7 2.677021 1_555
Cu2 O6 1.873402 1_555
Cu2 O0 1.967403 1_565
Cu2 O0 2.150079 1_555
Cu2 O1 2.210343 1_555
Cu3 O7 1.873402 1_555
Cu3 O1 1.967403 1_545
Cu3 O1 2.150079 1_555
Cu3 O0 2.210343 1_555
O2 Tm0 2.356564 1_456
O2 Tm0 2.356564 1_556
O3 Tm0 2.356564 1_455
O3 Tm0 2.356564 1_555
O4 Tm0 2.409901 1_556
O4 Tm0 2.432921 1_566
O5 Tm0 2.409901 1_555
O5 Tm0 2.432921 1_545
