# generated using pymatgen
data_Na6CaSi2Ge3(PO6)4
_symmetry_space_group_name_H-M   'P 1'
_cell_length_a   8.85029484
_cell_length_b   8.86032697
_cell_length_c   21.85593939
_cell_angle_alpha   90.44092289
_cell_angle_beta   90.05390671
_cell_angle_gamma   120.31863346
_symmetry_Int_Tables_number   1
_chemical_formula_structural   Na6CaSi2Ge3(PO6)4
_chemical_formula_sum   'Na18 Ca3 Si6 Ge9 P12 O72'
_cell_volume   1479.39641209
_cell_formula_units_Z   3
loop_
 _symmetry_equiv_pos_site_id
 _symmetry_equiv_pos_as_xyz
  1  'x, y, z'
loop_
 _atom_site_type_symbol
 _atom_site_label
 _atom_site_symmetry_multiplicity
 _atom_site_fract_x
 _atom_site_fract_y
 _atom_site_fract_z
 _atom_site_occupancy
  Na  Na0  1  0.00505233  0.00140730  0.50311159  1
  Na  Na1  1  0.99974706  0.00045616  0.99864221  1
  Na  Na2  1  0.65421247  0.30855092  0.83377733  1
  Na  Na3  1  0.65374925  0.33425717  0.32686906  1
  Na  Na4  1  0.32779170  0.66702310  0.16147073  1
  Na  Na5  1  0.32756282  0.66563862  0.66553233  1
  Na  Na6  1  0.64712593  0.01126756  0.24534894  1
  Na  Na7  1  0.98903554  0.63015995  0.24285130  1
  Na  Na8  1  0.62696384  0.61685590  0.74603412  1
  Na  Na9  1  0.99297987  0.37318320  0.74855624  1
  Na  Na10  1  0.66561903  0.97397903  0.58599220  1
  Na  Na11  1  0.66212549  0.68730272  0.08078010  1
  Na  Na12  1  0.02449471  0.33962075  0.08418337  1
  Na  Na13  1  0.96774871  0.66958867  0.91778393  1
  Na  Na14  1  0.33503835  0.30136730  0.91794869  1
  Na  Na15  1  0.96083898  0.28481941  0.41550380  1
  Na  Na16  1  0.32734817  0.03780677  0.41380476  1
  Na  Na17  1  0.71445474  0.68046837  0.41736058  1
  Ca  Ca0  1  0.00054910  0.00032882  0.35511023  1
  Ca  Ca1  1  0.65881438  0.32833417  0.68471348  1
  Ca  Ca2  1  0.66445293  0.33205806  0.17442368  1
  Si  Si0  1  0.66412766  0.63094136  0.58463779  1
  Si  Si1  1  0.97862540  0.63990208  0.08166262  1
  Si  Si2  1  0.62037283  0.66950429  0.91530233  1
  Si  Si3  1  0.04125536  0.37594029  0.91474021  1
  Si  Si4  1  0.34075078  0.95980140  0.91557864  1
  Si  Si5  1  0.61134300  0.95952959  0.42071781  1
  Ge  Ge0  1  0.99878797  0.00076893  0.85859816  1
  Ge  Ge1  1  0.00157430  0.98994291  0.64672057  1
  Ge  Ge2  1  0.01003000  0.99958173  0.14710066  1
  Ge  Ge3  1  0.67124737  0.33769851  0.97732444  1
  Ge  Ge4  1  0.66602102  0.33179501  0.48619682  1
  Ge  Ge5  1  0.32958656  0.67070308  0.01147391  1
  Ge  Ge6  1  0.33684759  0.66583796  0.52077285  1
  Ge  Ge7  1  0.33769433  0.66961434  0.31351747  1
  Ge  Ge8  1  0.33377049  0.67433038  0.81836271  1
  P  P0  1  0.29495811  0.99025594  0.25282110  1
  P  P1  1  0.69331051  0.70448246  0.25130009  1
  P  P2  1  0.01548425  0.30398118  0.25120795  1
  P  P3  1  0.27251535  0.28182015  0.75374961  1
  P  P4  1  0.01888539  0.72851201  0.75389990  1
  P  P5  1  0.71392003  0.98758845  0.75355574  1
  P  P6  1  0.97410821  0.33811532  0.58296765  1
  P  P7  1  0.36089760  0.02851708  0.58052539  1
  P  P8  1  0.66241649  0.02856816  0.08113280  1
  P  P9  1  0.36329790  0.33536941  0.07905239  1
  P  P10  1  0.34725302  0.39450741  0.41917190  1
  P  P11  1  0.04750439  0.65186757  0.41937127  1
  O  O0  1  0.22546186  0.00929170  0.31357023  1
  O  O1  1  0.78939001  0.77831566  0.31137297  1
  O  O2  1  0.98613239  0.20474091  0.30995677  1
  O  O3  1  0.18445716  0.17510523  0.81190318  1
  O  O4  1  0.99030933  0.81511066  0.81120847  1
  O  O5  1  0.83390096  0.01151591  0.80849273  1
  O  O6  1  0.79343271  0.96037316  0.69206214  1
  O  O7  1  0.15610421  0.19240010  0.69495398  1
  O  O8  1  0.03994566  0.83496318  0.69458632  1
  O  O9  1  0.78777219  0.82908674  0.19402148  1
  O  O10  1  0.03510393  0.20849484  0.19181252  1
  O  O11  1  0.16726027  0.96210879  0.19673689  1
  O  O12  1  0.91093218  0.37337794  0.64224584  1
  O  O13  1  0.48182574  0.09171622  0.63472481  1
  O  O14  1  0.62422458  0.53465265  0.64782825  1
  O  O15  1  0.92672731  0.53344292  0.14399886  1
  O  O16  1  0.62801298  0.07888629  0.14328222  1
  O  O17  1  0.47136928  0.38366348  0.13629484  1
  O  O18  1  0.44669094  0.29775697  0.02216663  1
  O  O19  1  0.82983498  0.54008120  0.02478570  1
  O  O20  1  0.70199712  0.16668496  0.02984848  1
  O  O21  1  0.44657631  0.14911448  0.52234643  1
  O  O22  1  0.69967332  0.53261403  0.52399919  1
  O  O23  1  0.83888256  0.29368464  0.52689858  1
  O  O24  1  0.53200226  0.69959376  0.97549819  1
  O  O25  1  0.17230600  0.46076130  0.97316102  1
  O  O26  1  0.28505433  0.82336038  0.97145224  1
  O  O27  1  0.51386098  0.83342258  0.47752697  1
  O  O28  1  0.31257631  0.47925599  0.47454134  1
  O  O29  1  0.16632987  0.67594411  0.47339713  1
  O  O30  1  0.12413849  0.62143803  0.35825360  1
  O  O31  1  0.49125365  0.87461037  0.35689858  1
  O  O32  1  0.37722155  0.50765067  0.36056273  1
  O  O33  1  0.12383535  0.50643373  0.85472946  1
  O  O34  1  0.38147962  0.87633124  0.85534095  1
  O  O35  1  0.48912747  0.61977404  0.85528294  1
  O  O36  1  0.02658510  0.81245104  0.42020853  1
  O  O37  1  0.80447914  0.98594924  0.42388226  1
  O  O38  1  0.19014439  0.20982797  0.41903159  1
  O  O39  1  0.02659897  0.18392830  0.90971369  1
  O  O40  1  0.16552356  0.98272356  0.90952007  1
  O  O41  1  0.82156242  0.83614758  0.90993058  1
  O  O42  1  0.98527364  0.16741577  0.58580050  1
  O  O43  1  0.18248986  0.02129271  0.58860935  1
  O  O44  1  0.84323220  0.83284997  0.58815091  1
  O  O45  1  0.97810007  0.82833201  0.08931694  1
  O  O46  1  0.83717862  0.01836623  0.08463735  1
  O  O47  1  0.17437832  0.16839134  0.08685638  1
  O  O48  1  0.70086306  0.15173844  0.75289691  1
  O  O49  1  0.45637869  0.31031903  0.75440444  1
  O  O50  1  0.85657221  0.54481141  0.75305796  1
  O  O51  1  0.67172891  0.52477282  0.24420356  1
  O  O52  1  0.85736460  0.32913920  0.24502897  1
  O  O53  1  0.48116261  0.13857498  0.24576317  1
  O  O54  1  0.63973321  0.49278633  0.92257626  1
  O  O55  1  0.85122544  0.36393848  0.92398083  1
  O  O56  1  0.50929999  0.15725243  0.92580518  1
  O  O57  1  0.62610396  0.15640120  0.42638998  1
  O  O58  1  0.51806665  0.38290008  0.42303380  1
  O  O59  1  0.86239808  0.48245413  0.42362375  1
  O  O60  1  0.33982953  0.49719213  0.06968887  1
  O  O61  1  0.16713840  0.65361062  0.06851615  1
  O  O62  1  0.50621530  0.84140181  0.06918456  1
  O  O63  1  0.32817114  0.83997090  0.57003713  1
  O  O64  1  0.49912260  0.66715794  0.57353911  1
  O  O65  1  0.15495560  0.50012015  0.57031584  1
  O  O66  1  0.29286376  0.80893909  0.25233511  1
  O  O67  1  0.51440715  0.70418569  0.25356280  1
  O  O68  1  0.18810551  0.48792730  0.25458309  1
  O  O69  1  0.28263476  0.46569788  0.75493505  1
  O  O70  1  0.18670338  0.71050937  0.75618083  1
  O  O71  1  0.53198006  0.81354708  0.75702840  1
loop_
_geom_bond_atom_site_label_1
_geom_bond_atom_site_label_2
_geom_bond_distance
_geom_bond_site_symmetry_2
Na0 O44 2.371551 1_445
Na0 O42 2.383258 1_455
Na0 O43 2.387253 1_555
Na0 O37 2.431769 1_445
Na0 O36 2.529519 1_545
Na0 O38 2.544469 1_555
Na1 O46 2.420499 1_556
Na1 O47 2.438921 1_656
Na1 O41 2.449176 1_545
Na1 O45 2.458102 1_546
Na1 O39 2.477141 1_655
Na1 O40 2.490941 1_645
Na2 O48 2.401767 1_555
Na2 O56 2.407908 1_555
Na2 O49 2.469346 1_555
Na2 O55 2.506497 1_555
Na2 O54 2.571119 1_555
Na2 O50 2.641900 1_555
Na3 O53 2.399018 1_555
Na3 O51 2.432147 1_555
Na3 O52 2.556600 1_555
Na3 O58 2.560961 1_555
Na3 O57 2.634170 1_555
Na3 O59 2.666043 1_555
Na4 O66 2.444530 1_555
Na4 O61 2.446102 1_555
Na4 O68 2.502340 1_555
Na4 O67 2.514338 1_555
Na4 O60 2.532864 1_555
Na4 O62 2.557292 1_555
Na5 O70 2.475944 1_555
Na5 O64 2.516667 1_555
Na5 O69 2.541270 1_555
Na5 O65 2.549572 1_555
Na5 O71 2.559014 1_555
Na5 O63 2.604483 1_555
Na6 O53 2.258869 1_555
Na6 O16 2.342232 1_555
Na6 O67 2.365627 1_545
Na6 O52 2.470621 1_555
Na6 O66 2.719873 1_545
Na6 O9 2.723384 1_545
Na6 O31 2.771004 1_545
Na6 O2 2.948975 1_555
Na7 O15 2.280005 1_555
Na7 O52 2.310406 1_555
Na7 O66 2.340129 1_655
Na7 O51 2.472289 1_555
Na7 O68 2.646458 1_655
Na7 O11 2.742096 1_655
Na7 O30 2.808543 1_655
Na8 O14 2.257442 1_555
Na8 O71 2.296653 1_555
Na8 O49 2.357495 1_555
Na8 O50 2.423023 1_555
Na8 O69 2.646275 1_555
Na8 O35 2.688208 1_555
Na8 O6 2.890883 1_555
Na9 O69 2.266950 1_655
Na9 O48 2.329070 1_555
Na9 O50 2.372977 1_555
Na9 O12 2.433960 1_555
Na9 O33 2.586937 1_655
Na9 O70 2.592010 1_655
Na9 O7 2.886442 1_655
Na10 O64 2.362053 1_555
Na10 O44 2.453997 1_555
Na10 O42 2.458810 1_565
Na10 O13 2.562800 1_565
Na10 O6 2.608733 1_555
Na10 O63 2.619578 1_555
Na10 O27 2.689701 1_555
Na10 O23 2.778163 1_565
Na11 O62 2.395671 1_555
Na11 O45 2.425678 1_555
Na11 O60 2.484725 1_555
Na11 O46 2.533673 1_565
Na11 O24 2.599685 1_554
Na11 O17 2.651177 1_555
Na11 O19 2.708494 1_555
Na11 O9 2.734395 1_555
Na12 O60 2.431626 1_555
Na12 O61 2.433177 1_555
Na12 O46 2.467144 1_455
Na12 O47 2.469389 1_555
Na12 O15 2.621988 1_455
Na12 O10 2.654036 1_555
Na12 O25 2.716563 1_554
Na12 O20 2.730331 1_455
Na13 O55 2.366898 1_555
Na13 O41 2.410896 1_555
Na13 O40 2.428864 1_655
Na13 O54 2.510830 1_555
Na13 O19 2.628364 1_556
Na13 O4 2.629676 1_555
Na13 O26 2.687880 1_655
Na13 O33 2.808270 1_655
Na14 O54 2.353274 1_555
Na14 O39 2.386470 1_555
Na14 O40 2.443511 1_545
Na14 O56 2.455545 1_555
Na14 O18 2.488889 1_556
Na14 O3 2.616960 1_555
Na14 O25 2.748742 1_555
Na14 O35 2.805951 1_555
Na15 O37 2.295448 1_545
Na15 O59 2.322223 1_555
Na15 O38 2.434726 1_655
Na15 O2 2.451761 1_555
Na15 O57 2.594214 1_555
Na15 O23 2.680714 1_555
Na15 O30 2.873823 1_655
Na15 O28 2.977786 1_655
Na16 O57 2.315180 1_555
Na16 O0 2.331082 1_555
Na16 O38 2.382603 1_555
Na16 O36 2.393914 1_545
Na16 O21 2.573405 1_555
Na16 O58 2.649170 1_555
Na16 O31 2.799184 1_545
Na17 O58 2.316580 1_555
Na17 O36 2.395738 1_655
Na17 O37 2.407846 1_555
Na17 O1 2.451680 1_555
Na17 O22 2.653291 1_555
Na17 O59 2.670943 1_555
Na17 O32 2.853642 1_555
Ca0 O2 2.128632 1_455
Ca0 O1 2.128840 1_445
Ca0 O0 2.153546 1_555
Ca0 O38 2.241425 1_555
Ca0 O37 2.251955 1_445
Ca0 O36 2.295998 1_545
Ca1 O14 2.161619 1_555
Ca1 O13 2.165319 1_555
Ca1 O12 2.260546 1_555
Ca1 O49 2.296853 1_555
Ca1 O48 2.330286 1_555
Ca1 O50 2.352685 1_555
Ca2 O17 2.148427 1_555
Ca2 O16 2.201098 1_555
Ca2 O15 2.203077 1_555
Ca2 O51 2.257083 1_555
Ca2 O53 2.289029 1_555
Ca2 O52 2.310230 1_555
Ge0 O5 1.864607 1_555
Ge0 O39 1.873663 1_655
Ge0 O41 1.888143 1_545
Ge0 O3 1.895395 1_655
Ge0 O4 1.906150 1_545
Ge0 O40 1.918239 1_645
Ge1 O44 1.881420 1_455
Ge1 O8 1.894098 1_555
Ge1 O7 1.921161 1_565
Ge1 O43 1.952991 1_565
Ge1 O6 1.991039 1_455
Ge1 O42 2.127713 1_465
Ge2 O45 1.874576 1_455
Ge2 O11 1.921631 1_555
Ge2 O47 1.980891 1_565
Ge2 O10 1.996893 1_565
Ge2 O9 2.056823 1_455
Ge2 O46 2.118568 1_465
Ge3 O56 1.879906 1_555
Ge3 O55 1.893222 1_555
Ge3 O19 1.920693 1_556
Ge3 O54 1.951776 1_555
Ge3 O20 2.032322 1_556
Ge3 O18 2.081924 1_556
Ge4 O22 1.838255 1_555
Ge4 O57 1.913647 1_555
Ge4 O23 1.941522 1_555
Ge4 O21 1.965918 1_555
Ge4 O59 2.088802 1_555
Ge4 O58 2.104818 1_555
Ge5 O26 1.818169 1_554
Ge5 O61 1.852214 1_555
Ge5 O24 1.853587 1_554
Ge5 O25 1.859729 1_554
Ge5 O62 1.975343 1_555
Ge5 O60 2.039891 1_555
Ge6 O27 1.796739 1_555
Ge6 O64 1.836429 1_555
Ge6 O28 1.848097 1_555
Ge6 O29 1.868838 1_555
Ge6 O65 1.887114 1_555
Ge6 O63 1.907847 1_555
Ge7 O31 1.877200 1_555
Ge7 O32 1.941099 1_555
Ge7 O67 1.945051 1_555
Ge7 O68 1.953578 1_555
Ge7 O30 1.976308 1_555
Ge7 O66 1.997079 1_555
Ge8 O34 1.802479 1_555
Ge8 O35 1.857481 1_555
Ge8 O33 1.878111 1_555
Ge8 O70 2.017054 1_555
Ge8 O71 2.059375 1_555
Ge8 O69 2.158344 1_555
O0 P0 1.507461 1_545
O1 P1 1.515887 1_555
O2 P2 1.508882 1_655
O3 P3 1.547005 1_555
O4 P4 1.550246 1_655
O5 P5 1.542914 1_545
O6 P5 1.589908 1_555
O7 P3 1.580573 1_555
O8 P4 1.564183 1_555
O9 P1 1.605113 1_555
O10 P2 1.600921 1_555
O11 P0 1.596906 1_555
O12 P6 1.503421 1_555
O13 P7 1.498186 1_555
O14 Si0 1.573164 1_555
O15 Si1 1.593873 1_555
O16 P8 1.505012 1_555
O17 P9 1.496477 1_555
O18 P9 1.563725 1_555
O19 Si1 1.692846 1_555
O20 P8 1.570250 1_555
O21 P7 1.593202 1_555
O22 Si0 1.695334 1_555
O23 P6 1.613421 1_555
O24 Si2 1.618864 1_555
O25 Si3 1.625656 1_555
O26 Si4 1.617998 1_555
O27 Si5 1.607645 1_555
O28 P10 1.530321 1_555
O29 P11 1.520854 1_555
O30 P11 1.580442 1_555
O31 Si5 1.677783 1_555
O32 P10 1.571031 1_555
O33 Si3 1.662301 1_555
O34 Si4 1.632565 1_555
O35 Si2 1.653977 1_555
O36 P11 1.524663 1_555
O37 Si5 1.605266 1_555
O38 P10 1.521094 1_555
O39 Si3 1.642429 1_555
O40 Si4 1.667881 1_555
O41 Si2 1.647144 1_555
O42 P6 1.566346 1_555
O43 P7 1.557912 1_555
O44 Si0 1.689258 1_555
O45 Si1 1.678972 1_555
O46 P8 1.596040 1_555
O47 P9 1.587598 1_555
O48 P5 1.516216 1_545
O49 P3 1.515568 1_555
O50 P4 1.533630 1_655
O51 P1 1.511622 1_555
O52 P2 1.530133 1_655
O53 P0 1.511184 1_545
O54 Si2 1.667617 1_555
O55 Si3 1.643479 1_655
O56 Si4 1.641456 1_545
O57 Si5 1.685750 1_545
O58 P10 1.568425 1_555
O59 P11 1.570142 1_655
O60 P9 1.563942 1_555
O61 Si1 1.636367 1_455
O62 P8 1.551610 1_565
O63 P7 1.559724 1_565
O64 Si0 1.663750 1_555
O65 P6 1.544681 1_455
O66 P0 1.597203 1_555
O67 P1 1.582842 1_555
O68 P2 1.574742 1_555
O69 P3 1.585897 1_555
O70 P4 1.572588 1_555
O71 P5 1.572140 1_555
