# generated using pymatgen
data_Mg(NiO2)4
_symmetry_space_group_name_H-M   'P 1'
_cell_length_a   5.81047654
_cell_length_b   5.70417511
_cell_length_c   5.81036896
_cell_angle_alpha   60.60277139
_cell_angle_beta   58.48577365
_cell_angle_gamma   60.60337631
_symmetry_Int_Tables_number   1
_chemical_formula_structural   Mg(NiO2)4
_chemical_formula_sum   'Mg1 Ni4 O8'
_cell_volume   135.73413010
_cell_formula_units_Z   1
loop_
 _symmetry_equiv_pos_site_id
 _symmetry_equiv_pos_as_xyz
  1  'x, y, z'
loop_
 _atom_site_type_symbol
 _atom_site_label
 _atom_site_symmetry_multiplicity
 _atom_site_fract_x
 _atom_site_fract_y
 _atom_site_fract_z
 _atom_site_occupancy
  Mg  Mg0  1  0.11314800  0.13687500  0.11310300  1
  Ni  Ni0  1  0.50081900  0.50175100  0.50094600  1
  Ni  Ni1  1  0.50082100  0.99648700  0.50094400  1
  Ni  Ni2  1  0.99440700  0.50202500  0.50154800  1
  Ni  Ni3  1  0.50153800  0.50203900  0.99438600  1
  O  O0  1  0.74879100  0.72295200  0.30530500  1
  O  O1  1  0.75018900  0.71387600  0.75016300  1
  O  O2  1  0.25343500  0.27468100  0.69720300  1
  O  O3  1  0.25158300  0.71939200  0.25156600  1
  O  O4  1  0.25158200  0.27746000  0.25156700  1
  O  O5  1  0.69722200  0.27469900  0.25338000  1
  O  O6  1  0.30532800  0.72295100  0.74877300  1
  O  O7  1  0.75019100  0.28577200  0.75016300  1
loop_
_geom_bond_atom_site_label_1
_geom_bond_atom_site_label_2
_geom_bond_distance
_geom_bond_site_symmetry_2
Mg0 O2 1.956245 1_554
Mg0 O5 1.956420 1_455
Mg0 O4 1.969896 1_555
Mg0 O3 1.969897 1_545
Ni0 O6 1.903298 1_555
Ni0 O0 1.903851 1_555
Ni0 O2 1.925707 1_555
Ni0 O5 1.926325 1_555
Ni0 O3 2.097803 1_555
Ni0 O7 2.098521 1_555
Ni1 O6 1.903306 1_555
Ni1 O0 1.903856 1_555
Ni1 O2 1.925702 1_565
Ni1 O5 1.926305 1_565
Ni1 O4 2.097802 1_565
Ni1 O1 2.098513 1_555
Ni2 O1 1.856883 1_555
Ni2 O7 1.856893 1_555
Ni2 O0 1.857406 1_555
Ni2 O3 1.913601 1_655
Ni2 O4 1.913612 1_655
Ni2 O2 1.914336 1_655
Ni3 O1 1.856978 1_555
Ni3 O7 1.856986 1_555
Ni3 O6 1.857254 1_555
Ni3 O3 1.913559 1_556
Ni3 O4 1.913567 1_556
Ni3 O5 1.914288 1_556
