# generated using pymatgen
data_Na2Sc2In2SiS5O24
_symmetry_space_group_name_H-M   'P 1'
_cell_length_a   8.86527865
_cell_length_b   8.84672580
_cell_length_c   23.46276217
_cell_angle_alpha   89.72831834
_cell_angle_beta   90.09437255
_cell_angle_gamma   119.83445262
_symmetry_Int_Tables_number   1
_chemical_formula_structural   Na2Sc2In2SiS5O24
_chemical_formula_sum   'Na6 Sc6 In6 Si3 S15 O72'
_cell_volume   1596.25312102
_cell_formula_units_Z   3
loop_
 _symmetry_equiv_pos_site_id
 _symmetry_equiv_pos_as_xyz
  1  'x, y, z'
loop_
 _atom_site_type_symbol
 _atom_site_label
 _atom_site_symmetry_multiplicity
 _atom_site_fract_x
 _atom_site_fract_y
 _atom_site_fract_z
 _atom_site_occupancy
  Na  Na0  1  0.98688306  0.98231626  0.50789111  1
  Na  Na1  1  0.00050058  0.99919663  0.99780343  1
  Na  Na2  1  0.66801350  0.32270614  0.82231054  1
  Na  Na3  1  0.64962083  0.32154357  0.33525634  1
  Na  Na4  1  0.33070332  0.67861483  0.17370632  1
  Na  Na5  1  0.37035212  0.67969672  0.66505049  1
  Sc  Sc0  1  0.98557772  0.00308930  0.84641088  1
  Sc  Sc1  1  0.01009362  0.99603574  0.15168398  1
  Sc  Sc2  1  0.65680471  0.32356196  0.18823151  1
  Sc  Sc3  1  0.66779379  0.33184048  0.98171090  1
  Sc  Sc4  1  0.33336692  0.66826550  0.01856829  1
  Sc  Sc5  1  0.33303087  0.67729268  0.31387587  1
  In  In0  1  0.00995727  0.00133494  0.35002531  1
  In  In1  1  0.97735425  0.98431056  0.64791819  1
  In  In2  1  0.66564280  0.33233693  0.68415664  1
  In  In3  1  0.66598954  0.33947681  0.48589099  1
  In  In4  1  0.34754155  0.66576749  0.52057908  1
  In  In5  1  0.34320374  0.67361772  0.81271529  1
  Si  Si0  1  0.29589571  0.99801497  0.25027557  1
  Si  Si1  1  0.70027933  0.00701107  0.74982895  1
  Si  Si2  1  0.66913965  0.62826124  0.58325548  1
  S  S0  1  0.70545336  0.70530496  0.24919626  1
  S  S1  1  0.00053169  0.29402141  0.24902700  1
  S  S2  1  0.28847901  0.28925846  0.75102977  1
  S  S3  1  0.00090166  0.70691876  0.75265096  1
  S  S4  1  0.96652470  0.33377848  0.58136693  1
  S  S5  1  0.36442851  0.03371933  0.58274864  1
  S  S6  1  0.95787953  0.62441599  0.08230690  1
  S  S7  1  0.66751213  0.04013945  0.08245060  1
  S  S8  1  0.37455981  0.33493525  0.08216467  1
  S  S9  1  0.62784636  0.66501742  0.91974985  1
  S  S10  1  0.04297513  0.37576953  0.91850772  1
  S  S11  1  0.33170796  0.96230676  0.91957423  1
  S  S12  1  0.63304668  0.96736219  0.41478755  1
  S  S13  1  0.33084465  0.37082074  0.41457332  1
  S  S14  1  0.03973983  0.66292200  0.41680953  1
  O  O0  1  0.22135975  0.03808326  0.30714694  1
  O  O1  1  0.80509766  0.78023973  0.30195158  1
  O  O2  1  0.96220319  0.18843667  0.30155574  1
  O  O3  1  0.20029652  0.18349231  0.80339024  1
  O  O4  1  0.99178514  0.80190018  0.80423813  1
  O  O5  1  0.81202530  0.02509127  0.80917874  1
  O  O6  1  0.78779078  0.98242699  0.69396677  1
  O  O7  1  0.19487443  0.20540452  0.69870785  1
  O  O8  1  0.03180433  0.80889737  0.70022983  1
  O  O9  1  0.78860208  0.81792960  0.19844417  1
  O  O10  1  0.01991805  0.20433187  0.19848117  1
  O  O11  1  0.17545684  0.97110274  0.19352996  1
  O  O12  1  0.88175942  0.34791681  0.63317343  1
  O  O13  1  0.47505766  0.11022482  0.63324749  1
  O  O14  1  0.64371715  0.51461712  0.64066890  1
  O  O15  1  0.87791873  0.52083910  0.13380901  1
  O  O16  1  0.64349771  0.12240279  0.13351921  1
  O  O17  1  0.47929602  0.35855928  0.13365545  1
  O  O18  1  0.46037476  0.31318805  0.03105436  1
  O  O19  1  0.85272025  0.53678178  0.03081498  1
  O  O20  1  0.68666026  0.14685005  0.03085805  1
  O  O21  1  0.44445833  0.13009383  0.52850959  1
  O  O22  1  0.69244942  0.55337350  0.52197404  1
  O  O23  1  0.85833559  0.29963041  0.52879021  1
  O  O24  1  0.53829498  0.68652700  0.97020341  1
  O  O25  1  0.15124170  0.46682731  0.96945109  1
  O  O26  1  0.31416554  0.85233128  0.97060067  1
  O  O27  1  0.55435794  0.86679633  0.46704469  1
  O  O28  1  0.31690696  0.45396242  0.46686532  1
  O  O29  1  0.14172103  0.68101042  0.46841918  1
  O  O30  1  0.13275590  0.65625776  0.36453951  1
  O  O31  1  0.52688961  0.87915134  0.36337415  1
  O  O32  1  0.34501602  0.47566094  0.36306483  1
  O  O33  1  0.11900828  0.47949273  0.86630498  1
  O  O34  1  0.35927935  0.88696198  0.86780483  1
  O  O35  1  0.52352747  0.63332684  0.86765103  1
  O  O36  1  0.01342525  0.81727179  0.41398571  1
  O  O37  1  0.80894917  0.98518463  0.40909152  1
  O  O38  1  0.16903463  0.19665139  0.41290380  1
  O  O39  1  0.02889078  0.20178793  0.91562254  1
  O  O40  1  0.17508918  0.98088598  0.91648344  1
  O  O41  1  0.80249682  0.82164065  0.91548840  1
  O  O42  1  0.00302584  0.18792067  0.58494669  1
  O  O43  1  0.19735178  0.03096324  0.58856191  1
  O  O44  1  0.84576795  0.81940381  0.58296479  1
  O  O45  1  0.97314600  0.79994163  0.08542317  1
  O  O46  1  0.82338709  0.02084222  0.08686899  1
  O  O47  1  0.19820954  0.17929351  0.08682071  1
  O  O48  1  0.68576772  0.18350804  0.74739181  1
  O  O49  1  0.46568692  0.31370247  0.75143843  1
  O  O50  1  0.83745014  0.53875717  0.75127179  1
  O  O51  1  0.69251309  0.53273342  0.24112814  1
  O  O52  1  0.85214354  0.32509300  0.24007687  1
  O  O53  1  0.49061140  0.16791051  0.24072118  1
  O  O54  1  0.64765582  0.50850820  0.92821982  1
  O  O55  1  0.86602456  0.35482636  0.92595064  1
  O  O56  1  0.48964936  0.13768700  0.92742405  1
  O  O57  1  0.64895267  0.14336588  0.41829305  1
  O  O58  1  0.48689098  0.34829843  0.41575606  1
  O  O59  1  0.86794763  0.49947303  0.41715975  1
  O  O60  1  0.35706747  0.49354060  0.07539067  1
  O  O61  1  0.13528087  0.64506939  0.07570202  1
  O  O62  1  0.50870576  0.86490328  0.07591433  1
  O  O63  1  0.33341444  0.85275728  0.57799345  1
  O  O64  1  0.49372113  0.64884389  0.58361362  1
  O  O65  1  0.13238006  0.50103797  0.57606698  1
  O  O66  1  0.31501014  0.82377808  0.25512006  1
  O  O67  1  0.52783236  0.68103285  0.25429648  1
  O  O68  1  0.16232555  0.46469795  0.25476010  1
  O  O69  1  0.29564108  0.46147502  0.75529037  1
  O  O70  1  0.14987032  0.67477449  0.75825183  1
  O  O71  1  0.50788291  0.83133557  0.75329818  1
loop_
_geom_bond_atom_site_label_1
_geom_bond_atom_site_label_2
_geom_bond_distance
_geom_bond_site_symmetry_2
Na0 O44 2.221280 1_555
Na0 O42 2.523675 1_665
Na0 O43 2.538959 1_665
Na0 O36 2.723192 1_655
Na0 O37 2.808880 1_555
Na0 O38 2.845204 1_665
Na1 O40 2.514838 1_555
Na1 O39 2.552154 1_565
Na1 O41 2.559852 1_455
Na1 O45 2.633319 1_456
Na1 O46 2.680073 1_466
Na1 O47 2.685838 1_566
Na2 O48 2.201225 1_555
Na2 O50 2.410194 1_555
Na2 O49 2.416195 1_555
Na3 O58 2.461215 1_555
Na3 O57 2.498420 1_555
Na3 O53 2.620334 1_555
Na3 O59 2.627144 1_555
Na3 O51 2.787390 1_555
Na3 O52 2.857977 1_555
Na4 O66 2.349323 1_555
Na4 O67 2.565591 1_555
Na4 O68 2.567239 1_555
Na4 O61 2.803355 1_555
Na4 O62 2.803438 1_555
Na4 O60 2.911162 1_555
Na5 O64 2.287016 1_555
Na5 O71 2.442112 1_555
Na5 O63 2.662788 1_555
Na5 O69 2.709641 1_555
Na5 O65 2.829636 1_555
Na5 O70 2.921112 1_555
In0 O0 2.006763 1_555
In0 O38 2.178017 1_555
In0 O37 2.206680 1_445
In0 O1 2.208185 1_445
In0 O2 2.211365 1_455
In0 O36 2.220594 1_545
In1 O6 1.992420 1_555
In1 O44 2.033127 1_555
In1 O8 2.207482 1_655
In1 O42 2.246632 1_665
In1 O43 2.261913 1_665
In1 O7 2.286062 1_665
In2 O14 1.993722 1_555
In2 O48 2.044752 1_555
In2 O13 2.203364 1_555
In2 O12 2.205435 1_555
In2 O49 2.318950 1_555
In2 O50 2.320832 1_555
In3 O22 1.981261 1_555
In3 O23 2.152709 1_555
In3 O21 2.158096 1_555
In3 O59 2.296944 1_555
In3 O57 2.304975 1_555
In3 O58 2.312661 1_555
In4 O64 2.018367 1_555
In4 O65 2.163671 1_555
In4 O28 2.165186 1_555
In4 O63 2.189687 1_555
In4 O27 2.200958 1_555
In4 O29 2.254147 1_555
In5 O71 1.995781 1_555
In5 O70 2.140279 1_555
In5 O69 2.179477 1_555
In5 O35 2.213556 1_555
In5 O34 2.237894 1_555
In5 O33 2.252150 1_555
O0 Si0 1.607248 1_545
O1 S0 1.474258 1_555
O2 S1 1.477025 1_655
O3 S2 1.503451 1_555
O3 Sc0 2.039050 1_455
O4 S3 1.501714 1_655
O4 Sc0 2.065036 1_565
O5 Si1 1.669125 1_555
O5 Sc0 1.860164 1_555
O6 Si1 1.594055 1_565
O7 S2 1.462445 1_555
O8 S3 1.465061 1_555
O9 S0 1.488266 1_555
O9 Sc1 2.110521 1_655
O10 S1 1.486896 1_555
O10 Sc1 2.113773 1_545
O11 Si0 1.647652 1_555
O11 Sc1 1.864592 1_555
O12 S4 1.468270 1_555
O13 S5 1.472117 1_555
O14 Si2 1.624469 1_555
O15 S6 1.465724 1_555
O15 Sc2 2.258774 1_555
O16 S7 1.474429 1_555
O16 Sc2 2.154312 1_555
O17 S8 1.473425 1_555
O17 Sc2 2.164800 1_555
O18 S8 1.484814 1_555
O18 Sc3 2.110013 1_554
O19 S6 1.488560 1_555
O19 Sc3 2.087672 1_554
O20 S7 1.488534 1_555
O20 Sc3 2.071190 1_554
O21 S5 1.496866 1_555
O22 Si2 1.641712 1_555
O23 S4 1.498093 1_555
O24 S9 1.491095 1_555
O24 Sc4 2.080238 1_556
O25 S10 1.494953 1_555
O25 Sc4 2.064268 1_556
O26 S11 1.497705 1_555
O26 Sc4 2.050618 1_556
O27 S12 1.468478 1_555
O28 S13 1.470061 1_555
O29 S14 1.470905 1_555
O30 S14 1.496632 1_555
O30 Sc5 2.067884 1_555
O31 S12 1.491404 1_555
O31 Sc5 2.109698 1_555
O32 S13 1.486776 1_555
O32 Sc5 2.166514 1_555
O33 S10 1.474172 1_555
O34 S11 1.466352 1_555
O35 S9 1.472973 1_555
O36 S14 1.496470 1_555
O37 S12 1.493442 1_555
O38 S13 1.494859 1_555
O39 S10 1.482885 1_555
O39 Sc0 2.286455 1_455
O40 S11 1.478766 1_555
O40 Sc0 2.424968 1_465
O41 S9 1.480466 1_555
O41 Sc0 2.286826 1_565
O42 S4 1.480253 1_455
O43 S5 1.475736 1_555
O44 Si2 1.636074 1_555
O45 S6 1.492270 1_555
O45 Sc1 2.234340 1_655
O46 S7 1.477687 1_555
O46 Sc1 2.334626 1_645
O47 S8 1.486369 1_555
O47 Sc1 2.240644 1_545
O48 Si1 1.629985 1_555
O49 S2 1.475409 1_555
O50 S3 1.472872 1_655
O51 S0 1.485999 1_555
O51 Sc2 2.121898 1_555
O52 S1 1.486117 1_655
O52 Sc2 2.109189 1_555
O53 Si0 1.644891 1_545
O53 Sc2 1.885437 1_555
O54 S9 1.492196 1_555
O54 Sc3 2.075587 1_555
O55 S10 1.495693 1_655
O55 Sc3 2.119152 1_555
O56 S11 1.497340 1_545
O56 Sc3 2.093285 1_555
O57 S12 1.494586 1_545
O58 S13 1.492759 1_555
O59 S14 1.489689 1_655
O60 S8 1.494125 1_555
O60 Sc4 2.124525 1_555
O61 S6 1.498479 1_455
O61 Sc4 2.137644 1_555
O62 S7 1.496274 1_565
O62 Sc4 2.139529 1_555
O63 S5 1.488160 1_565
O64 Si2 1.653324 1_555
O65 S4 1.483572 1_455
O66 Si0 1.635786 1_555
O66 Sc5 1.947746 1_555
O67 S0 1.484563 1_555
O67 Sc5 2.210948 1_555
O68 S1 1.483815 1_555
O68 Sc5 2.221972 1_555
O69 S2 1.496800 1_555
O70 S3 1.488287 1_555
O71 Si1 1.641021 1_565
