# generated using pymatgen
data_Na4Y2Hf2Si3(SO8)3
_symmetry_space_group_name_H-M   'P 1'
_cell_length_a   9.20912256
_cell_length_b   9.17864568
_cell_length_c   23.48567204
_cell_angle_alpha   90.18042689
_cell_angle_beta   89.92000231
_cell_angle_gamma   119.74706174
_symmetry_Int_Tables_number   1
_chemical_formula_structural   Na4Y2Hf2Si3(SO8)3
_chemical_formula_sum   'Na12 Y6 Hf6 Si9 S9 O72'
_cell_volume   1723.57269660
_cell_formula_units_Z   3
loop_
 _symmetry_equiv_pos_site_id
 _symmetry_equiv_pos_as_xyz
  1  'x, y, z'
loop_
 _atom_site_type_symbol
 _atom_site_label
 _atom_site_symmetry_multiplicity
 _atom_site_fract_x
 _atom_site_fract_y
 _atom_site_fract_z
 _atom_site_occupancy
  Na  Na0  1  0.98966756  0.64607318  0.25302901  1
  Na  Na1  1  0.99201095  0.34965915  0.74032731  1
  Na  Na2  1  0.65940462  0.98082500  0.59092071  1
  Na  Na3  1  0.67018815  0.69568010  0.08017384  1
  Na  Na4  1  0.33733748  0.30981248  0.90254625  1
  Na  Na5  1  0.31699583  0.01640141  0.42131164  1
  Na  Na6  1  0.01171063  0.99370442  0.50597041  1
  Na  Na7  1  0.98165314  0.97423354  0.99673923  1
  Na  Na8  1  0.65001924  0.32091785  0.82025925  1
  Na  Na9  1  0.65945643  0.34597043  0.33376278  1
  Na  Na10  1  0.32720796  0.67607955  0.17200842  1
  Na  Na11  1  0.32218811  0.66697160  0.66079789  1
  Y  Y0  1  0.99679028  0.98977279  0.35158807  1
  Y  Y1  1  0.98710037  0.99008655  0.84903985  1
  Y  Y2  1  0.65272121  0.32422034  0.68461279  1
  Y  Y3  1  0.66211319  0.33085227  0.18785885  1
  Y  Y4  1  0.32882750  0.67219058  0.01788117  1
  Y  Y5  1  0.31190644  0.65588443  0.52065847  1
  Hf  Hf0  1  0.01498391  0.02070212  0.64767899  1
  Hf  Hf1  1  0.99685420  0.98095959  0.15271817  1
  Hf  Hf2  1  0.67989836  0.35222948  0.98096149  1
  Hf  Hf3  1  0.67942542  0.33722180  0.48583450  1
  Hf  Hf4  1  0.33055289  0.66997376  0.31351431  1
  Hf  Hf5  1  0.36043332  0.67415597  0.80910711  1
  Si  Si0  1  0.29566347  0.99562793  0.25329083  1
  Si  Si1  1  0.69502412  0.70481548  0.24945251  1
  Si  Si2  1  0.29493649  0.29611699  0.75566915  1
  Si  Si3  1  0.70879933  0.00058472  0.74713421  1
  Si  Si4  1  0.96125145  0.32934879  0.58808265  1
  Si  Si5  1  0.36853929  0.04122109  0.57966978  1
  Si  Si6  1  0.96416853  0.63294186  0.08653319  1
  Si  Si7  1  0.62977233  0.66724628  0.92072066  1
  Si  Si8  1  0.02906026  0.65661638  0.41487154  1
  S  S0  1  0.00904365  0.29557292  0.24900217  1
  S  S1  1  0.00932752  0.70776243  0.74998357  1
  S  S2  1  0.67640450  0.63335059  0.58210963  1
  S  S3  1  0.67582792  0.04517234  0.08169616  1
  S  S4  1  0.36827681  0.32474873  0.08109877  1
  S  S5  1  0.03477353  0.37468887  0.91686305  1
  S  S6  1  0.34124090  0.96850483  0.91661030  1
  S  S7  1  0.62062535  0.96183241  0.41689347  1
  S  S8  1  0.34188661  0.37748201  0.41492701  1
  O  O0  1  0.21875305  0.02457739  0.31065804  1
  O  O1  1  0.82018970  0.79738715  0.30129939  1
  O  O2  1  0.98627366  0.19973500  0.30075093  1
  O  O3  1  0.21732284  0.19845766  0.81520287  1
  O  O4  1  0.98641147  0.78220084  0.80246823  1
  O  O5  1  0.81730973  0.02245149  0.80353995  1
  O  O6  1  0.79756716  0.97078364  0.69038098  1
  O  O7  1  0.16685943  0.19655006  0.70104812  1
  O  O8  1  0.03105978  0.81232344  0.69954400  1
  O  O9  1  0.78782560  0.82183520  0.19020721  1
  O  O10  1  0.02603722  0.20871403  0.19744540  1
  O  O11  1  0.16366960  0.96580726  0.19818851  1
  O  O12  1  0.88373790  0.35658535  0.64563379  1
  O  O13  1  0.48731988  0.12955446  0.63364036  1
  O  O14  1  0.64961323  0.53573874  0.63397335  1
  O  O15  1  0.87596500  0.52698409  0.14241043  1
  O  O16  1  0.65037485  0.11816654  0.13299656  1
  O  O17  1  0.47450086  0.35064529  0.13110069  1
  O  O18  1  0.45171471  0.30245356  0.02881581  1
  O  O19  1  0.83417681  0.53055687  0.03049878  1
  O  O20  1  0.68550384  0.14567106  0.03027464  1
  O  O21  1  0.46002230  0.15763889  0.52094262  1
  O  O22  1  0.69272308  0.54169764  0.53116853  1
  O  O23  1  0.83407850  0.30545620  0.53252061  1
  O  O24  1  0.54415286  0.67842319  0.97967378  1
  O  O25  1  0.13893671  0.45878336  0.96732562  1
  O  O26  1  0.31652206  0.86774878  0.96823849  1
  O  O27  1  0.55165567  0.86397022  0.46893523  1
  O  O28  1  0.32929252  0.45796761  0.46684347  1
  O  O29  1  0.15727551  0.69403055  0.46654802  1
  O  O30  1  0.12571239  0.63626199  0.35644771  1
  O  O31  1  0.50961073  0.86970436  0.36651327  1
  O  O32  1  0.35716790  0.48191274  0.36381948  1
  O  O33  1  0.10661910  0.47581976  0.86517575  1
  O  O34  1  0.35666962  0.88187087  0.86570349  1
  O  O35  1  0.49899413  0.63669111  0.86648560  1
  O  O36  1  0.01778936  0.82970777  0.41332896  1
  O  O37  1  0.79193749  0.99520272  0.40854148  1
  O  O38  1  0.19050262  0.20865864  0.41078387  1
  O  O39  1  0.02283597  0.20806655  0.91409535  1
  O  O40  1  0.19832606  0.99942163  0.91336123  1
  O  O41  1  0.81792329  0.82155055  0.91624738  1
  O  O42  1  0.95817389  0.14541223  0.58924108  1
  O  O43  1  0.18009043  0.01719263  0.58931904  1
  O  O44  1  0.83152836  0.79936124  0.58571862  1
  O  O45  1  0.96561114  0.81762428  0.08844224  1
  O  O46  1  0.83198073  0.03282865  0.08496011  1
  O  O47  1  0.20016050  0.17687653  0.08687006  1
  O  O48  1  0.69586677  0.17049098  0.74652117  1
  O  O49  1  0.48449501  0.33698247  0.74915380  1
  O  O50  1  0.86442278  0.53704331  0.74505794  1
  O  O51  1  0.68921193  0.52499215  0.24449039  1
  O  O52  1  0.86543774  0.32466123  0.24304485  1
  O  O53  1  0.48224442  0.14574767  0.24351542  1
  O  O54  1  0.63045753  0.48152055  0.92518972  1
  O  O55  1  0.86214054  0.35143257  0.92604892  1
  O  O56  1  0.49734377  0.13677637  0.92323481  1
  O  O57  1  0.62088331  0.12619033  0.42010269  1
  O  O58  1  0.49216805  0.35494934  0.41700283  1
  O  O59  1  0.84280661  0.48692641  0.42328440  1
  O  O60  1  0.35776405  0.48097417  0.07582871  1
  O  O61  1  0.15025708  0.66100050  0.07902487  1
  O  O62  1  0.53189033  0.86989527  0.07679546  1
  O  O63  1  0.36909602  0.86338790  0.57595037  1
  O  O64  1  0.53336431  0.66162342  0.57388212  1
  O  O65  1  0.15054320  0.47953371  0.58104850  1
  O  O66  1  0.29155532  0.81120879  0.25647102  1
  O  O67  1  0.50910542  0.68494473  0.25739985  1
  O  O68  1  0.16431339  0.46526049  0.25290055  1
  O  O69  1  0.28922576  0.47752479  0.75966589  1
  O  O70  1  0.16312957  0.69055206  0.75723366  1
  O  O71  1  0.51972860  0.83110791  0.75591377  1
loop_
_geom_bond_atom_site_label_1
_geom_bond_atom_site_label_2
_geom_bond_distance
_geom_bond_site_symmetry_2
Na0 O66 2.418936 1_655
Na0 O51 2.424847 1_555
Na0 O52 2.591181 1_555
Na0 O30 2.756617 1_655
Na0 O1 2.790381 1_555
Na0 O15 2.809716 1_555
Na0 O68 2.826625 1_655
Na0 O11 2.861923 1_655
Na1 O48 2.390217 1_555
Na1 O69 2.426461 1_655
Na1 O12 2.452376 1_555
Na1 O50 2.520896 1_555
Na1 O70 2.744473 1_655
Na1 O7 2.766215 1_655
Na2 O63 2.360839 1_555
Na2 O42 2.393603 1_565
Na2 O64 2.590479 1_555
Na2 O6 2.685107 1_555
Na2 O13 2.741423 1_565
Na2 O44 2.814214 1_555
Na2 O23 2.934351 1_565
Na2 O27 3.045518 1_555
Na3 O45 2.381262 1_555
Na3 O62 2.491466 1_555
Na3 O60 2.558329 1_555
Na3 O24 2.601189 1_554
Na3 O46 2.689193 1_565
Na3 O9 2.817215 1_555
Na3 O19 2.862534 1_555
Na3 O17 3.010326 1_555
Na4 O3 2.312192 1_555
Na4 O54 2.414608 1_555
Na4 O40 2.490858 1_545
Na4 O39 2.578658 1_555
Na4 O56 2.694267 1_555
Na4 O35 2.741428 1_555
Na5 O36 2.424422 1_545
Na5 O57 2.459579 1_555
Na5 O38 2.564291 1_555
Na5 O21 2.680606 1_555
Na5 O58 2.701053 1_555
Na5 O0 2.766399 1_555
Na5 O29 2.782800 1_545
Na6 O43 2.440658 1_565
Na6 O44 2.553103 1_455
Na6 O42 2.582270 1_465
Na6 O36 2.658099 1_555
Na6 O38 2.897424 1_565
Na7 O41 2.388614 1_555
Na7 O45 2.556256 1_556
Na7 O46 2.683771 1_566
Na7 O40 2.720956 1_655
Na7 O39 2.781009 1_665
Na7 O47 2.874455 1_666
Na8 O49 2.316420 1_555
Na8 O48 2.375947 1_555
Na8 O50 2.660551 1_555
Na8 O56 2.887989 1_555
Na8 O54 2.918554 1_555
Na9 O58 2.513676 1_555
Na9 O51 2.596963 1_555
Na9 O59 2.601971 1_555
Na9 O53 2.746269 1_555
Na9 O57 2.760442 1_555
Na9 O52 2.920635 1_555
Na10 O66 2.442920 1_555
Na10 O67 2.589915 1_555
Na10 O68 2.595883 1_555
Na10 O61 2.688448 1_555
Na10 O62 2.898925 1_555
Na10 O60 2.976803 1_555
Na11 O65 2.501160 1_555
Na11 O63 2.579743 1_555
Na11 O70 2.761213 1_555
Na11 O71 2.799942 1_555
Na11 O69 2.829674 1_555
Na11 O64 2.834480 1_555
Hf0 O7 1.970874 1_555
Hf0 O42 2.018360 1_455
Hf0 O43 2.057675 1_555
Hf0 O6 2.076418 1_445
Hf0 O8 2.336660 1_545
Hf0 O44 2.383584 1_445
Hf1 O11 1.933203 1_655
Hf1 O9 1.956346 1_555
Hf1 O45 2.041585 1_555
Hf1 O10 2.230518 1_665
Hf1 O46 2.406915 1_565
Hf1 O47 2.408137 1_665
Hf2 O19 1.932914 1_556
Hf2 O54 1.969496 1_555
Hf2 O55 2.118020 1_555
Hf2 O18 2.220710 1_556
Hf2 O20 2.247140 1_556
Hf2 O56 2.294660 1_555
Hf3 O23 1.932374 1_555
Hf3 O21 2.044077 1_555
Hf3 O59 2.065164 1_555
Hf3 O22 2.104925 1_555
Hf3 O57 2.317963 1_555
Hf3 O58 2.429289 1_555
Hf4 O66 2.019546 1_555
Hf4 O30 2.021974 1_555
Hf4 O67 2.056778 1_555
Hf4 O31 2.149596 1_555
Hf4 O32 2.206575 1_555
Hf4 O68 2.243994 1_555
Hf5 O71 1.922790 1_555
Hf5 O69 1.962171 1_555
Hf5 O35 2.001398 1_555
Hf5 O70 2.255442 1_555
Hf5 O34 2.335031 1_555
Hf5 O33 2.509074 1_555
O0 Si0 1.602916 1_545
O0 Y0 2.133732 1_445
O1 Si1 1.599623 1_555
O1 Y0 2.073749 1_555
O2 S0 1.455280 1_655
O2 Y0 2.312767 1_545
O3 Si2 1.624383 1_555
O3 Y1 2.182990 1_445
O4 S1 1.472348 1_655
O4 Y1 2.193652 1_555
O5 Si3 1.611443 1_555
O5 Y1 2.035355 1_545
O6 Si3 1.654155 1_565
O7 Si2 1.673066 1_555
O8 S1 1.476591 1_555
O9 Si1 1.707411 1_555
O10 S0 1.497812 1_555
O11 Si0 1.702706 1_555
O12 Si4 1.603501 1_555
O12 Y2 2.195791 1_555
O13 Si5 1.605570 1_555
O13 Y2 2.058309 1_555
O14 S2 1.460795 1_555
O14 Y2 2.292220 1_555
O15 Si6 1.596542 1_555
O15 Y3 2.178680 1_555
O16 S3 1.451000 1_555
O16 Y3 2.293022 1_555
O17 S4 1.470779 1_555
O17 Y3 2.261514 1_555
O18 S4 1.513890 1_555
O19 Si6 1.711232 1_555
O20 S3 1.497482 1_555
O21 Si5 1.693104 1_555
O22 S2 1.510046 1_555
O23 Si4 1.694131 1_555
O24 Si7 1.620352 1_555
O24 Y4 2.150203 1_556
O25 S5 1.477561 1_555
O25 Y4 2.212836 1_556
O26 S6 1.474678 1_555
O26 Y4 2.193040 1_556
O27 S7 1.463800 1_555
O27 Y5 2.412620 1_555
O28 S8 1.457681 1_555
O28 Y5 2.279628 1_555
O29 Si8 1.607502 1_555
O29 Y5 2.065919 1_555
O30 Si8 1.694067 1_555
O31 S7 1.516388 1_555
O32 S8 1.500737 1_555
O33 S5 1.472540 1_555
O34 S6 1.479045 1_555
O35 Si7 1.678810 1_555
O36 Si8 1.643231 1_555
O36 Y0 2.143503 1_455
O37 S7 1.463289 1_555
O37 Y0 2.331609 1_555
O38 S8 1.486566 1_555
O38 Y0 2.363113 1_445
O39 S5 1.479130 1_555
O39 Y1 2.403018 1_445
O40 S6 1.479717 1_555
O40 Y1 2.432110 1_455
O41 Si7 1.607607 1_555
O41 Y1 2.220034 1_555
O42 Si4 1.674714 1_555
O43 Si5 1.652627 1_555
O44 S2 1.486338 1_555
O45 Si6 1.689036 1_555
O46 S3 1.499562 1_555
O47 S4 1.474047 1_555
O48 Si3 1.622011 1_555
O48 Y2 2.198581 1_555
O49 Si2 1.600409 1_555
O49 Y2 2.209936 1_555
O50 S1 1.474376 1_655
O50 Y2 2.417242 1_555
O51 Si1 1.628450 1_555
O51 Y3 2.133374 1_555
O52 S0 1.480191 1_655
O52 Y3 2.302589 1_555
O53 Si0 1.598477 1_545
O53 Y3 2.134055 1_555
O54 Si7 1.711402 1_555
O55 S5 1.510674 1_655
O56 S6 1.507344 1_545
O57 S7 1.509052 1_545
O58 S8 1.498261 1_555
O59 Si8 1.660383 1_655
O60 S4 1.489894 1_555
O60 Y4 2.341739 1_555
O61 Si6 1.611119 1_455
O61 Y4 2.145618 1_555
O62 S3 1.497200 1_565
O62 Y4 2.308332 1_555
O63 Si5 1.636875 1_565
O63 Y5 2.140580 1_555
O64 S2 1.476531 1_555
O64 Y5 2.371632 1_555
O65 Si4 1.606967 1_455
O65 Y5 2.112229 1_555
O66 Si0 1.676169 1_555
O67 Si1 1.639815 1_555
O68 S0 1.506072 1_555
O69 Si2 1.694096 1_555
O70 S1 1.510946 1_555
O71 Si3 1.675481 1_565
