# generated using pymatgen
data_Na8Y2Ti2Si5SO24
_symmetry_space_group_name_H-M   'P 1'
_cell_length_a   9.27121903
_cell_length_b   9.26502782
_cell_length_c   22.53962328
_cell_angle_alpha   90.27298539
_cell_angle_beta   89.46168765
_cell_angle_gamma   120.14358396
_symmetry_Int_Tables_number   1
_chemical_formula_structural   Na8Y2Ti2Si5SO24
_chemical_formula_sum   'Na24 Y6 Ti6 Si15 S3 O72'
_cell_volume   1674.21607306
_cell_formula_units_Z   3
loop_
 _symmetry_equiv_pos_site_id
 _symmetry_equiv_pos_as_xyz
  1  'x, y, z'
loop_
 _atom_site_type_symbol
 _atom_site_label
 _atom_site_symmetry_multiplicity
 _atom_site_fract_x
 _atom_site_fract_y
 _atom_site_fract_z
 _atom_site_occupancy
  Na  Na0  1  0.64776473  0.00881604  0.25208847  1
  Na  Na1  1  0.35190860  0.36163638  0.24983764  1
  Na  Na2  1  0.99957812  0.64157912  0.25025421  1
  Na  Na3  1  0.63219410  0.63129354  0.74656992  1
  Na  Na4  1  0.98926648  0.35710389  0.74742799  1
  Na  Na5  1  0.37164760  0.01274374  0.74761847  1
  Na  Na6  1  0.29415270  0.33323064  0.58876393  1
  Na  Na7  1  0.04088848  0.70773918  0.58355802  1
  Na  Na8  1  0.66718679  0.95654615  0.58390033  1
  Na  Na9  1  0.28487250  0.96573898  0.08213938  1
  Na  Na10  1  0.67203365  0.68886492  0.09044191  1
  Na  Na11  1  0.04674065  0.33734775  0.09005266  1
  Na  Na12  1  0.97883513  0.67010896  0.91530219  1
  Na  Na13  1  0.70756247  0.04617881  0.90474739  1
  Na  Na14  1  0.31909593  0.28304958  0.91726756  1
  Na  Na15  1  0.95416681  0.29589139  0.41088268  1
  Na  Na16  1  0.33072006  0.02258209  0.41635755  1
  Na  Na17  1  0.70919805  0.67495186  0.41869631  1
  Na  Na18  1  0.98910241  0.98695874  0.50400271  1
  Na  Na19  1  0.02549523  0.00980023  0.00006753  1
  Na  Na20  1  0.66853661  0.32433989  0.82687383  1
  Na  Na21  1  0.67219852  0.32901701  0.33384238  1
  Na  Na22  1  0.32363246  0.65180887  0.17115743  1
  Na  Na23  1  0.33776976  0.66615526  0.66658165  1
  Y  Y0  1  0.99623865  0.99667634  0.34569153  1
  Y  Y1  1  0.00635481  0.00430869  0.84299392  1
  Y  Y2  1  0.00435485  0.00045037  0.15683049  1
  Y  Y3  1  0.66708269  0.33201111  0.97912501  1
  Y  Y4  1  0.31991460  0.65705516  0.02021181  1
  Y  Y5  1  0.33547454  0.67323858  0.52200330  1
  Ti  Ti0  1  0.99934040  0.00018975  0.65028694  1
  Ti  Ti1  1  0.66531649  0.33323334  0.68362016  1
  Ti  Ti2  1  0.66729470  0.35245834  0.18843918  1
  Ti  Ti3  1  0.68009496  0.32953898  0.48705534  1
  Ti  Ti4  1  0.32905308  0.68640930  0.31416357  1
  Ti  Ti5  1  0.31236758  0.66914009  0.80714132  1
  Si  Si0  1  0.31518121  0.00781218  0.25000657  1
  Si  Si1  1  0.68266436  0.69318606  0.25095583  1
  Si  Si2  1  0.00034415  0.31651275  0.25033503  1
  Si  Si3  1  0.30217761  0.30302124  0.74708397  1
  Si  Si4  1  0.99137560  0.69834719  0.74757574  1
  Si  Si5  1  0.69744971  0.99870168  0.74826994  1
  Si  Si6  1  0.95160253  0.32131432  0.58716924  1
  Si  Si7  1  0.37682841  0.05391198  0.58511363  1
  Si  Si8  1  0.67720167  0.62158594  0.58462953  1
  Si  Si9  1  0.95861059  0.62961403  0.08460062  1
  Si  Si10  1  0.37350519  0.33247301  0.08493077  1
  Si  Si11  1  0.04045100  0.37099441  0.91246883  1
  Si  Si12  1  0.33284182  0.95826389  0.91404192  1
  Si  Si13  1  0.62877072  0.96838554  0.41786381  1
  Si  Si14  1  0.03110549  0.66143767  0.41866645  1
  S  S0  1  0.67048721  0.04133037  0.08540584  1
  S  S1  1  0.62416105  0.66811603  0.91364704  1
  S  S2  1  0.33823762  0.37398853  0.41620236  1
  O  O0  1  0.24231043  0.05663538  0.30763024  1
  O  O1  1  0.81160034  0.76571144  0.30601135  1
  O  O2  1  0.95502518  0.19178882  0.30693097  1
  O  O3  1  0.23956145  0.19160987  0.80727388  1
  O  O4  1  0.94887581  0.76101449  0.80894773  1
  O  O5  1  0.80709898  0.04157896  0.80831510  1
  O  O6  1  0.80572078  0.96922476  0.69386880  1
  O  O7  1  0.16456559  0.19600751  0.69323742  1
  O  O8  1  0.02880862  0.83543098  0.69355156  1
  O  O9  1  0.75420230  0.81253339  0.19269496  1
  O  O10  1  0.04611272  0.24063421  0.19229759  1
  O  O11  1  0.18931112  0.95190197  0.19395128  1
  O  O12  1  0.85202091  0.34521157  0.64238327  1
  O  O13  1  0.49517200  0.15127077  0.64176220  1
  O  O14  1  0.65781552  0.50487869  0.64168581  1
  O  O15  1  0.84598385  0.50677634  0.14077366  1
  O  O16  1  0.65449877  0.12935772  0.13758107  1
  O  O17  1  0.49410037  0.33754765  0.14049967  1
  O  O18  1  0.44915028  0.30610801  0.02286161  1
  O  O19  1  0.86120477  0.54648028  0.02310396  1
  O  O20  1  0.68789837  0.13366358  0.02949204  1
  O  O21  1  0.47579557  0.17024100  0.52536720  1
  O  O22  1  0.69938294  0.52476523  0.52487851  1
  O  O23  1  0.83545657  0.30004845  0.52643544  1
  O  O24  1  0.54885591  0.68450549  0.97016678  1
  O  O25  1  0.14443067  0.44641565  0.97361613  1
  O  O26  1  0.32159684  0.86204050  0.97574189  1
  O  O27  1  0.55595536  0.85455881  0.47694462  1
  O  O28  1  0.31500023  0.44753780  0.47131141  1
  O  O29  1  0.13958374  0.68776364  0.47778434  1
  O  O30  1  0.13782381  0.64550677  0.36085784  1
  O  O31  1  0.50119570  0.86180248  0.36154252  1
  O  O32  1  0.35246244  0.47568417  0.36371186  1
  O  O33  1  0.15434441  0.49659841  0.85582324  1
  O  O34  1  0.34223136  0.84554987  0.85632132  1
  O  O35  1  0.52247568  0.65418629  0.86163208  1
  O  O36  1  0.01239096  0.82727219  0.41351042  1
  O  O37  1  0.81770514  0.99957078  0.41146534  1
  O  O38  1  0.18894369  0.20276852  0.41291311  1
  O  O39  1  0.01207807  0.18230922  0.91108913  1
  O  O40  1  0.16310366  0.97090277  0.91285514  1
  O  O41  1  0.79364331  0.81724947  0.91154528  1
  O  O42  1  0.96195679  0.14925020  0.59040456  1
  O  O43  1  0.19147642  0.03849135  0.58966748  1
  O  O44  1  0.84658644  0.80791467  0.58958460  1
  O  O45  1  0.97310390  0.81280795  0.08741803  1
  O  O46  1  0.82129302  0.02462238  0.08789733  1
  O  O47  1  0.18446326  0.17192810  0.08836123  1
  O  O48  1  0.67214098  0.16026347  0.73860572  1
  O  O49  1  0.48969090  0.32873382  0.73749196  1
  O  O50  1  0.83619728  0.50896246  0.73842063  1
  O  O51  1  0.66116169  0.50504010  0.24145866  1
  O  O52  1  0.83493179  0.33653719  0.24055838  1
  O  O53  1  0.50432722  0.16296021  0.23856153  1
  O  O54  1  0.63761795  0.51409186  0.91501144  1
  O  O55  1  0.86286595  0.36816148  0.90963122  1
  O  O56  1  0.50351231  0.14054140  0.90899749  1
  O  O57  1  0.63292738  0.15023423  0.42184554  1
  O  O58  1  0.49320407  0.36220626  0.41881896  1
  O  O59  1  0.84604422  0.48641358  0.42119571  1
  O  O60  1  0.37519016  0.51028634  0.08915867  1
  O  O61  1  0.14205149  0.64393499  0.08995695  1
  O  O62  1  0.51935665  0.87257768  0.08353663  1
  O  O63  1  0.35901093  0.86901888  0.58531638  1
  O  O64  1  0.50814833  0.63481453  0.58378683  1
  O  O65  1  0.13668493  0.48531455  0.58470444  1
  O  O66  1  0.33152761  0.83855729  0.26011440  1
  O  O67  1  0.49620913  0.66481970  0.26436687  1
  O  O68  1  0.16741299  0.50124154  0.26122369  1
  O  O69  1  0.31384259  0.48646497  0.75259416  1
  O  O70  1  0.16724938  0.68891275  0.75237082  1
  O  O71  1  0.51388892  0.82506232  0.75361008  1
loop_
_geom_bond_atom_site_label_1
_geom_bond_atom_site_label_2
_geom_bond_distance
_geom_bond_site_symmetry_2
Na0 O53 2.412523 1_555
Na0 O66 2.542616 1_545
Na0 O52 2.646773 1_555
Na0 O67 2.777077 1_545
Na0 O2 2.777209 1_555
Na0 O9 2.797755 1_545
Na0 O16 2.804803 1_555
Na0 O31 2.810385 1_545
Na1 O67 2.452086 1_555
Na1 O51 2.487529 1_555
Na1 O68 2.622078 1_555
Na1 O32 2.770083 1_555
Na1 O10 2.799949 1_555
Na1 O0 2.800193 1_555
Na1 O53 2.837433 1_555
Na1 O17 2.844355 1_555
Na2 O52 2.456202 1_555
Na2 O68 2.493040 1_655
Na2 O66 2.686922 1_655
Na2 O51 2.739839 1_555
Na2 O30 2.805583 1_655
Na2 O11 2.807950 1_655
Na2 O1 2.810254 1_555
Na2 O15 2.815564 1_555
Na3 O49 2.434222 1_555
Na3 O71 2.534344 1_555
Na3 O69 2.558699 1_555
Na3 O50 2.653305 1_555
Na3 O14 2.694334 1_555
Na3 O35 2.822699 1_555
Na3 O4 2.925566 1_555
Na3 O6 2.956802 1_555
Na4 O50 2.459316 1_555
Na4 O48 2.575307 1_555
Na4 O69 2.624574 1_655
Na4 O70 2.662984 1_655
Na4 O12 2.674023 1_555
Na4 O33 2.834686 1_655
Na4 O5 2.884055 1_555
Na4 O7 2.956798 1_655
Na5 O48 2.416308 1_555
Na5 O49 2.569967 1_555
Na5 O70 2.625518 1_545
Na5 O71 2.662648 1_545
Na5 O13 2.674550 1_555
Na5 O3 2.835484 1_555
Na5 O34 2.841894 1_545
Na5 O8 3.016014 1_545
Na6 O43 2.398555 1_555
Na6 O64 2.487449 1_555
Na6 O65 2.488968 1_555
Na6 O7 2.654460 1_555
Na6 O42 2.668019 1_455
Na6 O28 2.824689 1_555
Na7 O44 2.407982 1_455
Na7 O63 2.551199 1_555
Na7 O29 2.584635 1_555
Na7 O65 2.622099 1_555
Na7 O43 2.657359 1_565
Na7 O8 2.767417 1_555
Na8 O42 2.404654 1_565
Na8 O63 2.548240 1_555
Na8 O64 2.577849 1_555
Na8 O27 2.610432 1_555
Na8 O44 2.642954 1_555
Na8 O6 2.777164 1_555
Na9 O45 2.501694 1_455
Na9 O47 2.513321 1_565
Na9 O61 2.590255 1_555
Na9 O11 2.645718 1_555
Na9 O26 2.661093 1_554
Na9 O62 2.712600 1_555
Na10 O60 2.395877 1_555
Na10 O45 2.427456 1_555
Na10 O9 2.517182 1_555
Na10 O46 2.696681 1_565
Na10 O62 2.711360 1_555
Na10 O24 2.943790 1_554
Na11 O47 2.438172 1_555
Na11 O10 2.475508 1_555
Na11 O61 2.515671 1_555
Na11 O46 2.585416 1_455
Na11 O60 2.634265 1_555
Na11 O25 2.791150 1_554
Na12 O40 2.430276 1_655
Na12 O55 2.444771 1_555
Na12 O4 2.607632 1_555
Na12 O19 2.669733 1_556
Na12 O41 2.677354 1_555
Na12 O54 2.739501 1_555
Na13 O5 2.361918 1_555
Na13 O56 2.451392 1_555
Na13 O39 2.451823 1_655
Na13 O55 2.582736 1_555
Na13 O41 2.620053 1_545
Na13 O20 2.951768 1_556
Na14 O40 2.502933 1_545
Na14 O39 2.516080 1_555
Na14 O3 2.606703 1_555
Na14 O18 2.637140 1_556
Na14 O54 2.637217 1_555
Na14 O56 2.638234 1_555
Na15 O37 2.376909 1_545
Na15 O59 2.437964 1_555
Na15 O2 2.531003 1_555
Na15 O57 2.589418 1_555
Na15 O38 2.715284 1_655
Na15 O23 2.825604 1_555
Na16 O57 2.437489 1_555
Na16 O36 2.574397 1_545
Na16 O38 2.593805 1_555
Na16 O0 2.661209 1_555
Na16 O58 2.722654 1_555
Na16 O21 2.810645 1_555
Na16 O31 2.924700 1_545
Na16 O29 3.025566 1_545
Na17 O36 2.432703 1_655
Na17 O58 2.564854 1_555
Na17 O59 2.625325 1_555
Na17 O37 2.654638 1_555
Na17 O1 2.689361 1_555
Na17 O22 2.751889 1_555
Na17 O27 2.971518 1_555
Na18 O44 2.449458 1_555
Na18 O42 2.541620 1_565
Na18 O43 2.576055 1_665
Na18 O36 2.584485 1_655
Na18 O37 2.672124 1_555
Na18 O38 2.809450 1_665
Na19 O40 2.455514 1_544
Na19 O47 2.488416 1_555
Na19 O45 2.563070 1_445
Na19 O39 2.612880 1_554
Na19 O46 2.776724 1_455
Na19 O41 2.824801 1_444
Na20 O56 2.455026 1_555
Na20 O55 2.492297 1_555
Na20 O48 2.508231 1_555
Na20 O50 2.573098 1_555
Na20 O49 2.634598 1_555
Na20 O54 2.753476 1_555
Na21 O57 2.494564 1_555
Na21 O59 2.504525 1_555
Na21 O52 2.556994 1_555
Na21 O58 2.638974 1_555
Na21 O53 2.651024 1_555
Na21 O51 2.685160 1_555
Na22 O60 2.439973 1_555
Na22 O68 2.471319 1_555
Na22 O61 2.474355 1_555
Na22 O67 2.618275 1_555
Na22 O66 2.619505 1_555
Na22 O62 2.760500 1_555
Na23 O69 2.496229 1_555
Na23 O71 2.509948 1_555
Na23 O64 2.542083 1_555
Na23 O70 2.560524 1_555
Na23 O63 2.565308 1_555
Na23 O65 2.566459 1_555
O0 Si0 1.622598 1_555
O0 Y0 2.223556 1_445
O1 Si1 1.622834 1_555
O1 Y0 2.154280 1_555
O2 Si2 1.629573 1_655
O2 Y0 2.211825 1_545
O3 Si3 1.624727 1_555
O3 Y1 2.132296 1_555
O4 Si4 1.617951 1_555
O4 Y1 2.176861 1_665
O5 Si5 1.624212 1_545
O5 Y1 2.193917 1_655
O6 Si5 1.683670 1_555
O6 Ti0 1.929229 1_565
O7 Si3 1.682553 1_555
O7 Ti0 1.948122 1_455
O8 Si4 1.667458 1_455
O8 Ti0 1.947775 1_465
O9 Si1 1.627246 1_555
O9 Y2 2.233002 1_665
O10 Si2 1.632770 1_555
O10 Y2 2.205574 1_555
O11 Si0 1.625066 1_565
O11 Y2 2.155923 1_565
O12 Si6 1.622120 1_555
O12 Ti1 1.910581 1_555
O13 Si7 1.633755 1_555
O13 Ti1 1.887473 1_555
O14 Si8 1.633735 1_555
O14 Ti1 1.885177 1_555
O15 Si9 1.668531 1_555
O15 Ti2 1.882896 1_555
O16 S0 1.476191 1_555
O16 Ti2 2.309643 1_555
O17 Si10 1.671525 1_555
O17 Ti2 1.890340 1_555
O18 Si10 1.630684 1_555
O18 Y3 2.142346 1_554
O19 Si9 1.626302 1_555
O19 Y3 2.143165 1_554
O20 S0 1.487932 1_555
O20 Y3 2.254630 1_554
O21 Si7 1.677625 1_555
O21 Ti3 1.919735 1_555
O22 Si8 1.682058 1_555
O22 Ti3 1.921915 1_555
O23 Si6 1.698331 1_555
O23 Ti3 1.832714 1_555
O24 S1 1.490412 1_555
O24 Y4 2.293015 1_556
O25 Si11 1.629844 1_555
O25 Y4 2.093403 1_556
O26 Si12 1.629551 1_555
O26 Y4 2.144751 1_556
O27 Si13 1.619477 1_555
O27 Y5 2.135520 1_555
O28 S2 1.479197 1_555
O28 Y5 2.301512 1_555
O29 Si14 1.619331 1_555
O29 Y5 2.142575 1_555
O30 Si14 1.679017 1_555
O30 Ti4 1.920556 1_555
O31 Si13 1.681919 1_555
O31 Ti4 1.933648 1_555
O32 S2 1.479126 1_555
O32 Ti4 2.357331 1_555
O33 Si11 1.689399 1_555
O33 Ti5 1.881555 1_555
O34 Si12 1.693213 1_555
O34 Ti5 1.873722 1_555
O35 S1 1.475491 1_555
O35 Ti5 2.374836 1_555
O36 Si14 1.635282 1_555
O36 Y0 2.255159 1_455
O37 Si13 1.630924 1_555
O37 Y0 2.221808 1_555
O38 S2 1.494460 1_555
O38 Y0 2.393890 1_445
O39 Si11 1.632193 1_555
O39 Y1 2.228871 1_555
O40 Si12 1.636091 1_555
O40 Y1 2.277418 1_565
O41 S1 1.482939 1_555
O41 Y1 2.411598 1_665
O42 Si6 1.646474 1_555
O42 Ti0 2.087216 1_555
O43 Si7 1.653549 1_555
O43 Ti0 2.118957 1_455
O44 Si8 1.654552 1_555
O44 Ti0 2.128500 1_565
O45 Si9 1.634926 1_555
O45 Y2 2.242952 1_665
O46 S0 1.483537 1_555
O46 Y2 2.404027 1_655
O47 Si10 1.634177 1_555
O47 Y2 2.237101 1_555
O48 Si5 1.643156 1_545
O48 Ti1 2.056811 1_555
O49 Si3 1.644164 1_555
O49 Ti1 2.005627 1_555
O50 Si4 1.630338 1_555
O50 Ti1 2.028159 1_555
O51 Si1 1.665070 1_555
O51 Ti2 1.869006 1_555
O52 Si2 1.651461 1_655
O52 Ti2 2.020777 1_555
O53 Si0 1.634423 1_555
O53 Ti2 1.991046 1_555
O54 S1 1.494072 1_555
O54 Y3 2.345703 1_555
O55 Si11 1.635259 1_655
O55 Y3 2.280664 1_555
O56 Si12 1.638097 1_545
O56 Y3 2.293822 1_555
O57 Si13 1.667818 1_545
O57 Ti3 2.090584 1_555
O58 S2 1.496246 1_555
O58 Ti3 2.457763 1_555
O59 Si14 1.667736 1_655
O59 Ti3 2.101187 1_555
O60 Si10 1.641976 1_555
O60 Y4 2.293851 1_555
O61 Si9 1.643685 1_455
O61 Y4 2.226448 1_555
O62 S0 1.486548 1_565
O62 Y4 2.399531 1_555
O63 Si7 1.636359 1_565
O63 Y5 2.226661 1_555
O64 Si8 1.632611 1_555
O64 Y5 2.290826 1_555
O65 Si6 1.623793 1_455
O65 Y5 2.275346 1_555
O66 Si0 1.666346 1_565
O66 Ti4 1.858801 1_555
O67 Si1 1.638104 1_555
O67 Ti4 1.994492 1_555
O68 Si2 1.652070 1_555
O68 Ti4 2.011177 1_555
O69 Si3 1.652099 1_555
O69 Ti5 2.092705 1_555
O70 Si4 1.680657 1_455
O70 Ti5 1.910140 1_555
O71 Si5 1.657447 1_555
O71 Ti5 2.072913 1_555
