# generated using pymatgen
data_Ba2YMgNi3O8
_symmetry_space_group_name_H-M   'P 1'
_cell_length_a   3.91847300
_cell_length_b   3.91760600
_cell_length_c   13.92820700
_cell_angle_alpha   90.00000823
_cell_angle_beta   90.00002285
_cell_angle_gamma   90.00001462
_symmetry_Int_Tables_number   1
_chemical_formula_structural   Ba2YMgNi3O8
_chemical_formula_sum   'Ba2 Y1 Mg1 Ni3 O8'
_cell_volume   213.81236996
_cell_formula_units_Z   1
loop_
 _symmetry_equiv_pos_site_id
 _symmetry_equiv_pos_as_xyz
  1  'x, y, z'
loop_
 _atom_site_type_symbol
 _atom_site_label
 _atom_site_symmetry_multiplicity
 _atom_site_fract_x
 _atom_site_fract_y
 _atom_site_fract_z
 _atom_site_occupancy
  Ba  Ba0  1  0.50000000  0.50000000  0.11507000  1
  Ba  Ba1  1  0.50000000  0.50000000  0.83372600  1
  Y  Y0  1  0.50000000  0.50000000  0.55147800  1
  Mg  Mg0  1  0.50000000  0.50000000  0.34505000  1
  Ni  Ni0  1  0.00000100  0.00000100  0.34996200  1
  Ni  Ni1  1  0.99999900  0.00000000  0.95885300  1
  Ni  Ni2  1  0.00000000  0.99999800  0.67077300  1
  O  O0  1  0.00000000  0.50000000  0.39165000  1
  O  O1  1  0.50000000  0.00000000  0.39167200  1
  O  O2  1  0.49999900  0.00000000  0.98256700  1
  O  O3  1  0.00000000  0.00000000  0.20715200  1
  O  O4  1  0.00000000  0.49999900  0.62562500  1
  O  O5  1  0.50000000  0.00000000  0.62568700  1
  O  O6  1  0.99999900  0.00000000  0.81262300  1
  O  O7  1  0.00000000  0.50000000  0.98255500  1
loop_
_geom_bond_atom_site_label_1
_geom_bond_atom_site_label_2
_geom_bond_distance
_geom_bond_site_symmetry_2
Ba0 O2 2.691261 1_554
Ba0 O2 2.691261 1_564
Ba0 O7 2.691691 1_554
Ba0 O7 2.691692 1_654
Ba0 O3 3.052935 1_665
Ba0 O3 3.052936 1_655
Ba0 O3 3.052936 1_555
Ba0 O3 3.052937 1_565
Ba1 O6 2.786017 1_565
Ba1 O6 2.786018 1_555
Ba1 O6 2.786023 1_455
Ba1 O6 2.786023 1_465
Ba1 O2 2.852123 1_565
Ba1 O2 2.852123 1_555
Ba1 O7 2.852298 1_655
Ba1 O7 2.852300 1_555
Mg0 O1 2.063632 1_565
Mg0 O1 2.063632 1_555
Mg0 O0 2.063947 1_655
Mg0 O0 2.063948 1_555
Ni0 O3 1.989087 1_555
Ni0 O0 2.043046 1_555
Ni0 O0 2.043053 1_545
Ni0 O1 2.043548 1_555
Ni0 O1 2.043556 1_455
Ni1 O7 1.986427 1_655
Ni1 O7 1.986427 1_645
Ni1 O2 1.986882 1_655
Ni1 O2 1.986882 1_555
Ni1 O6 2.036722 1_555
Ni2 O6 1.975716 1_465
Ni2 O4 2.057261 1_555
Ni2 O4 2.057268 1_565
Ni2 O5 2.057413 1_465
Ni2 O5 2.057414 1_565
O4 Y0 2.214757 1_455
O4 Y0 2.214757 1_555
O5 Y0 2.214776 1_545
O5 Y0 2.214777 1_555
