# generated using pymatgen
data_NaSc4PS5O24
_symmetry_space_group_name_H-M   'P 1'
_cell_length_a   8.85523429
_cell_length_b   8.85387000
_cell_length_c   22.97442307
_cell_angle_alpha   89.96392495
_cell_angle_beta   90.06825343
_cell_angle_gamma   119.93590981
_symmetry_Int_Tables_number   1
_chemical_formula_structural   NaSc4PS5O24
_chemical_formula_sum   'Na3 Sc12 P3 S15 O72'
_cell_volume   1560.94731930
_cell_formula_units_Z   3
loop_
 _symmetry_equiv_pos_site_id
 _symmetry_equiv_pos_as_xyz
  1  'x, y, z'
loop_
 _atom_site_type_symbol
 _atom_site_label
 _atom_site_symmetry_multiplicity
 _atom_site_fract_x
 _atom_site_fract_y
 _atom_site_fract_z
 _atom_site_occupancy
  Na  Na0  1  0.99958809  0.99670869  0.99870873  1
  Na  Na1  1  0.66344358  0.33279002  0.83568754  1
  Na  Na2  1  0.66912950  0.33285511  0.33183059  1
  Sc  Sc0  1  0.99782617  0.00639243  0.35234294  1
  Sc  Sc1  1  0.99954791  0.99307142  0.85628756  1
  Sc  Sc2  1  0.00035584  0.00053311  0.64647664  1
  Sc  Sc3  1  0.00217991  0.00850830  0.14854836  1
  Sc  Sc4  1  0.66621800  0.33327544  0.68622771  1
  Sc  Sc5  1  0.67373509  0.33351087  0.18538253  1
  Sc  Sc6  1  0.65945074  0.33330303  0.97810940  1
  Sc  Sc7  1  0.66700727  0.33329638  0.48167667  1
  Sc  Sc8  1  0.33994083  0.67519953  0.01841710  1
  Sc  Sc9  1  0.33343346  0.66715182  0.52139809  1
  Sc  Sc10  1  0.32723247  0.66021650  0.30880665  1
  Sc  Sc11  1  0.34205621  0.67348016  0.81596310  1
  P  P0  1  0.99864287  0.28982810  0.25022660  1
  P  P1  1  0.62310708  0.66668268  0.91680767  1
  P  P2  1  0.33408433  0.95681255  0.91673326  1
  S  S0  1  0.29049703  0.00057769  0.25032882  1
  S  S1  1  0.70977676  0.70966934  0.25025373  1
  S  S2  1  0.28970808  0.29119122  0.75003732  1
  S  S3  1  0.00120248  0.70918430  0.74973307  1
  S  S4  1  0.70991660  0.99982394  0.74989443  1
  S  S5  1  0.95727016  0.33337031  0.58341876  1
  S  S6  1  0.37602855  0.04293388  0.58334641  1
  S  S7  1  0.66692029  0.62405197  0.58335147  1
  S  S8  1  0.95866377  0.62482568  0.08294727  1
  S  S9  1  0.66643835  0.04252686  0.08297626  1
  S  S10  1  0.37605211  0.33468939  0.08353193  1
  S  S11  1  0.04349203  0.37704576  0.91668197  1
  S  S12  1  0.62257670  0.95589582  0.41644462  1
  S  S13  1  0.33347019  0.37669358  0.41667575  1
  S  S14  1  0.04336298  0.66772748  0.41655635  1
  O  O0  1  0.21044743  0.02967890  0.30272133  1
  O  O1  1  0.81995585  0.78823817  0.30270018  1
  O  O2  1  0.96878747  0.17432452  0.30441204  1
  O  O3  1  0.21113148  0.17990277  0.80178599  1
  O  O4  1  0.96785245  0.78775651  0.80152300  1
  O  O5  1  0.82045018  0.03215548  0.80178771  1
  O  O6  1  0.79218087  0.97417001  0.69723630  1
  O  O7  1  0.18202903  0.20758775  0.69720927  1
  O  O8  1  0.02588566  0.81780131  0.69727983  1
  O  O9  1  0.78973672  0.81698917  0.19794437  1
  O  O10  1  0.02839551  0.20471856  0.19636585  1
  O  O11  1  0.18221540  0.97092589  0.19795407  1
  O  O12  1  0.87595802  0.36312307  0.63520796  1
  O  O13  1  0.48719758  0.12404297  0.63520735  1
  O  O14  1  0.63710803  0.51291645  0.63519976  1
  O  O15  1  0.87540588  0.51603914  0.13566608  1
  O  O16  1  0.63973844  0.12395382  0.13561800  1
  O  O17  1  0.48428136  0.35948591  0.13590952  1
  O  O18  1  0.45536346  0.30215557  0.03152079  1
  O  O19  1  0.84659435  0.54345856  0.03124573  1
  O  O20  1  0.69810303  0.15373880  0.03124790  1
  O  O21  1  0.45744225  0.15356804  0.53125834  1
  O  O22  1  0.69589480  0.54240290  0.53126779  1
  O  O23  1  0.84650231  0.30404940  0.53126772  1
  O  O24  1  0.53996637  0.69582439  0.97116917  1
  O  O25  1  0.15019836  0.45400628  0.96926897  1
  O  O26  1  0.30188332  0.84329539  0.97109951  1
  O  O27  1  0.54170970  0.84867719  0.46919458  1
  O  O28  1  0.30661991  0.45784491  0.46913334  1
  O  O29  1  0.15118329  0.69306304  0.46916578  1
  O  O30  1  0.12245968  0.63580849  0.36469323  1
  O  O31  1  0.51308073  0.87734153  0.36446632  1
  O  O32  1  0.36515877  0.48705292  0.36471493  1
  O  O33  1  0.12069771  0.48338200  0.86383121  1
  O  O34  1  0.36209258  0.87341428  0.86195851  1
  O  O35  1  0.51038670  0.63532598  0.86201967  1
  O  O36  1  0.02383776  0.82141961  0.40834484  1
  O  O37  1  0.79638328  0.97461628  0.40914985  1
  O  O38  1  0.17979470  0.20272013  0.40885602  1
  O  O39  1  0.02410805  0.20128958  0.90941501  1
  O  O40  1  0.17196293  0.97865274  0.90903433  1
  O  O41  1  0.80542681  0.83033128  0.90901592  1
  O  O42  1  0.97508589  0.17804887  0.59200547  1
  O  O43  1  0.20297470  0.02496443  0.59195795  1
  O  O44  1  0.82190183  0.79699472  0.59202640  1
  O  O45  1  0.97524029  0.79963608  0.09106923  1
  O  O46  1  0.82369853  0.02361790  0.09055241  1
  O  O47  1  0.20086291  0.17466856  0.09032019  1
  O  O48  1  0.69143995  0.15800095  0.74183543  1
  O  O49  1  0.46612360  0.30843433  0.74185477  1
  O  O50  1  0.84180938  0.53353489  0.74184397  1
  O  O51  1  0.68978812  0.53336095  0.24322799  1
  O  O52  1  0.83547958  0.30984526  0.24280360  1
  O  O53  1  0.46556139  0.15788690  0.24316068  1
  O  O54  1  0.64547592  0.50486127  0.92389287  1
  O  O55  1  0.86768496  0.35731487  0.92355661  1
  O  O56  1  0.49743690  0.13933669  0.92398694  1
  O  O57  1  0.64231988  0.13304085  0.42439979  1
  O  O58  1  0.49119967  0.35781397  0.42438679  1
  O  O59  1  0.86709963  0.50908844  0.42437082  1
  O  O60  1  0.35606304  0.48709681  0.07538183  1
  O  O61  1  0.12995789  0.64090650  0.07562401  1
  O  O62  1  0.51219969  0.87011249  0.07623810  1
  O  O63  1  0.35850316  0.87001164  0.57433035  1
  O  O64  1  0.51153715  0.64159799  0.57427062  1
  O  O65  1  0.13001484  0.48843900  0.57432053  1
  O  O66  1  0.30999832  0.84660113  0.25891633  1
  O  O67  1  0.53745892  0.69246742  0.25891887  1
  O  O68  1  0.15968094  0.46918424  0.26013914  1
  O  O69  1  0.30815745  0.46344129  0.75723433  1
  O  O70  1  0.15369273  0.68921335  0.75748284  1
  O  O71  1  0.53692310  0.84607116  0.75667975  1
loop_
_geom_bond_atom_site_label_1
_geom_bond_atom_site_label_2
_geom_bond_distance
_geom_bond_site_symmetry_2
Na0 O41 2.615322 1_555
Na0 O40 2.617530 1_655
Na0 O39 2.672163 1_665
Na0 O45 2.685991 1_556
Na0 O47 2.698437 1_666
Na0 O46 2.704416 1_566
Na1 O54 2.588341 1_555
Na1 O56 2.588390 1_555
Na1 O55 2.644506 1_555
Na1 O49 2.713380 1_555
Na1 O48 2.737515 1_555
Na1 O50 2.739259 1_555
Na2 O52 2.588840 1_555
Na2 O51 2.645909 1_555
Na2 O53 2.647148 1_555
Na2 O57 2.699336 1_555
Na2 O59 2.700605 1_555
Na2 O58 2.721975 1_555
O0 S0 1.484063 1_555
O0 Sc0 2.122388 1_455
O1 S1 1.486116 1_555
O1 Sc0 2.115299 1_565
O2 P0 1.547507 1_555
O2 Sc0 1.966802 1_555
O3 S2 1.478083 1_555
O3 Sc1 2.173548 1_445
O4 S3 1.481157 1_655
O4 Sc1 2.111665 1_555
O5 S4 1.476273 1_545
O5 Sc1 2.178353 1_545
O6 S4 1.487763 1_555
O6 Sc2 2.094764 1_665
O7 S2 1.491344 1_555
O7 Sc2 2.088558 1_555
O8 S3 1.488021 1_555
O8 Sc2 2.095947 1_565
O9 S1 1.475666 1_555
O9 Sc3 2.126294 1_665
O10 P0 1.539012 1_455
O10 Sc3 1.969262 1_555
O11 S0 1.477370 1_565
O11 Sc3 2.113156 1_565
O12 S5 1.481649 1_555
O12 Sc4 2.099583 1_555
O13 S6 1.482271 1_555
O13 Sc4 2.094307 1_555
O14 S7 1.482174 1_555
O14 Sc4 2.092058 1_555
O15 S8 1.493373 1_555
O15 Sc5 2.056125 1_555
O16 S9 1.486690 1_555
O16 Sc5 2.069937 1_555
O17 S10 1.484029 1_555
O17 Sc5 2.130615 1_555
O18 S10 1.486075 1_555
O18 Sc6 2.086951 1_554
O19 S8 1.483061 1_555
O19 Sc6 2.149245 1_554
O20 S9 1.477936 1_555
O20 Sc6 2.162134 1_554
O21 S6 1.485626 1_555
O21 Sc7 2.080630 1_555
O22 S7 1.485667 1_555
O22 Sc7 2.078575 1_555
O23 S5 1.486101 1_555
O23 Sc7 2.073076 1_555
O24 P1 1.536427 1_555
O24 Sc8 2.007625 1_556
O25 S11 1.473942 1_555
O25 Sc8 2.155824 1_556
O26 P2 1.537785 1_555
O26 Sc8 2.002016 1_556
O27 S12 1.484861 1_555
O27 Sc9 2.113639 1_555
O28 S13 1.482404 1_555
O28 Sc9 2.120237 1_555
O29 S14 1.485474 1_555
O29 Sc9 2.112294 1_555
O30 S14 1.479919 1_555
O30 Sc10 2.144166 1_555
O31 S12 1.474838 1_555
O31 Sc10 2.209005 1_555
O32 S13 1.477918 1_555
O32 Sc10 2.150265 1_555
O33 S11 1.478595 1_555
O33 Sc11 2.143500 1_555
O34 P2 1.541122 1_555
O34 Sc11 1.992523 1_555
O35 P1 1.542290 1_555
O35 Sc11 1.988469 1_555
O36 S14 1.466834 1_555
O36 Sc0 2.182592 1_465
O37 S12 1.473212 1_555
O37 Sc0 2.113924 1_565
O38 S13 1.471213 1_555
O38 Sc0 2.122758 1_455
O39 S11 1.487455 1_555
O39 Sc1 2.130202 1_445
O40 P2 1.551165 1_555
O40 Sc1 2.001448 1_455
O41 P1 1.550359 1_555
O41 Sc1 2.007302 1_555
O42 S5 1.473461 1_555
O42 Sc2 2.105779 1_655
O43 S6 1.473143 1_555
O43 Sc2 2.110112 1_555
O44 S7 1.473154 1_555
O44 Sc2 2.113185 1_665
O45 S8 1.491790 1_555
O45 Sc3 2.186958 1_665
O46 S9 1.493207 1_555
O46 Sc3 2.120612 1_655
O47 S10 1.498308 1_555
O47 Sc3 2.114038 1_555
O48 S4 1.500229 1_545
O48 Sc4 2.105480 1_555
O49 S2 1.503910 1_555
O49 Sc4 2.106493 1_555
O50 S3 1.500859 1_655
O50 Sc4 2.107288 1_555
O51 S1 1.489504 1_555
O51 Sc5 2.160733 1_555
O52 P0 1.550171 1_555
O52 Sc5 2.032327 1_555
O53 S0 1.488480 1_555
O53 Sc5 2.172668 1_555
O54 P1 1.549636 1_555
O54 Sc6 2.014670 1_555
O55 S11 1.486015 1_655
O55 Sc6 2.151770 1_555
O56 P2 1.548694 1_545
O56 Sc6 2.023137 1_555
O57 S12 1.500172 1_545
O57 Sc7 2.130363 1_555
O58 S13 1.497525 1_555
O58 Sc7 2.129610 1_555
O59 S14 1.501194 1_655
O59 Sc7 2.132108 1_555
O60 S10 1.457825 1_555
O60 Sc8 2.177374 1_555
O61 S8 1.460973 1_455
O61 Sc8 2.172314 1_555
O62 S9 1.462395 1_565
O62 Sc8 2.107220 1_555
O63 S6 1.474526 1_565
O63 Sc9 2.087644 1_555
O64 S7 1.474288 1_555
O64 Sc9 2.089343 1_555
O65 S5 1.474088 1_455
O65 Sc9 2.094001 1_555
O66 S0 1.470323 1_565
O66 Sc10 2.075782 1_555
O67 S1 1.469686 1_555
O67 Sc10 2.082037 1_555
O68 P0 1.531893 1_455
O68 Sc10 1.950920 1_555
O69 S2 1.459958 1_555
O69 Sc11 2.194078 1_555
O70 S3 1.457418 1_555
O70 Sc11 2.198429 1_555
O71 S4 1.463943 1_555
O71 Sc11 2.130496 1_555
