# generated using pymatgen
data_Na5CaTi3SiP5O24
_symmetry_space_group_name_H-M   'P 1'
_cell_length_a   8.97079255
_cell_length_b   8.92121170
_cell_length_c   22.13900161
_cell_angle_alpha   89.83742240
_cell_angle_beta   90.25412152
_cell_angle_gamma   119.94581716
_symmetry_Int_Tables_number   1
_chemical_formula_structural   Na5CaTi3SiP5O24
_chemical_formula_sum   'Na15 Ca3 Ti9 Si3 P15 O72'
_cell_volume   1535.23830146
_cell_formula_units_Z   3
loop_
 _symmetry_equiv_pos_site_id
 _symmetry_equiv_pos_as_xyz
  1  'x, y, z'
loop_
 _atom_site_type_symbol
 _atom_site_label
 _atom_site_symmetry_multiplicity
 _atom_site_fract_x
 _atom_site_fract_y
 _atom_site_fract_z
 _atom_site_occupancy
  Na  Na0  1  0.64956421  0.01443993  0.24357215  1
  Na  Na1  1  0.36499255  0.35133602  0.24219436  1
  Na  Na2  1  0.98747793  0.64118401  0.24301932  1
  Na  Na3  1  0.62646603  0.62191914  0.74596595  1
  Na  Na4  1  0.99290053  0.37308889  0.74695899  1
  Na  Na5  1  0.38609570  0.00930227  0.74547408  1
  Na  Na6  1  0.66020082  0.97726052  0.58489579  1
  Na  Na7  1  0.33174484  0.29646468  0.92495412  1
  Na  Na8  1  0.32633372  0.03381853  0.41188823  1
  Na  Na9  1  0.99499151  0.99994272  0.49854349  1
  Na  Na10  1  0.98464426  0.98595195  0.00232629  1
  Na  Na11  1  0.67776184  0.33154584  0.84060482  1
  Na  Na12  1  0.68629684  0.35050620  0.33282881  1
  Na  Na13  1  0.33356977  0.66880389  0.15625437  1
  Na  Na14  1  0.31550111  0.65630419  0.66084661  1
  Ca  Ca0  1  0.99039129  0.99866845  0.35894888  1
  Ca  Ca1  1  0.66957451  0.33558033  0.67967295  1
  Ca  Ca2  1  0.66769924  0.33436134  0.16830884  1
  Ti  Ti0  1  0.99106069  0.99398192  0.86016890  1
  Ti  Ti1  1  0.01087711  0.00130901  0.64278869  1
  Ti  Ti2  1  0.99828821  0.00298455  0.14421479  1
  Ti  Ti3  1  0.68231287  0.34189676  0.98498884  1
  Ti  Ti4  1  0.66352362  0.33775787  0.48541994  1
  Ti  Ti5  1  0.33654878  0.66307904  0.01475158  1
  Ti  Ti6  1  0.32714955  0.66197761  0.51921191  1
  Ti  Ti7  1  0.33300983  0.66356067  0.31419483  1
  Ti  Ti8  1  0.32948111  0.66252039  0.81839593  1
  Si  Si0  1  0.36430925  0.02899729  0.58445441  1
  Si  Si1  1  0.62449897  0.66119666  0.91669488  1
  Si  Si2  1  0.03654509  0.37634348  0.91568780  1
  P  P0  1  0.29069697  0.99329330  0.25244337  1
  P  P1  1  0.70151686  0.70870204  0.24912521  1
  P  P2  1  0.00734486  0.29991708  0.24888293  1
  P  P3  1  0.27764435  0.28830391  0.75288111  1
  P  P4  1  0.01144427  0.72474626  0.75208290  1
  P  P5  1  0.71189042  0.99062929  0.75131716  1
  P  P6  1  0.97027137  0.33371024  0.58490962  1
  P  P7  1  0.66747303  0.63806571  0.58488233  1
  P  P8  1  0.97980191  0.64476432  0.08336858  1
  P  P9  1  0.66467553  0.02493558  0.08373391  1
  P  P10  1  0.35576991  0.33172582  0.08218234  1
  P  P11  1  0.33718758  0.95853167  0.91559898  1
  P  P12  1  0.61261210  0.96171482  0.42032615  1
  P  P13  1  0.35587572  0.39051161  0.41886375  1
  P  P14  1  0.03755812  0.64435095  0.41786892  1
  O  O0  1  0.22366664  0.01909307  0.31227236  1
  O  O1  1  0.80665951  0.77856698  0.30613367  1
  O  O2  1  0.97719464  0.19543416  0.30581342  1
  O  O3  1  0.18793856  0.18872511  0.81043511  1
  O  O4  1  0.00607771  0.82407272  0.80764074  1
  O  O5  1  0.82324505  0.99614639  0.80601835  1
  O  O6  1  0.79497849  0.97645851  0.69181995  1
  O  O7  1  0.16751204  0.18988390  0.69597032  1
  O  O8  1  0.01843873  0.82864844  0.69387430  1
  O  O9  1  0.79928989  0.83036113  0.19380428  1
  O  O10  1  0.02559244  0.19947703  0.19314083  1
  O  O11  1  0.16513910  0.97405549  0.19899041  1
  O  O12  1  0.92189280  0.37363841  0.64627828  1
  O  O13  1  0.47494009  0.08229536  0.64559960  1
  O  O14  1  0.63479490  0.54928351  0.64595210  1
  O  O15  1  0.92733364  0.55649744  0.14436757  1
  O  O16  1  0.63576499  0.07704100  0.14576245  1
  O  O17  1  0.44311348  0.36159151  0.14326890  1
  O  O18  1  0.45993932  0.31061748  0.02975988  1
  O  O19  1  0.83978086  0.52708178  0.03393618  1
  O  O20  1  0.68495234  0.16390679  0.03499389  1
  O  O21  1  0.47725173  0.16813889  0.52878008  1
  O  O22  1  0.68911166  0.52894031  0.53382724  1
  O  O23  1  0.83280921  0.30936081  0.53586204  1
  O  O24  1  0.52540904  0.69097089  0.97159424  1
  O  O25  1  0.17551081  0.47701529  0.96811617  1
  O  O26  1  0.30987780  0.83973326  0.96861374  1
  O  O27  1  0.50571331  0.85933043  0.47549140  1
  O  O28  1  0.35512882  0.49835827  0.47197583  1
  O  O29  1  0.15019907  0.64418386  0.47060693  1
  O  O30  1  0.13010314  0.63629777  0.35783710  1
  O  O31  1  0.50457832  0.86303133  0.36153042  1
  O  O32  1  0.35812968  0.48667569  0.35829380  1
  O  O33  1  0.12536046  0.49484463  0.85308730  1
  O  O34  1  0.35763943  0.87011863  0.85620526  1
  O  O35  1  0.49669354  0.63061843  0.85623328  1
  O  O36  1  0.03582508  0.81403949  0.42152424  1
  O  O37  1  0.78881334  0.97967324  0.42413805  1
  O  O38  1  0.20284909  0.20714174  0.42199991  1
  O  O39  1  0.02244821  0.18532426  0.90948568  1
  O  O40  1  0.17720144  0.98446049  0.90992670  1
  O  O41  1  0.81775841  0.82914437  0.90944471  1
  O  O42  1  0.96474230  0.15556390  0.58684508  1
  O  O43  1  0.17894699  0.02507525  0.58975862  1
  O  O44  1  0.83471459  0.81876133  0.58587650  1
  O  O45  1  0.98197112  0.82030781  0.08543244  1
  O  O46  1  0.83526953  0.01706098  0.08472242  1
  O  O47  1  0.17487743  0.16245637  0.08570694  1
  O  O48  1  0.69769822  0.15554030  0.75456270  1
  O  O49  1  0.45869503  0.31005725  0.75086991  1
  O  O50  1  0.85051727  0.54426156  0.75234689  1
  O  O51  1  0.66534302  0.52349679  0.24038471  1
  O  O52  1  0.85914230  0.33658516  0.24137589  1
  O  O53  1  0.47378359  0.14382056  0.24326148  1
  O  O54  1  0.63485655  0.48455496  0.92522885  1
  O  O55  1  0.84702254  0.35389340  0.92737156  1
  O  O56  1  0.49582941  0.14039714  0.92131773  1
  O  O57  1  0.62049790  0.14067700  0.42037886  1
  O  O58  1  0.52460209  0.37900230  0.42149600  1
  O  O59  1  0.85817290  0.48267148  0.42243751  1
  O  O60  1  0.32871098  0.48848306  0.07087069  1
  O  O61  1  0.15634971  0.67112435  0.06699167  1
  O  O62  1  0.51017904  0.84710882  0.06896494  1
  O  O63  1  0.32566605  0.83184731  0.57122515  1
  O  O64  1  0.51702872  0.67302723  0.57300857  1
  O  O65  1  0.15530497  0.47571717  0.57083048  1
  O  O66  1  0.29432188  0.81707015  0.25423302  1
  O  O67  1  0.52419502  0.70754414  0.25407337  1
  O  O68  1  0.18453466  0.47681850  0.25241905  1
  O  O69  1  0.29130896  0.47137389  0.75142270  1
  O  O70  1  0.17835907  0.71076436  0.75144991  1
  O  O71  1  0.52845957  0.82603939  0.75469883  1
loop_
_geom_bond_atom_site_label_1
_geom_bond_atom_site_label_2
_geom_bond_distance
_geom_bond_site_symmetry_2
Na0 O16 2.252997 1_555
Na0 O53 2.373997 1_555
Na0 O67 2.395720 1_545
Na0 O52 2.530252 1_555
Na0 O66 2.777413 1_545
Na0 O9 2.817876 1_545
Na0 O2 2.895352 1_555
Na0 O31 2.931238 1_545
Na1 O17 2.290099 1_555
Na1 O51 2.342940 1_555
Na1 O68 2.395631 1_555
Na1 O53 2.486691 1_555
Na1 O67 2.770865 1_555
Na2 O15 2.285591 1_555
Na2 O52 2.363858 1_555
Na2 O66 2.405156 1_655
Na2 O51 2.535049 1_555
Na2 O11 2.753379 1_655
Na2 O68 2.810926 1_655
Na2 O1 2.846112 1_555
Na2 O30 2.850726 1_655
Na3 O14 2.320806 1_555
Na3 O71 2.393387 1_555
Na3 O49 2.415944 1_555
Na3 O50 2.434504 1_555
Na3 O69 2.613243 1_555
Na3 O35 2.727138 1_555
Na4 O12 2.316151 1_555
Na4 O69 2.366320 1_655
Na4 O48 2.383043 1_555
Na4 O50 2.434612 1_555
Na4 O33 2.610261 1_655
Na4 O70 2.617132 1_655
Na5 O13 2.331873 1_555
Na5 O70 2.372487 1_545
Na5 O49 2.427758 1_555
Na5 O48 2.431458 1_555
Na5 O71 2.534972 1_545
Na5 O34 2.699726 1_545
Na6 O64 2.367738 1_555
Na6 O42 2.378359 1_565
Na6 O44 2.580759 1_555
Na6 O63 2.624529 1_555
Na6 O13 2.651019 1_565
Na6 O6 2.654928 1_555
Na6 O27 2.724543 1_555
Na6 O23 2.787556 1_565
Na7 O54 2.377847 1_555
Na7 O40 2.434937 1_545
Na7 O39 2.458841 1_555
Na7 O56 2.481829 1_555
Na7 O18 2.560323 1_556
Na7 O25 2.783218 1_555
Na7 O3 2.786199 1_555
Na8 O38 2.319992 1_555
Na8 O57 2.322265 1_555
Na8 O36 2.362781 1_545
Na8 O0 2.364765 1_555
Na8 O58 2.687740 1_555
Na9 O37 2.409954 1_555
Na9 O44 2.470813 1_555
Na9 O42 2.493790 1_565
Na9 O38 2.516856 1_665
Na9 O36 2.533836 1_655
Na9 O43 2.540700 1_665
Na10 O45 2.349272 1_555
Na10 O46 2.365603 1_565
Na10 O47 2.470854 1_665
Na10 O41 2.514914 1_554
Na10 O39 2.624209 1_664
Na10 O40 2.687587 1_654
Na11 O55 2.389422 1_555
Na11 O56 2.448401 1_555
Na11 O54 2.463098 1_555
Na11 O48 2.535036 1_555
Na11 O50 2.624980 1_555
Na11 O49 2.727073 1_555
Na12 O59 2.423708 1_555
Na12 O58 2.533433 1_555
Na12 O57 2.548698 1_555
Na12 O52 2.596248 1_555
Na12 O51 2.621832 1_555
Na12 O53 2.728390 1_555
Na13 O60 2.471749 1_555
Na13 O62 2.503722 1_555
Na13 O61 2.537317 1_555
Na13 O68 2.640452 1_555
Na13 O66 2.658336 1_555
Na13 O67 2.667394 1_555
Na14 O63 2.497803 1_555
Na14 O65 2.512692 1_555
Na14 O70 2.529287 1_555
Na14 O69 2.533310 1_555
Na14 O64 2.613913 1_555
Na14 O71 2.711896 1_555
Ca0 O2 2.161887 1_565
Ca0 O1 2.168937 1_555
Ca0 O37 2.257750 1_555
Ca0 O0 2.262241 1_665
Ca0 O36 2.334648 1_655
Ca0 O38 2.343555 1_665
Ca1 O13 2.186916 1_555
Ca1 O14 2.207508 1_555
Ca1 O12 2.243091 1_555
Ca1 O50 2.380379 1_555
Ca1 O49 2.389447 1_555
Ca1 O48 2.403768 1_555
Ca2 O17 2.214350 1_555
Ca2 O16 2.224797 1_555
Ca2 O15 2.242736 1_555
Ca2 O51 2.333429 1_555
Ca2 O52 2.346934 1_555
Ca2 O53 2.393027 1_555
O0 P0 1.521831 1_545
O1 P1 1.509315 1_555
O2 P2 1.508383 1_655
O3 P3 1.532738 1_555
O3 Ti0 2.071953 1_445
O4 P4 1.532873 1_555
O4 Ti0 1.970642 1_455
O5 P5 1.551585 1_555
O5 Ti0 1.927905 1_555
O6 P5 1.552521 1_555
O6 Ti1 2.137101 1_665
O7 P3 1.569612 1_555
O7 Ti1 1.956374 1_555
O8 P4 1.568347 1_555
O8 Ti1 1.936525 1_565
O9 P1 1.580786 1_555
O9 Ti2 2.006710 1_565
O10 P2 1.583396 1_555
O10 Ti2 1.971257 1_455
O11 P0 1.579521 1_555
O11 Ti2 2.036011 1_465
O12 P6 1.524288 1_555
O13 Si0 1.601292 1_555
O14 P7 1.518839 1_555
O15 P8 1.514900 1_555
O16 P9 1.515355 1_555
O17 P10 1.515956 1_555
O18 P10 1.562758 1_555
O18 Ti3 2.121327 1_554
O19 P8 1.598573 1_555
O19 Ti3 1.888326 1_554
O20 P9 1.582256 1_555
O20 Ti3 1.942899 1_554
O21 Si0 1.683275 1_555
O21 Ti4 1.866845 1_555
O22 P7 1.568407 1_555
O22 Ti4 1.930682 1_555
O23 P6 1.571293 1_555
O23 Ti4 1.996234 1_555
O24 Si1 1.607827 1_555
O24 Ti5 1.854009 1_556
O25 Si2 1.607249 1_555
O25 Ti5 1.873691 1_556
O26 P11 1.515611 1_555
O26 Ti5 1.987315 1_556
O27 P12 1.541125 1_555
O27 Ti6 1.947067 1_555
O28 P13 1.523572 1_555
O28 Ti6 1.914171 1_555
O29 P14 1.541204 1_555
O29 Ti6 1.853957 1_555
O30 P14 1.590796 1_555
O30 Ti7 1.969320 1_555
O31 P12 1.597553 1_555
O31 Ti7 1.973742 1_555
O32 P13 1.584602 1_555
O32 Ti7 1.959197 1_555
O33 Si2 1.683370 1_555
O33 Ti8 1.857912 1_555
O34 P11 1.592890 1_555
O34 Ti8 1.932446 1_555
O35 Si1 1.690226 1_555
O35 Ti8 1.856478 1_555
O36 P14 1.524030 1_555
O37 P12 1.509092 1_555
O38 P13 1.524342 1_555
O39 Si2 1.650728 1_555
O39 Ti0 1.926973 1_445
O40 P11 1.568044 1_555
O40 Ti0 2.033176 1_455
O41 Si1 1.638327 1_555
O41 Ti0 1.868974 1_555
O42 P6 1.565581 1_555
O42 Ti1 2.037990 1_655
O43 Si0 1.650362 1_555
O43 Ti1 1.841648 1_555
O44 P7 1.560558 1_555
O44 Ti1 2.040023 1_665
O45 P8 1.557237 1_555
O45 Ti2 2.035467 1_565
O46 P9 1.566670 1_555
O46 Ti2 2.013575 1_555
O47 P10 1.572814 1_555
O47 Ti2 1.992249 1_455
O48 P5 1.540617 1_545
O49 P3 1.537361 1_555
O50 P4 1.534945 1_655
O51 P1 1.529269 1_555
O52 P2 1.527781 1_655
O53 P0 1.530253 1_545
O54 Si1 1.634624 1_555
O54 Ti3 2.019339 1_555
O55 Si2 1.631332 1_655
O55 Ti3 1.918301 1_555
O56 P11 1.538863 1_545
O56 Ti3 2.237902 1_555
O57 P12 1.562453 1_545
O57 Ti4 2.155368 1_555
O58 P13 1.568213 1_555
O58 Ti4 2.032368 1_555
O59 P14 1.537401 1_655
O59 Ti4 2.102927 1_555
O60 P10 1.553615 1_555
O60 Ti5 1.963454 1_555
O61 P8 1.525736 1_455
O61 Ti5 2.022078 1_555
O62 P9 1.532432 1_565
O62 Ti5 2.000911 1_555
O63 Si0 1.640945 1_565
O63 Ti6 1.911262 1_555
O64 P7 1.550630 1_555
O64 Ti6 2.035854 1_555
O65 P6 1.536326 1_455
O65 Ti6 1.972567 1_555
O66 P0 1.588986 1_555
O66 Ti7 2.053853 1_555
O67 P1 1.589850 1_555
O67 Ti7 2.052444 1_555
O68 P2 1.586987 1_555
O68 Ti7 2.049738 1_555
O69 P3 1.575847 1_555
O69 Ti8 2.156499 1_555
O70 P4 1.563490 1_555
O70 Ti8 2.186521 1_555
O71 P5 1.567677 1_555
O71 Ti8 2.171151 1_555
