# generated using pymatgen
data_Eu2Si2O7
_symmetry_space_group_name_H-M   'P 1'
_cell_length_a   5.14590700
_cell_length_b   8.46903100
_cell_length_c   14.20124900
_cell_angle_alpha   90.00000000
_cell_angle_beta   90.00000000
_cell_angle_gamma   90.00000000
_symmetry_Int_Tables_number   1
_chemical_formula_structural   Eu2Si2O7
_chemical_formula_sum   'Eu8 Si8 O28'
_cell_volume   618.90244434
_cell_formula_units_Z   4
loop_
 _symmetry_equiv_pos_site_id
 _symmetry_equiv_pos_as_xyz
  1  'x, y, z'
loop_
 _atom_site_type_symbol
 _atom_site_label
 _atom_site_symmetry_multiplicity
 _atom_site_fract_x
 _atom_site_fract_y
 _atom_site_fract_z
 _atom_site_occupancy
  Eu  Eu0  1  0.84112000  0.00528000  0.12578900  1
  Eu  Eu1  1  0.15888000  0.50528000  0.87421100  1
  Eu  Eu2  1  0.65888000  0.00528000  0.62578900  1
  Eu  Eu3  1  0.34112000  0.50528000  0.37421100  1
  Eu  Eu4  1  0.84112000  0.49472000  0.12578900  1
  Eu  Eu5  1  0.15888000  0.99472000  0.87421100  1
  Eu  Eu6  1  0.65888000  0.49472000  0.62578900  1
  Eu  Eu7  1  0.34112000  0.99472000  0.37421100  1
  Si  Si0  1  0.12267300  0.75000000  0.53664700  1
  Si  Si1  1  0.87732700  0.25000000  0.46335300  1
  Si  Si2  1  0.37732700  0.75000000  0.03664700  1
  Si  Si3  1  0.62267300  0.25000000  0.96335300  1
  Si  Si4  1  0.87375200  0.75000000  0.32228600  1
  Si  Si5  1  0.12624800  0.25000000  0.67771400  1
  Si  Si6  1  0.62624800  0.75000000  0.82228600  1
  Si  Si7  1  0.37375200  0.25000000  0.17771400  1
  O  O0  1  0.85514500  0.75000000  0.59820800  1
  O  O1  1  0.14485500  0.25000000  0.40179200  1
  O  O2  1  0.64485500  0.75000000  0.09820800  1
  O  O3  1  0.35514500  0.25000000  0.90179200  1
  O  O4  1  0.28692700  0.91518400  0.54485400  1
  O  O5  1  0.71307300  0.41518400  0.45514600  1
  O  O6  1  0.21307300  0.91518400  0.04485400  1
  O  O7  1  0.78692700  0.41518400  0.95514600  1
  O  O8  1  0.28692700  0.58481600  0.54485400  1
  O  O9  1  0.71307300  0.08481600  0.45514600  1
  O  O10  1  0.21307300  0.58481600  0.04485400  1
  O  O11  1  0.78692700  0.08481600  0.95514600  1
  O  O12  1  0.05273600  0.75000000  0.42080200  1
  O  O13  1  0.94726400  0.25000000  0.57919800  1
  O  O14  1  0.44726400  0.75000000  0.92080200  1
  O  O15  1  0.55273600  0.25000000  0.07919800  1
  O  O16  1  0.47790500  0.08865400  0.22968700  1
  O  O17  1  0.52209500  0.58865400  0.77031300  1
  O  O18  1  0.02209500  0.08865400  0.72968700  1
  O  O19  1  0.97790500  0.58865400  0.27031300  1
  O  O20  1  0.47790500  0.41134600  0.22968700  1
  O  O21  1  0.52209500  0.91134600  0.77031300  1
  O  O22  1  0.02209500  0.41134600  0.72968700  1
  O  O23  1  0.97790500  0.91134600  0.27031300  1
  O  O24  1  0.06505900  0.25000000  0.15518100  1
  O  O25  1  0.93494100  0.75000000  0.84481900  1
  O  O26  1  0.43494100  0.25000000  0.65518100  1
  O  O27  1  0.56505900  0.75000000  0.34481900  1
loop_
_geom_bond_atom_site_label_1
_geom_bond_atom_site_label_2
_geom_bond_distance
_geom_bond_site_symmetry_2
Eu0 O23 2.311007 1_545
Eu0 O6 2.359409 1_645
Eu0 O24 2.407822 1_655
Eu0 O2 2.418175 1_545
Eu0 O16 2.483756 1_555
Eu0 O11 2.530631 1_554
Eu0 O15 2.633525 1_555
Eu1 O22 2.311007 1_555
Eu1 O7 2.359409 1_455
Eu1 O25 2.407822 1_455
Eu1 O3 2.418175 1_555
Eu1 O17 2.483756 1_555
Eu1 O10 2.530631 1_556
Eu1 O14 2.633525 1_555
Eu2 O21 2.311007 1_545
Eu2 O4 2.359409 1_545
Eu2 O26 2.407822 1_555
Eu2 O0 2.418175 1_545
Eu2 O18 2.483756 1_655
Eu2 O9 2.530631 1_555
Eu2 O13 2.633525 1_555
Eu3 O20 2.311007 1_555
Eu3 O5 2.359409 1_555
Eu3 O27 2.407822 1_555
Eu3 O1 2.418175 1_555
Eu3 O19 2.483756 1_455
Eu3 O8 2.530631 1_555
Eu3 O12 2.633525 1_555
Eu4 O19 2.311007 1_555
Eu4 O10 2.359409 1_655
Eu4 O24 2.407822 1_655
Eu4 O2 2.418175 1_555
Eu4 O20 2.483756 1_555
Eu4 O7 2.530631 1_554
Eu4 O15 2.633525 1_555
Eu5 O18 2.311007 1_565
Eu5 O11 2.359409 1_465
Eu5 O25 2.407822 1_455
Eu5 O3 2.418175 1_565
Eu5 O21 2.483756 1_555
Eu5 O6 2.530631 1_556
Eu5 O14 2.633525 1_555
Eu6 O17 2.311007 1_555
Eu6 O8 2.359409 1_555
Eu6 O26 2.407822 1_555
Eu6 O0 2.418175 1_555
Eu6 O22 2.483756 1_655
Eu6 O5 2.530631 1_555
Eu6 O13 2.633525 1_555
Eu7 O16 2.311007 1_565
Eu7 O9 2.359409 1_565
Eu7 O27 2.407822 1_555
Eu7 O1 2.418175 1_565
Eu7 O23 2.483756 1_455
Eu7 O4 2.530631 1_555
Eu7 O12 2.633525 1_555
O0 Si0 1.630807 1_655
O1 Si1 1.630807 1_455
O2 Si2 1.630807 1_555
O3 Si3 1.630807 1_555
O4 Si0 1.638617 1_555
O5 Si1 1.638617 1_555
O6 Si2 1.638617 1_555
O7 Si3 1.638617 1_555
O8 Si0 1.638617 1_555
O9 Si1 1.638617 1_555
O10 Si2 1.638617 1_555
O11 Si3 1.638617 1_555
O12 Si4 1.675007 1_455
O12 Si0 1.684048 1_555
O13 Si5 1.675007 1_655
O13 Si1 1.684048 1_555
O14 Si6 1.675007 1_555
O14 Si2 1.684048 1_556
O15 Si7 1.675007 1_555
O15 Si3 1.684048 1_554
O16 Si7 1.642921 1_555
O17 Si6 1.642921 1_555
O18 Si5 1.642921 1_555
O19 Si4 1.642921 1_555
O20 Si7 1.642921 1_555
O21 Si6 1.642921 1_555
O22 Si5 1.642921 1_555
O23 Si4 1.642921 1_555
O24 Si7 1.620416 1_555
O25 Si6 1.620416 1_555
O26 Si5 1.620416 1_555
O27 Si4 1.620416 1_555
