# generated using pymatgen
data_Na14La4Hf4Si9(SO16)3
_symmetry_space_group_name_H-M   'P 1'
_cell_length_a   19.01632706
_cell_length_b   9.49114970
_cell_length_c   22.93393038
_cell_angle_alpha   89.99895344
_cell_angle_beta   89.80848034
_cell_angle_gamma   119.95391260
_symmetry_Int_Tables_number   1
_chemical_formula_structural   Na14La4Hf4Si9(SO16)3
_chemical_formula_sum   'Na42 La12 Hf12 Si27 S9 O144'
_cell_volume   3586.35135794
_cell_formula_units_Z   3
loop_
 _symmetry_equiv_pos_site_id
 _symmetry_equiv_pos_as_xyz
  1  'x, y, z'
loop_
 _atom_site_type_symbol
 _atom_site_label
 _atom_site_symmetry_multiplicity
 _atom_site_fract_x
 _atom_site_fract_y
 _atom_site_fract_z
 _atom_site_occupancy
  Na  Na0  1  0.82508899  0.01871115  0.25742311  1
  Na  Na1  1  0.17410138  0.34932973  0.25545098  1
  Na  Na2  1  0.69528781  0.36869078  0.25163117  1
  Na  Na3  1  0.99865698  0.62998702  0.24215537  1
  Na  Na4  1  0.49772243  0.65082073  0.24553048  1
  Na  Na5  1  0.32342807  0.63060521  0.75202470  1
  Na  Na6  1  0.99583350  0.34327389  0.73353830  1
  Na  Na7  1  0.50180478  0.37166767  0.73820534  1
  Na  Na8  1  0.19284834  0.01959879  0.74509233  1
  Na  Na9  1  0.68062912  0.00483790  0.74590137  1
  Na  Na10  1  0.14134377  0.30788268  0.57950811  1
  Na  Na11  1  0.65704770  0.32777872  0.58213267  1
  Na  Na12  1  0.33587382  0.99369340  0.58892422  1
  Na  Na13  1  0.83359325  0.97417338  0.58494520  1
  Na  Na14  1  0.14927553  0.98650281  0.07962231  1
  Na  Na15  1  0.64472632  0.97524490  0.07652875  1
  Na  Na16  1  0.33428467  0.67972094  0.08331702  1
  Na  Na17  1  0.83642879  0.68039739  0.09045087  1
  Na  Na18  1  0.47911545  0.67638367  0.91704819  1
  Na  Na19  1  0.97728851  0.68183064  0.93078890  1
  Na  Na20  1  0.33999047  0.01703230  0.90474908  1
  Na  Na21  1  0.83935982  0.01623275  0.90594274  1
  Na  Na22  1  0.17564416  0.29360042  0.91069932  1
  Na  Na23  1  0.66989086  0.28488777  0.90813234  1
  Na  Na24  1  0.48343715  0.28322695  0.43557370  1
  Na  Na25  1  0.97736562  0.27744444  0.42336559  1
  Na  Na26  1  0.16738593  0.05448079  0.41281014  1
  Na  Na27  1  0.67801989  0.05766285  0.41957509  1
  Na  Na28  1  0.34217792  0.66594044  0.41064590  1
  Na  Na29  1  0.84176188  0.66598418  0.42300736  1
  Na  Na30  1  0.99448994  0.99130272  0.50437728  1
  Na  Na31  1  0.51070255  0.01606300  0.50654852  1
  Na  Na32  1  0.00505123  0.99729916  0.00356645  1
  Na  Na33  1  0.50632443  0.99562250  0.99765253  1
  Na  Na34  1  0.32964040  0.33656371  0.82306917  1
  Na  Na35  1  0.81320808  0.32491774  0.82479826  1
  Na  Na36  1  0.31197731  0.29524745  0.33414895  1
  Na  Na37  1  0.82741049  0.31919803  0.33244976  1
  Na  Na38  1  0.15108288  0.64496752  0.16695133  1
  Na  Na39  1  0.66221599  0.65608375  0.16600202  1
  Na  Na40  1  0.16008183  0.66741148  0.66362118  1
  Na  Na41  1  0.66028552  0.66132278  0.66300971  1
  La  La0  1  0.00146519  0.00781123  0.34721766  1
  La  La1  1  0.50001595  0.00636662  0.34862942  1
  La  La2  1  0.99863757  0.99516422  0.84533475  1
  La  La3  1  0.50195377  0.99521237  0.84433662  1
  La  La4  1  0.33691474  0.33174735  0.67546867  1
  La  La5  1  0.83677541  0.34215468  0.17641448  1
  La  La6  1  0.33176409  0.33853025  0.99019163  1
  La  La7  1  0.82441249  0.33586614  0.98747374  1
  La  La8  1  0.32572176  0.31536865  0.48810063  1
  La  La9  1  0.83262481  0.33693370  0.49479990  1
  La  La10  1  0.67523363  0.67626384  0.31680592  1
  La  La11  1  0.17314768  0.67041921  0.81365271  1
  Hf  Hf0  1  0.99546928  -0.00010409  0.65015817  1
  Hf  Hf1  1  0.50999168  0.01414034  0.65690217  1
  Hf  Hf2  1  0.00882482  0.00607641  0.15612939  1
  Hf  Hf3  1  0.50026236  0.99274292  0.15211761  1
  Hf  Hf4  1  0.82902532  0.32761302  0.67524174  1
  Hf  Hf5  1  0.33053716  0.34398482  0.18025065  1
  Hf  Hf6  1  0.16818835  0.66994479  0.01932708  1
  Hf  Hf7  1  0.66437528  0.66353822  0.01926916  1
  Hf  Hf8  1  0.16382981  0.66453033  0.51898702  1
  Hf  Hf9  1  0.67367670  0.66571070  0.52152927  1
  Hf  Hf10  1  0.17614430  0.67079762  0.30870609  1
  Hf  Hf11  1  0.67701663  0.68468871  0.80776867  1
  Si  Si0  1  0.15848361  0.00426040  0.25046842  1
  Si  Si1  1  0.64902068  0.99503749  0.25060733  1
  Si  Si2  1  0.35032528  0.69256327  0.25028454  1
  Si  Si3  1  0.85063989  0.70262618  0.24793251  1
  Si  Si4  1  0.00289488  0.30618527  0.25436436  1
  Si  Si5  1  0.14793242  0.29867228  0.75070775  1
  Si  Si6  1  0.65920881  0.31460584  0.75192791  1
  Si  Si7  1  0.50281358  0.69922043  0.75533567  1
  Si  Si8  1  0.35015426  0.99983687  0.74897909  1
  Si  Si9  1  0.85087973  0.01808149  0.75205177  1
  Si  Si10  1  0.49314162  0.32385052  0.58260530  1
  Si  Si11  1  0.98877343  0.33592357  0.58460659  1
  Si  Si12  1  0.16936934  0.00880751  0.58501000  1
  Si  Si13  1  0.67668070  0.01787315  0.58215965  1
  Si  Si14  1  0.83674630  0.64357489  0.57860965  1
  Si  Si15  1  0.48835863  0.64254610  0.08419634  1
  Si  Si16  1  0.99415351  0.66211368  0.08267064  1
  Si  Si17  1  0.17763460  0.33712213  0.08237714  1
  Si  Si18  1  0.66749422  0.32750679  0.08490215  1
  Si  Si19  1  0.31968485  0.67354243  0.92133713  1
  Si  Si20  1  0.80821263  0.66567041  0.91708804  1
  Si  Si21  1  0.16645034  0.96401707  0.91634048  1
  Si  Si22  1  0.66788431  0.95592526  0.91727088  1
  Si  Si23  1  0.30792401  0.95221274  0.41711558  1
  Si  Si24  1  0.81955870  0.97162306  0.42049839  1
  Si  Si25  1  0.16861429  0.38066149  0.41666873  1
  Si  Si26  1  0.66669184  0.36662894  0.41518182  1
  S  S0  1  0.49098172  0.29548128  0.24415672  1
  S  S1  1  0.99142905  0.68604352  0.74534247  1
  S  S2  1  0.33297062  0.65945384  0.58204841  1
  S  S3  1  0.33363660  0.02442975  0.08307140  1
  S  S4  1  0.83314058  0.00774485  0.08175299  1
  S  S5  1  0.02103403  0.37340771  0.92215116  1
  S  S6  1  0.52735017  0.38893487  0.91470506  1
  S  S7  1  0.02764048  0.66286204  0.41340727  1
  S  S8  1  0.52013749  0.66632098  0.42051094  1
  O  O0  1  0.13315700  0.06163562  0.31028900  1
  O  O1  1  0.61348742  0.01542978  0.31334216  1
  O  O2  1  0.40284373  0.75422861  0.31005256  1
  O  O3  1  0.89445700  0.77983756  0.31005422  1
  O  O4  1  0.48138105  0.22216702  0.30258930  1
  O  O5  1  0.98805679  0.21789121  0.31765019  1
  O  O6  1  0.11539734  0.21701670  0.81595087  1
  O  O7  1  0.63031056  0.21023778  0.81260704  1
  O  O8  1  0.48690322  0.75355787  0.81934845  1
  O  O9  1  0.98402486  0.74085013  0.80471045  1
  O  O10  1  0.39049739  0.00620906  0.81261203  1
  O  O11  1  0.89973042  0.05158581  0.81385742  1
  O  O12  1  0.41042885  0.99939778  0.69656369  1
  O  O13  1  0.90547102  0.00027449  0.70029985  1
  O  O14  1  0.08731864  0.16393243  0.70198547  1
  O  O15  1  0.59266872  0.20562545  0.70007577  1
  O  O16  1  0.99396059  0.80146933  0.70122051  1
  O  O17  1  0.51331658  0.84200899  0.70838072  1
  O  O18  1  0.40137971  0.81342634  0.19585702  1
  O  O19  1  0.90827973  0.81978198  0.19330621  1
  O  O20  1  0.01379305  0.18743316  0.20582758  1
  O  O21  1  0.49311188  0.18576490  0.19900744  1
  O  O22  1  0.09233752  0.97965986  0.19815925  1
  O  O23  1  0.58818423  0.00521958  0.19939616  1
  O  O24  1  0.45527345  0.35305679  0.64165388  1
  O  O25  1  0.93516143  0.35374121  0.63813201  1
  O  O26  1  0.23406415  0.08646034  0.63872177  1
  O  O27  1  0.74700856  0.12944675  0.63249659  1
  O  O28  1  0.31811013  0.55626148  0.63388421  1
  O  O29  1  0.82088732  0.49121200  0.62262989  1
  O  O30  1  0.43363506  0.51307351  0.13658320  1
  O  O31  1  0.95661154  0.55756784  0.14170067  1
  O  O32  1  0.32331787  0.12644889  0.12751106  1
  O  O33  1  0.81825628  0.08039331  0.13369622  1
  O  O34  1  0.24967333  0.36340031  0.13111623  1
  O  O35  1  0.73074486  0.37408227  0.13901096  1
  O  O36  1  0.20734286  0.28983044  0.02229004  1
  O  O37  1  0.70434981  0.27206078  0.02957879  1
  O  O38  1  0.43799294  0.58272132  0.02364459  1
  O  O39  1  0.93256465  0.57509409  0.02703737  1
  O  O40  1  0.34953449  0.10191583  0.02524730  1
  O  O41  1  0.84241444  0.10346858  0.02878428  1
  O  O42  1  0.20739058  0.13570373  0.52913593  1
  O  O43  1  0.70498206  0.12657061  0.52261848  1
  O  O44  1  0.34289653  0.58297949  0.52902462  1
  O  O45  1  0.85633307  0.60055372  0.51439054  1
  O  O46  1  0.42944761  0.28186300  0.52785172  1
  O  O47  1  0.93942718  0.29751607  0.52383584  1
  O  O48  1  0.26156019  0.66853288  0.97735204  1
  O  O49  1  0.75627072  0.66136854  0.97599675  1
  O  O50  1  0.07448540  0.47826246  0.97084141  1
  O  O51  1  0.57221460  0.48816959  0.96684718  1
  O  O52  1  0.16851490  0.84538067  0.96986915  1
  O  O53  1  0.66706575  0.85388099  0.97670679  1
  O  O54  1  0.25584408  0.85198319  0.47556122  1
  O  O55  1  0.75973985  0.85316387  0.47386459  1
  O  O56  1  0.16873669  0.48412329  0.47513552  1
  O  O57  1  0.66882669  0.49155694  0.46694248  1
  O  O58  1  0.07289384  0.65481190  0.46542242  1
  O  O59  1  0.57352898  0.66737423  0.46768290  1
  O  O60  1  0.07063995  0.66207901  0.35932751  1
  O  O61  1  0.55121714  0.65305702  0.36255616  1
  O  O62  1  0.25526980  0.84787971  0.35997220  1
  O  O63  1  0.77384781  0.89853002  0.35769959  1
  O  O64  1  0.16968476  0.48524117  0.35822146  1
  O  O65  1  0.66267628  0.43896326  0.35079251  1
  O  O66  1  0.05347100  0.45493467  0.86593053  1
  O  O67  1  0.56859590  0.47674102  0.86066661  1
  O  O68  1  0.16659383  0.88440592  0.85315940  1
  O  O69  1  0.66921749  0.85159956  0.85993219  1
  O  O70  1  0.27092242  0.65249614  0.86036393  1
  O  O71  1  0.75494318  0.66370637  0.86054292  1
  O  O72  1  0.02542996  0.81664435  0.41802509  1
  O  O73  1  0.51507481  0.81774521  0.42473649  1
  O  O74  1  0.39742194  0.96523615  0.41877135  1
  O  O75  1  0.90554362  0.96962065  0.42534965  1
  O  O76  1  0.08978511  0.19757581  0.42142570  1
  O  O77  1  0.58226028  0.18907691  0.42498643  1
  O  O78  1  0.01836053  0.21465044  0.92582946  1
  O  O79  1  0.52528948  0.23094443  0.91934992  1
  O  O80  1  0.08277639  0.97469825  0.92414158  1
  O  O81  1  0.58854558  0.98031510  0.92100876  1
  O  O82  1  0.40541968  0.84680689  0.92534664  1
  O  O83  1  0.89820216  0.83106321  0.91866507  1
  O  O84  1  0.50392414  0.16091174  0.58940662  1
  O  O85  1  0.99878065  0.17362725  0.59719183  1
  O  O86  1  0.08126271  0.99621530  0.59625263  1
  O  O87  1  0.58844758  0.99751362  0.59955355  1
  O  O88  1  0.40515162  0.82438472  0.58936615  1
  O  O89  1  0.90701512  0.82613404  0.59776073  1
  O  O90  1  0.49556142  0.82402935  0.09605806  1
  O  O91  1  0.00401265  0.84636187  0.08795138  1
  O  O92  1  0.39985918  0.99066808  0.09742925  1
  O  O93  1  0.90552074  0.98748442  0.08842162  1
  O  O94  1  0.08987136  0.17997741  0.09844360  1
  O  O95  1  0.57656422  0.16611776  0.09490704  1
  O  O96  1  0.33970229  0.16089583  0.74733180  1
  O  O97  1  0.83867406  0.17689391  0.74022481  1
  O  O98  1  0.24165114  0.33614301  0.74500012  1
  O  O99  1  0.74694152  0.32965889  0.73498759  1
  O  O100  1  0.42300363  0.52346113  0.74312104  1
  O  O101  1  0.92081732  0.52027684  0.73700571  1
  O  O102  1  0.33886121  0.50710744  0.23871975  1
  O  O103  1  0.83968466  0.52021875  0.24616866  1
  O  O104  1  0.42034293  0.32049027  0.23502637  1
  O  O105  1  0.92330031  0.32301492  0.24281748  1
  O  O106  1  0.24763862  0.16078289  0.23133767  1
  O  O107  1  0.74166581  0.14544345  0.24415065  1
  O  O108  1  0.33271434  0.51458442  0.92226561  1
  O  O109  1  0.81783560  0.50197535  0.91479288  1
  O  O110  1  0.44366156  0.36283751  0.91584352  1
  O  O111  1  0.93854931  0.35015517  0.92879135  1
  O  O112  1  0.25075886  0.14186927  0.91922069  1
  O  O113  1  0.75259754  0.13450754  0.91453272  1
  O  O114  1  0.31708528  0.13457109  0.41442505  1
  O  O115  1  0.83179844  0.15513730  0.42301083  1
  O  O116  1  0.25355504  0.37227713  0.41388002  1
  O  O117  1  0.74946940  0.35333232  0.41688003  1
  O  O118  1  0.43728665  0.52251824  0.42618354  1
  O  O119  1  0.94525919  0.51994215  0.41325137  1
  O  O120  1  0.17727955  0.51079823  0.08049650  1
  O  O121  1  0.66017591  0.49111924  0.07395880  1
  O  O122  1  0.08708636  0.68930433  0.07392305  1
  O  O123  1  0.58249433  0.67840808  0.08063870  1
  O  O124  1  0.25573382  0.86207216  0.08225956  1
  O  O125  1  0.75940205  0.83906044  0.07717633  1
  O  O126  1  0.16078444  0.82965277  0.57379552  1
  O  O127  1  0.67510172  0.84340070  0.57874833  1
  O  O128  1  0.25926507  0.67980539  0.57716435  1
  O  O129  1  0.75085536  0.65107933  0.57892157  1
  O  O130  1  0.08313587  0.49035588  0.58045575  1
  O  O131  1  0.58373397  0.48174148  0.57161912  1
  O  O132  1  0.15616935  0.82904855  0.25506801  1
  O  O133  1  0.64108647  0.81623276  0.24218552  1
  O  O134  1  0.25783502  0.66446063  0.25326813  1
  O  O135  1  0.76165841  0.69160898  0.24090419  1
  O  O136  1  0.08623025  0.48772682  0.25282461  1
  O  O137  1  0.56663728  0.45530750  0.24003245  1
  O  O138  1  0.14151075  0.46388319  0.74143894  1
  O  O139  1  0.65791346  0.48664459  0.75547152  1
  O  O140  1  0.06747215  0.67797322  0.74043812  1
  O  O141  1  0.58604177  0.68420937  0.75330939  1
  O  O142  1  0.26153211  0.83314286  0.73995362  1
  O  O143  1  0.75867855  0.85563328  0.75398783  1
loop_
_geom_bond_atom_site_label_1
_geom_bond_atom_site_label_2
_geom_bond_distance
_geom_bond_site_symmetry_2
Na0 O107 2.442309 1_555
Na0 O63 2.532659 1_545
Na0 O105 2.559514 1_555
Na0 O135 2.738685 1_545
Na0 O33 2.913698 1_555
Na1 O136 2.591093 1_555
Na1 O134 2.593711 1_555
Na1 O64 2.707977 1_555
Na1 O102 2.740958 1_555
Na1 O0 2.741180 1_555
Na1 O106 2.820929 1_555
Na1 O20 2.880108 1_555
Na2 O103 2.382879 1_555
Na2 O65 2.530791 1_555
Na2 O35 2.661227 1_555
Na2 O107 2.676190 1_555
Na2 O135 2.679911 1_555
Na2 O137 2.957113 1_555
Na3 O31 2.425466 1_555
Na3 O105 2.524462 1_555
Na3 O136 2.627615 1_655
Na3 O132 2.642695 1_655
Na3 O103 2.661923 1_555
Na4 O133 2.372252 1_555
Na4 O102 2.626669 1_555
Na4 O104 2.729155 1_555
Na4 O137 2.757553 1_555
Na4 O30 2.804785 1_555
Na4 O2 2.856350 1_555
Na4 O61 2.869684 1_555
Na5 O98 2.432424 1_555
Na5 O100 2.565490 1_555
Na5 O70 2.721057 1_555
Na5 O142 2.723780 1_555
Na5 O28 2.789219 1_555
Na6 O138 2.419526 1_655
Na6 O25 2.501977 1_555
Na6 O97 2.594801 1_555
Na6 O101 2.693699 1_555
Na6 O140 2.766243 1_655
Na7 O24 2.361005 1_555
Na7 O100 2.547273 1_555
Na7 O141 2.596922 1_555
Na7 O139 2.633092 1_555
Na7 O96 2.717664 1_555
Na8 O96 2.420935 1_555
Na8 O26 2.541382 1_555
Na8 O98 2.665179 1_555
Na8 O142 2.675585 1_545
Na8 O68 2.718467 1_545
Na8 O140 2.913930 1_545
Na9 O143 2.518615 1_545
Na9 O97 2.610099 1_555
Na9 O141 2.656451 1_545
Na9 O99 2.696830 1_555
Na9 O27 2.871150 1_555
Na9 O17 2.891364 1_545
Na9 O69 2.946595 1_545
Na9 O7 2.984891 1_555
Na10 O85 2.383438 1_455
Na10 O130 2.477761 1_555
Na10 O86 2.612496 1_545
Na10 O42 2.760893 1_555
Na10 O56 2.814325 1_555
Na11 O131 2.484717 1_555
Na11 O84 2.531103 1_555
Na11 O129 2.671371 1_555
Na11 O87 2.756830 1_545
Na11 O43 2.840930 1_555
Na11 O29 2.858168 1_555
Na11 O15 2.952927 1_555
Na11 O57 3.015556 1_555
Na12 O88 2.536146 1_555
Na12 O128 2.595969 1_555
Na12 O26 2.741401 1_565
Na12 O84 2.768920 1_565
Na12 O46 2.780617 1_565
Na12 O12 2.837904 1_555
Na12 O126 2.908856 1_555
Na12 O54 2.977733 1_555
Na13 O89 2.443720 1_555
Na13 O127 2.629018 1_555
Na13 O129 2.661129 1_555
Na13 O85 2.756386 1_565
Na13 O55 2.862620 1_555
Na13 O27 2.912622 1_565
Na13 O13 2.935059 1_565
Na13 O47 3.040710 1_565
Na14 O91 2.400767 1_555
Na14 O122 2.458079 1_555
Na14 O94 2.627291 1_565
Na14 O124 2.808044 1_555
Na14 O36 2.837601 1_565
Na14 O22 2.911529 1_555
Na14 O52 2.957507 1_554
Na15 O123 2.452853 1_555
Na15 O90 2.496524 1_555
Na15 O37 2.680147 1_565
Na15 O53 2.688957 1_554
Na15 O95 2.735135 1_565
Na16 O92 2.587909 1_555
Na16 O120 2.590362 1_555
Na16 O90 2.679261 1_555
Na16 O48 2.775879 1_554
Na16 O124 2.794490 1_555
Na16 O34 2.822813 1_555
Na16 O18 2.881850 1_555
Na16 O38 2.899123 1_555
Na17 O93 2.529599 1_555
Na17 O125 2.590678 1_555
Na17 O19 2.719913 1_555
Na17 O91 2.761576 1_655
Na17 O35 2.807450 1_555
Na17 O39 2.874537 1_555
Na17 O121 2.932546 1_555
Na17 O49 2.999668 1_554
Na18 O8 2.338441 1_555
Na18 O108 2.419032 1_555
Na18 O81 2.581991 1_555
Na18 O38 2.582857 1_556
Na18 O82 2.622678 1_555
Na18 O110 2.703318 1_555
Na19 O39 2.397707 1_556
Na19 O80 2.490674 1_655
Na19 O83 2.544650 1_555
Na19 O109 2.661094 1_555
Na19 O111 2.852893 1_555
Na19 O9 2.935409 1_555
Na20 O10 2.341588 1_555
Na20 O82 2.528403 1_545
Na20 O112 2.529289 1_555
Na20 O40 2.859430 1_556
Na20 O110 2.874958 1_555
Na21 O11 2.343006 1_555
Na21 O113 2.422499 1_555
Na21 O83 2.528220 1_545
Na21 O111 2.813167 1_555
Na22 O6 2.397445 1_555
Na22 O112 2.491681 1_555
Na22 O36 2.635539 1_556
Na22 O80 2.652082 1_545
Na22 O108 2.672139 1_555
Na22 O78 2.717111 1_555
Na23 O7 2.312256 1_555
Na23 O81 2.523482 1_545
Na23 O109 2.529412 1_555
Na23 O79 2.545392 1_555
Na23 O113 2.602981 1_555
Na23 O37 2.879871 1_556
Na24 O46 2.346308 1_555
Na24 O77 2.462307 1_555
Na24 O74 2.647140 1_545
Na24 O114 2.790385 1_555
Na24 O118 2.822474 1_555
Na25 O115 2.408638 1_555
Na25 O47 2.447890 1_555
Na25 O5 2.519996 1_555
Na25 O75 2.533388 1_545
Na25 O76 2.600862 1_655
Na25 O119 2.669840 1_555
Na26 O0 2.451706 1_555
Na26 O76 2.461841 1_555
Na26 O72 2.511925 1_545
Na26 O114 2.553989 1_555
Na26 O116 2.616892 1_555
Na26 O42 2.778168 1_555
Na27 O117 2.432445 1_555
Na27 O43 2.438971 1_555
Na27 O115 2.591054 1_555
Na27 O1 2.670426 1_555
Na27 O77 2.674643 1_555
Na27 O73 2.784264 1_545
Na28 O116 2.433650 1_555
Na28 O74 2.495791 1_555
Na28 O2 2.524301 1_555
Na28 O118 2.777388 1_555
Na28 O44 2.828731 1_555
Na28 O73 2.875230 1_555
Na29 O45 2.242851 1_555
Na29 O75 2.507794 1_555
Na29 O117 2.589693 1_555
Na29 O3 2.789899 1_555
Na30 O75 2.420961 1_555
Na30 O86 2.666671 1_655
Na30 O76 2.677668 1_665
Na30 O89 2.680155 1_555
Na30 O85 2.718902 1_565
Na30 O72 2.825322 1_655
Na31 O84 2.386012 1_555
Na31 O77 2.408021 1_555
Na31 O87 2.654673 1_545
Na31 O73 2.688046 1_545
Na31 O88 2.697007 1_545
Na31 O74 2.813711 1_545
Na32 O91 2.401944 1_555
Na32 O80 2.418102 1_554
Na32 O78 2.640750 1_564
Na32 O93 2.679080 1_455
Na32 O83 2.689677 1_454
Na32 O94 2.751959 1_565
Na33 O82 2.396170 1_555
Na33 O81 2.400816 1_555
Na33 O95 2.690558 1_566
Na33 O90 2.729735 1_556
Na33 O79 2.744901 1_565
Na34 O98 2.453308 1_555
Na34 O96 2.479907 1_555
Na34 O100 2.548274 1_555
Na34 O112 2.781561 1_555
Na34 O108 2.817108 1_555
Na34 O110 2.963359 1_555
Na35 O99 2.430305 1_555
Na35 O97 2.577516 1_555
Na35 O113 2.594924 1_555
Na35 O109 2.635381 1_555
Na35 O101 2.804050 1_555
Na36 O114 2.423539 1_555
Na36 O116 2.431035 1_555
Na36 O106 2.673075 1_555
Na36 O102 2.839064 1_555
Na37 O117 2.551747 1_555
Na37 O107 2.610764 1_555
Na37 O115 2.622211 1_555
Na37 O103 2.676230 1_555
Na37 O105 2.731467 1_555
Na37 O119 2.801857 1_555
Na38 O136 2.402595 1_555
Na38 O120 2.535358 1_555
Na38 O122 2.595897 1_555
Na38 O132 2.641669 1_555
Na38 O134 2.779539 1_555
Na38 O124 2.803209 1_555
Na39 O135 2.454697 1_555
Na39 O133 2.475844 1_555
Na39 O137 2.517521 1_555
Na39 O123 2.552732 1_555
Na39 O121 2.617039 1_555
Na39 O125 2.711277 1_555
Na40 O130 2.483168 1_555
Na40 O142 2.500606 1_555
Na40 O138 2.521052 1_555
Na40 O140 2.524025 1_555
Na40 O126 2.567941 1_555
Na40 O128 2.693719 1_555
Na41 O127 2.512005 1_555
Na41 O141 2.572148 1_555
Na41 O129 2.615302 1_555
Na41 O131 2.638185 1_555
Na41 O139 2.678018 1_555
Na41 O143 2.799265 1_555
La0 O5 2.238140 1_455
La0 O3 2.272400 1_445
La0 O0 2.440900 1_555
La0 O76 2.441224 1_555
La0 O75 2.446900 1_445
La0 O72 2.639561 1_545
La1 O1 2.263060 1_555
La1 O2 2.349305 1_545
La1 O74 2.400996 1_545
La1 O77 2.414516 1_555
La1 O4 2.482495 1_555
La1 O73 2.616993 1_545
La2 O6 2.266930 1_665
La2 O11 2.315247 1_565
La2 O83 2.431000 1_555
La2 O9 2.470498 1_555
La2 O80 2.488768 1_655
La2 O78 2.666979 1_665
La3 O8 2.239745 1_555
La3 O10 2.294277 1_565
La3 O7 2.380335 1_565
La3 O81 2.464806 1_555
La3 O82 2.490099 1_555
La3 O79 2.678828 1_565
La4 O24 2.289525 1_555
La4 O26 2.327985 1_555
La4 O96 2.331286 1_555
La4 O100 2.332516 1_555
La4 O98 2.425389 1_555
La4 O28 2.518188 1_555
La5 O103 2.307760 1_555
La5 O31 2.311312 1_555
La5 O105 2.318337 1_555
La5 O35 2.348378 1_555
La5 O107 2.403997 1_555
La5 O33 2.526824 1_555
La6 O108 2.277885 1_555
La6 O36 2.291270 1_556
La6 O38 2.318612 1_556
La6 O112 2.377332 1_555
La6 O40 2.561934 1_556
La6 O110 2.640823 1_555
La7 O37 2.261965 1_556
La7 O109 2.340475 1_555
La7 O39 2.357505 1_556
La7 O113 2.392664 1_555
La7 O111 2.495405 1_555
La7 O41 2.576065 1_556
La8 O42 2.238519 1_555
La8 O46 2.336949 1_555
La8 O114 2.355221 1_555
La8 O116 2.414176 1_555
La8 O118 2.489439 1_555
La8 O44 2.571489 1_555
La9 O43 2.331352 1_555
La9 O47 2.340111 1_555
La9 O45 2.353793 1_555
La9 O115 2.379348 1_555
La9 O117 2.445981 1_555
La9 O119 2.713004 1_555
La10 O63 2.215359 1_555
La10 O65 2.280094 1_555
La10 O135 2.343972 1_555
La10 O133 2.446212 1_555
La10 O61 2.485134 1_555
La10 O137 2.731743 1_555
La11 O70 2.227729 1_555
La11 O68 2.283289 1_555
La11 O142 2.335749 1_555
La11 O138 2.403433 1_555
La11 O66 2.476543 1_555
La11 O140 2.651278 1_555
Hf0 O85 2.023403 1_555
Hf0 O14 2.045935 1_655
Hf0 O86 2.057843 1_645
Hf0 O89 2.058310 1_545
Hf0 O13 2.060191 1_555
Hf0 O16 2.205618 1_545
Hf1 O15 1.977958 1_555
Hf1 O12 2.038512 1_545
Hf1 O17 2.042171 1_545
Hf1 O87 2.050030 1_545
Hf1 O84 2.124048 1_555
Hf1 O88 2.460175 1_545
Hf2 O22 1.980380 1_545
Hf2 O20 2.027123 1_555
Hf2 O19 2.030294 1_445
Hf2 O94 2.072633 1_555
Hf2 O91 2.147925 1_545
Hf2 O93 2.444524 1_445
Hf3 O23 1.949237 1_565
Hf3 O90 2.020629 1_555
Hf3 O95 2.034086 1_565
Hf3 O18 2.056732 1_555
Hf3 O21 2.186089 1_565
Hf3 O92 2.279768 1_555
Hf4 O27 2.002994 1_555
Hf4 O29 2.032725 1_555
Hf4 O99 2.080943 1_555
Hf4 O25 2.085215 1_555
Hf4 O97 2.136561 1_555
Hf4 O101 2.286116 1_555
Hf5 O34 1.990706 1_555
Hf5 O102 1.994215 1_555
Hf5 O106 2.032623 1_555
Hf5 O30 2.065678 1_555
Hf5 O104 2.222372 1_555
Hf5 O32 2.337263 1_555
Hf6 O52 2.012131 1_554
Hf6 O48 2.022852 1_554
Hf6 O122 2.061595 1_555
Hf6 O50 2.120723 1_554
Hf6 O120 2.131142 1_555
Hf6 O124 2.272538 1_555
Hf7 O49 2.015798 1_554
Hf7 O121 2.031318 1_555
Hf7 O53 2.031363 1_554
Hf7 O51 2.094855 1_554
Hf7 O123 2.151768 1_555
Hf7 O125 2.194157 1_555
Hf8 O54 2.024463 1_555
Hf8 O56 2.027553 1_555
Hf8 O126 2.032161 1_555
Hf8 O58 2.088751 1_555
Hf8 O130 2.127693 1_555
Hf8 O128 2.201875 1_555
Hf9 O55 2.029546 1_555
Hf9 O129 2.030319 1_555
Hf9 O57 2.038747 1_555
Hf9 O131 2.073242 1_555
Hf9 O127 2.126419 1_555
Hf9 O59 2.279890 1_555
Hf10 O62 1.989394 1_555
Hf10 O134 2.028160 1_555
Hf10 O64 2.046760 1_555
Hf10 O132 2.118078 1_555
Hf10 O136 2.152445 1_555
Hf10 O60 2.280032 1_555
Hf11 O71 2.001793 1_555
Hf11 O143 2.009053 1_555
Hf11 O69 2.048483 1_555
Hf11 O139 2.103506 1_555
Hf11 O141 2.135286 1_555
Hf11 O67 2.353211 1_555
O0 Si0 1.633456 1_555
O1 Si1 1.639566 1_545
O2 Si2 1.626131 1_555
O3 Si3 1.630731 1_555
O4 S0 1.478116 1_555
O5 Si4 1.627732 1_655
O6 Si5 1.654455 1_555
O7 Si6 1.634333 1_555
O8 Si7 1.632667 1_555
O9 S1 1.488653 1_555
O10 Si8 1.638013 1_545
O11 Si9 1.639228 1_555
O12 Si8 1.659632 1_555
O13 Si9 1.637657 1_555
O14 Si5 1.658089 1_555
O15 Si6 1.669801 1_555
O16 S1 1.474238 1_555
O17 Si7 1.662640 1_555
O18 Si2 1.642033 1_555
O19 Si3 1.667637 1_555
O20 Si4 1.668571 1_555
O21 S0 1.483259 1_555
O22 Si0 1.671138 1_565
O23 Si1 1.687553 1_545
O24 Si10 1.619301 1_555
O25 Si11 1.654892 1_555
O26 Si12 1.636710 1_555
O27 Si13 1.684868 1_555
O28 S2 1.474339 1_555
O29 Si14 1.662457 1_555
O30 Si15 1.658622 1_555
O31 Si16 1.616505 1_555
O32 S3 1.484325 1_555
O33 S4 1.472183 1_555
O34 Si17 1.690369 1_555
O35 Si18 1.631278 1_555
O36 Si17 1.633292 1_555
O37 Si18 1.655396 1_555
O38 Si15 1.622972 1_555
O39 Si16 1.650998 1_555
O40 S3 1.471784 1_555
O41 S4 1.473345 1_555
O42 Si12 1.655143 1_555
O43 Si13 1.630700 1_555
O44 S2 1.475307 1_555
O45 Si14 1.619511 1_555
O46 Si10 1.652535 1_555
O47 Si11 1.619583 1_555
O48 Si19 1.676996 1_555
O49 Si20 1.659317 1_555
O50 S5 1.505981 1_555
O51 S6 1.499797 1_555
O52 Si21 1.679548 1_555
O53 Si22 1.667652 1_555
O54 Si23 1.653085 1_555
O55 Si24 1.664172 1_555
O56 Si25 1.661325 1_555
O57 Si26 1.664034 1_555
O58 S7 1.497313 1_555
O59 S8 1.482746 1_555
O60 S7 1.485333 1_555
O61 S8 1.483508 1_555
O62 Si23 1.649033 1_555
O63 Si24 1.648432 1_555
O64 Si25 1.661916 1_555
O65 Si26 1.646473 1_555
O66 S5 1.469588 1_555
O67 S6 1.478626 1_555
O68 Si21 1.634805 1_555
O69 Si22 1.653845 1_555
O70 Si19 1.636722 1_555
O71 Si20 1.642594 1_555
O72 S7 1.484781 1_555
O73 S8 1.490734 1_555
O74 Si23 1.644267 1_555
O75 Si24 1.648817 1_555
O76 Si25 1.635928 1_555
O77 Si26 1.662503 1_555
O78 S5 1.484447 1_555
O79 S6 1.484151 1_555
O80 Si21 1.653267 1_555
O81 Si22 1.638630 1_555
O82 Si19 1.641491 1_555
O83 Si20 1.646751 1_555
O84 Si10 1.665779 1_555
O85 Si11 1.668941 1_555
O86 Si12 1.638625 1_565
O87 Si13 1.638129 1_565
O88 S2 1.489477 1_555
O89 Si14 1.634800 1_555
O90 Si15 1.680590 1_555
O91 Si16 1.667519 1_455
O92 S3 1.484151 1_565
O93 S4 1.490158 1_565
O94 Si17 1.629657 1_555
O95 Si18 1.655687 1_555
O96 Si8 1.637409 1_545
O97 Si9 1.658075 1_555
O98 Si5 1.638690 1_555
O99 Si6 1.646935 1_555
O100 Si7 1.624577 1_555
O101 S1 1.485593 1_555
O102 Si2 1.683254 1_555
O103 Si3 1.637735 1_555
O104 S0 1.491610 1_555
O105 Si4 1.621952 1_655
O106 Si0 1.659423 1_555
O107 Si1 1.627996 1_545
O108 Si19 1.646612 1_555
O109 Si20 1.653466 1_555
O110 S6 1.483518 1_555
O111 S5 1.478168 1_655
O112 Si21 1.649950 1_545
O113 Si22 1.656678 1_545
O114 Si23 1.651851 1_545
O115 Si24 1.639049 1_545
O116 Si25 1.657456 1_555
O117 Si26 1.641372 1_555
O118 S8 1.487708 1_555
O119 S7 1.473838 1_655
O120 Si17 1.652330 1_555
O121 Si18 1.646144 1_555
O122 Si16 1.664987 1_455
O123 Si15 1.648511 1_555
O124 S3 1.513299 1_565
O125 S4 1.516456 1_565
O126 Si12 1.645356 1_565
O127 Si13 1.643028 1_565
O128 S2 1.511876 1_555
O129 Si14 1.670026 1_555
O130 Si11 1.658246 1_455
O131 Si10 1.641964 1_555
O132 Si0 1.644806 1_565
O133 Si1 1.638476 1_555
O134 Si2 1.643172 1_555
O135 Si3 1.650835 1_555
O136 Si4 1.659626 1_555
O137 S0 1.483103 1_555
O138 Si5 1.646278 1_555
O139 Si6 1.647287 1_555
O140 S1 1.489675 1_455
O141 Si7 1.658935 1_555
O142 Si8 1.651011 1_555
O143 Si9 1.659297 1_565
