# generated using pymatgen
data_WN3F5
_symmetry_space_group_name_H-M   'P 1'
_cell_length_a   10.02607000
_cell_length_b   5.47951500
_cell_length_c   11.31401286
_cell_angle_alpha   77.30222587
_cell_angle_beta   90.00000000
_cell_angle_gamma   90.00000000
_symmetry_Int_Tables_number   1
_chemical_formula_structural   WN3F5
_chemical_formula_sum   'W4 N12 F20'
_cell_volume   606.36758252
_cell_formula_units_Z   4
loop_
 _symmetry_equiv_pos_site_id
 _symmetry_equiv_pos_as_xyz
  1  'x, y, z'
loop_
 _atom_site_type_symbol
 _atom_site_label
 _atom_site_symmetry_multiplicity
 _atom_site_fract_x
 _atom_site_fract_y
 _atom_site_fract_z
 _atom_site_occupancy
  W  W0  1  0.53619700  0.84953300  0.78737100  1
  W  W1  1  0.03619700  0.15046700  0.71262900  1
  W  W2  1  0.46380300  0.15046700  0.21262900  1
  W  W3  1  0.96380300  0.84953300  0.28737100  1
  N  N0  1  0.83679500  0.40298700  0.99321700  1
  N  N1  1  0.33679500  0.59701300  0.50678300  1
  N  N2  1  0.16320500  0.59701300  0.00678300  1
  N  N3  1  0.66320500  0.40298700  0.49321700  1
  N  N4  1  0.25047700  0.47756100  0.05214600  1
  N  N5  1  0.75047700  0.52243900  0.44785400  1
  N  N6  1  0.65565300  0.64775200  0.90199300  1
  N  N7  1  0.15565300  0.35224800  0.59800700  1
  N  N8  1  0.34434700  0.35224800  0.09800700  1
  N  N9  1  0.84434700  0.64775200  0.40199300  1
  N  N10  1  0.74952300  0.52243900  0.94785400  1
  N  N11  1  0.24952300  0.47756100  0.55214600  1
  F  F0  1  0.63153500  0.14637000  0.79154700  1
  F  F1  1  0.57395800  0.42851900  0.22043200  1
  F  F2  1  0.92604200  0.42851900  0.72043200  1
  F  F3  1  0.07395800  0.57148100  0.27956800  1
  F  F4  1  0.07901900  0.91418700  0.40993200  1
  F  F5  1  0.57901900  0.08581300  0.09006800  1
  F  F6  1  0.92098100  0.08581300  0.59006800  1
  F  F7  1  0.42098100  0.91418700  0.90993200  1
  F  F8  1  0.85942500  0.79419800  0.15628800  1
  F  F9  1  0.35942500  0.20580200  0.34371200  1
  F  F10  1  0.14057500  0.20580200  0.84371200  1
  F  F11  1  0.64057500  0.79419800  0.65628800  1
  F  F12  1  0.36846500  0.85363000  0.20845300  1
  F  F13  1  0.86846500  0.14637000  0.29154700  1
  F  F14  1  0.42378300  0.04766800  0.66875200  1
  F  F15  1  0.92378300  0.95233200  0.83124800  1
  F  F16  1  0.57621700  0.95233200  0.33124800  1
  F  F17  1  0.07621700  0.04766800  0.16875200  1
  F  F18  1  0.42604200  0.57148100  0.77956800  1
  F  F19  1  0.13153500  0.85363000  0.70845300  1
loop_
_geom_bond_atom_site_label_1
_geom_bond_atom_site_label_2
_geom_bond_distance
_geom_bond_site_symmetry_2
N0 N10 1.144451 1_555
N1 N11 1.144451 1_555
N2 N4 1.144451 1_555
N3 N5 1.144451 1_555
N4 N8 1.212374 1_555
N5 N9 1.212374 1_555
N6 W0 1.925706 1_555
N7 W1 1.925706 1_555
N8 W2 1.925706 1_555
N9 W3 1.925706 1_555
N10 N6 1.212374 1_555
N11 N7 1.212374 1_555
F0 W0 1.896120 1_545
F1 W2 1.899474 1_555
F2 W1 1.899474 1_655
F3 W3 1.899474 1_455
F4 W3 1.897022 1_455
F5 W2 1.897022 1_555
F6 W1 1.897022 1_655
F7 W0 1.897022 1_555
F8 W3 1.893224 1_555
F9 W2 1.893224 1_555
F10 W1 1.893224 1_555
F11 W0 1.893224 1_555
F12 W2 1.896120 1_565
F13 W3 1.896120 1_545
F14 W0 1.899887 1_545
F15 W1 1.899887 1_665
F16 W2 1.899887 1_565
F17 W3 1.899887 1_445
F18 W0 1.899474 1_555
F19 W1 1.896120 1_565
