# generated using pymatgen
data_InCl
_symmetry_space_group_name_H-M   'P 1'
_cell_length_a   12.33266090
_cell_length_b   12.33266090
_cell_length_c   12.33266090
_cell_angle_alpha   90.00000000
_cell_angle_beta   90.00000000
_cell_angle_gamma   90.00000000
_symmetry_Int_Tables_number   1
_chemical_formula_structural   InCl
_chemical_formula_sum   'In32 Cl32'
_cell_volume   1875.73020002
_cell_formula_units_Z   32
loop_
 _symmetry_equiv_pos_site_id
 _symmetry_equiv_pos_as_xyz
  1  'x, y, z'
loop_
 _atom_site_type_symbol
 _atom_site_label
 _atom_site_symmetry_multiplicity
 _atom_site_fract_x
 _atom_site_fract_y
 _atom_site_fract_z
 _atom_site_occupancy
  In  In0  1  0.24836645  0.21812710  0.97129643  1
  In  In1  1  0.97129643  0.24836645  0.21812710  1
  In  In2  1  0.21812710  0.97129643  0.24836645  1
  In  In3  1  0.28187290  0.02870357  0.74836645  1
  In  In4  1  0.47129643  0.25163355  0.78187290  1
  In  In5  1  0.78187290  0.47129643  0.25163355  1
  In  In6  1  0.52870357  0.75163355  0.71812710  1
  In  In7  1  0.02870357  0.74836645  0.28187290  1
  In  In8  1  0.71812710  0.52870357  0.75163355  1
  In  In9  1  0.74836645  0.28187290  0.02870357  1
  In  In10  1  0.75163355  0.71812710  0.52870357  1
  In  In11  1  0.25163355  0.78187290  0.47129643  1
  In  In12  1  0.75097631  0.77786565  0.03035400  1
  In  In13  1  0.03035400  0.75097631  0.77786565  1
  In  In14  1  0.77786565  0.03035400  0.75097631  1
  In  In15  1  0.72213435  0.96964600  0.25097631  1
  In  In16  1  0.53035400  0.74902369  0.22213435  1
  In  In17  1  0.22213435  0.53035400  0.74902369  1
  In  In18  1  0.46964600  0.24902369  0.27786565  1
  In  In19  1  0.96964600  0.25097631  0.72213435  1
  In  In20  1  0.27786565  0.46964600  0.24902369  1
  In  In21  1  0.25097631  0.72213435  0.96964600  1
  In  In22  1  0.24902369  0.27786565  0.46964600  1
  In  In23  1  0.74902369  0.22213435  0.53035400  1
  In  In24  1  0.03037994  0.03037994  0.03037994  1
  In  In25  1  0.46962006  0.96962006  0.53037994  1
  In  In26  1  0.53037994  0.46962006  0.96962006  1
  In  In27  1  0.96962006  0.53037994  0.46962006  1
  In  In28  1  0.46472519  0.46472519  0.46472519  1
  In  In29  1  0.03527481  0.53527481  0.96472519  1
  In  In30  1  0.96472519  0.03527481  0.53527481  1
  In  In31  1  0.53527481  0.96472519  0.03527481  1
  Cl  Cl0  1  0.94614019  0.00142713  0.30381398  1
  Cl  Cl1  1  0.30381398  0.94614019  0.00142713  1
  Cl  Cl2  1  0.00142713  0.30381398  0.94614019  1
  Cl  Cl3  1  0.49857287  0.69618602  0.44614019  1
  Cl  Cl4  1  0.80381398  0.55385981  0.99857287  1
  Cl  Cl5  1  0.99857287  0.80381398  0.55385981  1
  Cl  Cl6  1  0.19618602  0.05385981  0.50142713  1
  Cl  Cl7  1  0.69618602  0.44614019  0.49857287  1
  Cl  Cl8  1  0.50142713  0.19618602  0.05385981  1
  Cl  Cl9  1  0.44614019  0.49857287  0.69618602  1
  Cl  Cl10  1  0.05385981  0.50142713  0.19618602  1
  Cl  Cl11  1  0.55385981  0.99857287  0.80381398  1
  Cl  Cl12  1  0.05985115  0.98419576  0.80382057  1
  Cl  Cl13  1  0.80382057  0.05985115  0.98419576  1
  Cl  Cl14  1  0.98419576  0.80382057  0.05985115  1
  Cl  Cl15  1  0.51580424  0.19617943  0.55985115  1
  Cl  Cl16  1  0.30382057  0.44014885  0.01580424  1
  Cl  Cl17  1  0.01580424  0.30382057  0.44014885  1
  Cl  Cl18  1  0.69617943  0.94014885  0.48419576  1
  Cl  Cl19  1  0.19617943  0.55985115  0.51580424  1
  Cl  Cl20  1  0.48419576  0.69617943  0.94014885  1
  Cl  Cl21  1  0.55985115  0.51580424  0.19617943  1
  Cl  Cl22  1  0.94014885  0.48419576  0.69617943  1
  Cl  Cl23  1  0.44014885  0.01580424  0.30382057  1
  Cl  Cl24  1  0.20500252  0.20500252  0.20500252  1
  Cl  Cl25  1  0.29499748  0.79499748  0.70500252  1
  Cl  Cl26  1  0.70500252  0.29499748  0.79499748  1
  Cl  Cl27  1  0.79499748  0.70500252  0.29499748  1
  Cl  Cl28  1  0.80192192  0.80192192  0.80192192  1
  Cl  Cl29  1  0.69807808  0.19807808  0.30192192  1
  Cl  Cl30  1  0.30192192  0.69807808  0.19807808  1
  Cl  Cl31  1  0.19807808  0.30192192  0.69807808  1
loop_
_geom_bond_atom_site_label_1
_geom_bond_atom_site_label_2
_geom_bond_distance
_geom_bond_site_symmetry_2
Cl0 In15 2.865333 1_545
Cl0 In30 2.893979 1_555
Cl1 In21 2.865333 1_554
Cl1 In31 2.893979 1_555
Cl2 In19 2.865333 1_455
Cl2 In29 2.893979 1_555
Cl3 In16 2.865333 1_555
Cl3 In28 2.893979 1_555
Cl4 In12 2.865333 1_556
Cl4 In29 2.893979 1_655
Cl5 In13 2.865333 1_655
Cl5 In30 2.893979 1_565
Cl6 In22 2.865333 1_555
Cl6 In30 2.893979 1_455
Cl7 In23 2.865333 1_555
Cl7 In28 2.893979 1_555
Cl8 In18 2.865333 1_555
Cl8 In31 2.893979 1_545
Cl9 In17 2.865333 1_555
Cl9 In28 2.893979 1_555
Cl10 In20 2.865333 1_555
Cl10 In29 2.893979 1_554
Cl11 In14 2.865333 1_565
Cl11 In31 2.893979 1_556
Cl12 In24 2.874613 1_566
Cl12 In3 2.875118 1_565
Cl12 In13 2.916747 1_555
Cl13 In24 2.874613 1_656
Cl13 In9 2.875118 1_556
Cl13 In14 2.916747 1_555
Cl14 In24 2.874613 1_665
Cl14 In7 2.875118 1_655
Cl14 In12 2.916747 1_555
Cl15 In25 2.874613 1_545
Cl15 In4 2.875118 1_555
Cl15 In23 2.916747 1_555
Cl16 In26 2.874613 1_554
Cl16 In0 2.875118 1_554
Cl16 In20 2.916747 1_555
Cl17 In27 2.874613 1_455
Cl17 In1 2.875118 1_455
Cl17 In22 2.916747 1_555
Cl18 In25 2.874613 1_555
Cl18 In10 2.875118 1_555
Cl18 In15 2.916747 1_555
Cl19 In27 2.874613 1_455
Cl19 In11 2.875118 1_555
Cl19 In17 2.916747 1_555
Cl20 In26 2.874613 1_555
Cl20 In6 2.875118 1_555
Cl20 In21 2.916747 1_555
Cl21 In26 2.874613 1_554
Cl21 In5 2.875118 1_555
Cl21 In16 2.916747 1_555
Cl22 In27 2.874613 1_555
Cl22 In8 2.875118 1_555
Cl22 In19 2.916747 1_555
Cl23 In25 2.874613 1_545
Cl23 In2 2.875118 1_545
Cl23 In18 2.916747 1_555
Cl24 In0 2.935878 1_554
Cl24 In2 2.935878 1_545
Cl24 In1 2.935878 1_455
Cl25 In11 2.935878 1_555
Cl25 In3 2.935878 1_565
Cl25 In6 2.935878 1_555
Cl26 In4 2.935878 1_555
Cl26 In9 2.935878 1_556
Cl26 In8 2.935878 1_555
Cl27 In7 2.935878 1_655
Cl27 In5 2.935878 1_555
Cl27 In10 2.935878 1_555
Cl28 In13 2.901594 1_655
Cl28 In14 2.901594 1_565
Cl28 In12 2.901594 1_556
Cl29 In23 2.901594 1_555
Cl29 In15 2.901594 1_545
Cl29 In18 2.901594 1_555
Cl30 In16 2.901594 1_555
Cl30 In21 2.901594 1_554
Cl30 In20 2.901594 1_555
Cl31 In17 2.901594 1_555
Cl31 In19 2.901594 1_455
Cl31 In22 2.901594 1_555
