# generated using pymatgen
data_Li2V(PO4)2
_symmetry_space_group_name_H-M   'P 1'
_cell_length_a   4.83637101
_cell_length_b   10.03580376
_cell_length_c   5.85266730
_cell_angle_alpha   90.58077227
_cell_angle_beta   90.00573839
_cell_angle_gamma   89.99568982
_symmetry_Int_Tables_number   1
_chemical_formula_structural   Li2V(PO4)2
_chemical_formula_sum   'Li4 V2 P4 O16'
_cell_volume   284.05555829
_cell_formula_units_Z   2
loop_
 _symmetry_equiv_pos_site_id
 _symmetry_equiv_pos_as_xyz
  1  'x, y, z'
loop_
 _atom_site_type_symbol
 _atom_site_label
 _atom_site_symmetry_multiplicity
 _atom_site_fract_x
 _atom_site_fract_y
 _atom_site_fract_z
 _atom_site_occupancy
  Li  Li0  1  0.00437500  0.01325400  0.56611100  1
  Li  Li1  1  0.49565700  0.51324400  0.56606000  1
  Li  Li2  1  0.46743400  0.21958600  0.75538400  1
  Li  Li3  1  0.03262700  0.71963500  0.75534900  1
  V  V0  1  0.96925000  0.27513600  0.23790100  1
  V  V1  1  0.53094500  0.77516500  0.23787700  1
  P  P0  1  0.39967800  0.09740400  0.24687200  1
  P  P1  1  0.10036200  0.59751700  0.24684500  1
  P  P2  1  0.95074400  0.40340500  0.74181900  1
  P  P3  1  0.54928800  0.90350600  0.74190600  1
  O  O0  1  0.26084800  0.39213600  0.73520100  1
  O  O1  1  0.23921600  0.89212400  0.73521300  1
  O  O2  1  0.82102400  0.32194500  0.95061100  1
  O  O3  1  0.67891600  0.82200800  0.95073300  1
  O  O4  1  0.26183100  0.66450300  0.45107800  1
  O  O5  1  0.23813400  0.16462100  0.45087600  1
  O  O6  1  0.80949000  0.32968900  0.52285200  1
  O  O7  1  0.69043900  0.82975100  0.52285000  1
  O  O8  1  0.83183800  0.54307600  0.74404700  1
  O  O9  1  0.66829000  0.04316300  0.74412100  1
  O  O10  1  0.25514400  0.17492900  0.04937300  1
  O  O11  1  0.24480100  0.67481100  0.04910300  1
  O  O12  1  0.32572600  0.94715800  0.24423300  1
  O  O13  1  0.17402000  0.44728800  0.24423300  1
  O  O14  1  0.71523400  0.11748900  0.25465700  1
  O  O15  1  0.78468800  0.61745600  0.25469400  1
loop_
_geom_bond_atom_site_label_1
_geom_bond_atom_site_label_2
_geom_bond_distance
_geom_bond_site_symmetry_2
Li0 O1 1.941964 1_545
Li0 O9 1.952298 1_455
Li0 O5 2.015392 1_555
Li0 O7 2.398282 1_445
Li0 O12 2.525752 1_545
Li0 O14 2.531887 1_455
Li1 O0 1.942075 1_555
Li1 O8 1.952362 1_555
Li1 O4 2.014043 1_555
Li1 O6 2.398193 1_555
Li1 O13 2.525853 1_555
Li1 O15 2.531411 1_555
Li2 O0 2.003691 1_555
Li2 O9 2.019954 1_555
Li2 O10 2.057081 1_556
Li2 O5 2.165656 1_555
Li2 O2 2.293748 1_555
Li2 O6 2.416827 1_555
Li3 O1 2.003292 1_555
Li3 O8 2.021121 1_455
Li3 O11 2.055822 1_556
Li3 O4 2.164834 1_555
Li3 O3 2.294755 1_455
Li3 O7 2.416914 1_455
O0 P2 1.504500 1_455
O1 P3 1.504452 1_555
O2 P2 1.604891 1_555
O2 V0 1.891418 1_556
O3 P3 1.604927 1_555
O3 V1 1.890431 1_556
O4 P1 1.572939 1_555
O4 V1 2.124385 1_555
O5 P0 1.573150 1_555
O5 V0 2.121884 1_455
O6 P2 1.623895 1_555
O6 V0 1.913041 1_555
O7 P3 1.624330 1_555
O7 V1 1.912624 1_555
O8 P2 1.514986 1_555
O9 P3 1.515111 1_545
O10 P0 1.564620 1_555
O10 V0 2.029348 1_455
O11 P1 1.564461 1_555
O11 V1 2.031623 1_555
O12 P0 1.549628 1_565
O12 V1 1.991054 1_555
O13 P1 1.549083 1_555
O13 V0 1.991481 1_455
O14 P0 1.540024 1_555
O14 V0 2.006344 1_555
O15 P1 1.540389 1_655
O15 V1 2.005889 1_555
