# generated using pymatgen
data_Co2(GeTe)3
_symmetry_space_group_name_H-M   'P 1'
_cell_length_a   8.71050793
_cell_length_b   8.71050793
_cell_length_c   8.71050839
_cell_angle_alpha   89.99348870
_cell_angle_beta   89.99348879
_cell_angle_gamma   89.99348780
_symmetry_Int_Tables_number   1
_chemical_formula_structural   Co2(GeTe)3
_chemical_formula_sum   'Co8 Ge12 Te12'
_cell_volume   660.89194045
_cell_formula_units_Z   4
loop_
 _symmetry_equiv_pos_site_id
 _symmetry_equiv_pos_as_xyz
  1  'x, y, z'
loop_
 _atom_site_type_symbol
 _atom_site_label
 _atom_site_symmetry_multiplicity
 _atom_site_fract_x
 _atom_site_fract_y
 _atom_site_fract_z
 _atom_site_occupancy
  Co  Co0  1  0.24475193  0.24475193  0.24475193  1
  Co  Co1  1  0.75524807  0.75524807  0.75524807  1
  Co  Co2  1  0.74545385  0.24856164  0.74791796  1
  Co  Co3  1  0.24856164  0.74791796  0.74545385  1
  Co  Co4  1  0.74791796  0.74545385  0.24856164  1
  Co  Co5  1  0.25454615  0.75143836  0.25208204  1
  Co  Co6  1  0.75143836  0.25208204  0.25454615  1
  Co  Co7  1  0.25208204  0.25454615  0.75143836  1
  Ge  Ge0  1  0.31986640  0.99649582  0.16646669  1
  Ge  Ge1  1  0.99649582  0.16646669  0.31986640  1
  Ge  Ge2  1  0.16646669  0.31986640  0.99649582  1
  Ge  Ge3  1  0.68013360  0.00350418  0.83353331  1
  Ge  Ge4  1  0.00350418  0.83353331  0.68013360  1
  Ge  Ge5  1  0.83353331  0.68013360  0.00350418  1
  Ge  Ge6  1  0.81980211  0.50065682  0.33288370  1
  Ge  Ge7  1  0.50065682  0.33288370  0.81980211  1
  Ge  Ge8  1  0.33288370  0.81980211  0.50065682  1
  Ge  Ge9  1  0.18019789  0.49934318  0.66711630  1
  Ge  Ge10  1  0.49934318  0.66711630  0.18019789  1
  Ge  Ge11  1  0.66711630  0.18019789  0.49934318  1
  Te  Te0  1  0.34417152  0.99919079  0.85240611  1
  Te  Te1  1  0.99919079  0.85240611  0.34417152  1
  Te  Te2  1  0.85240611  0.34417152  0.99919079  1
  Te  Te3  1  0.65582848  0.00080921  0.14759389  1
  Te  Te4  1  0.00080921  0.14759389  0.65582848  1
  Te  Te5  1  0.14759389  0.65582848  0.00080921  1
  Te  Te6  1  0.84470627  0.50461408  0.64711712  1
  Te  Te7  1  0.50461408  0.64711712  0.84470627  1
  Te  Te8  1  0.64711712  0.84470627  0.50461408  1
  Te  Te9  1  0.15529373  0.49538592  0.35288288  1
  Te  Te10  1  0.49538592  0.35288288  0.15529373  1
  Te  Te11  1  0.35288288  0.15529373  0.49538592  1
loop_
_geom_bond_atom_site_label_1
_geom_bond_atom_site_label_2
_geom_bond_distance
_geom_bond_site_symmetry_2
Co0 Ge0 2.359900 1_545
Co0 Ge1 2.359900 1_455
Co0 Ge2 2.359900 1_554
Co0 Te9 2.502075 1_555
Co0 Te10 2.502075 1_555
Co0 Te11 2.502075 1_555
Co1 Ge3 2.359900 1_565
Co1 Ge4 2.359900 1_655
Co1 Ge5 2.359900 1_556
Co1 Te6 2.502075 1_555
Co1 Te7 2.502075 1_555
Co1 Te8 2.502075 1_555
Co2 Ge3 2.331546 1_555
Co2 Ge7 2.340451 1_555
Co2 Ge11 2.347143 1_555
Co2 Te2 2.520514 1_555
Co2 Te4 2.522624 1_655
Co2 Te6 2.548063 1_555
Co3 Ge4 2.331546 1_555
Co3 Ge8 2.340451 1_555
Co3 Ge9 2.347143 1_555
Co3 Te0 2.520514 1_555
Co3 Te5 2.522624 1_556
Co3 Te7 2.548063 1_555
Co4 Ge5 2.331546 1_555
Co4 Ge6 2.340451 1_555
Co4 Ge10 2.347143 1_555
Co4 Te1 2.520514 1_555
Co4 Te3 2.522624 1_565
Co4 Te8 2.548063 1_555
Co5 Ge0 2.331546 1_555
Co5 Ge10 2.340451 1_555
Co5 Ge8 2.347143 1_555
Co5 Te5 2.520514 1_555
Co5 Te1 2.522624 1_455
Co5 Te9 2.548063 1_555
Co6 Ge1 2.331546 1_555
Co6 Ge11 2.340451 1_555
Co6 Ge6 2.347143 1_555
Co6 Te3 2.520514 1_555
Co6 Te2 2.522624 1_554
Co6 Te10 2.548063 1_555
Co7 Ge2 2.331546 1_555
Co7 Ge9 2.340451 1_555
Co7 Ge7 2.347143 1_555
Co7 Te4 2.520514 1_555
Co7 Te0 2.522624 1_545
Co7 Te11 2.548063 1_555
Ge0 Te0 2.743881 1_554
Ge0 Te3 2.931240 1_565
Ge1 Te1 2.743881 1_545
Ge1 Te4 2.931240 1_655
Ge2 Te2 2.743881 1_455
Ge2 Te5 2.931240 1_556
Ge3 Te3 2.743881 1_556
Ge3 Te0 2.931240 1_545
Ge4 Te4 2.743881 1_565
Ge4 Te1 2.931240 1_455
Ge5 Te5 2.743881 1_655
Ge5 Te2 2.931240 1_554
Ge6 Te6 2.745961 1_555
Ge6 Te9 2.927864 1_655
Ge7 Te7 2.745961 1_555
Ge7 Te10 2.927864 1_556
Ge8 Te8 2.745961 1_555
Ge8 Te11 2.927864 1_565
Ge9 Te9 2.745961 1_555
Ge9 Te6 2.927864 1_455
Ge10 Te10 2.745961 1_555
Ge10 Te7 2.927864 1_554
Ge11 Te11 2.745961 1_555
Ge11 Te8 2.927864 1_545
