# generated using pymatgen
data_MgTi2Mn2O6
_symmetry_space_group_name_H-M   'P 1'
_cell_length_a   5.89219831
_cell_length_b   5.89676733
_cell_length_c   5.89537537
_cell_angle_alpha   53.14702143
_cell_angle_beta   53.17330169
_cell_angle_gamma   53.17894910
_symmetry_Int_Tables_number   1
_chemical_formula_structural   MgTi2Mn2O6
_chemical_formula_sum   'Mg1 Ti2 Mn2 O6'
_cell_volume   121.65341221
_cell_formula_units_Z   1
loop_
 _symmetry_equiv_pos_site_id
 _symmetry_equiv_pos_as_xyz
  1  'x, y, z'
loop_
 _atom_site_type_symbol
 _atom_site_label
 _atom_site_symmetry_multiplicity
 _atom_site_fract_x
 _atom_site_fract_y
 _atom_site_fract_z
 _atom_site_occupancy
  Mg  Mg0  1  0.93944808  0.94072439  0.94099350  1
  Ti  Ti0  1  0.47575956  0.47805234  0.47685751  1
  Ti  Ti1  1  0.13098051  0.13098936  0.13197036  1
  Mn  Mn0  1  0.66801643  0.66856344  0.66884872  1
  Mn  Mn1  1  0.30161180  0.30269662  0.30270394  1
  O  O0  1  0.53484942  0.23920828  0.87648122  1
  O  O1  1  0.23764257  0.87644511  0.53638502  1
  O  O2  1  0.87504503  0.53615093  0.23903370  1
  O  O3  1  0.34536016  0.73303459  0.08510803  1
  O  O4  1  0.08469752  0.34644488  0.73273876  1
  O  O5  1  0.73216495  0.08517104  0.34635825  1
loop_
_geom_bond_atom_site_label_1
_geom_bond_atom_site_label_2
_geom_bond_distance
_geom_bond_site_symmetry_2
Mg0 O0 2.044596 1_565
Mg0 O2 2.044598 1_556
Mg0 O1 2.045139 1_655
Mg0 O3 2.370424 1_656
Mg0 O5 2.371494 1_566
Mg0 O4 2.373781 1_665
Mn0 O4 2.106711 1_655
Mn0 O3 2.107348 1_556
Mn0 O5 2.107502 1_565
Mn0 O0 2.456904 1_555
Mn0 O1 2.458198 1_555
Mn0 O2 2.458571 1_555
Mn1 O4 2.152281 1_555
Mn1 O5 2.152598 1_555
Mn1 O3 2.152754 1_555
Mn1 O0 2.171337 1_554
Mn1 O2 2.171886 1_455
Mn1 O1 2.171901 1_545
O0 Ti0 2.017582 1_555
O0 Ti1 2.170066 1_556
O1 Ti0 2.014560 1_555
O1 Ti1 2.169133 1_565
O2 Ti0 2.013408 1_555
O2 Ti1 2.174809 1_655
O3 Ti1 1.996241 1_565
O3 Ti0 2.182212 1_555
O4 Ti1 1.998826 1_556
O4 Ti0 2.181623 1_555
O5 Ti1 1.995847 1_655
O5 Ti0 2.188809 1_555
