# generated using pymatgen
data_Na7Sc3TaSi3(PO8)3
_symmetry_space_group_name_H-M   'P 1'
_cell_length_a   9.12632277
_cell_length_b   9.11936700
_cell_length_c   22.55565566
_cell_angle_alpha   90.03094405
_cell_angle_beta   89.99691307
_cell_angle_gamma   119.98753353
_symmetry_Int_Tables_number   1
_chemical_formula_structural   Na7Sc3TaSi3(PO8)3
_chemical_formula_sum   'Na21 Sc9 Ta3 Si9 P9 O72'
_cell_volume   1625.92710571
_cell_formula_units_Z   3
loop_
 _symmetry_equiv_pos_site_id
 _symmetry_equiv_pos_as_xyz
  1  'x, y, z'
loop_
 _atom_site_type_symbol
 _atom_site_label
 _atom_site_symmetry_multiplicity
 _atom_site_fract_x
 _atom_site_fract_y
 _atom_site_fract_z
 _atom_site_occupancy
  Na  Na0  1  0.63192314  0.99867503  0.25207821  1
  Na  Na1  1  0.36712613  0.36904692  0.25210040  1
  Na  Na2  1  0.00174448  0.63422735  0.25389679  1
  Na  Na3  1  0.64255728  0.63253208  0.74488895  1
  Na  Na4  1  0.99364987  0.35359661  0.74275850  1
  Na  Na5  1  0.29732363  0.34137058  0.58425918  1
  Na  Na6  1  0.03592625  0.69930191  0.58271633  1
  Na  Na7  1  0.66648473  0.95968096  0.58053439  1
  Na  Na8  1  0.30138105  0.96509745  0.08360402  1
  Na  Na9  1  0.66029089  0.70113378  0.08453906  1
  Na  Na10  1  0.04119452  0.33292426  0.08087550  1
  Na  Na11  1  0.32139286  0.29653044  0.91287805  1
  Na  Na12  1  0.97871173  0.30148985  0.41654358  1
  Na  Na13  1  0.32541149  0.02294178  0.41646214  1
  Na  Na14  1  0.69670081  0.67616949  0.41653630  1
  Na  Na15  1  0.99664412  0.99933717  0.49970532  1
  Na  Na16  1  0.98972309  0.99757765  0.99602424  1
  Na  Na17  1  0.66188701  0.32273153  0.82827799  1
  Na  Na18  1  0.66540428  0.33234382  0.33358518  1
  Na  Na19  1  0.33836482  0.66725444  0.16588975  1
  Na  Na20  1  0.33408030  0.67070307  0.65988219  1
  Sc  Sc0  1  0.99921955  0.99978742  0.35333448  1
  Sc  Sc1  1  0.00096348  0.00305786  0.85193459  1
  Sc  Sc2  1  0.00137560  0.00551858  0.64831213  1
  Sc  Sc3  1  0.00113228  0.00449987  0.14594560  1
  Sc  Sc4  1  0.66081645  0.33162916  0.68529458  1
  Sc  Sc5  1  0.66159355  0.33001407  0.18277631  1
  Sc  Sc6  1  0.33444532  0.66370952  0.01729686  1
  Sc  Sc7  1  0.33287862  0.66273574  0.51638436  1
  Sc  Sc8  1  0.33386296  0.66643434  0.32022028  1
  Ta  Ta0  1  0.66895604  0.32804538  0.97869027  1
  Ta  Ta1  1  0.67128045  0.33701481  0.48117820  1
  Ta  Ta2  1  0.32769778  0.66535316  0.81501285  1
  Si  Si0  1  0.29718162  0.29413449  0.75220549  1
  Si  Si1  1  0.96057809  0.33419511  0.58629269  1
  Si  Si2  1  0.66737608  0.62926551  0.58564298  1
  Si  Si3  1  0.66496931  0.03841138  0.08446817  1
  Si  Si4  1  0.37493500  0.33390464  0.08284604  1
  Si  Si5  1  0.03641742  0.37181867  0.91883971  1
  Si  Si6  1  0.62720808  0.96274815  0.41703104  1
  Si  Si7  1  0.33510581  0.37099693  0.41671827  1
  Si  Si8  1  0.03864846  0.66605757  0.41704129  1
  P  P0  1  0.29371702  0.99861610  0.24906790  1
  P  P1  1  0.70562079  0.70573967  0.24886726  1
  P  P2  1  0.00111729  0.29673309  0.24919915  1
  P  P3  1  0.00486697  0.71079485  0.75062459  1
  P  P4  1  0.70418864  0.99670866  0.75120706  1
  P  P5  1  0.37710336  0.04365593  0.58305861  1
  P  P6  1  0.95473138  0.62132142  0.08286998  1
  P  P7  1  0.62626308  0.66617366  0.91767333  1
  P  P8  1  0.33469007  0.95850110  0.91891514  1
  O  O0  1  0.20867324  0.02181965  0.30447414  1
  O  O1  1  0.81321751  0.79113397  0.30446329  1
  O  O2  1  0.97633389  0.18768621  0.30454788  1
  O  O3  1  0.20549727  0.18695502  0.81120936  1
  O  O4  1  0.97571776  0.79710216  0.80333442  1
  O  O5  1  0.82054933  0.02215932  0.80360679  1
  O  O6  1  0.77231539  0.95536803  0.69394076  1
  O  O7  1  0.17592481  0.21932760  0.69324016  1
  O  O8  1  0.03283593  0.81020080  0.69247443  1
  O  O9  1  0.79235307  0.81357374  0.19268845  1
  O  O10  1  0.02287076  0.20953995  0.19303339  1
  O  O11  1  0.18612188  0.97689666  0.19277535  1
  O  O12  1  0.87119613  0.35835525  0.64446058  1
  O  O13  1  0.48988511  0.12943828  0.63667663  1
  O  O14  1  0.63720774  0.51209568  0.64354737  1
  O  O15  1  0.87877846  0.51524012  0.13936427  1
  O  O16  1  0.63670642  0.12444839  0.14305256  1
  O  O17  1  0.49170397  0.36737580  0.14145875  1
  O  O18  1  0.47749253  0.31213058  0.02439375  1
  O  O19  1  0.83464104  0.52496889  0.02860006  1
  O  O20  1  0.69141690  0.17035651  0.02711456  1
  O  O21  1  0.46515454  0.15426328  0.52606165  1
  O  O22  1  0.68562120  0.52380020  0.52689051  1
  O  O23  1  0.83503852  0.30966759  0.52733701  1
  O  O24  1  0.54581758  0.68765297  0.97410785  1
  O  O25  1  0.15143053  0.45870583  0.97677858  1
  O  O26  1  0.31709354  0.86118937  0.97563141  1
  O  O27  1  0.54555138  0.84476096  0.47496725  1
  O  O28  1  0.29802712  0.45260889  0.47463621  1
  O  O29  1  0.15533971  0.70146517  0.47513680  1
  O  O30  1  0.11458295  0.62252861  0.35802017  1
  O  O31  1  0.50850839  0.88502106  0.35779851  1
  O  O32  1  0.37810131  0.49109028  0.35782135  1
  O  O33  1  0.14080522  0.50026361  0.86086646  1
  O  O34  1  0.35976289  0.86570508  0.86451851  1
  O  O35  1  0.50434123  0.63970518  0.86319325  1
  O  O36  1  0.00781082  0.82645614  0.40994609  1
  O  O37  1  0.81778433  0.99129792  0.41003203  1
  O  O38  1  0.17206179  0.18106396  0.40978528  1
  O  O39  1  0.02079548  0.18770608  0.91160232  1
  O  O40  1  0.18385865  0.98762655  0.91165768  1
  O  O41  1  0.80343222  0.81569139  0.90949218  1
  O  O42  1  0.97257639  0.16016812  0.58616523  1
  O  O43  1  0.20208859  0.03238132  0.58647355  1
  O  O44  1  0.84420876  0.81149276  0.58624111  1
  O  O45  1  0.96556910  0.79623849  0.08536140  1
  O  O46  1  0.83724528  0.02500380  0.08516605  1
  O  O47  1  0.19085320  0.15819558  0.08493591  1
  O  O48  1  0.68804991  0.15623630  0.74601176  1
  O  O49  1  0.49183237  0.33382842  0.74899319  1
  O  O50  1  0.85297555  0.52615548  0.74758530  1
  O  O51  1  0.68884534  0.52645754  0.24595127  1
  O  O52  1  0.84159134  0.31753294  0.24544047  1
  O  O53  1  0.47348955  0.16093836  0.24623137  1
  O  O54  1  0.62737713  0.49287651  0.92131698  1
  O  O55  1  0.84933304  0.36190027  0.92292466  1
  O  O56  1  0.50028519  0.14240357  0.92215324  1
  O  O57  1  0.64459212  0.15290854  0.42489196  1
  O  O58  1  0.50584903  0.35121556  0.42509055  1
  O  O59  1  0.84710055  0.49256244  0.42483722  1
  O  O60  1  0.35202182  0.50034565  0.07817299  1
  O  O61  1  0.13250401  0.64362526  0.07582254  1
  O  O62  1  0.49596241  0.85341019  0.07789484  1
  O  O63  1  0.35694886  0.86601488  0.57788203  1
  O  O64  1  0.50106843  0.65092594  0.58001648  1
  O  O65  1  0.14585181  0.50417362  0.58023449  1
  O  O66  1  0.31164133  0.83724606  0.25220527  1
  O  O67  1  0.52657013  0.68812250  0.25187459  1
  O  O68  1  0.16379131  0.47499347  0.25220765  1
  O  O69  1  0.31500612  0.49194112  0.76078586  1
  O  O70  1  0.16923398  0.69188245  0.76020162  1
  O  O71  1  0.52434974  0.83350313  0.76187311  1
loop_
_geom_bond_atom_site_label_1
_geom_bond_atom_site_label_2
_geom_bond_distance
_geom_bond_site_symmetry_2
Na0 O67 2.494591 1_555
Na0 O66 2.531733 1_555
Na0 O53 2.537064 1_565
Na0 O52 2.564681 1_565
Na0 O31 2.620029 1_555
Na0 O16 2.705149 1_565
Na1 O68 2.483815 1_555
Na1 O67 2.520257 1_555
Na1 O53 2.530367 1_555
Na1 O51 2.547082 1_555
Na1 O32 2.611661 1_555
Na1 O17 2.745510 1_555
Na2 O66 2.488742 1_555
Na2 O52 2.508655 1_455
Na2 O51 2.519325 1_455
Na2 O68 2.538473 1_555
Na2 O30 2.588052 1_555
Na2 O15 2.809015 1_455
Na3 O49 2.361252 1_555
Na3 O14 2.525342 1_555
Na3 O50 2.548484 1_555
Na3 O71 2.577802 1_555
Na3 O69 2.622534 1_555
Na3 O6 2.812271 1_555
Na3 O4 2.944803 1_555
Na3 O35 2.966121 1_555
Na4 O48 2.450627 1_555
Na4 O50 2.481073 1_555
Na4 O12 2.493094 1_555
Na4 O69 2.580550 1_655
Na4 O70 2.701243 1_655
Na4 O7 2.747442 1_655
Na4 O5 2.957372 1_555
Na4 O33 2.981679 1_655
Na5 O65 2.484992 1_555
Na5 O64 2.487743 1_555
Na5 O43 2.499967 1_555
Na5 O42 2.573073 1_455
Na5 O28 2.671915 1_555
Na5 O7 2.697899 1_555
Na6 O44 2.429768 1_455
Na6 O65 2.441391 1_555
Na6 O63 2.540549 1_555
Na6 O43 2.632174 1_565
Na6 O29 2.656007 1_555
Na6 O8 2.679235 1_555
Na7 O64 2.440899 1_555
Na7 O42 2.461055 1_565
Na7 O63 2.510236 1_555
Na7 O44 2.581639 1_555
Na7 O27 2.612964 1_555
Na7 O6 2.741512 1_555
Na8 O47 2.427928 1_565
Na8 O62 2.452614 1_555
Na8 O61 2.546268 1_555
Na8 O26 2.642518 1_554
Na8 O45 2.654784 1_455
Na8 O11 2.700777 1_555
Na9 O45 2.469671 1_555
Na9 O60 2.477635 1_555
Na9 O62 2.506403 1_555
Na9 O46 2.561909 1_565
Na9 O24 2.680008 1_554
Na9 O9 2.686418 1_555
Na10 O60 2.460158 1_555
Na10 O46 2.476800 1_455
Na10 O61 2.525005 1_555
Na10 O47 2.566817 1_555
Na10 O25 2.586492 1_554
Na10 O10 2.740221 1_555
Na11 O39 2.406272 1_555
Na11 O40 2.444825 1_545
Na11 O54 2.458020 1_555
Na11 O3 2.513424 1_555
Na11 O56 2.641780 1_555
Na11 O18 2.859013 1_556
Na11 O35 2.935637 1_555
Na11 O25 2.993539 1_555
Na12 O37 2.455005 1_545
Na12 O38 2.505983 1_655
Na12 O59 2.570140 1_555
Na12 O57 2.653227 1_555
Na12 O2 2.726456 1_555
Na12 O23 2.840267 1_555
Na12 O28 2.844724 1_655
Na12 O30 2.868169 1_655
Na13 O38 2.465399 1_555
Na13 O36 2.538062 1_545
Na13 O57 2.544561 1_555
Na13 O58 2.604431 1_555
Na13 O0 2.739528 1_555
Na13 O21 2.764470 1_555
Na13 O29 2.865419 1_545
Na13 O31 2.867735 1_545
Na14 O36 2.464209 1_655
Na14 O37 2.515392 1_555
Na14 O58 2.587197 1_555
Na14 O59 2.649599 1_555
Na14 O1 2.740116 1_555
Na14 O22 2.828410 1_555
Na14 O27 2.849774 1_555
Na14 O32 2.854698 1_555
Na15 O44 2.510123 1_555
Na15 O42 2.514241 1_565
Na15 O37 2.577116 1_555
Na15 O36 2.598461 1_655
Na15 O38 2.602723 1_665
Na15 O43 2.621358 1_665
Na16 O39 2.494918 1_665
Na16 O46 2.527605 1_566
Na16 O41 2.574711 1_555
Na16 O47 2.616538 1_666
Na16 O40 2.632238 1_655
Na16 O45 2.660756 1_556
Na17 O49 2.403007 1_555
Na17 O48 2.482898 1_555
Na17 O50 2.562173 1_555
Na17 O56 2.634749 1_555
Na17 O55 2.645800 1_555
Na17 O54 2.719474 1_555
Na18 O57 2.578383 1_555
Na18 O53 2.579434 1_555
Na18 O58 2.580648 1_555
Na18 O59 2.587681 1_555
Na18 O51 2.590683 1_555
Na18 O52 2.602492 1_555
Na19 O67 2.533989 1_555
Na19 O60 2.536373 1_555
Na19 O62 2.540185 1_555
Na19 O68 2.571780 1_555
Na19 O66 2.574433 1_555
Na19 O61 2.701571 1_555
Na20 O65 2.423687 1_555
Na20 O64 2.423696 1_555
Na20 O63 2.503752 1_555
Na20 O69 2.754646 1_555
Na20 O70 2.776761 1_555
Na20 O71 2.816258 1_555
O0 P0 1.540375 1_545
O0 Sc0 2.127211 1_445
O1 P1 1.542040 1_555
O1 Sc0 2.118115 1_555
O2 P2 1.541138 1_655
O2 Sc0 2.133188 1_545
O3 Si0 1.615685 1_555
O3 Sc1 2.003201 1_555
O4 P3 1.520525 1_655
O4 Sc1 2.085083 1_665
O5 P4 1.527078 1_545
O5 Sc1 2.053463 1_655
O6 P4 1.559112 1_555
O6 Sc2 2.164036 1_665
O7 Si0 1.644216 1_555
O7 Sc2 2.063852 1_555
O8 P3 1.541820 1_555
O8 Sc2 2.181837 1_565
O9 P1 1.556403 1_555
O9 Sc3 2.111657 1_665
O10 P2 1.559897 1_555
O10 Sc3 2.071412 1_555
O11 P0 1.555980 1_555
O11 Sc3 2.110605 1_565
O12 Si1 1.616963 1_555
O12 Sc4 2.031345 1_555
O13 P5 1.525856 1_555
O13 Sc4 2.039262 1_555
O14 Si2 1.621956 1_555
O14 Sc4 1.999429 1_555
O15 P6 1.539809 1_555
O15 Sc5 2.096550 1_555
O16 Si3 1.621543 1_555
O16 Sc5 1.985249 1_555
O17 Si4 1.628248 1_555
O17 Sc5 1.979172 1_555
O18 Si4 1.684962 1_555
O18 Ta0 1.970656 1_554
O19 P6 1.583662 1_555
O19 Ta0 2.015509 1_554
O20 Si3 1.700276 1_555
O20 Ta0 1.897183 1_554
O21 P5 1.583345 1_555
O21 Ta1 2.051554 1_555
O22 Si2 1.693394 1_555
O22 Ta1 1.938287 1_555
O23 Si1 1.695491 1_555
O23 Ta1 1.937202 1_555
O24 P7 1.530058 1_555
O24 Sc6 2.072891 1_556
O25 Si5 1.614029 1_555
O25 Sc6 1.999246 1_556
O26 P8 1.519405 1_555
O26 Sc6 2.106755 1_556
O27 Si6 1.618840 1_555
O27 Sc7 2.043572 1_555
O28 Si7 1.620399 1_555
O28 Sc7 2.012119 1_555
O29 Si8 1.616001 1_555
O29 Sc7 2.046506 1_555
O30 Si8 1.638413 1_555
O30 Sc8 2.022706 1_555
O31 Si6 1.640879 1_555
O31 Sc8 2.013635 1_555
O32 Si7 1.640159 1_555
O32 Sc8 2.021393 1_555
O33 Si5 1.695742 1_555
O33 Ta2 1.918350 1_555
O34 P8 1.570448 1_555
O34 Ta2 2.033248 1_555
O35 P7 1.593029 1_555
O35 Ta2 2.052310 1_555
O36 Si8 1.629777 1_555
O36 Sc0 2.064280 1_455
O37 Si6 1.632511 1_555
O37 Sc0 2.062760 1_555
O38 Si7 1.631575 1_555
O38 Sc0 2.057566 1_445
O39 Si5 1.620619 1_555
O39 Sc1 2.091032 1_555
O40 P8 1.535495 1_555
O40 Sc1 2.203590 1_565
O41 P7 1.517890 1_555
O41 Sc1 2.185834 1_665
O42 Si1 1.644484 1_555
O42 Sc2 2.096591 1_655
O43 P5 1.550328 1_555
O43 Sc2 2.216399 1_555
O44 Si2 1.638699 1_555
O44 Sc2 2.146819 1_665
O45 P6 1.549058 1_555
O45 Sc3 2.227281 1_665
O46 Si3 1.636864 1_555
O46 Sc3 2.105119 1_655
O47 Si4 1.643556 1_555
O47 Sc3 2.105243 1_555
O48 P4 1.538252 1_545
O48 Sc4 2.212565 1_555
O49 Si0 1.627653 1_555
O49 Sc4 2.115120 1_555
O50 P3 1.558241 1_655
O50 Sc4 2.254818 1_555
O51 P1 1.565396 1_555
O51 Sc5 2.203067 1_555
O52 P2 1.561682 1_655
O52 Sc5 2.212825 1_555
O53 P0 1.568265 1_545
O53 Sc5 2.174657 1_555
O54 P7 1.587639 1_555
O54 Ta0 2.156496 1_555
O55 Si5 1.666576 1_655
O55 Ta0 1.969648 1_555
O56 P8 1.602554 1_545
O56 Ta0 2.062686 1_555
O57 Si6 1.669882 1_545
O57 Ta1 2.019631 1_555
O58 Si7 1.666563 1_555
O58 Ta1 2.022992 1_555
O59 Si8 1.680953 1_655
O59 Ta1 1.981988 1_555
O60 Si4 1.635886 1_555
O60 Sc6 2.090857 1_555
O61 P6 1.539153 1_455
O61 Sc6 2.198937 1_555
O62 Si3 1.626605 1_565
O62 Sc6 2.117160 1_555
O63 P5 1.540688 1_565
O63 Sc7 2.235852 1_555
O64 Si2 1.630494 1_555
O64 Sc7 2.143203 1_555
O65 Si1 1.631162 1_455
O65 Sc7 2.147837 1_555
O66 P0 1.561442 1_555
O66 Sc8 2.267041 1_555
O67 P1 1.561468 1_555
O67 Sc8 2.271777 1_555
O68 P2 1.561638 1_555
O68 Sc8 2.258098 1_555
O69 Si0 1.739013 1_555
O69 Ta2 1.955793 1_555
O70 P3 1.607887 1_555
O70 Ta2 2.007164 1_555
O71 P4 1.589114 1_555
O71 Ta2 2.063917 1_555
