# generated using pymatgen
data_MgV2Cr4O12
_symmetry_space_group_name_H-M   'P 1'
_cell_length_a   4.73668222
_cell_length_b   4.77762903
_cell_length_c   8.82433401
_cell_angle_alpha   89.99754894
_cell_angle_beta   89.99931234
_cell_angle_gamma   91.85449386
_symmetry_Int_Tables_number   1
_chemical_formula_structural   MgV2Cr4O12
_chemical_formula_sum   'Mg1 V2 Cr4 O12'
_cell_volume   199.59105923
_cell_formula_units_Z   1
loop_
 _symmetry_equiv_pos_site_id
 _symmetry_equiv_pos_as_xyz
  1  'x, y, z'
loop_
 _atom_site_type_symbol
 _atom_site_label
 _atom_site_symmetry_multiplicity
 _atom_site_fract_x
 _atom_site_fract_y
 _atom_site_fract_z
 _atom_site_occupancy
  Mg  Mg0  1  0.01972700  0.50992900  0.00000800  1
  V  V0  1  0.01596300  0.00914600  0.99998300  1
  V  V1  1  0.48104600  0.54344300  0.50000500  1
  Cr  Cr0  1  0.01505500  0.01223600  0.33504500  1
  Cr  Cr1  1  0.01508800  0.01221200  0.66494100  1
  Cr  Cr2  1  0.51897700  0.50614200  0.17492200  1
  Cr  Cr3  1  0.51899400  0.50609400  0.82508400  1
  O  O0  1  0.18491000  0.78960800  0.16141000  1
  O  O1  1  0.20678000  0.79812500  0.49999500  1
  O  O2  1  0.18490000  0.78954100  0.83858700  1
  O  O3  1  0.34324100  0.28398500  0.00000700  1
  O  O4  1  0.33601300  0.30615200  0.34642000  1
  O  O5  1  0.33602700  0.30610600  0.65360800  1
  O  O6  1  0.69154300  0.73087800  0.00000200  1
  O  O7  1  0.69897100  0.71057400  0.34627800  1
  O  O8  1  0.69898700  0.71054900  0.65372000  1
  O  O9  1  0.84785800  0.22997200  0.16094800  1
  O  O10  1  0.84363800  0.19596500  0.50000900  1
  O  O11  1  0.84783700  0.22989900  0.83902800  1
loop_
_geom_bond_atom_site_label_1
_geom_bond_atom_site_label_2
_geom_bond_distance
_geom_bond_site_symmetry_2
Mg0 O3 1.902769 1_555
Mg0 O6 1.907093 1_455
Mg0 O2 2.087549 1_554
Mg0 O0 2.087743 1_555
Mg0 O9 2.097141 1_455
Mg0 O11 2.097725 1_454
Cr0 O10 1.896059 1_455
Cr0 O1 2.012426 1_545
Cr0 O9 2.030454 1_455
Cr0 O4 2.038381 1_555
Cr0 O0 2.044943 1_545
Cr0 O7 2.046673 1_445
Cr1 O10 1.895923 1_455
Cr1 O1 2.012315 1_545
Cr1 O11 2.030422 1_455
Cr1 O5 2.038220 1_555
Cr1 O2 2.044987 1_545
Cr1 O8 2.046736 1_445
Cr2 O4 1.974969 1_555
Cr2 O7 1.978268 1_555
Cr2 O3 2.035888 1_555
Cr2 O6 2.036308 1_555
Cr2 O9 2.077479 1_555
Cr2 O0 2.119178 1_555
Cr3 O5 1.974900 1_555
Cr3 O8 1.978293 1_555
Cr3 O3 2.035773 1_556
Cr3 O6 2.036466 1_556
Cr3 O11 2.077399 1_555
Cr3 O2 2.119216 1_555
O0 V0 1.955483 1_564
O1 V1 1.808464 1_555
O2 V0 1.955491 1_565
O3 V0 1.998896 1_554
O4 V1 1.882480 1_555
O5 V1 1.882619 1_555
O6 V0 1.999152 1_664
O7 V1 1.868109 1_555
O8 V1 1.868092 1_555
O9 V0 1.954262 1_654
O10 V1 2.426992 1_555
O11 V0 1.953996 1_655
