# generated using pymatgen
data_Eu(In4Rh)2
_symmetry_space_group_name_H-M   'P 1'
_cell_length_a   4.38239364
_cell_length_b   13.90724300
_cell_length_c   16.22095995
_cell_angle_alpha   90.00138857
_cell_angle_beta   90.00000000
_cell_angle_gamma   90.00000000
_symmetry_Int_Tables_number   1
_chemical_formula_structural   Eu(In4Rh)2
_chemical_formula_sum   'Eu4 In32 Rh8'
_cell_volume   988.61906123
_cell_formula_units_Z   4
loop_
 _symmetry_equiv_pos_site_id
 _symmetry_equiv_pos_as_xyz
  1  'x, y, z'
loop_
 _atom_site_type_symbol
 _atom_site_label
 _atom_site_symmetry_multiplicity
 _atom_site_fract_x
 _atom_site_fract_y
 _atom_site_fract_z
 _atom_site_occupancy
  Eu  Eu0  1  0.50000000  0.65612264  0.81948645  1
  Eu  Eu1  1  0.50000000  0.34394281  0.18050747  1
  Eu  Eu2  1  0.50000000  0.15614986  0.68054932  1
  Eu  Eu3  1  0.50000000  0.84382809  0.31945876  1
  In  In0  1  -0.00000000  0.51991867  0.13377509  1
  In  In1  1  -0.00000000  0.98012023  0.63377019  1
  In  In2  1  0.00000000  0.01989776  0.36623631  1
  In  In3  1  0.00000000  0.48009864  0.86622305  1
  In  In4  1  -0.00000000  0.83250982  0.87722630  1
  In  In5  1  -0.00000000  0.16743513  0.12273542  1
  In  In6  1  0.00000000  0.33256451  0.62271322  1
  In  In7  1  -0.00000000  0.66742907  0.37731560  1
  In  In8  1  -0.00000000  0.55053553  0.68413816  1
  In  In9  1  -0.00000000  0.44948631  0.31592463  1
  In  In10  1  0.00000000  0.05050435  0.81585063  1
  In  In11  1  0.00000000  0.94947357  0.18410887  1
  In  In12  1  -0.00000000  0.99992013  -0.00001848  1
  In  In13  1  -0.00000000  0.49998959  0.50001802  1
  In  In14  1  0.00000000  0.75989280  0.67770293  1
  In  In15  1  -0.00000000  0.24012538  0.32229808  1
  In  In16  1  0.00000000  0.25988477  0.82223005  1
  In  In17  1  -0.00000000  0.74009576  0.17776012  1
  In  In18  1  0.50000000  0.84046174  0.04408288  1
  In  In19  1  0.50000000  0.15953953  0.95595024  1
  In  In20  1  0.50000000  0.34048848  0.45590588  1
  In  In21  1  0.50000000  0.65955525  0.54406939  1
  In  In22  1  0.00000000  0.66964389  0.98823268  1
  In  In23  1  -0.00000000  0.33033219  0.01176361  1
  In  In24  1  -0.00000000  0.16964206  0.51178714  1
  In  In25  1  0.00000000  0.83036868  0.48821454  1
  In  In26  1  0.50000000  0.60156989  0.25357386  1
  In  In27  1  0.50000000  0.39845122  0.74644040  1
  In  In28  1  0.50000000  0.10155993  0.24648075  1
  In  In29  1  0.50000000  0.89837727  0.75351433  1
  In  In30  1  0.50000000  0.50004692  0.99995647  1
  In  In31  1  0.50000000  -0.00001025  0.49998318  1
  Rh  Rh0  1  0.50000000  0.65438078  0.09614445  1
  Rh  Rh1  1  0.50000000  0.96582285  0.90453096  1
  Rh  Rh2  1  0.50000000  0.03412837  0.09544933  1
  Rh  Rh3  1  0.50000000  0.46589315  0.59545111  1
  Rh  Rh4  1  0.50000000  0.53417132  0.40459414  1
  Rh  Rh5  1  0.50000000  0.34561450  0.90386069  1
  Rh  Rh6  1  0.50000000  0.15438679  0.40393698  1
  Rh  Rh7  1  0.50000000  0.84565001  0.59606678  1
loop_
_geom_bond_atom_site_label_1
_geom_bond_atom_site_label_2
_geom_bond_distance
_geom_bond_site_symmetry_2
Eu0 In3 3.371782 1_555
Eu0 In3 3.371782 1_655
Eu0 In4 3.419933 1_655
Eu0 In4 3.419933 1_555
Eu0 In8 3.431849 1_655
Eu0 In8 3.431849 1_555
Eu0 In14 3.489066 1_555
Eu0 In14 3.489066 1_655
Eu0 In22 3.511280 1_555
Eu0 In22 3.511280 1_655
Eu0 In29 3.534989 1_555
Eu0 In30 3.644364 1_555
Eu0 In27 3.774280 1_555
Eu1 In0 3.371281 1_555
Eu1 In0 3.371281 1_655
Eu1 In5 3.421279 1_655
Eu1 In5 3.421279 1_555
Eu1 In9 3.432305 1_555
Eu1 In9 3.432305 1_655
Eu1 In15 3.489414 1_655
Eu1 In15 3.489414 1_555
Eu1 In23 3.511316 1_555
Eu1 In23 3.511316 1_655
Eu1 In28 3.536695 1_555
Eu1 In30 3.645655 1_554
Eu1 In26 3.773799 1_555
Eu2 In1 3.371967 1_545
Eu2 In1 3.371967 1_645
Eu2 In6 3.420668 1_555
Eu2 In6 3.420668 1_655
Eu2 In10 3.431755 1_655
Eu2 In10 3.431755 1_555
Eu2 In16 3.487719 1_555
Eu2 In16 3.487719 1_655
Eu2 In24 3.511467 1_555
Eu2 In24 3.511467 1_655
Eu2 In27 3.535162 1_555
Eu2 In31 3.646231 1_555
Eu2 In29 3.775259 1_545
Eu3 In2 3.372366 1_665
Eu3 In2 3.372366 1_565
Eu3 In7 3.420604 1_555
Eu3 In7 3.420604 1_655
Eu3 In11 3.432259 1_555
Eu3 In11 3.432259 1_655
Eu3 In17 3.487895 1_655
Eu3 In17 3.487895 1_555
Eu3 In25 3.511361 1_555
Eu3 In25 3.511361 1_655
Eu3 In26 3.534559 1_555
Eu3 In31 3.645701 1_565
Eu3 In28 3.774787 1_565
In0 Rh0 2.944636 1_455
In0 Rh0 2.944636 1_555
In0 In30 3.096689 1_454
In0 In30 3.096689 1_554
In0 In9 3.112796 1_555
In0 In26 3.141165 1_555
In0 In26 3.141165 1_455
In0 In17 3.144064 1_555
In0 In22 3.147955 1_554
In0 In23 3.296748 1_555
In1 Rh7 2.944934 1_455
In1 Rh7 2.944934 1_555
In1 In31 3.096336 1_565
In1 In31 3.096336 1_465
In1 In10 3.111476 1_565
In1 In29 3.141113 1_555
In1 In29 3.141113 1_455
In1 In14 3.144587 1_555
In1 In25 3.148282 1_555
In1 In24 3.295829 1_565
In2 Rh6 2.945091 1_455
In2 Rh6 2.945091 1_555
In2 In31 3.095928 1_555
In2 In31 3.095928 1_455
In2 In28 3.140821 1_455
In2 In28 3.140821 1_555
In2 In24 3.148157 1_555
In2 In25 3.295863 1_545
In3 Rh5 2.944854 1_555
In3 Rh5 2.944854 1_455
In3 In30 3.095816 1_455
In3 In30 3.095816 1_555
In3 In8 3.111821 1_555
In4 Rh1 2.904281 1_455
In4 Rh1 2.904281 1_555
In5 Rh2 2.904180 1_455
In5 Rh2 2.904180 1_555
In6 Rh3 2.904328 1_455
In6 Rh3 2.904328 1_555
In7 Rh4 2.903740 1_555
In7 Rh4 2.903740 1_455
In8 Rh3 2.873406 1_555
In8 Rh3 2.873406 1_455
In9 Rh4 2.873507 1_455
In9 Rh4 2.873507 1_555
In10 Rh1 2.873603 1_545
In10 Rh1 2.873603 1_445
In11 Rh2 2.873282 1_565
In11 Rh2 2.873282 1_465
In11 In2 3.112375 1_565
In12 Rh1 2.724593 1_554
In12 Rh1 2.724593 1_454
In12 Rh2 2.725021 1_465
In12 Rh2 2.725021 1_565
In13 Rh3 2.724443 1_455
In13 Rh3 2.724443 1_555
In13 Rh4 2.724564 1_555
In13 Rh4 2.724564 1_455
In14 Rh7 2.824425 1_455
In14 Rh7 2.824425 1_555
In15 Rh6 2.824336 1_455
In15 Rh6 2.824336 1_555
In15 In2 3.144609 1_555
In16 Rh5 2.824194 1_555
In16 Rh5 2.824194 1_455
In16 In3 3.144591 1_555
In17 Rh0 2.823994 1_555
In17 Rh0 2.823994 1_455
In18 Rh0 2.722197 1_555
In18 Rh2 2.819286 1_565
In18 Rh1 2.857256 1_554
In19 Rh5 2.722258 1_555
In19 Rh1 2.820204 1_545
In19 Rh2 2.857002 1_556
In20 Rh6 2.721966 1_555
In20 Rh4 2.819277 1_555
In20 Rh3 2.857473 1_555
In21 Rh7 2.722017 1_555
In21 Rh3 2.819337 1_555
In21 Rh4 2.856398 1_555
In22 Rh0 2.812549 1_556
In22 Rh0 2.812549 1_456
In22 In4 2.893573 1_555
In22 In3 3.296272 1_555
In23 Rh5 2.812480 1_454
In23 Rh5 2.812480 1_554
In23 In5 2.893563 1_555
In23 In3 3.148312 1_554
In24 Rh6 2.811913 1_555
In24 Rh6 2.811913 1_455
In24 In6 2.893310 1_555
In25 Rh7 2.811961 1_455
In25 Rh7 2.811961 1_555
In25 In7 2.893223 1_555
In26 Rh4 2.622917 1_555
In26 Rh0 2.657193 1_555
In27 Rh3 2.622664 1_555
In27 Rh5 2.657150 1_555
In27 In3 3.140985 1_655
In27 In3 3.140985 1_555
In28 Rh2 2.623208 1_555
In28 Rh6 2.657638 1_555
In29 Rh1 2.623053 1_555
In29 Rh7 2.657120 1_555
In30 Rh0 2.653509 1_556
In30 Rh5 2.653739 1_555
In31 Rh7 2.652641 1_545
In31 Rh6 2.652929 1_555
