# generated using pymatgen
data_Be3P2
_symmetry_space_group_name_H-M   'P 1'
_cell_length_a   12.49684450
_cell_length_b   12.49684450
_cell_length_c   12.49684450
_cell_angle_alpha   131.64844545
_cell_angle_beta   131.64844545
_cell_angle_gamma   70.78483902
_symmetry_Int_Tables_number   1
_chemical_formula_structural   Be3P2
_chemical_formula_sum   'Be48 P32'
_cell_volume   1067.36933832
_cell_formula_units_Z   16
loop_
 _symmetry_equiv_pos_site_id
 _symmetry_equiv_pos_as_xyz
  1  'x, y, z'
loop_
 _atom_site_type_symbol
 _atom_site_label
 _atom_site_symmetry_multiplicity
 _atom_site_fract_x
 _atom_site_fract_y
 _atom_site_fract_z
 _atom_site_occupancy
  Be  Be0  1  0.82838600  0.81822800  0.27308800  1
  Be  Be1  1  0.56822800  0.79514000  0.48984200  1
  Be  Be2  1  0.30529900  0.07838600  0.51015800  1
  Be  Be3  1  0.42161400  0.19470100  0.48984200  1
  Be  Be4  1  0.70486000  0.93177200  0.51015800  1
  Be  Be5  1  0.94470100  0.95486000  0.27308800  1
  Be  Be6  1  0.68177200  0.67161400  0.72691200  1
  Be  Be7  1  0.54514000  0.55529900  0.72691200  1
  Be  Be8  1  0.92161400  0.43177200  0.22691200  1
  Be  Be9  1  0.18177200  0.45486000  0.01015800  1
  Be  Be10  1  0.44470100  0.17161400  0.98984200  1
  Be  Be11  1  0.32838600  0.05529900  0.01015800  1
  Be  Be12  1  0.04514000  0.31822800  0.98984200  1
  Be  Be13  1  0.80529900  0.29514000  0.22691200  1
  Be  Be14  1  0.06822800  0.57838600  0.77308800  1
  Be  Be15  1  0.20486000  0.69470100  0.77308800  1
  Be  Be16  1  0.81010100  0.07695700  0.50249600  1
  Be  Be17  1  0.82695700  0.82446000  0.76685500  1
  Be  Be18  1  0.05760500  0.06010100  0.23314500  1
  Be  Be19  1  0.43989900  0.44239500  0.76685500  1
  Be  Be20  1  0.67554000  0.67304300  0.23314500  1
  Be  Be21  1  0.19239500  0.92554000  0.50249600  1
  Be  Be22  1  0.42304300  0.68989900  0.49750400  1
  Be  Be23  1  0.57446000  0.30760500  0.49750400  1
  Be  Be24  1  0.93989900  0.17304300  0.99750400  1
  Be  Be25  1  0.92304300  0.42554000  0.73314500  1
  Be  Be26  1  0.69239500  0.18989900  0.26685500  1
  Be  Be27  1  0.31010100  0.80760500  0.73314500  1
  Be  Be28  1  0.07446000  0.57695700  0.26685500  1
  Be  Be29  1  0.55760500  0.32446000  0.99750400  1
  Be  Be30  1  0.32695700  0.56010100  0.00249600  1
  Be  Be31  1  0.17554000  0.94239500  0.00249600  1
  Be  Be32  1  0.55523200  0.81401000  0.00805600  1
  Be  Be33  1  0.56401000  0.05595300  0.75877800  1
  Be  Be34  1  0.29717500  0.80523200  0.24122200  1
  Be  Be35  1  0.69476800  0.20282500  0.75877800  1
  Be  Be36  1  0.44404700  0.93599000  0.24122200  1
  Be  Be37  1  0.95282500  0.69404700  0.00805600  1
  Be  Be38  1  0.68599000  0.94476800  0.99194400  1
  Be  Be39  1  0.80595300  0.54717500  0.99194400  1
  Be  Be40  1  0.19476800  0.43599000  0.49194400  1
  Be  Be41  1  0.18599000  0.19404700  0.74122200  1
  Be  Be42  1  0.45282500  0.44476800  0.25877800  1
  Be  Be43  1  0.05523200  0.04717500  0.74122200  1
  Be  Be44  1  0.30595300  0.31401000  0.25877800  1
  Be  Be45  1  0.79717500  0.55595300  0.49194400  1
  Be  Be46  1  0.06401000  0.30523200  0.50805600  1
  Be  Be47  1  0.94404700  0.70282500  0.50805600  1
  P  P0  1  0.00000000  0.00000000  0.00000000  1
  P  P1  1  0.75000000  0.25000000  0.50000000  1
  P  P2  1  0.25000000  0.75000000  0.50000000  1
  P  P3  1  0.50000000  0.50000000  0.00000000  1
  P  P4  1  0.75000000  0.75000000  0.00000000  1
  P  P5  1  0.50000000  0.00000000  0.50000000  1
  P  P6  1  0.00000000  0.50000000  0.50000000  1
  P  P7  1  0.25000000  0.25000000  0.00000000  1
  P  P8  1  0.37500000  0.62500000  0.75000000  1
  P  P9  1  0.37500000  0.12500000  0.75000000  1
  P  P10  1  0.37500000  0.62500000  0.25000000  1
  P  P11  1  0.87500000  0.12500000  0.75000000  1
  P  P12  1  0.37500000  0.12500000  0.25000000  1
  P  P13  1  0.87500000  0.62500000  0.75000000  1
  P  P14  1  0.87500000  0.12500000  0.25000000  1
  P  P15  1  0.87500000  0.62500000  0.25000000  1
  P  P16  1  0.62500000  0.86104900  0.73604900  1
  P  P17  1  0.61104900  0.37500000  0.73604900  1
  P  P18  1  0.63895100  0.87500000  0.26395100  1
  P  P19  1  0.12500000  0.88895100  0.26395100  1
  P  P20  1  0.12500000  0.38895100  0.76395100  1
  P  P21  1  0.13895100  0.87500000  0.76395100  1
  P  P22  1  0.11104900  0.37500000  0.23604900  1
  P  P23  1  0.62500000  0.36104900  0.23604900  1
  P  P24  1  0.00708400  0.00708400  0.51416700  1
  P  P25  1  0.75708400  0.74291600  0.50000000  1
  P  P26  1  0.24291600  0.25708400  0.50000000  1
  P  P27  1  0.49291600  0.49291600  0.48583300  1
  P  P28  1  0.74291600  0.24291600  0.98583300  1
  P  P29  1  0.99291600  0.50708400  0.00000000  1
  P  P30  1  0.50708400  0.99291600  0.00000000  1
  P  P31  1  0.25708400  0.75708400  0.01416700  1
loop_
_geom_bond_atom_site_label_1
_geom_bond_atom_site_label_2
_geom_bond_distance
_geom_bond_site_symmetry_2
Be0 P15 2.150587 1_555
Be0 P24 2.170296 1_665
Be0 P18 2.182553 1_555
Be0 P4 2.360578 1_555
Be1 P10 2.150587 1_555
Be1 P25 2.170296 1_555
Be1 P16 2.182553 1_555
Be1 P5 2.360578 1_565
Be2 P9 2.150592 1_555
Be2 P26 2.170295 1_555
Be2 P19 2.182559 1_545
Be2 P5 2.360567 1_555
Be3 P12 2.150592 1_555
Be3 P26 2.170295 1_555
Be3 P17 2.182559 1_555
Be3 P5 2.360567 1_555
Be4 P11 2.150587 1_565
Be4 P25 2.170296 1_555
Be4 P18 2.182553 1_555
Be4 P5 2.360578 1_565
Be5 P14 2.150587 1_565
Be5 P24 2.170278 1_665
Be5 P19 2.182565 1_655
Be5 P4 2.360573 1_555
Be6 P13 2.150587 1_555
Be6 P27 2.170296 1_555
Be6 P16 2.182553 1_555
Be6 P4 2.360578 1_556
Be7 P8 2.150587 1_555
Be7 P27 2.170278 1_555
Be7 P17 2.182565 1_555
Be7 P4 2.360573 1_556
Be8 P15 2.150587 1_555
Be8 P28 2.170296 1_554
Be8 P22 2.182553 1_655
Be8 P6 2.360578 1_655
Be9 P10 2.150587 1_555
Be9 P29 2.170296 1_455
Be9 P20 2.182553 1_554
Be9 P7 2.360578 1_555
Be10 P9 2.150592 1_555
Be10 P30 2.170295 1_546
Be10 P23 2.182559 1_556
Be10 P7 2.360567 1_556
Be11 P12 2.150592 1_555
Be11 P30 2.170295 1_545
Be11 P21 2.182559 1_544
Be11 P7 2.360567 1_555
Be12 P11 2.150587 1_455
Be12 P29 2.170296 1_456
Be12 P22 2.182553 1_556
Be12 P7 2.360578 1_556
Be13 P14 2.150587 1_555
Be13 P28 2.170278 1_554
Be13 P23 2.182565 1_555
Be13 P6 2.360573 1_655
Be14 P13 2.150587 1_455
Be14 P31 2.170296 1_556
Be14 P20 2.182553 1_555
Be14 P6 2.360578 1_555
Be15 P8 2.150587 1_555
Be15 P31 2.170278 1_556
Be15 P21 2.182565 1_555
Be15 P6 2.360573 1_555
Be16 P1 2.056909 1_555
Be16 P18 2.215834 1_545
Be16 P11 2.259027 1_555
Be16 P24 2.262903 1_655
Be17 P0 2.056915 1_666
Be17 P16 2.215839 1_555
Be17 P13 2.259021 1_555
Be17 P25 2.262891 1_555
Be18 P0 2.056920 1_555
Be18 P19 2.215827 1_545
Be18 P14 2.259020 1_455
Be18 P26 2.262897 1_555
Be19 P3 2.056920 1_556
Be19 P17 2.215827 1_555
Be19 P8 2.259020 1_555
Be19 P26 2.262897 1_555
Be20 P3 2.056915 1_555
Be20 P18 2.215839 1_555
Be20 P15 2.259021 1_555
Be20 P25 2.262891 1_555
Be21 P2 2.056920 1_555
Be21 P19 2.215827 1_555
Be21 P9 2.259020 1_565
Be21 P24 2.262891 1_565
Be22 P2 2.056909 1_555
Be22 P16 2.215834 1_555
Be22 P10 2.259027 1_555
Be22 P27 2.262903 1_555
Be23 P1 2.056920 1_555
Be23 P17 2.215827 1_555
Be23 P12 2.259020 1_555
Be23 P27 2.262891 1_555
Be24 P0 2.056909 1_656
Be24 P22 2.215834 1_656
Be24 P11 2.259027 1_555
Be24 P28 2.262903 1_555
Be25 P1 2.056915 1_555
Be25 P20 2.215839 1_655
Be25 P13 2.259021 1_555
Be25 P29 2.262891 1_556
Be26 P1 2.056920 1_555
Be26 P23 2.215827 1_555
Be26 P14 2.259020 1_555
Be26 P30 2.262897 1_545
Be27 P2 2.056920 1_555
Be27 P21 2.215827 1_555
Be27 P8 2.259020 1_555
Be27 P30 2.262897 1_556
Be28 P2 2.056915 1_555
Be28 P22 2.215839 1_555
Be28 P15 2.259021 1_455
Be28 P29 2.262891 1_455
Be29 P3 2.056920 1_556
Be29 P23 2.215827 1_556
Be29 P9 2.259020 1_555
Be29 P28 2.262891 1_555
Be30 P3 2.056909 1_555
Be30 P20 2.215834 1_554
Be30 P10 2.259027 1_555
Be30 P31 2.262903 1_555
Be31 P0 2.056920 1_565
Be31 P21 2.215827 1_554
Be31 P12 2.259020 1_565
Be31 P31 2.262891 1_555
Be32 P30 2.168862 1_555
Be32 P18 2.177259 1_555
Be32 P8 2.185318 1_554
Be32 P4 2.347630 1_555
Be33 P28 2.168868 1_555
Be33 P16 2.177248 1_545
Be33 P9 2.185319 1_555
Be33 P5 2.347637 1_555
Be34 P31 2.168881 1_555
Be34 P19 2.177248 1_555
Be34 P10 2.185319 1_555
Be34 P5 2.347637 1_565
Be35 P28 2.168881 1_555
Be35 P17 2.177248 1_555
Be35 P11 2.185319 1_555
Be35 P5 2.347637 1_555
Be36 P31 2.168868 1_555
Be36 P18 2.177248 1_555
Be36 P12 2.185319 1_565
Be36 P5 2.347637 1_565
Be37 P29 2.168875 1_555
Be37 P19 2.177249 1_655
Be37 P13 2.185307 1_554
Be37 P4 2.347643 1_555
Be38 P30 2.168862 1_556
Be38 P16 2.177259 1_555
Be38 P14 2.185318 1_566
Be38 P4 2.347630 1_556
Be39 P29 2.168875 1_556
Be39 P17 2.177249 1_555
Be39 P15 2.185307 1_556
Be39 P4 2.347643 1_556
Be40 P26 2.168862 1_555
Be40 P22 2.177259 1_555
Be40 P8 2.185318 1_555
Be40 P6 2.347630 1_555
Be41 P24 2.168868 1_555
Be41 P20 2.177248 1_555
Be41 P9 2.185319 1_555
Be41 P7 2.347637 1_556
Be42 P27 2.168881 1_555
Be42 P23 2.177248 1_555
Be42 P10 2.185319 1_555
Be42 P7 2.347637 1_555
Be43 P24 2.168881 1_555
Be43 P21 2.177248 1_545
Be43 P11 2.185319 1_455
Be43 P7 2.347637 1_556
Be44 P27 2.168868 1_555
Be44 P22 2.177248 1_555
Be44 P12 2.185319 1_555
Be44 P7 2.347637 1_555
Be45 P25 2.168875 1_555
Be45 P23 2.177249 1_555
Be45 P13 2.185307 1_555
Be45 P6 2.347643 1_655
Be46 P26 2.168862 1_555
Be46 P20 2.177259 1_555
Be46 P14 2.185318 1_455
Be46 P6 2.347630 1_555
Be47 P25 2.168875 1_555
Be47 P21 2.177249 1_655
Be47 P15 2.185307 1_555
Be47 P6 2.347643 1_655
