# generated using pymatgen
data_MgTl6WO12
_symmetry_space_group_name_H-M   'P 1'
_cell_length_a   6.72135467
_cell_length_b   6.72135467
_cell_length_c   6.72135471
_cell_angle_alpha   90.58644831
_cell_angle_beta   90.58644836
_cell_angle_gamma   90.58646233
_symmetry_Int_Tables_number   1
_chemical_formula_structural   MgTl6WO12
_chemical_formula_sum   'Mg1 Tl6 W1 O12'
_cell_volume   303.59996551
_cell_formula_units_Z   1
loop_
 _symmetry_equiv_pos_site_id
 _symmetry_equiv_pos_as_xyz
  1  'x, y, z'
loop_
 _atom_site_type_symbol
 _atom_site_label
 _atom_site_symmetry_multiplicity
 _atom_site_fract_x
 _atom_site_fract_y
 _atom_site_fract_z
 _atom_site_occupancy
  Mg  Mg0  1  0.50000000  0.50000000  0.50000000  1
  Tl  Tl0  1  0.45938487  0.93281941  0.74024890  1
  Tl  Tl1  1  0.25975110  0.54061513  0.06718059  1
  Tl  Tl2  1  0.06718059  0.25975110  0.54061513  1
  Tl  Tl3  1  0.93281941  0.74024890  0.45938487  1
  Tl  Tl4  1  0.74024890  0.45938487  0.93281941  1
  Tl  Tl5  1  0.54061513  0.06718059  0.25975110  1
  W  W0  1  -0.00000000  0.00000000  0.00000000  1
  O  O0  1  0.04823831  0.94843985  0.71625140  1
  O  O1  1  0.28374860  0.95176169  0.05155915  1
  O  O2  1  0.19841633  0.55375894  0.39451994  1
  O  O3  1  0.60548006  0.80158367  0.44624106  1
  O  O4  1  0.05155915  0.28374860  0.95176169  1
  O  O5  1  0.44624106  0.60548006  0.80158367  1
  O  O6  1  0.55375894  0.39451994  0.19841633  1
  O  O7  1  0.94843985  0.71625140  0.04823831  1
  O  O8  1  0.39451994  0.19841633  0.55375894  1
  O  O9  1  0.80158367  0.44624106  0.60548006  1
  O  O10  1  0.71625140  0.04823831  0.94843985  1
  O  O11  1  0.95176169  0.05155915  0.28374860  1
loop_
_geom_bond_atom_site_label_1
_geom_bond_atom_site_label_2
_geom_bond_distance
_geom_bond_site_symmetry_2
Mg0 O3 2.175535 1_555
Mg0 O8 2.175535 1_555
Mg0 O5 2.175535 1_555
Mg0 O6 2.175535 1_555
Mg0 O9 2.175535 1_555
Mg0 O2 2.175535 1_555
O0 W0 1.965698 1_566
O0 Tl3 2.332726 1_455
O0 Tl2 2.415841 1_565
O0 Tl0 2.769643 1_555
O1 W0 1.965697 1_565
O1 Tl5 2.332729 1_565
O1 Tl0 2.415835 1_554
O1 Tl1 2.769643 1_555
O2 Tl3 2.235764 1_455
O2 Tl1 2.243616 1_555
O2 Tl2 2.381003 1_555
O3 Tl5 2.235764 1_565
O3 Tl3 2.243616 1_555
O3 Tl0 2.381003 1_555
O4 W0 1.965697 1_556
O4 Tl1 2.332729 1_556
O4 Tl4 2.415835 1_455
O4 Tl2 2.769643 1_555
O5 Tl1 2.235764 1_556
O5 Tl0 2.243616 1_555
O5 Tl4 2.381003 1_555
O6 Tl4 2.235764 1_554
O6 Tl5 2.243616 1_555
O6 Tl1 2.381003 1_555
O7 W0 1.965698 1_665
O7 Tl4 2.332725 1_554
O7 Tl1 2.415841 1_655
O7 Tl3 2.769643 1_555
O8 Tl0 2.235764 1_545
O8 Tl2 2.243616 1_555
O8 Tl5 2.381003 1_555
O9 Tl2 2.235764 1_655
O9 Tl4 2.243616 1_555
O9 Tl3 2.381003 1_555
O10 W0 1.965698 1_656
O10 Tl0 2.332726 1_545
O10 Tl5 2.415841 1_556
O10 Tl4 2.769643 1_555
O11 W0 1.965697 1_655
O11 Tl2 2.332729 1_655
O11 Tl3 2.415835 1_545
O11 Tl5 2.769643 1_555
