# generated using pymatgen
data_Na3CaGaP2SO12
_symmetry_space_group_name_H-M   'P 1'
_cell_length_a   9.24679281
_cell_length_b   9.13129565
_cell_length_c   22.32172402
_cell_angle_alpha   91.96755192
_cell_angle_beta   90.00000000
_cell_angle_gamma   120.41929846
_symmetry_Int_Tables_number   1
_chemical_formula_structural   Na3CaGaP2SO12
_chemical_formula_sum   'Na18 Ca6 Ga6 P12 S6 O72'
_cell_volume   1624.00330363
_cell_formula_units_Z   6
loop_
 _symmetry_equiv_pos_site_id
 _symmetry_equiv_pos_as_xyz
  1  'x, y, z'
loop_
 _atom_site_type_symbol
 _atom_site_label
 _atom_site_symmetry_multiplicity
 _atom_site_fract_x
 _atom_site_fract_y
 _atom_site_fract_z
 _atom_site_occupancy
  Na  Na0  1  0.36494387  0.36161408  0.24908352  1
  Na  Na1  1  0.99621333  0.63716755  0.24459597  1
  Na  Na2  1  0.64095421  0.63716755  0.74459597  1
  Na  Na3  1  0.99667020  0.36161408  0.74908352  1
  Na  Na4  1  0.03161087  0.69494708  0.58241652  1
  Na  Na5  1  0.66288033  0.97050055  0.57792897  1
  Na  Na6  1  0.30762121  0.97050055  0.07792897  1
  Na  Na7  1  0.66333720  0.69494708  0.08241652  1
  Na  Na8  1  0.69827687  0.02828108  0.91575052  1
  Na  Na9  1  0.32954633  0.30383455  0.91126297  1
  Na  Na10  1  0.97428721  0.30383455  0.41126297  1
  Na  Na11  1  0.33000320  0.02828108  0.41575052  1
  Na  Na12  1  0.98500055  0.98527613  0.50050958  1
  Na  Na13  1  0.00027558  0.98527613  0.00050958  1
  Na  Na14  1  0.65166755  0.31860913  0.83384258  1
  Na  Na15  1  0.66694258  0.31860913  0.33384258  1
  Na  Na16  1  0.31833355  0.65194313  0.16717658  1
  Na  Na17  1  0.33360858  0.65194313  0.66717658  1
  Ca  Ca0  1  0.98769996  0.99343529  0.35127892  1
  Ca  Ca1  1  0.00573533  0.99343529  0.85127892  1
  Ca  Ca2  1  0.65436696  0.32676829  0.68461192  1
  Ca  Ca3  1  0.67240233  0.32676829  0.18461192  1
  Ca  Ca4  1  0.32103296  0.66010229  0.01794592  1
  Ca  Ca5  1  0.33906833  0.66010229  0.51794592  1
  Ga  Ga0  1  0.98664406  0.01862137  0.65045275  1
  Ga  Ga1  1  0.03197731  0.01862137  0.15045275  1
  Ga  Ga2  1  0.65331106  0.35195437  0.98378575  1
  Ga  Ga3  1  0.69864431  0.35195437  0.48378575  1
  Ga  Ga4  1  0.31997706  0.68528837  0.31711975  1
  Ga  Ga5  1  0.36531031  0.68528837  0.81711975  1
  P  P0  1  0.29297981  0.99061140  0.25225887  1
  P  P1  1  0.01955073  0.30809239  0.25367265  1
  P  P2  1  0.28854166  0.30809239  0.75367265  1
  P  P3  1  0.69763159  0.99061140  0.75225887  1
  P  P4  1  0.95964681  0.32394440  0.58559187  1
  P  P5  1  0.68621773  0.64142539  0.58700565  1
  P  P6  1  0.95520866  0.64142539  0.08700565  1
  P  P7  1  0.36429859  0.32394440  0.08559187  1
  P  P8  1  0.62631281  0.65727840  0.91892587  1
  P  P9  1  0.35288373  0.97475939  0.92033965  1
  P  P10  1  0.62187466  0.97475939  0.42033965  1
  P  P11  1  0.03096459  0.65727840  0.41892587  1
  S  S0  1  0.68899023  0.70574851  0.24613264  1
  S  S1  1  0.01675829  0.70574851  0.74613264  1
  S  S2  1  0.35565723  0.03908151  0.57946564  1
  S  S3  1  0.68342529  0.03908151  0.07946564  1
  S  S4  1  0.02232323  0.37241551  0.91279964  1
  S  S5  1  0.35009129  0.37241551  0.41279964  1
  O  O0  1  0.21180647  0.01008970  0.30849779  1
  O  O1  1  0.79259278  0.78633279  0.29958720  1
  O  O2  1  0.99842674  0.21772488  0.31125490  1
  O  O3  1  0.21929815  0.21772488  0.81125490  1
  O  O4  1  0.99374001  0.78633279  0.79958720  1
  O  O5  1  0.79828323  0.01008970  0.80849779  1
  O  O6  1  0.78094911  0.95900819  0.69459220  1
  O  O7  1  0.16344941  0.20885520  0.69854733  1
  O  O8  1  0.02938161  0.80004515  0.69168201  1
  O  O9  1  0.77066354  0.80004515  0.19168201  1
  O  O10  1  0.04540579  0.20885520  0.19854733  1
  O  O11  1  0.17805907  0.95900819  0.19459220  1
  O  O12  1  0.87847347  0.34342270  0.64183079  1
  O  O13  1  0.45925978  0.11966579  0.63292020  1
  O  O14  1  0.66509374  0.55105788  0.64458790  1
  O  O15  1  0.88596515  0.55105788  0.14458790  1
  O  O16  1  0.66040701  0.11966579  0.13292020  1
  O  O17  1  0.46495023  0.34342270  0.14183079  1
  O  O18  1  0.44761611  0.29234119  0.02792520  1
  O  O19  1  0.83011641  0.54218820  0.03188033  1
  O  O20  1  0.69604861  0.13337815  0.02501501  1
  O  O21  1  0.43733054  0.13337815  0.52501501  1
  O  O22  1  0.71207279  0.54218820  0.53188033  1
  O  O23  1  0.84472607  0.29234119  0.52792520  1
  O  O24  1  0.54513947  0.67675670  0.97516479  1
  O  O25  1  0.12592578  0.45299979  0.96625420  1
  O  O26  1  0.33175974  0.88439188  0.97792190  1
  O  O27  1  0.55263115  0.88439188  0.47792190  1
  O  O28  1  0.32707301  0.45299979  0.46625420  1
  O  O29  1  0.13161623  0.67675670  0.47516479  1
  O  O30  1  0.11428211  0.62567519  0.36125920  1
  O  O31  1  0.49678241  0.87552220  0.36521433  1
  O  O32  1  0.36271461  0.46671215  0.35834901  1
  O  O33  1  0.10399654  0.46671215  0.85834901  1
  O  O34  1  0.37873879  0.87552220  0.86521433  1
  O  O35  1  0.51139207  0.62567519  0.86125920  1
  O  O36  1  0.01388424  0.81391676  0.41369170  1
  O  O37  1  0.80064761  0.01169830  0.41199573  1
  O  O38  1  0.19841240  0.19714351  0.41025395  1
  O  O39  1  0.99873112  0.19714351  0.91025395  1
  O  O40  1  0.21105069  0.01169830  0.91199573  1
  O  O41  1  0.80003252  0.81391676  0.91369170  1
  O  O42  1  0.96476085  0.15285707  0.58766621  1
  O  O43  1  0.18596815  0.02055663  0.58426660  1
  O  O44  1  0.85827601  0.82120511  0.58997944  1
  O  O45  1  0.96292909  0.82120511  0.08997944  1
  O  O46  1  0.83458848  0.02055663  0.08426660  1
  O  O47  1  0.18809622  0.15285707  0.08766621  1
  O  O48  1  0.68055124  0.14724976  0.74702470  1
  O  O49  1  0.46731461  0.34503130  0.74532873  1
  O  O50  1  0.86507940  0.53047651  0.74358695  1
  O  O51  1  0.66539812  0.53047651  0.24358695  1
  O  O52  1  0.87771769  0.34503130  0.24532873  1
  O  O53  1  0.46669952  0.14724976  0.24702470  1
  O  O54  1  0.63142785  0.48619007  0.92099921  1
  O  O55  1  0.85263515  0.35388963  0.91759960  1
  O  O56  1  0.52494301  0.15453811  0.92331244  1
  O  O57  1  0.62959609  0.15453811  0.42331244  1
  O  O58  1  0.50125548  0.35388963  0.41759960  1
  O  O59  1  0.85476322  0.48619007  0.42099921  1
  O  O60  1  0.34721724  0.48058376  0.08035870  1
  O  O61  1  0.13398061  0.67836530  0.07866273  1
  O  O62  1  0.53174540  0.86381051  0.07692095  1
  O  O63  1  0.33206412  0.86381051  0.57692095  1
  O  O64  1  0.54438369  0.67836530  0.57866273  1
  O  O65  1  0.13336552  0.48058376  0.58035870  1
  O  O66  1  0.29809385  0.81952407  0.25433321  1
  O  O67  1  0.51930115  0.68722363  0.25093360  1
  O  O68  1  0.19160901  0.48787211  0.25664644  1
  O  O69  1  0.29626209  0.48787211  0.75664644  1
  O  O70  1  0.16792148  0.68722363  0.75093360  1
  O  O71  1  0.52142922  0.81952407  0.75433321  1
loop_
_geom_bond_atom_site_label_1
_geom_bond_atom_site_label_2
_geom_bond_distance
_geom_bond_site_symmetry_2
Na0 O68 2.405095 1_555
Na0 O51 2.405445 1_555
Na0 O67 2.563829 1_555
Na0 O53 2.564727 1_555
Na0 O32 2.594111 1_555
Na0 O17 2.596638 1_555
Na0 O10 2.768904 1_555
Na1 O52 2.315162 1_555
Na1 O15 2.389282 1_555
Na1 O66 2.424921 1_655
Na1 O51 2.699563 1_555
Na1 O68 2.777544 1_655
Na1 O11 2.816214 1_655
Na1 O30 2.849420 1_655
Na2 O49 2.315161 1_555
Na2 O14 2.389284 1_555
Na2 O71 2.424928 1_555
Na2 O50 2.699572 1_555
Na2 O69 2.777553 1_555
Na2 O6 2.816214 1_555
Na2 O35 2.849424 1_555
Na3 O69 2.405087 1_655
Na3 O50 2.405438 1_555
Na3 O70 2.563829 1_655
Na3 O48 2.564720 1_555
Na3 O33 2.594109 1_655
Na3 O12 2.596634 1_555
Na3 O7 2.768904 1_655
Na4 O44 2.405095 1_455
Na4 O63 2.405437 1_555
Na4 O43 2.563829 1_565
Na4 O65 2.564711 1_555
Na4 O8 2.594111 1_555
Na4 O29 2.596612 1_555
Na4 O22 2.768904 1_455
Na5 O64 2.315154 1_555
Na5 O27 2.389263 1_555
Na5 O42 2.424921 1_565
Na5 O63 2.699574 1_555
Na5 O44 2.777544 1_555
Na5 O23 2.816214 1_565
Na5 O6 2.849420 1_555
Na6 O61 2.315156 1_555
Na6 O26 2.389258 1_554
Na6 O47 2.424928 1_565
Na6 O62 2.699556 1_555
Na6 O45 2.777553 1_455
Na6 O18 2.816214 1_565
Na6 O11 2.849424 1_555
Na7 O45 2.405087 1_555
Na7 O62 2.405452 1_555
Na7 O46 2.563829 1_565
Na7 O60 2.564725 1_555
Na7 O9 2.594109 1_555
Na7 O24 2.596619 1_554
Na7 O19 2.768904 1_555
Na8 O56 2.405078 1_555
Na8 O39 2.405445 1_555
Na8 O55 2.563821 1_555
Na8 O41 2.564727 1_545
Na8 O20 2.594085 1_556
Na8 O5 2.596638 1_555
Na8 O34 2.768904 1_545
Na9 O40 2.315162 1_555
Na9 O3 2.389282 1_555
Na9 O54 2.424926 1_555
Na9 O39 2.699563 1_455
Na9 O56 2.777558 1_555
Na9 O35 2.816214 1_555
Na9 O18 2.849406 1_556
Na10 O37 2.315161 1_555
Na10 O2 2.389284 1_555
Na10 O59 2.424911 1_555
Na10 O38 2.699572 1_655
Na10 O57 2.777541 1_555
Na10 O30 2.816214 1_655
Na10 O23 2.849398 1_555
Na11 O57 2.405095 1_555
Na11 O38 2.405438 1_555
Na11 O58 2.563822 1_555
Na11 O36 2.564720 1_545
Na11 O21 2.594089 1_555
Na11 O0 2.596634 1_555
Na11 O31 2.768904 1_545
Na12 O44 2.456386 1_555
Na12 O42 2.499427 1_565
Na12 O43 2.530790 1_665
Na12 O36 2.547597 1_655
Na12 O37 2.705006 1_565
Na12 O38 2.845602 1_665
Na13 O45 2.456386 1_455
Na13 O47 2.499427 1_565
Na13 O46 2.530790 1_465
Na13 O41 2.547597 1_454
Na13 O40 2.705006 1_564
Na13 O39 2.845602 1_464
Na14 O56 2.456386 1_555
Na14 O54 2.499427 1_555
Na14 O55 2.530790 1_555
Na14 O48 2.547597 1_555
Na14 O49 2.705006 1_555
Na14 O50 2.845602 1_555
Na15 O57 2.456386 1_555
Na15 O59 2.499427 1_555
Na15 O58 2.530790 1_555
Na15 O53 2.547597 1_555
Na15 O52 2.705006 1_555
Na15 O51 2.845602 1_555
Na16 O68 2.456386 1_555
Na16 O66 2.499427 1_555
Na16 O67 2.530790 1_555
Na16 O60 2.547597 1_555
Na16 O61 2.705006 1_555
Na16 O62 2.845602 1_555
Na17 O69 2.456386 1_555
Na17 O71 2.499427 1_555
Na17 O70 2.530790 1_555
Na17 O65 2.547597 1_555
Na17 O64 2.705006 1_555
Na17 O63 2.845602 1_555
Ca0 O1 2.134885 1_555
Ca0 O0 2.218149 1_665
Ca0 O2 2.218664 1_565
Ca0 O37 2.265583 1_565
Ca0 O38 2.269596 1_665
Ca0 O36 2.290272 1_655
Ca1 O4 2.134885 1_455
Ca1 O5 2.218149 1_465
Ca1 O3 2.218664 1_565
Ca1 O40 2.265583 1_565
Ca1 O39 2.269596 1_465
Ca1 O41 2.290272 1_455
Ca2 O13 2.134885 1_555
Ca2 O12 2.218149 1_555
Ca2 O14 2.218664 1_555
Ca2 O49 2.265583 1_555
Ca2 O50 2.269596 1_555
Ca2 O48 2.290272 1_555
Ca3 O16 2.134885 1_555
Ca3 O17 2.218149 1_555
Ca3 O15 2.218664 1_555
Ca3 O52 2.265583 1_555
Ca3 O51 2.269596 1_555
Ca3 O53 2.290272 1_555
Ca4 O25 2.134885 1_554
Ca4 O24 2.218149 1_554
Ca4 O26 2.218664 1_554
Ca4 O61 2.265583 1_555
Ca4 O62 2.269596 1_555
Ca4 O60 2.290272 1_555
Ca5 O28 2.134885 1_555
Ca5 O29 2.218149 1_555
Ca5 O27 2.218664 1_555
Ca5 O64 2.265583 1_555
Ca5 O63 2.269596 1_555
Ca5 O65 2.290272 1_555
Ga0 O7 1.959314 1_655
Ga0 O6 1.968024 1_545
Ga0 O42 1.968944 1_555
Ga0 O44 2.036368 1_545
Ga0 O43 2.355600 1_655
Ga0 O8 2.431366 1_645
Ga1 O10 1.959314 1_555
Ga1 O11 1.968024 1_545
Ga1 O47 1.968944 1_555
Ga1 O45 2.036368 1_445
Ga1 O46 2.355600 1_455
Ga1 O9 2.431366 1_445
Ga2 O19 1.959314 1_556
Ga2 O18 1.968024 1_556
Ga2 O54 1.968944 1_555
Ga2 O56 2.036368 1_555
Ga2 O55 2.355600 1_555
Ga2 O20 2.431366 1_556
Ga3 O22 1.959314 1_555
Ga3 O23 1.968024 1_555
Ga3 O59 1.968944 1_555
Ga3 O57 2.036368 1_555
Ga3 O58 2.355600 1_555
Ga3 O21 2.431366 1_555
Ga4 O31 1.959314 1_555
Ga4 O30 1.968024 1_555
Ga4 O66 1.968944 1_555
Ga4 O68 2.036368 1_555
Ga4 O67 2.355600 1_555
Ga4 O32 2.431366 1_555
Ga5 O34 1.959314 1_555
Ga5 O35 1.968024 1_555
Ga5 O71 1.968944 1_555
Ga5 O69 2.036368 1_555
Ga5 O70 2.355600 1_555
Ga5 O33 2.431366 1_555
O0 P0 1.513534 1_545
O1 S0 1.452169 1_555
O2 P1 1.510219 1_655
O3 P2 1.510219 1_555
O4 S1 1.452169 1_655
O5 P3 1.513534 1_545
O6 P3 1.591662 1_555
O7 P2 1.592237 1_555
O8 S1 1.484046 1_555
O9 S0 1.484046 1_555
O10 P1 1.592237 1_555
O11 P0 1.591663 1_555
O12 P4 1.513534 1_555
O13 S2 1.452169 1_555
O14 P5 1.510219 1_555
O15 P6 1.510219 1_555
O16 S3 1.452169 1_555
O17 P7 1.513534 1_555
O18 P7 1.591662 1_555
O19 P6 1.592237 1_555
O20 S3 1.484046 1_555
O21 S2 1.484046 1_555
O22 P5 1.592237 1_555
O23 P4 1.591663 1_555
O24 P8 1.513534 1_555
O25 S4 1.452169 1_555
O26 P9 1.510219 1_555
O27 P10 1.510219 1_555
O28 S5 1.452169 1_555
O29 P11 1.513534 1_555
O30 P11 1.591662 1_555
O31 P10 1.592237 1_555
O32 S5 1.484046 1_555
O33 S4 1.484046 1_555
O34 P9 1.592237 1_555
O35 P8 1.591663 1_555
O36 P11 1.524670 1_555
O37 P10 1.523417 1_545
O38 S5 1.500826 1_555
O39 S4 1.500829 1_655
O40 P9 1.523408 1_545
O41 P8 1.524675 1_555
O42 P4 1.588956 1_555
O43 S2 1.494850 1_555
O44 P5 1.605693 1_555
O45 P6 1.605698 1_555
O46 S3 1.494841 1_555
O47 P7 1.588961 1_555
O48 P3 1.524670 1_545
O49 P2 1.523417 1_555
O50 S1 1.500826 1_655
O51 S0 1.500829 1_555
O52 P1 1.523408 1_655
O53 P0 1.524675 1_545
O54 P8 1.588968 1_555
O55 S4 1.494836 1_655
O56 P9 1.605693 1_545
O57 P10 1.605684 1_545
O58 S5 1.494854 1_555
O59 P11 1.588958 1_655
O60 P7 1.524682 1_555
O61 P6 1.523403 1_455
O62 S3 1.500824 1_565
O63 S2 1.500817 1_565
O64 P5 1.523421 1_555
O65 P4 1.524671 1_455
O66 P0 1.588956 1_555
O67 S0 1.494850 1_555
O68 P1 1.605693 1_555
O69 P2 1.605698 1_555
O70 S1 1.494841 1_555
O71 P3 1.588961 1_555
