# generated using pymatgen
data_ScSiRh
_symmetry_space_group_name_H-M   'P 1'
_cell_length_a   4.06751002
_cell_length_b   6.51909704
_cell_length_c   7.22063075
_cell_angle_alpha   90.00000000
_cell_angle_beta   90.00000000
_cell_angle_gamma   90.00000000
_symmetry_Int_Tables_number   1
_chemical_formula_structural   ScSiRh
_chemical_formula_sum   'Sc4 Si4 Rh4'
_cell_volume   191.46580136
_cell_formula_units_Z   4
loop_
 _symmetry_equiv_pos_site_id
 _symmetry_equiv_pos_as_xyz
  1  'x, y, z'
loop_
 _atom_site_type_symbol
 _atom_site_label
 _atom_site_symmetry_multiplicity
 _atom_site_fract_x
 _atom_site_fract_y
 _atom_site_fract_z
 _atom_site_occupancy
  Sc  Sc0  1  0.75000000  0.49260542  0.19038620  1
  Sc  Sc1  1  0.25000000  0.00739458  0.69038620  1
  Sc  Sc2  1  0.75000000  0.99260542  0.30961380  1
  Sc  Sc3  1  0.25000000  0.50739458  0.80961380  1
  Si  Si0  1  0.25000000  0.78787255  0.11390325  1
  Si  Si1  1  0.25000000  0.28787255  0.38609675  1
  Si  Si2  1  0.75000000  0.21212745  0.88609675  1
  Si  Si3  1  0.75000000  0.71212745  0.61390325  1
  Rh  Rh0  1  0.25000000  0.65621930  0.43682504  1
  Rh  Rh1  1  0.25000000  0.15621930  0.06317496  1
  Rh  Rh2  1  0.75000000  0.84378070  0.93682504  1
  Rh  Rh3  1  0.75000000  0.34378070  0.56317496  1
loop_
_geom_bond_atom_site_label_1
_geom_bond_atom_site_label_2
_geom_bond_distance
_geom_bond_site_symmetry_2
Sc0 Si1 2.813275 1_655
Sc0 Si1 2.813275 1_555
Sc0 Si0 2.854170 1_555
Sc0 Si0 2.854170 1_655
Sc0 Si2 2.858461 1_554
Sc1 Si2 2.813275 1_455
Sc1 Si2 2.813275 1_555
Sc1 Si3 2.854170 1_545
Sc1 Si3 2.854170 1_445
Sc1 Si1 2.858461 1_555
Sc2 Si0 2.813275 1_655
Sc2 Si0 2.813275 1_555
Sc2 Si1 2.854170 1_565
Sc2 Si1 2.854170 1_665
Sc2 Si3 2.858461 1_555
Sc3 Si3 2.813275 1_455
Sc3 Si3 2.813275 1_555
Sc3 Si2 2.854170 1_455
Sc3 Si2 2.854170 1_555
Sc3 Si0 2.858461 1_556
Rh0 Si1 2.429064 1_555
Rh0 Si3 2.429786 1_555
Rh0 Si3 2.429786 1_455
Rh0 Si0 2.484639 1_555
Rh0 Sc3 2.861279 1_555
Rh0 Sc0 2.905210 1_555
Rh0 Sc0 2.905210 1_455
Rh0 Sc1 2.931415 1_565
Rh0 Sc2 3.128713 1_555
Rh0 Sc2 3.128713 1_455
Rh1 Si0 2.429064 1_545
Rh1 Si2 2.429786 1_554
Rh1 Si2 2.429786 1_454
Rh1 Si1 2.484639 1_555
Rh1 Sc1 2.861279 1_554
Rh1 Sc2 2.905210 1_445
Rh1 Sc2 2.905210 1_545
Rh1 Sc3 2.931415 1_554
Rh1 Sc0 3.128713 1_555
Rh1 Sc0 3.128713 1_455
Rh2 Si2 2.429064 1_565
Rh2 Si0 2.429786 1_556
Rh2 Si0 2.429786 1_656
Rh2 Si3 2.484639 1_555
Rh2 Sc2 2.861279 1_556
Rh2 Sc1 2.905210 1_565
Rh2 Sc1 2.905210 1_665
Rh2 Sc0 2.931415 1_556
Rh2 Sc3 3.128713 1_655
Rh2 Sc3 3.128713 1_555
Rh3 Si3 2.429064 1_555
Rh3 Si1 2.429786 1_555
Rh3 Si1 2.429786 1_655
Rh3 Si2 2.484639 1_555
Rh3 Sc0 2.861279 1_555
Rh3 Sc3 2.905210 1_655
Rh3 Sc3 2.905210 1_555
Rh3 Sc2 2.931415 1_545
Rh3 Sc1 3.128713 1_655
Rh3 Sc1 3.128713 1_555
