# generated using pymatgen
data_MgFe2(AgO2)2
_symmetry_space_group_name_H-M   'P 1'
_cell_length_a   3.07935000
_cell_length_b   3.07935022
_cell_length_c   14.29734400
_cell_angle_alpha   90.00000000
_cell_angle_beta   90.00000000
_cell_angle_gamma   120.00001916
_symmetry_Int_Tables_number   1
_chemical_formula_structural   MgFe2(AgO2)2
_chemical_formula_sum   'Mg1 Fe2 Ag2 O4'
_cell_volume   117.40972006
_cell_formula_units_Z   1
loop_
 _symmetry_equiv_pos_site_id
 _symmetry_equiv_pos_as_xyz
  1  'x, y, z'
loop_
 _atom_site_type_symbol
 _atom_site_label
 _atom_site_symmetry_multiplicity
 _atom_site_fract_x
 _atom_site_fract_y
 _atom_site_fract_z
 _atom_site_occupancy
  Mg  Mg0  1  0.33333300  0.66666700  0.63459900  1
  Fe  Fe0  1  0.00000000  0.00000000  0.45458500  1
  Fe  Fe1  1  0.00000000  0.00000000  0.02043600  1
  Ag  Ag0  1  0.66666600  0.33333300  0.79364400  1
  Ag  Ag1  1  0.33333300  0.66666700  0.24072000  1
  O  O0  1  0.33333300  0.66666700  0.39154200  1
  O  O1  1  0.66666600  0.33333300  0.95042200  1
  O  O2  1  0.66666600  0.33333300  0.55455800  1
  O  O3  1  0.33333300  0.66666700  0.09491000  1
loop_
_geom_bond_atom_site_label_1
_geom_bond_atom_site_label_2
_geom_bond_distance
_geom_bond_site_symmetry_2
Mg0 O2 2.114328 1_565
Mg0 O2 2.114330 1_455
Mg0 O2 2.114331 1_555
Fe0 O0 1.993294 1_545
Fe0 O0 1.993296 1_445
Fe0 O0 1.993296 1_555
Fe0 O2 2.281190 1_555
Fe0 O2 2.281192 1_445
Fe0 O2 2.281193 1_455
Fe1 O1 2.040299 1_554
Fe1 O1 2.040302 1_444
Fe1 O1 2.040302 1_454
Fe1 O3 2.072330 1_545
Fe1 O3 2.072332 1_445
Fe1 O3 2.072332 1_555
Ag0 O1 2.241509 1_555
Ag1 O3 2.084696 1_555
Ag1 O0 2.156354 1_555
