# generated using pymatgen
data_MgFe6(OF)6
_symmetry_space_group_name_H-M   'P 1'
_cell_length_a   5.25667293
_cell_length_b   14.48427659
_cell_length_c   3.07163527
_cell_angle_alpha   90.03239600
_cell_angle_beta   89.62682227
_cell_angle_gamma   84.46629742
_symmetry_Int_Tables_number   1
_chemical_formula_structural   MgFe6(OF)6
_chemical_formula_sum   'Mg1 Fe6 O6 F6'
_cell_volume   232.77653032
_cell_formula_units_Z   1
loop_
 _symmetry_equiv_pos_site_id
 _symmetry_equiv_pos_as_xyz
  1  'x, y, z'
loop_
 _atom_site_type_symbol
 _atom_site_label
 _atom_site_symmetry_multiplicity
 _atom_site_fract_x
 _atom_site_fract_y
 _atom_site_fract_z
 _atom_site_occupancy
  Mg  Mg0  1  0.61850408  0.65396614  0.47346159  1
  Fe  Fe0  1  0.08468611  0.01209490  0.98868882  1
  Fe  Fe1  1  0.88062771  0.31945453  0.99502582  1
  Fe  Fe2  1  0.13058077  0.67796432  0.97645618  1
  Fe  Fe3  1  0.46265972  0.17221303  0.49087788  1
  Fe  Fe4  1  0.29280324  0.46195334  0.49364966  1
  Fe  Fe5  1  0.50839565  0.84940970  0.48587538  1
  O  O0  1  0.30064822  0.59318025  0.48569597  1
  O  O1  1  0.20785741  0.93042426  0.48797691  1
  O  O2  1  0.32638834  0.09741077  0.99143529  1
  O  O3  1  0.44312070  0.75763221  0.98876057  1
  O  O4  1  0.13471465  0.42183986  0.99507599  1
  O  O5  1  0.61666752  0.23082926  0.98960974  1
  F  F0  1  0.12680486  0.25748751  0.49356828  1
  F  F1  1  0.80454738  0.59859307  0.97197080  1
  F  F2  1  0.69116938  0.90600803  0.98319627  1
  F  F3  1  0.84908722  0.06352896  0.48941311  1
  F  F4  1  0.64758153  0.41111193  0.49491848  1
  F  F5  1  0.88704453  0.74693593  0.47434324  1
loop_
_geom_bond_atom_site_label_1
_geom_bond_atom_site_label_2
_geom_bond_distance
_geom_bond_site_symmetry_2
Mg0 O0 1.962476 1_555
Mg0 O3 2.252681 1_554
Mg0 O3 2.306764 1_555
Fe0 O2 1.855897 1_555
Fe0 O1 2.005312 1_545
Fe0 O1 2.009443 1_546
Fe1 O5 1.979189 1_555
Fe1 O4 2.089306 1_655
Fe2 O0 2.085251 1_555
Fe2 O3 2.097276 1_555
Fe2 O0 2.136038 1_556
Fe3 O5 1.965895 1_554
Fe3 O5 1.967297 1_555
Fe3 O2 2.046517 1_555
Fe3 O2 2.050027 1_554
Fe4 O4 1.864898 1_555
Fe4 O4 1.866055 1_554
Fe4 O0 1.905313 1_555
Fe5 O1 1.874883 1_555
Fe5 O3 2.075801 1_554
Fe5 O3 2.086692 1_555
F0 Fe3 2.054700 1_555
F0 Fe1 2.145038 1_455
F0 Fe1 2.151413 1_454
F1 Mg0 1.949414 1_556
F1 Mg0 1.952947 1_555
F1 Fe2 2.153932 1_655
F2 Fe5 2.024422 1_555
F2 Fe5 2.028113 1_556
F3 Fe0 2.061632 1_654
F3 Fe0 2.070942 1_655
F3 Fe3 2.446954 1_555
F4 Fe4 1.937933 1_555
F4 Fe1 2.297932 1_554
F4 Fe1 2.310009 1_555
F5 Mg0 2.042717 1_555
F5 Fe2 2.168376 1_654
F5 Fe2 2.190072 1_655
F5 Fe5 2.365449 1_555
