# generated using pymatgen
data_Gd2MgMo2(ClO4)2
_symmetry_space_group_name_H-M   'P 1'
_cell_length_a   6.73504663
_cell_length_b   6.73504690
_cell_length_c   7.23152126
_cell_angle_alpha   76.27814847
_cell_angle_beta   76.27815155
_cell_angle_gamma   61.66852592
_symmetry_Int_Tables_number   1
_chemical_formula_structural   Gd2MgMo2(ClO4)2
_chemical_formula_sum   'Gd2 Mg1 Mo2 Cl2 O8'
_cell_volume   277.49928435
_cell_formula_units_Z   1
loop_
 _symmetry_equiv_pos_site_id
 _symmetry_equiv_pos_as_xyz
  1  'x, y, z'
loop_
 _atom_site_type_symbol
 _atom_site_label
 _atom_site_symmetry_multiplicity
 _atom_site_fract_x
 _atom_site_fract_y
 _atom_site_fract_z
 _atom_site_occupancy
  Gd  Gd0  1  0.26817839  0.29021603  0.87172732  1
  Gd  Gd1  1  0.70978397  0.73182161  0.12827268  1
  Mg  Mg0  1  0.75622183  0.24377817  0.00000000  1
  Mo  Mo0  1  0.62464609  0.67000235  0.71039516  1
  Mo  Mo1  1  0.32999765  0.37535391  0.28960484  1
  Cl  Cl0  1  0.06531626  0.05458216  0.19807772  1
  Cl  Cl1  1  0.94541784  0.93468374  0.80192228  1
  O  O0  1  0.30091088  0.29914157  0.54696212  1
  O  O1  1  0.47823904  0.90015484  0.86183823  1
  O  O2  1  0.70085843  0.69908912  0.45303788  1
  O  O3  1  0.51997106  0.12261981  0.14230829  1
  O  O4  1  0.09984516  0.52176096  0.13816177  1
  O  O5  1  0.55158080  0.48876459  0.19672798  1
  O  O6  1  0.87738019  0.48002894  0.85769171  1
  O  O7  1  0.51123541  0.44841920  0.80327202  1
loop_
_geom_bond_atom_site_label_1
_geom_bond_atom_site_label_2
_geom_bond_distance
_geom_bond_site_symmetry_2
Gd0 O7 2.254100 1_555
Gd0 O0 2.295181 1_555
Gd0 O1 2.328449 1_545
Gd0 O6 2.333187 1_455
Gd0 O4 2.478025 1_556
Gd0 O3 2.586165 1_556
Gd1 O5 2.254100 1_555
Gd1 O2 2.295181 1_555
Gd1 O4 2.328449 1_655
Gd1 O3 2.333187 1_565
Gd1 O1 2.478025 1_554
Gd1 O6 2.586165 1_554
Mg0 O3 2.076979 1_555
Mg0 O6 2.076979 1_554
Mg0 O7 2.161234 1_554
Mg0 O5 2.161234 1_555
Mo0 O2 1.798542 1_555
Mo0 O1 1.848451 1_555
Mo0 O7 1.903875 1_555
Mo0 O6 1.953341 1_555
Mo1 O0 1.798542 1_555
Mo1 O4 1.848451 1_555
Mo1 O5 1.903875 1_555
Mo1 O3 1.953341 1_555
Cl0 Mg0 2.457684 1_455
Cl0 Gd0 2.950662 1_554
Cl1 Mg0 2.457684 1_566
Cl1 Gd1 2.950662 1_556
